18
gdb 126425	2.92956	1.26235	0.94568	2.0113	75.59	-0.1975	0.0378	0.2353	1253.3039	0.148109	-435.283289	-435.273623	-435.272679	-435.317837	34.919	
C	-0.0085873371	 1.5496537602	-0.2257456054	-0.375165
C	-0.0713227549	 0.0732089426	 0.201950773	-0.29387
C	-1.4419254951	-0.5166292817	 0.0692667862	 0.265959
N	-2.1405157934	-0.8988792632	 1.1359852164	-0.305825
N	-3.3207915658	-1.3480144109	 0.6363190752	-0.257526
C	-3.3941551362	-1.2675389225	-0.7161430388	 0.317602
N	-4.4889395943	-1.7265170804	-1.4557268635	-0.614154
C	-2.1864003475	-0.7308791721	-1.1178727882	 0.084069
O	-1.8767405696	-0.4151192226	-2.4229740517	-0.458707
H	 1.0107051595	 1.9393798863	-0.140273413	 0.107148
H	-0.3358280698	 1.6690011469	-1.2629235624	 0.125231
H	-0.6622382965	 2.1613827857	 0.4032216727	 0.123848
H	 0.6425569649	-0.5056093278	-0.4009551431	 0.088763
H	 0.2426677835	-0.0347033815	 1.2444407725	 0.120509
H	-4.0014777342	-1.7458956356	 1.2594784697	 0.267675
H	-4.2939816198	-1.6150719079	-2.4446171552	 0.25711
H	-5.3461170071	-1.22570295	-1.2436529911	 0.249063
H	-1.0492711367	-0.8466490755	-2.6598592832	 0.29827
64.2516	116.3009	123.8566	192.2558	240.4815	249.6394	252.729	293.9761	336.4859	381.7143	452.4703	529.8358	584.1833	670.5762	725.441	726.372	781.8525	803.3251	834.8959	969.1475	1044.2724	1078.0778	1089.3815	1125.2147	1165.7206	1227.0563	1274.3245	1306.9007	1349.2627	1363.9712	1406.523	1440.2432	1480.5417	1496.6208	1503.5139	1522.9313	1557.2843	1641.0359	1676.9666	3007.0311	3038.0463	3082.5628	3108.8135	3117.046	3502.7933	3591.4335	3681.7494	3803.1683
CCC1=NNC(N)=C1O	CCc1n[nH]c(N)c1O	
InChI=1S/C5H9N3O/c1-2-3-4(9)5(6)8-7-3/h9H,2H2,1H3,(H3,6,7,8)	InChI=1S/C5H9N3O/c1-2-3-4(9)5(6)8-7-3/h9H,2H2,1H3,(H3,6,7,8)
