18
gdb 44392	3.62321	1.53599	1.39426	3.7863	74.84	-0.2423	0.0311	0.2734	962.8174	0.15143	-401.956791	-401.950254	-401.949309	-401.987566	27.328	
O	-0.0686654711	-0.0124122221	-0.0532897871	-0.364937
C	-0.0291934506	 1.1879436796	-0.0206112822	 0.40062
N	-1.0168476506	 2.1541501909	-0.0541860476	-0.330605
C	-0.1165813991	 3.3008781999	 0.0975103096	 0.032729
C	 0.1000389501	 3.9276975305	 1.4918523519	-0.048731
C	 1.6481451809	 4.1491861204	 1.4412476842	-0.218303
C	 1.6682189269	 2.5837154055	 1.4752955553	-0.028483
C	 0.4203609232	 2.704625691	 2.3947805934	-0.240869
C	 1.0705919486	 2.2771081836	 0.0860848173	-0.175754
H	-2.0162136187	 2.0665032802	 0.06372703	 0.244821
H	-0.1886085344	 4.033059482	-0.7099487243	 0.085793
H	-0.5852768505	 4.7157887149	 1.8054218893	 0.063123
H	 2.0684883498	 4.6486617394	 0.5624243906	 0.093704
H	 2.0413806316	 4.6017660258	 2.3543004089	 0.102881
H	 2.5501849269	 2.0198278984	 1.7753354012	 0.07578
H	 0.6913692915	 3.0111642473	 3.4067441459	 0.10096
H	-0.2891829577	 1.8759130265	 2.4355336507	 0.110534
H	 1.7871861532	 2.3125966062	-0.734606167	 0.096738
121.0216	230.7667	335.6823	417.1615	464.8683	504.5304	549.3163	628.3774	706.0423	779.8515	820.2585	830.4949	847.495	868.164	874.8141	932.5098	950.9539	993.9084	1015.8872	1022.363	1035.389	1063.7114	1068.5062	1099.4782	1114.2202	1157.5166	1169.3847	1222.6066	1234.4607	1236.4443	1254.1922	1277.293	1292.268	1317.5575	1354.4	1367.5234	1490.3562	1524.3937	1887.0634	3049.3735	3074.4814	3081.4207	3110.105	3115.8694	3117.679	3128.9227	3131.8957	3598.9036
O=C1NC2C3CC(C3)C12	O=C1N[C@H]2[C@@H]3C[C@@H](C3)[C@@H]12	
InChI=1S/C7H9NO/c9-7-5-3-1-4(2-3)6(5)8-7/h3-6H,1-2H2,(H,8,9)	InChI=1S/C7H9NO/c9-7-5-3-1-4(2-3)6(5)8-7/h3-6H,1-2H2,(H,8,9)/t3-,4+,5-,6+/m1/s1
