21
gdb 48438	2.42589	1.36874	1.12425	2.523	82.64	-0.2492	-0.0241	0.2251	1199.3121	0.181774	-387.073661	-387.064554	-387.06361	-387.108679	33.896	
O	-0.203684272	 0.0803294962	 0.0616436456	-0.258385
C	-0.0526410534	 1.2696336967	 0.1847035188	 0.093908
C	 1.2647358856	 2.0086814884	 0.0687212779	 0.251209
C	 1.6388222258	 2.5755268125	 1.487434738	-0.276463
C	 2.5882233298	 1.3643107763	 1.6873195787	-0.209881
C	 2.4880306915	 1.0517055477	 0.1699028327	-0.25981
C	 1.2714540157	 3.0017057603	-1.0772406168	-0.059694
C	 0.7630351677	 2.6383701265	-2.4514604826	-0.273349
C	 0.0431087055	 3.6844244553	-1.6369173287	-0.285788
H	-0.9168628697	 1.9247430734	 0.4405794957	 0.081953
H	 2.1688671219	 3.5281956548	 1.4019317076	 0.105015
H	 0.8205545324	 2.7030022849	 2.2034271986	 0.10121
H	 3.5812523747	 1.5832558646	 2.0847178424	 0.100012
H	 2.1355223473	 0.5810052061	 2.3001583387	 0.114718
H	 2.2943269064	 0.0171666954	-0.1164789585	 0.122415
H	 3.3417017261	 1.4312897694	-0.3974248244	 0.095727
H	 2.1664569886	 3.6197045089	-1.0655438584	 0.083916
H	 1.3376770092	 2.9552046288	-3.3145012247	 0.114576
H	 0.2797017263	 1.6740811295	-2.5710172378	 0.128107
H	-0.9349988565	 3.4368303077	-1.2415266872	 0.116035
H	 0.1412666572	 4.7233653668	-1.9316840056	 0.114568
36.5669	56.693	102.4231	189.3189	250.2753	279.5337	337.3358	358.2641	445.6847	544.6972	637.1573	726.1316	783.2041	790.5857	829.0893	855.8077	875.0202	904.1976	923.2022	947.8591	962.3454	985.9897	1059.3265	1063.3991	1074.5032	1083.2492	1104.3075	1142.6537	1146.9892	1198.038	1207.8457	1216.9304	1236.6949	1254.8245	1276.3303	1284.1291	1313.8913	1396.525	1419.4198	1471.8873	1473.3835	1482.171	1502.8877	1507.2964	1818.2385	2865.3166	3045.547	3067.0504	3069.7062	3094.1063	3118.3895	3124.007	3133.3983	3135.4676	3141.6382	3211.9937	3226.5103
O=CC1(CCC1)C1CC1	O=CC1(CCC1)C1CC1	
InChI=1S/C8H12O/c9-6-8(4-1-5-8)7-2-3-7/h6-7H,1-5H2	InChI=1S/C8H12O/c9-6-8(4-1-5-8)7-2-3-7/h6-7H,1-5H2
