18
gdb 79794	3.78299	1.70224	1.57634	2.3389	73.47	-0.2238	0.0716	0.2954	890.02	0.150926	-401.876283	-401.870029	-401.869085	-401.906593	26.628	
O	 0.0319852442	 1.4801190675	-0.0732135607	-0.439292
C	 0.0261153062	 0.0755739098	 0.0260364521	 0.130379
C	 0.153609186	-0.5991993483	 1.4176674859	-0.120987
C	-0.9134141731	 0.0594142138	 2.3032656889	-0.047542
C	-1.5081112909	-1.1218134436	 3.0992577897	-0.183079
N	-2.0499774706	-1.6410991435	 1.7987352638	-0.15071
C	-2.0817668469	-0.1988987482	 1.2816892939	 0.007724
C	-1.3525290368	-0.5776779505	-0.0310454856	-0.088486
C	-0.8476889351	-1.7242720243	 0.8952044733	-0.013634
H	 0.9388586256	 1.7898558957	 0.0162759933	 0.282721
H	 0.7053117453	-0.3891070991	-0.7036339083	 0.06837
H	 1.1215407152	-0.829449127	 1.8626830693	 0.060453
H	-0.6935739987	 1.0347208416	 2.7356635077	 0.068442
H	-0.8303650845	-1.7957901811	 3.6349618671	 0.09548
H	-2.339945842	-0.8383207916	 3.7508068998	 0.105582
H	-3.0160098398	 0.3564118826	 1.34109641	 0.07683
H	-1.9243916868	-0.7127236876	-0.9460846448	 0.075826
H	-0.4859212371	-2.7012133262	 0.5830553644	 0.071924
179.6569	254.5731	278.5688	403.4065	545.4552	549.1823	709.779	746.3552	773.2915	799.1877	824.0137	828.6455	864.172	879.8173	906.964	925.4819	958.9727	979.4414	991.5197	1004.9003	1018.1293	1049.2118	1109.0743	1129.364	1131.9245	1158.3591	1158.8841	1182.2966	1201.0834	1214.4528	1219.6193	1243.2353	1263.8802	1280.8673	1291.1001	1306.7174	1343.3522	1430.5627	1504.3948	2999.1211	3038.4814	3098.5279	3112.3253	3122.1045	3132.5406	3138.7045	3150.5458	3816.8072
OC1C2C3CN4C3C1C24	O[C@H]1[C@H]2[C@@H]3CN4[C@@H]3[C@@H]1[C@@H]24	
InChI=1S/C7H9NO/c9-7-3-2-1-8-5(2)4(7)6(3)8/h2-7,9H,1H2	InChI=1S/C7H9NO/c9-7-3-2-1-8-5(2)4(7)6(3)8/h2-7,9H,1H2/t2-,3-,4+,5-,6+,7-/m0/s1
