14
gdb 44831	3.08679	1.24812	1.01681	5.3238	65.46	-0.2929	-0.0178	0.2751	1124.8841	0.100453	-436.690125	-436.682351	-436.681406	-436.723447	28.004	
O	-0.4811399574	 0.1223352191	-0.1386390606	-0.31166
C	-0.197457151	 1.2632903449	 0.0091557684	 0.443049
O	-1.0457860121	 2.3217608181	 0.322830291	-0.261517
C	 0.0358711246	 3.2654610352	 0.1002556396	 0.039437
C	 1.0945891641	 3.037657443	 1.1119826369	-0.322571
C	 1.0219991741	 2.1452307821	-0.1382660259	 0.113566
C	 2.152287079	 1.9462063419	-1.1171009328	-0.457601
C	 3.2362147492	 1.1248977713	-0.5703231567	 0.276369
N	 4.0945884003	 0.4907976257	-0.1290926493	-0.295208
H	-0.1904543515	 4.1572700884	-0.4664117825	 0.143058
H	 1.9328744074	 3.7290039799	 1.104396467	 0.142044
H	 0.829732213	 2.6398417647	 2.0858246272	 0.153233
H	 1.7795960886	 1.4730406558	-2.0322328181	 0.175283
H	 2.5715973217	 2.9159235101	-1.4085917842	 0.162518
41.1283	109.1526	174.4692	237.4681	311.7935	378.152	434.2092	473.2221	522.1156	679.8592	741.3334	788.2684	827.9251	881.3237	922.6704	928.8719	956.0223	973.9432	1035.2372	1056.8725	1067.3483	1092.7682	1198.4762	1255.7137	1305.0949	1335.1125	1398.8669	1452.4568	1485.4114	1950.5715	2368.9859	3045.2105	3085.6239	3127.1487	3219.9345	3231.1355
O=C1OC2CC12CC#N	O=C1O[C@H]2C[C@@]12CC#N	
InChI=1S/C6H5NO2/c7-2-1-6-3-4(6)9-5(6)8/h4H,1,3H2	InChI=1S/C6H5NO2/c7-2-1-6-3-4(6)9-5(6)8/h4H,1,3H2/t4-,6+/m0/s1
