16
gdb 46570	3.09364	1.73941	1.35832	2.1683	68.82	-0.2449	-0.0456	0.1993	935.1181	0.125062	-437.782902	-437.776211	-437.775267	-437.813978	26.865	
O	-0.1719170589	-0.0572859352	-0.1744080394	-0.284309
C	-0.0386467824	 1.1256369567	-0.0471822423	 0.300896
C	-1.2368782376	 2.1531242263	-0.0311387938	-0.199019
O	-0.7462112101	 3.4652506534	 0.3109124587	-0.314355
C	 0.5445238835	 3.1982553694	 0.7757918633	 0.374723
C	 1.9558960425	 3.8201440997	 0.8529878254	-0.241836
N	 2.1857138799	 2.3283330743	 1.2337619614	-0.161966
C	 0.9253928813	 2.4833613638	 2.0999976472	-0.247516
C	 1.1829740097	 2.0382777032	 0.06323664	-0.097583
H	-1.7187943089	 2.1903804188	-1.0134320804	 0.145232
H	-1.9743782725	 1.8086960895	 0.703858052	 0.143028
H	 2.440247385	 4.1122624346	-0.0807473078	 0.119419
H	 2.1875873442	 4.5019520502	 1.6737243607	 0.117908
H	 1.0798258226	 3.0942205767	 2.9911756071	 0.111662
H	 0.4554080676	 1.5278787284	 2.3459076701	 0.12634
H	 1.6312993941	 2.2084878901	-0.9211303422	 0.107375
114.6938	184.4359	296.266	398.627	462.0072	496.4427	550.9919	589.8926	624.9283	695.6428	753.0437	793.2561	840.3429	881.5496	932.6845	967.7296	981.5482	1003.9444	1032.5238	1044.583	1072.4747	1096.1167	1141.206	1163.2817	1185.682	1193.0479	1209.6064	1244.215	1268.7	1327.8779	1343.1678	1473.2578	1508.7384	1549.8659	1868.4495	3037.1962	3061.0314	3064.7169	3071.7483	3088.803	3135.5675	3145.8415
O=C1COC23CN(C2)C13	O=C1CO[C@@]23CN(C2)[C@@H]13	
InChI=1S/C6H7NO2/c8-4-1-9-6-2-7(3-6)5(4)6/h5H,1-3H2	InChI=1S/C6H7NO2/c8-4-1-9-6-2-7(3-6)5(4)6/h5H,1-3H2/t5-/m0/s1
