20
gdb 126558	4.87367	0.76214	0.69411	3.1409	83.3	-0.2025	0.0418	0.2442	1673.7205	0.172244	-399.358992	-399.34934	-399.348395	-399.39431	35.13	
C	-0.1668390508	 1.5273730392	-0.0674182875	-0.378283
C	-0.2582215918	 0.0130558442	-0.2685761533	-0.154842
C	 0.9687460414	-0.5664748624	-0.9964290427	-0.29056
C	 0.8920163826	-2.0491565037	-1.2015900897	 0.360552
N	 1.678471928	-2.8658664198	-0.5094508976	-0.30334
N	 1.3261578061	-4.1115058779	-0.931595315	-0.246207
C	 0.3494920246	-4.0964723435	-1.8719811158	 0.395106
N	-0.1882627138	-5.2820148612	-2.3817651882	-0.606916
C	 0.0363399419	-2.7670885991	-2.0784641874	-0.368818
H	 0.7142128902	 1.7949261349	 0.5265933653	 0.114917
H	-0.0878529356	 2.0515343756	-1.0267978707	 0.11021
H	-1.0487957964	 1.9152803078	 0.452063624	 0.108754
H	-0.3618659501	-0.4876383516	 0.7014599717	 0.104867
H	-1.1649126558	-0.2317462885	-0.8358236706	 0.094091
H	 1.0788129544	-0.0623410651	-1.9660187094	 0.095443
H	 1.8743128935	-0.3491068649	-0.4201414692	 0.111528
H	 1.7467033661	-4.9156969017	-0.4992852703	 0.264512
H	 0.5151508271	-5.9267093153	-2.7239239368	 0.248648
H	-0.8528471119	-5.099020044	-3.1215663416	 0.254908
H	-0.6875359396	-2.3738783932	-2.7745100551	 0.08543
41.5789	83.565	97.7489	165.4791	244.4099	247.473	284.0583	316.49	376.3836	428.151	461.6111	633.6869	668.5499	718.6662	743.2119	746.7212	788.3847	796.8697	875.9676	901.2849	999.0884	1042.8897	1052.094	1080.4073	1107.6175	1112.4627	1161.9801	1188.9082	1254.4122	1308.1469	1319.7807	1342.8445	1382.1291	1411.6688	1440.3413	1475.343	1489.2711	1497.1295	1499.9794	1510.1175	1539.4986	1620.4044	1659.6943	3015.4279	3026.7421	3028.8554	3055.5508	3079.8714	3096.6195	3100.108	3254.0643	3527.6026	3626.0749	3679.1753
CCCC1=NNC(N)=C1	CCCc1n[nH]c(N)c1	
InChI=1S/C6H11N3/c1-2-3-5-4-6(7)9-8-5/h4H,2-3H2,1H3,(H3,7,8,9)	InChI=1S/C6H11N3/c1-2-3-5-4-6(7)9-8-5/h4H,2-3H2,1H3,(H3,7,8,9)
