22
gdb 88659	3.9525	0.91339	0.81092	2.278	84.	-0.2238	0.0815	0.3053	1501.7233	0.193267	-404.301593	-404.292038	-404.291094	-404.336767	35.299	
C	 1.7957610915	 2.6935056556	-2.3588183564	-0.39575
C	 1.9043315876	 1.2028884865	-2.1006333466	 0.172617
C	 3.1400383876	 0.4633003785	-2.6620303061	-0.330475
C	 3.509566232	 0.2271482898	-1.1796946877	 0.142347
O	 2.3058015095	 0.9067705477	-0.7383040478	-0.317725
C	 3.5606555511	-1.2032471244	-0.7198192655	 0.003556
C	 4.8766617412	-1.8845790091	-0.521671939	-0.262885
N	 4.0123003085	-1.601277415	 0.6121350444	-0.080294
C	 4.4376799562	-0.5896848667	 1.570529565	-0.314412
H	 2.7481115702	 3.1952461863	-2.1591335997	 0.11688
H	 1.5132952522	 2.8835518912	-3.4004565083	 0.11401
H	 1.0330104074	 3.1369948607	-1.7111959803	 0.127552
H	 0.9489502285	 0.7121309757	-2.3298688179	 0.076789
H	 2.9229611558	-0.4446600109	-3.2282492887	 0.108986
H	 3.8389533741	 1.0820727587	-3.2279219191	 0.106408
H	 4.4016833846	 0.7743113358	-0.852833358	 0.071095
H	 2.7179030784	-1.7959542058	-1.0767271917	 0.086392
H	 5.0055200725	-2.9309224243	-0.7865062447	 0.114358
H	 5.7711780745	-1.2726763174	-0.6461628463	 0.10229
H	 5.111717637	 0.1781176139	 1.1605304404	 0.099454
H	 3.5552275898	-0.0886837348	 1.9788401512	 0.138488
H	 4.9633457098	-1.0892474219	 2.3905253027	 0.120318
47.7491	56.8593	126.1058	201.1412	230.2936	248.7135	291.7602	319.3724	374.2964	406.7432	473.8663	553.4265	747.1536	761.8088	796.3202	884.4624	895.1316	916.6978	921.5911	963.7619	1010.7043	1032.7134	1052.321	1087.3295	1092.351	1122.9297	1125.3558	1129.5661	1163.2886	1195.4648	1203.7304	1224.0184	1257.0478	1274.9302	1319.5058	1325.8284	1340.0637	1384.6196	1407.2414	1443.4078	1451.1821	1482.421	1489.5992	1491.3595	1495.4041	1504.9407	1514.141	2982.6144	3008.4861	3028.7271	3031.1951	3069.8549	3073.2459	3078.741	3100.595	3102.8181	3110.5051	3111.4971	3128.653	3168.6271
CC1CC(O1)C1CN1C	C[C@H]1C[C@@H](O1)[C@H]1CN1C	
InChI=1S/C7H13NO/c1-5-3-7(9-5)6-4-8(6)2/h5-7H,3-4H2,1-2H3	InChI=1S/C7H13NO/c1-5-3-7(9-5)6-4-8(6)2/h5-7H,3-4H2,1-2H3/t5-,6+,7+,8?/m0/s1
