19
gdb 86728	2.90008	1.31746	1.1376	4.0761	76.92	-0.244	-0.0321	0.2119	1151.0339	0.159098	-423.059924	-423.051224	-423.05028	-423.093535	32.892	
C	 0.3300301478	 1.1689600863	 0.133544355	-0.480328
C	-0.0355114637	-0.2950381622	 0.2265483838	 0.398661
O	 0.7760701345	-1.1349164999	 0.5568638303	-0.310969
C	-1.4905286175	-0.6734235573	-0.0871677064	-0.152417
C	-1.6136358233	-2.0524341637	-0.7824654884	-0.264321
C	-1.8177789841	-3.0776185984	 0.3628979127	 0.101003
O	-0.6231596307	-3.7170103976	 0.7783897166	-0.441689
C	-2.402948388	-2.2108812263	 1.4627425022	-0.078075
C	-2.2191875937	-0.9124834059	 1.2290921825	-0.079615
H	 1.3553662132	 1.3291678753	 0.4680672332	 0.146364
H	 0.220724571	 1.5106633914	-0.9025619609	 0.147704
H	-0.3607576292	 1.770461881	 0.7356678669	 0.144037
H	-1.950007943	 0.1324562144	-0.6692642707	 0.078201
H	-2.4972188757	-2.0358136743	-1.4273785584	 0.104016
H	-0.7468907931	-2.3140924696	-1.3926126895	 0.113891
H	-2.4890390837	-3.8885166923	 0.0622646861	 0.080893
H	 0.03415863	-3.0124015512	 0.8951078766	 0.289816
H	-2.8441061806	-2.632697867	 2.3585917959	 0.102366
H	-2.4864110204	-0.1003088627	 1.8965038926	 0.100463
55.5653	141.7375	148.8778	178.3472	237.9898	320.3052	343.7768	414.1413	498.2327	572.5975	598.9405	608.7942	735.0764	755.0991	788.1275	813.4411	862.7373	924.521	946.3924	969.0579	977.0958	1002.7018	1043.2443	1060.5222	1090.508	1129.8151	1183.0672	1201.7205	1224.5279	1285.8116	1306.7757	1322.9126	1352.3334	1365.8973	1383.0814	1459.6512	1470.3198	1473.3172	1477.0074	1670.2312	1791.2421	3033.2492	3046.3607	3054.7207	3069.0158	3092.9409	3121.6816	3154.444	3182.6279	3211.2524	3684.0049
CC(=O)C1CC(O)C=C1	CC(=O)[C@H]1C[C@@H](O)C=C1	
InChI=1S/C7H10O2/c1-5(8)6-2-3-7(9)4-6/h2-3,6-7,9H,4H2,1H3	InChI=1S/C7H10O2/c1-5(8)6-2-3-7(9)4-6/h2-3,6-7,9H,4H2,1H3/t6-,7+/m1/s1
