17
gdb 77822	2.41611	1.52976	1.31678	3.4935	68.33	-0.2577	0.0069	0.2646	1036.2428	0.135831	-458.992165	-458.98404	-458.983095	-459.024543	31.158	
C	-0.1022941141	 1.5228353534	-0.0491194763	-0.432534
C	 0.0543613139	 0.0229184401	 0.0722933062	-0.046046
C	 1.36900262	-0.7328040682	-0.1861681725	-0.317308
C	 2.6319444667	 0.0534861897	-0.0901613822	 0.450338
O	 3.4947319199	 0.2011081068	-0.9053692558	-0.339966
O	 2.7145118534	 0.6310628656	 1.156170912	-0.229054
C	 1.6997291553	 0.1396565252	 2.0391515795	-0.154586
C	 0.7312643629	-0.6803395132	 1.1927914177	 0.360603
O	 0.0629628917	-1.7323082121	 1.8000994175	-0.461437
H	 0.7711158037	 2.0652803757	 0.3212567907	 0.143244
H	-0.2492974948	 1.8079107401	-1.0953112308	 0.134243
H	-0.976771113	 1.8616501634	 0.5163780674	 0.127433
H	-0.7899016031	-0.5492878003	-0.3042421365	 0.113516
H	 1.3564081271	-1.5962531211	-0.8373645441	 0.120974
H	 2.1679834495	-0.4939286741	 2.8032215883	 0.112654
H	 1.2286083213	 0.9924147194	 2.5372830391	 0.129268
H	 0.7114023896	-2.3898907503	 2.0789166997	 0.288657
121.5416	191.7442	205.4661	229.881	248.299	330.5928	361.5573	440.0374	486.3085	515.3005	565.3396	674.6312	693.0484	779.106	804.3748	877.8222	929.4751	962.074	1005.0113	1045.6243	1061.8136	1067.9275	1118.6746	1128.743	1172.9942	1210.699	1229.2053	1272.7647	1309.3221	1360.4368	1385.0887	1426.4727	1477.0949	1499.0201	1507.445	1521.7194	1880.3272	3026.7314	3041.984	3083.2038	3103.6198	3123.0752	3150.926	3214.0589	3782.4553
CC1C2C(=O)OCC12O	C[C@H]1[C@H]2C(=O)OC[C@@]12O	
InChI=1S/C6H8O3/c1-3-4-5(7)9-2-6(3,4)8/h3-4,8H,2H2,1H3	InChI=1S/C6H8O3/c1-3-4-5(7)9-2-6(3,4)8/h3-4,8H,2H2,1H3/t3-,4-,6+/m0/s1
