15
gdb 27486	2.02527	1.92986	0.99433	4.2681	72.13	-0.2451	-0.0359	0.2092	1124.1513	0.115114	-450.220974	-450.213056	-450.212112	-450.253791	29.259	
C	-0.0207693232	 1.4921533872	 0.0184642474	-0.488161
C	-0.0000980921	-0.0058377348	-0.0588128172	 0.390359
N	-0.0212493461	-0.6046544796	-1.1973266886	-0.339815
C	-0.0008564821	-2.0027596524	-1.2252212008	 0.408363
N	-0.0176298054	-2.7165576795	-2.277414046	-0.543627
N	 0.0413651559	-2.6623734175	 0.0166793323	-0.375934
C	 0.0650569625	-2.065152056	 1.2469554636	 0.480446
O	 0.1017989153	-2.6415152104	 2.3089729074	-0.386381
N	 0.041852883	-0.6696686436	 1.1456870862	-0.393859
H	 0.8707353399	 1.8641773406	 0.5352779371	 0.149544
H	-0.0521916819	 1.9032894671	-0.9891457206	 0.167331
H	-0.8963115344	 1.8373622081	 0.5793186827	 0.149639
H	-0.0481959732	-2.099515139	-3.0875692396	 0.228921
H	 0.0560131844	-3.6720490043	-0.0020951848	 0.279804
H	 0.0575956576	-0.1721056858	 2.0225708009	 0.273369
103.5412	117.3455	139.8328	214.1081	302.3581	381.8315	523.5783	534.0151	534.8253	580.3452	593.8056	650.5817	666.8967	757.3736	768.5865	872.5948	941.2059	959.501	1021.8863	1062.2329	1072.423	1138.3807	1250.9085	1299.2924	1389.8865	1404.9541	1426.5123	1465.2979	1481.9079	1498.0623	1699.0639	1734.2431	1849.5562	3041.6534	3098.8097	3172.127	3511.714	3626.5036	3641.4624
CC1=NC(=N)NC(=O)N1	C[C]1N=C([NH])NC(=O)N1	
InChI=1S/C4H6N4O/c1-2-6-3(5)8-4(9)7-2/h1H3,(H3,5,6,7,8,9)	InChI=1S/C4H6N4O/c1-2-6-3(5)8-4(9)7-2/h1H3,(H3,5,6,7,8,9)
