19
gdb 94910	2.11232	1.72707	1.40594	3.252	78.59	-0.2501	0.0117	0.2618	1037.9533	0.161243	-382.072535	-382.064394	-382.06345	-382.105075	31.309	
C	-0.0343072851	 1.5648928638	-0.0539799901	-0.414748
C	 0.0003461199	 0.0359331099	 0.01394387	 0.018691
C	 0.596061258	-0.6617871354	-1.2336775286	-0.266216
C	 1.245036612	-1.9538745359	-0.683778609	-0.168465
N	 1.4942635895	-1.7769399516	 0.7680320593	-0.114108
C	 2.3084489175	-0.5899636402	 1.1248877975	-0.166262
C	 3.1044251296	 0.1305362002	 0.1659798888	 0.310151
N	 3.7926591278	 0.6947924959	-0.574469669	-0.358057
C	 0.8079149093	-0.5454956214	 1.168386331	-0.040778
H	 0.9677259094	 1.9777105547	-0.2030146915	 0.142475
H	-0.6624621384	 1.9001843722	-0.8851334123	 0.121477
H	-0.446265564	 1.9935035321	 0.8656001236	 0.116158
H	-1.0258742895	-0.3256826035	 0.1633424397	 0.08642
H	-0.1702632218	-0.8800250192	-1.9815443075	 0.105616
H	 1.3395180492	-0.020183386	-1.7106477426	 0.139575
H	 0.5642341503	-2.8064585545	-0.7665896133	 0.117897
H	 2.1744610285	-2.2197903263	-1.1943240491	 0.128061
H	 2.8286414914	-0.7133032433	 2.0717378986	 0.139035
H	 0.3561730464	-0.5426738312	 2.1576247743	 0.103079
101.8899	146.0804	186.5608	235.1205	243.9641	334.2116	364.6481	455.3825	557.7391	572.2415	663.1495	705.6193	722.6376	793.2409	837.825	872.6441	916.4298	947.7055	973.3153	996.5451	1027.9223	1063.2221	1081.8949	1127.9747	1152.1353	1174.0026	1209.1178	1247.8879	1276.57	1312.819	1331.9477	1341.9994	1353.9197	1378.2529	1401.078	1418.7383	1493.8021	1499.9792	1501.8939	1510.2965	2341.3195	3013.4419	3037.3997	3056.842	3075.7453	3100.6466	3102.4601	3116.3593	3124.8001	3133.8301	3142.3927
CC1CCN2C(C#N)C12	C[C@H]1CCN2[C@@H](C#N)[C@@H]12	
InChI=1S/C7H10N2/c1-5-2-3-9-6(4-8)7(5)9/h5-7H,2-3H2,1H3	InChI=1S/C7H10N2/c1-5-2-3-9-6(4-8)7(5)9/h5-7H,2-3H2,1H3/t5-,6-,7+,9?/m0/s1
