12
gdb 24881	3.63118	1.31231	0.96394	4.4227	73.99	-0.2592	-0.1128	0.1463	1101.8383	0.078875	-431.694922	-431.687802	-431.686858	-431.727255	25.689	
N	-0.1850915867	 1.281357095	 0.0089712064	-0.507924
C	 0.0002461442	 0.0351053517	 0.0008486313	 0.433859
O	-1.1857046854	-0.7337345423	 0.0032955558	-0.23084
C	-1.1118584826	-2.0696923484	-0.0044545547	 0.31407
C	 0.0618434462	-2.7384678096	-0.0146686596	-0.246788
C	 1.2439409832	-1.9195370318	-0.0166806448	 0.028536
N	 1.2231767184	-0.6285013228	-0.0094474647	-0.284618
C	-2.388118495	-2.7190100407	-0.0009368218	 0.255202
N	-3.4035494315	-3.272182384	 0.0016605173	-0.300343
H	 0.7220283664	 1.7445241267	 0.0066846971	 0.245934
H	 0.0977309934	-3.8175431611	-0.0208159967	 0.149773
H	 2.2217934992	-2.3992916827	-0.0247109957	 0.143139
67.7401	127.6262	153.7566	356.4818	437.685	458.4969	466.0502	564.0277	583.0292	697.4071	748.4893	758.4105	831.7592	862.0142	870.6983	968.4662	1000.9003	1018.2769	1089.7014	1200.9399	1255.4414	1391.4657	1415.5274	1587.9497	1685.0893	1743.878	2356.7422	3145.2003	3252.7383	3526.2135
N=C1OC(=CC=N1)C#N	[NH]C1=NC=C[C@@H](O1)C#N	
InChI=1S/C5H3N3O/c6-3-4-1-2-8-5(7)9-4/h1-2,7H	InChI=1S/C5H4N3O/c6-3-4-1-2-8-5(7)9-4/h1-2,4,7H/t4-/m1/s1
