20
gdb 14169	3.73192	1.70934	1.68945	0.1574	79.89	-0.2203	0.0233	0.2436	910.6722	0.177632	-311.875653	-311.867947	-311.867003	-311.90686	30.864	
C	-0.0907760752	 1.5491174641	 0.0194580815	-0.460911
C	 0.0285751116	 0.0393603819	-0.0137009463	 0.339174
C	-1.1882209071	-0.6708652204	 0.5558047156	-0.449709
C	 0.7113119585	-0.6794643382	-1.1566170962	-0.087683
C	 1.6511802696	 0.0823681489	-2.0957234731	-0.285045
C	 2.7850152102	 0.5254317379	-1.1930133349	-0.076886
C	 2.6230334953	 0.092987844	 0.0606364819	-0.079802
C	 1.3598072597	-0.6766093638	 0.2278994152	-0.119751
H	 0.8246337575	 2.0483095647	-0.3029226986	 0.123105
H	-0.907797412	 1.8837056179	-0.6313044952	 0.109236
H	-0.3190687004	 1.8947896842	 1.0346587671	 0.109107
H	-2.0936267578	-0.4133630955	-0.00701177	 0.112369
H	-1.0725873173	-1.7588090637	 0.5199734054	 0.110467
H	-1.3565588081	-0.386333553	 1.6012467608	 0.112366
H	 0.2280840178	-1.5730164072	-1.5371817895	 0.076132
H	 2.0111674587	-0.5621650977	-2.9086539429	 0.104644
H	 1.1597036802	 0.9366705389	-2.5814275488	 0.107148
H	 3.602569923	 1.1454991808	-1.5442367443	 0.090118
H	 3.3050302047	 0.285987175	 0.8814798056	 0.089794
H	 1.3462170913	-1.5476705188	 0.8762235468	 0.076125
183.7849	212.0251	220.8357	222.1971	286.6316	352.0146	372.6268	461.4119	511.604	655.534	704.143	751.0976	794.2814	825.7208	862.2535	933.3779	950.0639	961.0939	967.1337	992.5023	994.4814	1012.3915	1045.7635	1085.5358	1096.4926	1130.8475	1152.1824	1178.4946	1219.4921	1300.016	1309.9319	1318.6998	1375.6235	1404.3	1409.1588	1424.217	1475.5732	1485.7698	1489.9636	1505.6708	1509.0805	1665.5464	3010.9426	3017.5455	3024.9153	3033.6752	3074.4089	3078.8101	3095.8418	3127.8991	3147.9116	3163.5257	3180.5939	3205.6916
CC1(C)C2CC=CC12	CC1(C)[C@H]2CC=C[C@@H]12	
InChI=1S/C8H12/c1-8(2)6-4-3-5-7(6)8/h3-4,6-7H,5H2,1-2H3	InChI=1S/C8H12/c1-8(2)6-4-3-5-7(6)8/h3-4,6-7H,5H2,1-2H3/t6-,7+/m1/s1
