17
gdb 23229	2.70283	1.60273	1.14711	1.3901	76.69	-0.2284	0.0116	0.24	1073.6286	0.135723	-417.908219	-417.900245	-417.8993	-417.94051	30.657	
C	 0.0267101122	 1.4882260413	-0.0147711107	-0.510868
C	-0.1116975659	 0.0004042691	-0.0216268565	 0.237278
C	-0.0347391033	-0.8723418157	 1.2051136969	-0.0768
C	-0.5615134697	-2.2642828461	 0.8908927772	-0.246069
C	 0.1184535941	-2.0339368082	-0.4769284916	-0.111664
N	 1.0623320967	-0.9633474882	 0.1934230286	-0.191959
C	-0.6267922598	-0.8781217851	-1.094176396	 0.442288
N	-1.2111687016	-0.6025117463	-2.1829555791	-0.304115
O	-1.3442294655	-1.7558287685	-2.9878826649	-0.397302
H	 0.7047222121	 1.8071445264	 0.7819242813	 0.131812
H	 0.42298821	 1.8416030093	-0.9707922862	 0.141865
H	-0.9451629333	 1.9650135269	 0.1491480307	 0.134549
H	 0.1432167778	-0.4286155129	 2.1792993955	 0.101959
H	-0.0287197106	-3.0175798172	 1.4771339704	 0.118457
H	-1.6370452992	-2.4613276081	 0.9093190816	 0.113016
H	 0.5344961715	-2.8347478263	-1.0803076458	 0.110632
H	-1.7647593656	-1.3995605203	-3.7774689012	 0.306921
129.0384	159.0474	186.2694	240.9777	272.33	306.3002	387.0427	477.0481	518.6142	595.9253	671.0769	706.6981	745.2404	795.6267	840.9967	874.2245	934.7953	958.0406	990.2694	999.9544	1023.8083	1037.5499	1080.3797	1113.1351	1146.3834	1174.5975	1228.6269	1258.7854	1289.7323	1303.3612	1386.5852	1412.7644	1453.2839	1479.4022	1491.2224	1495.905	1801.0125	3041.3546	3055.3504	3109.5824	3112.6403	3121.2406	3170.0501	3176.8813	3822.3575
CC12C3CC(N13)C2=NO	C[C@]12[C@H]3C[C@H](N13)C2=NO	
InChI=1S/C6H8N2O/c1-6-4-2-3(8(4)6)5(6)7-9/h3-4,9H,2H2,1H3	InChI=1S/C6H8N2O/c1-6-4-2-3(8(4)6)5(6)7-9/h3-4,9H,2H2,1H3/t3-,4+,6+,8?/m0/s1
