16
gdb 133709	2.65952	1.24437	1.1401	2.6248	57.89	-0.2812	0.0799	0.3611	1122.5339	0.117987	-569.386953	-569.377684	-569.37674	-569.421445	33.156	
C	-0.012355979	 1.507225587	-0.1834405983	-0.432306
C	 0.0362963729	 0.020511636	 0.04952175	 0.033792
O	 1.314013838	-0.6329111129	-0.0422830796	-0.285748
C	 0.6586454986	-0.6217966185	 1.2227567565	 0.200314
C	 1.3292914466	 0.115658744	 2.3577623041	-0.487231
C	 0.1304442843	-1.9924268218	 1.6264501405	 0.263544
F	 1.1155842759	-2.7641408842	 2.1091215811	-0.077464
F	-0.7928555697	-1.8673536963	 2.5972206395	-0.081201
F	-0.4335958313	-2.6458085687	 0.608179665	-0.067885
H	 0.8057035924	 2.0317510914	 0.3126305751	 0.131681
H	 0.0541531417	 1.7144616955	-1.2562382171	 0.139411
H	-0.9628989125	 1.914396476	 0.1769916875	 0.131605
H	-0.7596055348	-0.5396417749	-0.4402849262	 0.108324
H	 1.7200212553	 1.0753935873	 2.0208464245	 0.135591
H	 0.6232386566	 0.2844728358	 3.1755595359	 0.140336
H	 2.162664535	-0.4780049857	 2.7434372514	 0.147237
49.7814	129.2798	150.7148	165.4219	206.9323	283.575	293.3415	324.2626	388.9152	457.8881	478.4916	558.079	581.613	612.8339	739.7515	796.3481	879.2415	929.9157	1004.6486	1059.0013	1099.1315	1131.3938	1139.5442	1186.486	1207.1841	1221.7577	1343.132	1352.8867	1406.037	1416.7525	1462.5357	1474.0337	1487.272	1496.741	1523.2208	3044.6731	3058.3784	3106.3486	3118.1466	3124.3055	3142.2639	3158.1615
CC1OC1(C)C(F)(F)F	C[C@H]1O[C@]1(C)C(F)(F)F	
InChI=1S/C5H7F3O/c1-3-4(2,9-3)5(6,7)8/h3H,1-2H3	InChI=1S/C5H7F3O/c1-3-4(2,9-3)5(6,7)8/h3H,1-2H3/t3-,4+/m1/s1
