18
gdb 63222	2.33594	1.59869	1.21805	1.2829	77.95	-0.2521	0.0169	0.2691	1085.1239	0.145889	-401.93326	-401.924282	-401.923338	-401.967118	33.856	
C	 0.1530012438	 1.4531444417	-0.310816946	-0.410238
C	 0.0052846798	-0.047941117	-0.0401063532	 0.254563
C	-1.457717049	-0.4130514898	 0.2244761598	-0.419622
N	 0.5025834127	-0.7880195389	-1.2224311757	-0.283115
C	 1.52955895	-1.4265542675	-0.8551403975	 0.111168
O	 1.9466905476	-1.3702851935	 0.4329211169	-0.227226
C	 0.936545396	-0.5818067724	 1.1261774501	-0.116509
C	 1.5728622816	 0.4096326927	 1.9747552489	 0.341797
C	 2.0724556025	 1.2263952815	 2.7005768501	-0.455307
H	 1.1993212322	 1.7223703816	-0.4751051873	 0.125888
H	-0.4136116925	 1.7131170426	-1.2086530895	 0.125748
H	-0.2240593822	 2.0430257542	 0.5290821399	 0.119672
H	-2.0806454158	-0.1074392119	-0.6201763651	 0.13076
H	-1.5728196624	-1.4929941207	 0.3568950907	 0.119011
H	-1.8253113734	 0.0895471828	 1.1256971877	 0.118577
H	 2.1508655623	-2.0463344724	-1.4928711202	 0.142898
H	 0.3730369078	-1.2828106555	 1.7538085538	 0.116184
H	 2.5207747289	 1.9488267623	 3.3374172367	 0.205751
34.1364	153.3015	198.8823	226.1574	260.8647	287.3933	334.9983	357.7719	371.0022	512.8617	524.3988	595.0162	623.0331	627.9912	676.7612	792.9253	811.4518	902.9271	942.3691	950.6114	964.0671	999.2114	1024.8538	1059.8151	1113.925	1191.8849	1200.6775	1245.9866	1310.7718	1336.6097	1365.167	1400.2649	1420.9204	1476.1717	1484.1625	1495.4674	1504.8544	1710.2932	2240.3621	3028.0403	3036.3239	3048.8441	3107.17	3121.397	3125.4927	3128.5747	3210.75	3500.7425
CC1(C)N=COC1C#C	CC1(C)N=CO[C@H]1C#C	
InChI=1S/C7H9NO/c1-4-6-7(2,3)8-5-9-6/h1,5-6H,2-3H3	InChI=1S/C7H9NO/c1-4-6-7(2,3)8-5-9-6/h1,5-6H,2-3H3/t6-/m0/s1
