19
gdb 22614	2.25959	1.569	1.03063	2.0497	80.27	-0.2265	0.0119	0.2384	1191.5308	0.157638	-419.125861	-419.116577	-419.115633	-419.159487	34.929	
C	-0.023508252	 1.6330768507	-0.0559566233	-0.409271
C	 0.0366846411	 0.1114403863	-0.0048318782	-0.083111
C	 0.713610042	-0.6501925327	-1.1694478287	-0.125277
N	 2.1202527702	-0.2032861559	-1.1972041504	-0.364225
C	 1.7109691038	-1.2955627908	-0.2479697088	 0.235399
C	 2.374918835	-2.635512272	-0.2371692284	-0.510125
C	 1.0712009634	-0.5781259615	 0.8983574035	 0.422609
N	 1.2604706976	-0.7197541422	 2.1415732696	-0.275135
O	 0.3572797409	 0.0704745126	 2.8839433595	-0.393929
H	 0.9528970457	 2.0412968946	-0.32628656	 0.139816
H	-0.7572663602	 1.9667952348	-0.7976648261	 0.108035
H	-0.3132667214	 2.0338375195	 0.9186916116	 0.134372
H	-0.949731206	-0.3134825344	 0.2162892126	 0.097411
H	 0.2346222247	-1.0647788386	-2.0482022849	 0.097232
H	 2.5704052531	-0.6736265406	-1.9838951077	 0.227423
H	 2.4951636872	-3.0206618848	-1.2553846708	 0.116103
H	 3.3666903904	-2.5783527187	 0.2239717283	 0.140746
H	 1.7830796537	-3.3557187664	 0.3358076638	 0.13618
H	 0.6152741006	-0.12745034	 3.7902978384	 0.305748
99.1453	156.5096	182.2816	198.027	214.9363	219.6966	281.231	334.2766	366.0229	431.527	510.1066	547.8217	629.0647	639.614	746.3687	767.9166	819.2831	871.8717	952.5627	960.224	969.2317	1031.4009	1039.9944	1068.7691	1102.459	1113.0583	1138.7125	1153.0509	1227.0117	1288.2647	1323.2047	1358.2346	1381.2696	1400.404	1413.8547	1458.5268	1478.9311	1491.1309	1498.49	1505.3007	1788.9952	3032.1072	3040.3263	3045.5954	3097.375	3107.578	3111.9067	3135.6258	3190.5781	3454.1004	3821.0477
CC1C2NC2(C)C1=NO	C[C@H]1[C@H]2N[C@@]2(C)C1=NO	
InChI=1S/C6H10N2O/c1-3-4-6(2,7-4)5(3)8-9/h3-4,7,9H,1-2H3	InChI=1S/C6H10N2O/c1-3-4-6(2,7-4)5(3)8-9/h3-4,7,9H,1-2H3/t3-,4+,6+/m0/s1
