19
gdb 38580	3.48916	1.70817	1.52354	1.1794	79.25	-0.2076	0.0721	0.2797	929.573	0.162577	-381.950987	-381.944692	-381.943748	-381.98117	27.749	
C	-0.1434076796	 1.5226028215	 0.127924959	-0.254167
C	 1.3803465595	 1.2792509114	 0.0597075118	-0.032292
C	 1.1830779801	 0.0670973742	 1.0368715362	-0.291034
C	 0.0947885024	-0.0142470494	-0.0675564645	 0.38427
C	-0.8549453739	-0.9498097097	-0.7761437626	-0.224622
N	-1.8488213752	-0.1972503909	-1.5718157745	-0.331766
C	-0.6065656728	-0.6638823988	-2.2242236549	-0.009867
C	 0.5098905317	 0.4000505333	-2.3489727421	-0.212922
N	 1.2096324234	 0.2444157092	-1.0527708026	-0.123268
H	-0.5579497934	 1.8448820215	 1.08723158	 0.085368
H	-0.6065413981	 2.059037651	-0.6967238277	 0.114516
H	 2.1956629744	 2.0031131702	 0.0646569957	 0.081583
H	 1.9555642303	-0.7008542346	 0.992404318	 0.105348
H	 0.858549167	 0.3063607418	 2.0508443359	 0.093664
H	-1.0839757593	-1.9434741025	-0.408221153	 0.090679
H	-2.6158294324	-0.8150672066	-1.8297022977	 0.230932
H	-0.678639861	-1.4458826267	-2.9731784629	 0.090387
H	 1.1991933721	 0.1629355403	-3.1644640432	 0.099905
H	 0.0692478748	 1.3853041449	-2.5511468208	 0.103286
216.2867	270.8113	375.6477	441.1348	495.418	517.4397	574.0641	647.5705	721.3784	760.5407	800.6255	821.1438	849.5403	854.4734	890.9746	912.1092	933.9245	944.8799	958.2875	980.927	1015.2426	1051.6632	1078.9232	1094.6209	1112.5329	1124.2496	1134.3728	1168.0213	1174.7218	1189.8583	1209.5441	1216.6527	1224.756	1239.5066	1260.8278	1327.7742	1364.6728	1403.0079	1474.3989	1498.8308	1540.2181	3012.066	3063.8472	3076.7796	3077.4476	3111.0206	3158.917	3160.04	3167.2525	3176.7172	3487.4852
C1C2CC11C3NC3CN21	C1[C@H]2C[C@]31[C@H]1N[C@H]1CN23	
InChI=1S/C7H10N2/c1-4-2-7(1)6-5(8-6)3-9(4)7/h4-6,8H,1-3H2	InChI=1S/C7H10N2/c1-4-2-7(1)6-5(8-6)3-9(4)7/h4-6,8H,1-3H2/t4-,5-,6-,7+/m0/s1
