20
gdb 30781	3.18755	1.22968	0.90247	1.4192	84.9	-0.1731	0.0503	0.2235	1319.7205	0.169981	-403.175677	-403.165713	-403.164769	-403.211008	35.388	
C	 0.0199658894	 1.4018396544	-0.0157288223	-0.241192
O	 0.0098590278	-0.0084935882	 0.0009084433	-0.272756
C	-1.2235487144	-0.5940472685	 0.0051516903	 0.277082
C	-1.383621956	-1.9663158554	 0.0240990815	 0.181601
C	-0.3524437528	-3.0419839821	 0.0434148873	-0.512087
N	-2.7474659879	-2.2054808512	 0.0219764895	-0.032932
C	-3.3599524682	-3.5141982685	 0.0430815377	-0.335119
C	-3.4236800206	-1.0161881247	 0.0025669761	-0.102343
C	-2.5084683408	 0.0149415832	-0.0081614382	-0.316494
H	 1.0681937379	 1.7081147033	-0.0157319557	 0.124777
H	-0.4708691232	 1.8008565856	-0.914464912	 0.114921
H	-0.4771399002	 1.8219367247	 0.869852568	 0.114929
H	-0.4200478906	-3.6812846029	 0.9337781393	 0.118811
H	-0.407622106	-3.7014124472	-0.8330822142	 0.118934
H	 0.6359954931	-2.577401527	 0.0449284741	 0.14748
H	-3.0882527354	-4.0692879217	 0.948130708	 0.135462
H	-4.4449360864	-3.3969144674	 0.0234407807	 0.137548
H	-3.060688563	-4.1092937901	-0.8269384377	 0.135711
H	-4.5019262851	-0.9979472249	-0.0017562257	 0.110893
H	-2.7410326776	 1.0668993488	-0.0245254801	 0.094774
49.9951	80.6108	137.9191	149.0233	199.3319	215.4702	228.3361	261.7127	340.8106	353.063	532.8615	579.6925	607.8254	660.6956	689.7866	725.9492	748.0488	761.0768	942.9014	1050.7817	1062.0433	1064.2169	1109.1687	1150.4798	1171.6319	1181.5989	1191.3885	1221.6369	1269.2399	1378.1174	1409.0811	1414.5122	1458.3254	1472.1617	1476.6421	1485.4809	1485.8625	1489.6692	1500.6232	1510.0059	1526.5906	1538.6116	1638.0662	2991.1347	3004.1844	3026.1612	3042.2928	3043.4492	3077.4577	3122.2378	3126.7565	3133.9676	3251.7647	3272.704
COC1=C(C)N(C)C=C1	COc1c(C)n(C)cc1	
InChI=1S/C7H11NO/c1-6-7(9-3)4-5-8(6)2/h4-5H,1-3H3	InChI=1S/C7H11NO/c1-6-7(9-3)4-5-8(6)2/h4-5H,1-3H3
