22
gdb 108627	2.58345	1.30842	0.96314	1.349	89.56	-0.2145	0.0259	0.2404	1312.5781	0.19463	-367.210381	-367.201131	-367.200187	-367.244561	35.166	
C	 0.1066473108	 1.5284797397	 0.3688396404	-0.371438
C	-0.021701699	 0.0525995649	-0.0511299277	-0.289719
C	-1.4399573061	-0.4372511749	-0.1039533881	 0.216551
C	-2.1209424351	-0.8859187489	-1.1725818948	 0.249678
C	-1.679554253	-0.9936231912	-2.5990041193	-0.509243
C	-3.4733543763	-1.3744241557	-0.7555443127	-0.134163
N	-3.3946246509	-2.5410217562	 0.175528829	-0.338422
C	-3.5718018267	-1.1720178	 0.7103763318	-0.042307
C	-2.2769520322	-0.5186178219	 1.1687968806	-0.30238
H	 1.1569023816	 1.8354852357	 0.393323239	 0.11118
H	-0.4220094351	 2.1816740121	-0.3327730548	 0.11716
H	-0.3123367578	 1.7012511287	 1.3650744119	 0.118615
H	 0.4627356627	-0.0878645691	-1.0226825739	 0.099561
H	 0.5433792158	-0.5649849291	 0.6614820503	 0.104275
H	-0.6863103708	-0.5705461811	-2.7658936489	 0.122585
H	-1.6594494364	-2.0418409508	-2.9241764069	 0.131933
H	-2.3785299666	-0.4734575612	-3.2669543837	 0.119821
H	-4.3248959582	-1.3035205093	-1.425836738	 0.079023
H	-4.3047215125	-3.0003710001	 0.1908870609	 0.222243
H	-4.5088001397	-0.9225916042	 1.1965097382	 0.082552
H	-1.7734860915	-1.1088548898	 1.9450683011	 0.112028
H	-2.4663609932	 0.4746951827	 1.5973102256	 0.100468
52.3917	124.8282	157.554	187.6436	217.5921	251.7297	296.9203	352.928	392.8136	523.2768	559.2949	589.8997	659.0907	756.0073	779.0476	812.4904	853.0094	871.1271	925.9752	959.4676	966.07	986.9645	1023.1407	1043.3814	1076.4234	1082.3986	1120.0681	1135.9243	1172.7567	1187.5369	1199.7706	1237.8655	1265.26	1296.9214	1338.3382	1354.9219	1375.1552	1405.5637	1413.0625	1420.4594	1467.5423	1476.087	1480.5832	1492.8888	1498.7218	1508.2677	1718.5257	3007.8794	3014.9144	3015.8466	3035.7837	3048.7203	3058.2101	3068.4304	3105.9336	3108.7953	3116.4647	3151.2235	3167.6746	3465.0112
CCC1=C(C)C2NC2C1	CCC1=C(C)[C@H]2N[C@H]2C1	
InChI=1S/C8H13N/c1-3-6-4-7-8(9-7)5(6)2/h7-9H,3-4H2,1-2H3	InChI=1S/C8H13N/c1-3-6-4-7-8(9-7)5(6)2/h7-9H,3-4H2,1-2H3/t7-,8+/m0/s1
