18
gdb 13076	4.42189	1.27126	1.06935	4.6231	72.62	-0.2301	0.0269	0.257	1110.8735	0.153841	-343.972868	-343.964574	-343.96363	-344.005958	30.037	
C	-0.1143074434	 1.5981745445	-0.1781068101	-0.406781
C	 0.0071804609	 0.0804329813	-0.0438282428	 0.051734
C	 1.1695440078	-0.542326763	-0.8672987691	-0.240909
C	 1.9503385617	-0.6387027733	 0.4655980779	-0.167538
N	 0.6760947206	-0.4402424033	 1.18038491	-0.070059
C	 0.6460989967	 0.3048216716	 2.4181165504	-0.301373
C	 1.2748326753	-0.4581435419	 3.5049612784	 0.281139
N	 1.7880860315	-1.0459705098	 4.3565311965	-0.304601
H	 0.8546261051	 2.0983035839	-0.0736825248	 0.1203
H	-0.5126786534	 1.8475127833	-1.1670738198	 0.124211
H	-0.7988369706	 2.0192500447	 0.5660733595	 0.118979
H	-0.9783144435	-0.3763217337	-0.1953744357	 0.080241
H	 0.9223379712	-1.5172727092	-1.2890952286	 0.117525
H	 1.6005262751	 0.091984646	-1.6431534389	 0.106741
H	 2.4577964796	-1.5794868555	 0.6979552201	 0.119953
H	 2.6674815191	 0.1870358053	 0.6010412082	 0.090859
H	 1.1516568089	 1.2878404463	 2.370189661	 0.126047
H	-0.397043913	 0.496802333	 2.6969217378	 0.153531
61.7735	114.9955	142.0407	232.6944	256.797	314.2727	356.4321	388.8962	463.2412	502.1067	715.3031	771.1052	820.2289	896.9024	922.7614	935.8204	968.4671	974.8582	1040.6948	1080.6753	1120.8247	1143.9754	1176.1723	1217.1305	1232.887	1253.0378	1271.8295	1297.1397	1338.7946	1376.8344	1383.683	1406.7414	1471.3352	1482.9115	1495.493	1497.332	1526.3939	2365.3844	2925.0912	2972.2878	3023.3511	3030.6143	3054.8268	3074.2819	3085.9922	3099.0878	3103.315	3141.402
CC1CCN1CC#N	C[C@H]1CCN1CC#N	
InChI=1S/C6H10N2/c1-6-2-4-8(6)5-3-7/h6H,2,4-5H2,1H3	InChI=1S/C6H10N2/c1-6-2-4-8(6)5-3-7/h6H,2,4-5H2,1H3/t6-/m0/s1
