22
gdb 121747	4.55958	0.5338	0.52747	4.2612	81.48	-0.2417	0.0362	0.2779	2186.7187	0.192271	-441.519919	-441.508491	-441.507547	-441.559332	39.005	
C	-0.0382548733	 1.0454060196	 0.7964221285	-0.37191
C	-0.1791997632	 0.254350253	-0.5059297938	-0.143776
N	-1.4237293755	-0.4942644375	-0.5822903237	-0.317701
C	-1.4778838783	-1.8563954248	-0.4986285569	 0.418558
O	-0.4850428865	-2.5527626527	-0.3754765157	-0.377606
C	-2.8803617764	-2.4543891024	-0.6055796027	-0.324626
C	-3.0682685477	-3.6364947818	 0.3492973377	-0.15161
C	-4.3762245914	-4.3780878057	 0.112324557	-0.075908
O	-4.4608241026	-5.4254411532	 1.0656447717	-0.419723
H	 0.905756819	 1.599509026	 0.8064333036	 0.119806
H	-0.8517375231	 1.7700411819	 0.9145104338	 0.108741
H	-0.0527433573	 0.3737121405	 1.6594701102	 0.133933
H	-0.1102338217	 0.9292582736	-1.368224228	 0.103387
H	 0.6197046641	-0.4845459476	-0.5950301749	 0.151407
H	-2.2881242633	 0.0187957499	-0.6391244407	 0.239415
H	-3.648403821	-1.6889543699	-0.4397377492	 0.089102
H	-2.999156183	-2.7960907182	-1.6431027716	 0.127029
H	-2.2277196819	-4.3247496821	 0.2276349153	 0.138099
H	-3.0445010023	-3.289853609	 1.3888919967	 0.107458
H	-5.2277980827	-3.682963309	 0.2092132402	 0.077441
H	-4.3969722326	-4.7715018017	-0.9179959442	 0.083612
H	-5.2781059192	-5.9078612189	 0.9117131368	 0.284876
19.3594	31.005	69.871	89.4452	130.8356	135.8917	216.8874	258.931	289.9359	292.6181	350.4454	432.2198	440.8683	497.071	632.8634	713.7592	765.4779	794.5545	868.2066	903.9766	938.6854	1026.0053	1045.4544	1073.0185	1086.5025	1100.969	1128.3603	1173.2556	1204.376	1217.5582	1250.4968	1291.8861	1304.1651	1318.9275	1331.6638	1384.7548	1397.4149	1410.7296	1465.0054	1467.7178	1483.3987	1492.7612	1500.1681	1502.1503	1528.4014	1542.0206	1774.7293	2948.8713	2973.5961	3014.959	3027.1522	3032.901	3046.2098	3055.9196	3095.3119	3110.8717	3116.3946	3127.4007	3641.7894	3831.0432
CCNC(=O)CCCO	CCNC(=O)CCCO	
InChI=1S/C6H13NO2/c1-2-7-6(9)4-3-5-8/h8H,2-5H2,1H3,(H,7,9)	InChI=1S/C6H13NO2/c1-2-7-6(9)4-3-5-8/h8H,2-5H2,1H3,(H,7,9)
