19
gdb 64929	4.14571	0.70283	0.6576	2.1246	88.29	-0.2373	0.0268	0.2641	1755.3896	0.157426	-385.826773	-385.817296	-385.816352	-385.86268	34.269	
C	-0.1699174355	 1.4576734787	 0.4058227954	-0.456739
C	 0.0202682386	 0.017728848	-0.0488877653	 0.175948
C	 1.4194739796	-0.4324576649	-0.4516309647	-0.285981
C	 0.8291724488	-0.9184693139	 0.8397201867	-0.284347
C	-1.089100883	-0.5509231706	-0.7665653501	 0.050834
C	-2.0334494222	-1.0105930573	-1.3606228421	 0.091085
C	-3.1575202658	-1.5314183073	-2.0869447842	-0.121431
C	-3.3156447152	-2.9753106073	-2.3533666808	-0.160474
O	-4.1138105064	-2.3350778761	-1.368274704	-0.216774
H	 0.7163656371	 1.8116569732	 0.9415030951	 0.113269
H	-0.3376570531	 2.1192448419	-0.4497786832	 0.126772
H	-1.0313315715	 1.5453317814	 1.0750024849	 0.130427
H	 1.5037950666	-1.1337170985	-1.2729963562	 0.124143
H	 2.2028991334	 0.3168385363	-0.4124665955	 0.117549
H	 1.2053356335	-0.504084775	 1.7689063423	 0.118204
H	 0.5093518009	-1.9515688547	 0.9013442553	 0.126472
H	-3.6197017026	-0.8411512664	-2.7922548183	 0.114047
H	-3.8378765981	-3.2954704353	-3.2545594671	 0.116621
H	-2.5626663851	-3.6641039421	-1.9746273582	 0.120373
22.1508	79.1207	92.618	193.6299	204.3337	234.2803	301.0238	336.3024	447.0789	486.1991	550.2653	555.325	624.9664	781.8588	797.5787	826.5159	837.5596	903.0283	940.9851	953.2248	984.1018	1045.5232	1074.0187	1077.4856	1078.2248	1117.1519	1118.6982	1156.0388	1167.5587	1193.5682	1276.8355	1292.7413	1345.3022	1413.0051	1415.7484	1465.0574	1486.6294	1496.2771	1503.0562	1519.9992	2352.2708	3034.878	3082.1253	3106.4463	3108.476	3111.3603	3136.5942	3141.3609	3174.456	3222.3161	3236.7816
CC1(CC1)C#CC1CO1	CC1(CC1)C#C[C@H]1CO1	
InChI=1S/C8H10O/c1-8(4-5-8)3-2-7-6-9-7/h7H,4-6H2,1H3	InChI=1S/C8H10O/c1-8(4-5-8)3-2-7-6-9-7/h7H,4-6H2,1H3/t7-/m0/s1
