16
gdb 37004	4.11359	2.045	1.62109	1.5831	75.87	-0.2107	-0.0193	0.1914	815.7195	0.12676	-363.513792	-363.508218	-363.507274	-363.543172	24.999	
C	-0.0552171735	 1.5293574618	-0.0429314707	-0.077542
C	 1.2349052564	 1.886670774	-0.0085916135	-0.231606
C	 1.9372414729	 0.5604819882	 0.1144368063	 0.350414
C	 3.3476525309	 0.0336110631	 0.0960834087	-0.231606
C	 3.1620181413	-1.2924327446	 0.1164628828	-0.077541
C	 1.6483693549	-1.4546079144	 0.1391764775	-0.079953
C	 1.0833669448	-0.3588444971	 1.0741135096	-0.06662
C	-0.0220398061	 0.0104834663	 0.0564177595	-0.079954
N	 1.1532610511	-0.3891699816	-0.8734861197	-0.155109
H	-0.9333470032	 2.1505537419	-0.1486086738	 0.110993
H	 1.6871416052	 2.8651312494	-0.0744018918	 0.114465
H	 4.2618298064	 0.6069096409	 0.0531609776	 0.114465
H	 3.8961025397	-2.0852877482	 0.0906623316	 0.110993
H	 1.2061689526	-2.4476481889	 0.0620410418	 0.068323
H	 1.0533255037	-0.3310332289	 2.1728429722	 0.061954
H	-0.943950257	-0.5618102919	-0.0444841281	 0.068323
353.9476	392.1311	422.0244	504.8909	553.7884	660.1627	671.591	707.2282	737.0671	749.2657	805.5224	824.0562	825.4701	864.9053	905.1049	906.9853	918.9002	934.8687	955.3553	971.1743	1032.7972	1072.195	1078.9968	1136.7943	1144.0172	1156.3362	1198.4594	1205.8114	1252.0414	1277.5957	1283.8113	1338.5912	1370.6052	1597.7944	1621.8659	3005.6046	3119.9964	3123.623	3226.7471	3226.8262	3252.5448	3253.8252
C1=CC23C=CC4C2C1N34	C1=C[C@@]23C=C[C@H]4[C@@H]2[C@@H]1N34	
InChI=1S/C8H7N/c1-3-8-4-2-6-7(8)5(1)9(6)8/h1-7H	InChI=1S/C8H7N/c1-3-8-4-2-6-7(8)5(1)9(6)8/h1-7H/t5-,6+,7+,8-
