12
gdb 132849	3.10208	1.48265	1.00318	2.9402	61.51	-0.2373	-0.0578	0.1796	1043.6303	0.07663	-513.902116	-513.894839	-513.893895	-513.9349	26.617	
F	 0.045593603	 0.046176015	-0.3121053893	-0.038655
C	-0.0899007741	 1.3384799239	-0.117309476	 0.283851
C	-1.2043427966	 1.9264259353	 0.2858110417	-0.20507
O	-1.2563576567	 3.2930967214	 0.4647461617	-0.22255
C	-0.1492130498	 4.0622677712	 0.2247696409	 0.341136
N	-0.1642352298	 5.3133414657	 0.3780460512	-0.457518
C	 1.1087254417	 3.3707468373	-0.2338695814	 0.33339
N	 2.1633328026	 4.0095941444	-0.4737004988	-0.447241
O	 1.0630279078	 1.9920715213	-0.383580105	-0.228492
H	-2.1275453997	 1.4146744421	 0.5003940811	 0.159632
H	-1.0877940826	 5.6193793449	 0.6908283911	 0.238232
H	 2.9086900543	 3.3776853274	-0.771742357	 0.243286
46.1466	88.0906	327.2165	339.4215	375.4109	424.7856	461.782	504.665	584.3497	587.5715	682.0863	752.8961	768.5204	802.347	879.5679	931.6694	970.7582	1005.2906	1102.5732	1181.2615	1233.174	1297.5517	1353.9143	1382.0099	1740.4277	1760.222	1815.4542	3276.0484	3477.7258	3483.7055
FC1=COC(=N)C(=N)O1	FC1=COC(=C([NH])O1)[NH]	
InChI=1S/C4H3FN2O2/c5-2-1-8-3(6)4(7)9-2/h1,6-7H	InChI=1S/C4H3FN2O2/c5-2-1-8-3(6)4(7)9-2/h1,6-7H
