13
gdb 130503	4.08411	1.71943	1.21001	4.4783	72.22	-0.2674	-0.0638	0.2036	922.7243	0.093546	-415.653578	-415.647925	-415.646981	-415.683556	22.656	
O	-0.0295403848	 1.2859490422	 0.0093417652	-0.230358
N	 1.264317846	 1.824348225	-0.0002842744	-0.103995
C	 2.103436715	 0.8257009124	-0.0138159199	-0.097691
C	 1.4268410176	-0.4320787671	-0.0140342811	 0.152634
C	 0.0742235361	-0.0591253778	 0.0010848132	 0.47012
N	-0.9810438504	-0.8533402377	 0.0070299949	-0.342269
C	-0.6713570902	-2.1521085251	-0.0029732429	-0.016121
C	 0.638421354	-2.6634314494	-0.0184229227	-0.110079
C	 1.7213711305	-1.7962270622	-0.0242436459	-0.226019
H	 3.1636932932	 1.0375335118	-0.0229506641	 0.144488
H	-1.5141435076	-2.8382662513	 0.0014972587	 0.124083
H	 0.78701863	-3.7366481032	-0.0256491051	 0.112601
H	 2.7419009704	-2.1629875074	-0.0361114527	 0.122605
227.861	253.6989	437.5274	442.914	552.6577	586.4377	633.1878	648.0672	779.6782	810.1506	824.4763	902.7144	904.9971	916.9196	951.1044	972.7727	989.9599	1059.9307	1139.3671	1208.5639	1250.6621	1311.9574	1340.7082	1359.4126	1420.826	1500.0748	1550.0331	1631.281	1645.3878	3166.7823	3191.3971	3210.5915	3239.8335
O1N=CC2=C1N=CC=C2	o1ncc2c1nccc2	
InChI=1S/C6H4N2O/c1-2-5-4-8-9-6(5)7-3-1/h1-4H	InChI=1S/C6H4N2O/c1-2-5-4-8-9-6(5)7-3-1/h1-4H
