17
gdb 67950	2.36532	1.85555	1.31269	4.3595	72.62	-0.2655	-0.008	0.2575	1001.8349	0.136547	-421.875595	-421.868025	-421.867081	-421.907524	29.405	
C	-0.2705740635	 1.4449907603	 0.0985375865	-0.463865
C	 0.0579528435	-0.0248067561	-0.0239334773	 0.40934
O	-1.156178533	-0.851047396	 0.2698561212	-0.286753
C	-0.4912840639	-1.5611061022	 1.2309063949	 0.444579
O	-0.9053820294	-2.4665026986	 1.8833521177	-0.331669
C	 0.8208127214	-0.7832171211	 1.0941074058	-0.280707
C	 1.9958324627	-1.5298008354	 0.4316835956	-0.289203
C	 1.7607515259	-1.2891733535	-1.0431404961	-0.061112
C	 0.7308051725	-0.4791032576	-1.2887948988	-0.121965
H	 0.6353080156	 2.0475298101	-0.0192840125	 0.1299
H	-0.9827432858	 1.7444234	-0.6767998377	 0.13638
H	-0.7155487302	 1.6641816312	 1.0730507732	 0.131979
H	 1.084474263	-0.2198789648	 1.9897326764	 0.108724
H	 2.9633640043	-1.1270494814	 0.7545527065	 0.120345
H	 2.004923244	-2.5963415955	 0.6837575434	 0.137316
H	 2.38318434	-1.7485040316	-1.8036493264	 0.10977
H	 0.384836653	-0.1714075177	-2.2687407023	 0.10694
104.6865	198.8046	211.2501	245.3698	297.3916	356.2176	456.9647	509.0916	602.774	669.0499	692.5085	745.0258	789.1417	832.9143	835.5628	887.0825	940.0295	955.0879	977.6193	1023.3194	1041.9165	1060.3801	1102.3473	1145.368	1167.847	1212.7077	1246.8806	1265.8782	1283.3039	1330.2583	1386.8306	1412.007	1481.5251	1484.6176	1490.3561	1678.3493	1926.6329	3034.5757	3040.6623	3067.5372	3112.2389	3115.4574	3120.2826	3186.9208	3212.2376
CC12OC(=O)C1CC=C2	C[C@]12OC(=O)[C@H]1CC=C2	
InChI=1S/C7H8O2/c1-7-4-2-3-5(7)6(8)9-7/h2,4-5H,3H2,1H3	InChI=1S/C7H8O2/c1-7-4-2-3-5(7)6(8)9-7/h2,4-5H,3H2,1H3/t5-,7-/m1/s1
