14
gdb 67180	3.07738	1.58895	1.51166	4.6609	60.81	-0.2506	-0.0138	0.2368	903.7392	0.102157	-473.791965	-473.785313	-473.784368	-473.822877	26.48	
N	-0.207215024	 1.4750835445	 0.0795103149	-0.622068
C	-0.0072836653	 0.0875171013	-0.0190146164	 0.216715
C	-0.9571437894	-1.0976114813	 0.0304753957	 0.031751
O	-0.3310641586	-1.7844105995	-1.0420221724	-0.279092
C	 0.7869978462	-0.8394968204	-1.0022556205	-0.15349
C	 1.8160441462	-1.5488319784	-0.1274167546	 0.481571
O	 2.8864141273	-2.0040337464	-0.3940040009	-0.340657
O	 1.2408320607	-1.6502964291	 1.1187246873	-0.223365
C	 0.0645968914	-0.8678795152	 1.138696186	 0.028992
H	 0.6144199663	 1.9686975409	 0.4113498251	 0.246056
H	-0.5119762339	 1.8908001732	-0.7934180719	 0.245386
H	-2.025279753	-1.2117241982	 0.1686020415	 0.125493
H	 1.118247017	-0.5237819964	-1.9888401642	 0.110148
H	-0.2498263411	-0.575113355	 2.1310698106	 0.132559
139.7007	234.2144	310.9589	357.6069	372.6347	465.2583	549.0245	590.981	655.3041	731.1783	749.0525	798.6118	809.4755	843.8721	878.1027	908.3708	941.3745	999.2886	1042.6352	1066.5111	1088.0537	1122.8443	1153.0659	1189.1527	1234.9414	1280.2603	1288.3365	1318.5732	1488.6665	1659.8732	1894.226	3156.1732	3200.3749	3224.2845	3508.123	3590.7284
NC12C3OC1C(=O)OC23	N[C@@]12[C@H]3O[C@@H]1C(=O)O[C@@H]23	
InChI=1S/C5H5NO3/c6-5-1-2(5)9-4(7)3(5)8-1/h1-3H,6H2	InChI=1S/C5H5NO3/c6-5-1-2(5)9-4(7)3(5)8-1/h1-3H,6H2/t1-,2+,3+,5+/m0/s1
