18
gdb 36643	5.74764	0.71151	0.69905	2.3334	76.76	-0.2494	0.0304	0.2798	1584.3286	0.147769	-401.888877	-401.880664	-401.87972	-401.922831	30.377	
N	-0.1650879125	-1.1930088563	-0.3240257728	-0.301503
C	-0.1070422557	-0.0470643355	-0.1871300925	 0.258959
C	-0.0062997068	 1.4004605948	-0.0172157529	-0.335491
C	 1.4385241002	 1.9180694357	-0.1939960839	-0.252968
C	 1.5010042824	 3.4319032893	-0.0555195646	 0.043011
C	 1.4833973734	 4.1823166493	 1.3130572423	 0.038044
C	 2.9371994577	 3.7378590295	 1.6026383943	-0.230227
C	 2.8298840078	 4.21852685	 0.1353715746	 0.017754
O	 2.0247194097	 5.3680528273	 0.6112533514	-0.304718
H	-0.6730236604	 1.8838089698	-0.7407083255	 0.156233
H	-0.3842617324	 1.6603463737	 0.9783165114	 0.155181
H	 2.0867506778	 1.4130513282	 0.5265836954	 0.12471
H	 1.7962596361	 1.6318639666	-1.1894836538	 0.128934
H	 0.8523250817	 3.9298045129	-0.7829180636	 0.087897
H	 0.6576943985	 4.3470455101	 2.006466421	 0.096652
H	 3.4920924502	 4.4084439915	 2.2588096812	 0.116507
H	 3.1452866219	 2.6859135473	 1.8056604228	 0.101852
H	 3.6187136602	 4.4233772155	-0.5890713448	 0.099174
59.846	72.1968	104.3019	209.511	308.7947	356.4477	401.6431	498.3596	561.3571	643.1161	720.4404	754.607	810.8379	851.5598	880.894	891.5975	924.8916	968.1198	1007.9549	1011.0154	1031.437	1076.1621	1099.0094	1108.9839	1160.2979	1173.083	1196.3282	1203.3774	1222.4041	1263.5497	1284.5074	1289.536	1318.2022	1366.4267	1408.5623	1468.5246	1484.6594	1501.3121	2363.0654	3040.2166	3051.9011	3067.2191	3074.622	3079.5585	3107.7459	3110.2344	3118.9774	3155.6215
N#CCCC1C2CC1O2	N#CCC[C@H]1[C@H]2C[C@@H]1O2	
InChI=1S/C7H9NO/c8-3-1-2-5-6-4-7(5)9-6/h5-7H,1-2,4H2	InChI=1S/C7H9NO/c8-3-1-2-5-6-4-7(5)9-6/h5-7H,1-2,4H2/t5-,6+,7-
