15
gdb 13305	6.03525	1.2264	1.07613	1.798	67.19	-0.2498	0.0173	0.2671	1054.195	0.119034	-362.639192	-362.631668	-362.630724	-362.671761	27.02	
C	-0.0859551133	-1.22629662	-0.0518324841	-0.436364
C	-0.0337808831	-0.0295212213	 0.0384323145	 0.313732
C	 0.0326044603	 1.4227333866	 0.1196037818	-0.362726
C	 1.4652936012	 1.9827688083	-0.000816885	 0.01428
C	 1.5069062899	 3.5364890437	-0.0312213021	-0.127127
O	 2.3689896707	 3.8914802831	 1.0758154347	-0.218551
C	 2.7056070704	 2.7137144185	 1.6543579137	 0.123919
N	 2.2867843606	 1.621804353	 1.1696587371	-0.257786
H	-0.1282344987	-2.2850839004	-0.1170979153	 0.19579
H	-0.5795388692	 1.8609045025	-0.680271008	 0.129015
H	-0.3978261141	 1.7677946857	 1.0683508498	 0.134614
H	 1.9262955547	 1.5529223239	-0.8962481169	 0.104398
H	 1.9397309835	 3.9462042658	-0.9466888425	 0.124344
H	 0.527813093	 3.9971481754	 0.1381663127	 0.117857
H	 3.339575244	 2.8129572853	 2.5286005896	 0.144604
59.1546	89.172	140.9656	305.957	341.0048	351.4489	458.2913	589.4199	618.3018	642.1382	735.4925	824.8839	877.7806	908.781	958.4437	965.4562	975.2072	1036.8964	1050.2469	1109.5338	1133.1788	1211.7232	1240.5016	1297.375	1317.2913	1330.1078	1373.7756	1382.3901	1463.8481	1516.8339	1706.9198	2243.7747	3014.4277	3042.3964	3047.4418	3059.7143	3105.0015	3216.4825	3507.9311
C#CCC1COC=N1	C#CC[C@H]1COC=N1	
InChI=1S/C6H7NO/c1-2-3-6-4-8-5-7-6/h1,5-6H,3-4H2	InChI=1S/C6H7NO/c1-2-3-6-4-8-5-7-6/h1,5-6H,3-4H2/t6-/m0/s1
