20
gdb 105672	1.84756	1.4618	1.20858	0.5363	75.63	-0.2275	-0.0325	0.195	1187.4873	0.168649	-440.265689	-440.255659	-440.254714	-440.301647	35.946	
C	 0.1382315658	 1.6011843202	 0.3030103972	-0.399508
C	-0.2318406956	 0.1515050596	-0.0260296734	-0.224736
C	 0.6227720912	-0.4604113254	-1.1449909889	 0.204228
N	 2.0823277501	-0.4819942679	-0.8443445621	-0.363027
C	 2.1680233268	-1.9352215516	-1.147994995	-0.172636
C	 0.6320732773	-2.028300697	-1.2507884362	 0.047953
O	 0.0860011382	-2.7441229196	-0.1699030641	-0.423416
C	 0.314894856	 0.1935024956	-2.4791594973	 0.106503
O	-0.4753103241	-0.2284258625	-3.2854381814	-0.256033
H	 1.2052029706	 1.673947197	 0.5342940181	 0.133912
H	-0.0808120195	 2.2845953924	-0.5245351227	 0.112766
H	-0.4208362663	 1.9534196144	 1.1746320073	 0.118615
H	-0.0908115863	-0.4804804056	 0.855708953	 0.121417
H	-1.2898137708	 0.0790455826	-0.3105919374	 0.097749
H	 2.6495552021	 0.1143623964	-1.4398108987	 0.213534
H	 2.6915148051	-2.1899622336	-2.0767564043	 0.102699
H	 2.5887710788	-2.5218625631	-0.3258971396	 0.119145
H	 0.2404883618	-2.3870098979	-2.2073352946	 0.09374
H	-0.8621308973	-2.8297101328	-0.3114823698	 0.290058
H	 0.9004132163	 1.1223022688	-2.6852188599	 0.077035
30.347	72.0616	93.3822	171.3156	200.7298	240.2431	280.9966	310.7899	320.4458	368.5896	429.6231	521.7722	574.8243	654.8221	726.5474	781.6163	835.7326	903.1941	944.4153	976.32	990.0118	1015.1034	1041.1244	1044.9424	1119.6441	1141.7788	1167.8687	1187.7902	1206.6514	1229.1626	1290.4223	1298.6574	1316.4458	1355.2928	1390.0088	1405.9523	1416.4806	1447.6157	1482.865	1501.4278	1506.291	1510.4144	1817.2914	2835.1349	3026.6351	3028.4677	3036.2452	3061.6652	3084.042	3087.1485	3106.0159	3115.5096	3504.2733	3822.0888
CCC1(NCC1O)C=O	CC[C@]1(NC[C@H]1O)C=O	
InChI=1S/C6H11NO2/c1-2-6(4-8)5(9)3-7-6/h4-5,7,9H,2-3H2,1H3	InChI=1S/C6H11NO2/c1-2-6(4-8)5(9)3-7-6/h4-5,7,9H,2-3H2,1H3/t5-,6+/m1/s1
