21
gdb 39070	2.46258	1.68424	1.19973	0.2252	89.51	-0.229	-0.0069	0.2221	1102.349	0.185415	-349.946054	-349.938277	-349.937332	-349.977922	31.847	
C	-0.044179899	 1.5210115185	-0.0993978992	-0.306088
C	 1.2813714308	 0.8127961647	-0.0173225918	 0.011421
C	 2.2812837834	 0.9121813125	 1.1349111973	-0.265788
C	 1.8059955015	 1.0791128295	 2.5592625141	-0.068064
C	 1.431986178	 0.0820212342	 3.3729160603	-0.092065
C	 1.2183286412	-1.30352586	 2.9402007088	-0.095458
C	 0.3767114077	-1.6475676184	 1.9552823328	-0.045676
C	-0.5384979388	-0.6700935218	 1.2595084543	-0.274422
C	 0.0057226995	 0.0088475294	-0.0001896845	-0.005346
H	-0.3917170546	 2.0451669177	 0.7862958885	 0.109709
H	-0.3310200504	 1.9925838773	-1.0333931085	 0.1042
H	 1.8120316955	 0.7563675883	-0.9657478361	 0.080034
H	 2.8970870197	 0.0050892319	 1.090093586	 0.112712
H	 2.9522815871	 1.7499949835	 0.9075274258	 0.098227
H	 1.8839072704	 2.0801402997	 2.9783353209	 0.087264
H	 1.2769555	 0.2999628422	 4.4295476334	 0.088545
H	 1.7494029267	-2.0850637003	 3.4823684813	 0.088454
H	 0.2932048852	-2.6969223712	 1.679380787	 0.085846
H	-1.4703923702	-1.180899885	 0.9902365273	 0.096044
H	-0.8065302721	 0.1068046668	 1.9811945749	 0.111986
H	-0.1937806515	-0.5394427693	-0.9167900427	 0.078466
116.6591	199.859	212.563	276.1527	334.0959	363.0155	404.8081	516.451	563.9719	593.3272	697.2414	731.8367	763.0514	798.2416	817.9323	857.2485	899.6199	929.0777	944.9519	972.9339	994.7009	1006.7472	1022.1918	1061.8488	1063.6679	1074.4691	1110.4482	1140.8268	1159.1816	1220.1935	1236.0524	1256.6571	1285.6037	1295.0086	1333.8401	1342.6345	1382.2528	1396.3228	1424.5449	1445.2027	1477.1982	1483.4324	1497.8049	1680.1911	1692.0168	3016.0281	3033.4452	3050.9946	3081.402	3116.1597	3117.3693	3121.0375	3126.444	3138.8083	3151.1264	3154.2216	3204.5184
C1C2CC=CC=CCC12	C1[C@H]2CC=CC=CC[C@@H]12	
InChI=1S/C9H12/c1-2-4-6-9-7-8(9)5-3-1/h1-4,8-9H,5-7H2/b3-1-,4-2-	InChI=1S/C9H12/c1-2-4-6-9-7-8(9)5-3-1/h1-4,8-9H,5-7H2/b3-1-,4-2-/t8-,9+
