21
gdb 83129	1.9503	1.72471	1.38656	2.9914	82.45	-0.2326	-0.0088	0.2237	1099.3868	0.182275	-387.124318	-387.115147	-387.114203	-387.157972	34.669	
C	-0.2482586684	 1.5121168729	 0.0377506499	-0.427474
C	 0.0319701182	 0.0234638432	 0.0562414172	-0.036881
C	 1.3170264412	-0.6321290614	-0.3534817519	-0.109739
C	 2.5830968525	 0.2265624184	-0.4354554143	-0.23785
C	 2.8057691304	 0.814804958	 0.9749795164	-0.333771
C	 1.8219017849	 0.0926372556	 1.9070566839	 0.358896
O	 1.864878061	 0.1193613312	 3.1139266236	-0.332723
C	 0.86129924	-0.7316854415	 1.1002618796	 0.195026
C	 0.2960859656	-1.9625610097	 1.7674380686	-0.477485
H	 0.6334641554	 2.1239036587	 0.2363633967	 0.122823
H	-0.6349097697	 1.8090360705	-0.9435861091	 0.12135
H	-1.0059565422	 1.7737656117	 0.7838328883	 0.128736
H	-0.8474535258	-0.558475488	-0.2144189593	 0.091757
H	 1.260306938	-1.505298572	-0.9954954847	 0.086968
H	 3.4276607137	-0.4085492292	-0.7182279794	 0.110256
H	 2.5014493723	 1.0019762531	-1.2042749901	 0.106205
H	 3.8191829145	 0.6478641987	 1.35022759	 0.131092
H	 2.635325621	 1.8947468981	 1.0348735373	 0.132606
H	-0.2506373952	-1.6861537145	 2.6740935384	 0.137827
H	-0.3875636925	-2.4962160361	 1.1005754437	 0.109934
H	 1.091370445	-2.6543014575	 2.0649007852	 0.122447
87.8265	137.4451	149.6515	175.1526	212.9969	237.5177	269.5564	368.2197	466.6259	493.7068	547.3722	615.1444	637.4253	667.1683	764.9844	811.6398	843.9778	865.9841	949.1575	965.872	1003.0442	1037.4243	1052.8581	1070.3879	1100.4554	1116.5567	1123.1664	1151.7177	1181.5216	1241.7505	1258.011	1284.041	1320.0485	1331.012	1362.3985	1412.5227	1418.1899	1449.327	1458.1707	1483.0141	1491.3615	1497.5049	1502.9064	1504.5507	1818.1448	3034.7358	3037.5255	3046.2764	3059.7136	3079.2886	3092.2033	3099.5012	3102.465	3110.8288	3114.7313	3135.427	3159.1057
CC1C2CCC(=O)C12C	C[C@H]1[C@H]2CCC(=O)[C@@]12C	
InChI=1S/C8H12O/c1-5-6-3-4-7(9)8(5,6)2/h5-6H,3-4H2,1-2H3	InChI=1S/C8H12O/c1-5-6-3-4-7(9)8(5,6)2/h5-6H,3-4H2,1-2H3/t5-,6+,8-/m0/s1
