15
gdb 130183	3.4479	1.63834	1.11332	2.2248	74.36	-0.185	0.0207	0.2056	1016.3608	0.116778	-413.013465	-413.005933	-413.004989	-413.045142	28.91	
N	-0.0246029558	 1.4172158114	 0.1432987067	-0.602963
C	 0.0512181906	 0.0192807617	 0.0397814949	 0.22404
N	-1.0414826564	-0.7389713403	 0.0319947069	-0.301458
N	-0.6109537706	-2.0398345144	 0.004715914	-0.379363
C	 0.7470953981	-2.1164413959	-0.0133761005	 0.398869
C	 1.2032161052	-0.8000381989	 0.0113055466	 0.23156
N	 2.5827949693	-0.8343381833	-0.0101422503	-0.428366
C	 2.9727541664	-2.1576436958	-0.0240878373	-0.049249
C	 1.871414852	-2.9897417895	-0.0358326716	-0.322221
H	 0.4737862718	 1.8845161246	-0.6064961922	 0.237902
H	-0.9961512905	 1.7068434426	 0.1153297745	 0.247759
H	-1.2949769304	-2.7721187822	 0.036677635	 0.263304
H	 3.2030616024	-0.0533913574	 0.1013059056	 0.262045
H	 4.0210075069	-2.4142922325	-0.0300231775	 0.120012
H	 1.8950015809	-4.06703772	-0.0629984847	 0.098128
142.6529	186.0654	239.1955	261.657	284.4865	317.2327	448.0797	541.4433	608.3052	637.645	652.7124	688.021	711.0127	750.3364	803.2826	826.3296	858.259	929.3301	1066.5679	1080.1714	1098.3554	1159.6164	1187.7299	1250.4018	1338.2372	1362.8476	1424.0402	1447.4178	1507.1317	1554.8942	1584.6732	1631.6084	1647.5722	3249.142	3268.7991	3506.6254	3597.2958	3699.3786	3710.8817
NC1=NNC2=C1NC=C2	Nc1n[nH]c2c1[nH]cc2	
InChI=1S/C5H6N4/c6-5-4-3(8-9-5)1-2-7-4/h1-2,7H,(H3,6,8,9)	InChI=1S/C5H6N4/c6-5-4-3(8-9-5)1-2-7-4/h1-2,7H,(H3,6,8,9)
