16
gdb 47417	2.86603	1.60846	1.23913	3.8383	64.62	-0.2375	-0.0014	0.236	1006.3379	0.12542	-475.027019	-475.019359	-475.018414	-475.059836	27.909	
O	-0.1202961921	 0.0037372236	-0.1748142229	-0.32622
C	-0.0486762631	 1.1852349685	-0.0268233445	 0.393411
O	-1.1323168583	 1.9863076391	 0.1842400906	-0.22829
C	-0.6893719663	 3.3218745112	 0.3800168164	 0.01323
O	 0.6548463368	 3.3885857126	-0.0410723354	-0.28892
C	 1.1800386572	 2.0806138071	-0.0325281668	 0.233102
C	 2.2753339327	 1.7315987067	 1.0228801987	-0.220273
N	 3.0944705146	 1.1442083651	-0.0599721368	-0.299541
C	 2.2541620678	 1.7772620988	-1.1025176209	-0.217689
H	-1.2948530439	 3.9962506476	-0.2323253163	 0.13506
H	-0.7920865418	 3.5760226788	 1.4450940638	 0.116956
H	 2.666150417	 2.6559120247	 1.4681273628	 0.106235
H	 2.0042739534	 1.026391298	 1.8150989662	 0.121072
H	 4.0665562929	 1.4287672281	-0.0629716706	 0.225602
H	 1.9593215866	 1.1040141259	-1.9129794491	 0.126769
H	 2.6401723765	 2.7158104441	-1.5201770252	 0.109494
71.6569	107.6158	166.7722	207.4748	281.162	380.4469	452.3989	540.2896	661.3511	717.2958	735.9618	753.7303	847.8517	929.1777	941.6523	1003.767	1008.499	1035.5257	1053.2727	1080.531	1121.0893	1136.6607	1160.2762	1183.1262	1217.6365	1222.9698	1273.148	1301.2613	1357.976	1378.0674	1443.375	1489.3202	1513.8161	1550.4147	1901.4061	2998.6521	3012.025	3021.9652	3075.471	3084.7026	3087.7119	3545.5939
O=C1OCOC11CNC1	O=C1OCOC21CNC2	
InChI=1S/C5H7NO3/c7-4-5(1-6-2-5)9-3-8-4/h6H,1-3H2	InChI=1S/C5H7NO3/c7-4-5(1-6-2-5)9-3-8-4/h6H,1-3H2
