13
gdb 5173	5.9793	1.46401	1.17606	2.8904	63.98	-0.2061	-0.0074	0.1987	937.4761	0.096818	-398.650032	-398.643327	-398.642383	-398.68135	24.502	
O	 0.5781352844	 2.4968825629	 1.40220278	-0.300142
C	 0.1987203041	 1.9645486918	 0.3842632802	 0.145183
N	 0.9792166002	 1.1969452062	-0.4386668256	-0.405663
C	 2.3221338457	 0.9145207516	-0.2295570755	 0.463132
C	 3.2278127229	 1.246392076	 0.7297248743	-0.27363
C	 4.4495923631	 0.6087427587	 0.324019504	-0.157349
C	 4.1884735535	-0.048157918	-0.8315587804	-0.028267
O	 2.874827523	 0.1314959123	-1.1877187178	-0.192904
H	-0.8353507819	 2.0394079759	-0.000612388	 0.089364
H	 0.5644821993	 0.7969304257	-1.2668793656	 0.266036
H	 3.0365244071	 1.8570811131	 1.5933118369	 0.143576
H	 5.3972210812	 0.6434329141	 0.8382687076	 0.114695
H	 4.7683012774	-0.6567751902	-1.5034986801	 0.135967
72.1277	173.7466	202.7698	356.413	365.066	529.2228	611.0549	620.2933	672.8164	714.1728	801.831	856.686	857.3365	900.5229	970.7304	1005.6095	1026.4654	1096.7052	1145.741	1179.3794	1247.5148	1255.9023	1396.4014	1429.9042	1544.7879	1563.28	1646.3429	1803.4146	2961.3571	3257.8707	3296.935	3308.0858	3627.7261
O=CNC1=CC=CO1	O=CNc1ccco1	
InChI=1S/C5H5NO2/c7-4-6-5-2-1-3-8-5/h1-4H,(H,6,7)	InChI=1S/C5H5NO2/c7-4-6-5-2-1-3-8-5/h1-4H,(H,6,7)
