19
gdb 82462	3.23577	1.61578	1.40052	3.6302	74.04	-0.2241	0.0709	0.295	980.8972	0.162082	-419.141804	-419.134656	-419.133712	-419.172851	30.039	
C	-0.0527026567	 1.5066303549	 0.0746995244	-0.517275
C	-0.027716756	 0.0051242023	 0.0788170351	 0.352388
N	-1.3016399589	-0.7684056651	 0.1721465561	-0.366316
C	-0.3860371681	-1.9192989923	 0.5081581	-0.09315
C	 0.7252647171	-0.9297630138	 1.0588406814	-0.078112
N	 1.9164775727	-1.0692815074	 0.1686331112	-0.355353
C	 0.9129440298	-0.7975427524	-0.9275512108	-0.127332
C	 0.1994374516	-2.1731594387	-0.9054820931	 0.23203
O	 1.0659839975	-3.2611678262	-1.0467882763	-0.457607
H	 0.9630107143	 1.9168625343	 0.056240056	 0.117946
H	-0.5840389235	 1.8808811614	-0.8067742757	 0.137232
H	-0.5566630058	 1.8980480547	 0.9654846682	 0.119065
H	-1.7692459651	-0.4632517532	 1.0272418138	 0.210621
H	-0.786262171	-2.7629959019	 1.066714575	 0.076647
H	 0.859904559	-0.7844387014	 2.1314587228	 0.073404
H	 2.5111671899	-0.2523495835	 0.2955756003	 0.22176
H	 1.2845830415	-0.3972109163	-1.8699602004	 0.073993
H	-0.6033848356	-2.263182429	-1.6374536451	 0.09482
H	 1.8698841073	-2.9944914661	-0.5714955928	 0.28524
188.2918	218.7061	247.7461	307.8377	356.7929	475.2357	504.6386	534.6517	607.2282	673.0571	707.7582	750.6064	808.7472	839.0191	852.2017	882.1421	901.3954	919.7866	939.8822	959.9118	995.7619	1022.9621	1045.8912	1099.832	1121.3177	1127.269	1152.306	1158.6008	1178.8383	1229.268	1262.0337	1271.3228	1283.4809	1302.0751	1328.5154	1356.3441	1373.3125	1413.8845	1453.2518	1483.1073	1493.056	3026.6533	3092.5407	3099.5382	3110.2144	3117.8776	3131.3377	3145.4775	3438.9586	3480.767	3674.2924
CC12NC3C1NC2C3O	C[C@]12N[C@@H]3[C@H]1N[C@H]2[C@H]3O	
InChI=1S/C6H10N2O/c1-6-4-2(8-6)3(9)5(6)7-4/h2-5,7-9H,1H3	InChI=1S/C6H10N2O/c1-6-4-2(8-6)3(9)5(6)7-4/h2-5,7-9H,1H3/t2-,3-,4+,5-,6-/m0/s1
