27
gdb 119078	2.06823	1.08886	0.85068	0.0923	95.74	-0.275	0.077	0.352	1566.1119	0.251534	-353.560569	-353.549759	-353.548814	-353.596432	40.83	
C	-0.9043101149	 1.374231478	-0.2340404245	-0.377517
C	-0.5458725655	-0.1149322652	-0.2219981965	-0.174545
C	 0.5612147022	-0.4670412415	-1.2245399333	-0.249061
C	 0.8735411909	-1.9624383365	-1.35775981	 0.374243
C	 1.3344011284	-2.6147585707	-0.0410198696	-0.227556
C	 2.5727016447	-1.9828697614	 0.6043812541	-0.394419
C	-0.2426537999	-2.8215848034	-2.0429922448	-0.25744
C	 0.8255737847	-3.4467410076	-2.9785584425	-0.212037
C	 1.8172804951	-2.3324339134	-2.5523181402	-0.267641
H	-0.0345186688	 1.9927495053	 0.0147450226	 0.11239
H	-1.2582434317	 1.6883722695	-1.2223967563	 0.112187
H	-1.6927092463	 1.6028532425	 0.4901394635	 0.108774
H	-0.2393620368	-0.4028674427	 0.7909118467	 0.097971
H	-1.4420785408	-0.7078620873	-0.4473779283	 0.097408
H	 0.267751228	-0.0924929851	-2.2150762692	 0.082366
H	 1.4768413855	 0.0807028303	-0.9621423234	 0.090644
H	 0.50348312	-2.6012377512	 0.6757299746	 0.093971
H	 1.537305885	-3.6759185231	-0.2357854645	 0.089154
H	 2.8901115523	-2.5588297082	 1.4793568148	 0.110513
H	 3.4173462612	-1.9498411404	-0.0922914164	 0.116533
H	 2.3810384651	-0.9585732553	 0.9389311525	 0.117657
H	-0.8018345763	-3.5052370248	-1.397317603	 0.088988
H	-0.9608480989	-2.2017246876	-2.5886460161	 0.090664
H	 1.1424042592	-4.440167692	-2.6504362854	 0.100583
H	 0.5771979523	-3.5066294094	-4.0407229259	 0.093813
H	 1.8798459737	-1.5255457411	-3.2887399589	 0.091497
H	 2.8356483814	-2.6421833676	-2.3008208398	 0.090859
72.4337	95.1217	108.2599	137.9047	167.8815	212.0969	241.7059	256.6767	320.2191	340.4413	381.866	391.3316	479.811	658.7926	711.8246	744.0242	784.9361	792.8013	843.9654	869.5484	893.8674	907.8011	949.2137	963.873	974.8983	1017.7562	1034.3961	1042.0105	1058.9185	1070.649	1113.2289	1164.9413	1194.4231	1211.0386	1216.7718	1254.8373	1258.7922	1275.8964	1283.8091	1300.19	1317.2563	1335.4012	1344.9263	1373.2796	1396.1927	1410.9373	1412.0972	1474.1783	1479.3651	1483.917	1490.6263	1492.7357	1499.7431	1502.565	1505.6982	1507.2157	1514.1934	3002.0178	3015.8679	3020.0828	3027.0795	3029.7561	3034.6613	3041.5865	3045.6038	3047.4172	3057.0412	3061.3698	3085.7654	3092.7978	3094.0543	3098.6438	3099.6282	3103.6872	3114.2916
CCCC1(CC)CCC1	CCCC1(CC)CCC1	
InChI=1S/C9H18/c1-3-6-9(4-2)7-5-8-9/h3-8H2,1-2H3	InChI=1S/C9H18/c1-3-6-9(4-2)7-5-8-9/h3-8H2,1-2H3
