20
gdb 90729	4.23501	1.13043	1.02977	0.857	78.99	-0.2092	0.0747	0.2839	1209.9156	0.171024	-403.081039	-403.072871	-403.071926	-403.114003	32.358	
O	 0.624948757	 0.9563461321	-0.3847471495	-0.435682
C	 0.1223198467	-0.2321027442	 0.1737341548	 0.148681
C	-0.0972685187	-0.2672529194	 1.7120876077	-0.226236
N	-1.5712297236	-0.4934938614	 1.5535710196	-0.175389
C	-1.39855541	-0.5052571795	 0.0386288682	-0.023352
C	-1.838785451	-1.9849766716	-0.043520215	-0.345706
C	-1.9521975499	-1.9245582501	 1.4855004364	 0.381976
C	-1.5948580384	-2.9555805625	 2.5104739499	-0.327199
C	-3.0342543554	-2.5087492474	 2.337923863	-0.322485
H	 0.1166014591	 1.69446784	-0.0305052488	 0.282067
H	 0.7542599832	-1.0311760553	-0.2244990127	 0.091639
H	 0.427187808	-1.0538716412	 2.2635663987	 0.107108
H	 0.1130729681	 0.6945569033	 2.1946670279	 0.096897
H	-1.9633052452	 0.2282105115	-0.544928355	 0.073458
H	-2.7837020055	-2.1555986115	-0.5654180471	 0.108496
H	-1.0851319614	-2.6688901786	-0.4470911225	 0.103304
H	-1.3108267733	-3.9460023726	 2.1687080136	 0.114004
H	-1.0723588625	-2.6252322812	 3.4027833095	 0.117621
H	-3.4540567193	-1.8671638996	 3.1049212335	 0.121218
H	-3.7380726578	-3.1953121607	 1.8780835876	 0.109579
41.7355	177.9283	223.4551	273.7691	304.8423	338.6874	362.4042	405.6663	506.2481	557.4905	721.3167	750.214	781.5516	818.4608	853.774	883.0916	904.7036	915.1765	923.7154	976.4369	995.8557	1037.4297	1044.9194	1052.4896	1070.1231	1073.6451	1129.0485	1142.4686	1175.0276	1188.9269	1193.006	1244.881	1247.7757	1250.4548	1283.4421	1290.8291	1338.4396	1371.3756	1436.2284	1453.6798	1483.6473	1488.9111	1499.1117	3027.0855	3044.0848	3060.7007	3065.9731	3086.8331	3101.007	3122.3256	3128.0101	3202.8875	3221.33	3798.0737
OC1CN2C1CC21CC1	O[C@H]1CN2[C@@H]1CC12CC1	
InChI=1S/C7H11NO/c9-6-4-8-5(6)3-7(8)1-2-7/h5-6,9H,1-4H2	InChI=1S/C7H11NO/c9-6-4-8-5(6)3-7(8)1-2-7/h5-6,9H,1-4H2/t5-,6+/m1/s1
