19
gdb 32924	5.84908	0.80255	0.71741	1.8522	81.63	-0.1907	0.0361	0.2268	1615.7051	0.159498	-419.253929	-419.24457	-419.243626	-419.288714	33.566	
C	 0.094872332	 1.5244789639	-0.045653847	-0.397892
C	-0.1116926591	 0.016673254	-0.1356494115	-0.109367
N	 0.6989984507	-0.5475818427	-1.209512727	-0.403606
C	 0.7985194848	-1.9047679075	-1.3192165339	 0.499904
N	 0.497990252	-2.809248391	-0.4377109739	-0.359899
C	 0.871246294	-4.0018489755	-1.061733699	-0.193245
C	 1.3681004562	-3.7586670751	-2.2926451391	 0.317198
C	 1.9034733807	-4.5773133428	-3.4057812802	-0.493989
O	 1.3253371193	-2.3790877484	-2.4748270555	-0.238974
H	 1.1454655189	 1.7653134188	 0.1403406317	 0.130719
H	-0.2100259002	 2.0243149083	-0.9726245778	 0.113793
H	-0.5068827019	 1.9415827019	 0.7664620882	 0.125309
H	 0.1954925642	-0.4741253489	 0.791408287	 0.143044
H	-1.1783329959	-0.2173736922	-0.2735264981	 0.104151
H	 0.6573446968	-0.0656085147	-2.0959527945	 0.244788
H	 0.7458359725	-4.9549098951	-0.5715249792	 0.111896
H	 1.3172157816	-4.4527168375	-4.3241786113	 0.133366
H	 2.9419079588	-4.3165235864	-3.6426466565	 0.135057
H	 1.8747502448	-5.633372429	-3.1265919024	 0.137746
50.5223	86.4573	127.8757	166.1166	206.8379	261.5185	289.1193	331.5691	346.2491	458.2175	522.8841	623.6235	671.3433	751.0267	790.3466	816.6126	845.759	922.3611	969.0861	987.0813	1038.3193	1068.1389	1085.3323	1149.4331	1155.6947	1191.6882	1232.4203	1252.4074	1288.451	1328.0737	1396.7035	1416.9568	1419.7473	1470.8606	1489.8886	1494.1256	1498.7525	1522.7101	1531.3418	1660.426	1674.2552	2989.8097	3022.7824	3034.3102	3069.6314	3088.5816	3109.4206	3123.4785	3123.5394	3255.9069	3603.8452
CCNC1=NC=C(C)O1	CCNc1ncc(C)o1	
InChI=1S/C6H10N2O/c1-3-7-6-8-4-5(2)9-6/h4H,3H2,1-2H3,(H,7,8)	InChI=1S/C6H10N2O/c1-3-7-6-8-4-5(2)9-6/h4H,3H2,1-2H3,(H,7,8)
