17
gdb 52123	4.58343	0.83448	0.79986	3.2555	69.99	-0.2498	0.0034	0.2532	1414.9961	0.134737	-458.930156	-458.921749	-458.920805	-458.964642	30.058	
O	 0.229928564	 0.2057744174	 0.7490647593	-0.27147
C	 0.2982128383	 1.3915973626	 0.6331831384	 0.179646
O	 0.7807146975	 1.9914350224	-0.4709068299	-0.171521
C	 0.8876066776	 3.4283912221	-0.4658792548	-0.22354
C	 2.2955233551	 3.8620794645	-0.2324509739	 0.276117
C	 2.9196243964	 4.0371506616	 1.1423849893	-0.344618
C	 2.8822329677	 5.1932960422	 0.1940907485	 0.056956
O	 3.9495099851	 5.119086183	-0.7472459092	-0.28159
C	 3.4152742922	 3.8723329395	-1.2731206161	-0.127017
H	-0.0355126098	 2.1153790207	 1.4036956064	 0.072609
H	 0.5278819827	 3.7513987162	-1.4472959223	 0.128833
H	 0.2200433716	 3.8487791787	 0.2974397443	 0.114457
H	 2.2070244014	 4.0805405132	 1.9612861027	 0.116813
H	 3.8717580619	 3.5719110602	 1.3810264005	 0.128412
H	 2.4396997281	 6.1630971939	 0.3922248595	 0.113251
H	 4.1460587016	 3.0571441157	-1.246239844	 0.11951
H	 3.0515371185	 4.0143682461	-2.2975577087	 0.113152
43.7166	55.5779	140.0086	195.3674	270.3491	321.0277	363.9023	401.5877	458.042	660.3213	708.3119	761.1743	862.9726	917.8973	932.3422	945.2442	988.7698	996.7146	1024.1015	1032.624	1045.568	1064.0114	1083.951	1109.0737	1155.7711	1159.4367	1241.6898	1288.947	1306.3835	1340.4505	1391.0116	1415.1059	1437.2706	1481.1267	1492.8421	1516.5437	1868.6771	2936.2711	3025.0631	3028.5507	3082.9138	3088.757	3116.3463	3178.969	3207.9437
O=COCC12CC1OC2	O=COC[C@]12C[C@H]1OC2	
InChI=1S/C6H8O3/c7-4-8-2-6-1-5(6)9-3-6/h4-5H,1-3H2	InChI=1S/C6H8O3/c7-4-8-2-6-1-5(6)9-3-6/h4-5H,1-3H2/t5-,6+/m1/s1
