18
gdb 69704	3.74119	1.39314	1.22727	3.8939	75.79	-0.2368	-0.005	0.2318	1052.8552	0.147642	-401.915998	-401.908316	-401.907372	-401.947919	30.252	
C	-0.0809631094	 1.54210803	 0.0370685902	-0.500566
C	 0.021820271	 0.0445576058	 0.01864828	 0.330114
C	-0.8214332926	-0.8587118198	 0.8884316323	-0.353463
C	 0.6744468927	-0.9278234941	 1.0120992027	-0.067164
N	 1.2841756944	-1.6981285371	-0.1062777308	-0.138663
C	 0.71455347	-0.7498109355	-1.1144734261	-0.034472
C	 0.0588847364	-1.9309522907	-1.8720755611	-0.402062
C	 0.5599657346	-2.7920744163	-0.683000481	 0.380091
O	 0.3807318397	-3.90748126	-0.2964014378	-0.308798
H	 0.8618941825	 2.010301955	-0.2669122658	 0.124221
H	-0.8633395037	 1.8923476279	-0.6470669157	 0.126264
H	-0.3306733948	 1.9097892712	 1.037203495	 0.124846
H	-1.3133132637	-0.338480865	 1.7050404765	 0.119601
H	-1.3938424538	-1.6961635805	 0.5003546568	 0.130018
H	 1.2210975682	-0.7576742473	 1.9313668694	 0.10795
H	 1.4512650131	-0.1595513841	-1.6652207488	 0.086602
H	-1.0291650442	-1.9246822403	-1.9675211344	 0.138767
H	 0.5023872396	-2.165619379	-2.8426429516	 0.136712
110.9267	179.5198	191.2841	258.0017	299.721	401.1253	472.9898	482.3141	540.1589	607.7292	669.3901	768.7744	776.3631	826.4794	868.5916	914.3663	964.6536	974.4126	993.6062	1002.287	1028.1512	1053.3806	1065.8305	1096.6682	1103.0143	1132.0826	1144.3064	1198.5481	1222.4403	1249.7715	1260.4954	1313.8308	1397.6579	1423.1261	1440.6857	1485.5511	1495.7439	1497.9776	1893.8671	3023.3964	3072.5947	3079.3395	3082.8966	3101.2722	3120.614	3132.465	3186.4907	3202.4481
CC12CC1N1C2CC1=O	C[C@]12C[C@H]1N1[C@H]2CC1=O	
InChI=1S/C7H9NO/c1-7-3-5(7)8-4(7)2-6(8)9/h4-5H,2-3H2,1H3	InChI=1S/C7H9NO/c1-7-3-5(7)8-4(7)2-6(8)9/h4-5H,2-3H2,1H3/t4-,5+,7+/m0/s1
