16
gdb 68277	2.45949	1.51872	1.46057	3.7749	69.61	-0.2747	0.015	0.2897	986.2985	0.12362	-437.843048	-437.834961	-437.834017	-437.875214	31.483	
O	 0.1151947442	 1.3239724394	-0.0655333887	-0.460849
C	 0.0961364533	-0.0447012021	-0.0110709324	 0.375337
C	 0.7077925794	-0.9692137084	-1.0867226562	-0.288478
C	 0.07862439	-1.9233068314	-0.0258072478	-0.119396
C	 0.6982998521	-1.0085069988	 1.0696382133	-0.315781
C	-1.1706569591	-0.9753373876	-0.0166945746	 0.261208
O	-1.9587308376	-0.8680518964	 1.1429557198	-0.483342
C	-2.0270423005	-0.9857811396	-1.2062519689	 0.212678
N	-2.7476592775	-1.0194435928	-2.1100036256	-0.344718
H	-0.3472481801	 1.6694070796	 0.7071013434	 0.297756
H	 0.2578953891	-0.9486117674	-2.0806683843	 0.132668
H	 1.7973609824	-0.9773928811	-1.1322104971	 0.111711
H	 0.0541671698	-3.0094303544	-0.049476354	 0.098345
H	 1.7879337714	-1.0162626883	 1.1279379303	 0.105276
H	 0.2258951935	-1.0197933271	 2.0498462126	 0.119259
H	-2.6454463702	-1.5434005737	 1.1207199201	 0.298326
124.7592	168.9837	207.891	287.4045	303.9813	338.5993	374.7008	409.9275	511.3319	529.9158	542.5449	621.7987	688.7566	699.7245	789.563	822.4393	939.3196	950.4948	958.9392	999.8695	1041.0927	1075.626	1100.3348	1125.2616	1154.1198	1179.3257	1197.5914	1209.7691	1230.6705	1297.3471	1338.8511	1397.5187	1495.3392	1543.3122	2345.6915	3081.2145	3087.9084	3150.0387	3159.7182	3168.8253	3800.7967	3811.5227
OC12CC(C1)C2(O)C#N	O[C@@]12C[C@@H](C1)[C@]2(O)C#N	
InChI=1S/C6H7NO2/c7-3-6(9)4-1-5(6,8)2-4/h4,8-9H,1-2H2	InChI=1S/C6H7NO2/c7-3-6(9)4-1-5(6,8)2-4/h4,8-9H,1-2H2/t4-,5-,6-/m1/s1
