19
gdb 81478	3.48365	1.55797	1.49747	1.6318	73.16	-0.2519	0.0649	0.3168	952.4329	0.162984	-422.962032	-422.955667	-422.954723	-422.992309	28.064	
O	 0.074115008	 1.4344220065	-0.0246301613	-0.46579
C	 0.0990954433	 0.0335990728	-0.0745639471	 0.18981
C	 0.174378818	-0.639076958	 1.3271110617	 0.027869
O	-1.2565430529	-0.3079176404	 1.4449206927	-0.317687
C	-1.3120083392	-0.6184789316	 0.0056311244	 0.027869
C	-1.2511141885	-2.1842649046	-0.1562163043	-0.054105
C	-1.1538007874	-2.761887403	 1.2911094442	-0.192432
C	 0.3037405087	-2.205810905	 1.2261367805	-0.054105
C	 0.2440053328	-2.6122262616	-0.2787941765	-0.226711
H	-0.5481210111	 1.6622290544	 0.6788000543	 0.285788
H	 0.7979168897	-0.2290664476	-0.8646864159	 0.083839
H	 0.7715096583	-0.1783013398	 2.116772559	 0.081311
H	-2.158853358	-0.1376962839	-0.4884806448	 0.081311
H	-1.9902142752	-2.5696430155	-0.8603434197	 0.064241
H	-1.8272437064	-2.3823687811	 2.0545057131	 0.116386
H	-1.1563247119	-3.8535064489	 1.2769346965	 0.092483
H	 1.0834142538	-2.6122354442	 1.8722855374	 0.064241
H	 0.3308323126	-3.6955004288	-0.3933410559	 0.09619
H	 0.8991866154	-2.1378757497	-1.0083405082	 0.099492
260.9554	270.5531	320.2401	454.7716	502.7058	543.2316	544.1641	546.6803	611.6307	800.7873	827.6057	832.6776	855.082	856.0941	880.6491	896.163	896.2385	935.0255	935.471	1000.0973	1017.115	1049.1681	1058.7873	1093.4549	1102.5232	1105.4323	1153.5214	1186.7404	1209.0586	1233.9458	1236.7795	1242.9686	1255.2612	1298.8434	1312.7312	1313.2973	1317.6007	1345.2852	1453.6401	1489.953	1542.5907	3071.3769	3082.2524	3088.3944	3091.5528	3101.118	3106.4715	3119.9436	3152.5434	3170.5756	3767.8831
OC1C2OC1C1CC2C1	O[C@H]1[C@H]2O[C@@H]1[C@@H]1C[C@H]2C1	
InChI=1S/C7H10O2/c8-5-6-3-1-4(2-3)7(5)9-6/h3-8H,1-2H2	InChI=1S/C7H10O2/c8-5-6-3-1-4(2-3)7(5)9-6/h3-8H,1-2H2/t3-,4+,5-,6-,7+
