19
gdb 65482	3.18611	1.20124	1.02784	1.5896	82.46	-0.2313	0.0297	0.2609	1229.2374	0.156187	-385.826537	-385.817458	-385.816514	-385.860415	35.046	
C	-0.4797481599	 1.6821961835	-0.0274165568	-0.435412
C	-0.0101266252	 0.2321406749	-0.0767167467	 0.221276
C	 0.8372713561	-0.1707765583	-1.3242649274	-0.410058
C	 1.9631460033	-0.3527264271	-0.3186014503	 0.466868
C	 2.9830201082	-1.4342885379	-0.2040520175	-0.332485
C	 3.4052793937	 0.0186473393	-0.4005243133	-0.336257
O	 1.1509138913	 0.0351122247	 0.7919086337	-0.329655
C	-1.0874101527	-0.6946834863	 0.255276882	 0.331952
C	-1.9857520861	-1.4490417225	 0.5175175179	-0.476238
H	 0.3497921591	 2.3487114053	-0.2783663368	 0.122107
H	-1.2980264058	 1.8444348292	-0.7356387708	 0.126397
H	-0.8360412525	 1.9269833693	 0.9766905064	 0.136985
H	 0.5037653283	-1.0761574226	-1.8317648159	 0.12298
H	 0.9719676985	 0.6353281587	-2.048558857	 0.113031
H	 3.1326741597	-1.8663606749	 0.7795400996	 0.127198
H	 3.1009815506	-2.1286027472	-1.0300121502	 0.114081
H	 3.8127866666	 0.3187613634	-1.3609073018	 0.113231
H	 3.8314193039	 0.5319814023	 0.4549180732	 0.125206
H	-2.7732731171	-2.1207296637	 0.7558210617	 0.198792
38.203	154.3207	173.7735	220.6198	246.8198	299.5432	349.5296	364.1396	440.175	474.9326	549.7476	582.7169	622.2798	662.4606	689.7948	756.2662	827.7769	874.355	887.7191	913.2211	919.9432	930.3685	973.172	995.605	1048.0546	1066.9197	1102.6122	1139.1962	1177.4627	1186.4087	1247.7791	1252.703	1266.7754	1386.6993	1402.4112	1448.2631	1478.4729	1484.7668	1491.1946	1505.785	2233.3125	3042.2443	3076.0968	3120.6111	3125.3972	3126.9937	3128.4136	3138.3028	3209.3827	3223.6185	3500.9256
CC1(CC2(CC2)O1)C#C	C[C@]1(CC2(CC2)O1)C#C	
InChI=1S/C8H10O/c1-3-7(2)6-8(9-7)4-5-8/h1H,4-6H2,2H3	InChI=1S/C8H10O/c1-3-7(2)6-8(9-7)4-5-8/h1H,4-6H2,2H3/t7-/m1/s1
