17
gdb 93370	2.78225	1.60738	1.23163	4.7854	67.83	-0.2677	-0.0174	0.2503	1028.1671	0.136553	-458.978625	-458.970797	-458.969853	-459.011188	29.484	
C	 0.0030898761	 1.6075693664	 0.0109080456	-0.391116
C	 0.0419711273	 0.0733473668	 0.0117678946	-0.04249
C	 0.6875475381	-0.5044756142	-1.2495237087	-0.093365
O	 2.1200890028	-0.3479234668	-1.2858603456	-0.231684
C	 2.8486114163	-0.8644940207	-0.2670124958	 0.435662
O	 4.0071714309	-1.1350954405	-0.4156384267	-0.32226
C	 2.1481631845	-0.9938802249	 1.0642815362	-0.109492
O	 1.8963181492	 0.2755402435	 1.6859775115	-0.229078
C	 0.7760710183	-0.479630849	 1.2320517964	 0.033002
H	 1.0120714282	 2.0186147592	-0.0600581081	 0.149643
H	-0.5852443016	 1.9731957313	-0.8360574609	 0.115702
H	-0.4495959588	 1.9888842424	 0.930661491	 0.124663
H	-0.9855781571	-0.3093978925	 0.0396476203	 0.088762
H	 0.4548088085	-1.5725595398	-1.3432125393	 0.115009
H	 0.3300370876	 0.0009058983	-2.1495611075	 0.127738
H	 2.5645022959	-1.7560666585	 1.7173869617	 0.124517
H	 0.1694335638	-0.891341731	 2.0377138653	 0.104787
67.1807	179.625	208.2382	215.9437	286.1051	352.172	400.9896	467.8184	525.214	599.1162	736.431	746.4121	799.5273	831.5138	863.2581	894.6468	970.2124	973.8172	1010.6396	1059.1268	1082.441	1126.1831	1145.1916	1166.6619	1229.7797	1270.3118	1291.5359	1339.013	1355.5053	1364.9281	1406.0389	1422.3586	1447.1004	1492.0402	1500.1036	1509.1316	1854.1751	3024.9864	3040.267	3047.5781	3107.5184	3114.4612	3117.9455	3138.3881	3158.2184
CC1COC(=O)C2OC12	C[C@H]1COC(=O)[C@H]2O[C@@H]12	
InChI=1S/C6H8O3/c1-3-2-8-6(7)5-4(3)9-5/h3-5H,2H2,1H3	InChI=1S/C6H8O3/c1-3-2-8-6(7)5-4(3)9-5/h3-5H,2H2,1H3/t3-,4-,5-/m0/s1
