17
gdb 75089	3.26712	1.41322	1.06769	3.3792	76.82	-0.21	-0.0063	0.2037	1116.3348	0.138182	-418.033808	-418.026031	-418.025087	-418.065983	30.096	
C	-0.0785455589	 1.5128877242	 0.0784854531	-0.491085
C	 0.001996369	 0.0164502142	 0.0003131186	 0.317925
C	 0.0559125214	-0.6514662131	-1.1587563143	-0.075263
N	 0.1008206396	-2.0450497219	-1.2449985272	-0.361724
C	 0.0054862237	-2.9168375526	-0.1813572418	 0.468901
O	-0.1550491538	-4.1119277476	-0.3353851178	-0.374862
C	 0.0734980457	-2.2631508333	 1.165431899	-0.177811
N	 1.3178845581	-1.5292993768	 1.4799876344	-0.331034
C	 0.0679578152	-0.7661958433	 1.2595769574	-0.162023
H	 0.7947512691	 1.9364686746	 0.5911171666	 0.131259
H	-0.1347171396	 1.9632754714	-0.9164277625	 0.122606
H	-0.9630025769	 1.8379588618	 0.6421123804	 0.123235
H	 0.0607401411	-0.1460129579	-2.1175947183	 0.114479
H	 0.0441490077	-2.4834826876	-2.1518140264	 0.254841
H	-0.3876326708	-2.8588284947	 1.9463662437	 0.110384
H	 1.491951779	-1.6178603423	 2.478564486	 0.24049
H	-0.4049713994	-0.3247558751	 2.1342234791	 0.089683
96.6904	187.6832	195.9073	277.2522	300.15	356.6676	431.8461	476.6724	521.4382	588.8312	617.6412	747.0751	748.0115	780.6245	862.8191	865.4423	895.3505	925.2981	935.3597	1010.0946	1066.5239	1088.8412	1134.9965	1152.9302	1206.3541	1220.7049	1239.1528	1296.8917	1385.7903	1407.6497	1420.0256	1434.4788	1476.0018	1476.9879	1498.1032	1736.307	1796.3163	3011.3729	3055.3581	3107.2672	3130.0749	3171.2776	3197.2482	3496.4295	3627.0548
CC1=CNC(=O)C2NC12	CC1=CNC(=O)[C@H]2N[C@@H]12	
InChI=1S/C6H8N2O/c1-3-2-7-6(9)5-4(3)8-5/h2,4-5,8H,1H3,(H,7,9)	InChI=1S/C6H8N2O/c1-3-2-7-6(9)5-4(3)8-5/h2,4-5,8H,1H3,(H,7,9)/t4-,5-/m0/s1
