20
gdb 6980	2.52294	2.17825	1.64759	1.5804	70.05	-0.2433	0.0696	0.3129	901.8043	0.176295	-386.146246	-386.137514	-386.13657	-386.178857	32.967	
C	-0.3205568028	 1.5806637013	 0.0363495214	-0.445711
C	 0.0189465979	 0.088749963	 0.0404135744	 0.261626
C	-1.2624856103	-0.7561572323	-0.0671092271	-0.434324
C	 1.0072569064	-0.3088895631	-1.0717089441	-0.087167
O	 1.56198604	-1.5583694239	-0.6689222754	-0.266745
C	 1.5500669555	-1.6281225923	 0.7538599421	-0.092974
C	 0.840198959	-0.3624259401	 1.2732272168	 0.078781
O	 1.7661237135	 0.6700435968	 1.5925878603	-0.443038
H	 0.5752064911	 2.1932684916	 0.1468439031	 0.136401
H	-0.8180261194	 1.8531717041	-0.9011630055	 0.107446
H	-1.0033844004	 1.8298383351	 0.855614903	 0.11142
H	-1.8318745226	-0.4672362906	-0.9566486578	 0.11527
H	-1.0383303402	-1.8233263511	-0.1503875011	 0.12785
H	-1.9085416115	-0.6067902192	 0.8045933966	 0.11101
H	 0.5276326416	-0.4526399287	-2.0452121569	 0.098639
H	 1.7949398263	 0.451914416	-1.1741608351	 0.094445
H	 1.0309143033	-2.5455042135	 1.0608037547	 0.098623
H	 2.578130338	-1.6764362802	 1.1420321564	 0.084011
H	 0.1964187132	-0.5814766706	 2.1372119699	 0.061319
H	 2.3727314215	 0.3320148877	 2.2581907845	 0.283118
94.3642	163.5282	199.7655	227.8352	253.5526	263.8775	325.9567	348.841	362.4274	430.0354	503.9985	594.2798	726.8731	816.6715	858.9683	916.6749	941.9682	946.1414	961.2599	991.7965	1016.9747	1040.5186	1108.9604	1116.3368	1173.6685	1209.8827	1217.7552	1240.4337	1268.2398	1292.5523	1328.8677	1361.5657	1384.7373	1401.3383	1408.5051	1437.8728	1485.7314	1487.5844	1503.0526	1506.4859	1514.4459	1520.2384	2988.2735	2995.3804	3000.1074	3031.2238	3034.3147	3037.3586	3074.2561	3091.4395	3098.796	3114.1938	3140.0165	3824.6661
CC1(C)COCC1O	CC1(C)COC[C@H]1O	
InChI=1S/C6H12O2/c1-6(2)4-8-3-5(6)7/h5,7H,3-4H2,1-2H3	InChI=1S/C6H12O2/c1-6(2)4-8-3-5(6)7/h5,7H,3-4H2,1-2H3/t5-/m1/s1
