22
gdb 117083	2.81765	0.9896	0.87568	1.1238	79.98	-0.2509	0.0264	0.2773	1472.1223	0.191135	-441.504546	-441.493585	-441.492641	-441.540648	40.155	
C	-0.2466392238	 1.4879295517	-0.2379288552	-0.393892
C	-0.0375842586	 0.001146883	-0.022550354	-0.031146
O	-1.3296081589	-0.6286209859	-0.0457546144	-0.27295
C	-1.3648768054	-1.9729034218	 0.1013510363	 0.392335
N	-0.300973636	-2.6374902393	 0.280205821	-0.54802
C	-2.8275971244	-2.4416647767	 0.037762239	 0.281718
C	-2.9345975373	-3.9455448401	-0.2042877126	-0.423321
C	-3.5337223459	-2.0377729817	 1.3465199108	-0.412101
O	-3.4656363806	-1.8186377222	-1.0755153012	-0.465941
H	 0.7182061305	 2.0033711151	-0.2231950928	 0.124519
H	-0.7235396066	 1.6815649915	-1.2032650563	 0.126254
H	-0.8756271435	 1.9141924625	 0.5490521809	 0.127168
H	 0.587456474	-0.4459139556	-0.8020119544	 0.124265
H	 0.4417387784	-0.2132728259	 0.9379732474	 0.122239
H	-0.5019989913	-3.6307134114	 0.3626854117	 0.225778
H	-2.5432951761	-4.5187317922	 0.6408367735	 0.116014
H	-3.9878281245	-4.2074864498	-0.3329090718	 0.13056
H	-2.3983099254	-4.2311146243	-1.1127839628	 0.129581
H	-3.4640757386	-0.9573111564	 1.4979578008	 0.121293
H	-4.5897703579	-2.3151016025	 1.2876874725	 0.122712
H	-3.0843765866	-2.5347222727	 2.2124026185	 0.116861
H	-3.1876114915	-0.8953078954	-1.0690843668	 0.286076
46.3259	87.9622	112.3779	144.4505	223.3869	240.0579	263.7278	283.5806	303.157	330.8603	366.2423	384.0879	404.9215	417.3595	525.9417	582.6052	736.8083	803.9731	807.5838	861.9693	875.7747	915.347	934.3652	979.5419	1012.9777	1043.3223	1106.4265	1134.5946	1155.5129	1183.8165	1205.4127	1219.2147	1288.6647	1334.1704	1385.2506	1396.4118	1408.0592	1422.0727	1428.9645	1481.296	1483.8733	1486.6927	1496.7405	1498.9599	1508.4378	1521.1514	1725.6686	3038.9048	3044.4447	3049.2294	3052.0955	3088.2299	3113.5329	3119.7057	3122.7362	3123.4097	3125.3818	3129.7423	3531.5659	3799.524
CCOC(=N)C(C)(C)O	CCO[C]([NH])C(C)(C)O	
InChI=1S/C6H13NO2/c1-4-9-5(7)6(2,3)8/h7-8H,4H2,1-3H3	InChI=1S/C6H13NO2/c1-4-9-5(7)6(2,3)8/h7-8H,4H2,1-3H3
