23
gdb 75540	2.09514	1.67343	1.20409	1.0616	88.14	-0.2333	0.029	0.2624	1177.4182	0.204957	-388.314224	-388.304588	-388.303644	-388.347932	37.556	
C	 0.0964193067	 1.532720954	-0.0087410696	-0.489091
C	 0.0245622575	 0.0264247521	-0.0242349681	 0.30416
C	-0.0913660091	-0.6470714446	-1.1713885413	-0.176902
C	-0.1233565232	-2.1469286045	-1.2520774745	-0.258106
C	 0.4168608711	-2.7303649738	 0.050184231	-0.08692
O	-0.1913993117	-2.1071745708	 1.1653392071	-0.289736
C	 0.0771612757	-0.705851328	 1.3161684347	 0.278911
C	 1.4480605453	-0.5252374614	 2.0015557915	-0.414763
C	-1.0433978436	-0.2227825634	 2.2497165373	-0.413202
H	 1.0145627833	 1.8954769141	 0.4684388237	 0.124078
H	 0.0741469506	 1.9285769197	-1.0276019712	 0.119717
H	-0.7399557122	 1.9789574357	 0.5415626976	 0.126468
H	-0.1586553416	-0.0930657919	-2.1056637272	 0.076564
H	-1.1480676916	-2.5019963824	-1.4301881361	 0.111487
H	 0.4773131752	-2.4994925051	-2.100463633	 0.098292
H	 0.1911244413	-3.7969012298	 0.1430279586	 0.10067
H	 1.5118541283	-2.6181336328	 0.0799576753	 0.08737
H	 2.2604879538	-0.8958860865	 1.3703399575	 0.1157
H	 1.6503002239	 0.5268033885	 2.2207193784	 0.113486
H	 1.4583808481	-1.0807272668	 2.9437113466	 0.119208
H	-1.0557496468	-0.8496180607	 3.1455968046	 0.1217
H	-0.8943135086	 0.8154851472	 2.5561565628	 0.111161
H	-2.0144169527	-0.310946969	 1.7552263641	 0.119749
73.5203	161.4241	187.9126	234.3429	249.4077	269.6878	299.9286	311.1543	337.4078	403.3643	441.8513	474.1518	508.1315	595.9026	643.0576	679.9785	836.2448	845.7404	876.8043	922.3701	930.3665	961.3806	997.7562	1013.1441	1067.8015	1076.0773	1087.9906	1117.4512	1142.1259	1184.0228	1208.672	1236.8042	1241.1848	1303.6766	1363.6618	1370.0252	1388.2961	1404.3063	1411.1502	1418.4691	1469.7133	1473.0241	1481.0633	1488.7182	1491.6935	1496.8716	1503.4951	1510.5713	1731.4097	2982.8681	3008.9052	3025.7758	3041.8512	3045.1216	3047.9408	3074.5929	3079.5538	3109.4035	3116.6249	3117.8009	3123.0915	3128.5024	3140.4008
CC1=CCCOC1(C)C	CC1=CCCOC1(C)C	
InChI=1S/C8H14O/c1-7-5-4-6-9-8(7,2)3/h5H,4,6H2,1-3H3	InChI=1S/C8H14O/c1-7-5-4-6-9-8(7,2)3/h5H,4,6H2,1-3H3
