20
gdb 57447	2.81615	1.18681	1.07944	4.4451	76.68	-0.2439	0.0159	0.2597	1222.2261	0.167919	-440.28224	-440.272301	-440.271357	-440.316812	36.84	
C	-0.1351933045	 1.4278269489	-0.1533591838	-0.3969
C	-0.0336895406	-0.1007172013	-0.1052933223	 0.299857
C	 0.5298734804	-0.568079257	 1.2439491083	-0.419297
O	-1.3652836617	-0.5738467957	-0.2835151886	-0.442745
C	 0.8830958642	-0.5965047756	-1.2315424547	-0.011147
C	 0.8052126743	-1.9987828427	-1.7672350669	-0.269833
N	 0.3888924273	-0.8721706941	-2.5665491448	-0.069825
C	-0.9021115846	-0.7244732165	-3.0559650767	 0.152732
O	-1.5637051837	-1.6275633977	-3.5050452496	-0.301657
H	 0.8518138209	 1.8875707029	-0.0507561688	 0.116653
H	-0.5728968729	 1.7549269903	-1.100015972	 0.130844
H	-0.77372667	 1.7838091054	 0.6593007067	 0.126885
H	-0.0989984003	-0.1995029681	 2.0590991961	 0.129642
H	 0.5623966936	-1.6621877505	 1.2953019941	 0.113879
H	 1.5485102847	-0.1991805343	 1.3996285554	 0.123291
H	-1.4007795521	-1.5096807746	-0.0593332984	 0.287425
H	 1.8674902831	-0.1287924427	-1.2154929733	 0.099609
H	 1.7103409249	-2.5116937566	-2.0805666801	 0.127158
H	 0.0126469825	-2.6526126072	-1.4095968083	 0.118539
H	-1.2166505755	 0.3335964871	-3.0836437523	 0.084892
58.6186	108.7695	194.1077	202.3659	213.6731	246.3679	288.6822	305.1666	328.4419	342.8671	397.3853	417.9135	515.8898	548.4085	665.4074	732.3791	828.4431	891.0229	932.0156	964.3837	981.693	997.848	1018.8189	1035.6052	1091.7063	1098.9161	1128.4292	1140.8281	1169.6539	1209.21	1252.4539	1343.3168	1371.814	1399.4946	1416.1024	1418.0355	1426.1821	1477.7501	1483.7317	1497.5119	1506.3248	1513.6949	1797.9654	2977.2662	3032.025	3048.5624	3099.3839	3105.4664	3107.6753	3118.0693	3125.9824	3127.905	3189.5047	3816.7057
CC(C)(O)C1CN1C=O	CC(C)(O)[C@H]1CN1C=O	
InChI=1S/C6H11NO2/c1-6(2,9)5-3-7(5)4-8/h4-5,9H,3H2,1-2H3	InChI=1S/C6H11NO2/c1-6(2,9)5-3-7(5)4-8/h4-5,9H,3H2,1-2H3/t5-,7?/m1/s1
