14
gdb 52598	2.06672	1.1142	0.92445	6.0614	75.73	-0.2828	-0.0314	0.2514	1336.3788	0.098485	-395.698648	-395.688546	-395.687602	-395.735233	33.87	
C	-0.0053497174	 1.4790263538	 0.0173801051	-0.501855
C	 0.0140701949	 0.0255397925	 0.0110171981	 0.073914
C	 0.043999116	-1.1773191294	 0.0072085249	 0.122803
C	 0.016431255	-2.6498378414	-0.0041814197	-0.26331
N	-1.3240282725	-3.2492561332	-0.1481476054	-0.499428
C	 0.8501568613	-3.1421252313	-1.1318000028	 0.345531
N	 1.4800486488	-3.4987677463	-2.0303606776	-0.318869
C	 0.5988093073	-3.1559658198	 1.2661095198	 0.345534
N	 1.0291401008	-3.5235765972	 2.2716176544	-0.318871
H	 0.5961762123	 1.8795022914	-0.8049963503	 0.168642
H	-1.025786212	 1.8602076879	-0.0930174341	 0.161712
H	 0.4018653677	 1.8692181518	 0.9556997248	 0.168612
H	-1.9057028255	-2.9129093334	 0.6152792728	 0.257793
H	-1.7351604066	-2.9035249454	-1.01170729	 0.257793
21.9793	75.8533	95.363	135.2165	206.389	207.8601	242.804	296.2344	316.2496	386.0799	474.7319	515.9405	523.0035	558.5111	573.2237	662.8307	851.9023	934.8843	980.0328	1050.4337	1051.1067	1124.5033	1192.6077	1323.5887	1411.9623	1472.1255	1472.4017	1650.9244	2368.466	2370.7563	2377.4029	3036.6861	3102.7574	3105.0376	3486.4303	3573.7838	21.9701	75.8532	95.363	135.2164	206.3892	207.8609	242.8059	296.2352	316.2506	386.0808	474.7324	515.9406	523.0039	558.5114	573.2239	662.8308	851.9027	934.8847	980.0328	1050.4342	1051.1073	1124.5035	1192.6079	1323.5883	1411.9628	1472.1262	1472.4024	1650.9235	2368.4664	2370.7568	2377.4034	3036.6861	3102.7574	3105.0376	3486.4307	3573.7841
CC#CC(N)(C#N)C#N	CC#CC(N)(C#N)C#N	
InChI=1S/C6H5N3/c1-2-3-6(9,4-7)5-8/h9H2,1H3	InChI=1S/C6H5N3/c1-2-3-6(9,4-7)5-8/h9H2,1H3
