15
gdb 18749	3.12343	2.36233	1.63308	2.5346	61.52	-0.2675	0.0099	0.2774	789.4968	0.119684	-399.776967	-399.77021	-399.769266	-399.807971	25.983	
O	 0.2176775466	 1.2493790571	-0.5384575997	-0.428719
C	 0.0371624649	-0.0311064796	-0.014645949	 0.139734
C	 0.076506073	-0.2662808937	 1.5401110273	-0.279619
C	-1.3085807065	-0.9392672761	 1.4626596657	 0.092431
O	-2.3794936654	 0.0347066433	 1.7050909712	-0.260159
C	-2.4429093824	 0.3450623758	 0.3630845528	 0.412681
N	-3.0973267364	 1.2324044228	-0.2410412084	-0.544855
C	-1.3960196135	-0.656039535	-0.06157338	-0.206484
H	-0.6142198407	 1.7350428616	-0.4626308741	 0.296744
H	 0.7570995264	-0.6833803276	-0.5164148346	 0.100211
H	 0.8869476275	-0.9238777348	 1.8618330252	 0.114075
H	 0.0828292139	 0.6403994141	 2.1481325266	 0.123742
H	-1.5107647385	-1.8894045123	 1.9523612423	 0.100459
H	-3.6812522596	 1.7688618118	 0.4038264882	 0.232719
H	-1.6524070492	-1.3645349475	-0.8456595135	 0.10704
109.0094	124.9605	352.0358	363.1429	386.3391	426.4021	483.1727	611.6469	715.6725	752.3265	802.2459	862.7859	880.3701	887.9989	920.8552	973.8509	1010.7709	1018.6619	1041.363	1095.7921	1152.1633	1164.9122	1191.1139	1209.2238	1244.8802	1261.1081	1298.0846	1342.5283	1348.2747	1440.6034	1460.3106	1802.9853	3069.3501	3076.2483	3134.4291	3141.4873	3150.9508	3469.6852	3757.5718
OC1CC2OC(=N)C12	O[C@H]1C[C@H]2O[C]([NH])[C@@H]12	
InChI=1S/C5H7NO2/c6-5-4-2(7)1-3(4)8-5/h2-4,6-7H,1H2	InChI=1S/C5H7NO2/c6-5-4-2(7)1-3(4)8-5/h2-4,6-7H,1H2/t2-,3+,4-/m0/s1
