18
gdb 88044	2.39764	1.40407	1.12342	2.1245	78.51	-0.2392	0.0201	0.2594	1159.3788	0.145367	-401.850618	-401.841679	-401.840735	-401.884438	33.139	
C	-0.1874254638	 1.3656561174	-0.1301416861	-0.321724
N	 0.1681140226	-0.044792439	-0.0644098224	-0.109283
C	 1.5895608881	-0.3909412972	-0.1050434798	-0.314309
C	 0.7914326981	-0.5330049934	 1.1341496882	 0.295728
C	 0.9825766659	 0.1418623177	 2.4914473771	-0.148436
O	 0.6238021781	-1.0814146016	 3.1688710773	-0.280895
C	 0.3665008749	-1.7878470593	 1.9227286452	-0.165544
C	-1.0087920003	-2.2295720754	 1.775788503	 0.370293
C	-2.1460504715	-2.5967591978	 1.6500419835	-0.451987
H	 0.540360213	 2.0317179107	 0.3627367864	 0.101656
H	-0.2639083556	 1.6631074327	-1.1799150529	 0.129919
H	-1.1647873819	 1.513910703	 0.3387730181	 0.134233
H	 1.8506020238	-1.2585636071	-0.7060891747	 0.122229
H	 2.3177740477	 0.4207640349	-0.1291508652	 0.109221
H	 2.0012098962	 0.4636998675	 2.7382725458	 0.108963
H	 0.2820125152	 0.956089829	 2.7181601272	 0.111563
H	 1.0523214792	-2.638579708	 1.8157077656	 0.107835
H	-3.1514030596	-2.920520624	 1.5384218139	 0.200537
69.0882	96.1199	174.9672	201.6256	220.8412	248.2185	329.0257	418.3108	432.2478	511.1978	556.2906	604.5588	623.0285	673.589	781.3089	853.4915	880.3212	920.1772	952.3572	1014.1852	1032.8069	1061.4948	1083.6792	1114.4688	1140.6517	1153.4805	1164.5989	1203.9588	1227.6814	1242.9113	1326.2532	1350.2247	1435.5799	1452.0023	1492.8718	1497.363	1519.151	1520.5937	2236.7856	2965.4764	3010.939	3018.8309	3056.0515	3074.8901	3079.6326	3113.0846	3170.0792	3502.1602
CN1CC11COC1C#C	CN1C[C@]21CO[C@H]2C#C	
InChI=1S/C7H9NO/c1-3-6-7(5-9-6)4-8(7)2/h1,6H,4-5H2,2H3	InChI=1S/C7H9NO/c1-3-6-7(5-9-6)4-8(7)2/h1,6H,4-5H2,2H3/t6-,7-,8?/m0/s1
