17
gdb 49774	1.90467	1.78898	1.01246	3.011	79.92	-0.2391	-0.0305	0.2086	1156.6901	0.134674	-384.672961	-384.664374	-384.66343	-384.706803	31.685	
O	-0.5575791868	 0.416536084	-0.45679278	-0.251476
C	-0.1768443285	 1.542783293	-0.2760787362	 0.168774
C	 1.2489970745	 1.9128986773	 0.1184894668	-0.133072
C	 1.9251761877	 2.5683808296	-1.0695647761	-0.092324
C	 2.0466385215	 3.8866621721	-0.9208985669	-0.064361
C	 1.5196632178	 4.3710025715	 0.4058791045	-0.265312
C	 1.3244281792	 3.0425892937	 1.20472	-0.194063
C	 0.2157016882	 3.0608103988	 2.1487732682	 0.304865
C	-0.7038109786	 3.0766795689	 2.9232419827	-0.446894
H	-0.8475592554	 2.4161191338	-0.4348621961	 0.083681
H	 1.7407795568	 0.992899112	 0.4462757753	 0.101801
H	 2.206517694	 1.9991043965	-1.9476877921	 0.11415
H	 2.4606408946	 4.5602897175	-1.6629930435	 0.106515
H	 2.202840277	 5.0531820944	 0.922314001	 0.118587
H	 0.5718944274	 4.9103448587	 0.2876990994	 0.126171
H	 2.2498296614	 2.8598949856	 1.7628460854	 0.122474
H	-1.5145799307	 3.085095253	 3.6090807177	 0.200485
65.6981	76.8142	139.4825	181.8373	265.9566	312.031	414.4672	464.3602	501.7171	526.0081	628.4852	644.7253	659.881	744.9198	779.1966	836.1672	920.7813	964.2469	977.1312	982.0727	1031.6151	1045.6753	1058.6549	1091.5412	1132.4275	1166.7471	1253.1685	1260.1456	1298.0267	1316.5935	1341.5569	1356.686	1424.0362	1491.9311	1678.851	1831.4382	2235.5816	2886.9584	3033.1128	3037.289	3072.8445	3078.1739	3188.7533	3214.3311	3503.1517
O=CC1C=CCC1C#C	O=C[C@H]1C=CC[C@H]1C#C	
InChI=1S/C8H8O/c1-2-7-4-3-5-8(7)6-9/h1,3,5-8H,4H2	InChI=1S/C8H8O/c1-2-7-4-3-5-8(7)6-9/h1,3,5-8H,4H2/t7-,8-/m1/s1
