24
gdb 22114	2.47996	0.86829	0.77594	0.4958	89.16	-0.2372	0.012	0.2492	1654.6159	0.214653	-405.525454	-405.514075	-405.513131	-405.562366	41.448	
C	-0.8599921166	 1.4012962072	-0.6343290954	-0.380768
C	 0.2605012193	 0.4913290538	-0.0954810413	-0.259132
C	 0.9167217614	-0.3025661878	-1.2010157802	 0.342476
C	 0.499906809	-1.7321373636	-1.4674882016	-0.267256
C	 1.3809229319	-2.7971573459	-0.7691367385	 0.057073
C	 1.3835718457	-2.6716219628	 0.7595771418	-0.387387
C	 0.9445183363	-4.2034507307	-1.1992282544	-0.392374
N	 1.8158100962	 0.1622071207	-1.9835071003	-0.176894
O	 2.1578951874	 1.4931216609	-1.6702804525	-0.40246
H	-0.4537987617	 2.1182667011	-1.3511700756	 0.140026
H	-1.6397534545	 0.8189485417	-1.1359795994	 0.115815
H	-1.3293251998	 1.9567727758	 0.1833122076	 0.11321
H	 1.0159014674	 1.1085437641	 0.3992085961	 0.12553
H	-0.150987942	-0.1964838808	 0.6487122123	 0.099254
H	-0.5448225166	-1.8658305691	-1.1563150871	 0.094127
H	 0.543100964	-1.9108414386	-2.5461319341	 0.11402
H	 2.406492606	-2.6312886047	-1.1239819747	 0.088444
H	 2.0134973343	-3.446536475	 1.2087344267	 0.110507
H	 1.7678172355	-1.7021693063	 1.0897739993	 0.120568
H	 0.3726588933	-2.7919492929	 1.1684605117	 0.108549
H	 0.9803229504	-4.3193690519	-2.287483059	 0.112042
H	 1.5920698013	-4.9683868328	-0.758046193	 0.110368
H	-0.082377908	-4.4127430475	-0.8754112971	 0.110485
H	 2.8342801299	 1.683444205	-2.3281220717	 0.303777
51.1132	68.9847	83.1205	128.6669	225.5174	230.6727	239.9275	261.3576	293.2093	308.8223	334.2736	370.5646	404.8131	413.7956	438.4643	603.2628	714.211	778.3352	804.8533	822.8426	882.1688	929.9874	947.653	967.3949	979.4084	999.3109	1060.1457	1085.2114	1132.1879	1145.0914	1190.1431	1228.9373	1270.3498	1294.9177	1312.8056	1348.7919	1362.1803	1372.7365	1399.7346	1403.3293	1406.522	1420.469	1473.8866	1484.1902	1488.8581	1494.4009	1498.6765	1504.2688	1510.1224	1510.6271	1721.0361	3015.5314	3021.9299	3023.0502	3031.115	3040.5304	3054.5259	3082.418	3086.2327	3093.6024	3095.8032	3099.3167	3106.5756	3108.9818	3134.0914	3825.7073
CCC(CC(C)C)=NO	CCC(=NO)CC(C)C	
InChI=1S/C7H15NO/c1-4-7(8-9)5-6(2)3/h6,9H,4-5H2,1-3H3	InChI=1S/C7H15NO/c1-4-7(8-9)5-6(2)3/h6,9H,4-5H2,1-3H3
