25
gdb 86551	4.57615	0.80472	0.74173	0.1143	93.68	-0.2697	0.0814	0.3512	1660.7561	0.229891	-352.34266	-352.333234	-352.33229	-352.377343	36.285	
C	-0.8929899564	 0.9129656722	-0.1529972617	-0.408652
C	 0.2651321886	-0.0500913243	 0.0569675532	 0.072688
C	 1.5457932037	 0.1191154698	-0.8107236333	-0.248092
C	 2.4163548104	-0.1553922122	 0.4533563616	-0.004851
C	 1.151743018	 0.1110246057	 1.3256573663	-0.248091
C	 2.9594961704	-1.5690373655	 0.5481846468	 0.070937
C	 4.1817416511	-1.9694127639	-0.330547596	-0.23463
C	 4.7302129783	-2.7862034367	 0.8702013958	-0.208942
C	 3.788329002	-1.9774989316	 1.8021982689	-0.23463
H	-0.5548742085	 1.9539112357	-0.0866949466	 0.108557
H	-1.3536080513	 0.7756025589	-1.138112776	 0.111431
H	-1.6745501349	 0.769018278	 0.6019418906	 0.111431
H	-0.1010099376	-1.0803360488	-0.0144680877	 0.068917
H	 1.6742601366	-0.5568038605	-1.6614744083	 0.091099
H	 1.6550379838	 1.1478276554	-1.1691135576	 0.090177
H	 3.2401636391	 0.5505085008	 0.6079792269	 0.053201
H	 1.1245527553	 1.1369359883	 1.7069619662	 0.090177
H	 0.9691616355	-0.5712801628	 2.1612838205	 0.0911
H	 2.1475558691	-2.2917360317	 0.3956713995	 0.061359
H	 3.9905797272	-2.4992586682	-1.2670949529	 0.091747
H	 4.811508188	-1.0997576895	-0.5474478674	 0.095333
H	 4.4364280292	-3.8383675907	 0.8120200094	 0.099149
H	 5.8036920258	-2.7393154327	 1.0683964211	 0.093505
H	 4.2980867055	-1.110311103	 2.2358845893	 0.095333
H	 3.2763219011	-2.5139399428	 2.6049935014	 0.091747
65.5553	70.0704	136.0088	149.0269	237.5119	258.0803	300.0026	351.8317	422.974	441.685	616.3479	666.7919	749.6616	783.3013	806.8855	867.1278	888.2091	898.8784	922.5544	933.2107	949.8026	954.2948	959.4546	981.0431	1017.5898	1021.7854	1091.3347	1102.6358	1129.9785	1140.8779	1197.5893	1206.2746	1225.4827	1227.4454	1254.369	1260.9119	1261.0831	1267.0185	1277.6784	1283.0852	1289.9878	1293.0285	1320.8831	1370.9634	1406.5681	1411.5797	1473.7755	1478.5333	1486.9655	1492.9853	1497.3153	1500.0646	1510.6074	3014.7667	3019.3981	3032.5735	3034.9499	3039.8996	3042.72	3045.3648	3050.3531	3055.8284	3085.456	3086.5997	3091.8446	3092.1445	3097.9059	3098.0732	3113.9832
CC1CC(C1)C1CCC1	C[C@H]1C[C@@H](C1)C1CCC1	
InChI=1S/C9H16/c1-7-5-9(6-7)8-3-2-4-8/h7-9H,2-6H2,1H3	InChI=1S/C9H16/c1-7-5-9(6-7)8-3-2-4-8/h7-9H,2-6H2,1H3/t7-,9-
