17
gdb 67128	2.50343	1.89087	1.64969	3.2107	71.91	-0.2203	-0.0291	0.1912	907.1082	0.137469	-417.913762	-417.906615	-417.905671	-417.944809	29.206	
N	-0.2237308274	 1.4762963247	-0.0737986904	-0.615536
C	-0.0458392439	 0.0737477142	-0.0475562521	 0.17416
C	-1.0894190578	-0.9705023494	-0.3374863519	-0.087408
C	-0.8780233851	-1.7791796072	-1.6387947663	-0.231847
C	 0.4179069214	-1.2673262842	-2.3614516447	-0.173854
N	 1.4737916429	-1.5014749629	-1.3597135357	-0.211157
C	 1.1571414668	-0.8772931209	-0.3144775337	 0.222492
O	 1.0809701111	-1.4935257059	 0.9418102465	-0.265677
C	-0.2674593349	-0.9364536655	 1.0097012479	 0.038943
H	 0.5402310089	 1.962021438	 0.3847028656	 0.242772
H	-0.2959140118	 1.8308320392	-1.0216454191	 0.239409
H	-2.1115410951	-0.6436805058	-0.1504315375	 0.10309
H	-0.7627266629	-2.849519541	-1.4448955087	 0.129992
H	-1.7564977273	-1.6559502811	-2.2835529627	 0.10101
H	 0.6365590896	-1.8444387418	-3.2619083773	 0.113155
H	 0.2873079224	-0.215769637	-2.6544111464	 0.096482
H	-0.7276956769	-0.8977120336	 1.9883685163	 0.123973
183.4673	199.7629	275.0333	311.1757	345.9099	430.0851	513.3682	527.4375	561.0904	647.8202	676.3603	745.0146	794.9172	816.9528	843.7159	886.533	902.7412	948.1488	965.7566	986.3833	1025.5422	1049.5472	1054.1232	1110.8087	1146.1853	1187.9144	1229.2645	1241.9788	1282.1719	1300.2335	1318.9877	1334.9759	1475.2794	1483.078	1502.5031	1658.5766	1717.8893	3000.6663	3038.6314	3091.8457	3108.7852	3127.0635	3212.1253	3501.7321	3580.3201
NC12C3CCN=C1OC23	N[C@@]12[C@H]3CC[N][C]1O[C@@H]23	
InChI=1S/C6H8N2O/c7-6-3-1-2-8-5(6)9-4(3)6/h3-4H,1-2,7H2	InChI=1S/C6H8N2O/c7-6-3-1-2-8-5(6)9-4(3)6/h3-4H,1-2,7H2/t3-,4+,6+/m0/s1
