22
gdb 38418	3.6097	1.2475	1.23311	1.5703	84.47	-0.2232	0.0836	0.3067	1139.7599	0.196914	-367.185603	-367.177873	-367.176929	-367.217663	31.623	
C	 0.0087870456	 1.5076010778	 0.8309819193	-0.252638
C	 1.1868995807	 0.9725507906	 0.1004434341	-0.011316
C	 2.1648902235	 0.0857294233	 0.8530399455	-0.286195
C	 1.2690402671	-0.9095707321	 1.6268232834	 0.339414
C	 1.9399372427	-2.2623554947	 2.0031745908	-0.281969
C	 2.178419656	-1.7331908095	 3.4417771835	-0.219965
C	 1.1450716673	-0.6128746514	 3.1594862188	-0.257164
C	-0.0097918652	-0.9508828388	 0.7608973325	-0.236555
N	-0.1275850984	 0.3034190722	-0.0039949909	-0.098155
H	-0.0292629461	 1.4062927057	 1.9120525905	 0.115985
H	-0.5106546078	 2.3803216952	 0.4453031527	 0.111764
H	 1.5390761741	 1.4845215226	-0.7910308628	 0.085886
H	 2.7898020751	-0.4511390973	 0.1285029946	 0.101429
H	 2.8396198244	 0.6471386466	 1.5079146355	 0.102531
H	 1.2179168497	-3.0853674696	 1.98468742	 0.098965
H	 2.8150672459	-2.5600046294	 1.418016091	 0.094028
H	 1.9673344979	-2.4139887411	 4.2695349962	 0.096951
H	 3.189757433	-1.3382652913	 3.5710654051	 0.103124
H	 1.3963611022	 0.3975537775	 3.4949502747	 0.095163
H	 0.1501785084	-0.8646722303	 3.5406122258	 0.096859
H	 0.0660394009	-1.7681129686	 0.0321575684	 0.102085
H	-0.9149981572	-1.1231532273	 1.3537138212	 0.099771
101.0701	132.0306	220.4409	305.3154	376.8607	378.8796	393.2111	473.2235	648.7017	685.3828	753.2675	769.4278	796.061	830.2188	868.3052	892.4095	900.2356	918.8474	945.7411	954.854	979.8934	1017.8513	1022.0627	1072.6514	1088.1212	1106.7377	1125.5749	1152.6024	1172.4064	1194.6777	1208.6725	1217.9361	1254.8539	1258.6155	1263.8458	1274.99	1291.5139	1307.8865	1314.6166	1340.6527	1394.586	1474.6148	1481.5178	1486.6442	1494.3463	1506.546	1509.4306	3019.8675	3028.1899	3039.5694	3044.494	3059.6904	3067.8501	3072.2756	3087.0861	3092.6559	3112.6862	3115.1182	3142.1361	3195.4658
C1C2CC3(CCC3)CN12	C1[C@H]2CC3(CCC3)CN12	
InChI=1S/C8H13N/c1-2-8(3-1)4-7-5-9(7)6-8/h7H,1-6H2	InChI=1S/C8H13N/c1-2-8(3-1)4-7-5-9(7)6-8/h7H,1-6H2/t7-,9?/m1/s1
