21
gdb 108696	3.58713	1.29879	1.09787	0.7734	91.32	-0.1978	-0.0245	0.1733	1187.7818	0.18306	-349.862317	-349.854315	-349.853371	-349.894924	31.966	
C	 0.2889365658	 1.3232921661	 0.1888107134	-0.378327
C	-0.2559312397	-0.0261461215	-0.3165310035	-0.259137
C	-1.7419802237	-0.1338996269	-0.1640374203	 0.284262
C	-2.5986419226	-0.4861925222	-1.1537071482	-0.074148
C	-2.3624064536	-1.8987063513	-1.7313908529	-0.260881
C	-3.3959108989	-2.2942685112	-0.618619439	-0.064431
C	-3.4745730387	-1.4319135916	 0.7106991196	-0.04079
C	-2.3716989277	-0.4735036735	 1.1889130949	-0.311056
C	-3.9679222512	-0.9060449488	-0.5856399043	-0.101196
H	 1.3761050146	 1.3725061982	 0.0735856102	 0.1117
H	-0.1527091012	 2.1538879079	-0.3701307896	 0.123568
H	 0.0558169767	 1.472280061	 1.2482475016	 0.118646
H	 0.0144155726	-0.1532674677	-1.3705698444	 0.103171
H	 0.2362676445	-0.8336523747	 0.2466148361	 0.09824
H	-2.7996229504	-2.1096583522	-2.7144284304	 0.101383
H	-1.3400292535	-2.2874741914	-1.6910529243	 0.09751
H	-3.9682049619	-3.2196869365	-0.6362855082	 0.083805
H	-4.1731060386	-1.8538413926	 1.4319621718	 0.07373
H	-1.6024881652	-0.9312615935	 1.8243496359	 0.104408
H	-2.8119439416	 0.3488907704	 1.771311912	 0.106
H	-4.9483478558	-0.5425758079	-0.8647058207	 0.083542
65.3551	132.1732	208.8843	255.8031	279.9247	392.7767	413.0863	530.8706	594.5461	627.6865	729.8688	754.1988	774.1789	793.5281	818.212	876.3079	923.2183	948.7976	952.7956	963.9064	972.6634	1003.346	1032.6185	1041.3284	1052.3602	1075.234	1083.9335	1112.9199	1129.409	1183.988	1207.1526	1230.8775	1240.3677	1280.0524	1295.5331	1303.0141	1342.576	1374.7015	1404.8354	1467.0963	1481.5959	1497.4109	1504.5774	1506.0973	1603.3085	2988.438	2996.6264	3023.7871	3034.999	3041.2617	3062.4652	3081.7787	3105.7672	3111.3558	3121.1206	3130.2632	3193.1106
CCC1=C2CC3C(C1)C23	CC[C]1[C]2C[C@H]3[C@@H](C1)[C@@H]23	
InChI=1S/C9H12/c1-2-5-3-7-8-4-6(5)9(7)8/h7-9H,2-4H2,1H3	InChI=1S/C9H12/c1-2-5-3-7-8-4-6(5)9(7)8/h7-9H,2-4H2,1H3/t7-,8+,9-/m1/s1
