14
gdb 21196	5.30842	1.68458	1.28904	2.5174	68.49	-0.2228	-0.0567	0.1661	903.5888	0.108954	-374.918944	-374.911644	-374.910699	-374.951628	25.405	
C	-0.0211465347	 1.4472552156	 0.0051857051	-0.309461
N	 0.0389081642	 0.001211499	 0.0628724438	-0.336481
C	 0.6384602532	-0.6880315104	 1.0578661151	 0.498472
N	 0.6104816747	-2.0378908436	 0.9651179427	-0.309955
C	 1.2075173605	-2.6632250087	 1.9607457464	-0.00362
C	 1.8090199491	-1.9594840851	 3.0084464552	-0.014764
N	 1.797751901	-0.6298008835	 3.033376507	-0.16241
N	 1.207842384	 0.0304098165	 2.0508358252	-0.275151
H	 0.9805661713	 1.8882741449	-0.0259996051	 0.144872
H	-0.5636511293	 1.7340266167	-0.8975451768	 0.124101
H	-0.5377813513	 1.8603136107	 0.8775916551	 0.145458
H	-0.3751594117	-0.5552662637	-0.6649646638	 0.258146
H	 1.2134240726	-3.7513456104	 1.9339789277	 0.122068
H	 2.3039575864	-2.4570121279	 3.8344274923	 0.118726
30.6769	106.2048	180.1831	218.1887	387.6058	421.5968	489.5653	562.4346	616.6381	665.7384	833.4098	852.2164	870.016	999.9576	1025.2466	1073.343	1096.2783	1154.9718	1162.6812	1166.3175	1222.3189	1328.3091	1418.6892	1432.1539	1472.8899	1475.7379	1516.6981	1551.9983	1599.7403	1613.4971	3036.6654	3090.3782	3134.9173	3146.7248	3200.8957	3670.4489
CNC1=NC=CN=N1	CNc1nccnn1	
InChI=1S/C4H6N4/c1-5-4-6-2-3-7-8-4/h2-3H,1H3,(H,5,6,8)	InChI=1S/C4H6N4/c1-5-4-6-2-3-7-8-4/h2-3H,1H3,(H,5,6,8)
