18
gdb 40323	3.07304	1.31236	1.07972	2.6419	71.4	-0.2504	0.0716	0.322	1146.9643	0.147089	-439.000853	-438.992518	-438.991574	-439.034463	30.901	
C	 0.6339622437	 1.5022741251	 0.5192261138	-0.220408
N	 1.2409125264	 0.3887477482	-0.2304816582	-0.320862
C	-0.1451792427	 0.2709344781	 0.2350349023	-0.1021
C	-0.4185609718	-0.7444196356	 1.3143294935	 0.392795
C	 0.4595051049	-1.9156107657	 1.4772464972	-0.213482
O	 0.5431485141	-0.7944654595	 2.3647125265	-0.267451
C	-1.8572108246	-0.83734463	 1.7376960409	-0.018448
C	-2.2360472456	-1.0179647389	 3.1417630038	-0.167977
O	-2.3661347765	 0.2567619318	 2.5056020053	-0.236263
H	 1.0400047044	 1.6404447518	 1.5153185732	 0.1412
H	 0.3680345591	 2.4126487716	-0.0105055587	 0.112604
H	 1.2564120463	 0.5986808667	-1.2245281994	 0.233686
H	-0.9415890578	 0.3502731272	-0.5029473983	 0.084197
H	 0.0650497529	-2.8287416109	 1.9208249726	 0.108063
H	 1.3046323692	-2.0233751797	 0.8026402577	 0.135013
H	-2.5391734841	-1.1890150936	 0.9605595523	 0.093557
H	-3.1729119953	-1.5174551782	 3.3842840077	 0.111465
H	-1.4474685825	-1.0825009984	 3.8867776077	 0.134412
66.7921	73.5234	170.7853	204.7373	257.5527	282.001	396.0418	429.8691	529.6921	602.9443	700.165	820.5571	859.9347	872.2329	879.3184	902.4429	937.2838	948.255	966.8917	999.3723	1036.8189	1097.9301	1112.1705	1124.5205	1131.9171	1160.0073	1164.2928	1167.8134	1198.2425	1204.0097	1254.8801	1284.6778	1290.7563	1386.7913	1433.9863	1450.965	1500.2801	1511.4572	1520.9037	3085.7358	3091.5243	3095.4477	3118.5451	3124.4728	3193.4884	3195.3779	3217.0382	3510.3527
C1NC1C1(CO1)C1CO1	C1N[C@H]1[C@]1(CO1)[C@H]1CO1	
InChI=1S/C6H9NO2/c1-4(7-1)6(3-9-6)5-2-8-5/h4-5,7H,1-3H2	InChI=1S/C6H9NO2/c1-4(7-1)6(3-9-6)5-2-8-5/h4-5,7H,1-3H2/t4-,5-,6-/m1/s1
