18
gdb 19743	4.77018	2.04947	2.02302	0.3087	74.91	-0.2142	0.0179	0.2321	758.3029	0.157633	-310.650406	-310.644764	-310.64382	-310.679653	24.568	
C	-0.0210792449	 1.5013823092	-0.0151014649	-0.234377
C	 1.5097163971	 1.8108436441	-0.0297635841	-0.234377
C	 2.0539423612	 0.3852126819	 0.0190512494	 0.008462
C	 1.1624052503	-0.4569257827	-0.9724240485	-0.070236
C	 1.4570881402	-1.8956620045	-0.5675655236	-0.102007
C	 1.4604325856	-1.8487029962	 0.7673508339	-0.10201
C	 1.1674156644	-0.3850467138	 1.0715834251	-0.070237
C	 0.0321449414	-0.02350772	 0.0383755959	 0.008463
H	-0.53010847	 1.9300833706	 0.8540288875	 0.09613
H	-0.5344957879	 1.8681234943	-0.9096302077	 0.09613
H	 1.8238176379	 2.3447979697	-0.9322688484	 0.09613
H	 1.8281772597	 2.4068975788	 0.8313861987	 0.09613
H	 3.1364438392	 0.2401869916	 0.0215026298	 0.057062
H	 1.1001925861	-0.1992682703	-2.0318972013	 0.052037
H	 1.6190594465	-2.7286758765	-1.2369182882	 0.0968
H	 1.625874705	-2.6326603351	 1.4927613025	 0.0968
H	 1.1103382385	-0.0535899561	 2.1106309801	 0.052037
H	-0.9087913803	-0.5775937549	 0.0601624037	 0.057062
255.4654	329.4979	351.9326	521.8814	598.6784	649.0729	707.1188	739.982	792.4762	821.7262	904.6503	905.3398	913.7923	914.9538	929.0999	934.4599	952.1404	972.3152	1017.9601	1024.4708	1028.2917	1077.9779	1110.585	1135.9205	1189.4566	1204.0196	1212.4401	1234.1363	1247.9952	1254.6669	1262.5986	1279.3969	1312.2516	1330.9493	1354.1061	1485.643	1507.5525	1630.0554	3041.017	3050.0369	3074.3358	3088.3379	3089.3714	3093.5739	3094.0889	3103.3104	3218.1984	3245.5778
C1CC2C3C=CC2C13	C1C[C@@H]2[C@H]3C=C[C@@H]2[C@@H]13	
InChI=1S/C8H10/c1-2-6-7-3-4-8(6)5(1)7/h1-2,5-8H,3-4H2	InChI=1S/C8H10/c1-2-6-7-3-4-8(6)5(1)7/h1-2,5-8H,3-4H2/t5-,6+,7-,8+
