18
gdb 41137	3.29535	1.7259	1.37529	1.4927	75.11	-0.2339	0.014	0.2479	957.0092	0.150301	-401.938629	-401.931866	-401.930922	-401.969739	27.47	
C	 0.0033781284	 1.5481931845	 0.1092103808	-0.23132
C	 1.5545205286	 1.5460476546	-0.0740343911	-0.306341
C	 1.5423364942	 0.0158951939	 0.0205730556	 0.363205
N	 2.4080454597	-0.8357507494	-0.7713604531	-0.331756
C	 2.6898324028	-1.8222140748	-0.0214316968	 0.090492
O	 2.2101127957	-1.8795016954	 1.2503852116	-0.234542
C	 1.4482274469	-0.6619767846	 1.4234448956	 0.039502
C	-0.083391389	-0.8213568989	 1.2660930334	-0.259499
C	-0.0303711513	-0.0036000209	-0.0541121009	-0.072467
H	-0.3361792118	 1.8929166635	 1.0902283943	 0.099361
H	-0.5462600315	 2.1020297676	-0.653872952	 0.109044
H	 1.8514862157	 1.8681360692	-1.0751820772	 0.119404
H	 2.1581855307	 2.0857913324	 0.6617915087	 0.095756
H	 3.3079581437	-2.669242014	-0.298499096	 0.139178
H	 1.8221718006	-0.1505006518	 2.3141290182	 0.086262
H	-0.3581649682	-1.8689528732	 1.1192330584	 0.115854
H	-0.6950493878	-0.4066582073	 2.0728409301	 0.102693
H	-0.5711011474	-0.3867510954	-0.9195534595	 0.075173
99.4186	227.2465	273.0844	324.3275	436.9492	472.7124	566.7547	636.9421	704.7197	761.2834	789.8799	838.3848	864.9369	882.0871	901.0613	930.847	957.5336	978.3646	1009.7501	1023.9746	1074.9217	1092.8943	1096.7151	1117.6883	1176.9433	1199.038	1215.3445	1229.3434	1244.508	1270.8612	1279.1368	1293.9959	1304.3166	1326.8201	1362.881	1467.4957	1476.3822	1493.1939	1669.2382	3052.0292	3053.529	3060.3894	3074.4339	3101.5706	3107.9589	3114.6468	3124.4014	3213.6778
C1CC23N=COC2CC13	C1C[C@@]23N=CO[C@@H]2C[C@@H]13	
InChI=1S/C7H9NO/c1-2-7-5(1)3-6(7)9-4-8-7/h4-6H,1-3H2	InChI=1S/C7H9NO/c1-2-7-5(1)3-6(7)9-4-8-7/h4-6H,1-3H2/t5-,6-,7+/m1/s1
