19
gdb 78867	2.75777	1.77691	1.34458	1.4008	78.68	-0.2374	0.0629	0.3003	1004.6135	0.160848	-381.981286	-381.973816	-381.972872	-382.012886	30.038	
C	 0.0347152018	 1.6317162024	 0.1264908669	-0.422571
C	 0.1363347309	 0.1139601089	 0.0707738444	 0.02834
C	 1.1862644034	-0.6060916797	-0.7684255202	-0.068122
C	 2.4313285158	-0.80236993	 0.0423771089	-0.160639
N	 1.2707146088	-1.75962515	 0.1867867925	-0.161469
C	 0.744201234	-0.7122094259	 1.2322977572	-0.118125
C	 2.1806505129	-0.2388171664	 1.4087474284	 0.41975
C	 3.0564760196	-0.373447435	 2.5853392992	-0.323829
N	 2.6534838074	 0.963535391	 2.0798652686	-0.382281
H	 0.9866944796	 2.094659034	 0.3934221795	 0.13138
H	-0.2847217974	 2.0296661418	-0.843033606	 0.112268
H	-0.7051857662	 1.9436317281	 0.8712926574	 0.119077
H	-0.8369402599	-0.3243260249	-0.1781196244	 0.084837
H	 1.1813519865	-0.7735910664	-1.8406970991	 0.093017
H	 3.3724762536	-1.1184376732	-0.3948121165	 0.095673
H	 0.1462583087	-1.043529381	 2.0791318931	 0.083824
H	 2.6417183192	-0.6358962737	 3.5550177799	 0.122932
H	 4.0807464141	-0.7025633641	 2.4273215239	 0.11531
H	 3.4174597971	 1.3866339941	 1.5573157561	 0.230627
152.0321	172.1348	199.7845	271.6237	310.2811	342.0672	492.3206	568.6123	627.7342	702.5936	766.6608	788.0204	804.5896	862.9035	896.7288	916.8232	917.2786	934.7237	975.0046	980.8191	1027.5557	1031.13	1055.692	1075.7131	1106.8677	1125.9411	1132.4933	1149.0585	1183.6466	1215.4924	1242.2024	1256.963	1302.4122	1308.0825	1357.7473	1391.2153	1415.7418	1456.0339	1493.5602	1496.542	1524.819	3036.1816	3045.0764	3095.4996	3102.7595	3133.5714	3139.5726	3164.2933	3177.3203	3187.5797	3490.6384
CC1C2C3N2C1C31CN1	C[C@H]1[C@H]2[C@@H]3N2[C@H]1[C@]13CN1	
InChI=1S/C7H10N2/c1-3-4-6-7(2-8-7)5(3)9(4)6/h3-6,8H,2H2,1H3	InChI=1S/C7H10N2/c1-3-4-6-7(2-8-7)5(3)9(4)6/h3-6,8H,2H2,1H3/t3-,4-,5+,6-,7-,9?/m0/s1
