15
gdb 132958	2.34971	1.90457	1.05895	2.8809	72.11	-0.2162	-0.0362	0.18	1044.7668	0.112976	-461.982751	-461.975011	-461.974067	-462.015464	28.699	
C	-0.0151788601	 1.4617688354	 0.0520945068	-0.361924
N	 0.0035041865	-0.0020719995	 0.0220762608	-0.232406
C	-0.0240008683	-0.6515879733	-1.2618733969	 0.441958
O	-0.0610820137	 0.0204676783	-2.2787440997	-0.402597
C	-0.0024508082	-2.0932232373	-1.1842483794	-0.256463
C	 0.0397448753	-2.7554744441	 0.0051844706	-0.035661
C	 0.065229723	-2.0630196146	 1.2424074593	-0.364068
C	 0.0453380136	-0.706374458	 1.1774207215	 0.440119
F	 0.0660827929	 0.0442267226	 2.2713586011	-0.059757
H	 0.8825535264	 1.8479936282	 0.540385495	 0.14469
H	-0.0484859044	 1.7868780424	-0.9859101543	 0.182786
H	-0.8942919308	 1.8243105864	 0.5899170808	 0.144688
H	-0.0220590102	-2.6128484325	-2.1332432378	 0.118295
H	 0.054580864	-3.8406234535	 0.0167468456	 0.118553
H	 0.0987018041	-2.5577219704	 2.2014501067	 0.121787
65.4298	120.5351	205.8941	246.8136	333.9406	388.7049	467.9262	490.1127	523.5604	588.1954	659.4657	707.9318	736.7088	774.47	815.637	851.9913	963.3087	993.2329	1058.6286	1118.3928	1154.7038	1185.9328	1206.0808	1234.614	1297.1732	1405.535	1441.2104	1492.8303	1504.3022	1507.8699	1581.9264	1674.5111	1775.7578	3059.0105	3124.8417	3180.9864	3183.2261	3223.6322	3245.6137
CN1C(=O)C=CC=C1F	Cn1c(=O)cccc1F	
InChI=1S/C6H6FNO/c1-8-5(7)3-2-4-6(8)9/h2-4H,1H3	InChI=1S/C6H6FNO/c1-8-5(7)3-2-4-6(8)9/h2-4H,1H3
