21
gdb 118417	2.4031	0.80073	0.62288	1.3962	86.24	-0.2392	0.0465	0.2857	1850.9441	0.178178	-424.174268	-424.162483	-424.161539	-424.213798	38.919	
C	 0.0725494846	 1.4450260937	-0.0003467348	-0.229431
O	-0.0140633332	 0.0398165333	 0.0294650544	-0.233864
C	 0.7493908368	-0.534344584	 1.0670261514	-0.052919
C	 0.6507398533	-2.0633594634	 0.9695518748	-0.106869
O	 1.3396783837	-2.56143486	-0.1697242775	-0.24559
C	 0.5479686492	-2.6739315981	-1.3382019371	-0.235727
C	 1.2194224155	-2.6767250932	 2.1708336165	 0.032843
C	 1.6886456993	-3.1544039167	 3.170816053	 0.139191
C	 2.2571513464	-3.7497031351	 4.3711621088	-0.501189
H	 1.1059115697	 1.7867428576	-0.167343362	 0.108546
H	-0.5538798647	 1.7946064233	-0.8244600208	 0.127793
H	-0.289818584	 1.8943939579	 0.9377474218	 0.105526
H	 1.8089925165	-0.2458667586	 0.9863934483	 0.102846
H	 0.3795551421	-0.2052162535	 2.051853018	 0.092328
H	-0.4183002341	-2.3225052731	 0.898880016	 0.09688
H	 1.1843810021	-3.1302487811	-2.1009091311	 0.120807
H	-0.322583038	-3.3273531906	-1.1718927487	 0.101513
H	 0.1937071703	-1.6997285652	-1.6910788702	 0.127291
H	 3.0857185612	-4.4212308175	 4.1209487874	 0.153455
H	 2.6451316036	-2.9838699933	 5.0516923933	 0.147837
H	 1.5100409198	-4.3345310324	 4.9189213587	 0.148734
17.1257	60.7545	79.3067	85.5156	99.3785	137.0958	190.0133	216.0493	238.6672	299.056	317.0898	358.3548	381.4451	427.9258	522.3838	557.1851	843.1252	863.5585	999.5232	1036.1909	1052.6862	1054.8053	1083.108	1133.8425	1160.2076	1176.1669	1181.1886	1187.2968	1215.7579	1224.1179	1265.1367	1307.2732	1377.1178	1412.5034	1414.8017	1475.0892	1477.1625	1478.3964	1478.6836	1483.6178	1485.8751	1497.8303	1517.1503	1520.6809	2376.2594	2965.0822	2971.6232	2976.7898	2986.002	3013.571	3019.3101	3028.3012	3071.4017	3088.947	3090.8767	3115.5291	3117.1108
COCC(OC)C#CC	COC[C@@H](OC)C#CC	
InChI=1S/C7H12O2/c1-4-5-7(9-3)6-8-2/h7H,6H2,1-3H3	InChI=1S/C7H12O2/c1-4-5-7(9-3)6-8-2/h7H,6H2,1-3H3/t7-/m0/s1
