14
gdb 28623	5.43145	1.04148	0.87411	5.6497	79.3	-0.2398	-0.0644	0.1754	1229.1834	0.102408	-432.929929	-432.922328	-432.921384	-432.96213	28.166	
N	 0.0191906911	 1.3671759457	 0.1023582812	-0.5604
C	 0.0064072411	 0.0085910579	 0.0398379883	 0.397014
C	-1.2151325489	-0.7215677118	 0.0301460092	-0.06752
N	-1.2436571586	-2.0319783928	 0.004009858	-0.26168
C	-0.0546558984	-2.6749726695	-0.0104795842	 0.187008
C	-0.0260122173	-4.1531614196	-0.0379908837	 0.096947
O	-0.9915358352	-4.8763843318	-0.0492431552	-0.262261
C	 1.1364981931	-1.9530930507	-0.0027299706	-0.042723
N	 1.1855991468	-0.6212426025	 0.018732598	-0.323501
H	 0.9027532436	 1.8239667694	-0.056217861	 0.270463
H	-0.8163057278	 1.8874478732	-0.1022282078	 0.268635
H	-2.1679099938	-0.1940214259	 0.0443072721	 0.110413
H	 1.0083428857	-4.5694672218	-0.0479147433	 0.065088
H	 2.0934661086	-2.4711114097	-0.0185678912	 0.122518
85.4492	175.7521	197.0242	298.8925	333.4868	385.6211	417.5133	439.4068	476.5735	567.6517	651.369	654.311	803.7407	829.8335	889.395	919.9739	968.5774	1029.6936	1033.0308	1051.9423	1240.6041	1289.4295	1335.134	1362.2479	1420.1974	1452.0124	1521.5596	1577.112	1612.6484	1645.2864	1810.7662	2858.1286	3132.5877	3149.5619	3604.2534	3731.0999
NC1=CN=C(C=O)C=N1	Nc1cnc(C=O)cn1	
InChI=1S/C5H5N3O/c6-5-2-7-4(3-9)1-8-5/h1-3H,(H2,6,8)	InChI=1S/C5H5N3O/c6-5-2-7-4(3-9)1-8-5/h1-3H,(H2,6,8)
