13
gdb 5670	5.33483	2.22277	1.56903	1.3674	64.62	-0.1916	0.0307	0.2223	743.9537	0.098838	-361.49514	-361.489405	-361.48846	-361.524647	22.95	
N	-0.0460851803	 1.3185091843	 0.0100361289	-0.404778
C	 1.2524915462	 1.8342637117	 0.0003623193	-0.067197
C	 2.1632344667	 0.8029631911	-0.0144931901	-0.331831
C	 1.4069325725	-0.4139203911	-0.0139476734	 0.256749
C	 0.0850909298	-0.0324807724	 0.0011371573	 0.408221
O	-0.7908748886	-1.0499495981	 0.0039989456	-0.22048
C	 0.0260700981	-2.1793470235	-0.0102057185	-0.022727
C	 1.3466571762	-1.8548827811	-0.0214580302	-0.348524
H	-0.8961675786	 1.8522855088	 0.0212628468	 0.269722
H	 1.403538004	 2.9014008976	 0.0049635457	 0.120668
H	 3.2352471682	 0.9226135014	-0.0243437338	 0.098062
H	-0.5075968196	-3.1142390005	-0.0101572923	 0.131213
H	 2.1595978953	-2.5644164682	-0.0334375352	 0.110902
196.3611	301.5759	361.2794	462.5515	578.1979	601.6181	661.99	691.3308	692.8454	736.3124	755.2362	809.3052	817.5025	893.4593	946.7245	1020.1458	1061.3686	1084.2913	1142.8183	1181.0471	1253.4422	1325.7787	1349.4422	1465.439	1509.0089	1529.4808	1578.7968	1608.2654	3251.1377	3252.0581	3274.5148	3293.3601	3698.0892
N1C=CC2=C1OC=C2	[nH]1ccc2c1occ2	
InChI=1S/C6H5NO/c1-3-7-6-5(1)2-4-8-6/h1-4,7H	InChI=1S/C6H5NO/c1-3-7-6-5(1)2-4-8-6/h1-4,7H
