21
gdb 120537	4.98249	0.65019	0.62811	3.0576	81.46	-0.2458	-0.0223	0.2235	1813.1893	0.180572	-424.212563	-424.202627	-424.201683	-424.248753	34.894	
C	-0.2988472068	 1.4564477121	-0.619754995	-0.228175
O	-0.0756935802	 0.1272507214	-0.2143829171	-0.232425
C	 0.7524844381	-0.589838285	-1.101906462	-0.057644
C	 0.9080551538	-2.0063228797	-0.5769135567	-0.006133
C	-0.3866080788	-2.8585676065	-0.6731980238	-0.245019
C	 0.1696253399	-3.5447183577	-1.9634622063	-0.051058
C	 1.5765473954	-2.971378791	-1.5950045134	-0.270505
C	 0.0557312513	-5.0406037091	-2.0229398642	 0.157243
O	-0.4162411692	-5.6735622902	-2.9322336244	-0.252785
H	 0.6403270662	 2.0291707062	-0.6794696192	 0.104367
H	-0.7924718348	 1.5069276171	-1.6034314669	 0.104381
H	-0.9486618257	 1.9218023925	 0.1252830099	 0.128659
H	 0.3122078087	-0.5980156272	-2.1157046411	 0.083215
H	 1.7423015967	-0.1072868371	-1.1869638331	 0.085866
H	 1.368196863	-1.9638220098	 0.4136043674	 0.080805
H	-0.4792991808	-3.5671533014	 0.1555608553	 0.105244
H	-1.3278385796	-2.3156295301	-0.7735768727	 0.121161
H	-0.2366362637	-3.1213884043	-2.8836398783	 0.091498
H	 2.1463163387	-2.5266326574	-2.4151509532	 0.110272
H	 2.2063323737	-3.7193427732	-1.1037973438	 0.108286
H	 0.4594652042	-5.5547816295	-1.1155572012	 0.062749
45.055	68.7787	95.765	110.0081	161.8788	228.8053	271.3348	294.6134	346.1441	389.7472	467.5484	489.8498	719.642	802.2712	841.3831	892.5476	910.9454	923.2245	964.579	998.2549	1022.666	1072.0088	1091.0675	1109.5636	1156.5548	1175.7051	1187.9284	1215.4151	1226.3653	1239.672	1258.3139	1266.1069	1273.2701	1285.1649	1322.9449	1362.0671	1425.7702	1429.2771	1472.0112	1481.0336	1485.8567	1491.9274	1503.0648	1525.8279	1829.5973	2826.7503	2935.3997	2962.9253	2969.7312	3012.3824	3050.7165	3056.2022	3075.0095	3094.4907	3108.4526	3114.2684	3124.1984
COCC1CC(C1)C=O	COC[C@H]1C[C@@H](C1)C=O	
InChI=1S/C7H12O2/c1-9-5-7-2-6(3-7)4-8/h4,6-7H,2-3,5H2,1H3	InChI=1S/C7H12O2/c1-9-5-7-2-6(3-7)4-8/h4,6-7H,2-3,5H2,1H3/t6-,7-
