18
gdb 13182	2.76806	1.84096	1.36896	1.8764	67.46	-0.2432	-0.0256	0.2176	966.0963	0.152229	-384.931507	-384.92292	-384.921976	-384.965315	30.099	
C	-0.0395940023	 1.5895024625	-0.0259995097	-0.420675
C	-0.0004711244	 0.0573352461	 0.0262812037	-0.08459
C	-1.4090238921	-0.5226579562	 0.0167606577	 0.164605
O	-1.7036378378	-1.5975937484	 0.4762173393	-0.25933
C	 0.7975618474	-0.5117470055	-1.1561838048	 0.153441
C	 0.8925912019	-2.0409461687	-1.3484254685	-0.309528
C	 0.25747441	-1.7624323903	-2.725243284	-0.06202
O	 0.0906671163	-0.3587480004	-2.4128363768	-0.30175
H	 0.969001287	 2.006120349	 0.0490686154	 0.123272
H	-0.47430172	 1.9281502826	-0.9718551845	 0.144314
H	-0.6364011436	 2.0042689953	 0.7924099503	 0.121205
H	 0.4873150102	-0.2928537716	 0.9446506869	 0.101436
H	-2.1774312843	 0.1207522444	-0.4664295008	 0.086486
H	 1.7716129704	-0.0023332001	-1.1957863823	 0.075055
H	 1.9017653122	-2.4543615353	-1.3552392578	 0.108438
H	 0.2623802842	-2.6118460941	-0.6664937201	 0.142474
H	 0.9226949233	-1.9066339846	-3.5854023053	 0.103738
H	-0.7023534586	-2.2491652246	-2.9290668788	 0.113429
60.8695	86.8305	104.6069	195.9668	221.0945	232.2113	304.63	390.1461	524.9348	557.1532	719.9114	807.9668	857.1962	901.1126	928.8875	963.8859	979.1609	1005.9303	1038.3251	1055.863	1109.0896	1138.8791	1157.3231	1174.7202	1221.0222	1263.1975	1263.7807	1299.3557	1313.9416	1366.7585	1376.4384	1406.7102	1433.9653	1494.5211	1496.6892	1502.0659	1530.3774	1822.4183	2886.4681	2988.9012	3022.349	3038.5879	3041.0562	3069.4166	3090.2957	3108.9923	3115.1962	3151.4542
CC(C=O)C1CCO1	C[C@@H](C=O)[C@H]1CCO1	
InChI=1S/C6H10O2/c1-5(4-7)6-2-3-8-6/h4-6H,2-3H2,1H3	InChI=1S/C6H10O2/c1-5(4-7)6-2-3-8-6/h4-6H,2-3H2,1H3/t5-,6+/m0/s1
