19
gdb 109804	3.03558	1.01616	0.90637	3.9642	72.07	-0.253	0.0491	0.3021	1331.7765	0.158637	-460.10538	-460.096341	-460.095397	-460.13973	33.598	
O	 0.1537998647	 1.0783417538	-0.4506264731	-0.41696
C	-0.0595651887	-0.0854295011	 0.3640444216	-0.108939
C	-1.4210960774	-0.7047776259	 0.1208030059	-0.128609
C	-1.7828019908	-1.0596031903	-1.3029222699	 0.083826
O	-0.7988600986	-0.9019779793	-2.2794510241	-0.424597
C	-1.596621045	-2.1650033567	-0.293992318	-0.086576
C	-0.4459614798	-3.1097030079	-0.4153970099	 0.075666
C	-0.1451213191	-4.1000488442	 0.6284765324	-0.188281
O	-0.8000830696	-4.4889472306	-0.578480263	-0.237
H	-0.5345664823	 1.7169170517	-0.2357927602	 0.288711
H	 0.7486343519	-0.7660050891	 0.0926332605	 0.128309
H	 0.0674069095	 0.1619727044	 1.4264319307	 0.104965
H	-2.2207917627	-0.2969436855	 0.7343404834	 0.087796
H	-2.7965204775	-0.852230002	-1.6438129827	 0.089837
H	-0.3849204453	-0.0413751397	-2.1182740197	 0.297433
H	-2.498241295	-2.6482476602	 0.0701840077	 0.099659
H	 0.3586893367	-2.7851033243	-1.0711496464	 0.114176
H	 0.8724077158	-4.4695823073	 0.7522263482	 0.112718
H	-0.7615241168	-4.1351645857	 1.5265982764	 0.107864
54.8556	99.3859	143.0475	177.1843	233.6897	292.5951	328.5345	344.8667	405.0992	542.5444	576.8848	615.8488	654.7938	791.6009	792.1368	844.4147	857.7148	935.5715	948.0537	999.0062	1016.388	1041.0637	1051.0277	1102.7733	1121.1871	1133.6296	1154.3782	1174.9341	1194.0808	1229.3982	1251.0671	1292.2771	1310.7237	1353.2154	1375.3796	1401.0097	1418.1379	1426.7276	1470.3153	1509.0145	1529.7485	3017.5896	3075.9442	3103.5159	3116.5683	3134.5551	3140.6201	3158.9075	3163.5961	3716.3789	3811.6473
OCC1C(O)C1C1CO1	OC[C@H]1[C@@H](O)[C@H]1[C@H]1CO1	
InChI=1S/C6H10O3/c7-1-3-5(6(3)8)4-2-9-4/h3-8H,1-2H2	InChI=1S/C6H10O3/c7-1-3-5(6(3)8)4-2-9-4/h3-8H,1-2H2/t3-,4-,5-,6-/m1/s1
