18
gdb 14267	3.04575	2.58604	1.81632	1.5253	71.61	-0.2369	0.0112	0.2481	791.5251	0.156963	-347.79432	-347.787921	-347.786977	-347.82451	26.122	
C	-0.0343816327	 1.5989180241	 0.1850625316	-0.259607
C	 1.4709315556	 1.432280162	-0.1128215582	 0.111695
C	 2.3874026034	 1.3331985434	 1.1203291032	-0.228066
C	 2.4142957871	-0.0687140364	 1.771860526	-0.236597
C	 1.0846312618	-0.7336142727	 2.0559201257	-0.064037
C	 0.0070436027	-0.7111740664	 1.2694401907	-0.04585
C	-0.065128099	 0.0618059192	-0.0182773205	 0.052585
O	 1.2212461468	 0.124514724	-0.6939429114	-0.286814
H	-0.326621672	 1.9797376662	 1.1644919413	 0.102193
H	-0.558285944	 2.1414079645	-0.6046925504	 0.104849
H	 1.889362072	 2.1174862182	-0.8571450126	 0.074859
H	 3.4153415642	 1.5877585687	 0.8376288559	 0.099052
H	 2.0736656527	 2.0867004855	 1.8532048813	 0.101143
H	 2.9910473261	-0.7340784239	 1.1177432609	 0.132139
H	 2.983155031	 0.0016057618	 2.7054788894	 0.094136
H	 1.0369472349	-1.3152519461	 2.9740268373	 0.089247
H	-0.8931065337	-1.2413922941	 1.5714746265	 0.082543
H	-0.8404005468	-0.3328685781	-0.6825740968	 0.076531
152.6949	242.435	320.373	364.8514	405.9128	486.6941	614.2082	669.6439	742.7424	764.4064	828.2004	867.6731	872.3952	909.7209	923.3302	953.461	990.6445	996.0043	1029.2716	1071.4424	1079.6855	1106.0946	1137.6119	1184.3968	1229.3388	1233.8788	1260.0837	1279.7114	1313.8127	1350.4231	1355.0387	1382.9984	1388.6486	1419.1401	1469.5239	1484.0062	1495.6442	1713.3791	3025.28	3031.4254	3047.7496	3054.0146	3063.0057	3072.4163	3075.8535	3136.0547	3139.6295	3164.0356
C1C2CCC=CC1O2	C1[C@H]2CCC=C[C@@H]1O2	
InChI=1S/C7H10O/c1-2-4-7-5-6(3-1)8-7/h1,3,6-7H,2,4-5H2	InChI=1S/C7H10O/c1-2-4-7-5-6(3-1)8-7/h1,3,6-7H,2,4-5H2/t6-,7+/m0/s1
