18
gdb 126002	4.64918	1.22899	1.00822	5.5171	77.47	-0.2452	0.0104	0.2556	1167.9805	0.151194	-398.146426	-398.139073	-398.138129	-398.17834	28.343	
C	-0.7373508462	 1.2805493505	-0.062034855	-0.409488
C	 0.1741920326	 0.0593898873	 0.0188519565	 0.023831
C	 1.1979728667	-0.0398980385	-1.1483607698	-0.186175
N	 2.3049305085	-0.7248456835	-0.5013522414	 0.069606
N	 3.4025037147	-1.3166812011	-0.9899066382	-0.177664
N	 4.0885185081	-1.7228969445	 0.0507185412	-0.192897
C	 3.4299970428	-1.3798008153	 1.1979399366	-0.216492
C	 2.268299115	-0.7302098591	 0.8494383482	 0.346834
C	 1.039390433	-0.0165160883	 1.3207278722	-0.375962
H	-0.1554764621	 2.2084099143	-0.0305174032	 0.123808
H	-1.3218199853	 1.2813338508	-0.9877824492	 0.124889
H	-1.4419778441	 1.2979224447	 0.7751174014	 0.126308
H	-0.4399225651	-0.8476330353	-0.0148443694	 0.099713
H	 0.8289658562	-0.6101046903	-2.0031416172	 0.141032
H	 1.5183153281	 0.9479344763	-1.5007946847	 0.128575
H	 3.8281474164	-1.626977408	 2.1681616267	 0.119829
H	 1.2849881133	 0.989749826	 1.6844850722	 0.12486
H	 0.5154062877	-0.531776706	 2.1296581534	 0.129392
83.9512	207.6889	238.2195	249.5112	277.1904	410.5687	453.7019	510.9463	666.4252	709.467	744.1328	786.2242	829.4073	836.6762	903.738	938.469	955.3941	1006.9924	1071.4055	1115.7705	1124.2616	1128.9279	1166.6944	1191.6	1230.8899	1261.1993	1270.6713	1273.7094	1328.1693	1347.8861	1349.0127	1378.1588	1415.342	1478.875	1493.848	1497.4711	1499.9831	1523.0324	1583.0294	3024.2388	3032.5573	3034.8277	3044.8525	3093.4937	3102.1602	3106.9707	3114.4437	3274.2742
CC1CN2N=NC=C2C1	C[C@H]1Cn2nncc2C1	
InChI=1S/C6H9N3/c1-5-2-6-3-7-8-9(6)4-5/h3,5H,2,4H2,1H3	InChI=1S/C6H9N3/c1-5-2-6-3-7-8-9(6)4-5/h3,5H,2,4H2,1H3/t5-/m1/s1
