17
gdb 71421	4.71765	1.15972	1.0658	4.4677	76.7	-0.2332	0.0336	0.2667	1137.436	0.137003	-380.815765	-380.808185	-380.807241	-380.847682	29.531	
C	-0.0528194997	 1.446946939	-0.0231194455	-0.510608
C	-0.0015078521	-0.0453765142	 0.0290650824	 0.334055
N	-1.1680467373	-0.906283951	-0.304229416	-0.363074
C	-0.3720617852	-2.0241587506	 0.3043245907	-0.045774
C	 0.5986697824	-1.0040698755	 1.0207235892	-0.152244
C	 1.2327114747	-0.8718432	-0.3585440015	-0.10122
C	 0.707167474	-2.2429172405	-0.8068330351	-0.15318
C	 1.6303414339	-3.3299604927	-0.5175989141	 0.2714
N	 2.3587918901	-4.1983689341	-0.2891269652	-0.330622
H	 0.9101071919	 1.8783032587	 0.2666178124	 0.131434
H	-0.2906824112	 1.7903223611	-1.0354304971	 0.139081
H	-0.8146360306	 1.8417034454	 0.6583858804	 0.124371
H	-1.9073107275	-0.6694165499	 0.3587125206	 0.21731
H	-0.9091338034	-2.8641055871	 0.7368235783	 0.099372
H	 1.0173818806	-0.9156780998	 2.0139401939	 0.10571
H	 2.1764318928	-0.4127740168	-0.6217468237	 0.108249
H	 0.3102535166	-2.3389156722	-1.8216187395	 0.125741
123.4924	140.3009	208.94	250.6458	301.1471	403.9311	476.3447	520.3697	552.5785	631.1329	767.5491	791.0244	793.3672	843.2681	883.0228	898.8857	921.8097	950.985	963.4171	1010.3671	1042.9181	1052.2446	1071.1857	1118.8922	1141.8322	1156.2475	1180.4395	1229.0772	1240.6082	1278.0086	1322.908	1343.0229	1408.7841	1450.3592	1481.2985	1500.2881	2355.3207	3031.185	3074.3005	3094.2851	3110.6066	3159.4691	3202.6349	3213.0477	3446.0079
CC12NC3C1C2C3C#N	C[C@]12N[C@@H]3[C@H]1[C@H]2[C@H]3C#N	
InChI=1S/C7H8N2/c1-7-4-3(2-8)6(9-7)5(4)7/h3-6,9H,1H3	InChI=1S/C7H8N2/c1-7-4-3(2-8)6(9-7)5(4)7/h3-6,9H,1H3/t3-,4-,5-,6+,7-/m1/s1
