20
gdb 83204	2.53334	1.51318	1.24911	1.6963	83.78	-0.2238	0.0464	0.2702	1099.646	0.171312	-365.959615	-365.950953	-365.950009	-365.992701	33.566	
C	 0.1181562617	 1.6662053897	-0.269191346	-0.42824
C	 0.0394517439	 0.1585734941	-0.143002813	 0.020025
C	 0.5742114406	-0.8219402987	-1.1289146233	-0.044768
C	 1.6135454595	-0.3790310207	-2.1525571082	-0.237647
C	 2.7654126159	 0.2418556607	-1.3293802403	-0.25149
C	 2.5307186053	-0.2837873731	 0.1222303174	-0.13318
C	 2.9039699513	 0.6661903064	 1.1647914691	 0.343295
C	 3.2392826274	 1.4484997835	 2.013683079	-0.464192
N	 1.13284153	-0.7627303353	 0.2385262012	-0.119861
H	 0.8626604322	 2.0167324928	-0.9845438425	 0.121481
H	-0.8560247361	 2.0399803886	-0.6030687728	 0.118438
H	 0.3387505176	 2.127281018	 0.6976537079	 0.140433
H	-0.875018478	-0.1503149272	 0.3625182318	 0.092288
H	-0.0087659952	-1.7078009443	-1.3702373449	 0.086005
H	 1.9593837877	-1.2556223421	-2.7092170937	 0.108857
H	 1.2093291915	 0.3250769212	-2.887301532	 0.108781
H	 3.7487643753	-0.0605819581	-1.6978033717	 0.109471
H	 2.7410844476	 1.331804021	-1.3490174956	 0.121132
H	 3.1409186312	-1.1857670175	 0.2615343102	 0.11338
H	 3.5299347405	 2.1347797311	 2.7700124373	 0.195793
88.3852	132.7099	158.495	191.9213	248.0482	282.3339	399.9308	483.3382	499.6484	526.1056	614.3755	648.0263	680.8086	683.8848	743.0992	757.9947	834.7486	866.1887	916.042	964.9886	983.1584	1024.5308	1033.8295	1057.8881	1098.8345	1118.3791	1143.9104	1163.4228	1179.5468	1231.7391	1288.6209	1302.1233	1320.687	1333.3001	1355.9712	1376.0114	1417.5855	1434.0917	1483.4732	1497.5177	1501.0438	1519.6651	2235.9813	3012.6479	3044.9094	3047.16	3077.2613	3081.2388	3099.923	3106.6392	3125.6753	3129.8586	3145.2161	3504.1951
CC1C2CCC(C#C)N12	C[C@H]1[C@H]2CC[C@@H](C#C)N12	
InChI=1S/C8H11N/c1-3-7-4-5-8-6(2)9(7)8/h1,6-8H,4-5H2,2H3	InChI=1S/C8H11N/c1-3-7-4-5-8-6(2)9(7)8/h1,6-8H,4-5H2,2H3/t6-,7+,8+,9?/m0/s1
