15
gdb 132597	3.18048	1.33158	0.94147	3.0266	73.71	-0.1988	-0.0108	0.188	1144.0667	0.114806	-458.153974	-458.146425	-458.145481	-458.185673	29.887	
N	 0.0277210364	 1.4182906141	 0.0869504426	-0.606993
C	-0.0143105649	 0.0210540356	 0.0245136215	 0.269503
C	-1.1884607395	-0.7176511629	 0.0592026265	-0.306543
C	-1.0978282984	-2.1052507017	 0.0135036838	 0.249166
F	-2.2196022134	-2.8367771228	 0.0432692051	-0.084402
C	 0.1331144485	-2.7238761893	-0.0755003787	-0.143636
N	 1.271456342	-2.0155124654	-0.0868624367	-0.323314
C	 1.2082355446	-0.694315895	-0.0305244599	 0.30861
N	 2.4040936554	 0.0356534565	-0.0867962832	-0.584137
H	 0.7495500002	 1.8088686739	-0.50827956	 0.256133
H	-0.8625778064	 1.8632517753	-0.0918410397	 0.247886
H	-2.1609000567	-0.2388721023	 0.1027317797	 0.10388
H	 0.2072230649	-3.8053565675	-0.126139969	 0.112897
H	 3.2014545816	-0.5840806118	-0.0137701912	 0.251136
H	 2.4521188656	 0.7722088334	 0.6086161991	 0.249813
150.6736	227.5828	262.28	302.1761	336.7867	402.7869	463.4164	479.5453	482.6985	501.644	581.9371	618.7695	711.0219	745.1063	760.5173	803.0816	836.8494	891.9242	901.7105	1011.6949	1091.5104	1121.4212	1194.2727	1287.51	1307.7634	1326.2065	1377.5744	1478.7366	1519.6769	1613.4156	1634.7421	1646.4694	1666.0883	3181.4114	3189.9453	3515.2626	3521.5435	3621.7029	3626.3973
NC1=CC(F)=CN=C1N	Nc1cc(F)cnc1N	
InChI=1S/C5H6FN3/c6-3-1-4(7)5(8)9-2-3/h1-2H,7H2,(H2,8,9)	InChI=1S/C5H6FN3/c6-3-1-4(7)5(8)9-2-3/h1-2H,7H2,(H2,8,9)
