19
gdb 96190	2.25397	1.91282	1.19514	1.6776	70.75	-0.2514	0.0615	0.3128	1047.2855	0.161131	-460.142427	-460.134697	-460.133752	-460.174692	30.256	
O	 0.0682782099	 1.3972584014	-0.0955288408	-0.443797
C	 0.0696052418	-0.0078395228	 0.0708885546	 0.11597
C	 0.788018242	-0.4673049689	 1.3441148869	-0.237517
C	 0.5440578724	-1.9605376327	 1.5502242482	-0.084488
O	-0.8281979496	-2.2067087297	 1.8260128552	-0.266219
C	-1.729907453	-1.8182864595	 0.8124054939	 0.057195
C	-2.8498154966	-0.9454952042	 1.4030439936	-0.086895
O	-2.2487293011	 0.2581714058	 0.8649624995	-0.310683
C	-1.3640655035	-0.530189026	 0.0280117248	 0.082565
H	-0.6200109831	 1.7348052551	 0.4929314125	 0.29426
H	 0.6055292101	-0.417241711	-0.7956497462	 0.08623
H	 1.8573347948	-0.2468007395	 1.2668853945	 0.103732
H	 0.3926471138	 0.0750308363	 2.2104705626	 0.109044
H	 0.8769537746	-2.5346576126	 0.6684650312	 0.088057
H	 1.0897362609	-2.3418448772	 2.4171848639	 0.114485
H	-2.02666011	-2.6844801972	 0.2090168546	 0.07852
H	-3.8453807313	-1.1194928281	 0.9763777788	 0.102278
H	-2.8977976601	-0.9392145125	 2.4952181605	 0.119964
H	-1.7391803419	-0.5434194466	-1.0039260082	 0.0773
109.3329	114.8335	233.5719	282.5495	362.4701	394.0276	412.32	437.2807	476.0507	612.9807	633.0877	780.1506	806.3006	872.6797	881.2823	919.5253	962.4271	1002.5323	1008.2735	1039.4595	1079.0982	1082.2639	1100.2774	1148.179	1167.5223	1192.83	1210.7809	1244.1097	1270.8383	1277.129	1304.873	1336.3425	1350.6745	1353.3721	1370.4231	1397.1155	1409.7098	1441.0565	1476.6627	1504.6794	1506.5406	2961.7844	3009.5043	3021.7273	3026.9408	3039.7181	3044.7858	3093.2309	3095.6386	3101.0094	3768.2094
OC1CCOC2COC12	O[C@H]1CCO[C@H]2CO[C@@H]12	
InChI=1S/C6H10O3/c7-4-1-2-8-5-3-9-6(4)5/h4-7H,1-3H2	InChI=1S/C6H10O3/c7-4-1-2-8-5-3-9-6(4)5/h4-7H,1-3H2/t4-,5-,6-/m0/s1
