16
gdb 44028	3.16419	1.734	1.56691	3.0382	73.88	-0.2273	-0.0442	0.1831	890.3316	0.124367	-400.597183	-400.590515	-400.58957	-400.628266	27.054	
O	 0.0130082342	 0.0329986167	-0.2787621877	-0.266928
C	-0.0121699154	 1.2097566566	-0.1023468808	 0.325537
C	-1.1407799756	 2.2315264187	 0.302644298	-0.446817
C	-0.0222989938	 3.1091961114	 0.9076237018	 0.196489
C	 0.7628942434	 2.8874709445	 2.2173623429	-0.303321
C	 1.8847713068	 3.0822146993	 1.1720283679	-0.091967
C	 1.0280177856	 4.1242570588	 0.3373851464	-0.059191
N	 1.2761184613	 3.4035815198	-0.9525776482	-0.362899
C	 1.0631614489	 2.3282847228	 0.0753044572	 0.125565
H	-1.651911893	 2.6549482078	-0.5670047525	 0.13903
H	-1.8957838563	 1.8420715358	 0.9890680316	 0.144372
H	 0.6643096514	 3.6546832104	 2.9903060669	 0.103516
H	 0.7032153128	 1.8896694162	 2.6640184677	 0.109546
H	 2.968672953	 3.1061134915	 1.3008872457	 0.091786
H	 1.0571850224	 5.2150003006	 0.4199401806	 0.08627
H	 0.4600047443	 3.489420429	-1.5670941076	 0.209012
73.4778	275.9119	327.3065	375.7879	411.7426	480.3196	569.1462	574.9922	681.2708	723.3174	786.3362	823.0244	860.6836	877.3273	899.25	920.0569	947.8983	989.9671	1022.2979	1041.1586	1045.8442	1063.3889	1134.455	1149.8734	1154.2238	1184.8755	1188.9865	1222.4128	1245.4272	1265.5787	1283.5134	1286.0233	1428.5892	1512.7676	1878.4477	3045.4405	3062.769	3065.4311	3099.641	3102.5969	3124.8807	3384.3939
O=C1CC23CC4C2NC134	O=C1C[C@]23C[C@@H]4[C@H]2N[C@]134	
InChI=1S/C7H7NO/c9-4-2-6-1-3-5(6)8-7(3,4)6/h3,5,8H,1-2H2	InChI=1S/C7H7NO/c9-4-2-6-1-3-5(6)8-7(3,4)6/h3,5,8H,1-2H2/t3-,5-,6-,7-/m1/s1
