20
gdb 93803	2.43845	1.46912	1.11	3.3983	76.08	-0.2337	0.028	0.2618	1172.0488	0.171512	-440.332793	-440.323805	-440.32286	-440.366521	33.983	
C	-0.0543821078	 1.5698185442	 0.0251665122	-0.383471
C	 0.0198285656	 0.0387788016	-0.0244206191	 0.028394
C	 0.7628946637	-0.4656209446	-1.2633960649	-0.087865
O	 2.1422404473	-0.1867535093	-1.1513828839	-0.257914
C	 2.7616015788	-0.9618302599	-0.1310297952	 0.014951
C	 4.1892130741	-0.4664619834	 0.0433315886	-0.398614
C	 1.9984638267	-0.9330561369	 1.2031040474	 0.39304
O	 2.517261053	-1.3107871192	 2.2383136949	-0.383288
N	 0.7029518816	-0.5090041864	 1.145341755	-0.326308
H	 0.9485176322	 1.9959845197	-0.0634606132	 0.138657
H	-0.6720611416	 1.9535229146	-0.7935063441	 0.117039
H	-0.4936825437	 1.9092500465	 0.9681542098	 0.114834
H	-0.9983934013	-0.3722232273	-0.0459136111	 0.086965
H	 0.5944877166	-1.5472125346	-1.3903092275	 0.096334
H	 0.4024041632	 0.0479836839	-2.1587466698	 0.113628
H	 2.7768300807	-2.0217807854	-0.4425491491	 0.096855
H	 4.1923086361	 0.5944699837	 0.3092959537	 0.124739
H	 4.6727095784	-1.0288968544	 0.8428497083	 0.147377
H	 4.7460591759	-0.5938260438	-0.8880341319	 0.119614
H	 0.2456699906	-0.4559264589	 2.04527077	 0.245033
66.7782	95.8256	204.9285	229.3834	243.7695	280.6863	347.7879	395.5432	412.9787	457.5912	502.3874	523.7555	591.6851	687.1475	748.4051	800.6939	838.0987	877.831	959.7141	1004.279	1024.1316	1058.7824	1100.8762	1128.969	1131.774	1163.5701	1184.1432	1282.034	1317.4576	1333.7069	1347.3967	1367.2389	1391.0377	1397.547	1402.9919	1421.102	1469.4949	1484.8488	1487.2426	1496.4817	1498.6143	1504.9113	1784.3161	2946.2649	2977.8822	3016.8458	3037.7726	3054.9893	3093.916	3107.608	3125.9352	3126.3135	3156.5216	3592.9707
CC1COC(C)C(=O)N1	C[C@H]1CO[C@@H](C)C(=O)N1	
InChI=1S/C6H11NO2/c1-4-3-9-5(2)6(8)7-4/h4-5H,3H2,1-2H3,(H,7,8)	InChI=1S/C6H11NO2/c1-4-3-9-5(2)6(8)7-4/h4-5H,3H2,1-2H3,(H,7,8)/t4-,5-/m0/s1
