16
gdb 34801	4.24477	1.31928	1.24122	2.2705	74.01	-0.2378	0.0461	0.2839	1020.098	0.125049	-400.635163	-400.628289	-400.627344	-400.666234	28.221	
C	-0.0210863631	-1.2136680643	-0.046770802	-0.406344
C	-0.0183214478	-0.0118424712	-0.0198790192	 0.305471
C	-0.0520677357	 1.4337229887	-0.0264012235	-0.220366
C	-0.0500370973	 2.0949318136	 1.3880001708	 0.057668
O	 1.3896239417	 1.8184724115	 1.4667400917	-0.299969
C	 1.3484403311	 2.1214935478	 0.0308666718	 0.05765
C	 1.0252733442	 3.6337677	 0.0643364036	-0.05737
N	-0.3690431291	 3.9766534406	-0.3032620631	-0.332149
C	-0.036537274	 3.6135993757	 1.0947542385	-0.05739
H	-0.0165584715	-2.2751589941	-0.0628172619	 0.188067
H	-0.7633542864	 1.8276256789	-0.7516565147	 0.13246
H	-0.6243313209	 1.7092556741	 2.2279686361	 0.09207
H	 2.2125411199	 1.7631443733	-0.5250309643	 0.092073
H	 1.8117864784	 4.3760268691	 0.0112421928	 0.106494
H	-0.4493745104	 4.99052913	-0.3661971467	 0.235143
H	-0.127562569	 4.3391908464	 1.8932542001	 0.106494
142.0585	148.6431	349.7402	372.4923	425.1059	493.6217	561.3818	610.6526	621.5169	629.4965	693.1906	786.7218	836.5748	852.6059	866.826	886.9362	899.672	911.1747	941.7205	948.2157	1048.5074	1058.1755	1073.7506	1109.2198	1134.7522	1172.72	1184.6419	1204.0867	1241.3365	1283.5299	1296.2203	1328.7036	1351.4626	1395.6402	2240.3229	3118.1211	3146.3819	3148.5472	3190.1705	3200.1598	3479.6927	3505.8168
C#CC1C2OC1C1NC21	C#C[C@H]1[C@H]2O[C@@H]1[C@H]1N[C@@H]21	
InChI=1S/C7H7NO/c1-2-3-6-4-5(8-4)7(3)9-6/h1,3-8H	InChI=1S/C7H7NO/c1-2-3-6-4-5(8-4)7(3)9-6/h1,3-8H/t3-,4+,5-,6+,7-
