16
gdb 34429	3.07522	1.73239	1.27654	0.4743	74.78	-0.2424	0.0354	0.2778	965.105	0.125246	-400.639932	-400.633024	-400.63208	-400.671048	28.004	
C	-0.0195202795	-1.1795449961	 0.0489447189	-0.366804
C	 0.0068567534	 0.0219730534	 0.0202191784	 0.16879
C	-0.0030328261	 1.4583450255	 0.0331589487	 0.189983
C	-0.8928982064	 2.1803087788	 1.0493375411	-0.159364
O	-0.6255722907	 3.5610674678	 0.7458786442	-0.276338
C	 0.2974064825	 3.462185666	-0.3073714461	 0.097048
C	 1.3191051834	 2.3078866382	-0.0771675785	-0.121518
N	 1.3836377288	 1.9973536628	-1.5484476923	-0.322778
C	-0.066114837	 2.3092636103	-1.2911844658	-0.121514
H	-0.0285218312	-2.2413685824	 0.0580371815	 0.185391
H	-1.9569775231	 1.9597528015	 0.9099176807	 0.118303
H	-0.6153587028	 1.9584208721	 2.0857180742	 0.118303
H	 0.61652972	 4.4388674133	-0.6703897714	 0.09515
H	 2.187356535	 2.2587935153	 0.5804400575	 0.09149
H	 1.816396353	 2.7854715376	-2.0413404482	 0.212368
H	-0.8319783695	 2.2618010858	-2.0657290529	 0.09149
141.6768	156.8083	291.4806	405.7285	414.9357	495.0082	504.3398	597.8325	633.1374	640.5012	687.8853	727.3502	755.9787	833.7241	887.7092	900.4336	943.3421	978.489	1033.4362	1059.5219	1069.6049	1103.4342	1138.44	1138.8295	1149.2673	1181.9033	1201.6809	1230.7968	1245.3236	1293.201	1296.4034	1317.1307	1392.4845	1520.0518	2240.3879	3035.2019	3078.8953	3115.0363	3116.8639	3139.0997	3380.33	3502.7855
C#CC12COC3C1NC23	C#C[C@@]12CO[C@H]3[C@@H]1N[C@@H]23	
InChI=1S/C7H7NO/c1-2-7-3-9-4-5(7)8-6(4)7/h1,4-6,8H,3H2	InChI=1S/C7H7NO/c1-2-7-3-9-4-5(7)8-6(4)7/h1,4-6,8H,3H2/t4-,5-,6+,7+
