23
gdb 119058	1.70533	1.48119	0.91604	1.6142	82.3	-0.2246	0.0711	0.2957	1393.7357	0.202823	-425.405676	-425.394921	-425.393976	-425.441521	39.609	
C	-1.2492586393	 1.6508133262	-0.6294578358	-0.388193
C	-1.2543227294	 0.1762352626	-0.9954796579	-0.066221
O	-1.3897025496	-0.5753604989	 0.2136961415	-0.311378
C	-1.6048694553	-1.9570129349	 0.0285648047	 0.402446
C	-0.5007843353	-2.7286816987	-0.6649858934	-0.264949
C	 0.8385335487	-2.6485366393	 0.0771585998	-0.374192
C	-2.3439412647	-2.5843744984	 1.1905464116	-0.390759
C	-3.0627539596	-2.3284100984	-0.1174603164	 0.074956
O	-4.019343396	-1.3158113298	-0.207885991	-0.436016
H	-1.1127892961	 2.263496189	-1.5255139855	 0.119014
H	-2.191825134	 1.9407667463	-0.1550513161	 0.120778
H	-0.4357240193	 1.8693505578	 0.0680977078	 0.129927
H	-2.0825155592	-0.0587196709	-1.6778755477	 0.110366
H	-0.3166028028	-0.0883408194	-1.5038510116	 0.099279
H	-0.821328955	-3.773648139	-0.7487216671	 0.100011
H	-0.381116082	-2.370742647	-1.695143399	 0.099911
H	 1.1677896477	-1.6102612256	 0.1772043239	 0.126488
H	 0.7519323498	-3.0635352723	 1.086489498	 0.120299
H	 1.6171418663	-3.2047799213	-0.4531796522	 0.109404
H	-2.0944581057	-3.6017912811	 1.4735723018	 0.110825
H	-2.5923435831	-1.9266773244	 2.0170774618	 0.118465
H	-3.3381235041	-3.1736211805	-0.7400922197	 0.102214
H	-3.6164311218	-0.532256362	 0.1875906725	 0.287322
63.3691	89.6817	121.6439	144.7776	186.0943	201.9377	232.6292	274.4441	300.4039	343.6833	388.8253	434.0086	459.4919	478.5667	639.5191	734.7581	784.9858	823.1107	825.8695	858.4773	906.2662	948.9986	983.266	1000.9482	1039.2448	1062.7867	1083.5219	1091.0168	1105.1962	1134.5922	1165.0021	1187.3133	1251.0577	1253.2875	1299.7326	1319.7203	1340.3241	1372.1077	1402.2882	1407.1768	1425.0205	1433.74	1480.6803	1484.193	1486.2863	1493.9705	1498.7883	1506.8464	1528.093	2997.8883	3028.6358	3037.1225	3039.905	3042.8439	3061.5817	3108.3386	3114.9003	3115.5891	3121.4399	3126.5747	3162.9141	3218.6662	3774.9217
CCOC1(CC)CC1O	CCO[C@@]1(CC)C[C@H]1O	
InChI=1S/C7H14O2/c1-3-7(9-4-2)5-6(7)8/h6,8H,3-5H2,1-2H3	InChI=1S/C7H14O2/c1-3-7(9-4-2)5-6(7)8/h6,8H,3-5H2,1-2H3/t6-,7+/m1/s1
