20
gdb 98843	3.06821	1.10083	0.95537	4.2747	76.98	-0.2452	0.0193	0.2645	1316.4637	0.17129	-440.310506	-440.301017	-440.300072	-440.345843	34.516	
C	 0.1772977527	 1.4824778519	 0.1214899448	-0.335658
N	 0.2344606755	 0.0360228362	 0.0284927807	-0.321234
C	 0.4944737096	-0.6231910437	-1.1314946191	 0.462813
O	 0.710729397	-0.0317201896	-2.1884215758	-0.415396
C	 0.4804414948	-2.1341221091	-1.0413763323	-0.204031
C	-0.7733533761	-2.7618786342	-1.7419176237	-0.228192
C	 0.0737648167	-3.0106541954	-3.0159829516	-0.248647
C	 1.3569339416	-2.810899668	-2.1620117146	 0.169909
O	 2.4444202826	-2.1210307455	-2.6889107744	-0.435767
H	 0.9054779329	 1.8604929732	 0.8470360682	 0.129604
H	 0.4144463833	 1.8812724434	-0.8650538235	 0.173855
H	-0.8213273521	 1.8245239661	 0.4153405032	 0.128287
H	 0.0634405008	-0.5094028707	 0.8566844669	 0.249194
H	 0.6683648864	-2.4649805953	-0.0156346354	 0.065439
H	-1.0768143865	-3.6855912974	-1.2434537841	 0.104723
H	-1.6479250358	-2.1164433959	-1.8443745952	 0.109497
H	-0.0468251612	-3.9643474807	-3.5347728141	 0.09414
H	-0.0351665516	-2.1925040781	-3.7310678699	 0.121277
H	 1.7356547691	-3.7694247333	-1.7932270356	 0.084697
H	 2.1118815004	-1.2316187138	-2.8910571245	 0.295487
32.4538	85.3376	123.5602	137.2594	200.09	253.4015	284.1408	368.1747	426.6371	476.5012	520.166	621.5326	634.7856	722.2978	756.1407	768.811	858.6679	890.0298	926.2403	962.0819	989.6623	1063.0234	1072.2195	1105.397	1153.8289	1160.1174	1167.7294	1184.1325	1227.3716	1233.2649	1254.0517	1261.8191	1270.0985	1345.5075	1381.5956	1438.1446	1465.6729	1475.9253	1491.6109	1496.7601	1500.2108	1566.8281	1729.7809	3030.6459	3050.8507	3061.11	3066.8822	3072.8373	3084.0401	3114.7183	3133.579	3158.2937	3652.1591	3679.294
CNC(=O)C1CCC1O	CNC(=O)[C@H]1CC[C@H]1O	
InChI=1S/C6H11NO2/c1-7-6(9)4-2-3-5(4)8/h4-5,8H,2-3H2,1H3,(H,7,9)	InChI=1S/C6H11NO2/c1-7-6(9)4-2-3-5(4)8/h4-5,8H,2-3H2,1H3,(H,7,9)/t4-,5+/m0/s1
