21
gdb 59524	3.6071	0.99765	0.87601	1.3554	78.63	-0.2442	0.072	0.3162	1374.0883	0.18073	-424.19115	-424.181576	-424.180632	-424.225246	36.679	
C	 0.0419310031	 1.5233126423	-0.0341927548	-0.402844
C	 0.0462822133	-0.001207361	 0.0929402459	 0.125219
O	 0.6889797935	-0.4189845319	 1.2967698558	-0.432041
C	-1.355868177	-0.596722918	-0.0021971983	 0.017716
C	-2.1266592981	-0.549735613	-1.3706253976	-0.337641
C	-2.2733212534	-2.076827637	-1.3003850348	 0.404642
O	-3.4369884206	-2.7555232673	-1.6193100642	-0.464907
C	-0.9294726544	-2.740703659	-1.2491522443	-0.342087
C	-1.5059614125	-2.1251999213	 0.0114599931	-0.120663
H	 1.0580109037	 1.9150684903	 0.0633886096	 0.122558
H	-0.3639273053	 1.8436423043	-0.9991412483	 0.118802
H	-0.5756691932	 1.9755046757	 0.7524874378	 0.103482
H	 0.6723450337	-0.4216440967	-0.703177608	 0.083606
H	 0.1792476427	-0.0663046837	 2.0349853191	 0.27317
H	-1.9755544558	-0.1481724594	 0.7850446045	 0.062939
H	-3.0863923643	-0.0356160937	-1.2896368784	 0.109528
H	-1.5819362816	-0.1533024195	-2.2354833733	 0.08809
H	-3.3833771642	-3.0312959137	-2.5409519766	 0.284019
H	-0.9721695186	-3.8253413189	-1.2584920264	 0.112691
H	-0.0594913144	-2.3200574459	-1.7483181336	 0.103327
H	-1.6852140166	-2.7308166726	 0.8905564526	 0.090396
76.7899	122.2248	138.6982	228.2136	252.9941	266.2541	302.4484	342.1973	362.2589	403.3085	438.735	465.9095	543.6274	633.6101	704.5797	809.1698	855.509	896.8588	919.5508	954.402	966.2193	975.2973	995.3553	1033.3364	1048.4228	1075.5826	1086.8507	1104.3627	1115.1489	1187.4393	1217.6165	1231.2263	1248.5913	1269.1953	1291.7881	1320.9512	1329.0392	1387.4084	1400.8375	1412.4622	1420.7137	1479.1683	1490.1655	1493.9405	1508.1911	3014.7214	3022.6002	3034.2329	3044.2454	3092.8706	3106.0395	3112.5432	3117.8006	3191.9328	3201.6239	3792.5236	3793.5314
CC(O)C1CC2(O)CC12	C[C@@H](O)[C@H]1C[C@@]2(O)C[C@@H]12	
InChI=1S/C7H12O2/c1-4(8)5-2-7(9)3-6(5)7/h4-6,8-9H,2-3H2,1H3	InChI=1S/C7H12O2/c1-4(8)5-2-7(9)3-6(5)7/h4-6,8-9H,2-3H2,1H3/t4-,5-,6+,7-/m1/s1
