20
gdb 32426	2.85111	1.20919	0.91978	0.4905	82.69	-0.2002	0.0313	0.2315	1323.5593	0.170297	-403.188902	-403.178951	-403.178007	-403.224184	35.874	
C	 0.0163406152	 1.5745954163	 0.1142363059	-0.368138
C	-0.0773139673	 0.0503713918	-0.0750647837	-0.301538
C	 0.7066118521	-0.4578904048	-1.2490271269	 0.180888
C	 0.2127134983	-0.8552368722	-2.4509943027	-0.129704
O	 1.2114148863	-1.2444992069	-3.2906014588	-0.17403
C	 2.3854896826	-1.1042428339	-2.5924988283	 0.205893
N	 3.585572668	-1.44987105	-3.2212097138	-0.594936
C	 2.1399528157	-0.6309432138	-1.3391991693	 0.145852
C	 3.1643162503	-0.3812064041	-0.2777846142	-0.515851
H	 1.0516064841	 1.894017347	 0.2689507808	 0.121029
H	-0.3633614753	 2.0986471739	-0.7683004899	 0.118387
H	-0.5677567501	 1.897655145	 0.9820664611	 0.109371
H	 0.2691992439	-0.4456488056	 0.840815224	 0.103192
H	-1.1291715149	-0.2337399633	-0.1954320332	 0.100963
H	-0.789365302	-0.9361681909	-2.8411907392	 0.125942
H	 3.4866947784	-2.298786212	-3.7683549808	 0.244339
H	 3.9246722495	-0.720826213	-3.8421930796	 0.245623
H	 3.3030243753	 0.6882755341	-0.0772277773	 0.122931
H	 2.8808387372	-0.8486851443	 0.6724550041	 0.121611
H	 4.1293701028	-0.7911968633	-0.5863829581	 0.138177
58.1933	71.8791	116.2796	176.1801	189.6652	231.0713	254.8822	286.9949	297.2442	418.46	486.0225	570.7616	636.4299	685.6151	696.4229	738.6599	759.7948	789.9966	802.1181	934.7802	969.52	1057.8794	1065.5178	1083.7402	1095.6172	1151.7464	1166.6164	1218.2179	1255.6989	1296.5544	1301.7176	1359.4856	1406.8723	1408.4505	1435.7138	1479.2949	1489.6757	1493.6824	1498.4953	1506.5157	1602.0406	1649.9159	1702.759	3020.1293	3022.217	3035.6578	3057.7638	3067.965	3105.6092	3111.0251	3117.8864	3262.4346	3489.9101	3563.8171
CCC1=COC(N)=C1C	CCc1coc(N)c1C	
InChI=1S/C7H11NO/c1-3-6-4-9-7(8)5(6)2/h4H,3,8H2,1-2H3	InChI=1S/C7H11NO/c1-3-6-4-9-7(8)5(6)2/h4H,3,8H2,1-2H3
