16
gdb 126380	2.18672	1.62745	1.0019	3.719	72.97	-0.2796	-0.0613	0.2183	1159.5138	0.125365	-434.11214	-434.103941	-434.102997	-434.14554	29.085	
C	-0.1499959382	 1.5361367594	 0.058267793	-0.382869
C	 0.0736865196	 0.0135253569	-0.00852542	-0.305894
C	 0.7964240364	-0.5260983042	 1.1848655972	 0.388987
N	 2.0812879207	-0.781234819	 1.2393202637	-0.312402
C	 2.2664532557	-1.2109377199	 2.5309676714	 0.045806
N	 1.1925922614	-1.2415781036	 3.28077039	-0.212093
N	 0.2280489919	-0.7960014414	 2.4158189886	-0.085422
C	-1.1194972025	-0.6773849794	 2.80061447	 0.185045
O	-1.539282033	-0.9291072005	 3.8907937047	-0.244361
H	 0.804001792	 2.0598399198	 0.161862331	 0.145089
H	-0.6370800316	 1.8860194611	-0.8558420564	 0.130774
H	-0.7823875514	 1.8164257773	 0.906295671	 0.125433
H	-0.8827596958	-0.5030308325	-0.1434860916	 0.122747
H	 0.6932211353	-0.2297728408	-0.8750315555	 0.148045
H	 3.2317036914	-1.5105185338	 2.9121084097	 0.141435
H	-1.7390721319	-0.3199646694	 1.9610355931	 0.10968
73.8337	129.7053	145.1186	195.6672	237.2394	264.1196	352.7338	399.8747	545.9959	636.9224	679.9969	756.3077	796.5428	837.7533	930.3089	968.855	972.4728	1025.5219	1054.0714	1084.5721	1129.1432	1186.8806	1265.7392	1299.6503	1329.6628	1351.9671	1377.7865	1412.2288	1448.4299	1483.5365	1489.8491	1498.8351	1509.6344	1592.4268	1851.6299	3000.6241	3045.7867	3052.8965	3103.0338	3122.1079	3129.266	3260.1009
CCC1=NC=NN1C=O	CCc1ncnn1C=O	
InChI=1S/C5H7N3O/c1-2-5-6-3-7-8(5)4-9/h3-4H,2H2,1H3	InChI=1S/C5H7N3O/c1-2-5-6-3-7-8(5)4-9/h3-4H,2H2,1H3
