18
gdb 46420	3.79683	0.82321	0.71974	3.7593	78.97	-0.2502	0.0287	0.2788	1542.4276	0.146663	-401.939396	-401.930084	-401.92914	-401.974341	33.557	
O	 0.0794945662	 0.0261258685	 0.0302755843	-0.364896
C	 0.0161966471	 1.2276208728	 0.0013745401	 0.433962
N	-1.0333132848	 2.1109238561	-0.0309145463	-0.319902
C	-0.2156868001	 3.3253817911	 0.0377149811	-0.193396
C	 1.038480641	 2.3971377383	 0.02377754	-0.146813
C	 1.975003491	 2.4362475703	 1.2269975227	-0.204642
C	 3.0030464029	 1.2840939194	 1.1868540105	-0.358854
C	 3.8957656566	 1.291273966	 2.3383953344	 0.290636
C	 4.6187227324	 1.3227633438	 3.2982715087	-0.436475
H	-2.0311257015	 1.964591462	 0.0080231001	 0.252185
H	-0.3234740098	 3.9901505403	-0.8247504662	 0.114916
H	-0.3440027442	 3.8987386768	 0.9620404713	 0.115455
H	 1.6013615848	 2.4603687972	-0.9128640341	 0.102657
H	 2.502903836	 3.3959862738	 1.2600439655	 0.112987
H	 1.3934198072	 2.3641056704	 2.1533840138	 0.116184
H	 2.4665739493	 0.3301097828	 1.1278319744	 0.166586
H	 3.5949834363	 1.3577946469	 0.2648039909	 0.1271
H	 5.2634744196	 1.3341585636	 4.1415642289	 0.192312
60.8663	81.9843	104.803	140.7199	197.4331	259.1728	341.3035	353.4119	439.1808	491.5529	531.8646	614.2646	639.1302	711.8426	759.423	776.2337	845.7802	895.0117	948.9914	990.7842	1011.1639	1047.8423	1082.1474	1130.3999	1158.7261	1172.166	1180.7044	1230.1745	1273.4927	1305.7698	1319.3773	1353.8526	1386.3834	1397.6547	1479.1846	1498.0435	1527.4868	1882.7174	2239.409	3021.0348	3035.6945	3040.2885	3058.9601	3067.7868	3084.6234	3090.0047	3507.4906	3611.475
O=C1NCC1CCC#C	O=C1NC[C@H]1CCC#C	
InChI=1S/C7H9NO/c1-2-3-4-6-5-8-7(6)9/h1,6H,3-5H2,(H,8,9)	InChI=1S/C7H9NO/c1-2-3-4-6-5-8-7(6)9/h1,6H,3-5H2,(H,8,9)/t6-/m1/s1
