19
gdb 69742	3.26787	1.52986	1.31998	1.1816	78.96	-0.2375	0.025	0.2626	1013.5605	0.16068	-385.86457	-385.857172	-385.856228	-385.895971	30.45	
O	-0.1507976031	 1.4086079878	 0.0107876987	-0.467186
C	-0.0840077155	 0.0239992668	 0.014875599	 0.393037
C	-0.3887741648	-0.7950720247	-1.2060311434	-0.355068
C	-1.2545791042	-0.9485258799	 0.0265504279	-0.124585
C	-0.5349969539	-1.8032222367	 1.103896085	-0.054038
C	 0.1095413604	-3.1042276075	 0.7161080493	-0.07807
C	 1.4259159677	-2.9761437578	 0.5309118203	-0.061988
C	 1.9380282103	-1.5684530038	 0.7739454564	-0.289811
C	 0.6520704659	-0.778684908	 1.1064938838	-0.089774
H	 0.5380466763	 1.7429356083	-0.5738492342	 0.283163
H	-0.8604984799	-0.2227852078	-1.9989440883	 0.10971
H	 0.254889953	-1.6020235383	-1.5448651643	 0.111668
H	-2.3171908072	-0.7407848512	-0.0014679619	 0.089132
H	-1.1086389362	-1.855746279	 2.0335814705	 0.074634
H	-0.444961766	-4.0281071342	 0.5881767333	 0.089486
H	 2.0892747063	-3.7832171938	 0.2346565848	 0.089193
H	 2.6670095091	-1.5455567734	 1.5940192917	 0.103198
H	 2.4587049255	-1.1697738007	-0.1076334495	 0.098995
H	 0.7219878463	-0.1925842162	 2.0240097511	 0.078305
138.0434	217.4505	235.9946	263.5809	344.038	416.7844	476.0743	528.3856	602.9645	684.4498	723.7336	750.3368	783.6236	832.4176	880.3186	905.7444	915.7598	942.6245	947.8683	973.9203	1006.23	1012.677	1035.6785	1050.6225	1077.0306	1089.9725	1124.9419	1150.8101	1174.6191	1205.4485	1234.0869	1266.0619	1288.3983	1305.3649	1315.5015	1324.519	1376.8031	1405.6332	1480.7526	1493.5607	1669.7844	3011.1853	3036.8258	3062.2417	3101.6312	3115.5	3168.8887	3186.3045	3195.5495	3204.9036	3794.6071
OC12CC1C1C=CCC21	O[C@]12C[C@H]1[C@H]1C=CC[C@@H]21	
InChI=1S/C8H10O/c9-8-4-7(8)5-2-1-3-6(5)8/h1-2,5-7,9H,3-4H2	InChI=1S/C8H10O/c9-8-4-7(8)5-2-1-3-6(5)8/h1-2,5-7,9H,3-4H2/t5-,6+,7-,8-/m0/s1
