14
gdb 133197	3.0747	1.38097	0.95863	3.8501	69.04	-0.239	-0.0588	0.1802	1135.8475	0.101159	-478.013904	-478.006286	-478.005342	-478.046183	28.264	
C	-0.0191349144	 1.5322843694	-0.0005178366	-0.474626
C	-0.0021299307	 0.0299230308	-0.0086437037	 0.349892
N	-0.0374200528	-0.5670049442	-1.1675483639	-0.251393
N	-0.0213712734	-1.9136473355	-1.1565001153	-0.276788
C	 0.0281312969	-2.7926516753	-0.078401248	 0.322421
O	 0.0370037204	-4.000457447	-0.2162048152	-0.37914
C	 0.0655233685	-2.0563030716	 1.1854823869	 0.215296
F	 0.1138866897	-2.7899434798	 2.2817283908	-0.040367
C	 0.0512178227	-0.7068796031	 1.2227423269	-0.2987
H	 0.8771718528	 1.9331991092	 0.4858618234	 0.138251
H	-0.0619964174	 1.907726016	-1.0236719116	 0.149578
H	-0.8852158714	 1.9129059897	 0.5523517223	 0.138209
H	-0.0497370205	-2.3453333768	-2.0711295563	 0.278593
H	 0.0797960395	-0.1872422217	 2.1743591601	 0.128775
113.6062	142.7327	203.8807	288.2397	314.5095	359.5298	425.6994	464.5209	518.2481	587.6809	627.4078	718.9285	727.1722	775.167	814.7787	924.4741	977.4375	1005.8539	1063.6549	1181.8651	1209.7057	1237.9372	1347.4982	1405.5017	1422.0188	1450.6304	1481.2476	1481.4186	1593.0645	1684.8971	1794.3824	3035.5643	3088.3221	3147.998	3193.5309	3594.586
CC1=NNC(=O)C(F)=C1	Cc1n[nH]c(=O)c(F)c1	
InChI=1S/C5H5FN2O/c1-3-2-4(6)5(9)8-7-3/h2H,1H3,(H,8,9)	InChI=1S/C5H5FN2O/c1-3-2-4(6)5(9)8-7-3/h2H,1H3,(H,8,9)
