16
gdb 5322	4.54867	1.44401	1.31946	4.7112	66.26	-0.2275	0.0242	0.2517	962.5211	0.132056	-379.961449	-379.953825	-379.95288	-379.993903	28.296	
C	 0.0402989739	 1.5105487163	-0.1569819773	-0.386788
C	 0.0237841479	-0.0018934478	 0.109114007	 0.02941
O	 0.5768351338	-0.2930763343	 1.38565351	-0.438538
C	-1.3664163354	-0.5685271352	 0.0113362483	 0.298431
C	-2.0013099017	-1.2293984266	-1.0056427812	-0.207627
N	-3.2704167056	-1.4975532749	-0.5335613064	-0.237016
C	-3.3442575604	-1.003235083	 0.7316714543	 0.016315
N	-2.2170590688	-0.4344624795	 1.0901587973	-0.324036
H	 1.0534733906	 1.8984450958	-0.0192445444	 0.116904
H	-0.2905609651	 1.7362991959	-1.1764707633	 0.103396
H	-0.628962323	 2.0215651068	 0.5423137003	 0.122491
H	 0.6666258581	-0.4996401947	-0.6273529306	 0.079949
H	-0.1574565786	-0.2225114962	 2.0099301781	 0.290052
H	-1.683375826	-1.5305132534	-1.9897118255	 0.133308
H	-3.9983695529	-1.9848432381	-1.028447448	 0.26925
H	-4.2347626266	-1.0898388211	 1.3360959915	 0.134496
39.5583	149.2983	206.3823	262.6704	341.7635	388.185	436.7894	505.5186	523.9699	660.1773	693.2381	718.8588	760.6844	820.7545	899.7202	951.5842	972.6335	1025.5003	1090.8115	1094.5593	1110.7001	1136.9068	1226.932	1274.3955	1300.3449	1348.6052	1372.3456	1394.2802	1434.3771	1460.5583	1488.6693	1493.9308	1528.9373	1602.8868	3032.3396	3033.2889	3107.1781	3119.4843	3252.0264	3276.1193	3667.0091	3762.1235
CC(O)C1=CNC=N1	C[C@@H](O)c1c[nH]cn1	
InChI=1S/C5H8N2O/c1-4(8)5-2-6-3-7-5/h2-4,8H,1H3,(H,6,7)	InChI=1S/C5H8N2O/c1-4(8)5-2-6-3-7-5/h2-4,8H,1H3,(H,6,7)/t4-/m1/s1
