16
gdb 10661	3.03698	1.6192	1.29762	4.1042	62.37	-0.2569	-0.0319	0.225	962.1	0.128491	-420.861518	-420.853046	-420.852102	-420.894393	30.667	
O	 0.1033565816	 1.3562835061	-0.3298650863	-0.427593
C	 0.0652505245	 0.0307791961	 0.1586824959	-0.140264
C	-1.3427585053	-0.5458273698	 0.1409324489	 0.195343
C	-1.8984858807	-1.1288048661	-1.1677819459	-0.359705
C	-1.5570731088	-2.0399849367	-0.0389862143	 0.058391
O	-0.4009270625	-2.8183254613	-0.073108151	-0.414009
C	-2.3233441599	 0.1707063876	 0.9862948822	 0.117725
O	-2.0914610364	 1.2109501548	 1.5617713437	-0.283156
H	-0.4222690409	 1.8774635817	 0.2901716558	 0.295541
H	 0.7178028162	-0.5714744517	-0.4760740552	 0.116175
H	 0.4568545372	-0.0309803189	 1.1848603321	 0.101718
H	-2.9428754147	-0.9616559783	-1.4097590276	 0.125468
H	-1.2150973636	-1.077015943	-2.008000704	 0.141552
H	-2.3864829168	-2.4802100557	 0.5167688744	 0.098756
H	-0.5218897434	-3.5052470814	-0.7371224961	 0.296764
H	-3.3288127565	-0.3043347035	 1.0593636274	 0.077294
95.7508	120.9517	174.8382	226.1937	243.516	262.9041	314.3809	397.6755	444.961	509.6819	545.9305	591.7951	756.9586	837.7376	884.1214	934.3253	961.4369	1010.9372	1054.0041	1067.6823	1080.8847	1103.1166	1170.966	1215.4522	1285.4996	1297.1294	1343.7946	1385.4045	1418.5741	1435.8105	1443.651	1476.7638	1502.3213	1793.167	2866.4743	2998.2262	3087.589	3113.2176	3134.2645	3227.6413	3775.7702	3809.4313
OCC1(CC1O)C=O	OC[C@]1(C[C@H]1O)C=O	
InChI=1S/C5H8O3/c6-2-5(3-7)1-4(5)8/h2,4,7-8H,1,3H2	InChI=1S/C5H8O3/c6-2-5(3-7)1-4(5)8/h2,4,7-8H,1,3H2/t4-,5+/m1/s1
