17
gdb 64502	3.68762	1.33118	1.18063	0.8638	68.42	-0.2439	0.0691	0.313	1059.8627	0.135274	-458.861099	-458.853683	-458.852739	-458.892953	29.491	
O	 0.5838554908	 1.1811182485	 0.5133606868	-0.494238
C	 0.2169483023	-0.1438343194	 0.2891494025	 0.434624
C	 1.2766726833	-0.877179889	-0.5040115319	-0.012858
C	 1.9971136427	-0.2052596013	-1.5919889264	-0.1878
O	 2.6049452033	-0.3578896698	-0.2995273845	-0.257261
C	-0.4849197073	-0.9603481932	 1.4403187953	-0.022804
C	-1.6981162572	-0.0073124717	 1.3491726736	-0.238587
C	-1.2691885752	-0.402397258	-0.0842188128	 0.001666
O	-1.0930064884	-1.7985680975	 0.3827084211	-0.31835
H	 1.5509376413	 1.1737831316	 0.5841923439	 0.294732
H	 1.2026477069	-1.9590523742	-0.5095012882	 0.122453
H	 2.4473882466	-0.8002044435	-2.3836492159	 0.126099
H	 1.732621462	 0.8160589577	-1.8559729431	 0.127193
H	-0.0568069416	-1.4722152856	 2.3027110936	 0.096673
H	-2.6424317841	-0.445611473	 1.6726128418	 0.108221
H	-1.5604107855	 1.0283411774	 1.6578505702	 0.124642
H	-1.7794808399	-0.249963279	-1.0358973259	 0.095593
93.6278	180.7612	225.1306	318.2109	338.6709	401.9621	487.0947	535.9753	575.4552	614.6115	721.2685	770.456	825.3733	845.3364	879.6057	898.2004	916.7348	931.2338	999.7692	1019.0806	1049.6233	1079.5728	1105.9682	1131.422	1145.298	1165.2173	1171.6769	1181.7632	1209.1505	1231.3436	1261.8458	1275.4331	1283.0647	1378.2174	1453.0138	1480.2984	1516.8106	3089.4488	3100.1041	3113.7588	3121.1156	3172.2361	3181.3932	3195.3281	3706.6407
OC1(C2CO2)C2CC1O2	O[C@@]1([C@H]2CO2)[C@H]2C[C@@H]1O2	
InChI=1S/C6H8O3/c7-6(5-2-8-5)3-1-4(6)9-3/h3-5,7H,1-2H2	InChI=1S/C6H8O3/c7-6(5-2-8-5)3-1-4(6)9-3/h3-5,7H,1-2H2/t3-,4+,5-,6+/m1/s1
