17
gdb 77135	2.70584	1.23891	0.94659	5.727	69.74	-0.2468	0.0125	0.2593	1232.2054	0.134821	-455.203795	-455.194094	-455.19315	-455.239904	33.879	
C	-0.0821240765	 1.5978121487	 0.0446555641	-0.41563
C	 0.0013658327	 0.0790151049	 0.029393361	-0.151922
C	 0.6978955941	-0.6281403966	-1.1909004479	-0.087435
N	 1.7229040372	-1.0956522513	-0.2654667816	-0.315146
C	 1.1253752376	-0.5822844616	 0.8690596449	 0.427875
O	 1.3989133289	-0.6419073391	 2.0350978797	-0.350628
C	-0.107046062	-1.7489470581	-1.8444493481	 0.388066
N	-0.9410082627	-1.3350162369	-2.8398291361	-0.525335
O	-0.0104474148	-2.9077904921	-1.4939877655	-0.357374
H	 0.8779493854	 2.0504313296	-0.2233789825	 0.128842
H	-0.8416171535	 1.9665227719	-0.6528111034	 0.114393
H	-0.3492723269	 1.9462590312	 1.0466323248	 0.146012
H	-0.966022141	-0.374716251	 0.2652275774	 0.117236
H	 1.0771288592	 0.0702254864	-1.947359826	 0.090865
H	 2.2961085146	-1.9230595669	-0.3558714516	 0.259783
H	-1.0229338241	-0.3706494263	-3.1101504801	 0.262836
H	-1.5377953682	-2.0148169429	-3.2816906392	 0.267564
19.3935	71.8275	123.9023	147.1424	213.2615	218.8431	238.0186	332.9092	387.3731	424.6468	514.0161	559.312	632.5622	691.5186	719.3776	748.1094	821.2569	876.6551	927.8042	1061.8029	1069.3816	1082.8927	1100.0358	1115.1681	1178.0584	1209.0472	1256.162	1302.343	1339.7313	1365.0565	1406.9197	1413.5166	1494.9679	1496.1108	1618.7133	1803.8767	1901.2054	3025.4231	3035.081	3072.031	3103.0053	3115.1761	3603.4556	3604.0023	3738.2867
CC1C(NC1=O)C(N)=O	C[C@H]1[C@@H](NC1=O)C(=O)N	
InChI=1S/C5H8N2O2/c1-2-3(4(6)8)7-5(2)9/h2-3H,1H3,(H2,6,8)(H,7,9)	InChI=1S/C5H8N2O2/c1-2-3(4(6)8)7-5(2)9/h2-3H,1H3,(H2,6,8)(H,7,9)/t2-,3+/m0/s1
