17
gdb 19142	3.88169	1.58703	1.32027	2.0791	68.81	-0.2554	-0.0349	0.2204	955.8545	0.1421	-363.833616	-363.825871	-363.824927	-363.865922	28.662	
O	-0.3253068793	 0.3662140577	 0.9475339066	-0.274512
C	-0.176609818	 1.3515094261	 0.2626119668	 0.100816
C	 1.1619504179	 1.9019273626	-0.1156361783	 0.228358
C	 2.1066556756	 2.0628650782	 1.0458471493	-0.252854
N	 2.2975421811	 0.9887963078	 0.0810301722	-0.341118
C	 1.1926107385	 2.8232224994	-1.2977280653	-0.09339
C	 2.473588671	 3.0674904833	-2.0490108394	-0.270837
C	 1.3750805907	 2.2587297067	-2.6885278367	-0.262774
H	-1.0486345441	 1.9138704592	-0.1343191998	 0.084063
H	 2.8345224795	 2.8677832919	 0.9969155047	 0.128657
H	 1.7361201721	 1.8125562472	 2.0358238057	 0.132471
H	 1.9235960783	 0.1238628228	 0.4733836802	 0.248957
H	 0.5156210735	 3.6692084276	-1.2061365974	 0.087821
H	 2.661401801	 4.0694869553	-2.4179716052	 0.110385
H	 3.3504644316	 2.5257994782	-1.7140345875	 0.137421
H	 1.5358484564	 1.1894212918	-2.7705834676	 0.123783
H	 0.8064684443	 2.6975395642	-3.5005647983	 0.112754
72.1134	129.78	191.1584	222.3616	271.3456	332.8779	424.8961	470.2281	603.3104	752.7073	793.2203	825.7705	852.0893	868.1751	928.794	938.5823	978.1786	1013.0349	1019.784	1064.9626	1095.0155	1101.9458	1131.9046	1134.0315	1148.785	1203.4565	1223.6982	1263.8189	1303.2027	1352.2934	1408.1247	1443.6488	1458.8243	1493.1937	1501.1169	1801.6977	2907.7559	3111.3899	3133.6875	3136.8773	3141.8992	3207.3411	3220.3738	3235.0281	3462.123
O=CC1(CN1)C1CC1	O=C[C@]1(CN1)C1CC1	
InChI=1S/C6H9NO/c8-4-6(3-7-6)5-1-2-5/h4-5,7H,1-3H2	InChI=1S/C6H9NO/c8-4-6(3-7-6)5-1-2-5/h4-5,7H,1-3H2/t6-/m1/s1
