19
gdb 124466	3.19639	1.20598	1.07657	2.01	77.12	-0.2362	0.02	0.2562	1189.6322	0.159409	-419.234105	-419.225057	-419.224112	-419.267905	34.374	
C	-0.0612857261	 1.5515884778	-0.0158847433	-0.426597
C	 0.0044859852	 0.01414454	 0.0076187631	 0.238248
C	 0.7355421094	-0.4793746475	 1.2643324963	-0.382917
O	-1.3136862559	-0.5252545863	 0.1095017999	-0.446568
C	 0.6612173744	-0.532383908	-1.2412547103	 0.353137
C	 0.3802123239	-1.6717659703	-1.972826175	-0.315837
C	 1.328285625	-1.6759427892	-3.01777378	-0.00898
N	 2.1428622089	-0.6273835722	-2.9555978589	-0.22897
N	 1.7164369987	 0.0508453398	-1.8698210304	-0.277992
H	 0.9345249041	 2.00783266	 0.0125081968	 0.107602
H	-0.5719294596	 1.908789622	-0.916142896	 0.11848
H	-0.6146538209	 1.9006018239	 0.8596216641	 0.13171
H	 0.2291437639	-0.1057445785	 2.1590610638	 0.122878
H	 0.7337319639	-1.5711788633	 1.2902290323	 0.133993
H	 1.7722559302	-0.1318743633	 1.2732993561	 0.112194
H	-1.7783541076	-0.3158571883	-0.7086704404	 0.278711
H	-0.3942028491	-2.3905945366	-1.762884527	 0.111301
H	 1.4487776267	-2.3983345627	-3.8119729773	 0.110867
H	 2.1847106647	 0.9055892226	-1.6220171638	 0.268741
43.3991	143.2634	190.717	229.6012	271.66	317.1136	326.7271	349.7334	370.5739	454.6051	486.9339	525.6302	608.0395	685.3916	725.4929	822.873	858.3672	896.8782	925.1517	938.6831	967.8187	1008.0731	1017.0409	1055.6241	1119.0651	1131.1072	1172.3948	1206.0323	1262.4256	1297.7763	1352.1497	1369.9581	1394.0348	1415.0177	1438.7126	1475.2302	1480.6519	1487.0886	1500.0929	1506.5912	1593.7137	3031.1633	3046.9007	3097.8489	3119.7215	3124.8277	3135.0045	3243.7244	3277.102	3676.0657	3798.5323
CC(C)(O)C1=CC=NN1	CC(C)(O)c1ccn[nH]1	
InChI=1S/C6H10N2O/c1-6(2,9)5-3-4-7-8-5/h3-4,9H,1-2H3,(H,7,8)	InChI=1S/C6H10N2O/c1-6(2,9)5-3-4-7-8-5/h3-4,9H,1-2H3,(H,7,8)
