20
gdb 63818	3.18989	1.53309	1.3644	2.8438	78.18	-0.2268	0.0688	0.2957	1032.2774	0.170464	-403.074301	-403.066268	-403.065324	-403.10617	32.595	
C	-0.185107125	 1.6065326074	-0.042282303	-0.443545
C	 0.005744127	 0.1022175237	 0.0548473814	 0.410228
C	-1.2859870924	-0.6474287061	-0.2658493378	-0.422213
O	 1.0722689207	-0.3921532373	-0.8365664144	-0.337217
C	 1.6973046149	-1.1169478297	 0.2293782337	 0.125677
C	 2.8930696251	-0.4433528718	 0.9589219589	-0.083238
N	 2.6454784401	 1.0105926054	 0.9802181951	-0.31686
C	 1.9486460115	 0.1477611341	 1.9604845349	-0.081317
C	 0.7347690647	-0.5327137516	 1.2803246238	-0.128376
H	 0.760973502	 2.1251042958	 0.0988649075	 0.153354
H	-0.5936181887	 1.8659707718	-1.0252742586	 0.113026
H	-0.901566098	 1.9430101565	 0.7157004805	 0.103796
H	-1.6007890757	-0.425925013	-1.290391594	 0.122154
H	-1.1475142839	-1.7294834857	-0.1795715023	 0.111333
H	-2.0896724977	-0.346361097	 0.4154941823	 0.109179
H	 1.8114555393	-2.1867210381	 0.0336424847	 0.074227
H	 3.8966013063	-0.8343489916	 1.0775675628	 0.090653
H	 3.4330263218	 1.4340183304	 1.4704539371	 0.231629
H	 2.0750682659	 0.3114784602	 3.0238063263	 0.093432
H	 0.1434020721	-1.1656653036	 1.941187491	 0.07408
162.8465	180.7288	214.5793	245.6622	314.1148	332.0402	356.0642	392.6648	532.752	596.6229	643.505	735.7064	758.7066	795.4417	833.8413	878.065	886.9877	923.9416	933.2712	948.1262	956.8487	978.4453	1013.3938	1019.2204	1037.4709	1105.7087	1114.6006	1167.8569	1179.9067	1185.3872	1215.28	1235.3935	1273.9805	1297.4882	1320.4924	1347.7889	1377.7211	1394.1308	1409.444	1472.1206	1484.8435	1491.5146	1514.269	3028.8729	3036.1268	3067.9171	3091.9083	3102.5269	3109.4685	3117.5856	3172.27	3177.2623	3190.531	3471.5231
CC1(C)OC2C3NC3C12	CC1(C)O[C@H]2[C@H]3N[C@H]3[C@@H]12	
InChI=1S/C7H11NO/c1-7(2)3-4-5(8-4)6(3)9-7/h3-6,8H,1-2H3	InChI=1S/C7H11NO/c1-7(2)3-4-5(8-4)6(3)9-7/h3-6,8H,1-2H3/t3-,4+,5+,6-/m1/s1
