20
gdb 38469	3.53636	1.62535	1.49804	1.3826	82.59	-0.2238	0.0874	0.3111	959.0073	0.174906	-365.908934	-365.902555	-365.901611	-365.939154	28.168	
C	-0.0229425965	 1.4054002572	-0.1949232463	-0.251094
C	 1.2884224833	 0.7073898837	-0.0847453112	-0.092591
C	 2.0325804035	 0.4100911726	 1.1982763853	 0.044223
C	 2.491060609	 1.1544277231	 2.5094847039	-0.095237
C	 1.0542204798	 1.6856363626	 2.6825703353	-0.254281
C	 0.9030660671	 0.186182645	 2.2179791128	 0.299344
C	 2.0145147486	-0.1380769377	 3.2686210408	-0.296803
C	-0.2399222179	-0.4501960698	 1.4390540125	-0.303302
N	-0.0299208494	-0.0465868114	 0.0096075455	-0.107134
H	-0.3985700854	 2.0460887901	 0.5923089466	 0.114578
H	-0.3398932329	 1.7134503389	-1.1894211083	 0.1114
H	 1.8253955751	 0.5304498749	-1.0127680676	 0.091772
H	 2.6464471028	-0.4786637017	 1.005720303	 0.070912
H	 3.4216860991	 1.6967716332	 2.6793328498	 0.073641
H	 0.7371210237	 1.8964708399	 3.7080542705	 0.087161
H	 0.7521122671	 2.4856845511	 2.0123952995	 0.099303
H	 2.5913282181	-1.0519256926	 3.102965488	 0.095611
H	 1.7599061426	-0.0046062695	 4.3230775701	 0.092814
H	-0.1885957743	-1.5432488261	 1.4800461196	 0.112198
H	-1.2384310837	-0.1425391635	 1.7647588002	 0.107485
236.4811	276.4359	361.7069	403.2718	427.4286	517.5651	574.5437	678.0761	711.2319	733.5832	761.4463	795.8801	818.5835	882.6754	884.455	928.6749	949.5895	967.7549	989.2631	1009.5405	1052.3926	1055.8615	1060.7592	1090.6117	1123.3502	1133.9123	1140.5657	1151.3854	1159.945	1183.8124	1202.5266	1212.7679	1231.8534	1242.2112	1264.8099	1284.1398	1316.3353	1369.1599	1422.3959	1486.5542	1494.9986	1513.5305	1540.0924	3022.0904	3044.2567	3051.7006	3063.2876	3089.9724	3105.8934	3110.1832	3120.2076	3141.8336	3165.1477	3218.1849
C1C2C3C4CC3(C4)CN12	C1[C@H]2[C@H]3[C@H]4C[C@@]3(C4)CN12	
InChI=1S/C8H11N/c1-5-2-8(1)4-9-3-6(9)7(5)8/h5-7H,1-4H2	InChI=1S/C8H11N/c1-5-2-8(1)4-9-3-6(9)7(5)8/h5-7H,1-4H2/t5-,6-,7+,8+,9?/m0/s1
