16
gdb 130144	5.87468	0.9023	0.78741	2.0288	77.5	-0.1996	0.0335	0.233	1386.6409	0.125127	-396.917268	-396.908584	-396.90764	-396.951584	32.247	
N	-0.5621456789	 1.2114959387	 0.7155839957	-0.589433
C	-0.0593795588	 0.0206504256	 0.1890460853	 0.378114
N	-0.7507344295	-0.6679522372	-0.7160216117	-0.314925
N	-0.0028622492	-1.7817266304	-0.9206741395	-0.251828
C	 1.1335650968	-1.8038295273	-0.1941019421	 0.419076
C	 2.1151888093	-2.9457963974	-0.2552415985	-0.478721
C	 1.7897487194	-3.9359509017	-1.2774514346	 0.285633
C	 1.4963280062	-4.7409144439	-2.1202783226	-0.428228
C	 1.1394327098	-0.641662512	 0.5537417552	-0.394402
H	 0.1489887881	 1.9163774439	 0.8560801791	 0.243068
H	-1.312366339	 1.5777169372	 0.1430320262	 0.24846
H	-0.3029908714	-2.4771045183	-1.5828920108	 0.272381
H	 3.1223711029	-2.5502437743	-0.4386349485	 0.155407
H	 2.1646014742	-3.4421171894	 0.7233248336	 0.157638
H	 1.2596169573	-5.4633842481	-2.8620422939	 0.205308
H	 1.885242603	-0.3256550956	 1.265410647	 0.092454
19.2146	116.6368	176.9839	253.3866	278.3635	320.3508	352.8115	406.5377	477.6108	488.0927	621.3999	655.7729	661.6901	672.6215	689.8144	753.362	770.3722	797.0797	949.5025	958.0964	1002.1948	1046.7066	1096.5063	1174.5769	1207.163	1217.1523	1293.3922	1328.8581	1443.5623	1465.3496	1521.502	1538.9893	1607.9403	1648.4396	2240.4091	3016.8547	3042.6052	3258.166	3503.3617	3541.5336	3636.9626	3672.374
NC1=NNC(CC#C)=C1	Nc1n[nH]c(CC#C)c1	
InChI=1S/C6H7N3/c1-2-3-5-4-6(7)9-8-5/h1,4H,3H2,(H3,7,8,9)	InChI=1S/C6H7N3/c1-2-3-5-4-6(7)9-8-5/h1,4H,3H2,(H3,7,8,9)
