13
gdb 131027	2.82646	1.67801	1.05292	4.5194	69.75	-0.262	-0.096	0.166	1032.0246	0.090388	-452.792816	-452.785729	-452.784785	-452.824748	25.946	
O	-0.0210588326	-0.0710518597	-0.0026157915	-0.24894
C	-0.0054065255	 1.1237743596	 0.0068109215	 0.17951
N	 1.1997511787	 1.8966740267	-0.0003581484	-0.152472
N	 2.3502268794	 1.1842933145	-0.0187386403	-0.154305
C	 3.4612679027	 1.8488406227	-0.0257174399	 0.011552
C	 3.5324978253	 3.2810383191	-0.0150656851	-0.101099
C	 2.386307993	 3.994243084	 0.0032890959	-0.177679
C	 1.094443453	 3.3226233916	 0.0121417743	 0.446336
O	 0.0138793291	 3.8791466023	 0.0287050082	-0.375001
H	-0.8805388819	 1.7838548191	 0.0218335243	 0.154184
H	 4.3629132439	 1.2456521598	-0.0404711211	 0.142446
H	 4.5030216886	 3.7662586647	-0.0219034431	 0.132382
H	 2.3570660663	 5.0770529755	 0.0122807252	 0.143087
90.7927	149.4205	248.433	250.4004	387.6207	387.6735	534.6532	556.0315	576.4175	623.0391	752.9144	827.7273	851.9734	880.4573	941.6026	1025.4955	1031.4965	1049.9344	1110.926	1150.429	1197.5578	1266.9351	1375.6451	1414.8186	1427.4807	1582.9497	1666.7338	1780.1487	1848.2298	3088.1598	3183.2922	3196.5769	3219.6967
O=CN1N=CC=CC1=O	O=Cn1ncccc1=O	
InChI=1S/C5H4N2O2/c8-4-7-5(9)2-1-3-6-7/h1-4H	InChI=1S/C5H4N2O2/c8-4-7-5(9)2-1-3-6-7/h1-4H
