22
gdb 64325	2.33098	1.48642	1.16687	3.308	83.52	-0.2498	0.0271	0.2769	1180.9414	0.194512	-404.388305	-404.379132	-404.378187	-404.421846	35.843	
C	 0.0759992328	 1.4815746767	 0.0955396442	-0.413433
C	-0.0790062514	-0.0310741302	-0.0519668331	 0.352039
C	-1.5635887003	-0.4198521318	-0.079554612	-0.410042
C	 0.6808696202	-0.5424515767	-1.286536527	-0.214421
C	 0.8421851173	-2.0640699108	-1.2738182686	-0.238125
C	 1.529585884	-2.4851125728	 0.0292284432	-0.25503
C	 0.8850800898	-1.8819947375	 1.2544579689	 0.371126
N	 0.8102103356	-2.5266637003	 2.343002851	-0.503802
O	 0.4958122418	-0.5741258466	 1.1729532932	-0.290532
H	 1.1325812241	 1.7516809736	 0.1751128188	 0.121794
H	-0.3510955177	 1.9959042758	-0.7707062928	 0.115182
H	-0.4370045973	 1.8327232589	 0.9950886019	 0.124028
H	-2.0646175666	 0.0283124055	-0.9433722621	 0.115826
H	-1.6974065228	-1.5036553768	-0.1316808503	 0.124334
H	-2.0571305013	-0.0652731495	 0.8292219039	 0.1262
H	 0.1554899379	-0.2074991617	-2.1872501041	 0.100261
H	 1.6736138489	-0.0755383401	-1.3033914053	 0.099994
H	-0.1334401045	-2.5554827393	-1.3619754528	 0.109826
H	 1.4337920728	-2.391672275	-2.1343284644	 0.102187
H	 1.5577683832	-3.5676128179	 0.1607633834	 0.128304
H	 2.5705356012	-2.1333845359	 0.0084443458	 0.121899
H	 0.3799013327	-1.9371433675	 3.0597136982	 0.212384
78.3468	105.0862	202.7301	239.3854	272.2889	288.8009	326.9064	381.1279	431.907	443.6347	462.0216	511.9569	539.81	638.6438	722.0099	814.4231	858.8746	893.3704	903.9301	931.8234	933.246	961.3034	996.2577	1010.2293	1059.7273	1068.364	1114.8981	1146.616	1168.4995	1231.5655	1251.168	1254.545	1301.1669	1339.3785	1361.9121	1380.3387	1386.0191	1400.392	1419.4525	1467.1229	1473.0447	1479.6345	1490.3183	1495.4574	1499.9645	1512.8746	1741.2136	3018.971	3027.6157	3039.4453	3042.5404	3046.4732	3075.6999	3084.1717	3114.044	3119.1264	3120.6941	3123.7162	3123.9474	3452.7334
CC1(C)CCCC(=N)O1	CC1(C)CCC[C]([NH])O1	
InChI=1S/C7H13NO/c1-7(2)5-3-4-6(8)9-7/h8H,3-5H2,1-2H3	InChI=1S/C7H13NO/c1-7(2)5-3-4-6(8)9-7/h8H,3-5H2,1-2H3
