19
gdb 95379	2.62802	1.75791	1.3062	0.1578	69.15	-0.2465	0.0682	0.3147	1007.6252	0.161254	-460.166382	-460.158653	-460.157709	-460.198869	29.583	
C	 0.4036523975	 1.4438273973	-0.1592630123	-0.392927
C	-0.0760913414	 0.0240060257	 0.1308881105	 0.09539
O	 0.133459184	-0.850613772	-0.9874092245	-0.263399
C	 1.3637428347	-1.5305614313	-0.8124968796	-0.121126
C	 1.4711797843	-1.8063598902	 0.6998874911	 0.06428
O	 2.766980075	-1.6488387997	 1.2534404773	-0.249311
C	 2.8705121621	-0.2922770826	 1.6151911482	 0.006614
O	 1.5865974338	 0.125243046	 2.0307799102	-0.250906
C	 0.6302802725	-0.6645707397	 1.3324892255	 0.047181
H	 1.4739003713	 1.4734876311	-0.3813504544	 0.117167
H	-0.1360246893	 1.8391452223	-1.0238638035	 0.121781
H	 0.2236349371	 2.095036207	 0.7001791569	 0.127563
H	-1.1591973158	 0.0384448088	 0.2919823195	 0.083008
H	 1.3329893044	-2.4380385891	-1.4201832512	 0.113732
H	 2.2257233587	-0.9279047322	-1.1395437614	 0.096892
H	 1.1186048338	-2.8055085292	 0.9603547941	 0.099466
H	 3.5715653555	-0.1971600886	 2.4496582271	 0.123052
H	 3.2177570248	 0.3172788346	 0.7625198673	 0.087048
H	-0.0967621128	-1.0171389279	 2.0674182491	 0.094496
71.9967	144.6473	217.661	234.2471	263.0615	398.5466	422.3324	484.9797	586.5662	667.2865	748.1671	787.3258	798.1844	860.8504	904.9775	960.7764	990.3152	1000.9029	1034.3324	1062.6906	1066.4321	1115.0408	1120.2451	1138.7327	1153.4059	1186.8989	1226.0502	1233.63	1269.158	1296.8381	1327.7323	1357.4072	1362.9269	1379.9554	1392.206	1407.2499	1432.5252	1482.2368	1493.4255	1515.5632	1547.1567	2942.3227	2983.5671	3046.3413	3048.9356	3080.5771	3083.8367	3092.4359	3109.1026	3122.7921	3127.5641
CC1OCC2OCOC12	C[C@H]1OC[C@H]2OCO[C@@H]12	
InChI=1S/C6H10O3/c1-4-6-5(2-7-4)8-3-9-6/h4-6H,2-3H2,1H3	InChI=1S/C6H10O3/c1-4-6-5(2-7-4)8-3-9-6/h4-6H,2-3H2,1H3/t4-,5-,6+/m1/s1
