17
gdb 28419	3.06069	1.35406	0.94526	3.1478	80.91	-0.1924	-0.01	0.1824	1199.7714	0.137264	-418.078441	-418.070064	-418.06912	-418.11088	32.489	
C	 0.0193382303	 1.518575113	-0.0322058878	-0.515734
C	 0.0305083334	 0.0140783112	-0.0208404165	 0.265811
C	 0.0249165609	-0.733059515	-1.1914821306	-0.305439
C	 0.0611071028	-2.1266146268	-1.1399203528	 0.330302
O	 0.0612756109	-2.9279972138	-2.2481635723	-0.447474
C	 0.0992692871	-2.7272225094	 0.1135211435	-0.068618
N	 0.0920315369	-2.0326609492	 1.2517493389	-0.330135
C	 0.0622443424	-0.7009203769	 1.1953773803	 0.271498
N	 0.129291435	-0.0268435272	 2.4162729894	-0.56911
H	 0.8545446484	 1.9236724813	 0.5510791758	 0.142243
H	 0.0922969392	 1.90884875	-1.0505449667	 0.123166
H	-0.9023706723	 1.9249735687	 0.4070317472	 0.124432
H	 0.0004072951	-0.2237425635	-2.1531170768	 0.082827
H	 0.0388896671	-2.3751878714	-3.0354921325	 0.294746
H	 0.1304400988	-3.8108479192	 0.1891014175	 0.109853
H	-0.0582653809	-0.6480151411	 3.1916383104	 0.248818
H	-0.4063926251	 0.8273593395	 2.4721931231	 0.242814
136.0891	171.7366	208.5045	280.9067	285.6937	333.5643	354.4319	391.4783	463.1851	483.7433	496.2218	570.8407	588.5794	666.903	731.7997	786.7868	813.3429	892.739	935.2789	992.0404	1018.718	1060.5886	1082.054	1176.6978	1199.3395	1283.4064	1320.8104	1333.4612	1356.6566	1411.6593	1473.0377	1480.4121	1497.0719	1518.5841	1625.9808	1634.2065	1662.604	3008.7764	3063.1405	3112.1368	3142.6163	3165.7225	3553.2425	3659.0921	3828.1665
CC1=CC(O)=CN=C1N	Cc1cc(O)cnc1N	
InChI=1S/C6H8N2O/c1-4-2-5(9)3-8-6(4)7/h2-3,9H,1H3,(H2,7,8)	InChI=1S/C6H8N2O/c1-4-2-5(9)3-8-6(4)7/h2-3,9H,1H3,(H2,7,8)
