15
gdb 51720	3.41981	1.03174	0.89531	4.595	62.78	-0.2853	-0.012	0.2733	1263.8364	0.112235	-494.973671	-494.965638	-494.964694	-495.007565	28.227	
O	 0.2415025723	 0.1222815713	-0.6333418454	-0.257573
C	 0.1531654828	 1.2404080464	-0.2342462474	 0.178252
O	 1.1873293023	 2.1184910467	-0.3065254975	-0.196548
C	 0.9381133886	 3.446804283	 0.1320391764	 0.198147
C	 2.2836904839	 4.1579103203	 0.3032773376	-0.259188
C	 2.5112253266	 4.7545417068	-1.0885271242	-0.362204
C	 1.1038175668	 4.8958542371	-1.6544341741	 0.436676
O	 0.72272216	 5.5164728636	-2.5959790578	-0.3116
O	 0.2369007688	 4.1568989404	-0.8717261421	-0.218202
H	-0.7467537954	 1.6744076943	 0.2391910637	 0.096228
H	 0.3059226319	 3.4332706689	 1.0241199705	 0.111583
H	 2.1820113217	 4.9448087657	 1.0550533355	 0.130596
H	 3.0544621695	 3.4597815098	 0.6286283975	 0.14115
H	 3.0177758037	 5.7197651305	-1.0986639298	 0.149265
H	 3.0689979466	 4.0759410751	-1.7416466828	 0.163417
52.6371	105.9675	120.259	152.5225	244.7747	380.559	449.7333	505.8183	555.117	635.7719	675.7037	787.325	806.4381	861.1686	947.8292	993.0765	1017.2976	1041.3964	1054.1416	1094.1912	1135.877	1153.1144	1198.1956	1228.6211	1298.5473	1338.7934	1366.4822	1392.6444	1441.6949	1461.3782	1487.4353	1879.8564	1911.2676	2973.042	3072.0233	3074.8766	3085.1897	3137.5654	3147.261
O=COC1CCC(=O)O1	O=CO[C@H]1CCC(=O)O1	
InChI=1S/C5H6O4/c6-3-8-5-2-1-4(7)9-5/h3,5H,1-2H2	InChI=1S/C5H6O4/c6-3-8-5-2-1-4(7)9-5/h3,5H,1-2H2/t5-/m1/s1
