13
gdb 28863	3.31836	1.43095	1.09867	4.4241	69.3	-0.2555	-0.0824	0.1731	1029.6918	0.090981	-452.79159	-452.784606	-452.783661	-452.82327	26.211	
O	-0.1151582841	 1.2319051359	-0.4912687296	-0.380156
C	 0.0264984863	-0.0521322159	-0.1354719467	 0.413405
N	 1.2185190328	-0.552420762	-0.1446679556	-0.352836
C	 1.4960682796	-1.8419959862	 0.2396459539	 0.076689
N	 0.8014965167	-2.9193894173	 0.1757779183	-0.24643
C	-0.5133527527	-2.982745998	-0.271755161	 0.342556
O	-0.9120998623	-3.8504372887	-1.0151330786	-0.31716
C	-1.4621072698	-1.9784570357	 0.2873273493	-0.153249
C	-1.2298603804	-0.6557359684	 0.283686044	-0.109911
H	 0.7725597844	 1.5554161518	-0.7104615032	 0.310054
H	 2.5135814055	-1.9475480896	 0.6189333008	 0.133546
H	-2.4362356592	-2.3596304483	 0.5796324933	 0.146404
H	-2.0157059568	 0.0445747923	 0.5479711352	 0.137087
86.3074	189.4358	267.3991	338.0654	353.9418	419.389	479.9838	557.2447	607.4856	659.7187	733.3271	772.7819	783.2106	848.1974	866.3676	921.6403	1008.4959	1012.4469	1091.8334	1171.7933	1229.0311	1312.1618	1362.9825	1445.7942	1458.4053	1587.1029	1674.0055	1679.0525	1786.2019	3124.0366	3176.5936	3194.4533	3737.1633
OC1=NC=NC(=O)C=C1	Oc1ncnc(=O)cc1	
InChI=1S/C5H4N2O2/c8-4-1-2-5(9)7-3-6-4/h1-3H,(H,6,7,8,9)	InChI=1S/C5H4N2O2/c8-4-1-2-5(9)7-3-6-4/h1-3H,(H,6,7,8,9)
