13
gdb 133329	2.42579	1.8927	1.06353	2.6396	68.75	-0.2118	-0.0543	0.1575	1006.3501	0.090101	-490.19566	-490.188169	-490.187224	-490.227464	28.596	
N	 0.0571180388	 1.3698339045	-0.0791676377	-0.595778
C	 0.0136604157	 0.0214092842	 0.0023392212	 0.177092
C	-1.1117599228	-0.7464970266	 0.0874483892	 0.291133
F	-2.3079030054	-0.1523999099	 0.0542197601	-0.0772
N	-1.1475633802	-2.0911465699	 0.2088138121	-0.248077
N	-0.064719084	-2.7600637116	 0.2462894181	-0.07556
N	 1.100146455	-2.0602266595	 0.1543392049	-0.323783
C	 1.2842248159	-0.6909571574	 0.0214778462	 0.391445
N	 2.3894019009	-0.045205875	-0.082784571	-0.578708
H	 0.9608161944	 1.7628260136	-0.2973265624	 0.285662
H	-0.777734445	 1.8819668356	-0.3029289566	 0.271925
H	 1.9096492565	-2.6632591303	 0.1837688944	 0.271549
H	 3.2078681601	-0.6511348777	-0.0641078485	 0.2103
127.669	192.0073	270.7098	284.5442	319.2778	354.6706	507.9962	524.1637	538.688	549.3592	568.8475	618.1002	680.5346	711.6593	753.4882	773.5151	922.0822	969.4199	1057.1553	1125.8465	1245.4127	1304.9317	1344.8041	1382.4268	1471.8703	1529.3634	1602.8898	1683.5599	1705.3786	3498.2327	3582.9948	3618.0405	3730.1492
NC1=C(F)N=NNC1=N	Nc1c(F)nn[nH]c1[NH]	
InChI=1S/C3H4FN5/c4-2-1(5)3(6)8-9-7-2/h(H2,5,9)(H2,6,7,8)	InChI=1S/C3H9FN5/c4-2-1(5)3(6)8-9-7-2/h1-3,6-9H,5H2
