19
gdb 46206	2.95883	1.53424	1.21471	2.7542	80.72	-0.2261	-0.0174	0.2087	1075.0925	0.159573	-385.870733	-385.862841	-385.861896	-385.903385	30.614	
O	 0.0647951631	 0.0815908383	-0.5232363053	-0.326047
C	 0.0378197964	 1.2270248971	-0.1617351178	 0.342628
C	-1.0626996701	 2.1385917791	 0.4211348222	-0.335629
C	-0.0110476263	 3.2928297388	 0.4900610547	-0.341315
C	 1.0500030142	 2.339255324	-0.0947560857	 0.258975
C	 2.5076827287	 2.298974537	 0.3146789816	-0.124894
C	 3.1869700178	 1.0365731177	-0.2341516893	-0.2313
C	 2.7913594954	 1.4841185035	-1.6820920595	-0.231293
C	 2.1245654938	 2.7322435282	-1.0871869242	-0.124936
H	-1.9043408981	 2.3023158654	-0.2575093714	 0.130497
H	-1.4554741363	 1.795550393	 1.3822708793	 0.130503
H	-0.2488690087	 4.1535597724	-0.1394515056	 0.10963
H	 0.2000923144	 3.6465669965	 1.5019832416	 0.109626
H	 2.8335492613	 2.8966322513	 1.1588288491	 0.090079
H	 4.267938563	 1.04396598	-0.0787204922	 0.103878
H	 2.7802419708	 0.0834946972	 0.109630909	 0.12282
H	 3.6628863106	 1.7284649994	-2.2931927554	 0.103883
H	 2.1384472907	 0.8095428111	-2.2394226134	 0.122817
H	 2.1008457295	 3.72527213	-1.5222787776	 0.090078
70.0724	128.0878	159.8031	251.0362	300.8705	368.1623	437.1759	520.253	625.1484	699.7868	726.6562	764.7427	784.3411	836.8857	856.3356	908.9739	931.0704	950.3555	961.0215	986.4576	1014.2542	1043.4543	1055.1621	1082.2664	1086.894	1113.726	1174.9079	1198.301	1210.9239	1222.308	1241.4275	1245.8884	1249.2009	1288.5141	1295.1307	1394.4574	1440.5223	1475.4671	1493.3225	1497.1091	1862.485	3061.402	3067.4183	3068.2848	3074.4916	3105.7118	3116.5412	3122.5919	3132.1154	3165.5108	3177.4857
O=C1CCC11C2CCC12	O=C1CC[C@]21[C@H]1CC[C@@H]21	
InChI=1S/C8H10O/c9-7-3-4-8(7)5-1-2-6(5)8/h5-6H,1-4H2	InChI=1S/C8H10O/c9-7-3-4-8(7)5-1-2-6(5)8/h5-6H,1-4H2/t5-,6+,8-
