18
gdb 81190	3.04209	1.66421	1.4853	1.533	75.45	-0.2511	0.0047	0.2558	958.6537	0.149554	-401.872664	-401.865756	-401.864812	-401.903628	28.337	
C	-0.1529595322	 1.5277038933	 0.1055664118	-0.450386
C	 0.0414229885	 0.0235315915	 0.0184894943	 0.03048
C	 1.1863268869	-0.6233069075	-0.7999120217	-0.129104
C	 2.197506889	-0.1883788548	 0.3508103832	-0.326746
C	 0.9355319467	-0.7699561804	 1.0530825839	 0.326213
N	 0.3350219675	-1.3010873436	 2.2678324705	-0.358689
C	-0.3050548366	-2.3017806852	 1.790000491	 0.085126
O	-0.1728262266	-2.6587139867	 0.4588782141	-0.257352
C	 1.0067445684	-1.9118039567	 0.0676089324	 0.097014
H	 0.7708968709	 2.0855796978	 0.2747529907	 0.118638
H	-0.6011992931	 1.9058268282	-0.8202007306	 0.119098
H	-0.839755023	 1.7703745582	 0.9230794885	 0.130326
H	-0.9228675619	-0.4632107324	-0.1481231938	 0.085847
H	 1.3728742313	-0.5533247897	-1.8715951049	 0.083155
H	 3.1147751709	-0.7758843339	 0.4385141987	 0.106983
H	 2.4025581755	 0.8769317954	 0.4345275073	 0.113933
H	-0.9927868207	-2.9314629126	 2.3432402687	 0.140762
H	 1.8609005884	-2.5941904111	 0.0944525959	 0.084701
171.7773	202.5431	244.6473	337.657	395.4927	458.2572	519.5338	574.7532	606.6831	731.4723	766.4959	797.8524	850.3263	859.3949	917.3703	928.3299	950.1518	951.8149	1008.4252	1014.7578	1050.906	1066.1637	1085.98	1119.7502	1135.0858	1139.4855	1187.9017	1209.0513	1218.1649	1237.1262	1270.0708	1318.0161	1390.3357	1411.2117	1426.2645	1495.2032	1499.1077	1528.1931	1604.7397	3035.948	3068.4656	3074.6463	3078.7626	3094.1142	3116.1789	3117.6146	3161.5788	3218.6443
CC1C2CC11N=COC21	C[C@H]1[C@H]2C[C@]31[N][CH]O[C@@H]23	
InChI=1S/C7H9NO/c1-4-5-2-7(4)6(5)9-3-8-7/h3-6H,2H2,1H3	InChI=1S/C7H9NO/c1-4-5-2-7(4)6(5)9-3-8-7/h3-6H,2H2,1H3/t4-,5+,6-,7+/m0/s1
