17
gdb 64785	4.49676	0.68147	0.66492	5.9203	86.91	-0.2612	-0.0373	0.2239	1686.0835	0.135269	-380.838118	-380.828888	-380.827944	-380.872962	33.204	
C	 0.0037304633	 1.5671647056	-0.3785004431	-0.468027
C	-0.0250613719	 0.0805299446	-0.0950480824	 0.330013
C	-1.3599614243	-0.4688869891	 0.4193738584	-0.418429
C	-1.8019873703	 0.159520339	 1.6546516309	 0.109691
C	-2.1578609438	 0.6938451266	 2.6785703022	 0.030551
C	-2.5652187588	 1.2955417586	 3.834046449	 0.208422
N	-2.9125692068	 1.8107611456	 4.8158623502	-0.339656
C	 0.8332532761	-0.8294760507	-0.8962000628	-0.282683
N	 1.1422212521	-0.5617627105	 0.5213797296	-0.331787
H	 0.9773778628	 1.8669760901	-0.7776640084	 0.119378
H	-0.7598145935	 1.8451521984	-1.113564692	 0.128145
H	-0.1861059673	 2.1441881987	 0.5324381307	 0.142152
H	-2.1343341215	-0.3344835107	-0.3477575421	 0.144586
H	-1.2552803675	-1.5462724356	 0.5873888061	 0.155859
H	 0.5123959014	-1.8458922764	-1.1093925766	 0.120036
H	 1.4602479349	-0.3854310645	-1.6649907017	 0.117313
H	 1.911007945	 0.0995948904	 0.5971293121	 0.234437
46.3676	69.7972	150.0955	193.9879	218.0456	316.8758	344.1691	361.192	373.3572	392.2081	493.7206	575.4381	577.9373	721.4484	741.4658	849.7726	900.1526	906.6455	936.8523	988.1827	1017.1635	1062.2338	1116.6772	1147.7723	1169.7359	1223.8697	1264.6669	1311.4177	1342.4663	1390.2731	1420.8377	1446.8942	1485.1607	1500.2445	1516.5739	2264.4714	2400.7013	3024.3254	3032.1604	3075.7745	3097.7317	3104.9596	3109.6117	3189.0624	3503.7402
CC1(CC#CC#N)CN1	C[C@@]1(CC#CC#N)CN1	
InChI=1S/C7H8N2/c1-7(6-9-7)4-2-3-5-8/h9H,4,6H2,1H3	InChI=1S/C7H8N2/c1-7(6-9-7)4-2-3-5-8/h9H,4,6H2,1H3/t7-/m1/s1
