19
gdb 77985	2.80162	1.28819	1.04504	3.9657	82.38	-0.2346	0.0095	0.2441	1203.8641	0.159453	-382.044842	-382.035979	-382.035035	-382.078031	33.646	
C	-0.6322752834	 1.3032033041	-0.175726822	-0.424488
C	-0.3787632292	-0.1643245423	-0.4427079981	-0.045613
C	 0.4266539983	-0.778805541	-1.5659748794	-0.180954
C	 1.7395178438	-0.0467279532	-1.8901309172	 0.056346
C	 1.7505393196	 1.2387513647	-2.7003056174	-0.404635
N	 2.0465707999	 0.0795067147	-0.4200338499	-0.384656
C	 0.9284306484	-0.8444376518	-0.1122687403	 0.23513
C	 1.0742494659	-1.9562276854	 0.7654858067	 0.182229
N	 1.2111196396	-2.8558768723	 1.4822998741	-0.35172
H	-1.2798877871	 1.7367577327	-0.9446121711	 0.120667
H	-1.1323364178	 1.4239519877	 0.7904522925	 0.124256
H	 0.3038287476	 1.8620015956	-0.1425906307	 0.150442
H	-1.2241169976	-0.8095371977	-0.2108681717	 0.111403
H	 0.0174265162	-1.5800443922	-2.1678969837	 0.11329
H	 2.4179147831	-0.7736019442	-2.3544289608	 0.089827
H	 1.0716043137	 1.9876030813	-2.289303439	 0.129369
H	 2.7583115148	 1.6667367725	-2.7210946154	 0.122904
H	 1.4531445603	 1.0334126655	-3.7344198344	 0.120018
H	 2.945070504	-0.3286978989	-0.1854398123	 0.236186
115.3266	150.0687	168.0724	200.9786	228.4938	251.1102	307.8041	366.5149	465.3036	489.3049	548.3556	590.9748	662.9446	671.4226	772.7554	799.5299	865.0393	883.9922	943.9676	977.9408	1024.1488	1041.4031	1061.005	1101.8881	1121.7281	1138.8545	1163.6839	1205.564	1235.6725	1280.3718	1328.9093	1363.2941	1389.2449	1407.5332	1412.8445	1468.0561	1486.2762	1493.6396	1499.9111	1510.6643	2337.5249	3019.5217	3041.2422	3042.4003	3100.9804	3101.6304	3130.4707	3141.6396	3149.1998	3195.5513	3537.1534
CC1C2C(C)NC12C#N	C[C@H]1[C@H]2[C@@H](C)N[C@@]12C#N	
InChI=1S/C7H10N2/c1-4-6-5(2)9-7(4,6)3-8/h4-6,9H,1-2H3	InChI=1S/C7H10N2/c1-4-6-5(2)9-7(4,6)3-8/h4-6,9H,1-2H3/t4-,5+,6-,7-/m0/s1
