21
gdb 123116	6.88263	0.48091	0.45589	1.2473	77.88	-0.258	0.0179	0.2759	2386.2838	0.179052	-461.392046	-461.380713	-461.379769	-461.431054	37.293	
C	-0.0126802018	 1.3096347816	-0.0942958583	-0.229644
O	 0.0828682074	-0.0936451192	-0.056064188	-0.229861
C	 0.670637821	-0.5710673024	 1.1325668016	-0.051624
C	 0.7211451579	-2.0921923363	 1.0616559241	-0.219844
C	 1.3435162558	-2.6984979388	 2.3084588026	-0.062036
O	 1.3430182714	-4.1274617626	 2.1403610143	-0.24003
C	 1.8652332207	-4.8378288023	 3.1629498758	 0.425217
C	 1.8074171041	-6.3175399144	 2.8675539762	-0.478216
O	 2.3104856257	-4.3366582683	 4.1642193172	-0.349535
H	 0.9772181166	 1.7895348068	-0.0326001352	 0.103955
H	-0.4769588869	 1.5803084555	-1.0456389609	 0.128298
H	-0.6331502881	 1.7006077514	 0.7279975317	 0.103955
H	 1.6865575784	-0.154906763	 1.253983521	 0.087162
H	 0.0854952022	-0.2433207928	 2.0101858363	 0.087162
H	-0.2948819455	-2.4788133992	 0.9303508974	 0.118428
H	 1.2960661205	-2.3909576187	 0.1789142344	 0.118428
H	 2.3731777151	-2.3571776786	 2.4611763649	 0.120667
H	 0.7805751607	-2.4451120603	 3.213399789	 0.120667
H	 2.3619522895	-6.5392662347	 1.951340461	 0.149584
H	 2.2328351366	-6.8710352339	 3.7036361598	 0.147682
H	 0.7715381387	-6.6270738299	 2.7024434951	 0.149583
35.8118	48.7172	62.9533	81.2951	97.3358	125.6865	190.3956	208.4178	234.768	262.5049	363.1346	460.1925	504.4092	607.7419	648.5726	773.822	882.9214	911.4459	967.6283	998.6434	1060.4403	1064.8484	1074.8386	1103.8824	1167.3152	1167.9009	1192.6211	1227.5816	1239.1281	1269.4811	1298.9436	1299.7563	1305.6631	1390.9338	1418.8734	1435.633	1469.6618	1476.1708	1482.6106	1485.6601	1497.1464	1504.8663	1518.5328	1534.9807	1824.5297	2939.5075	2964.33	2968.8658	3010.8729	3039.701	3052.5412	3056.9572	3075.06	3103.4114	3114.4009	3121.5851	3168.9686
COCCCOC(C)=O	COCCCOC(=O)C	
InChI=1S/C6H12O3/c1-6(7)9-5-3-4-8-2/h3-5H2,1-2H3	InChI=1S/C6H12O3/c1-6(7)9-5-3-4-8-2/h3-5H2,1-2H3
