22
gdb 71256	2.20823	2.03226	1.60035	1.6196	84.92	-0.22	0.0828	0.3028	996.511	0.195653	-367.177532	-367.169575	-367.168631	-367.209164	33.058	
C	-0.1389961277	 1.5245052517	 0.093424603	-0.511817
C	-0.0103953742	 0.0202361824	 0.0476314978	 0.282736
C	 0.9094962897	-0.7385614845	-0.933802897	-0.212706
N	 0.8968074886	-1.8833726223	 0.034669835	-0.180772
C	-0.5931954608	-2.1419529858	 0.362812584	-0.000443
C	-0.2790661259	-1.8053797168	 1.8326793077	-0.287541
C	 0.7257409098	-0.8580294691	 1.1708833954	 0.327026
C	 1.935517541	-0.3127590498	 1.8819329093	-0.502934
C	-1.2809653387	-0.8437104083	-0.1135334129	-0.260886
H	 0.8343196916	 2.0102204725	 0.2228857044	 0.115091
H	-0.5784100606	 1.9092805421	-0.8344808656	 0.118013
H	-0.7844219897	 1.8454573186	 0.919176393	 0.114904
H	 0.5346649716	-0.9521234469	-1.9409883913	 0.090428
H	 1.9272636033	-0.3444735948	-1.0029304985	 0.10004
H	-0.9994483366	-3.1036484683	 0.0521273014	 0.069048
H	-1.0826330876	-1.4069867355	 2.4575276071	 0.088795
H	 0.2461648306	-2.6134499556	 2.3477899374	 0.105753
H	 2.4885852917	-1.1205596337	 2.3709800352	 0.126018
H	 2.6212280815	 0.1996648424	 1.1995021896	 0.118781
H	 1.633765055	 0.408186316	 2.6505417852	 0.11833
H	-2.1114855605	-0.5511767643	 0.5358949127	 0.090765
H	-1.6411025122	-0.86516128	-1.1464262728	 0.091368
187.1806	207.0978	212.3352	221.7372	313.5958	338.769	443.5886	463.6626	498.3555	580.7864	617.7535	678.7761	707.8522	794.9985	838.3899	862.7373	883.8624	894.8463	932.5767	943.2848	975.8943	995.5028	1016.5357	1029.8177	1048.3152	1097.9879	1135.8499	1147.6948	1159.6908	1196.7356	1214.4524	1220.7718	1247.8137	1254.9684	1269.0096	1287.3558	1318.3277	1345.4962	1409.9785	1414.5077	1481.0642	1482.0073	1487.3422	1493.9696	1496.4199	1503.952	1524.4267	3021.4941	3029.6618	3037.9093	3049.7818	3058.9873	3083.8532	3089.1761	3091.0106	3094.3581	3098.7324	3106.3839	3118.674	3123.6271
CC12CN3C(CC13C)C2	C[C@@]12CN3[C@@H](C[C@]13C)C2	
InChI=1S/C8H13N/c1-7-3-6-4-8(7,2)9(6)5-7/h6H,3-5H2,1-2H3	InChI=1S/C8H13N/c1-7-3-6-4-8(7,2)9(6)5-7/h6H,3-5H2,1-2H3/t6-,7-,8-/m1/s1
