17
gdb 74131	1.97241	1.73535	0.93363	2.4128	79.72	-0.2511	-0.047	0.2041	1215.469	0.137156	-418.080407	-418.071997	-418.071053	-418.114989	31.057	
C	 0.1834796061	 1.5097401575	 0.0372308405	-0.475135
C	-0.0201295061	 0.0258575561	-0.0439817078	 0.301931
C	 0.1515665267	-0.666656315	-1.1758926227	-0.276504
C	-0.0462196789	-2.1210335995	-1.260610928	 0.429364
O	 0.1033050608	-2.7706209737	-2.2764177492	-0.366215
N	-0.4290773971	-2.7458033473	-0.0743276243	-0.405579
C	-0.6429553208	-2.1582294725	 1.1665895679	 0.382483
N	-0.9928776624	-2.7739767877	 2.2248590465	-0.522406
C	-0.4333766045	-0.6564830563	 1.2305139239	-0.36568
H	 0.9560221544	 1.7565219904	 0.7761101415	 0.139299
H	 0.4790961818	 1.9298289815	-0.9263381772	 0.137144
H	-0.7344240667	 2.0109880952	 0.3686050492	 0.139201
H	 0.4488464537	-0.1948048863	-2.105301887	 0.11416
H	-0.5588205072	-3.7457365762	-0.1582163206	 0.250259
H	-1.1036636623	-3.7767489479	 2.0619772085	 0.207591
H	 0.3077166648	-0.4562011283	 2.0147456182	 0.155033
H	-1.3603867922	-0.2061094199	 1.6075900106	 0.155054
15.0478	136.5772	147.0424	203.4343	291.4287	369.439	422.6718	470.4551	487.7182	556.3887	568.0971	611.036	637.6071	732.4869	866.9498	884.1179	897.9288	926.0171	952.6966	962.3677	1038.854	1064.7837	1140.5462	1162.0456	1221.4093	1292.6574	1325.7577	1378.4298	1405.5308	1413.3594	1423.9085	1443.6553	1477.4306	1484.2294	1708.4989	1732.3653	1791.8306	3023.9397	3034.1812	3055.7162	3073.7325	3128.5903	3203.5959	3450.7777	3589.2235
CC1=CC(=O)NC(=N)C1	CC1=CC(=O)N[C]([NH])C1	
InChI=1S/C6H8N2O/c1-4-2-5(7)8-6(9)3-4/h3H,2H2,1H3,(H2,7,8,9)	InChI=1S/C6H8N2O/c1-4-2-5(7)8-6(9)3-4/h3H,2H2,1H3,(H2,7,8,9)
