18
gdb 102890	2.04713	1.03663	0.72209	4.4714	79.76	-0.2838	-0.0004	0.2834	1541.291	0.144272	-401.914902	-401.904638	-401.903694	-401.951062	35.797	
C	 0.8905588846	 0.9954249252	-0.3397587241	-0.393782
C	 0.259474914	-0.3744464209	-0.0848097205	-0.187384
C	-1.2622388919	-0.3030671423	 0.0995827722	-0.053624
O	-1.8062479013	 0.2020118823	-1.1214344961	-0.239034
C	-3.1868049667	 0.4758329657	-1.0535928814	-0.193462
C	-3.6216870167	 1.0343301348	-2.3361216271	 0.26796
N	-3.9956348614	 1.4778814356	-3.3341852983	-0.294449
C	-1.8374336692	-1.6069066077	 0.449221739	 0.329784
C	-2.3105585752	-2.6756377113	 0.7302914383	-0.450521
H	 1.9713108794	 0.9001787529	-0.4767837757	 0.11897
H	 0.4705575714	 1.4574957808	-1.2359716872	 0.142819
H	 0.7200543718	 1.6738204876	 0.503767471	 0.113752
H	 0.4634749833	-1.0560537935	-0.9171462411	 0.12494
H	 0.6807583763	-0.8342086177	 0.8152705818	 0.114796
H	-1.4917877063	 0.4092534742	 0.9113418657	 0.098479
H	-3.7688387263	-0.4337638654	-0.8447037352	 0.154352
H	-3.4146663483	 1.2032480204	-0.2574181146	 0.138576
H	-2.7241325376	-3.6215222108	 0.9817399633	 0.207829
47.4475	97.6654	104.3894	127.3965	141.7229	212.109	231.6811	292.6506	323.9774	386.0947	433.3052	509.6498	537.3285	616.6154	637.8579	686.483	779.947	873.2812	953.536	957.9737	993.7618	1036.9631	1055.305	1110.1044	1135.3154	1160.9346	1255.4785	1286.3443	1316.0643	1350.1752	1383.0272	1410.4551	1421.5663	1477.0598	1495.7005	1498.32	1508.725	2231.3421	2374.0514	2951.1405	2980.0308	3022.4245	3039.7692	3051.5444	3089.6201	3108.9666	3133.3932	3499.367
CCC(OCC#N)C#C	CC[C@@H](OCC#N)C#C	
InChI=1S/C7H9NO/c1-3-7(4-2)9-6-5-8/h1,7H,4,6H2,2H3	InChI=1S/C7H9NO/c1-3-7(4-2)9-6-5-8/h1,7H,4,6H2,2H3/t7-/m0/s1
