16
gdb 29867	3.29176	1.41028	0.99349	5.1184	79.49	-0.1991	-0.0119	0.1873	1143.1041	0.126779	-434.110519	-434.102712	-434.101767	-434.142907	29.527	
C	-0.0169114186	 1.4724094946	 0.0281726257	-0.344072
N	-0.0007529592	 0.0184460978	 0.0082380463	-0.05517
C	-0.0333841194	-0.6828108238	-1.1505897861	 0.089858
N	-0.0227728472	-1.9741554373	-1.2622590491	-0.360118
C	 0.0261751139	-2.7339567866	-0.1036694463	 0.286699
N	 0.0431992496	-4.0194711214	-0.0293494089	-0.595033
C	 0.0632715875	-2.0311596786	 1.1842177561	 0.302092
O	 0.1100248243	-2.8063458795	 2.2734031172	-0.426199
C	 0.0492037781	-0.68249957	 1.2144326253	-0.124592
H	 0.8853973431	 1.8629065191	 0.5105067927	 0.149016
H	-0.0556356222	 1.8455016898	-0.9962025533	 0.148242
H	-0.8935121902	 1.8424642085	 0.570348659	 0.149012
H	-0.0716892635	-0.0747088546	-2.0519366581	 0.123312
H	 0.0156687212	-4.4435092855	-0.9547765555	 0.220474
H	 0.106943926	-3.7145760063	 1.8936351249	 0.306181
H	 0.0743974366	-0.097752986	 2.1230122203	 0.130298
93.4128	142.9969	187.1087	306.4885	338.216	339.5694	410.8849	473.3773	528.2089	550.8946	610.5487	709.4767	716.4311	795.6328	824.9579	840.1519	848.3139	946.9212	1027.414	1063.4594	1116.5373	1153.2609	1202.1155	1244.7714	1334.2354	1361.4355	1415.8188	1443.4204	1470.0098	1478.8662	1502.4982	1532.0473	1625.7293	1665.5009	1725.3415	3032.9562	3091.3514	3142.4465	3155.0536	3232.7372	3461.0244	3508.1203
CN1C=NC(=N)C(O)=C1	CN1CN=C([NH])C(=C1)O	
InChI=1S/C5H7N3O/c1-8-2-4(9)5(6)7-3-8/h2-3,6,9H,1H3	InChI=1S/C5H8N3O/c1-8-2-4(9)5(6)7-3-8/h2,6,9H,3H2,1H3
