14
gdb 21714	3.52249	1.92152	1.2973	5.1911	61.03	-0.2126	-0.0262	0.1864	890.9506	0.108748	-412.007748	-412.000383	-411.999439	-412.039412	27.114	
N	-0.5654774834	 1.2074101684	 0.2348480323	-0.512276
C	 0.3236411863	 0.0942229153	-0.133899366	-0.282919
C	 0.8896793186	-0.5134613944	 1.1044590207	 0.34942
C	 0.3748439089	-0.7058252979	 2.35551465	 0.207803
N	-0.8915749218	-0.4547858698	 2.8552393377	-0.599299
N	 1.3606374072	-1.3049224095	 3.1015891261	-0.17983
N	 2.4010752857	-1.4830564008	 2.3994672331	-0.025387
O	 2.148014537	-0.9920433716	 1.1080177111	-0.214421
H	-0.0117049302	 2.0064644556	 0.5289146481	 0.241005
H	-1.1019957375	 1.5030982231	-0.5740288506	 0.241507
H	-0.2841685744	-0.646994316	-0.6696272696	 0.137477
H	 1.1498923775	 0.3685336627	-0.8064078863	 0.122262
H	-1.3528987492	 0.2828492421	 2.3351614603	 0.259899
H	-0.8947094646	-0.2924329172	 3.8530457132	 0.25476
89.1792	174.8431	218.884	302.3339	323.0537	348.4287	415.0041	446.1607	646.2889	677.1389	715.8851	727.6746	773.0006	796.8868	869.7432	988.2762	1017.4355	1053.7366	1092.8836	1170.1299	1235.6555	1283.4806	1328.5239	1394.4309	1431.3634	1477.0375	1496.4203	1619.1611	1654.9306	1695.8732	2993.8286	3034.1987	3498.3482	3526.1146	3580.6652	3637.9386
NCC1=C(N)N=NO1	NCc1c(N)nno1	
InChI=1S/C3H6N4O/c4-1-2-3(5)6-7-8-2/h1,4-5H2	InChI=1S/C3H6N4O/c4-1-2-3(5)6-7-8-2/h1,4-5H2
