15
gdb 27841	2.13088	1.84017	0.98834	6.6711	76.58	-0.2005	-0.0108	0.1897	1124.1711	0.114064	-450.179811	-450.171647	-450.170703	-450.212254	31.7	
N	 0.0923559614	 1.3461114865	-0.1471821359	-0.568377
C	-0.0461720736	-0.007176465	-0.0500334428	 0.478745
C	-1.2236961057	-0.690173088	 0.0036363574	-0.352332
C	-1.1162472565	-2.1150644489	 0.040837481	 0.413198
N	-2.2543233841	-2.8615011509	 0.1308285114	-0.560323
N	 0.0215834268	-2.7681620608	 0.02753986	-0.37088
C	 1.1895007016	-2.0885845464	-0.0100933029	 0.421191
N	 2.3458541996	-2.6044408257	-0.015546049	-0.544435
O	 1.1297015931	-0.6323045331	-0.0534519967	-0.27383
H	 0.9989048769	 1.7140510156	 0.0953791075	 0.269647
H	-0.6966451669	 1.9133011745	 0.115834126	 0.267377
H	-2.1740187002	-0.1756643194	 0.0206742661	 0.083877
H	-3.1328716371	-2.4557996482	-0.1418408199	 0.256524
H	-2.1391218402	-3.8519318643	-0.0167174151	 0.265966
H	 3.0581871147	-1.878763166	-0.054576157	 0.213654
100.843	169.0227	202.5088	314.3286	341.5638	357.9775	397.0866	433.9857	511.7807	522.6045	530.7589	564.0621	652.591	686.2504	698.2174	728.2606	771.3214	802.2467	803.8032	967.6124	1015.7353	1053.2486	1099.2172	1185.6664	1246.6886	1277.9901	1440.2402	1498.8318	1575.175	1625.6193	1646.3411	1695.1905	1773.5433	3220.648	3523.4109	3595.6901	3597.8055	3714.2613	3726.1113
NC1=CC(N)=NC(=N)O1	N[C@H]1C=C(N)N=C([NH])O1	
InChI=1S/C4H6N4O/c5-2-1-3(6)9-4(7)8-2/h1H,6H2,(H3,5,7,8)	InChI=1S/C4H7N4O/c5-2-1-3(6)9-4(7)8-2/h1,3,7H,6H2,(H2,5,8)/t3-/m1/s1
