20
gdb 121024	2.87858	1.14586	0.91168	2.2503	76.27	-0.2539	0.0227	0.2766	1343.5881	0.170494	-440.30643	-440.297096	-440.296152	-440.34131	33.605	
C	 0.0451732752	 1.5035520815	 0.0719812491	-0.387181
C	-0.1060051223	-0.0028183421	-0.0370805815	-0.046509
O	 0.6960958062	-0.4538971998	-1.1270493081	-0.234223
C	 0.7229598102	-1.824328147	-1.2969897408	 0.191065
O	-0.5723226543	-2.3054473758	-1.7527451894	-0.235164
C	-0.3928850965	-2.6238775691	-3.0620315277	 0.104939
N	 0.7702435953	-2.6142603918	-3.5583409708	-0.267723
C	 1.6764668425	-2.2314243659	-2.4546440431	-0.00806
C	 2.6760923692	-1.16167186	-2.8830420912	-0.382968
H	 1.0898310858	 1.7761056835	 0.2463515937	 0.12757
H	-0.2873999262	 1.990178718	-0.8491101033	 0.131763
H	-0.5573624163	 1.8841991204	 0.9019533135	 0.119044
H	 0.2244399495	-0.4997126298	 0.8890880275	 0.092094
H	-1.1529768419	-0.2829565518	-0.2080427534	 0.11408
H	 0.9168235086	-2.3343843847	-0.3445388484	 0.078109
H	-1.3044885407	-2.8804010877	-3.5907374674	 0.137519
H	 2.22434399	-3.1338715104	-2.1550193665	 0.09296
H	 2.1602472257	-0.2522865792	-3.1955759111	 0.134282
H	 3.3535001923	-0.9075800714	-2.0629389363	 0.113725
H	 3.2661935376	-1.537744387	-3.7222423247	 0.124676
56.0444	90.7566	110.7008	143.6568	220.4077	250.3241	290.2521	330.0476	365.0251	465.4446	543.8749	609.9518	738.8885	819.6501	840.1216	871.8033	901.9029	926.9052	942.0881	960.506	1027.0434	1072.0874	1093.03	1111.1953	1133.6702	1161.287	1186.0496	1202.0876	1295.8943	1309.4875	1314.7697	1353.7334	1359.2354	1378.9822	1403.4599	1409.0441	1444.975	1484.2723	1486.0624	1494.1936	1500.4219	1527.1677	1709.5122	2981.0112	3015.7453	3032.5537	3045.3564	3046.604	3054.203	3121.4935	3124.3267	3125.1668	3144.2217	3211.6432
CCOC1OC=NC1C	CCO[C@H]1O[CH][N][C@H]1C	
InChI=1S/C6H11NO2/c1-3-8-6-5(2)7-4-9-6/h4-6H,3H2,1-2H3	InChI=1S/C6H11NO2/c1-3-8-6-5(2)7-4-9-6/h4-6H,3H2,1-2H3/t5-,6-/m0/s1
