20
gdb 98621	4.05981	1.02779	0.9442	3.2349	81.75	-0.2332	0.0327	0.2659	1328.2318	0.171674	-403.150884	-403.141832	-403.140888	-403.18567	33.272	
C	 0.1341496873	 1.4883125634	-0.0571321548	-0.333085
N	-0.0451042181	 0.0516323069	-0.0142475421	-0.325088
C	-1.180188545	-0.5358420989	 0.4784177941	 0.427849
O	-2.1148604103	 0.1210354274	 0.9137197592	-0.39369
C	-1.152161426	-2.0346083893	 0.426958057	-0.121387
C	-1.7157603286	-2.9594022257	 1.4891058144	-0.076894
C	-3.0195212968	-2.4334178941	 2.1084516607	-0.216816
C	-3.6576452464	-2.3963610018	 0.6822639515	-0.216821
C	-2.3372268442	-2.9233302299	 0.100129167	-0.076899
H	 0.2708080682	 1.8452297277	-1.0844721075	 0.122342
H	-0.7683275546	 1.9377353782	 0.3586948666	 0.171305
H	 0.9980935321	 1.8029405717	 0.5396044534	 0.122339
H	 0.693592065	-0.5367292996	-0.3600700201	 0.24289
H	-0.2337351685	-2.4393211753	 0.0055248334	 0.071538
H	-1.0687792547	-3.7088726069	 1.9311876374	 0.083412
H	-3.4880668554	-3.1829813286	 2.7505616719	 0.093499
H	-2.9577833497	-1.482798156	 2.6372798111	 0.124296
H	-4.4629747726	-3.1263533408	 0.5716685709	 0.093501
H	-3.9921143165	-1.4227199986	 0.3254824222	 0.124299
H	-2.2499027152	-3.6403288599	-0.7085859862	 0.083412
32.8481	79.1046	130.0104	172.2412	216.8795	289.5882	338.8476	369.1509	437.8468	454.1053	689.5078	731.0538	770.224	782.7054	793.9305	820.9661	900.3356	948.0349	954.4228	966.7673	1004.0723	1020.8889	1055.4885	1076.2844	1108.327	1147.9042	1154.4347	1165.8301	1185.1135	1222.7933	1226.9848	1247.97	1262.0118	1304.8392	1357.098	1433.2607	1449.6446	1467.6092	1487.713	1494.0098	1500.8803	1556.3092	1758.0138	3023.6276	3068.4999	3073.4986	3077.6454	3117.9875	3134.391	3146.5291	3153.0263	3163.3582	3176.2745	3655.3372
CNC(=O)C1C2CCC12	CNC(=O)[C@H]1[C@H]2CC[C@@H]12	
InChI=1S/C7H11NO/c1-8-7(9)6-4-2-3-5(4)6/h4-6H,2-3H2,1H3,(H,8,9)	InChI=1S/C7H11NO/c1-8-7(9)6-4-2-3-5(4)6/h4-6H,2-3H2,1H3,(H,8,9)/t4-,5+,6-
