16
gdb 49212	4.62261	1.0014	0.84073	2.5945	78.05	-0.2412	-0.0582	0.183	1285.4086	0.125771	-437.959758	-437.951916	-437.950972	-437.992478	29.218	
O	-0.1710378076	-0.0520362939	 0.0338269896	-0.294756
C	-0.0729729051	 1.1576825641	 0.0504849846	 0.08948
C	 1.1865459461	 1.8865812231	-0.0074117877	 0.14331
C	 1.1737878342	 3.2346685021	 0.0217860444	-0.02027
N	 2.3286732534	 3.9837038432	-0.0363507492	-0.335521
C	 3.5842724745	 3.4664665942	-0.3620367896	 0.410046
O	 4.5639252708	 4.1744171938	-0.3520734755	-0.339015
C	 3.5633883834	 2.0062972413	-0.7875344223	-0.331166
C	 2.5061953483	 1.1613657571	-0.0595669904	-0.326705
H	-0.9773120837	 1.8063345082	 0.1139773635	 0.05763
H	 0.2508151423	 3.800733578	 0.1018762376	 0.132677
H	 2.3022890552	 4.9805320158	 0.1219845829	 0.26481
H	 3.3523988401	 2.0121023575	-1.8660210432	 0.140351
H	 4.572679572	 1.6112340591	-0.6617571847	 0.140301
H	 2.8408824	 0.9409348678	 0.9635628212	 0.127375
H	 2.3759361261	 0.1931762685	-0.5492768711	 0.141454
76.6988	148.5406	178.1945	207.4718	351.8721	402.7928	410.9552	460.8153	526.271	590.7177	641.8875	662.621	766.6921	780.8097	787.6126	905.6474	976.2174	1008.5922	1027.1316	1045.2208	1150.4719	1176.2836	1199.0718	1268.4533	1281.3922	1336.2799	1359.8309	1402.4304	1436.4793	1460.3969	1470.3857	1485.5728	1698.5019	1775.1424	1821.6921	2858.2466	3014.8077	3029.215	3100.4214	3123.7837	3183.1237	3618.2442
O=CC1=CNC(=O)CC1	O=CC1=CNC(=O)CC1	
InChI=1S/C6H7NO2/c8-4-5-1-2-6(9)7-3-5/h3-4H,1-2H2,(H,7,9)	InChI=1S/C6H7NO2/c8-4-5-1-2-6(9)7-3-5/h3-4H,1-2H2,(H,7,9)
