18
gdb 91239	2.62499	1.60241	1.4194	3.1373	72.02	-0.2561	0.0138	0.2699	1002.3586	0.14883	-439.092293	-439.08456	-439.083616	-439.12458	29.889	
C	 0.3235809844	 1.4924369506	-0.0985428391	-0.3976
C	-0.0216177538	 0.0064736671	-0.005780092	 0.109881
C	 0.4073068374	-0.8303870458	-1.2378922551	-0.263211
C	 1.7361629677	-1.4458087411	-0.8289865906	 0.084879
O	 2.8874662678	-0.5463878017	-0.9812800373	-0.275984
C	 3.0077182077	-0.3826845862	 0.3892073545	 0.415076
N	 3.8441380387	 0.2586606699	 1.0644691452	-0.54756
C	 1.7962057483	-1.2644940668	 0.7070377651	-0.01635
O	 0.6164343991	-0.627612518	 1.1213866406	-0.261875
H	 1.3750230292	 1.6557665172	-0.345835161	 0.137979
H	-0.2859027416	 1.9661906159	-0.8757153992	 0.113246
H	 0.1108653984	 1.9851752762	 0.8536930603	 0.131697
H	-1.0960551603	-0.093493049	 0.1781777456	 0.089844
H	-0.3110363037	-1.6347401536	-1.4237066986	 0.115681
H	 0.4953591525	-0.2335557953	-2.1486257096	 0.125103
H	 1.9589457865	-2.4185347974	-1.2677544634	 0.099132
H	 4.5249303996	 0.7331889286	 0.4676369362	 0.229011
H	 1.992718082	-2.1173021507	 1.3579908482	 0.111051
96.7928	123.3815	216.0789	242.3996	341.9759	354.549	422.1489	447.4178	607.7912	673.8839	747.5767	783.4849	820.2299	847.0181	861.4279	880.2918	889.8736	944.5107	984.5506	1003.5209	1036.1591	1050.0963	1096.4627	1112.1797	1141.7517	1208.205	1211.358	1234.6257	1272.8043	1314.6212	1334.4517	1348.7221	1372.4663	1391.3846	1411.0886	1470.2557	1492.427	1493.7953	1824.2566	3043.3834	3050.7765	3065.0673	3109.0574	3113.7369	3117.8251	3120.2151	3136.886	3466.0179
CC1CC2OC(=N)C2O1	C[C@H]1C[C@H]2O[C]([NH])[C@H]2O1	
InChI=1S/C6H9NO2/c1-3-2-4-5(8-3)6(7)9-4/h3-5,7H,2H2,1H3	InChI=1S/C6H9NO2/c1-3-2-4-5(8-3)6(7)9-4/h3-5,7H,2H2,1H3/t3-,4+,5-/m0/s1
