16
gdb 46704	3.14234	1.77097	1.38659	2.8993	66.85	-0.245	0.0024	0.2474	917.4098	0.127253	-437.871404	-437.864858	-437.863914	-437.90239	25.965	
O	 0.0434152403	-0.0321810337	-0.328688779	-0.33185
C	-0.0132065282	 1.1051549406	 0.0515537443	 0.422915
O	-1.1821227583	 1.5908647488	 0.5398232955	-0.233487
C	-1.3267379601	 2.9730769609	 0.913937365	-0.100904
C	-0.0644931531	 3.6523142279	 1.4077793708	-0.044108
C	 1.2315629551	 2.9678105891	 1.2859841359	-0.057428
C	 1.148775193	 2.0711540175	 0.0427656863	-0.185112
C	 0.9425431776	 3.3982039489	-0.7485545374	-0.181846
N	 0.9610064457	 4.2311733892	 0.4999690657	-0.144931
H	-1.7641049308	 3.5165573566	 0.0673110766	 0.129649
H	-2.0687230734	 2.9652189376	 1.715900828	 0.13488
H	-0.2076481374	 4.2878818949	 2.2757038564	 0.116644
H	 1.9744381207	 2.9070576903	 2.0728434582	 0.111325
H	 2.0526375944	 1.5268569311	-0.2191288122	 0.115106
H	 1.8099324854	 3.6483075732	-1.3603431044	 0.130952
H	 0.0395027192	 3.4997688872	-1.3585626596	 0.118194
124.9269	170.0378	309.5966	400.532	434.2909	459.0853	562.5602	704.9786	724.181	746.3886	780.141	800.9477	872.9216	898.0945	959.6589	961.0387	988.0912	1017.4464	1061.1458	1068.2612	1083.4597	1118.727	1180.1838	1222.1325	1224.9346	1238.9254	1277.5559	1296.0042	1306.094	1338.1705	1417.7254	1432.6505	1496.6999	1516.2554	1848.7312	3031.692	3058.6059	3098.341	3125.2247	3151.3256	3166.3451	3183.4194
O=C1OCC2C3C1CN23	O=C1OC[C@H]2[C@H]3[C@@H]1CN23	
InChI=1S/C6H7NO2/c8-6-3-1-7-4(2-9-6)5(3)7/h3-5H,1-2H2	InChI=1S/C6H7NO2/c8-6-3-1-7-4(2-9-6)5(3)7/h3-5H,1-2H2/t3-,4-,5+,7?/m0/s1
