15
gdb 37843	3.1818	1.685	1.15838	2.8273	71.95	-0.217	-0.0227	0.1943	993.2131	0.11491	-416.837444	-416.830685	-416.829741	-416.868646	26.655	
C	-0.137679982	 1.7341387167	-0.2311289829	-0.268893
N	 1.2249216479	 1.6440888451	 0.3101283357	-0.31391
C	 1.6822184188	 0.5159234605	-0.0722820346	 0.387505
N	 2.7936436596	-0.1959255991	 0.3441985359	-0.364943
C	 2.453366711	-1.5671428779	 0.21288835	-0.022841
C	 1.3078782035	-1.7585475643	-0.4599165528	-0.182724
O	-1.6530826023	-0.1742638858	-0.6776297115	-0.286105
C	-0.5493217247	 0.2813261566	-0.6116807995	 0.353147
C	 0.8092681059	-0.4030203017	-0.888675694	-0.214689
H	-0.8271091053	 2.1708690325	 0.497821084	 0.135913
H	-0.1878947077	 2.3560091182	-1.1374285241	 0.131054
H	 3.3121232325	 0.1315091383	 1.1467500413	 0.259716
H	 3.1318449371	-2.3063554937	 0.6155186676	 0.131202
H	 0.8960709591	-2.7092924371	-0.7600738227	 0.118964
H	 0.9699771767	-0.2507152984	-1.9707420724	 0.136604
108.2175	199.5641	288.7276	326.7933	449.0444	517.713	552.844	592.0359	646.0249	663.1223	718.2525	742.4808	800.3071	865.2258	910.2873	924.6657	945.5286	1015.1546	1047.9651	1055.3308	1100.2754	1136.7936	1176.3336	1186.6809	1242.0138	1278.8887	1297.0158	1372.9706	1403.8296	1465.8797	1641.5671	1736.9225	1877.4865	2957.1186	3004.4839	3085.2424	3234.4691	3263.5799	3608.9607
C1N=C2NC3C4OC13C24	C1[N][C]2NC=C[C@H]2C1=O	
InChI=1S/C6H6N2O/c1-6-2-3(9-6)4(6)8-5(2)7-1/h2-4H,1H2,(H,7,8)	InChI=1S/C6H6N2O/c9-5-3-8-6-4(5)1-2-7-6/h1-2,4H,3H2,(H,7,8)/t4-/m0/s1
