17
gdb 11515	4.98194	1.10451	0.96678	4.8756	69.32	-0.2521	0.025	0.2772	1181.8546	0.142528	-360.010091	-360.001602	-360.000658	-360.043596	30.388	
N	 0.1555852273	 1.5589295955	 0.0109999701	-0.505748
C	 0.0821768027	 0.0983221639	-0.0229446218	-0.12804
C	 0.7215333095	-0.5938981209	-1.2514657421	-0.145475
N	 0.0743062108	-0.1199527232	-2.4658982669	-0.076726
C	 0.7872190996	 0.8832648115	-3.2581649172	-0.229447
C	 0.6907263154	-0.524238539	-3.725810457	-0.221262
C	 0.6776316675	-0.4520691831	 1.2049166229	 0.291269
N	 1.1752035758	-0.9058297883	 2.1435388241	-0.317657
H	 1.1242005297	 1.8644091157	-0.0249073682	 0.235645
H	-0.3075286836	 1.9229297647	-0.815593835	 0.250254
H	-0.9815727595	-0.1684630436	-0.0221463888	 0.143382
H	 1.8121588023	-0.4190161177	-1.2475712919	 0.095663
H	 0.5617268978	-1.6749675898	-1.1701903677	 0.125486
H	 0.1715808314	 1.6569703108	-3.7078853924	 0.123775
H	 1.7574044194	 1.2223685911	-2.8988002819	 0.114152
H	 1.5961615874	-1.1266946885	-3.6789969784	 0.118659
H	 0.0015731566	-0.7983889391	-4.518971508	 0.126068
61.2993	93.3581	126.0488	208.3019	261.6645	314.2583	328.5812	375.2588	464.8383	552.4679	581.3733	772.3969	833.5478	844.999	862.1032	908.585	947.566	1029.713	1032.6668	1077.5017	1116.8484	1123.1116	1145.0361	1169.0852	1180.213	1210.4897	1270.476	1315.8192	1325.0425	1381.5622	1417.0439	1481.7492	1494.1493	1521.5406	1654.6667	2363.3462	2948.4979	3048.0226	3066.4057	3096.4589	3102.3393	3180.8189	3195.562	3493.8614	3584.0752
NC(CN1CC1)C#N	N[C@@H](CN1CC1)C#N	
InChI=1S/C5H9N3/c6-3-5(7)4-8-1-2-8/h5H,1-2,4,7H2	InChI=1S/C5H9N3/c6-3-5(7)4-8-1-2-8/h5H,1-2,4,7H2/t5-/m1/s1
