17
gdb 5257	7.08343	1.12807	0.98513	2.3019	71.38	-0.1876	0.0527	0.2402	1179.0804	0.14294	-363.889603	-363.881674	-363.88073	-363.922139	29.319	
C	-0.0801416298	 1.5279061235	 0.0115721515	-0.39117
C	-0.0160306862	 0.0112508653	 0.0040866	-0.038941
O	-1.342988837	-0.4888794171	 0.011459896	-0.271302
C	-1.4637651782	-1.8418250946	 0.0062746601	 0.3591
C	-0.4762665775	-2.807231721	-0.0054908008	-0.220358
N	-1.118475742	-4.03062997	-0.0061589841	-0.248895
C	-2.4728072965	-3.8500657359	 0.0048040957	-0.059929
C	-2.726049512	-2.4981722429	 0.012742437	-0.274851
H	 0.9295050364	 1.9494679221	 0.0060287147	 0.114467
H	-0.6146590727	 1.8945476127	-0.8691879493	 0.129122
H	-0.6015219675	 1.8863808111	 0.9034969081	 0.129119
H	 0.5136558838	-0.3558118333	-0.8887035091	 0.095145
H	 0.5266008539	-0.3640467283	 0.8856050439	 0.095149
H	 0.5971252068	-2.7383039529	-0.0132898916	 0.112001
H	-0.6526436109	-4.9194384827	-0.0136362144	 0.259053
H	-3.1472698549	-4.6910596188	 0.0061180808	 0.116524
H	-3.6907548455	-2.0170861571	 0.0221336517	 0.095767
71.0499	105.5362	160.3418	248.6938	319.2293	354.2907	389.6331	449.1349	619.4584	626.9594	678.622	713.2877	742.1908	813.878	828.9118	895.9547	912.0988	993.4334	1063.95	1083.135	1109.628	1143.5	1171.3465	1188.8484	1279.8663	1291.8742	1316.0185	1396.1922	1409.6157	1437.1928	1479.8896	1484.2186	1501.2128	1523.9488	1537.0546	1619.3539	2975.212	3005.3279	3045.9652	3120.1424	3123.9481	3255.472	3274.1508	3284.7117	3699.0305
CCOC1=CNC=C1	CCOc1c[nH]cc1	
InChI=1S/C6H9NO/c1-2-8-6-3-4-7-5-6/h3-5,7H,2H2,1H3	InChI=1S/C6H9NO/c1-2-8-6-3-4-7-5-6/h3-5,7H,2H2,1H3
