17
gdb 126035	3.10313	1.59126	1.10428	3.5036	73.92	-0.2098	0.023	0.2328	1072.771	0.138995	-418.023874	-418.016335	-418.015391	-418.056013	28.814	
C	-0.0221016631	 1.5958024392	-0.099704362	-0.396768
C	-0.0182985391	 0.0715467603	 0.0534798374	-0.169411
C	 0.7924639716	-0.6451695178	-1.0882459641	-0.097336
O	 1.5593982424	-1.7371306253	-0.5153717705	-0.27188
C	 1.5601609038	-1.5080924469	 0.8169387579	 0.429094
N	 2.2306928052	-2.115566022	 1.7717343147	-0.352543
N	 1.7735124076	-1.4561005972	 2.8818939303	-0.193244
C	 0.8651686671	-0.474556975	 2.61119465	-0.220331
C	 0.7029554135	-0.4842099434	 1.2462371932	 0.181963
H	 0.9974709078	 1.9926548048	-0.0649079448	 0.122541
H	-0.4747804442	 1.8946678374	-1.0515061923	 0.116688
H	-0.5965819176	 2.0678138287	 0.7031315101	 0.119744
H	-1.0582533302	-0.2817416913	 0.0339278636	 0.092837
H	 0.156044916	-1.0649046896	-1.8700154961	 0.119122
H	 1.498890959	 0.0584932338	-1.5465879632	 0.111512
H	 2.1604586129	-1.7027849299	 3.7753072597	 0.273435
H	 0.4334677971	 0.1181591442	 3.402531506	 0.134577
81.5853	161.4663	230.1833	268.1903	313.9243	372.6612	440.7179	513.4991	618.6212	633.043	667.0571	745.7319	759.0312	787.2333	895.7979	938.5395	959.8087	990.0712	1039.3683	1051.9222	1105.8769	1134.4165	1153.5799	1195.8447	1238.1581	1291.0279	1320.8626	1344.9987	1378.7042	1410.4896	1466.7553	1471.3961	1495.353	1498.1469	1505.3257	1552.1882	1653.1312	3001.9461	3025.0203	3032.0115	3099.9896	3106.4011	3111.2385	3255.2014	3695.0775
CC1COC2=NNC=C12	C[C@H]1COc2n[nH]cc12	
InChI=1S/C6H8N2O/c1-4-3-9-6-5(4)2-7-8-6/h2,4H,3H2,1H3,(H,7,8)	InChI=1S/C6H8N2O/c1-4-3-9-6-5(4)2-7-8-6/h2,4H,3H2,1H3,(H,7,8)/t4-/m0/s1
