17
gdb 73622	2.25041	1.74997	1.38737	2.5902	69.54	-0.2363	-0.0256	0.2107	990.1792	0.135159	-458.950225	-458.941924	-458.94098	-458.983124	30.915	
O	-0.1252180154	 1.4221683606	 0.1541263585	-0.457269
C	-0.0597805953	 0.0400219446	 0.0216759261	 0.337168
C	 0.963899475	-0.5642272593	-0.9382630714	-0.323622
C	 0.2158086396	-1.7474217674	-1.5967685647	-0.066033
O	-1.1298761979	-1.7667797547	-1.062524475	-0.249628
C	-1.2926265954	-0.741848166	-0.157938166	 0.060526
C	-0.5398843022	-0.8047913319	 1.2186047174	-0.243657
C	 0.1158420731	-2.0200522879	 1.7262979314	 0.144543
O	 0.8192667245	-2.776203231	 1.0914140217	-0.28522
H	 0.6213386564	 1.7090425095	 0.6923237785	 0.288512
H	 1.2147821528	 0.2141953005	-1.6639052834	 0.117325
H	 1.8795111169	-0.8960665992	-0.4461139649	 0.126638
H	 0.140033453	-1.6355932607	-2.6834933256	 0.105119
H	 0.6853327893	-2.7007571327	-1.3583575754	 0.140958
H	-2.2871734099	-0.3111886055	-0.1345074964	 0.126071
H	-1.0425769745	-0.2078000831	 1.9741553457	 0.100279
H	-0.0946636399	-2.2234495957	 2.8003081234	 0.078292
98.2174	126.2822	170.5096	207.6673	244.6937	311.6477	369.9661	392.5987	467.1798	584.5634	657.608	703.1352	759.2819	836.1039	841.7753	898.9195	917.1709	948.9218	998.6397	1022.2439	1064.054	1069.51	1087.051	1141.4878	1211.6566	1229.6018	1244.2829	1255.9784	1297.3401	1317.8208	1352.2301	1408.2131	1437.2473	1468.3092	1492.2468	1515.5498	1789.7888	2873.8706	3047.5418	3069.7205	3119.1935	3142.2164	3158.1029	3185.7475	3791.9681
OC12CCOC1C2C=O	O[C@]12CCO[C@H]1[C@H]2C=O	
InChI=1S/C6H8O3/c7-3-4-5-6(4,8)1-2-9-5/h3-5,8H,1-2H2	InChI=1S/C6H8O3/c7-3-4-5-6(4,8)1-2-9-5/h3-5,8H,1-2H2/t4-,5+,6+/m1/s1
