17
gdb 17900	2.82986	2.32228	2.16962	3.4818	63.54	-0.2273	0.0611	0.2885	755.7439	0.144532	-400.958417	-400.951502	-400.950558	-400.989456	26.644	
O	-0.0336172125	 1.4854013542	-0.033467113	-0.423448
C	-0.0003768668	 0.0820332381	 0.0417800467	 0.133483
C	 0.1392163583	-0.6492100927	 1.405100155	-0.10145
C	-0.5976641969	 0.1318355276	 2.4879732188	-0.023549
O	-1.9774822465	 0.2878432093	 2.1963705547	-0.267886
C	-2.382035543	 0.1443748714	 0.8419069427	-0.032829
C	-1.3641868874	-0.632814836	 0.0124220112	-0.073879
N	-0.8018783582	-1.713404155	 0.9027336712	-0.315595
H	 0.8683355226	 1.8205370478	-0.0340958378	 0.287732
H	 0.6820223586	-0.3514991286	-0.703116874	 0.065153
H	 1.122048242	-0.9851712201	 1.7470043351	 0.065762
H	-0.5393018854	-0.4036410189	 3.442532154	 0.10314
H	-0.1149897206	 1.1138857427	 2.6100760505	 0.08519
H	-3.3349368595	-0.3969371162	 0.8585477435	 0.10294
H	-2.5455140714	 1.1286934229	 0.3803945894	 0.104748
H	-1.7856798776	-0.9506562623	-0.9442508229	 0.072277
H	-0.2649364457	-2.3503651843	 0.315579915	 0.218211
94.3333	218.7244	230.6659	243.5394	397.9264	424.8639	570.1374	596.7628	621.3386	820.6815	836.4564	851.1214	876.7345	884.0763	942.4605	992.6916	1022.8535	1042.2901	1066.5271	1099.3981	1126.3162	1160.7518	1172.0335	1205.5006	1238.3394	1250.7648	1277.5954	1291.8808	1318.8389	1372.1876	1380.0221	1410.8025	1411.8205	1442.5935	1494.81	1506.4784	2985.835	2998.6345	3006.015	3052.6829	3057.2582	3074.9227	3084.9231	3465.9769	3821.8503
OC1C2COCC1N2	O[C@H]1[C@H]2COC[C@@H]1N2	
InChI=1S/C5H9NO2/c7-5-3-1-8-2-4(5)6-3/h3-7H,1-2H2	InChI=1S/C5H9NO2/c7-5-3-1-8-2-4(5)6-3/h3-7H,1-2H2/t3-,4+,5+
