20
gdb 110668	3.08594	1.45949	1.34729	0.8622	77.91	-0.1942	0.0874	0.2816	1059.3383	0.172356	-403.09498	-403.087355	-403.086411	-403.127084	30.394	
C	 0.2600376912	 0.5984683112	-1.4787224936	-0.382104
C	 0.0241157176	 0.2086585004	-0.0198324572	-0.133283
N	-1.2564877188	-0.4834355662	 0.1223125871	-0.08118
C	-1.3877313891	-1.8561229048	-0.3593833938	-0.064643
C	-0.8711785113	-2.8548671603	 0.6738747384	 0.097264
O	 0.0458827924	-2.4002406819	 1.6472106596	-0.267376
C	-0.6110712309	-1.3589968425	 2.3840128571	-0.089617
C	-1.7512707173	-0.9127890736	 1.4700441694	-0.038706
C	-2.22529605	-2.2498893207	 0.8442982786	-0.163886
H	 1.1971823739	 1.1538892035	-1.5819232935	 0.111242
H	 0.3306691658	-0.2883650012	-2.1175683419	 0.117453
H	-0.5599081317	 1.2190974034	-1.8513649985	 0.121163
H	 0.8744636894	-0.3878537571	 0.3447764117	 0.104894
H	-0.0276877955	 1.1166193349	 0.5944396399	 0.094811
H	-1.5246653283	-2.0884869126	-1.4107396999	 0.090995
H	-0.7363392976	-3.8952220337	 0.4013631716	 0.103605
H	-0.9968417054	-1.7420470743	 3.3420388896	 0.093564
H	 0.1202614252	-0.5719730426	 2.5914502604	 0.110915
H	-2.4750674954	-0.2343363279	 1.927008128	 0.077635
H	-3.1842503142	-2.7380467239	 0.938349207	 0.097255
84.9568	171.3593	199.2822	255.1463	312.6602	355.8243	483.7746	588.8936	634.4932	719.8247	766.2398	772.2987	806.3411	825.1286	845.6501	893.1998	923.8631	954.9427	991.192	995.457	1015.4621	1039.8915	1056.9959	1068.1228	1101.1169	1106.9363	1129.9203	1188.5076	1208.2744	1210.7546	1225.785	1253.1323	1274.889	1311.3035	1313.7061	1359.7665	1390.4482	1403.4049	1411.2157	1489.8267	1497.0058	1508.5916	1514.5853	2981.0852	2986.0722	3037.0637	3041.1569	3080.0606	3087.369	3103.9134	3117.3124	3156.4671	3185.6678	3219.4035
CCN1C2C3OCC1C23	CCN1[C@H]2[C@H]3OC[C@@H]1[C@@H]23	
InChI=1S/C7H11NO/c1-2-8-4-3-9-7-5(4)6(7)8/h4-7H,2-3H2,1H3	InChI=1S/C7H11NO/c1-2-8-4-3-9-7-5(4)6(7)8/h4-7H,2-3H2,1H3/t4-,5+,6-,7+/m1/s1
