19
gdb 109106	3.0372	1.14171	0.86987	3.286	77.87	-0.2377	-0.0145	0.2232	1317.6147	0.157703	-423.05703	-423.047634	-423.046689	-423.091666	34.182	
C	-0.1420255703	 1.5743479821	 0.0066716396	-0.398963
C	 0.0298884584	 0.0474913497	 0.0540840297	-0.207401
C	 0.8453962691	-0.4692221881	-1.1502843168	 0.400454
O	 0.6467938614	-0.1661869118	-2.2977445632	-0.313929
C	 1.9553818294	-1.3934641992	-0.6332092764	-0.378392
C	 1.8165644275	-1.2876479362	 0.8597425545	-0.170227
C	 0.7915402658	-0.5166621472	 1.2332479474	 0.302373
C	 0.3730107607	-0.2285558489	 2.6394020114	-0.175555
O	 1.207480604	-0.931199941	 3.5409586779	-0.413282
H	 0.8186268524	 2.0815807911	 0.1429571197	 0.121068
H	-0.5455174445	 1.8638571584	-0.9671139778	 0.141646
H	-0.8267609741	 1.9255461727	 0.7841483497	 0.114343
H	-0.9716826565	-0.4065879898	-0.0135005966	 0.104868
H	 1.8020810808	-2.411374564	-1.0177666171	 0.134968
H	 2.9288437694	-1.0686763179	-1.0221768824	 0.135115
H	 2.4722797811	-1.7939663179	 1.5556987514	 0.115513
H	 0.4171665328	 0.8598822702	 2.8181115498	 0.100965
H	-0.6875313388	-0.5147818048	 2.7642363619	 0.095116
H	 0.9535316014	-0.6887420476	 4.4355584372	 0.291316
51.5862	86.225	177.3154	208.7089	223.7446	235.5821	251.6915	268.9772	373.3973	480.8486	520.8491	583.7298	648.4292	682.4942	754.0022	817.8105	830.7504	933.4553	978.8907	1013.7986	1029.2571	1058.7376	1078.3461	1100.7594	1144.5711	1153.8072	1188.2776	1218.654	1252.9044	1277.8479	1288.5137	1303.2144	1343.3303	1401.1965	1446.6288	1467.1627	1496.2174	1499.9697	1507.5268	1714.9843	1848.4214	2935.7612	2957.2292	2981.3921	3019.279	3038.6727	3049.2794	3108.005	3123.9709	3225.1449	3842.1635
CC1C(=O)CC=C1CO	C[C@H]1C(=O)CC=C1CO	
InChI=1S/C7H10O2/c1-5-6(4-8)2-3-7(5)9/h2,5,8H,3-4H2,1H3	InChI=1S/C7H10O2/c1-5-6(4-8)2-3-7(5)9/h2,5,8H,3-4H2,1H3/t5-/m1/s1
