19
gdb 44568	2.79928	1.62029	1.44312	2.8594	77.61	-0.2364	-0.0188	0.2176	987.7291	0.161111	-385.898752	-385.891582	-385.890638	-385.930289	29.306	
O	-0.021773924	-0.0276707159	-0.4319326329	-0.306896
C	-0.0609351459	 1.1372198728	-0.1582547766	 0.388949
C	-1.1942718921	 2.1256630864	 0.177756995	-0.353779
C	-0.1000888353	 3.0892239716	 0.7392244272	-0.047325
C	 0.1823651674	 3.0348431794	 2.2355177854	-0.035593
C	 0.2590618146	 1.6839085476	 2.9132653459	-0.307027
C	 1.5266466933	 2.3686117102	 2.4772935179	-0.023686
C	 2.1296166453	 1.9468659582	 1.1389165527	-0.252413
C	 1.0234498232	 2.2048067594	 0.0973856681	-0.12515
H	-1.6723626277	 2.4996331057	-0.7340208831	 0.126264
H	-1.9703210818	 1.7694646919	 0.859196918	 0.128709
H	-0.1696696935	 4.1202636824	 0.3898797751	 0.072482
H	-0.1327689962	 3.8777142344	 2.8404454611	 0.083234
H	 0.0447005499	 1.6567455672	 3.9763043814	 0.112523
H	-0.0655306311	 0.7917223763	 2.3869896152	 0.130992
H	 2.2003227149	 2.7366856034	 3.2434539004	 0.083508
H	 3.0085906336	 2.5607783914	 0.9166592956	 0.10361
H	 2.4533306598	 0.9002944241	 1.1264592116	 0.12131
H	 1.4124328257	 2.5743009336	-0.8565733481	 0.100287
92.0837	180.092	232.092	338.4514	410.7638	460.9704	533.1095	601.6976	636.1828	708.7099	736.3579	776.3654	818.8524	831.3368	860.9856	902.4062	935.3232	965.5581	994.0251	1004.182	1031.277	1058.9399	1066.3354	1077.1729	1104.4343	1107.1021	1125.7423	1164.3258	1189.755	1210.3699	1227.3475	1241.4284	1266.0203	1321.9866	1328.897	1353.3367	1388.9256	1438.8397	1487.773	1498.5889	1883.2515	3041.8052	3053.82	3065.4682	3081.4772	3096.8447	3116.357	3128.9951	3162.5611	3171.3739	3209.6335
O=C1CC2C3CC3CC12	O=C1C[C@H]2[C@H]3C[C@H]3C[C@@H]12	
InChI=1S/C8H10O/c9-8-3-6-5-1-4(5)2-7(6)8/h4-7H,1-3H2	InChI=1S/C8H10O/c9-8-3-6-5-1-4(5)2-7(6)8/h4-7H,1-3H2/t4-,5-,6-,7+/m0/s1
