20
gdb 56019	3.58909	0.99214	0.90342	2.454	76.35	-0.2452	0.0287	0.2739	1366.3299	0.171166	-440.302278	-440.293072	-440.292128	-440.337619	33.074	
C	 0.1372964476	 1.3677549927	-0.4908162423	-0.460959
C	 0.1863908189	-0.072339503	-0.0476013671	 0.391344
N	 0.4961269224	-0.5416705975	 1.092128142	-0.522353
O	-0.1623616692	-0.8827926906	-1.0683182059	-0.257068
C	-0.203745849	-2.2977589911	-0.794428176	 0.107423
C	-0.8660679861	-2.9715468122	-2.0003082771	-0.244255
C	 0.3434197235	-3.3193447535	-2.8722657203	-0.072666
O	 1.3387982308	-3.7247611644	-1.9448953994	-0.256199
C	 1.2154010987	-2.9153913745	-0.7770529163	-0.074879
H	 0.4155539452	 2.0382777755	 0.3235843501	 0.12712
H	 0.8182378334	 1.5247328044	-1.3329329682	 0.147404
H	-0.8689116531	 1.6211270223	-0.8380565078	 0.146422
H	 0.7182438513	 0.2099816564	 1.7404161533	 0.220024
H	-0.7303797043	-2.4469333944	 0.1482572374	 0.106938
H	-1.36944782	-3.8876476101	-1.6776690358	 0.111081
H	-1.5954338481	-2.3160965049	-2.479664338	 0.110987
H	 0.1724195964	-4.1462230758	-3.5665200585	 0.107058
H	 0.6706189323	-2.439399856	-3.4497922633	 0.092998
H	 1.9652492674	-2.1149114627	-0.7709601191	 0.10516
H	 1.3820867918	-3.5494056306	 0.0981061221	 0.114419
36.6544	80.2471	102.9267	123.6938	176.1635	243.3025	327.3801	402.7289	459.2627	576.9555	607.6659	631.1152	726.7946	848.8753	856.8638	872.2788	912.3756	925.5534	941.9596	988.3498	1005.6423	1048.4604	1067.7366	1081.0546	1110.2144	1116.5437	1138.4777	1203.4943	1231.5516	1251.4057	1287.4748	1325.4011	1348.6986	1367.8362	1389.9845	1404.4155	1427.8751	1471.5509	1473.2672	1481.7001	1500.9204	1520.0314	1721.2817	2973.8202	3031.2966	3048.882	3064.4965	3087.9453	3093.3282	3112.7233	3115.5214	3127.765	3144.0569	3517.268
CC(=N)OC1CCOC1	C[C]([NH])O[C@H]1CCOC1	
InChI=1S/C6H11NO2/c1-5(7)9-6-2-3-8-4-6/h6-7H,2-4H2,1H3	InChI=1S/C6H11NO2/c1-5(7)9-6-2-3-8-4-6/h6-7H,2-4H2,1H3/t6-/m0/s1
