19
gdb 86968	2.424	1.40985	1.16298	3.1192	81.11	-0.2451	0.0108	0.2559	1150.175	0.161184	-382.092759	-382.08428	-382.083336	-382.125818	32.365	
C	 0.076493438	 1.6099362841	-0.0144022241	-0.398407
C	 0.017827164	 0.0802779679	 0.0627312102	-0.003901
N	 0.5992286729	-0.4791291054	-1.166058979	-0.29177
C	 0.8488870887	-1.9156403366	-1.120457774	-0.152047
C	 1.9187045839	-2.2066080416	-0.0504851646	-0.241613
C	 1.6212024026	-1.4539872454	 1.2175566273	-0.08304
C	 0.7571161205	-0.4436104429	 1.2655484338	-0.007382
C	-0.3811140908	-2.7124833908	-0.8761130601	 0.268991
N	-1.3696662503	-3.2895957063	-0.7111732479	-0.334799
H	 1.1126965972	 1.9484898421	-0.0987396948	 0.129593
H	-0.4781157002	 1.9757701013	-0.8852690083	 0.112218
H	-0.3715687491	 2.0566605604	 0.8783467568	 0.118278
H	-1.0441059854	-0.2115992064	 0.1730541545	 0.092298
H	 0.0074995899	-0.2512255256	-1.9578030119	 0.229092
H	 1.2289228108	-2.2215008312	-2.1011455536	 0.12514
H	 1.9685359613	-3.2839985897	 0.1417962915	 0.12363
H	 2.8950456345	-1.9113007805	-0.4543366172	 0.124535
H	 2.1369432412	-1.7769442972	 2.117562516	 0.095638
H	 0.5419243101	 0.054207604	 2.2070936453	 0.093544
90.7289	106.4592	189.4281	238.1038	285.407	300.8046	355.2312	420.6227	443.8266	534.5717	600.7346	648.5569	700.0067	741.4231	796.9455	817.8388	901.2492	924.6122	963.3435	998.7937	1007.3666	1033.0688	1055.7096	1116.0285	1130.8467	1147.8186	1220.5184	1234.0141	1277.6011	1338.5917	1349.1169	1364.0784	1388.7617	1402.1389	1411.5529	1470.1744	1475.5611	1496.0313	1506.325	1730.3363	2340.506	2915.374	3029.5774	3035.3809	3055.0486	3070.9819	3103.263	3123.0559	3156.3031	3178.31	3529.6446
CC1NC(CC=C1)C#N	C[C@H]1N[C@@H](CC=C1)C#N	
InChI=1S/C7H10N2/c1-6-3-2-4-7(5-8)9-6/h2-3,6-7,9H,4H2,1H3	InChI=1S/C7H10N2/c1-6-3-2-4-7(5-8)9-6/h2-3,6-7,9H,4H2,1H3/t6-,7+/m1/s1
