23
gdb 62064	3.50183	0.64949	0.5779	2.8369	87.67	-0.2436	-0.0174	0.2262	1954.8692	0.203598	-388.293215	-388.282594	-388.28165	-388.330578	37.766	
C	 0.1195232558	 1.595096756	 0.2269721769	-0.409538
C	-0.012702463	 0.0798025032	-0.0036365413	-0.061501
C	 0.6446524989	-0.3953565884	-1.3196361505	-0.187365
C	-0.0163644859	 0.1499376336	-2.5944339736	-0.218575
C	 0.6098710684	-0.4078203646	-3.8559024518	 0.03557
C	 0.1729322749	-1.7449287706	-4.4012290891	-0.254986
C	-0.1759389959	-0.4750524888	-5.1397039736	-0.277765
C	 0.6416572866	-0.6560247829	 1.1489224964	 0.160102
O	 0.1006294343	-1.4600556178	 1.8628788561	-0.250987
H	 1.1728166706	 1.8972060102	 0.2608209366	 0.11995
H	-0.3643854825	 2.1610752719	-0.5725829935	 0.13016
H	-0.3461648022	 1.8912933111	 1.1720074251	 0.1281
H	-1.0699977378	-0.208623745	-0.0023440184	 0.09225
H	 1.7081192674	-0.1176749685	-1.3127747369	 0.096069
H	 0.6137502806	-1.4913068624	-1.3545376686	 0.113164
H	-1.0862042359	-0.0982057897	-2.5820120772	 0.095268
H	 0.0452301351	 1.2449310537	-2.6144210477	 0.10074
H	 1.6681936981	-0.1803915949	-3.9640433822	 0.080522
H	 0.9208986709	-2.4026827844	-4.8297820008	 0.111718
H	-0.6286239201	-2.2643661296	-3.8851730092	 0.110962
H	-1.2099667734	-0.1457770975	-5.1182650434	 0.110093
H	 0.3356596648	-0.2627901009	-6.0720155832	 0.11129
H	 1.7189829402	-0.3955432135	 1.2946729401	 0.064759
43.3353	46.4052	75.7549	112.6832	129.4248	205.1046	249.9722	275.5549	341.1791	353.0101	410.2985	436.1324	567.4954	756.2045	775.594	821.9928	840.2911	867.8801	906.1739	921.0196	942.0039	975.186	989.8321	1046.3951	1055.3112	1076.324	1080.6585	1121.2104	1141.1622	1157.5525	1189.6231	1198.9272	1228.5266	1245.7131	1264.4109	1318.5656	1322.9864	1358.0663	1384.2895	1406.2271	1417.4734	1429.659	1470.0484	1479.5947	1495.0378	1497.951	1504.3829	1510.1611	1835.4795	2830.3064	3008.1695	3018.5698	3034.048	3042.9552	3051.7771	3068.3347	3101.3399	3120.8785	3127.5223	3128.3028	3133.4375	3205.1659	3220.312
CC(CCC1CC1)C=O	C[C@@H](CCC1CC1)C=O	
InChI=1S/C8H14O/c1-7(6-9)2-3-8-4-5-8/h6-8H,2-5H2,1H3	InChI=1S/C8H14O/c1-7(6-9)2-3-8-4-5-8/h6-8H,2-5H2,1H3/t7-/m0/s1
