14
gdb 25223	3.35269	1.69005	1.13332	4.7446	70.52	-0.232	-0.0153	0.2167	987.9581	0.104636	-432.892426	-432.885852	-432.884908	-432.923371	25.454	
N	-0.0540525025	 1.331784867	 0.0876320415	-0.536838
C	-0.0520717023	 0.0628371364	 0.000425411	 0.272565
N	 1.0490500447	-0.8197061502	-0.1416291134	-0.36851
C	 0.7026094415	-2.2497935781	-0.0209041019	-0.291912
C	-0.7771256282	-2.1171247284	 0.0069529206	 0.310936
C	-1.207955576	-0.8420557304	 0.0103393379	 0.224111
N	-2.595093263	-0.8201839604	 0.005894273	-0.324622
C	-2.9030216513	-2.0758040605	-0.0026780847	 0.033876
O	-1.8364496733	-2.9527014246	-0.0077435876	-0.197738
H	 0.8948907526	 1.708741143	 0.0553031103	 0.204615
H	 1.9343027786	-0.5189367158	 0.2353176018	 0.242371
H	 1.0752488966	-2.8294263908	-0.8756699466	 0.139341
H	 1.1116074004	-2.7027372875	 0.8935483825	 0.133667
H	-3.8811738777	-2.5298422796	-0.0027429043	 0.158135
171.1066	201.4529	253.3667	307.0541	393.933	527.5092	613.7947	633.5078	646.0097	651.2144	773.5418	779.1328	824.1575	851.0112	935.8801	999.8669	1032.9907	1048.4628	1085.2821	1097.4632	1172.116	1222.7967	1286.9489	1305.899	1382.4658	1433.0059	1454.782	1505.8791	1535.1929	1643.3401	1755.5557	3001.3427	3031.765	3283.1885	3458.0868	3630.7413
N=C1NCC2=C1N=CO2	[NH][C]1NCc2c1nco2	
InChI=1S/C5H5N3O/c6-5-4-3(1-7-5)9-2-8-4/h2H,1H2,(H2,6,7)	InChI=1S/C5H5N3O/c6-5-4-3(1-7-5)9-2-8-4/h2H,1H2,(H2,6,7)
