23
gdb 80483	2.03071	1.64493	1.44722	1.3959	83.99	-0.2469	0.0662	0.3131	1104.8834	0.206821	-388.288209	-388.279082	-388.278138	-388.321367	36.162	
C	 0.4803533388	 1.7076421298	 0.1349171051	-0.40324
C	-0.0012552161	 0.253638464	 0.2185823931	 0.01968
C	 0.1395717856	-0.5058968839	-1.139386034	-0.236888
C	 1.0800406708	-1.6862201964	-0.9254305551	-0.111743
C	 2.4916620727	-1.3864908038	-0.4811690909	 0.091268
O	 3.0217572543	-0.0892648392	-0.5211693571	-0.408587
C	 1.456068379	-1.7399180735	 0.5449061183	-0.08519
C	 0.6966487216	-0.6504406184	 1.3009812104	 0.014363
C	 1.544436163	 0.0730025307	 2.3556354838	-0.402936
H	 1.5371596525	 1.7628422622	-0.1329336924	 0.13025
H	-0.0962579222	 2.2467939311	-0.6250507297	 0.099165
H	 0.3384773275	 2.2346016519	 1.0834796902	 0.105835
H	-1.0662577958	 0.2965741848	 0.4733365891	 0.068494
H	-0.8309676856	-0.8825397178	-1.4780554056	 0.095891
H	 0.4994107034	 0.168190901	-1.9267037642	 0.083483
H	 0.911323864	-2.5874119896	-1.5063185328	 0.077047
H	 3.2291331892	-2.1639788462	-0.6835880028	 0.081582
H	 3.174045078	 0.1403186763	-1.4441408612	 0.287592
H	 1.5877392067	-2.6880712516	 1.0576136065	 0.07888
H	-0.1040091816	-1.1749642573	 1.8387963217	 0.068
H	 2.3873883154	 0.5966481649	 1.9002608619	 0.140177
H	 0.9487600599	 0.7970015364	 2.9214612388	 0.104671
H	 1.9479130688	-0.6490710554	 3.0738691268	 0.102207
92.1338	152.989	195.9387	246.9316	263.901	289.8119	302.3731	306.7077	370.2049	460.2639	503.9273	571.826	669.6027	707.6629	721.3875	769.3547	784.4682	876.6221	901.8401	927.7947	991.4637	1009.0124	1022.4661	1056.9306	1065.6173	1068.3452	1091.063	1112.7442	1121.8424	1164.7948	1176.3475	1234.6418	1243.7938	1275.1371	1286.6507	1328.1588	1333.4222	1347.0705	1364.2802	1371.6516	1376.7435	1401.8387	1414.2641	1456.4652	1487.5662	1496.6314	1501.1349	1508.0573	1520.0261	2999.1851	3023.5618	3027.6246	3033.8127	3039.7897	3068.6296	3088.7319	3089.5027	3095.8621	3130.7279	3138.9268	3145.4516	3157.6179	3800.5675
CC1CC2C(O)C2C1C	C[C@H]1C[C@H]2[C@@H](O)[C@H]2[C@H]1C	
InChI=1S/C8H14O/c1-4-3-6-7(5(4)2)8(6)9/h4-9H,3H2,1-2H3	InChI=1S/C8H14O/c1-4-3-6-7(5(4)2)8(6)9/h4-9H,3H2,1-2H3/t4-,5-,6+,7-,8+/m0/s1
