18
gdb 90113	3.53743	1.44712	1.42861	1.7879	78.33	-0.2258	-0.0067	0.2191	998.2648	0.146933	-401.78359	-401.776373	-401.775429	-401.814743	29.763	
C	-0.1161467758	 1.661237498	 0.0783650783	-0.322182
N	-0.0473072772	 0.2132916527	 0.0187960788	-0.116665
C	-1.2334486852	-0.578203919	 0.5796967926	-0.276141
C	-0.1588698551	-1.6471935143	 0.9049001406	 0.292426
O	 0.606112604	-2.3101404513	 2.0200478399	-0.352804
C	 1.7630667119	-1.75100758	 1.2369519867	-0.075836
C	 1.6573984059	-2.5106414788	-0.0731572336	-0.056225
C	 0.3469620846	-2.4309351599	-0.3083972669	-0.106655
C	 0.7807765509	-0.4967813539	 1.0322158322	 0.055867
H	 0.8240271039	 2.0840814327	-0.289210494	 0.128632
H	-0.9222739192	 2.0205640017	-0.5694615058	 0.123917
H	-0.295803786	 2.046326346	 1.0989130608	 0.096158
H	-1.67391109	-0.0965115396	 1.4625106871	 0.112243
H	-2.0035970893	-0.8216390766	-0.1584710053	 0.113931
H	 2.6872228144	-1.7187071374	 1.8138414842	 0.082869
H	 2.4629256457	-2.9623618347	-0.6318075823	 0.111847
H	-0.2585266095	-2.7973771371	-1.1241174016	 0.104939
H	 0.7031450959	 0.0091133612	 2.0055800282	 0.08368
156.5318	213.8838	250.8885	312.8501	356.9353	421.7973	529.0083	560.6471	568.6745	658.9668	702.8544	707.9657	787.1645	823.9298	848.4938	871.5374	896.3565	904.393	929.5084	971.1344	1020.3879	1053.3256	1076.0794	1127.8149	1135.1707	1154.7382	1174.5276	1190.0678	1223.1826	1249.6857	1253.6657	1274.8634	1318.6285	1390.8489	1447.1892	1483.8083	1495.2659	1498.0766	1617.205	2940.0364	2994.4068	3017.8811	3064.1921	3091.8258	3105.9391	3128.0353	3233.9962	3261.8857
CN1CC23OC(C=C2)C13	CN1C[C@@]23O[C@@H](C=C2)[C@@H]13	
InChI=1S/C7H9NO/c1-8-4-7-3-2-5(9-7)6(7)8/h2-3,5-6H,4H2,1H3	InChI=1S/C7H9NO/c1-8-4-7-3-2-5(9-7)6(7)8/h2-3,5-6H,4H2,1H3/t5-,6+,7-/m0/s1
