15
gdb 129667	3.23867	1.41854	1.05293	4.1906	68.1	-0.2166	0.0091	0.2257	1080.8574	0.114477	-450.095555	-450.087884	-450.08694	-450.128076	28.661	
N	-0.4560502371	 0.9206119493	 1.0169535788	-0.615839
C	-0.1992760922	-0.1968158096	 0.2385784429	 0.262453
C	-0.9671145102	-0.8858927158	-0.6850007652	 0.263334
N	-0.1888151168	-1.8432685165	-1.2680450432	-0.266703
N	 1.0026940423	-1.812489178	-0.7600902554	-0.129798
N	 1.0079833786	-0.8053390008	 0.1577683266	-0.22768
C	-2.3833350033	-0.6791320474	-1.0428989348	-0.03052
C	-3.479189136	-0.8455622245	-0.0705910202	-0.175116
O	-3.0199151114	 0.4612351891	-0.4356534702	-0.243887
H	-0.1745889687	 0.8396215452	 1.9855452542	 0.251419
H	-1.4287325402	 1.1932813295	 0.9311153528	 0.273456
H	 1.8644211441	-0.5700375655	 0.6326636135	 0.275934
H	-2.6227167421	-0.8240005538	-2.0954522033	 0.119998
H	-4.4796416762	-1.0951232081	-0.4195101856	 0.12689
H	-3.2420850507	-1.1578096132	 0.9446292791	 0.116058
64.9092	161.4767	194.1417	281.7091	326.4796	360.5421	411.3605	470.8892	525.4578	678.8839	687.0808	724.5713	745.4309	787.1762	847.1349	905.4722	1003.8345	1013.9826	1032.6355	1095.	1111.1252	1149.0048	1170.2004	1248.3346	1275.0002	1281.9225	1314.1352	1395.7952	1428.9834	1516.1302	1548.1887	1625.1089	1668.1981	3090.2962	3124.8597	3183.595	3521.614	3618.9101	3660.0321
NC1=C(N=NN1)C1CO1	Nc1c(nn[nH]1)[C@H]1CO1	
InChI=1S/C4H6N4O/c5-4-3(2-1-9-2)6-8-7-4/h2H,1H2,(H3,5,6,7,8)	InChI=1S/C4H6N4O/c5-4-3(2-1-9-2)6-8-7-4/h2H,1H2,(H3,5,6,7,8)/t2-/m1/s1
