17
gdb 94983	2.76641	1.77947	1.36005	0.9736	67.62	-0.2417	0.0445	0.2863	953.2383	0.135982	-458.849926	-458.842638	-458.841694	-458.881661	28.871	
O	-0.0206615455	 1.4218388443	 0.2259119241	-0.417948
C	-0.0235633522	 0.0247860779	 0.0312313852	-0.093925
C	 0.614068718	-0.6498253149	 1.3172173291	-0.082209
O	-0.1812881425	-1.7926061265	 1.7340209349	-0.285017
C	-1.0446954926	-2.0544354054	 0.6503415447	 0.092154
C	-2.602403102	-1.8662410245	 0.5764720277	-0.022233
C	-2.4560033231	-0.4561672177	 1.153083526	-0.259925
C	-1.3456245517	-0.6898049885	 0.0902561845	 0.410412
O	-2.3650005749	-1.307284202	-0.8033579791	-0.38443
H	-0.3483126917	 1.8388447425	-0.5773362012	 0.292667
H	 0.5397888047	-0.2630074922	-0.867609867	 0.092401
H	 1.6380142093	-0.9790812289	 1.1133045995	 0.115734
H	 0.6277933607	 0.0841758279	 2.1275250937	 0.131571
H	-0.6610920973	-2.8070098602	-0.046167507	 0.084814
H	-3.4107089978	-2.5932599847	 0.6552858431	 0.097986
H	-3.2323180113	 0.2490550272	 0.8576571197	 0.106159
H	-2.14553744	-0.3596047043	 2.1930008421	 0.121789
87.4641	184.6788	258.1638	299.2141	331.8688	436.0901	502.5395	543.4472	576.0625	676.0666	701.1468	720.461	865.1736	885.1486	915.4232	923.2822	956.5367	977.1771	993.987	1021.9243	1071.7414	1085.7811	1110.231	1132.2893	1155.7193	1193.5048	1201.0849	1212.8647	1239.2788	1252.2533	1305.4852	1312.2265	1356.4581	1370.5142	1416.9552	1481.6414	1507.5971	3006.5139	3047.4129	3063.0259	3091.3168	3104.9831	3121.5169	3171.5034	3821.6193
OC1COC2C3CC12O3	O[C@H]1CO[C@H]2[C@H]3C[C@@]12O3	
InChI=1S/C6H8O3/c7-4-2-8-5-3-1-6(4,5)9-3/h3-5,7H,1-2H2	InChI=1S/C6H8O3/c7-4-2-8-5-3-1-6(4,5)9-3/h3-5,7H,1-2H2/t3-,4+,5+,6-/m1/s1
