21
gdb 122689	3.96884	0.8238	0.7534	2.3019	75.36	-0.2599	0.0818	0.3416	1564.8726	0.183201	-461.365222	-461.35586	-461.354915	-461.401097	33.713	
O	 0.0376777796	 1.198681352	-0.3716657202	-0.422386
C	-0.0536285449	-0.1981631575	-0.1712958709	-0.061805
C	-1.4931839487	-0.6402276028	 0.0326298842	-0.08007
O	-2.2049503179	-0.2549840727	-1.1396501248	-0.276236
C	-3.5986872665	-0.4559752827	-1.0664739632	 0.233836
C	-4.2206175564	 0.0691887301	-2.3779162523	-0.26464
C	-4.801191942	-1.194098454	-3.0507054188	-0.20971
C	-4.0789468404	-2.3222285742	-2.3059888106	-0.089068
O	-3.9289837993	-1.8243194869	-0.9754758677	-0.249257
H	-0.6235010748	 1.4066887462	-1.0422168839	 0.286626
H	 0.3761544891	-0.7555037432	-1.0192560691	 0.090855
H	 0.535113383	-0.4382827678	 0.7201892311	 0.107839
H	-1.5594013635	-1.724315833	 0.1889500315	 0.106871
H	-1.9226977034	-0.1341687931	 0.9113089664	 0.095519
H	-3.9864167953	 0.0143306645	-0.1525580107	 0.073916
H	-4.9824916977	 0.8262852217	-2.1830888483	 0.111485
H	-3.4320211144	 0.5284404436	-2.9775461958	 0.118913
H	-5.8788790008	-1.2642722577	-2.8777271081	 0.110939
H	-4.6293956998	-1.2200213019	-4.12919913	 0.106063
H	-4.6421603543	-3.2563859686	-2.2490394568	 0.109395
H	-3.0960544317	-2.5295788121	-2.7525759021	 0.100913
36.7644	53.6995	82.4614	159.4113	187.597	233.5425	312.9027	394.8534	438.0765	501.4629	591.3864	620.8354	742.2091	818.4526	862.8553	897.9716	908.152	930.4355	934.6497	962.9184	1017.0005	1052.2734	1065.0214	1094.5571	1113.3348	1135.4501	1152.6053	1211.2126	1229.2256	1238.9742	1258.4364	1260.6279	1311.578	1321.5903	1358.1269	1368.5939	1383.742	1398.9747	1423.6823	1441.6636	1481.1879	1496.876	1499.7225	1509.9952	1520.6181	2976.747	2989.3401	3005.6795	3015.8799	3052.9662	3061.1789	3078.4618	3079.5342	3102.7445	3110.8744	3130.7529	3796.2178
OCCOC1CCCO1	OCCO[C@H]1CCCO1	
InChI=1S/C6H12O3/c7-3-5-9-6-2-1-4-8-6/h6-7H,1-5H2	InChI=1S/C6H12O3/c7-3-5-9-6-2-1-4-8-6/h6-7H,1-5H2/t6-/m0/s1
