20
gdb 118182	2.50493	0.87061	0.72217	2.2247	72.33	-0.2631	0.0568	0.3199	1600.9606	0.1689	-477.469546	-477.458768	-477.457823	-477.506289	38.047	
C	 0.0311813254	 1.505697773	-0.0261550755	-0.409482
C	 0.0029623551	-0.0180592524	 0.0197014872	 0.131953
C	-1.4072038359	-0.594466739	-0.0338875277	-0.179994
C	-1.4528907738	-2.1113011067	 0.1027800318	-0.0818
O	-2.8185120764	-2.5011418735	 0.0749802529	-0.422242
O	 0.7104288458	-0.5530299571	-1.1293594608	-0.275607
C	 2.0567748083	-0.6554643925	-1.0139316457	 0.49516
N	 2.5762945442	-1.2093128315	-2.1522499862	-0.562078
O	 2.701426288	-0.3403042775	-0.0400005161	-0.40211
H	 1.0621040643	 1.8642506061	 0.0104876004	 0.140507
H	-0.4444601436	 1.8744349074	-0.9405921017	 0.118231
H	-0.5065616354	 1.9189649039	 0.8327363904	 0.119026
H	 0.5288495347	-0.3637373486	 0.9150551009	 0.109135
H	-1.9962059146	-0.1513679111	 0.7768470197	 0.109743
H	-1.8891760929	-0.3046289549	-0.9747822068	 0.110007
H	-0.8854837489	-2.573482962	-0.7173897038	 0.097755
H	-0.9711171678	-2.4127827911	 1.047718798	 0.085803
H	-2.8568040375	-3.4609181523	 0.1160081767	 0.285768
H	 2.0087017672	-1.2228799766	-2.9826505588	 0.26272
H	 3.572428884	-1.1313302736	-2.2646992549	 0.267503
51.1709	70.9698	84.2836	124.6303	180.6999	206.857	246.5821	261.4581	320.8594	343.4643	364.1269	456.9271	489.5164	501.5719	525.7243	667.9309	783.2766	787.1097	853.2977	926.2709	973.5978	1011.8194	1047.5363	1067.9563	1107.8229	1119.0773	1147.9314	1177.9656	1236.4668	1254.0444	1315.1691	1316.912	1347.3668	1391.6518	1402.6284	1410.7624	1462.8774	1480.3408	1489.7055	1503.656	1531.9653	1610.8911	1825.8663	2965.8479	3015.9273	3039.9914	3044.4335	3067.5162	3089.2689	3114.5553	3134.1599	3612.4507	3741.7664	3831.6965
CC(CCO)OC(N)=O	C[C@@H](CCO)OC(=O)N	
InChI=1S/C5H11NO3/c1-4(2-3-7)9-5(6)8/h4,7H,2-3H2,1H3,(H2,6,8)	InChI=1S/C5H11NO3/c1-4(2-3-7)9-5(6)8/h4,7H,2-3H2,1H3,(H2,6,8)/t4-/m0/s1
