23
gdb 94984	2.66139	1.65951	1.27859	0.2115	87.91	-0.2423	0.0834	0.3257	1098.6544	0.209338	-351.147534	-351.139819	-351.138874	-351.179193	32.352	
C	-0.0139793727	 1.5712698983	 0.0061884033	-0.405267
C	-0.0009529949	 0.0393700106	-0.0239941522	 0.035831
C	 0.5905061421	-0.4817070983	-1.3466894549	-0.201036
C	 0.7709911894	-2.0115384252	-1.3821722672	-0.241801
C	 1.1910399327	-2.6383913815	-0.0610862285	-0.000708
C	 2.2252696185	-2.1520165854	 0.9340679434	-0.071134
C	 2.3281410282	-0.6297686143	 1.041676325	-0.250756
C	 0.7646926997	-0.5513116907	 1.1707055476	-0.004872
C	 0.7268447527	-2.092758131	 1.2544213882	-0.10212
H	 1.0059500944	 1.9729864398	-0.0221356806	 0.113434
H	-0.5542077036	 1.9824377393	-0.8536290542	 0.107566
H	-0.4939366677	 1.9483230462	 0.9157777419	 0.106915
H	-1.0402248647	-0.315139687	 0.0535189628	 0.06531
H	-0.0468824045	-0.1722770112	-2.1831782018	 0.085669
H	 1.5567613637	 0.0079048915	-1.5138987682	 0.098358
H	-0.1850841457	-2.4753746167	-1.6620472732	 0.0948
H	 1.4795687928	-2.2803818229	-2.1755825729	 0.092316
H	 1.1763012477	-3.7267258719	-0.0919553538	 0.078289
H	 2.9639818699	-2.8437980071	 1.3236144825	 0.076715
H	 2.807239125	-0.3360377904	 1.9794046377	 0.096711
H	 2.8159692945	-0.0849747708	 0.2279404249	 0.090214
H	 0.4540155226	-0.0649590015	 2.0989076115	 0.061703
H	 0.1508212197	-2.6670247697	 1.9705539087	 0.073864
138.2575	189.3782	234.0115	286.3947	338.5108	367.6291	449.2561	483.1907	519.6746	655.5021	695.4485	740.3345	792.1618	803.7497	851.5398	890.0199	910.7409	931.3114	956.5981	973.7588	989.8425	1005.8997	1031.7679	1044.5055	1052.8311	1073.1577	1098.633	1122.6683	1152.3579	1167.4705	1169.1973	1223.3277	1234.1256	1261.2506	1268.5418	1300.6194	1318.0914	1331.1037	1345.5973	1368.3607	1375.0429	1396.1507	1411.1878	1447.2014	1482.6449	1490.4873	1497.4685	1500.5878	1514.7342	2985.1345	3005.8903	3022.0587	3028.4815	3041.8178	3049.1237	3064.97	3068.6359	3088.9015	3093.2215	3096.4553	3119.824	3163.7267	3178.0172
CC1CCC2C3CC1C23	C[C@H]1CC[C@H]2[C@H]3C[C@@H]1[C@@H]23	
InChI=1S/C9H14/c1-5-2-3-6-8-4-7(5)9(6)8/h5-9H,2-4H2,1H3	InChI=1S/C9H14/c1-5-2-3-6-8-4-7(5)9(6)8/h5-9H,2-4H2,1H3/t5-,6-,7-,8+,9+/m0/s1
