21
gdb 70577	2.51495	1.7106	1.36722	1.9803	81.59	-0.2178	0.0716	0.2894	1048.317	0.185178	-383.229532	-383.221727	-383.220783	-383.261219	32.128	
C	-0.0893712237	 1.4916518118	 0.0394456854	-0.490956
C	 0.0258661151	-0.0176158123	 0.002941944	 0.33262
N	-0.2788098155	-0.7755252842	 1.2343994239	-0.368055
C	 1.1198287555	-0.6858558582	 0.7689418108	-0.076628
C	 1.7345670364	-1.9629067448	 0.2189523877	-0.240497
C	 1.7173643502	-1.9834391639	-1.3248442176	-0.141852
N	 0.4615323142	-1.6266571521	-1.9832445669	-0.100244
C	-0.8002158176	-2.0725775	-1.3974568869	-0.26358
C	-0.4005261913	-0.6407478977	-1.3082716452	-0.055248
H	 0.469252383	 1.9510402432	-0.7834001195	 0.129061
H	-1.1351055142	 1.8081312683	-0.0547434724	 0.125132
H	 0.3034471229	 1.8944755	 0.9787271842	 0.1104
H	-0.4330073292	-0.1284346462	 2.0043381512	 0.22368
H	 1.785897078	-0.0329819543	 1.3288829191	 0.079775
H	 2.773465087	-2.058204782	 0.5515589695	 0.097576
H	 1.1962068903	-2.8250388352	 0.6246331892	 0.116807
H	 2.4713597093	-1.2784838416	-1.6981243983	 0.100924
H	 2.0078789434	-2.9767972741	-1.6841723544	 0.105227
H	-1.5580749831	-2.3803515305	-2.1133763331	 0.107439
H	-0.7950788318	-2.6307081931	-0.4662439446	 0.130505
H	-0.8597314988	 0.064897347	-1.998454336	 0.077915
145.6768	203.5124	238.7923	282.5413	322.4601	345.8173	448.0927	480.9241	492.9263	524.9199	612.6864	702.1264	737.3749	789.7192	862.3456	869.86	914.499	928.8709	959.6646	971.4976	1009.8716	1042.5918	1051.5011	1089.5592	1105.9356	1113.9129	1123.6513	1143.9543	1167.6447	1181.6272	1247.538	1264.3725	1283.2212	1321.8831	1333.4033	1366.388	1385.9737	1415.5596	1417.2787	1452.8969	1476.6087	1485.5823	1488.3164	1502.1708	1516.6455	3021.0558	3022.5615	3044.1086	3066.4024	3085.9781	3086.2636	3098.2171	3108.5802	3113.5587	3125.5684	3200.2011	3489.0423
CC12NC1CCN1CC21	C[C@]12N[C@H]1CCN1C[C@@H]21	
InChI=1S/C7H12N2/c1-7-5(8-7)2-3-9-4-6(7)9/h5-6,8H,2-4H2,1H3	InChI=1S/C7H12N2/c1-7-5(8-7)2-3-9-4-6(7)9/h5-6,8H,2-4H2,1H3/t5-,6-,7-,9?/m0/s1
