21
gdb 111212	2.87838	0.99791	0.86182	2.9615	79.42	-0.2348	0.0675	0.3023	1438.2245	0.1813	-424.146389	-424.13704	-424.136095	-424.18113	34.733	
C	 0.3258420634	 1.3160429087	 0.1417534151	-0.378669
C	 0.1484038908	-0.1859360418	 0.3938786838	-0.216804
C	-1.3038069524	-0.6267038008	 0.3038708516	 0.031997
C	-1.9464877767	-0.8625129321	-1.0951194633	 0.03076
O	-1.0866600537	-2.0629002904	-1.2558794798	-0.313083
C	-1.6313164576	-2.1367993477	 0.121063735	-0.015219
C	-3.0252604081	-1.791937067	-0.471940704	 0.057476
C	-4.1972186429	-1.2881999646	 0.3461055065	-0.138393
O	-5.1159591655	-0.7038551153	-0.5694672579	-0.417494
H	 1.3761881972	 1.6095347755	 0.2314530851	 0.113788
H	-0.0107655338	 1.592692125	-0.8631670114	 0.117787
H	-0.2485043755	 1.914088558	 0.8585106504	 0.110093
H	 0.7369662202	-0.7632788914	-0.3241065457	 0.119386
H	 0.529752928	-0.4336217195	 1.3934081009	 0.090305
H	-1.9283579613	-0.0883487013	 1.0229981653	 0.064753
H	-2.0314376787	-0.1903374048	-1.9490546352	 0.095182
H	-1.3304256158	-2.9910454253	 0.7305730026	 0.087434
H	-3.3550353198	-2.5459700677	-1.1901229211	 0.092489
H	-4.6502042566	-2.1420062253	 0.8759017696	 0.089566
H	-3.8869441518	-0.5621043789	 1.1102013142	 0.090146
H	-5.9009172792	-0.4403670431	-0.0803109016	 0.288502
55.6607	84.9107	157.1436	166.5999	205.8328	242.931	281.3089	341.5874	400.2184	438.9004	577.242	636.7114	735.016	766.8213	803.0091	846.6461	869.061	896.1516	914.7939	961.4791	1032.9971	1056.021	1065.1069	1071.7778	1080.4848	1107.7885	1141.5651	1150.2587	1166.8524	1193.7565	1201.8134	1252.4087	1253.8046	1267.6773	1274.8574	1290.1936	1350.0808	1383.6867	1409.9872	1423.3723	1466.4809	1490.2607	1499.6107	1506.0394	1523.2783	2970.1991	3011.3938	3022.3303	3029.6501	3065.6826	3083.7769	3094.8886	3101.7079	3104.0366	3106.9219	3121.0545	3827.533
CCC1C2OC1C2CO	CC[C@H]1[C@H]2O[C@@H]1[C@H]2CO	
InChI=1S/C7H12O2/c1-2-4-6-5(3-8)7(4)9-6/h4-8H,2-3H2,1H3	InChI=1S/C7H12O2/c1-2-4-6-5(3-8)7(4)9-6/h4-8H,2-3H2,1H3/t4-,5-,6+,7-
