17
gdb 32649	1.98259	1.8538	1.03217	3.9957	84.84	-0.2152	-0.013	0.2023	1153.3406	0.136313	-380.882194	-380.873591	-380.872647	-380.916036	31.729	
C	-0.0812090479	 1.5557659314	-0.0130024017	-0.376367
C	 0.069034425	 0.0333350902	 0.0038771814	-0.165138
N	 0.7064541321	-0.4856097482	-1.2003731076	-0.037674
C	 0.0860743108	-0.8153276162	-2.377336324	-0.121764
C	 1.0861000077	-1.1989579105	-3.2389369659	-0.108246
N	 2.3051220856	-1.1123004582	-2.6316145929	-0.312025
C	 2.0551483134	-0.6770776642	-1.4039128867	 0.188109
C	 3.0115162913	-0.4280304748	-0.3929539511	 0.267545
C	 3.8082069584	-0.2062756966	 0.4828745585	-0.42966
H	 0.8979977916	 2.0377628806	-0.0758813652	 0.143141
H	-0.6819204651	 1.8820953145	-0.8668702049	 0.129485
H	-0.5738290473	 1.8935413509	 0.903796974	 0.124106
H	 0.6776607848	-0.279280768	 0.8559286542	 0.140304
H	-0.9063790713	-0.4527035209	 0.0994046269	 0.123373
H	-0.9847542938	-0.7547847256	-2.4854956347	 0.128464
H	 0.9882874314	-1.5375672683	-4.2592727718	 0.109838
H	 4.5259690433	-0.0184967262	 1.2426429117	 0.196506
42.8747	127.8761	150.3902	170.1223	220.8993	348.3377	376.1649	473.358	545.9554	555.9692	602.6126	645.7497	685.5195	698.5996	732.6616	754.3471	795.2944	855.0699	932.3553	967.8792	1081.2284	1104.851	1112.9503	1170.3542	1218.4062	1283.9329	1311.6722	1390.1711	1409.9955	1412.2481	1433.7183	1476.0071	1489.812	1498.1472	1507.6192	1536.2577	2229.8965	3045.0056	3062.4977	3105.4039	3120.5176	3132.0394	3246.1603	3272.27	3501.2022
CCN1C=CN=C1C#C	CCn1ccnc1C#C	
InChI=1S/C7H8N2/c1-3-7-8-5-6-9(7)4-2/h1,5-6H,4H2,2H3	InChI=1S/C7H8N2/c1-3-7-8-5-6-9(7)4-2/h1,5-6H,4H2,2H3
