19
gdb 38805	3.11417	1.8558	1.57597	1.7587	78.1	-0.2398	0.0118	0.2516	908.9415	0.163648	-385.885773	-385.879572	-385.878628	-385.915909	27.05	
C	 0.0171624695	 1.5737643572	 0.1153781091	-0.233046
C	 1.5365080838	 1.8033158472	 0.0408086124	 0.059626
O	 2.0296651706	 0.8062785383	 0.9855780976	-0.303376
C	 1.5879403431	-0.1421126965	-0.0249360405	 0.063819
C	 2.0025427458	 0.8580563853	-1.1235397901	-0.040314
C	 1.2913419702	 0.7679246746	-2.4363331524	-0.085131
C	 0.1259418472	 0.1258460473	-2.54568476	-0.062873
C	-0.577804153	-0.4726240837	-1.3522677131	-0.281773
C	 0.0431117661	 0.014194962	-0.0337967817	-0.02029
H	-0.3761293024	 1.9016267942	 1.0795935691	 0.105082
H	-0.5352326606	 2.0711808546	-0.685897823	 0.100399
H	 1.9386996058	 2.8044622726	 0.1974930168	 0.075506
H	 2.0164851944	-1.1400446603	 0.0707893132	 0.074516
H	 3.0884411192	 0.9088073356	-1.2188340797	 0.082424
H	 1.7618279229	 1.2105833235	-3.3100715659	 0.086829
H	-0.3595791427	 0.0303380478	-3.5137289209	 0.089662
H	-1.6413676678	-0.1997953767	-1.3791725307	 0.10959
H	-0.5592164701	-1.5710422926	-1.4134890555	 0.107234
H	-0.4132872718	-0.4886490106	 0.8216008155	 0.072114
232.0259	280.5059	342.5086	449.2164	489.7085	503.3811	576.033	687.9761	727.7709	777.2517	809.9468	851.6243	862.8948	876.244	902.3017	919.2542	965.0707	977.1532	982.2995	996.6138	1012.6797	1051.1378	1061.6001	1093.2529	1116.9858	1145.4415	1181.612	1200.9515	1225.4605	1236.0918	1266.782	1288.3627	1305.4104	1316.2273	1334.5291	1365.8334	1380.8992	1417.0245	1474.2821	1480.4078	1705.4361	2998.4875	3029.8036	3068.5394	3081.9511	3100.2823	3116.8959	3121.0207	3123.7055	3149.3581	3172.8812
C1C2OC3C2C=CCC13	C1[C@H]2O[C@@H]3[C@H]2C=CC[C@H]13	
InChI=1S/C8H10O/c1-2-5-4-7-6(3-1)8(5)9-7/h1,3,5-8H,2,4H2	InChI=1S/C8H10O/c1-2-5-4-7-6(3-1)8(5)9-7/h1,3,5-8H,2,4H2/t5-,6+,7-,8+/m1/s1
