17
gdb 96298	2.18081	1.91858	1.17876	4.961	65.02	-0.2728	0.0251	0.2979	1049.1914	0.135964	-496.136266	-496.128121	-496.127177	-496.169678	30.098	
C	 0.2951863527	 1.3890711107	 0.2909090778	-0.393361
C	-0.1768986971	 0.0096760665	-0.1193364189	 0.184132
O	 0.7583965214	-0.53276888	-0.9910702089	-0.224615
C	 0.3770014872	-1.751379764	-1.6157660956	-0.0866
C	-0.0921871478	-2.7881381337	-0.5920783459	-0.099896
O	 0.7438879792	-2.7567028712	 0.565111663	-0.230915
C	 0.6088287134	-1.714683673	 1.4172260546	 0.47219
O	 1.2231432018	-1.6647816913	 2.4371359712	-0.347763
O	-0.3499037045	-0.8057219081	 1.0720472127	-0.281507
H	 1.287393136	 1.317359665	 0.7431531636	 0.150296
H	 0.3471135265	 2.039526642	-0.5860639297	 0.128386
H	-0.3975343544	 1.8157752141	 1.0185382031	 0.138369
H	-1.1784984122	 0.0363411251	-0.5735975194	 0.088139
H	-0.4131844332	-1.5830568995	-2.3628525034	 0.106967
H	 1.2763252545	-2.0959861966	-2.1313345404	 0.133411
H	-1.1332816038	-2.6238646598	-0.300988565	 0.131927
H	 0.0016505603	-3.7962542261	-1.0023386288	 0.130839
45.0526	97.2847	225.7304	252.5248	296.0774	300.9573	379.6036	421.11	531.348	549.4532	652.9427	669.4018	747.4141	830.391	862.588	908.3528	921.2963	966.2218	1055.8291	1078.4709	1106.9326	1136.2106	1152.1617	1182.0679	1201.8096	1282.6094	1307.5493	1387.3294	1394.2862	1410.3818	1417.5709	1423.9395	1482.6395	1485.3697	1494.2296	1501.8447	1884.8732	2997.5875	3002.5217	3057.3074	3066.0495	3102.9182	3125.1777	3137.6009	3148.4528
CC1OCCOC(=O)O1	C[C@H]1OCCOC(=O)O1	
InChI=1S/C5H8O4/c1-4-7-2-3-8-5(6)9-4/h4H,2-3H2,1H3	InChI=1S/C5H8O4/c1-4-7-2-3-8-5(6)9-4/h4H,2-3H2,1H3/t4-/m0/s1
