15
gdb 44731	2.46699	1.72751	1.20884	4.107	70.25	-0.2685	0.0009	0.2695	1010.4106	0.112117	-420.598364	-420.590793	-420.589849	-420.630839	28.632	
O	-0.4580179755	 0.2184348455	 0.2257680463	-0.318308
C	-0.1425446162	 1.3162524089	-0.0932471177	 0.469818
O	-0.8639383546	 2.2112629891	-0.860949445	-0.254389
C	 0.2083790632	 3.2024424156	-0.811739105	 0.110546
C	 0.0114049495	 4.2008771525	 0.3435027789	-0.259493
C	 0.8771653451	 3.2760210299	 1.2789332953	-0.190124
C	 0.2970894797	 2.7985652457	 2.5149840808	 0.333263
C	-0.2053344135	 2.4031070851	 3.5326848441	-0.444492
C	 1.0447117353	 2.2591086502	 0.0849385699	-0.252974
H	 0.4821974237	 3.5408556515	-1.8089762204	 0.105628
H	 0.4649143177	 5.179476438	 0.1765158377	 0.120596
H	-1.0297963608	 4.3250055737	 0.6416009981	 0.137412
H	 1.8441109277	 3.7462517521	 1.4786080421	 0.121488
H	-0.6465089827	 2.0432059407	 4.4291361059	 0.205891
H	 2.0384514715	 1.8696910916	-0.1226793112	 0.115138
73.9307	106.6075	194.863	252.2398	374.1279	460.4522	499.5365	511.2233	618.044	639.9626	646.2073	713.0627	777.1591	823.7224	873.4565	877.8546	915.3342	969.0061	1004.0518	1034.3293	1074.8996	1098.1058	1124.7189	1168.9748	1190.7495	1228.4789	1269.2209	1285.4474	1318.4542	1345.5775	1465.9426	1943.3781	2239.5019	3064.0865	3085.3601	3137.4899	3150.4995	3153.6107	3503.9576
O=C1OC2CC(C#C)C12	O=C1O[C@H]2C[C@@H](C#C)[C@@H]12	
InChI=1S/C7H6O2/c1-2-4-3-5-6(4)7(8)9-5/h1,4-6H,3H2	InChI=1S/C7H6O2/c1-2-4-3-5-6(4)7(8)9-5/h1,4-6H,3H2/t4-,5+,6-/m1/s1
