18
gdb 111472	2.40009	1.69232	1.14229	4.7296	71.69	-0.2368	0.0555	0.2922	1095.281	0.148278	-439.118784	-439.110569	-439.109625	-439.152281	30.627	
C	-0.1697791407	 1.5575345068	-0.1495664685	-0.380734
C	 0.0906630832	 0.053977134	-0.0249885148	-0.15906
N	 0.69323524	-0.5342026243	-1.2071929961	-0.124518
C	 0.049049748	-0.6840745232	-2.4740567865	-0.034349
C	 0.569375295	 0.1810084317	-3.6120960731	-0.340185
C	 1.1579845746	-1.1819568033	-3.3528950044	 0.081285
O	 2.3200982093	-1.2622888024	-2.558430814	-0.24653
C	 2.0319733132	-0.8446231217	-1.2752088101	 0.476094
O	 2.8574492264	-0.7688650842	-0.4064385116	-0.401258
H	 0.7666595481	 2.1006774559	-0.3069044314	 0.134464
H	-0.8412976838	 1.7790658962	-0.984955386	 0.122804
H	-0.635053927	 1.9352897462	 0.7661055763	 0.122584
H	 0.7834800402	-0.1482322054	 0.7952764139	 0.148891
H	-0.8461153105	-0.4753575587	 0.1912916941	 0.106378
H	-0.9580685518	-1.0867222062	-2.4724426826	 0.111671
H	-0.0574453432	 0.2708381463	-4.49292928	 0.125805
H	 1.1597768391	 1.05608007	-3.3640124501	 0.134572
H	 1.0721869199	-1.9931219476	-4.0638003551	 0.122084
54.008	85.2524	162.953	217.2392	308.8839	319.7978	378.4224	486.9433	530.9535	632.35	717.4476	757.4822	763.6482	785.6667	814.295	830.5937	946.607	979.7892	986.617	1017.7424	1056.691	1069.8625	1095.8385	1111.4358	1140.7311	1151.8865	1200.3964	1262.7274	1268.343	1370.3177	1388.0129	1398.9576	1412.3405	1429.0444	1463.4511	1480.8326	1492.6959	1504.1226	1872.7841	3025.2515	3039.9401	3101.9101	3115.9492	3124.1075	3134.116	3165.3217	3201.5464	3231.1492
CCN1C2CC2OC1=O	CCN1[C@H]2C[C@H]2OC1=O	
InChI=1S/C6H9NO2/c1-2-7-4-3-5(4)9-6(7)8/h4-5H,2-3H2,1H3	InChI=1S/C6H9NO2/c1-2-7-4-3-5(4)9-6(7)8/h4-5H,2-3H2,1H3/t4-,5+/m0/s1
