19
gdb 55339	2.10838	1.53466	1.07617	4.2489	76.66	-0.2362	-0.0272	0.209	1184.4041	0.156772	-423.045001	-423.035523	-423.034579	-423.080274	33.619	
C	-0.075772877	 1.4888639046	-0.2571294331	-0.481146
C	 0.0211686651	 0.0164868373	 0.087602139	 0.400937
O	 1.0827762382	-0.5227169076	 0.3180771374	-0.308947
C	-1.2782603053	-0.7621630908	 0.0846308694	-0.12408
C	-1.5089204828	-1.4297313511	-1.3202086397	-0.227777
C	-0.9613756953	-2.7619930597	-0.746736603	-0.242756
C	-1.1597792172	-2.2020126846	 0.683726255	-0.060171
C	-0.1062009326	-2.452865161	 1.7453612652	 0.147732
O	-0.2021186349	-2.0454550758	 2.8752280426	-0.270603
H	 0.919545506	 1.9041191642	-0.4179466077	 0.146519
H	-0.7001948365	 1.6464848221	-1.1429255907	 0.138658
H	-0.5593558375	 2.0200827442	 0.5713951683	 0.151866
H	-2.1002066838	-0.1423876017	 0.4498974799	 0.090053
H	-2.5728743334	-1.479708043	-1.5619664815	 0.113871
H	-0.9781827477	-0.9912137914	-2.1689622542	 0.110678
H	-1.4991464852	-3.6749199774	-1.0094456171	 0.105429
H	 0.100068299	-2.8969291236	-0.9721426975	 0.125493
H	-2.1267243732	-2.4910319191	 1.1069743965	 0.104884
H	 0.7531358042	-3.0794717256	 1.4221525212	 0.07936
39.8184	95.9376	106.151	138.8555	184.7072	214.8681	244.1991	342.2441	405.1808	492.6992	586.7591	619.1297	676.0938	762.5367	801.5103	878.6101	913.3818	923.9052	963.5833	983.7841	993.9148	1039.9844	1080.9708	1104.1228	1121.2575	1189.3266	1201.5367	1222.7807	1237.3059	1264.0961	1273.6398	1322.0168	1363.5621	1385.3936	1417.4659	1462.3524	1474.9994	1480.9874	1496.9786	1792.0341	1818.9724	2893.3209	3036.2837	3061.7817	3064.5818	3066.9139	3084.5947	3097.6167	3110.5681	3127.3453	3154.3807
CC(=O)C1CCC1C=O	CC(=O)[C@H]1CC[C@H]1C=O	
InChI=1S/C7H10O2/c1-5(9)7-3-2-6(7)4-8/h4,6-7H,2-3H2,1H3	InChI=1S/C7H10O2/c1-5(9)7-3-2-6(7)4-8/h4,6-7H,2-3H2,1H3/t6-,7+/m0/s1
