19
gdb 32529	2.48493	1.33295	0.88124	1.7846	80.31	-0.1653	0.0624	0.2277	1326.8969	0.159327	-419.214251	-419.204492	-419.203547	-419.249103	35.106	
C	 0.0780370842	 1.3220226734	 0.1629852641	-0.318253
N	-0.2052814399	-0.0745525894	-0.1038619862	-0.392985
C	 0.5272915822	-0.6917431219	-1.1223326068	 0.191803
C	 1.2043909107	-0.1238653849	-2.1818376614	-0.159437
N	 1.724164908	-1.1458911229	-2.948745304	-0.267157
C	 1.4045526576	-2.3642674023	-2.3954088053	-0.208105
C	 0.6632790166	-2.1059332618	-1.2627763833	 0.260515
O	 0.1191246671	-2.9581407362	-0.3474381807	-0.275634
C	 0.3615439082	-4.327346807	-0.5845551291	-0.243026
H	 1.1465504481	 1.532792405	 0.3419007629	 0.100676
H	-0.2416315559	 1.9346119147	-0.6884624547	 0.123606
H	-0.4944691406	 1.6479490281	 1.0350879414	 0.116702
H	-0.22317028	-0.6456376381	 0.7299598946	 0.235474
H	 1.348835639	 0.9078224903	-2.4530064546	 0.108685
H	 2.2543058477	-1.0200188172	-3.7899111307	 0.256166
H	 1.7239606675	-3.2891967986	-2.8427893132	 0.114331
H	 1.4387429203	-4.5480108279	-0.585523448	 0.11356
H	-0.1210173558	-4.882168589	 0.2223329064	 0.127407
H	-0.0620906049	-4.6461881044	-1.5476199612	 0.115674
67.8859	98.9709	133.7339	154.1748	198.1782	233.6545	250.759	294.5333	341.8294	410.7044	559.9178	575.7784	591.5655	606.5014	672.496	695.4275	720.4015	773.9414	905.954	1044.0679	1070.3559	1099.599	1139.8156	1159.4043	1172.6947	1182.8659	1214.6369	1230.3672	1276.8944	1361.4424	1403.4092	1460.0617	1471.7979	1477.5579	1482.4718	1483.5767	1507.9988	1511.091	1525.6827	1601.1869	1654.1482	2954.4724	2988.3247	3039.2977	3048.39	3110.5809	3126.6911	3276.7371	3281.0223	3578.1564	3715.2603
CNC1=CNC=C1OC	CNc1c[nH]cc1OC	
InChI=1S/C6H10N2O/c1-7-5-3-8-4-6(5)9-2/h3-4,7-8H,1-2H3	InChI=1S/C6H10N2O/c1-7-5-3-8-4-6(5)9-2/h3-4,7-8H,1-2H3
