18
gdb 50209	3.65809	1.41683	1.27918	2.4922	74.22	-0.2342	-0.0273	0.2069	1014.1062	0.149256	-401.911357	-401.904263	-401.903319	-401.943161	28.023	
O	-0.5400248688	 0.6267352052	-0.6165887293	-0.242513
C	 0.1826118622	 0.9579232565	 0.2890213656	 0.141629
C	 1.3289341787	 1.9395009096	 0.1628694775	-0.049554
C	 1.3825366448	 2.7787638382	-1.1428502219	-0.269254
C	 1.9027340808	 4.1153054221	-0.6210373829	-0.047644
C	 1.0886090782	 4.8537235531	 0.4396365646	-0.082745
C	 0.1758618261	 3.8620414713	 1.1413314247	-0.194737
N	 1.3383938239	 2.8990268842	 1.2941095276	-0.144914
C	 2.2589938672	 3.9839354703	 0.8328671554	-0.040776
H	 0.0581370103	 0.5443488617	 1.3142025561	 0.091696
H	 2.2468889084	 1.3395172456	 0.2617091474	 0.102968
H	 2.0618578424	 2.3434577178	-1.88073552	 0.107093
H	 0.3964358674	 2.8434558591	-1.6110827882	 0.123434
H	 2.5175275241	 4.7450130666	-1.2539531617	 0.092024
H	 1.0084253745	 5.9338459637	 0.4517580832	 0.091805
H	-0.1527046266	 4.2017537061	 2.1269373146	 0.114843
H	-0.6875386433	 3.4668846417	 0.5925679072	 0.112661
H	 3.2071739695	 4.1853030371	 1.3142461099	 0.093985
75.7514	148.0878	216.3027	321.5238	410.7797	439.7275	577.0052	674.3953	699.4742	741.7534	789.8421	795.4825	813.6649	876.5661	917.2461	944.785	971.2933	992.3074	1001.803	1027.3825	1049.2171	1071.5372	1073.4367	1105.0552	1111.4982	1127.7071	1189.0172	1197.665	1229.5056	1275.5299	1286.8384	1315.3881	1319.828	1345.4435	1390.8285	1411.6936	1498.2667	1516.3881	1826.8814	2893.5724	2993.2375	3030.4017	3062.8628	3091.7794	3102.3925	3179.9283	3184.2858	3200.3806
O=CC1CC2C3CN1C23	O=C[C@H]1C[C@H]2[C@H]3CN1[C@@H]23	
InChI=1S/C7H9NO/c9-3-4-1-5-6-2-8(4)7(5)6/h3-7H,1-2H2	InChI=1S/C7H9NO/c9-3-4-1-5-6-2-8(4)7(5)6/h3-7H,1-2H2/t4-,5+,6-,7+/m1/s1
