20
gdb 104793	2.39052	1.53171	1.13897	2.7089	74.63	-0.2351	0.0741	0.3091	1133.9059	0.170104	-440.217054	-440.20794	-440.206996	-440.25092	34.263	
C	-1.3625829698	-0.422792843	 0.0905931909	-0.252688
O	-0.0591596028	 0.0619805101	-0.1728341612	-0.299977
C	 0.673644273	-0.6673060957	-1.1450042406	 0.402064
C	 0.3487428131	-0.1088021773	-2.5302460396	-0.099758
O	 0.6049075481	 1.2788113715	-2.5811884637	-0.425727
C	 2.2100851756	-0.693442018	-0.8371834794	-0.284818
C	 2.1364613685	-2.2217211705	-0.8685235943	-0.036401
N	 1.2130330616	-2.6119516547	 0.2215785296	-0.329085
C	 0.6630823925	-2.2044380227	-1.0955480606	-0.154704
H	-2.0049074118	-0.4175191908	-0.8020763144	 0.103478
H	-1.3289232967	-1.4400948623	 0.4991473117	 0.129766
H	-1.801450984	 0.244591321	 0.8359748344	 0.12792
H	 0.971662958	-0.5892993032	-3.291893685	 0.104325
H	-0.7032629252	-0.3335747327	-2.7783132277	 0.080461
H	 0.2493574157	 1.6335269374	-1.7558103823	 0.286785
H	 2.8011292908	-0.2413887077	-1.6346911678	 0.117725
H	 2.4855350417	-0.2703662634	 0.1298725687	 0.115898
H	 2.873773149	-2.9183966211	-1.2465154462	 0.096161
H	 1.1855776638	-3.6317985895	 0.2398022716	 0.229123
H	 0.0359953288	-2.8753630574	-1.6713578341	 0.089452
80.7244	112.1955	146.2129	170.9668	226.5269	245.1802	349.9807	377.4978	426.911	449.5001	492.0266	611.1776	679.1834	772.5026	811.1585	840.3458	885.1546	910.1662	938.0641	976.1351	1006.7179	1057.964	1085.9334	1089.3307	1092.5241	1113.2756	1145.216	1161.2488	1181.7319	1213.1844	1217.7375	1238.2611	1260.8424	1297.1261	1326.4998	1365.4443	1385.4231	1435.6617	1471.0573	1477.9189	1489.1194	1504.6411	1512.9814	2952.6687	2994.2041	3060.8916	3071.65	3084.1339	3118.5022	3146.8637	3175.8979	3198.7119	3464.5295	3767.4342
COC1(CO)CC2NC12	CO[C@@]1(CO)C[C@H]2N[C@@H]12	
InChI=1S/C6H11NO2/c1-9-6(3-8)2-4-5(6)7-4/h4-5,7-8H,2-3H2,1H3	InChI=1S/C6H11NO2/c1-9-6(3-8)2-4-5(6)7-4/h4-5,7-8H,2-3H2,1H3/t4-,5-,6-/m1/s1
