18
gdb 47809	2.12195	1.94745	1.17445	4.7244	71.31	-0.2278	-0.0294	0.1985	1053.2936	0.148904	-439.065605	-439.057762	-439.056817	-439.098164	30.102	
O	-0.0056684544	-0.0622326695	-0.1935787138	-0.284129
C	-0.0210953431	 1.1328900277	-0.0497056679	 0.375749
C	-1.3130622073	 1.9537222263	 0.0232516136	-0.258668
N	-1.6446617039	 2.2212952394	 1.425884595	-0.287279
C	-0.8394508641	 3.2270996171	 2.1178586995	-0.161692
C	 0.5671036968	 2.7069928775	 2.4665035154	-0.227827
C	 1.5201881692	 2.7377090228	 1.2856758851	 0.057458
O	 2.2493022624	 1.5374953271	 0.976813506	-0.240436
C	 1.2458201923	 1.9627992402	 0.0696137495	-0.052235
H	-1.1921479005	 2.8764386613	-0.5780573928	 0.085135
H	-2.1133495824	 1.350378334	-0.4115627279	 0.124475
H	-2.623155913	 2.4744113938	 1.4830423192	 0.22946
H	-0.7516810306	 4.1727542194	 1.5482295806	 0.079884
H	-1.3645297889	 3.4648619642	 3.048285051	 0.107932
H	 0.9860109239	 3.3048344122	 3.2826276131	 0.104674
H	 0.4790477256	 1.6763292991	 2.8239192557	 0.136968
H	 2.1101791695	 3.6478128801	 1.1729279227	 0.096102
H	 1.6076182485	 2.3403392274	-0.8911014839	 0.114427
67.4799	158.4305	202.402	279.0534	313.6352	373.4145	398.032	459.6546	523.616	570.7722	640.6703	713.0153	777.5053	849.7845	875.5618	923.1868	947.9831	959.0816	989.3896	1053.064	1079.7256	1097.9137	1136.2087	1156.1631	1159.6444	1215.097	1256.8974	1279.4533	1309.7895	1327.4306	1356.2614	1381.7312	1414.5071	1466.7142	1474.1449	1477.2834	1491.4593	1501.7585	1835.4108	2906.4044	2913.8289	3047.4238	3067.595	3073.6354	3094.3574	3103.2402	3111.2798	3550.3803
O=C1CNCCC2OC12	O=C1CNCC[C@H]2O[C@@H]12	
InChI=1S/C6H9NO2/c8-4-3-7-2-1-5-6(4)9-5/h5-7H,1-3H2	InChI=1S/C6H9NO2/c8-4-3-7-2-1-5-6(4)9-5/h5-7H,1-3H2/t5-,6+/m1/s1
