19
gdb 40382	3.80164	1.34185	1.19922	2.1769	78.49	-0.2181	0.0666	0.2847	1087.6531	0.160478	-381.947809	-381.940294	-381.93935	-381.979891	30.208	
C	-0.4798839689	 1.1593895117	-0.3703368415	-0.228231
N	 0.7808618922	 1.3508084852	 0.3680635938	-0.311573
C	 0.283497122	-0.0155080833	 0.1195018874	-0.154941
C	-0.1664743463	-0.7778904779	 1.3158806268	 0.344302
C	-1.4077108676	-1.5822916015	 1.3449182732	-0.292207
N	-1.3470470609	-0.3357082063	 2.1384240279	-0.177526
C	-0.4866819157	-0.5368128003	 3.373567589	 0.015274
C	 0.1532278821	-1.8800398856	 3.5887174284	-0.315296
C	 0.7264709276	-0.9312588569	 2.5711437144	-0.114782
H	-1.3668582938	 1.460265603	 0.1775001578	 0.141315
H	-0.4973405889	 1.3511484573	-1.4398622815	 0.107194
H	 1.5314563427	 1.5642289569	-0.2838092286	 0.22961
H	 0.8126689014	-0.6100584255	-0.6251966297	 0.084648
H	-2.0717776839	-1.4772164701	 0.4913077056	 0.119716
H	-1.4655189956	-2.5509767985	 1.8270648778	 0.118203
H	-0.6029483505	 0.1955729805	 4.1614144545	 0.104925
H	 0.7261860791	-1.9224434105	 4.5108992671	 0.117954
H	-0.3056943187	-2.8284096073	 3.3327306963	 0.112336
H	 1.7307363536	-0.5338876309	 2.6138442614	 0.099078
77.9087	143.802	185.2443	278.9767	427.4233	460.3467	479.9318	566.894	586.9284	706.2112	743.0597	793.7443	816.7063	874.8332	886.7129	899.2543	910.0132	933.0385	950.9215	970.3449	981.7157	1024.9841	1059.478	1065.5438	1089.064	1104.5222	1113.5706	1127.4867	1134.8645	1161.1167	1190.9693	1226.4401	1255.3916	1286.716	1290.0081	1322.3015	1364.5537	1448.1138	1475.0864	1503.6795	1521.3188	3102.2428	3115.4272	3120.5806	3132.5977	3194.8483	3199.3599	3210.6969	3211.5169	3215.975	3499.3419
C1NC1C12CN1C1CC21	C1N[C@H]1[C@]12CN1[C@H]1C[C@@H]21	
InChI=1S/C7H10N2/c1-4-5(1)9-3-7(4,9)6-2-8-6/h4-6,8H,1-3H2	InChI=1S/C7H10N2/c1-4-5(1)9-3-7(4,9)6-2-8-6/h4-6,8H,1-3H2/t4-,5+,6-,7-,9?/m1/s1
