20
gdb 112416	2.0145	1.48541	0.98706	3.619	76.47	-0.2516	0.0341	0.2857	1247.0155	0.171268	-440.308408	-440.299251	-440.298307	-440.342404	34.282	
C	-0.5645890324	 1.4976394659	 0.0299639475	-0.41192
C	 0.1245283612	 0.1448245027	-0.0242917721	 0.113773
O	 1.1943353898	 0.2113199208	-0.9958964695	-0.253473
C	 2.2038053615	-0.6490490411	-0.6577530429	 0.408651
N	 3.2452438136	-0.8364780842	-1.3468463766	-0.545915
C	 1.8687659503	-1.3172584764	 0.6574906241	-0.307644
C	 0.7930664368	-0.3962849009	 1.2582350021	-0.02612
C	 1.4148799315	 0.683683892	 2.144361744	-0.091492
O	 2.0411535234	 0.0209446044	 3.2327442889	-0.419915
H	 0.1315334209	 2.2920845892	 0.3108327418	 0.130381
H	-0.9795266859	 1.7445345335	-0.9508602001	 0.131832
H	-1.3862436151	 1.4776412504	 0.7527201221	 0.122926
H	-0.5946332337	-0.6067442548	-0.3805471559	 0.086776
H	 3.2123580851	-0.274597161	-2.1997814886	 0.21736
H	 1.4685389948	-2.3174184144	 0.4569140016	 0.125208
H	 2.7464375611	-1.4316534854	 1.2922615145	 0.149528
H	 0.0707189581	-0.9519086676	 1.862801568	 0.086453
H	 2.1419863681	 1.2743712368	 1.5649752195	 0.10254
H	 0.635888774	 1.37342215	 2.5013896375	 0.090587
H	 2.5210002669	 0.6743955302	 3.749539564	 0.290463
81.2557	114.1248	143.0334	200.4363	250.327	256.4183	288.0476	328.6536	424.0114	488.001	508.2933	531.397	653.4353	697.2834	828.8317	855.8983	878.0374	897.9861	933.5519	967.0081	999.5581	1064.5773	1069.0083	1095.0482	1104.5842	1120.3276	1162.9021	1196.1424	1230.3751	1253.6254	1289.17	1298.0486	1327.8528	1368.4819	1381.1854	1394.3829	1416.7221	1459.9552	1476.2514	1485.4064	1505.9994	1524.9577	1777.4737	2975.4332	2996.3675	3008.6635	3046.8421	3052.9647	3076.8097	3118.3129	3127.2092	3147.5924	3465.2995	3834.3715
CC1OC(=N)CC1CO	C[C@H]1O[C]([NH])C[C@H]1CO	
InChI=1S/C6H11NO2/c1-4-5(3-8)2-6(7)9-4/h4-5,7-8H,2-3H2,1H3	InChI=1S/C6H11NO2/c1-4-5(3-8)2-6(7)9-4/h4-5,7-8H,2-3H2,1H3/t4-,5+/m1/s1
