19
gdb 95427	2.81913	1.26477	0.97124	3.0767	79.48	-0.2281	-0.0563	0.1718	1241.356	0.160437	-419.244682	-419.236016	-419.235072	-419.278237	32.464	
C	-0.0731809756	 1.7183166111	-0.0221208361	-0.37853
C	 0.1495075352	 0.2102091501	 0.1532477873	 0.034464
C	 0.6702705768	-0.4762715987	-1.123212573	-0.225599
C	 2.1820554508	-0.255846938	-1.2969444028	-0.164684
N	 2.959599133	-0.6533183788	-0.1298172623	-0.2985
C	 2.3531719643	-0.5284591486	 0.9968055556	 0.27015
N	 1.0922040083	-0.0752453286	 1.2294018427	-0.338136
C	 3.1150972318	-0.9224233711	 2.2221117857	 0.135908
O	 2.6518448259	-0.8636664765	 3.3366742236	-0.279656
H	 0.843508471	 2.2179736644	-0.3500986649	 0.125876
H	-0.8551513323	 1.9042843165	-0.7660191616	 0.116283
H	-0.3843275491	 2.1773638669	 0.9213291549	 0.117633
H	-0.811726816	-0.244674895	 0.4242792901	 0.087516
H	 0.4800426784	-1.5529317773	-1.0528210569	 0.110923
H	 0.1227716199	-0.104004602	-1.9943416924	 0.1021
H	 2.5479227874	-0.8131184915	-2.165658419	 0.108747
H	 2.3878867565	 0.8044213161	-1.5101671946	 0.111945
H	 0.7890711264	-0.1001090936	 2.1916425427	 0.255406
H	 4.1406732374	-1.2738905855	 2.003334401	 0.108153
67.9357	105.8151	190.6734	220.2621	232.689	315.9913	372.8913	403.9401	449.8367	478.602	534.2031	607.1142	649.8955	736.7585	777.7163	878.3839	920.2575	950.4998	991.3982	1009.5942	1030.9662	1034.9029	1122.1379	1141.5968	1170.4301	1232.7598	1239.1297	1280.0754	1323.4872	1364.8784	1366.9714	1377.4343	1385.0882	1408.4997	1478.1091	1487.1543	1491.2067	1498.538	1541.3778	1702.2877	1803.3465	2973.4105	2991.5833	3016.8012	3034.2136	3044.2326	3063.3671	3091.5252	3107.1665	3113.2009	3613.3892
CC1CCN=C(N1)C=O	C[C@H]1CCN=C(N1)C=O	
InChI=1S/C6H10N2O/c1-5-2-3-7-6(4-9)8-5/h4-5H,2-3H2,1H3,(H,7,8)	InChI=1S/C6H10N2O/c1-5-2-3-7-6(4-9)8-5/h4-5H,2-3H2,1H3,(H,7,8)/t5-/m0/s1
