21
gdb 87627	2.45908	1.45162	1.09539	1.8463	84.76	-0.235	0.012	0.2469	1204.8488	0.181945	-387.095912	-387.086964	-387.08602	-387.129361	34.482	
C	-0.043570235	 1.6637363296	 0.1294862212	-0.423272
C	-0.2058449275	 0.174175689	 0.297582814	 0.001501
O	 0.8204234051	-0.6647453969	-0.2460416917	-0.313471
C	 0.6348107432	-0.6623401432	 1.1805759889	 0.394134
C	 1.7142391354	-0.1279990032	 2.0554364656	-0.146669
C	 1.7646111222	-0.7901811811	 3.2112464017	-0.08227
C	 0.7156196381	-1.8729785999	 3.2933783848	-0.282285
C	 0.1840272581	-1.9804035152	 1.838767418	-0.04649
C	-1.2980516153	-2.3270304926	 1.7258140157	-0.419194
H	 0.977109768	 1.9855519459	 0.3461316337	 0.124978
H	-0.2807899418	 1.956625749	-0.8988414307	 0.127855
H	-0.7274281804	 2.2000905325	 0.7964565973	 0.121024
H	-1.2145590469	-0.1903897594	 0.0948872561	 0.082672
H	 2.3490666568	 0.6988899673	 1.7635251797	 0.102252
H	 2.4491743344	-0.5756394131	 4.0244469268	 0.09804
H	 1.1119424797	-2.8240486037	 3.6669005861	 0.105937
H	-0.0870887323	-1.5823028244	 3.986667161	 0.106632
H	 0.7629523193	-2.7613800857	 1.3294698622	 0.095551
H	-1.924536437	-1.5637374289	 2.2005669203	 0.113839
H	-1.6063788637	-2.4202167634	 0.679596447	 0.126307
H	-1.5091226906	-3.2832720827	 2.2158791321	 0.112928
72.9571	155.4617	162.9933	200.9732	245.7111	277.3671	311.2753	406.7657	447.4061	479.0601	524.116	554.4695	671.2469	756.7145	772.4388	798.8358	882.6498	914.9187	932.9839	961.1572	971.7559	988.9034	1004.2867	1073.887	1094.4541	1116.1465	1136.1868	1145.263	1166.9311	1203.0154	1227.2258	1301.6342	1309.383	1324.2152	1368.3364	1387.4581	1408.109	1410.1827	1460.1599	1486.5055	1489.396	1495.1414	1503.36	1507.162	1678.2116	3003.6787	3024.5681	3029.2987	3037.7011	3056.2489	3088.3088	3096.7876	3098.0579	3101.8206	3132.8353	3188.8746	3219.8212
CC1OC11C=CCC1C	C[C@H]1O[C@]21C=CC[C@H]2C	
InChI=1S/C8H12O/c1-6-4-3-5-8(6)7(2)9-8/h3,5-7H,4H2,1-2H3	InChI=1S/C8H12O/c1-6-4-3-5-8(6)7(2)9-8/h3,5-7H,4H2,1-2H3/t6-,7-,8-/m1/s1
