18
gdb 53295	2.79471	1.06525	0.84898	1.476	81.47	-0.2372	0.022	0.2592	1397.6839	0.146228	-401.871461	-401.862006	-401.861062	-401.90772	32.974	
C	-0.0410359341	 1.4355833737	 0.3125977464	-0.502998
C	-0.053769628	-0.0167460628	 0.2385920897	 0.12697
C	-0.0838926613	-1.219371421	 0.1769414299	 0.074092
C	-0.080362357	-2.6517385945	 0.0855279591	-0.173197
O	-0.7539384858	-3.402027099	 1.1257213486	-0.250123
C	-1.2957018549	-3.456322955	-0.1887483371	 0.051015
C	-2.6595850887	-2.8683848517	-0.3821397762	-0.035884
C	-3.7325958538	-3.2353804113	 0.5801099958	-0.23605
N	-3.1825754144	-1.8707502147	 0.5510899701	-0.314132
H	 0.5436534377	 1.8652259135	-0.5080830163	 0.15326
H	-1.0563357234	 1.8411239642	 0.2489882303	 0.161102
H	 0.4019033001	 1.781815632	 1.2528007043	 0.153608
H	 0.8739993003	-3.0943823773	-0.1996733823	 0.114614
H	-1.1372157104	-4.407902097	-0.7022705615	 0.097974
H	-2.9217815753	-2.698716686	-1.4248991645	 0.097036
H	-4.7599631219	-3.3287969521	 0.240402964	 0.116915
H	-3.4573374386	-3.8838515768	 1.407649644	 0.12238
H	-2.5158088406	-1.7643264741	 1.3137024655	 0.243418
23.9077	61.2953	76.1776	135.4118	198.7808	231.3523	297.7423	333.3204	414.1054	508.7867	555.5707	649.8049	707.0697	812.4984	833.2175	863.9036	901.0158	946.4262	990.0201	1006.3758	1051.6	1051.9591	1100.9544	1115.2922	1132.1528	1142.1935	1187.5019	1189.6102	1265.2619	1281.0568	1306.5198	1382.2979	1410.3143	1413.2841	1448.0553	1473.857	1477.0687	1508.7336	2370.2189	3030.317	3077.4435	3092.0003	3095.9841	3109.038	3110.9229	3125.7805	3199.3991	3491.0538
CC#CC1OC1C1CN1	CC#C[C@H]1O[C@H]1[C@H]1CN1	
InChI=1S/C7H9NO/c1-2-3-6-7(9-6)5-4-8-5/h5-8H,4H2,1H3	InChI=1S/C7H9NO/c1-2-3-6-7(9-6)5-4-8-5/h5-8H,4H2,1H3/t5-,6-,7+/m1/s1
