21
gdb 114311	2.24374	1.32059	1.12025	2.5719	78.72	-0.2376	0.0644	0.302	1228.8248	0.181092	-424.182718	-424.173146	-424.172201	-424.216878	35.938	
C	 0.4502248041	 1.7336289639	-0.6061741583	-0.425571
C	 0.4716128923	 0.2360202882	-0.3825416857	-0.069066
C	 1.7187497756	-0.589533484	-0.3693759281	 0.039102
O	 2.7984329484	 0.1105564863	 0.2659407728	-0.321306
C	 2.1011673149	 0.0301475632	 1.5471486995	 0.085681
C	 2.1354760546	 1.3357877735	 2.3207413294	-0.095289
O	 3.4773332727	 1.7265658195	 2.5599405214	-0.421144
C	 0.8493477409	-0.5437500033	 0.8776909965	 0.200777
C	-0.0481517094	-1.5666960049	 1.5135153747	-0.49742
H	 1.4248733523	 2.1750318219	-0.391049019	 0.133231
H	 0.2137386332	 1.9503673106	-1.6535426722	 0.114847
H	-0.3034003165	 2.2317612811	 0.0129368868	 0.11649
H	-0.3391093779	-0.2920389696	-0.884680749	 0.087857
H	 1.9809172107	-1.3846561769	-1.0592909833	 0.100827
H	 2.594353493	-0.7445922426	 2.1518480082	 0.085975
H	 1.5738808426	 2.1216622555	 1.8007890036	 0.093958
H	 1.6693854214	 1.1866778206	 3.3016538303	 0.108259
H	 3.9130163275	 1.7390948256	 1.6995099521	 0.294685
H	-0.7453950859	-1.1042271007	 2.2226012709	 0.124257
H	-0.6483785216	-2.0881997115	 0.7612275396	 0.122356
H	 0.5308483168	-2.3203091564	 2.05956189	 0.121498
74.7129	141.9087	177.1993	180.3614	205.6821	239.9724	262.621	291.4476	356.8324	421.3313	470.6309	541.2057	583.2788	640.5207	748.117	775.4086	843.8477	904.4886	942.0635	965.2889	1003.2012	1029.3712	1061.2281	1070.1879	1080.2349	1104.5327	1119.1638	1130.4078	1164.2023	1215.3182	1235.9883	1254.4553	1306.4527	1332.3609	1354.2076	1401.1396	1408.5522	1419.1076	1433.2001	1471.6087	1487.3534	1493.1868	1497.4992	1501.6269	1512.2125	3001.6427	3021.4138	3028.6796	3035.5045	3072.8831	3079.1216	3090.4562	3096.8374	3110.8461	3134.9062	3168.5241	3795.5833
CC1C2OC(CO)C12C	C[C@H]1[C@H]2O[C@@H](CO)[C@@]12C	
InChI=1S/C7H12O2/c1-4-6-7(4,2)5(3-8)9-6/h4-6,8H,3H2,1-2H3	InChI=1S/C7H12O2/c1-4-6-7(4,2)5(3-8)9-6/h4-6,8H,3H2,1-2H3/t4-,5-,6+,7+/m0/s1
