21
gdb 35052	2.2858	1.45111	1.40614	0.781	87.45	-0.237	0.0457	0.2827	1101.2979	0.184592	-349.930347	-349.922097	-349.921152	-349.962843	33.209	
C	-0.3557264168	-1.1961416247	-0.200069694	-0.480873
C	-0.1927017845	-0.006548873	-0.1062193732	 0.355987
C	-0.0451268525	 1.4138745376	-0.0098335465	-0.222012
C	 0.4797645079	 2.0910413157	 1.2613238603	-0.049364
C	 0.9340699553	 1.2632381028	 2.4611818146	-0.225278
C	 2.4442044499	 0.9762550321	 2.4421770085	-0.18341
C	 2.8694814396	 0.3722687209	 1.0995248361	-0.203018
C	 2.6352914457	 1.3604425586	-0.0586900632	-0.218774
C	 1.312466129	 2.1085599142	 0.0040403284	-0.037202
H	-0.4930983315	-2.2450436017	-0.2893264835	 0.193684
H	-0.8271481097	 1.9626373139	-0.5280397334	 0.107664
H	-0.0382047173	 3.0128502842	 1.5065545619	 0.087824
H	 0.6667772965	 1.7941193867	 3.3801898426	 0.093229
H	 0.3902079786	 0.3109473897	 2.4838589054	 0.113765
H	 2.9986961986	 1.908774533	 2.6160282534	 0.089232
H	 2.7009138107	 0.2990113077	 3.2642231578	 0.089877
H	 3.9295266815	 0.0965099386	 1.1202427826	 0.087452
H	 2.3056248654	-0.549589948	 0.9249307466	 0.115406
H	 3.4313228449	 2.1160837196	-0.03289328	 0.097022
H	 2.7311587868	 0.8451908506	-1.0218569278	 0.102645
H	 1.3155021419	 3.0430766214	-0.5504742866	 0.086145
108.6449	124.2278	166.3444	282.2822	327.0658	351.9317	431.1131	468.7131	547.252	571.441	596.3882	644.3889	673.0433	720.4375	778.752	788.2992	821.2296	872.234	923.056	933.2269	947.905	1018.2242	1027.6483	1050.5502	1091.3846	1103.7748	1113.0571	1156.3939	1183.4687	1200.6665	1246.1368	1287.8189	1301.5495	1347.1393	1366.9963	1371.3044	1373.0601	1387.3225	1389.6711	1428.2526	1483.908	1489.1698	1490.3142	1503.2472	2226.5222	3012.4461	3016.7495	3030.8773	3040.9862	3053.5134	3065.0677	3074.9331	3090.476	3130.5413	3137.0018	3154.6479	3503.7419
C#CC1C2CCCCC12	C#C[C@H]1[C@H]2CCCC[C@@H]12	
InChI=1S/C9H12/c1-2-7-8-5-3-4-6-9(7)8/h1,7-9H,3-6H2	InChI=1S/C9H12/c1-2-7-8-5-3-4-6-9(7)8/h1,7-9H,3-6H2/t7-,8+,9-
