18
gdb 56681	2.14321	1.67016	1.15795	3.7371	70.98	-0.2603	0.0084	0.2688	1098.7457	0.145832	-439.076417	-439.067021	-439.066077	-439.110671	34.109	
C	-0.2071790111	 1.6253544764	-0.1221129065	-0.445906
C	 0.0160606389	 0.1232265542	-0.0846932638	 0.396108
C	 0.8592457143	-0.489608065	-1.2338540799	-0.345604
C	 1.8578518	-0.8525452488	-0.117015454	-0.067743
O	 1.011348696	-0.2535553349	 0.8948219234	-0.316594
C	-1.3098828054	-0.6089223111	 0.2397388231	-0.055215
O	-2.3357529411	-0.3349772974	-0.6951443529	-0.408372
C	-1.0935945248	-2.0632425073	 0.3800877397	 0.268794
N	-0.9373589047	-3.2075859702	 0.4202875349	-0.332245
H	 0.7254508316	 2.1390305411	-0.3687548996	 0.122491
H	-0.9673873167	 1.8844408768	-0.8636314604	 0.134224
H	-0.5437267729	 1.9812332656	 0.8572416616	 0.129834
H	 0.414429089	-1.3428217549	-1.7501132162	 0.116931
H	 1.2137665454	 0.2327565227	-1.9699384032	 0.1171
H	 1.9996482925	-1.9229372949	 0.0598559297	 0.13037
H	 2.8334284463	-0.3573644328	-0.1687372422	 0.110295
H	-1.6681904811	-0.2276729266	 1.2024942312	 0.147096
H	-2.1067073864	-0.7593983029	-1.5303404451	 0.298436
63.1484	105.1043	156.2512	192.8175	220.7214	241.5844	297.5763	330.6658	357.3574	383.4802	448.9123	561.1778	607.1806	701.0896	793.1081	845.5503	882.2489	911.847	969.556	1001.1254	1006.0395	1020.3826	1075.6671	1138.1858	1164.1503	1192.0344	1214.6712	1249.7852	1263.0439	1278.5426	1332.5195	1359.7375	1402.3854	1409.6489	1481.5522	1487.2342	1493.2772	1527.5388	2354.2952	3038.2447	3042.7579	3063.7177	3078.0386	3088.2224	3114.9771	3130.7731	3135.8349	3799.1846
CC1(CCO1)C(O)C#N	C[C@]1(CCO1)[C@@H](O)C#N	
InChI=1S/C6H9NO2/c1-6(2-3-9-6)5(8)4-7/h5,8H,2-3H2,1H3	InChI=1S/C6H9NO2/c1-6(2-3-9-6)5(8)4-7/h5,8H,2-3H2,1H3/t5-,6-/m0/s1
