16
gdb 36029	1.8716	1.64406	1.03149	7.2109	72.31	-0.2794	0.0056	0.285	1156.9353	0.124074	-396.925749	-396.916805	-396.915861	-396.960652	31.546	
N	-1.5541584071	 0.1492929174	 0.4211368337	-0.29766
C	-0.8427507364	 0.9273852418	-0.0507570352	 0.281052
C	 0.0293590722	 1.9680927104	-0.601153949	-0.435936
C	 1.4302884063	 1.9860263056	 0.0225346222	 0.318405
C	 2.48313478	 1.1159871237	-0.6617691758	-0.388746
C	 2.0979412293	-0.2875998167	-0.8136689251	 0.266549
N	 1.7951847604	-1.3929168264	-0.9585083137	-0.29466
C	 1.8841085662	 3.2455147889	 0.6727242182	-0.282095
N	 1.5582492736	 2.0583881354	 1.4764316702	-0.320251
H	 0.0961428182	 1.8397203539	-1.687146915	 0.165706
H	-0.4641006672	 2.9309694332	-0.4315054226	 0.159582
H	 2.7076463759	 1.5183802528	-1.6573355914	 0.153564
H	 3.4039180993	 1.163094045	-0.0733342802	 0.169034
H	 2.9363642713	 3.517519123	 0.6627461117	 0.130184
H	 1.2009709194	 4.0908922396	 0.6714598235	 0.124754
H	 0.6495655287	 2.1418540625	 1.9256615585	 0.250518
39.4571	58.0112	117.2542	156.2848	311.7761	340.6616	357.6164	374.9432	386.8927	398.1304	522.7444	563.7267	769.3802	852.1373	889.2745	905.1459	918.1516	958.9503	975.2341	995.9615	1007.32	1085.2317	1150.2798	1207.0979	1225.79	1247.0624	1313.4935	1326.1551	1355.8459	1405.2992	1451.4084	1460.8348	1518.3284	2365.3213	2366.0238	3041.2289	3048.7296	3087.94	3100.0198	3107.2286	3191.6497	3508.0341
N#CCC1(CC#N)CN1	N#CCC1(CC#N)CN1	
InChI=1S/C6H7N3/c7-3-1-6(2-4-8)5-9-6/h9H,1-2,5H2	InChI=1S/C6H7N3/c7-3-1-6(2-4-8)5-9-6/h9H,1-2,5H2
