20
gdb 32589	2.86988	1.19327	0.90994	1.0744	83.49	-0.1753	0.0646	0.2399	1343.8628	0.170177	-403.191236	-403.181377	-403.180433	-403.226221	36.046	
C	-0.0320260099	 1.5886529284	-0.0099279238	-0.373392
C	-0.0202027505	 0.0574344181	-0.0029410685	-0.151329
N	-1.3509265837	-0.5259340954	 0.0072508137	-0.040343
C	-2.0810785993	-0.9351247569	-1.1006422089	-0.213688
C	-3.3154094631	-1.3642682093	-0.6846173069	 0.2941
C	-4.4109337518	-1.9051135306	-1.552014468	-0.495916
C	-3.3555924156	-1.2050229007	 0.7401323604	-0.417166
C	-2.1377840319	-0.6884319674	 1.111319168	 0.381754
O	-1.6107288751	-0.3273182805	 2.3139840328	-0.447017
H	 0.9914897453	 1.9761592716	-0.0391080116	 0.113814
H	-0.5709246449	 1.9693334684	-0.8825089093	 0.125571
H	-0.5190013244	 1.9716360173	 0.8908252836	 0.137079
H	 0.4960835477	-0.3267022718	-0.8878726305	 0.113702
H	 0.5201486715	-0.3096427719	 0.874452825	 0.127956
H	-1.6438429324	-0.8910160974	-2.0856299707	 0.106052
H	-4.6797981504	-2.9327492617	-1.2782897514	 0.1188
H	-5.3264533486	-1.3059797897	-1.4742319317	 0.118746
H	-4.1110013252	-1.91273793	-2.604263501	 0.114812
H	-4.1755890637	-1.4476547528	 1.3997482952	 0.08018
H	-2.2488272243	-0.5509329078	 2.9975789139	 0.306286
49.6659	97.066	124.2465	203.1515	211.1189	225.7607	270.5283	294.4175	316.1439	405.5794	492.8545	578.9589	626.8509	634.8651	648.2473	686.2642	718.8716	784.6341	818.0741	966.4216	987.563	1015.1083	1062.0669	1090.9431	1107.1463	1142.7563	1173.6805	1217.6194	1262.1114	1317.4062	1368.9777	1392.2538	1403.6959	1409.6446	1422.471	1480.2742	1482.048	1491.6049	1496.7988	1506.7834	1553.7752	1579.7855	1624.8758	3018.2376	3041.3834	3055.0356	3063.2296	3095.1204	3100.102	3114.1688	3129.2743	3232.9923	3254.8584	3851.5993
CCN1C=C(C)C=C1O	CCn1cc(C)cc1O	
InChI=1S/C7H11NO/c1-3-8-5-6(2)4-7(8)9/h4-5,9H,3H2,1-2H3	InChI=1S/C7H11NO/c1-3-8-5-6(2)4-7(8)9/h4-5,9H,3H2,1-2H3
