22
gdb 111690	2.49487	1.36383	1.19387	0.6399	82.5	-0.2178	0.0837	0.3015	1195.9645	0.194552	-404.327867	-404.318882	-404.317938	-404.361315	34.451	
C	-0.8912491111	 1.5799289023	-0.2392628928	-0.373586
C	-0.3280989641	 0.1810539567	-0.4859074849	-0.12999
N	 0.2662792777	-0.3316691425	 0.7499371396	-0.09003
C	-0.4937737303	-1.0759686677	 1.7400232983	-0.057543
C	-1.745035347	-1.8181611506	 1.2976097565	-0.114436
O	-1.3833823082	-2.555812332	 0.1343373163	-0.265919
C	 0.0145672061	-2.8543243695	 0.1913324943	 0.12237
C	 0.5342989579	-3.0873641545	-1.2204496407	-0.409752
C	 0.6333398152	-1.7161848268	 0.9954148147	-0.069546
H	-0.1147661773	 2.2468783674	 0.145931091	 0.123066
H	-1.2901012232	 2.0032532976	-1.1664503204	 0.109958
H	-1.7042650473	 1.5521281213	 0.4940735882	 0.114089
H	-1.1052119785	-0.4720451807	-0.9013508707	 0.114773
H	 0.478536555	 0.2372495214	-1.2264487986	 0.100725
H	-0.4272532574	-0.7405531721	 2.7719399185	 0.090421
H	-2.077784918	-2.4846246894	 2.1102719582	 0.096162
H	-2.585419519	-1.1695239617	 1.0258463599	 0.110679
H	 0.1726320163	-3.7769978306	 0.7799710631	 0.068344
H	 0.4416887501	-2.1896403896	-1.8352277653	 0.127199
H	 1.5884863149	-3.3795701114	-1.1883505299	 0.116602
H	-0.0290683525	-3.8933381158	-1.6991791849	 0.126909
H	 1.6171697308	-1.8819136518	 1.4285838696	 0.089505
90.6789	136.8334	197.3425	199.1674	222.8019	249.5181	271.8513	342.6121	427.845	469.7503	549.8855	699.442	716.724	769.5665	819.3902	825.3843	849.0321	880.9365	943.084	987.9899	996.8139	1026.5547	1060.1564	1071.6315	1096.533	1123.5884	1131.5894	1133.0014	1164.2669	1182.2012	1239.2789	1300.5501	1306.8479	1314.5346	1335.8714	1363.053	1373.9475	1388.7035	1406.6642	1411.6375	1433.5601	1486.8676	1488.5239	1499.1779	1500.3225	1511.1362	1525.483	2927.269	2972.8732	3024.0509	3036.6876	3048.4884	3058.8173	3060.0169	3104.7653	3115.8753	3118.4713	3130.4344	3136.3635	3142.1602
CCN1C2COC(C)C12	CCN1[C@H]2CO[C@@H](C)[C@@H]12	
InChI=1S/C7H13NO/c1-3-8-6-4-9-5(2)7(6)8/h5-7H,3-4H2,1-2H3	InChI=1S/C7H13NO/c1-3-8-6-4-9-5(2)7(6)8/h5-7H,3-4H2,1-2H3/t5-,6-,7+,8?/m0/s1
