17
gdb 115196	4.46117	1.03911	0.87132	3.0709	72.68	-0.2397	-0.0623	0.1773	1291.9712	0.135112	-458.973163	-458.964699	-458.963755	-459.006715	30.733	
C	 0.0177800493	 1.4163476266	-0.030183006	-0.241442
O	-0.0048124213	-0.0039110467	-0.031247071	-0.244052
C	 0.6820699178	-0.5772211687	-1.0871405807	 0.186027
O	 2.0605658642	-0.282597562	-0.9611083279	-0.257683
C	 2.8566946731	-0.9355610049	-1.9314804925	-0.190124
C	 2.6877175886	-2.4556260784	-1.915924048	 0.349941
O	 3.5498930461	-3.1951699692	-2.3402908752	-0.31538
C	 1.3834182162	-2.9341474924	-1.4130793954	-0.163764
C	 0.4345112412	-2.0634945429	-1.0570585518	-0.077122
H	 1.0321972636	 1.8009791272	 0.1141728214	 0.137306
H	-0.3861798466	 1.8169075552	-0.9718062082	 0.109035
H	-0.6171649404	 1.7376173726	 0.7972947631	 0.133564
H	 0.3197951474	-0.1573438546	-2.0533979754	 0.064473
H	 2.6197488566	-0.5781244525	-2.9503708923	 0.115705
H	 3.8992856092	-0.6876321358	-1.7240262332	 0.143569
H	 1.2312149101	-4.0085436558	-1.395217861	 0.119766
H	-0.5569581949	-2.3748762475	-0.7424476159	 0.130181
65.4805	113.4386	171.114	173.1125	243.6583	313.8308	381.8391	419.8529	446.3522	528.1743	587.1229	618.601	739.1767	770.2545	859.9542	950.624	1005.4534	1023.2756	1040.1057	1047.0107	1110.7663	1155.4837	1173.3796	1181.2066	1233.6805	1250.4323	1276.3917	1346.5867	1365.7111	1385.7008	1405.5283	1466.5804	1478.6447	1484.3962	1510.9521	1689.021	1793.3093	2840.1929	2948.3701	2997.7528	3083.4999	3118.7187	3136.721	3177.5774	3198.1615
COC1OCC(=O)C=C1	CO[C@H]1OCC(=O)C=C1	
InChI=1S/C6H8O3/c1-8-6-3-2-5(7)4-9-6/h2-3,6H,4H2,1H3	InChI=1S/C6H8O3/c1-8-6-3-2-5(7)4-9-6/h2-3,6H,4H2,1H3/t6-/m0/s1
