20
gdb 62647	2.77235	1.71499	1.23521	1.3686	79.77	-0.2287	0.0673	0.296	1064.4141	0.169313	-403.057452	-403.048915	-403.047971	-403.0897	34.09	
C	-0.0923929256	 1.5813230322	-0.0262001794	-0.474653
C	-0.0685937044	 0.0632725958	-0.0233287776	 0.423114
O	-1.3377469493	-0.4930356177	-0.3060734389	-0.482021
C	 1.1554798312	-0.6435496266	-0.6464788573	-0.127095
N	 2.0305442763	-0.2461520644	 0.573179614	-0.174996
C	 2.4837276071	-1.6944512212	 0.6961646742	-0.226304
C	 1.031472013	-1.9090206568	 0.2731640757	 0.321797
C	 0.277245233	-3.1926081609	 0.04701664	-0.526291
C	 0.6399735714	-0.6542189384	 1.1309188439	-0.094819
H	 0.8892641902	 1.9796729511	 0.238525464	 0.150962
H	-0.3594731937	 1.9618170918	-1.0207345593	 0.102916
H	-0.8357141703	 1.9513773275	 0.6871079518	 0.122439
H	-1.6957481238	-0.0416677734	-1.0776748161	 0.278613
H	 1.5672833872	-0.5892928427	-1.6579886113	 0.069632
H	 3.2755187119	-1.9641390629	-0.0122039314	 0.094572
H	 2.7734834862	-1.9747788527	 1.7154875674	 0.095505
H	 0.2628860905	-3.7994755221	 0.9595992424	 0.115945
H	-0.7536878074	-2.9873323072	-0.2484988784	 0.142072
H	 0.754837592	-3.7891860733	-0.7388966189	 0.113562
H	 0.4407502945	-0.6115880881	 2.2043952952	 0.075051
182.3466	191.6461	196.7822	243.0214	266.3124	304.9504	320.3187	362.459	381.3499	502.0098	532.5052	624.0511	670.794	728.4736	826.6234	850.4228	859.1656	896.5765	899.0993	936.8426	957.4527	1015.2037	1051.415	1067.0509	1096.2724	1105.4356	1128.7069	1154.788	1168.8785	1197.3868	1207.7416	1231.2361	1251.1786	1277.6027	1344.7611	1396.6657	1403.8786	1412.9446	1487.4871	1491.6687	1497.2036	1499.6748	1522.5242	3022.6162	3023.5844	3029.2507	3077.1539	3080.3794	3086.4074	3089.3515	3090.1678	3133.0104	3135.7088	3809.3823
CC1(O)C2N3CC2(C)C13	C[C@@]1(O)[C@H]2N3C[C@@]2(C)[C@H]13	
InChI=1S/C7H11NO/c1-6-3-8-4(6)7(2,9)5(6)8/h4-5,9H,3H2,1-2H3	InChI=1S/C7H11NO/c1-6-3-8-4(6)7(2,9)5(6)8/h4-5,9H,3H2,1-2H3/t4-,5+,6+,7+
