21
gdb 37356	2.41417	1.85898	1.77562	1.3412	79.02	-0.2374	0.0764	0.3137	945.0633	0.187178	-387.084727	-387.077795	-387.076851	-387.115701	29.42	
C	 0.0008051135	 1.4930799718	 0.1098656887	-0.304426
C	 1.3245811096	 0.7712582865	 0.0528463469	-0.045056
C	 0.0350318285	-0.0144422293	 0.0563312914	-0.045056
C	 0.0668042479	-0.7766199779	-1.2818648426	 0.071075
C	-0.5683915769	-0.1015299884	-2.5102833964	-0.207983
C	 0.1854695026	 1.176311252	-2.9753762273	-0.214336
C	 1.6685511171	 1.2614007977	-2.5163287911	-0.207983
C	 1.9820579249	 0.3903117236	-1.2870406992	 0.071075
O	 1.4692755867	-0.9244788564	-1.5579593185	-0.262777
H	-0.262375049	 1.9292856923	 1.069247004	 0.108933
H	-0.3532937019	 2.070524868	-0.730554855	 0.114787
H	 1.9653415866	 0.7977717734	 0.9266930574	 0.086848
H	-0.2789004958	-0.5696069256	 0.9327579568	 0.086848
H	-0.3490355007	-1.7802119652	-1.1572187398	 0.073315
H	-0.5459152105	-0.845963515	-3.3128665915	 0.104512
H	-1.6233711636	 0.1267945006	-2.3214934948	 0.093814
H	 0.1519321917	 1.2265078285	-4.0682338445	 0.094961
H	-0.3545914394	 2.064192491	-2.6386770844	 0.109806
H	 2.3166325479	 0.898137345	-3.3206026172	 0.104512
H	 1.9501434397	 2.3040756549	-2.3311516264	 0.093814
H	 3.0650853211	 0.2999537725	-1.1664450264	 0.073315
148.4179	177.8101	306.7661	334.4201	434.5972	462.7389	552.3333	646.9025	707.2208	722.5926	729.0915	792.4518	810.9533	868.5891	882.0141	882.7717	885.5761	938.4953	953.0179	1008.0887	1029.1247	1041.993	1066.6513	1073.6137	1076.8891	1105.3724	1112.3134	1124.4749	1201.9114	1209.0786	1228.6447	1270.4914	1302.3378	1318.428	1321.0203	1336.7699	1366.1084	1369.5574	1383.2	1386.4601	1393.3733	1473.6785	1477.0939	1486.918	1527.7881	3033.2073	3036.0474	3055.2575	3062.7278	3068.3585	3073.521	3076.701	3096.3973	3139.439	3166.6715	3176.698	3248.5533
C1C2C1C1CCCC2O1	C1[C@H]2[C@@H]1[C@H]1CCC[C@@H]2O1	
InChI=1S/C8H12O/c1-2-7-5-4-6(5)8(3-1)9-7/h5-8H,1-4H2	InChI=1S/C8H12O/c1-2-7-5-4-6(5)8(3-1)9-7/h5-8H,1-4H2/t5-,6+,7-,8+
