14
gdb 130241	3.2605	1.48133	1.01944	2.5041	70.93	-0.2291	-0.0469	0.1822	1078.3505	0.102472	-466.178933	-466.171114	-466.17017	-466.211365	29.833	
N	 0.0275143421	 1.310166789	 0.3228316341	-0.549159
C	-0.0107619857	-0.0190813871	 0.0378729605	 0.406845
N	-1.1452340274	-0.6120018082	-0.12327232	-0.202145
O	-1.1161457492	-2.0149482317	-0.344138716	-0.276573
C	 0.0287063751	-2.7439064921	-0.3878990951	 0.494004
N	 0.0534728335	-3.9973125487	-0.5606498044	-0.57189
N	 1.2136892038	-2.0392181262	-0.2409916709	-0.411225
C	 1.3155474957	-0.6867570537	-0.0455561236	 0.373263
N	 2.3725903911	 0.0204289337	 0.0546835087	-0.546404
H	 0.92523688	 1.7502710937	 0.1876886974	 0.282632
H	-0.8081912495	 1.8471789408	 0.1604802156	 0.269077
H	-0.8900603183	-4.365887173	-0.654865754	 0.236805
H	 2.0456607709	-2.6083421809	-0.3041989118	 0.272187
H	 3.2264950079	-0.5311758655	-0.0291570205	 0.222581
78.3097	119.2114	252.7718	326.4867	370.4195	377.8578	452.1728	471.8291	502.5726	542.805	592.1039	596.606	699.6791	709.1401	779.0009	797.2448	820.6237	853.7498	913.9996	965.9057	1097.0641	1144.2321	1169.5292	1336.6184	1384.9956	1414.4455	1500.2848	1602.19	1673.3256	1735.9755	1765.1974	3482.2853	3535.6533	3582.0766	3618.1332	3715.4863
NC1=NOC(=N)NC1=N	NC1=NO[C]([NH])N[C]1[NH]	
InChI=1S/C3H5N5O/c4-1-2(5)8-9-3(6)7-1/h(H2,5,8)(H3,4,6,7)	InChI=1S/C3H5N5O/c4-1-2(5)8-9-3(6)7-1/h(H2,5,8)(H3,4,6,7)
