19
gdb 103332	3.77886	1.1464	1.02306	1.842	72.21	-0.2354	0.0561	0.2915	1216.267	0.157455	-460.085465	-460.076629	-460.075684	-460.118523	34.216	
C	-0.1367624292	 1.5660108414	-0.0060615256	-0.435986
C	-0.0181049763	 0.0541758864	-0.020198483	 0.021998
C	 1.2683969316	-0.5922360082	-0.6069265079	-0.037701
O	 2.0333795728	-0.0960281888	 0.560264089	-0.319397
C	 0.7764888659	-0.6419531076	 1.1256768324	-0.033838
C	 0.9689216633	-1.8915207917	 0.2294759856	 0.465449
O	-0.1787518889	-2.6375188714	-0.0530964749	-0.492306
C	 2.1379629658	-2.8168847001	 0.5278883495	-0.172577
O	 2.1776559414	-3.7473770007	-0.5597523465	-0.440411
H	 0.8081978789	 2.0262772724	 0.2898402361	 0.134314
H	-0.4117228557	 1.942063105	-0.9975677029	 0.114478
H	-0.9166219116	 1.8880654427	 0.6925588322	 0.114078
H	-0.9449534452	-0.4482270024	-0.3003655444	 0.099979
H	 1.7260618341	-0.4778469331	-1.5906296	 0.089758
H	 0.6437100008	-0.5791102699	 2.2075953282	 0.086036
H	 0.1362793074	-3.4166496689	-0.5322275107	 0.291115
H	 3.0671861138	-2.2480581402	 0.612836807	 0.123796
H	 1.946665101	-3.3407532487	 1.4760186547	 0.094461
H	 2.7505916102	-4.4790697763	-0.3159083588	 0.296755
95.507	165.8588	208.1905	227.342	245.4308	277.5207	332.3504	358.2353	395.8159	473.4974	499.8024	588.7313	657.6537	724.5721	778.9773	799.6772	806.1424	881.4591	910.5407	998.0393	1025.9074	1059.06	1061.9538	1077.8237	1113.0955	1129.0478	1145.9768	1158.2721	1194.8085	1215.2187	1231.1574	1258.2742	1270.9029	1288.9198	1392.1977	1406.9546	1420.7865	1456.5201	1493.966	1505.4595	1516.9643	2996.8511	3035.6909	3091.6636	3096.007	3098.8229	3106.3414	3113.7348	3134.6136	3744.996	3847.6316
CC1C2OC1C2(O)CO	C[C@H]1[C@H]2O[C@@H]1[C@]2(O)CO	
InChI=1S/C6H10O3/c1-3-4-6(8,2-7)5(3)9-4/h3-5,7-8H,2H2,1H3	InChI=1S/C6H10O3/c1-3-4-6(8,2-7)5(3)9-4/h3-5,7-8H,2H2,1H3/t3-,4+,5-,6-
