20
gdb 112272	1.84901	1.60008	1.0926	5.1788	76.98	-0.234	0.0435	0.2775	1206.083	0.169767	-440.306887	-440.296912	-440.295968	-440.342792	35.243	
C	-0.0835815988	 1.5940298671	-0.1864011862	-0.37306
C	-0.087802563	 0.0763412452	 0.0316727019	-0.168979
N	-1.4157291147	-0.4996706008	 0.029077532	-0.057172
C	-2.3651379961	-0.8304382632	 1.1013484306	 0.032542
C	-2.7775154414	 0.3122551742	 2.0184721634	-0.106442
O	-3.2534488016	 1.3892889192	 1.2318697872	-0.407243
C	-3.3664219419	-1.2536839368	-0.0141727479	-0.399339
C	-2.2436963602	-0.8665953842	-1.0026600525	 0.420458
O	-2.0851036628	-0.8710118542	-2.1965696619	-0.382948
H	 0.9362309393	 1.9874450696	-0.124395103	 0.108613
H	-0.4859718934	 1.8307815624	-1.1750399277	 0.143599
H	-0.7066557986	 2.0981555612	 0.5565324836	 0.125093
H	 0.4883222764	-0.4163163864	-0.759642964	 0.13166
H	 0.389198033	-0.1808681002	 0.9848205429	 0.104781
H	-2.0203780587	-1.6636982688	 1.7287918128	 0.07781
H	-3.5515182151	-0.0651435828	 2.705693135	 0.099502
H	-1.9145322677	 0.6162189911	 2.6334774449	 0.093063
H	-3.5738077042	 2.0790132004	 1.8197582687	 0.294818
H	-3.6504496151	-2.3071546463	-0.0266420624	 0.122427
H	-4.2494931855	-0.6183353267	-0.0881672272	 0.140817
34.4036	85.3399	95.514	143.2155	176.8746	240.4996	253.4087	271.3199	306.6436	395.0356	510.9159	574.2871	602.5748	691.1479	736.2961	771.6221	835.4462	942.7633	963.4944	975.3101	1038.4798	1058.5103	1080.5443	1107.8075	1114.2888	1143.0382	1196.5921	1221.5712	1231.4554	1257.8629	1284.0289	1356.2379	1381.0998	1393.7601	1408.0526	1420.1814	1448.4778	1459.2582	1474.9018	1486.4957	1504.934	1512.6111	1873.0953	2963.51	2996.7053	3013.4534	3032.1045	3043.7652	3074.015	3090.9431	3117.8521	3132.2491	3154.6733	3840.647
CCN1C(CO)CC1=O	CCN1[C@@H](CO)CC1=O	
InChI=1S/C6H11NO2/c1-2-7-5(4-8)3-6(7)9/h5,8H,2-4H2,1H3	InChI=1S/C6H11NO2/c1-2-7-5(4-8)3-6(7)9/h5,8H,2-4H2,1H3/t5-/m1/s1
