21
gdb 88538	3.25137	1.25364	1.12783	1.5408	83.21	-0.2526	0.0782	0.3308	1174.0082	0.183366	-387.019782	-387.011605	-387.01066	-387.052933	32.612	
O	 0.0204856962	 1.4527912277	 0.2806611852	-0.417843
C	-0.0178021323	 0.0659058563	 0.0981538379	 0.104201
C	-0.5537890327	-0.8237307827	 1.1903033042	-0.344286
C	-1.3675798851	-0.5734670454	-0.0691018671	-0.198362
C	-2.633978124	 0.2160806707	-0.0196282158	 0.402967
C	-3.2293390073	 1.113880202	-1.1536688196	-0.252285
C	-4.2603258621	 1.1712544895	 0.0073011385	-0.054052
C	-4.0749824827	-0.3641371998	 0.1581281688	-0.257206
C	-3.0572677128	 1.3419153094	 0.9761278665	-0.250113
H	 0.7118663342	 1.6475220395	 0.9217387837	 0.286888
H	 0.7925232106	-0.3284695516	-0.515724506	 0.083794
H	-0.1049464981	-1.7981843822	 1.3499614526	 0.108824
H	-0.8991539806	-0.3251821862	 2.0902346326	 0.116095
H	-1.3978401102	-1.3920503949	-0.7847541575	 0.084408
H	-2.6809939038	 2.0324000118	-1.3776499746	 0.096819
H	-3.5461289098	 0.600570741	-2.0669842454	 0.080168
H	-5.2003666748	 1.7231922685	 0.0250707257	 0.066187
H	-4.4532942906	-0.9891059595	-0.6569874107	 0.081611
H	-4.3105872375	-0.7967232745	 1.1352988508	 0.083393
H	-3.222620791	 1.0372104862	 2.0146316882	 0.078691
H	-2.4942137957	 2.2743518641	 0.9138714818	 0.100101
41.5972	138.73	177.9795	270.3091	297.221	360.2737	434.5249	511.9427	539.4939	563.5366	662.1268	787.2038	796.3313	803.5425	845.8768	881.0265	915.8294	943.2319	951.7167	962.7316	981.9683	991.9565	1021.4739	1056.1602	1058.6873	1100.2942	1104.2641	1134.9267	1135.1729	1143.7448	1163.0138	1164.8751	1176.0422	1222.8984	1234.6479	1236.3565	1244.6142	1295.8468	1311.2062	1406.9379	1425.2064	1487.5732	1496.5368	1500.8294	1556.3026	3036.0562	3042.7339	3049.2074	3090.7035	3100.6181	3108.2383	3112.7396	3127.0298	3127.7469	3131.2084	3218.7303	3806.7597
OC1CC1C12CC(C1)C2	O[C@H]1C[C@H]1[C@@]12C[C@@H](C1)C2	
InChI=1S/C8H12O/c9-7-1-6(7)8-2-5(3-8)4-8/h5-7,9H,1-4H2	InChI=1S/C8H12O/c9-7-1-6(7)8-2-5(3-8)4-8/h5-7,9H,1-4H2/t5-,6-,7+,8-/m1/s1
