22
gdb 77376	2.34303	1.66385	1.35207	1.6464	85.66	-0.2339	0.0848	0.3187	1105.1737	0.193451	-367.179618	-367.170554	-367.16961	-367.212526	35.47	
C	 0.0365317009	 1.6872305101	 0.0561479006	-0.43498
C	 0.1247940467	 0.1675891843	-0.0121397539	-0.061391
C	 0.8495027875	-0.5472502733	-1.144741459	 0.333809
C	 0.3617100403	-0.7629829033	-2.5449818125	-0.505293
C	 2.2850966187	-0.7099387514	-0.7475863366	-0.085249
C	 2.4995510288	-0.1273149347	 0.633785475	-0.290588
C	 1.0711217078	-0.6505058817	 0.90673506	 0.332391
C	 0.6440635489	-1.1202940813	 2.2673269374	-0.499987
N	 1.2521868047	-1.6933189453	-0.2564638074	-0.234508
H	 1.0134445901	 2.1630199928	-0.0688025117	 0.118469
H	-0.6197881017	 2.0716871264	-0.732272659	 0.118005
H	-0.3790012918	 2.0156092886	 1.0154725235	 0.115927
H	-0.8791467555	-0.2686895962	 0.0721237641	 0.073366
H	 0.4093681758	 0.1645508671	-3.1270609402	 0.119363
H	 0.9717400049	-1.5141710854	-3.0563656	 0.128132
H	-0.6758446402	-1.1142028234	-2.5490486159	 0.121857
H	 3.0396092692	-1.0125421655	-1.4662187836	 0.087167
H	 3.2357385513	-0.7140336503	 1.1913900708	 0.105024
H	 2.7142712064	 0.9390988893	 0.755837792	 0.092444
H	 0.5609396014	-0.273949827	 2.9596095013	 0.118452
H	-0.3292562914	-1.619476168	 2.2212192374	 0.12353
H	 1.3687466274	-1.8278547518	 2.6827906178	 0.124059
162.9345	177.8824	184.7724	193.4925	207.2915	252.6918	273.3102	338.4641	356.6162	500.9627	562.9245	581.8373	635.294	704.0537	766.4169	779.8954	818.2734	856.7678	900.7826	974.2374	995.8125	1005.7035	1014.0252	1051.3832	1056.0757	1105.6918	1115.7682	1132.0892	1143.8703	1167.9092	1230.9329	1245.9416	1263.6379	1313.8738	1329.6221	1382.7967	1407.0309	1408.3747	1413.2441	1444.931	1480.1785	1484.2254	1490.2842	1492.7901	1493.9437	1496.7955	1510.1432	3022.04	3026.7242	3027.4222	3031.6269	3043.8483	3089.9986	3091.6355	3092.7385	3094.8742	3104.6089	3104.7912	3110.037	3169.0702
CC1C2(C)C3CC1(C)N23	C[C@H]1[C@@]2(C)[C@H]3C[C@]1(C)N23	
InChI=1S/C8H13N/c1-5-7(2)4-6-8(5,3)9(6)7/h5-6H,4H2,1-3H3	InChI=1S/C8H13N/c1-5-7(2)4-6-8(5,3)9(6)7/h5-6H,4H2,1-3H3/t5-,6-,7+,8+,9?/m1/s1
