17
gdb 10314	2.49486	1.76967	1.10054	3.867	65.5	-0.2852	0.0196	0.3048	1073.5884	0.139124	-400.996669	-400.986974	-400.98603	-401.031281	33.23	
C	 0.1886070635	 1.3889817751	 0.0958062698	-0.250009
O	-0.133757747	 0.0284116392	-0.1405303072	-0.237554
C	 0.5618637004	-0.5534209929	-1.2139015401	-0.003259
C	 2.008576484	-0.668794531	-0.9161013422	 0.286921
N	 3.1292137037	-0.718116373	-0.6397537226	-0.332362
C	-0.0499959739	-1.9393147719	-1.4930314848	 0.095575
C	-1.5465057366	-1.8460158701	-1.7735922501	-0.407559
O	 0.6761114793	-2.4306314522	-2.6089784255	-0.428999
H	 1.2426860805	 1.5114334475	 0.3762703047	 0.139393
H	-0.0182525198	 2.0069044134	-0.7901285623	 0.114793
H	-0.4442299404	 1.720823792	 0.9207222275	 0.138454
H	 0.4611120869	 0.0521642546	-2.1299315651	 0.118358
H	 0.1245122249	-2.5609671811	-0.6028276065	 0.095931
H	-1.9534291275	-2.8440857819	-1.9666506843	 0.111203
H	-2.0754134743	-1.4153281885	-0.9209291455	 0.141028
H	-1.7289700345	-1.2266071117	-2.6575712163	 0.124353
H	 0.4771157507	-3.3654059576	-2.7141072296	 0.293735
63.6776	101.2854	140.853	180.8102	186.4843	200.7165	228.4947	274.1557	330.5584	390.7074	440.17	469.6731	546.8954	613.7062	866.0427	905.9237	986.4103	1005.3156	1083.5219	1117.2624	1136.0879	1159.9447	1184.9616	1208.0377	1259.1907	1314.7718	1350.2092	1379.9871	1404.1006	1420.1598	1480.1009	1488.0018	1489.7598	1499.6608	1508.9819	2356.2982	2975.1757	2995.6815	3006.0215	3039.9508	3059.4396	3107.7612	3134.224	3138.3236	3839.0925
COC(C#N)C(C)O	CO[C@@H](C#N)[C@@H](C)O	
InChI=1S/C5H9NO2/c1-4(7)5(3-6)8-2/h4-5,7H,1-2H3	InChI=1S/C5H9NO2/c1-4(7)5(3-6)8-2/h4-5,7H,1-2H3/t4-,5+/m1/s1
