18
gdb 31115	2.342	1.54211	0.96604	3.8633	76.03	-0.1888	0.0284	0.2172	1205.5501	0.148553	-439.113465	-439.104657	-439.103712	-439.146919	33.012	
C	 0.3425505751	 1.544620112	 0.3684517841	-0.493062
C	 0.0442150445	 0.1057422968	 0.1376982835	 0.274242
C	-1.1075941	-0.5839042761	-0.1064142371	 0.04292
C	-2.5217461413	-0.1023376632	-0.2032591259	-0.296952
N	-3.2335285155	-0.8766436246	-1.2453583967	-0.518678
H	-4.2248107375	-0.6592266992	-1.236196651	 0.239874
H	-2.8799091762	-0.6256388035	-2.1642632165	 0.243016
H	-2.3889161331	-2.5854771593	-0.792471791	 0.29798
C	-0.7220435094	-1.9710705848	-0.2237625459	 0.237155
O	-1.5624856119	-3.0011917278	-0.4715952637	-0.447795
C	 0.6234010333	-2.017938906	-0.0393595532	-0.145397
O	 1.0979350444	-0.7479835667	 0.1889023032	-0.190362
H	 1.1592208454	 1.8861220824	-0.2768572163	 0.138847
H	-0.5393114959	 2.1547886707	 0.1586126359	 0.126967
H	 0.6439427879	 1.7370861229	 1.4052824253	 0.138971
H	-3.0550323085	-0.2902305933	 0.7384294156	 0.123848
H	-2.5544409297	 0.9849301057	-0.3695737067	 0.100409
H	 1.3499074784	-2.8107148861	-0.0415405337	 0.128018
96.1954	117.3565	153.1125	220.5745	240.0883	288.0779	337.6852	371.1394	430.9044	515.1834	578.0838	613.0599	661.0964	706.1591	732.6619	743.3993	765.1707	893.3893	944.9845	978.7859	1027.7746	1057.9072	1093.3889	1142.7791	1172.9368	1207.7545	1222.7813	1313.3138	1327.5126	1371.8918	1415.5309	1418.1978	1471.1509	1484.6164	1492.2399	1505.6522	1624.5351	1647.9946	1709.577	2984.8024	3025.6515	3027.2417	3078.6297	3122.5538	3294.9824	3492.3904	3508.6834	3577.6801
CC1=C(C[NH3+])C([O-])=CO1	Cc1c(CN)c(O)co1	
InChI=1S/C6H9NO2/c1-4-5(2-7)6(8)3-9-4/h3,8H,2,7H2,1H3	InChI=1S/C6H9NO2/c1-4-5(2-7)6(8)3-9-4/h3,8H,2,7H2,1H3
