17
gdb 30244	4.71694	1.07794	0.91734	1.9344	78.92	-0.1802	0.0305	0.2107	1245.2549	0.137685	-417.99463	-417.986461	-417.985517	-418.027276	31.275	
N	 0.1455715191	 1.3559080708	 0.5693696127	-0.601334
C	 0.0344374806	 0.0357971534	 0.0943016861	 0.287445
C	-1.1459781691	-0.6934659535	-0.0433596997	-0.233183
N	-0.7769792992	-1.9028405118	-0.5759156096	 0.018297
C	-0.9964443072	-3.3629449125	-0.5987078701	-0.211406
C	 0.56404671	-3.4977977699	-0.842102106	 0.013749
O	 1.0000025821	-4.0748232444	-2.045912258	-0.426231
C	 0.5810585282	-1.984457413	-0.6876784366	 0.253912
C	 1.1423718748	-0.7925660832	-0.2778539502	-0.408281
H	 0.8987966749	 1.8645971816	 0.1250769005	 0.241432
H	-0.711502874	 1.883245948	 0.4654327588	 0.238341
H	-2.1719043802	-0.3955744481	 0.1018446644	 0.105813
H	-1.3449963519	-3.7738027125	 0.3542517186	 0.123403
H	-1.6370776043	-3.7097196005	-1.4151216256	 0.114212
H	 1.0657697079	-4.0525100608	-0.0448281352	 0.109674
H	 0.7657840666	-3.4696246542	-2.7585360038	 0.281264
H	 2.1851333216	-0.5172424695	-0.2398251862	 0.092893
96.4533	135.856	178.1128	242.6141	288.2961	344.0466	393.8766	441.9529	515.6949	595.2177	636.7541	650.3163	704.2204	743.0438	776.7829	786.9274	854.3295	864.1268	983.194	1012.8078	1044.4527	1091.2243	1131.7714	1135.1115	1157.8278	1200.3878	1232.1942	1260.6151	1292.4774	1375.4601	1411.5857	1428.3217	1455.8061	1493.0531	1529.605	1604.3786	1655.4246	3041.3624	3081.2259	3099.8308	3247.4636	3257.3577	3537.9819	3626.6983	3800.4454
NC1=CN2CC(O)C2=C1	Nc1cn2C[C@@H](O)c2c1	
InChI=1S/C6H8N2O/c7-4-1-5-6(9)3-8(5)2-4/h1-2,6,9H,3,7H2	InChI=1S/C6H8N2O/c7-4-1-5-6(9)3-8(5)2-4/h1-2,6,9H,3,7H2/t6-/m1/s1
