16
gdb 19852	4.64803	1.99623	1.67345	1.4937	70.16	-0.2361	0.0034	0.2395	792.9232	0.132019	-346.543223	-346.537168	-346.536224	-346.57317	24.527	
C	-0.033950665	 1.469368672	 0.0305900634	-0.238075
C	 1.4631992611	 1.9362902667	 0.0985417486	-0.251809
C	 2.1757110806	 0.8012482756	-0.6484645684	-0.063893
C	 3.3846507506	-0.085913471	-0.2279357184	 0.000159
O	 3.1279694797	-0.6735989914	 1.0453361441	-0.232384
C	 2.5023145037	-1.2760677671	-0.1155849038	-0.108126
C	 1.2954444159	-0.395965964	-0.3435305393	 0.290929
C	 0.0676343791	-0.0590138194	 0.0308607025	-0.21163
H	-0.6208635119	 1.8352884178	 0.8800838906	 0.107083
H	-0.529285329	 1.8494781062	-0.8746428928	 0.105923
H	 1.6177236617	 2.9334257661	-0.3227549798	 0.092229
H	 1.7832934914	 1.9462318784	 1.1454197236	 0.116732
H	 2.2421898774	 0.983290082	-1.7302971676	 0.081951
H	 4.4200893553	-0.0153702294	-0.5417217963	 0.101203
H	 2.6900951456	-2.3287739293	-0.2836603888	 0.109597
H	-0.7334372161	-0.7066786133	 0.3669055323	 0.100111
169.156	209.8122	303.694	441.2177	530.2481	622.3885	676.7296	705.5803	802.8532	828.419	832.524	862.2992	878.5976	889.6472	919.954	955.731	971.4321	1030.732	1038.3609	1067.1124	1105.1145	1156.5025	1165.8943	1212.4777	1219.1177	1249.2898	1263.2159	1304.1849	1314.9562	1336.1395	1363.1486	1476.6037	1488.9872	1732.5414	3004.4024	3011.028	3051.0936	3066.4742	3105.5352	3180.2515	3200.7478	3205.4116
C1CC2C3OC3C2=C1	C1C[C@H]2[C@H]3O[C@H]3[C]2[CH]1	
InChI=1S/C7H8O/c1-2-4-5(3-1)7-6(4)8-7/h2,5-7H,1,3H2	InChI=1S/C7H8O/c1-2-4-5(3-1)7-6(4)8-7/h2,5-7H,1,3H2/t5-,6+,7-/m1/s1
