22
gdb 101632	2.95466	0.74998	0.70795	3.5983	83.53	-0.2999	0.0124	0.3123	1712.8363	0.191896	-404.367893	-404.356828	-404.355884	-404.405046	39.373	
C	-0.389721295	 1.7517680827	 0.1710355984	-0.390202
C	-0.2266402832	 0.2282465548	 0.1405275511	-0.173009
C	-1.5491851589	-0.5559412605	 0.0323251049	 0.042926
C	-2.270184234	-0.2879196296	-1.2968807215	-0.40827
C	-1.3267013819	-2.0719032793	 0.1992782811	-0.21502
C	-0.9491227014	-2.4979918927	 1.6306049011	-0.035434
O	-1.9116744862	-2.1205380606	 2.5993535889	-0.403757
C	-0.6972555875	-3.9544654023	 1.6789098183	 0.259877
N	-0.5347440995	-5.0983744186	 1.7053662784	-0.317537
H	 0.5772147467	 2.2423445425	 0.3187718267	 0.115917
H	-0.8132456326	 2.1391701335	-0.7601494	 0.120504
H	-1.0471454741	 2.0611371286	 0.9911442813	 0.119115
H	 0.42446237	-0.0567268011	-0.6978302717	 0.095884
H	 0.3036464823	-0.0748427887	 1.0514454071	 0.096739
H	-2.2039267458	-0.2301611025	 0.8511636779	 0.087292
H	-2.5014348531	 0.7727490873	-1.42442418	 0.120894
H	-1.6539139959	-0.6000335161	-2.1487182418	 0.115715
H	-3.2148258221	-0.8390067893	-1.3514014697	 0.111956
H	-2.2403955716	-2.613792722	-0.0784383245	 0.101418
H	-0.5447121778	-2.4197765932	-0.487601164	 0.117944
H	-0.0261377647	-1.9972398505	 1.9398728825	 0.142762
H	-2.7380104739	-2.574122522	 2.3949883955	 0.294287
32.6226	64.6842	99.035	126.0415	194.0989	216.481	240.7235	248.0369	290.1181	330.5963	346.1652	398.0334	421.2587	494.4931	575.7313	593.4977	769.7135	798.6443	855.2496	915.7159	945.58	976.4825	990.4713	1009.3077	1047.3299	1095.2701	1127.7962	1153.9195	1177.4614	1222.5674	1279.0595	1297.7952	1315.4951	1349.0618	1352.38	1390.3276	1394.7598	1409.4031	1416.2806	1420.353	1474.9906	1482.4987	1495.5378	1501.0288	1506.1026	1512.3528	2353.3861	3009.5751	3018.3862	3024.5526	3031.4546	3036.6149	3049.165	3060.182	3077.1041	3093.3745	3101.9618	3108.4976	3117.0916	3796.8212
CCC(C)CC(O)C#N	CC[C@@H](C)C[C@@H](O)C#N	
InChI=1S/C7H13NO/c1-3-6(2)4-7(9)5-8/h6-7,9H,3-4H2,1-2H3	InChI=1S/C7H13NO/c1-3-6(2)4-7(9)5-8/h6-7,9H,3-4H2,1-2H3/t6-,7-/m1/s1
