17
gdb 45703	2.90171	1.65869	1.15212	3.8291	74.73	-0.2316	-0.0179	0.2137	1044.5838	0.137252	-421.848222	-421.84089	-421.839945	-421.880324	28.184	
O	 0.0519691815	 0.0918838087	 0.4698477659	-0.281913
C	 0.0194243452	 1.2381860643	 0.1284495794	 0.347816
C	-1.2368007055	 2.1456729268	 0.0270077836	-0.363292
C	-0.6482829097	 3.5073429114	 0.3273633801	-0.225725
C	 0.6772226784	 3.5025410028	 0.1755218429	 0.284186
C	 1.84688869	 4.3097351352	 0.6329484502	-0.344909
C	 2.7129898042	 3.1623571398	 1.2183315912	-0.068676
O	 2.4490083966	 1.9909492401	 0.4293627692	-0.269694
C	 1.2102374698	 2.158828533	-0.2368852423	-0.015289
H	-1.6631116394	 2.0572943126	-0.9822375969	 0.134844
H	-2.0135658181	 1.8262027721	 0.72892169	 0.133468
H	-1.2398001947	 4.3326765969	 0.7066070859	 0.105697
H	 2.3670071037	 4.7849156054	-0.2076934081	 0.120294
H	 1.6051621534	 5.0771630918	 1.3712379246	 0.118697
H	 3.7867871069	 3.3623226419	 1.1711857766	 0.114307
H	 2.43689054	 2.9787982336	 2.2660697576	 0.107052
H	 1.3745246275	 2.0587609936	-1.3235885398	 0.103138
79.4894	135.0789	232.3587	266.5015	324.2649	439.6725	530.5101	597.9112	621.6929	676.3161	726.777	785.0597	818.2431	855.3111	919.9241	931.377	945.829	980.5234	986.251	1028.6968	1077.8254	1132.3297	1156.4113	1174.2581	1188.5725	1222.2607	1246.7847	1266.5466	1294.6938	1323.0149	1341.1036	1382.2152	1460.8359	1478.0668	1520.6181	1729.5981	1875.2323	2953.9517	3007.134	3015.3938	3034.2743	3082.378	3090.8789	3113.7463	3196.644
O=C1CC=C2CCOC12	O=C1C[CH][C]2CCO[C@@H]12	
InChI=1S/C7H8O2/c8-6-2-1-5-3-4-9-7(5)6/h1,7H,2-4H2	InChI=1S/C7H8O2/c8-6-2-1-5-3-4-9-7(5)6/h1,7H,2-4H2/t7-/m1/s1
