21
gdb 60267	3.82123	0.96408	0.82547	3.2288	81.26	-0.2408	0.0084	0.2492	1439.2102	0.182102	-424.234452	-424.225245	-424.224301	-424.268908	34.589	
C	-0.032511605	 1.5631520975	 0.1426636834	-0.383841
C	-0.0193616269	 0.0389833927	 0.1021882659	 0.155034
O	 0.6130439329	-0.403389392	 1.2914483183	-0.449991
C	-1.4343881375	-0.5480018743	-0.0347492858	-0.217386
C	-1.446249635	-2.0614052312	-0.2934748894	 0.072487
O	-0.74238503	-2.7717886265	 0.7482559229	-0.284603
C	-1.6049745984	-3.7077514665	 1.3980048648	-0.121654
C	-2.9103445837	-3.598189543	 0.6634768562	-0.094539
C	-2.8164709107	-2.6822124866	-0.2923923906	-0.090958
H	 0.9828306999	 1.9384239791	 0.2971170502	 0.12279
H	-0.4208420495	 1.9801551584	-0.7917117584	 0.102802
H	-0.6538973549	 1.917372777	 0.9716690277	 0.116538
H	 0.5653043467	-0.2805480003	-0.7813439243	 0.053478
H	 0.4264972808	-1.3493477785	 1.3693202941	 0.289042
H	-2.0011647598	-0.3281656433	 0.8781931072	 0.102081
H	-1.9517669998	-0.0622502945	-0.872304825	 0.091976
H	-0.9171643836	-2.2552910009	-1.2413532779	 0.088211
H	-1.1649291407	-4.7143811356	 1.3350707637	 0.113233
H	-1.6979195603	-3.4579770976	 2.4660465804	 0.113987
H	-3.7769229171	-4.1982501535	 0.9095517979	 0.111291
H	-3.5918594776	-2.3818453004	-0.9853794412	 0.110024
60.8435	75.7101	152.8714	163.9785	235.9073	293.7172	302.8978	365.9917	462.5203	478.7343	528.945	543.0853	709.6816	761.8457	809.2761	825.4655	858.8381	936.9781	949.3434	950.4903	960.962	997.9098	1039.0858	1046.4029	1074.9572	1101.8213	1126.7494	1130.1706	1164.6513	1197.7201	1240.7162	1274.443	1320.5202	1335.6537	1362.9184	1376.934	1386.2216	1389.203	1403.3669	1456.6185	1472.6521	1487.2311	1501.5016	1521.5517	1692.7779	2915.6576	2964.0043	2983.8215	3004.6884	3022.3584	3038.3305	3072.6235	3110.5264	3118.7346	3209.6704	3233.7644	3729.5578
CC(O)CC1OCC=C1	C[C@@H](O)C[C@H]1OCC=C1	
InChI=1S/C7H12O2/c1-6(8)5-7-3-2-4-9-7/h2-3,6-8H,4-5H2,1H3	InChI=1S/C7H12O2/c1-6(8)5-7-3-2-4-9-7/h2-3,6-8H,4-5H2,1H3/t6-,7+/m1/s1
