20
gdb 111199	2.03996	1.5964	1.05634	2.2605	82.1	-0.2228	-0.0233	0.1994	1202.4718	0.169187	-403.070887	-403.062078	-403.061134	-403.104938	32.88	
C	 0.1691301313	 1.3822764199	-0.112319187	-0.375665
C	 0.0696069836	-0.1240234278	 0.1316565151	-0.134994
N	-1.3205206572	-0.5525462691	 0.019583028	-0.094069
C	-2.1794516772	-0.5924857369	 1.2677355921	-0.06241
C	-3.1441533154	-1.4811997212	 0.4359350095	-0.212865
C	-1.701803619	-2.0094283779	 0.2032992502	-0.033807
C	-1.493717477	-1.9214448591	 1.7472163542	-0.050504
C	-0.1408729721	-2.0434070596	 2.3947883723	 0.089137
O	 0.677009778	-2.8753796295	 2.0836711145	-0.255305
H	 1.2109991351	 1.7139596485	-0.0664836093	 0.113343
H	-0.240864479	 1.6386886791	-1.0927483101	 0.126342
H	-0.3938641455	 1.9405671124	 0.6434622625	 0.113123
H	 0.645819925	-0.667037722	-0.6268191788	 0.11062
H	 0.5388983535	-0.357807094	 1.1015998629	 0.093807
H	-2.4132730576	 0.3035770248	 1.8450408023	 0.087276
H	-3.8320492798	-2.126287679	 0.9842174024	 0.09712
H	-3.5968170128	-0.9851473098	-0.4211803321	 0.111982
H	-1.3572859338	-2.7874682253	-0.4777325903	 0.096006
H	-2.1624648439	-2.5636804461	 2.3395281498	 0.106234
H	 0.0326195038	-1.3623025575	 3.2611915319	 0.07463
53.4394	109.987	146.9303	179.3854	211.4352	266.0973	322.903	410.1307	462.9372	588.8249	680.1373	734.3996	755.1492	772.9893	817.7664	842.6658	893.8193	903.9669	966.4018	1015.1129	1022.341	1046.5863	1082.1936	1083.8178	1098.9907	1117.4237	1143.3905	1175.357	1186.593	1200.4265	1209.1832	1232.8244	1278.2195	1311.5263	1356.7653	1385.0882	1406.4556	1414.806	1477.5002	1489.2349	1491.6139	1505.7031	1802.3684	2849.4647	2960.4284	3002.9022	3037.1483	3054.0259	3083.3965	3103.0249	3105.8527	3122.3395	3124.1877	3168.8762
CCN1C2CC1C2C=O	CCN1[C@H]2C[C@@H]1[C@H]2C=O	
InChI=1S/C7H11NO/c1-2-8-6-3-7(8)5(6)4-9/h4-7H,2-3H2,1H3	InChI=1S/C7H11NO/c1-2-8-6-3-7(8)5(6)4-9/h4-7H,2-3H2,1H3/t5-,6-,7+
