19
gdb 70028	3.17893	1.57304	1.36068	2.0487	74.12	-0.2282	0.0804	0.3086	1015.3713	0.160167	-422.997569	-422.989916	-422.988972	-423.0295	30.09	
C	-0.2095007414	 1.4699977153	-0.0018629198	-0.513542
C	 0.1234800708	 0.0155672402	-0.0498667859	 0.402914
O	-0.8006333338	-0.9131345046	 0.5431079357	-0.285516
C	 0.567324392	-0.9572013691	 0.9718071562	-0.065181
C	 1.3412731666	-1.8023410914	-0.0571948433	-0.082934
C	 0.731645715	-3.1259588315	-0.5400624729	-0.243892
C	-0.2475250484	-2.7008590111	-1.6628424629	-0.069174
O	 0.2016059099	-1.4313687173	-2.156693807	-0.263287
C	 0.907703305	-0.7665129393	-1.1451653358	 0.03703
H	 0.675836321	 2.0781535237	-0.214197196	 0.124127
H	-0.9721278404	 1.7147930523	-0.7496301421	 0.138418
H	-0.5965111272	 1.7444277913	 0.9833069638	 0.132835
H	 0.7568538564	-0.8277983343	 2.0318590393	 0.100762
H	 2.4142296703	-1.8469683876	 0.1343930832	 0.078739
H	 1.5185600792	-3.7711725711	-0.9409841874	 0.104585
H	 0.2157065305	-3.6744637681	 0.2517661764	 0.110713
H	-0.2487799133	-3.393230115	-2.510874001	 0.096541
H	-1.2662457903	-2.6136295754	-1.2741277103	 0.116185
H	 1.705711628	-0.1681771471	-1.5951395802	 0.080675
116.7474	190.6703	203.1037	229.1999	255.7113	329.9918	496.3201	550.7361	609.6448	689.0258	714.7129	785.4791	805.437	843.5703	886.3607	890.1579	909.4228	945.37	969.4206	992.5416	1038.2442	1071.0938	1094.8783	1097.9567	1123.5373	1161.1601	1201.1254	1223.405	1237.462	1260.9987	1269.7548	1295.0076	1326.1316	1349.8609	1399.541	1405.1913	1459.5821	1481.5937	1483.2379	1493.8667	1518.57	3034.0499	3043.9275	3058.706	3066.7893	3085.0751	3097.4588	3103.0079	3113.8719	3118.2393	3178.2376
CC12OC1C1CCOC21	C[C@]12O[C@H]1[C@H]1CCO[C@@H]21	
InChI=1S/C7H10O2/c1-7-5-4(2-3-8-5)6(7)9-7/h4-6H,2-3H2,1H3	InChI=1S/C7H10O2/c1-7-5-4(2-3-8-5)6(7)9-7/h4-6H,2-3H2,1H3/t4-,5+,6-,7+/m0/s1
