16
gdb 71170	2.80435	1.89088	1.49802	1.226	67.77	-0.241	0.0663	0.3073	898.5519	0.124266	-437.782812	-437.77588	-437.774935	-437.813798	28.152	
O	 0.0679638363	 1.4248898212	-0.068397566	-0.470576
C	 0.0312687682	 0.0628915486	 0.0542592533	 0.288605
C	-1.258181569	-0.7485207676	-0.0302407707	-0.191453
N	-0.5734630253	-1.8617001396	 0.7280271516	-0.149661
C	 0.8572841177	-1.8788538133	 0.2451645213	-0.157227
C	 0.4129398336	-0.9097240135	 1.2836067863	-0.142222
C	 1.0048442567	-0.783962952	-0.7745313829	 0.429778
C	 1.4124034464	-0.6717508436	-2.1685936261	-0.291262
O	 2.256588119	-0.1909158572	-1.0893260198	-0.307472
H	 0.9775297738	 1.6567817008	-0.3094326596	 0.294236
H	-2.0653850994	-0.3628149056	 0.5963029522	 0.121428
H	-1.6380790254	-1.0113580901	-1.0242261778	 0.10251
H	 1.3998622991	-2.8090629483	 0.343381557	 0.111161
H	 0.64576175	-0.7929014263	 2.3334563136	 0.109272
H	 1.8013662467	-1.5399395553	-2.6972913005	 0.128239
H	 0.9862624716	 0.1071567518	-2.798835982	 0.124643
166.1329	199.1073	254.5862	340.2965	419.5723	453.0522	488.1833	544.1081	625.4877	679.2194	753.9091	772.7241	803.2415	855.5748	887.2427	892.6802	950.8982	969.2126	985.4747	1015.1829	1054.4551	1094.0013	1113.2878	1129.2183	1146.9507	1154.8975	1169.1837	1215.9064	1268.7608	1294.8805	1354.6794	1415.6958	1457.8379	1510.1563	1541.9402	3039.8938	3090.053	3114.7751	3179.1938	3204.7457	3218.5864	3721.3331
OC12CN3C(C13)C21CO1	O[C@]12CN3[C@H]([C@@H]13)[C@]12CO1	
InChI=1S/C6H7NO2/c8-5-1-7-3(5)4(7)6(5)2-9-6/h3-4,8H,1-2H2	InChI=1S/C6H7NO2/c8-5-1-7-3(5)4(7)6(5)2-9-6/h3-4,8H,1-2H2/t3-,4+,5+,6-,7?/m0/s1
