16
gdb 16874	4.27883	1.86604	1.41668	4.3118	64.64	-0.2354	0.0262	0.2616	858.8032	0.133246	-379.926024	-379.919328	-379.918384	-379.956881	25.961	
O	 0.0552506192	-0.0837418475	-0.0122474763	-0.370949
C	 0.0033021514	 1.1279067455	-0.0879868629	 0.400679
C	-1.3158918083	 1.9043963433	-0.0884690222	-0.279041
N	-1.3141339913	 3.063421919	-0.9934099738	-0.082525
C	-1.355257691	 4.4026073149	-0.4107550106	-0.248441
C	-0.0877004249	 3.8669596681	-0.9731141821	 0.00645
C	 1.0209450094	 3.3779231153	-0.05276557	-0.206203
N	 1.1092483432	 1.9269499916	-0.1553846818	-0.299531
H	-2.0997455171	 1.2075337114	-0.3905352813	 0.141549
H	-1.5190395339	 2.1957904421	 0.9546021891	 0.115064
H	-1.9398377521	 5.134701557	-0.9607435085	 0.122478
H	-1.4225922549	 4.4897354362	 0.6735750252	 0.110605
H	 0.2399533622	 4.1917079222	-1.9581326489	 0.10148
H	 1.98045731	 3.8083830826	-0.3494585786	 0.123813
H	 0.8347031168	 3.6927499056	 0.9839535182	 0.113417
H	 1.9987883713	 1.4617591028	-0.0578380555	 0.251157
99.6532	182.8578	295.9836	415.6614	443.7017	462.5203	475.8466	512.6865	626.3644	703.1231	794.8082	818.2767	872.0317	921.4971	961.7762	1001.0058	1046.2253	1086.8443	1104.6035	1124.3615	1141.0331	1163.598	1228.1126	1270.9973	1311.1157	1319.552	1335.3679	1378.2711	1404.7062	1466.1828	1481.0201	1506.9761	1519.5916	1806.0675	2980.8422	2997.7297	3088.4498	3092.2878	3111.416	3127.7802	3180.3204	3626.8269
O=C1CN2CC2CN1	O=C1CN2C[C@H]2CN1	
InChI=1S/C5H8N2O/c8-5-3-7-2-4(7)1-6-5/h4H,1-3H2,(H,6,8)	InChI=1S/C5H8N2O/c8-5-3-7-2-4(7)1-6-5/h4H,1-3H2,(H,6,8)/t4-,7?/m1/s1
