18
gdb 18277	4.20625	1.52921	1.27432	2.5505	66.52	-0.2268	0.0728	0.2997	972.1925	0.15494	-384.917231	-384.90975	-384.908805	-384.949009	28.588	
O	-0.093718473	 1.419770906	-0.1023076099	-0.424106
C	 0.0243431345	 0.008847693	 0.0311250017	-0.089201
C	-1.383177012	-0.5680885768	 0.0469495438	 0.002155
C	-2.1761967055	-0.2557198975	-1.246936423	-0.096957
O	-3.0872451254	-1.3366297014	-1.4494851086	-0.258368
C	-2.5601981554	-2.4733212679	-0.8200004825	 0.121229
C	-1.1429577633	-2.8829184616	-1.1244994866	-0.332519
C	-1.468366202	-2.0857122195	 0.1335775955	-0.103554
H	 0.790101028	 1.7954855364	-0.1489070303	 0.288175
H	 0.5917819993	-0.4251073621	-0.8075870375	 0.086021
H	 0.5509408776	-0.2620377857	 0.9597255715	 0.087584
H	-1.912753107	-0.1446556447	 0.9088858438	 0.086668
H	-2.7542231339	 0.6683767873	-1.1894508846	 0.121009
H	-1.488849395	-0.1673356319	-2.1011149877	 0.094375
H	-3.3228640244	-3.2125224727	-0.6057180159	 0.099878
H	-0.8885849741	-3.9286473565	-0.9886631024	 0.112558
H	-0.6205395682	-2.4025068612	-1.9448178647	 0.116761
H	-1.3564864401	-2.5606610532	 1.1012886375	 0.08829
104.7668	142.5775	194.7572	273.3226	287.9982	409.5447	427.7054	475.7808	649.119	696.9321	768.3411	805.0909	869.993	924.8678	949.1638	966.4315	999.3042	1027.117	1034.4018	1070.4487	1074.8415	1088.8833	1104.6479	1156.9577	1166.1708	1198.9988	1227.7612	1249.3421	1261.6033	1316.2934	1318.9329	1344.4463	1388.8869	1404.1194	1460.341	1476.536	1516.8329	1527.4648	2968.9398	2995.0511	2997.5045	3039.9545	3108.2556	3132.7246	3172.1917	3185.9765	3217.9751	3831.4086
OCC1COC2CC12	OC[C@H]1CO[C@H]2C[C@@H]12	
InChI=1S/C6H10O2/c7-2-4-3-8-6-1-5(4)6/h4-7H,1-3H2	InChI=1S/C6H10O2/c7-2-4-3-8-6-1-5(4)6/h4-7H,1-3H2/t4-,5-,6-/m0/s1
