21
gdb 109730	2.57489	1.05951	0.97233	1.7027	80.61	-0.2394	-0.0134	0.226	1358.179	0.179959	-424.232914	-424.222316	-424.221372	-424.269083	37.724	
C	 1.4727346821	-1.08373482	 2.7461566366	-0.421747
C	 0.8505478518	-1.1907399547	 1.3716105557	-0.010605
C	 0.1646266517	-0.0517856725	 0.6924695974	-0.015188
C	 0.013526862	 1.3075891224	 1.3293858971	-0.115247
O	-1.1356438267	 1.2332615807	 2.1713172464	-0.42732
C	 1.4882558689	-0.5588805406	 0.1167573695	-0.172658
C	 2.7625499527	 0.2111723915	 0.1870693571	 0.395836
C	 3.7459064841	-0.0678492469	-0.938450786	-0.479172
O	 3.0340339009	 1.0034205781	 1.0697552562	-0.332001
H	 2.0575403045	-0.1708377166	 2.8609327567	 0.155129
H	 0.6879192485	-1.0925522179	 3.5093626914	 0.128179
H	 2.1382535802	-1.9329508449	 2.9327426937	 0.110647
H	 0.4182644487	-2.1667678711	 1.1655692918	 0.092978
H	-0.6983886441	-0.3195137756	 0.0879406918	 0.096485
H	 0.9127335561	 1.5812595768	 1.8878436642	 0.125221
H	-0.1259327175	 2.0633665512	 0.5395722967	 0.082654
H	-1.2273025858	 2.0810439779	 2.6160358567	 0.285519
H	 1.3947670596	-1.1516458019	-0.7876650778	 0.084241
H	 3.2982967695	 0.1892894879	-1.9055220325	 0.139025
H	 4.6553896635	 0.5145167332	-0.788078292	 0.138734
H	 3.9897774091	-1.1357353068	-0.9763565107	 0.13929
52.9954	62.4107	133.085	143.8879	159.5674	199.0041	236.6606	255.5757	289.8862	319.3581	383.2138	449.7001	533.9258	624.9307	644.7314	757.1332	784.958	808.4393	922.0585	964.0425	983.5884	1004.965	1030.3404	1054.8127	1061.9111	1095.205	1122.1885	1152.4031	1168.3638	1184.9667	1241.7299	1254.7948	1287.5056	1375.447	1375.7227	1402.9276	1419.492	1435.8849	1464.6818	1472.2607	1475.9413	1498.4512	1506.7267	1535.8826	1776.5984	2972.1484	3033.2786	3041.6954	3087.0079	3093.3369	3099.5658	3128.3229	3138.0488	3150.3845	3152.994	3159.0388	3828.5879
CC1C(CO)C1C(C)=O	C[C@H]1[C@@H](CO)[C@H]1C(=O)C	
InChI=1S/C7H12O2/c1-4-6(3-8)7(4)5(2)9/h4,6-8H,3H2,1-2H3	InChI=1S/C7H12O2/c1-4-6(3-8)7(4)5(2)9/h4,6-8H,3H2,1-2H3/t4-,6+,7+/m0/s1
