16
gdb 75774	2.66224	1.25587	1.10336	1.3645	70.42	-0.2609	-0.039	0.2219	1138.0094	0.121432	-437.903237	-437.894093	-437.893148	-437.937245	33.163	
C	-0.555737689	 1.2938921334	 0.0432701943	-0.414359
C	 0.1112496322	-0.0661865899	-0.07313845	-0.116412
C	 1.4290294036	-0.218991055	-0.8531179045	 0.388328
O	 1.8503772598	 0.2634010423	-1.8598699081	-0.280993
C	 2.0218855957	-1.1587649624	 0.2135014541	-0.386919
C	 0.8672739556	-0.6833226919	 1.161676602	 0.217903
O	 1.2583364779	 0.3646616832	 2.0196923573	-0.451685
C	 0.1611722455	-1.7396432026	 1.8933981421	 0.231627
N	-0.3777640509	-2.5776380868	 2.4799154171	-0.331668
H	 0.1180404144	 2.0208855353	 0.4992511587	 0.147386
H	-0.8270172286	 1.6495917806	-0.9546598626	 0.140727
H	-1.4651590603	 1.2371262227	 0.6476866508	 0.134743
H	-0.5891618435	-0.8166767376	-0.4609211155	 0.129303
H	 1.9472686399	-2.2106293599	-0.0773471078	 0.152001
H	 3.0343037568	-0.9426104689	 0.5607850619	 0.142056
H	 1.8304212009	 0.0052232873	 2.7074786302	 0.297962
61.2305	131.0974	162.1028	181.4042	206.0911	254.2735	316.9607	385.0067	404.8018	446.8534	508.1847	548.0381	605.5443	624.2742	740.3903	746.0076	856.6647	913.157	975.4514	1025.1814	1040.7555	1097.3267	1137.7698	1145.9579	1189.9035	1207.065	1269.7817	1320.2653	1356.9947	1406.1066	1423.6375	1487.0007	1498.4667	1909.1684	2350.1179	3041.9968	3053.8044	3068.4635	3121.9172	3134.1762	3145.4748	3803.713
CC1C(=O)CC1(O)C#N	C[C@H]1C(=O)C[C@]1(O)C#N	
InChI=1S/C6H7NO2/c1-4-5(8)2-6(4,9)3-7/h4,9H,2H2,1H3	InChI=1S/C6H7NO2/c1-4-5(8)2-6(4,9)3-7/h4,9H,2H2,1H3/t4-,6-/m0/s1
