19
gdb 32997	4.94582	0.90946	0.77669	1.9702	88.82	-0.1994	-0.0071	0.1923	1481.7447	0.1617	-382.139517	-382.131003	-382.130059	-382.173297	31.781	
C	 0.003906065	 1.576181778	-0.0791154691	-0.406214
C	-0.073910273	 0.0530063474	-0.0332285906	-0.105705
N	 0.7400358692	-0.5277415677	-1.0806297916	-0.357179
C	 0.8279101951	-1.8724745046	-1.3359820487	 0.429194
N	 1.4051522604	-2.1958534493	-2.5065278119	-0.347736
C	 1.5483890986	-3.4879647244	-2.7959741124	 0.00474
C	 1.1356262637	-4.5273980573	-1.9690301915	-0.146244
C	 0.5292910614	-4.1827738012	-0.762081119	-0.067577
C	 0.3649902079	-2.8476789909	-0.4302442641	-0.213202
H	 1.0368390239	 1.917181942	 0.0398271498	 0.131387
H	-0.3757167101	 1.9601023973	-1.0324762365	 0.123871
H	-0.5977476406	 2.0145024088	 0.7212074393	 0.12547
H	 0.2841101371	-0.2996533601	 0.9433139711	 0.112167
H	-1.1249042655	-0.2696340595	-0.116136682	 0.10076
H	 0.949438132	 0.0451432161	-1.8841676923	 0.239529
H	 2.0210664484	-3.7044435174	-3.7522515085	 0.099543
H	 1.2785145113	-5.5602575067	-2.2620069036	 0.089532
H	 0.1822021894	-4.9527755505	-0.0799293355	 0.098451
H	-0.1048845344	-2.5613550299	 0.5021153573	 0.089214
55.0342	84.8508	149.6747	214.0418	263.1679	332.0468	408.7982	432.2069	476.9302	540.1394	615.8745	648.8809	761.7999	793.7733	820.3382	849.3341	865.4551	952.8366	979.8151	990.1513	994.9075	1069.258	1075.9018	1113.8472	1168.978	1178.1458	1194.7491	1274.3322	1297.7027	1335.1282	1353.9108	1391.8939	1415.1877	1460.5082	1481.7439	1493.0786	1502.3664	1532.5891	1549.7067	1611.0516	1644.2566	2965.3214	3018.7964	3038.5265	3106.1555	3123.3508	3142.3376	3174.571	3205.2535	3210.5139	3618.7221
CCNC1=NC=CC=C1	CCNc1ncccc1	
InChI=1S/C7H10N2/c1-2-8-7-5-3-4-6-9-7/h3-6H,2H2,1H3,(H,8,9)	InChI=1S/C7H10N2/c1-2-8-7-5-3-4-6-9-7/h3-6H,2H2,1H3,(H,8,9)
