15
gdb 27568	3.42172	1.21946	0.90409	6.11	82.39	-0.2766	-0.0611	0.2155	1224.4746	0.114388	-379.752203	-379.744374	-379.743429	-379.785566	28.281	
C	-0.011031836	 1.5252468639	 0.0083940121	-0.496993
C	-0.0070151798	 0.0195876331	 0.0097516589	 0.31073
C	 0.0073166673	-0.703932975	-1.1846160303	-0.233044
C	 0.0296223192	-2.0979362025	-1.1355002462	 0.22382
N	 0.0367651122	-2.8094233683	 0.0018150686	-0.320118
C	 0.0207322624	-2.1124854309	 1.1351169723	 0.001499
C	-0.0019307602	-0.7193998011	 1.1919797728	-0.186589
C	 0.0443804939	-2.8457613545	-2.3675410438	 0.23995
N	 0.0562299093	-3.4121815299	-3.3758905699	-0.326778
H	 0.9808111252	 1.9146616782	-0.2486642746	 0.15111
H	-0.714093628	 1.9186969882	-0.7317378075	 0.144548
H	-0.2818342047	 1.9239671722	 0.9888507119	 0.135847
H	-0.0003288187	-0.1990937073	-2.1442848828	 0.123354
H	 0.0238197203	-2.6961465596	 2.0522614988	 0.122739
H	-0.0170542924	-0.2188347066	 2.1545415096	 0.109927
36.2128	136.4828	151.1402	212.7151	338.168	381.1361	480.8135	482.5986	522.7321	585.3889	625.3396	756.3109	776.0725	862.0533	919.5296	932.9787	998.8852	1005.5774	1023.0447	1065.7215	1132.5612	1173.2294	1281.4731	1303.2133	1323.3718	1412.8072	1420.6914	1484.5626	1488.8973	1500.4507	1599.9402	1632.3226	2352.3083	3038.9104	3098.7437	3127.5634	3161.669	3189.8001	3195.2648
CC1=CC(=NC=C1)C#N	Cc1cc(ncc1)C#N	
InChI=1S/C7H6N2/c1-6-2-3-9-7(4-6)5-8/h2-4H,1H3	InChI=1S/C7H6N2/c1-6-2-3-9-7(4-6)5-8/h2-4H,1H3
