18
gdb 35173	3.50361	1.2636	1.11103	4.3892	81.84	-0.2783	0.0321	0.3103	1126.0054	0.14902	-364.758525	-364.751077	-364.750132	-364.790548	29.449	
N	-0.0131503872	-1.1438472214	-0.0291101913	-0.344849
C	-0.0189574833	 0.0135177239	-0.0063338114	 0.29043
C	-0.0035310031	 1.448754448	 0.0170674524	-0.312972
C	 0.5058567938	 2.1721168146	 1.2830497864	-0.398228
C	 1.3105312456	 2.1870503577	 0.0429054045	 0.478201
C	 2.7411156044	 1.7323970467	-0.2894088411	-0.122245
C	 2.4431790548	 2.1738199528	-1.7564534904	-0.214331
C	 1.8550183996	 3.3077690561	-0.8596842029	-0.133496
C	 3.1639069304	 3.210568287	-0.0140454436	-0.218293
H	-0.8348856083	 1.9132227911	-0.5043559237	 0.131078
H	-0.0460843679	 3.0596295976	 1.5753100428	 0.128887
H	 0.8217464286	 1.5415895307	 2.1073433815	 0.141242
H	 3.2356557901	 0.8214251845	 0.0458607535	 0.094029
H	 3.31193229	 2.4434704017	-2.3616877133	 0.096638
H	 1.7296883936	 1.5661831905	-2.3167523993	 0.106967
H	 1.3323425494	 4.2101676157	-1.1786268072	 0.079943
H	 3.1103472895	 3.5552940979	 1.0209746387	 0.099634
H	 4.07855538	 3.5463469748	-0.5085728956	 0.097365
97.9999	123.6567	230.271	286.5355	316.8876	437.735	517.105	557.1853	618.0291	670.4105	772.2221	797.4514	808.2686	874.3508	892.2137	906.422	931.9707	944.2787	1015.2086	1018.0252	1031.8542	1055.33	1077.6903	1089.7652	1093.6186	1113.6174	1116.4555	1154.3253	1188.9428	1196.3635	1231.2677	1243.059	1251.4507	1327.0974	1426.3055	1490.7446	1495.2321	1537.0877	2348.2345	3059.5681	3062.71	3110.6419	3125.734	3128.3195	3130.1754	3132.534	3158.3969	3219.4776
N#CC1CC11C2CC1C2	N#C[C@H]1C[C@]21[C@H]1C[C@@H]2C1	
InChI=1S/C8H9N/c9-4-7-3-8(7)5-1-6(8)2-5/h5-7H,1-3H2	InChI=1S/C8H9N/c9-4-7-3-8(7)5-1-6(8)2-5/h5-7H,1-3H2/t5-,6+,7-,8-/m1/s1
