14
gdb 7929	3.612	1.86797	1.30228	2.4849	58.87	-0.2631	-0.0085	0.2546	889.0851	0.108464	-415.955247	-415.947884	-415.94694	-415.987085	26.807	
C	-0.069984905	 1.6005807057	 0.0338876476	-0.391085
C	 0.0529582424	 0.0781583976	-0.0266315521	-0.099038
N	 0.9061079388	-0.422273131	-1.0917009197	-0.348898
C	 1.882666572	-1.2802878299	-0.6547174797	 0.461043
O	 2.6781799024	-1.9114339988	-1.3042197116	-0.387326
N	 1.7793492977	-1.2730065318	 0.7520167778	-0.388621
C	 0.7479629688	-0.4927698954	 1.224060905	 0.439344
O	 0.4482145637	-0.28743636	 2.3731369573	-0.358185
H	 0.9188219498	 2.0663497562	 0.0646619361	 0.133496
H	-0.6073356848	 1.9826575246	-0.8387074748	 0.121826
H	-0.6200053886	 1.8816290193	 0.93538407	 0.151134
H	-0.950284255	-0.3690363847	-0.0750107697	 0.12292
H	 0.6699163351	-0.3951086155	-2.0689796255	 0.26483
H	 2.4235078628	-1.7804997363	 1.3376594593	 0.278561
84.7078	135.055	224.0896	240.4887	361.6946	383.7851	444.6005	557.7268	586.5573	626.4566	666.0431	733.2728	767.3903	808.5621	951.8777	992.5171	1049.7661	1114.2024	1131.4002	1188.7373	1289.0262	1338.5168	1351.6906	1389.6042	1407.8936	1421.3685	1491.1708	1496.8411	1848.4393	1887.0023	3007.1437	3047.2202	3122.1288	3135.5289	3656.9873	3670.885
CC1NC(=O)NC1=O	C[C@H]1NC(=O)NC1=O	
InChI=1S/C4H6N2O2/c1-2-3(7)6-4(8)5-2/h2H,1H3,(H2,5,6,7,8)	InChI=1S/C4H6N2O2/c1-2-3(7)6-4(8)5-2/h2H,1H3,(H2,5,6,7,8)/t2-/m1/s1
