17
gdb 94130	1.9241	1.58149	1.25693	2.0112	80.81	-0.2581	-0.0032	0.2549	1117.8882	0.132157	-384.594762	-384.585314	-384.584369	-384.629136	34.858	
C	-0.4787250807	 1.3588725257	 0.0035830487	-0.42109
C	 0.084461485	-0.0449192778	-0.1058741738	-0.071282
C	 1.4625713075	-0.2519184965	-0.760498957	-0.084579
O	 1.9480822383	-1.0086806658	 0.3699618199	-0.299913
C	 0.7585963663	-0.7150189857	 1.1587869432	 0.045681
C	 1.0584240166	 0.18975196	 2.2676564405	 0.341139
C	 1.3097264399	 0.9479357841	 3.1654399262	-0.472104
C	 0.1033873597	-1.9256276613	 1.6426741172	 0.291024
C	-0.4598277211	-2.9208404622	 2.0113466988	-0.43737
H	 0.2496400105	 2.0483333856	 0.4386145567	 0.133323
H	-0.7552335251	 1.7314147787	-0.9886554841	 0.119886
H	-1.3764768858	 1.3772620105	 0.6293225933	 0.129835
H	-0.6612373626	-0.7319959197	-0.5098878467	 0.102982
H	 1.4883435937	-0.8402335396	-1.6834006523	 0.111123
H	 2.0380370579	 0.671970732	-0.9035508394	 0.105207
H	 1.5358605085	 1.6057186833	 3.9684285507	 0.203782
H	-0.9460496585	-3.8028637113	 2.3490337281	 0.202357
47.5021	126.5601	144.1755	155.0411	219.0977	237.3648	300.7537	375.8137	471.0111	497.1458	542.4945	576.497	587.4464	632.0898	640.1035	667.5146	669.6144	738.4966	898.0704	927.5988	959.7007	999.5319	1013.7354	1087.9677	1138.6617	1145.8866	1163.0289	1207.3126	1281.3978	1334.8078	1381.1918	1415.2499	1492.7252	1494.7498	1523.9087	2233.1141	2236.5818	3016.697	3038.2922	3070.5862	3094.1856	3103.3185	3124.1182	3498.9009	3500.0826
CC1COC1(C#C)C#C	C[C@H]1COC1(C#C)C#C	
InChI=1S/C8H8O/c1-4-8(5-2)7(3)6-9-8/h1-2,7H,6H2,3H3	InChI=1S/C8H8O/c1-4-8(5-2)7(3)6-9-8/h1-2,7H,6H2,3H3/t7-/m0/s1
