18
gdb 112487	2.71287	1.21204	0.88263	1.6686	79.57	-0.2377	-0.0327	0.205	1310.1956	0.147196	-439.100639	-439.091588	-439.090644	-439.135745	32.381	
C	 0.0086406733	 1.4840050808	-0.1422263006	-0.334071
N	-0.062523257	 0.0338652834	-0.1331604236	-0.330784
C	 0.520086737	-0.627468843	-1.0363880625	 0.430283
O	 1.2511676987	-0.0938298231	-2.084489485	-0.279285
C	 1.7658087743	-1.156276574	-2.9091375036	 0.026881
C	 3.2923782165	-1.0302409332	-2.94763716	-0.059668
O	 3.6930269518	 0.2127690292	-3.4791014976	-0.416889
C	 1.2470808119	-2.40962246	-2.2651195129	-0.109542
C	 0.5432909598	-2.0873704066	-1.1797857914	-0.169025
H	 0.3603472895	 1.9142913285	-1.0870354321	 0.117685
H	-0.9832941406	 1.8892375884	 0.0837261146	 0.126044
H	 0.6770084854	 1.8216924048	 0.6602887604	 0.126344
H	 1.3775461751	-1.010254672	-3.9268681042	 0.109743
H	 3.6843121032	-1.192468584	-1.9314770759	 0.097377
H	 3.7075744489	-1.8061181069	-3.5998540793	 0.112692
H	 3.2694440404	 0.8905936336	-2.9397539624	 0.294376
H	 1.4465348725	-3.399005032	-2.654501525	 0.125336
H	 0.0389654094	-2.7392957738	-0.4821885988	 0.132502
30.7218	87.7213	121.9101	142.1358	219.1474	255.8255	344.2095	427.1391	449.1241	502.8553	511.3632	666.9484	696.2177	788.0587	815.1129	856.6135	915.6113	972.3375	1001.5185	1030.5789	1066.7522	1079.5143	1089.4811	1123.9736	1125.8856	1149.7572	1204.8248	1221.332	1286.7993	1352.5405	1366.7275	1389.988	1427.2556	1437.2973	1489.8174	1495.636	1498.7025	1658.1751	1780.9368	2985.9457	3011.0498	3016.5277	3067.9365	3077.0515	3087.6293	3225.1719	3258.9884	3800.6306
CN=C1OC(CO)C=C1	CN=C1O[C@@H](CO)C=C1	
InChI=1S/C6H9NO2/c1-7-6-3-2-5(4-8)9-6/h2-3,5,8H,4H2,1H3	InChI=1S/C6H9NO2/c1-7-6-3-2-5(4-8)9-6/h2-3,5,8H,4H2,1H3/t5-/m1/s1
