14
gdb 75679	2.96795	1.33716	1.13775	2.5869	70.25	-0.2475	-0.0305	0.2171	1068.0441	0.098479	-436.617899	-436.609559	-436.608614	-436.650854	30.735	
O	-0.0973582928	 1.5322317541	-0.0392508309	-0.424408
C	-0.0528637011	 0.1318874486	-0.0166853698	-0.080919
C	 0.1492596896	-0.5923625385	 1.3358964791	 0.375367
O	 1.0076492319	-0.6220400643	 2.1599862378	-0.295629
N	-1.084789398	-1.3528162771	 1.2648142264	-0.205695
C	-2.1487735363	-0.3075787061	 1.2037007597	-0.266554
C	-1.4166358713	-0.561916697	-0.052173093	 0.149199
C	-1.978059904	-1.1923571062	-1.1962369956	 0.189053
C	-2.4435823736	-1.693050336	-2.1852742131	-0.367473
H	 0.7912105708	 1.862173887	 0.135803886	 0.302842
H	 0.6202933389	-0.286638934	-0.7781872913	 0.116866
H	-3.1427489756	-0.7313800229	 1.2914640821	 0.153813
H	-1.9937877279	 0.6299339517	 1.7299144	 0.152294
H	-2.8570452206	-2.1441931292	-3.0535239575	 0.201243
88.795	135.7454	179.3933	191.8903	262.1565	286.6009	407.8098	484.512	496.6191	536.1531	620.4734	633.4073	665.3213	678.9091	725.1618	747.5317	865.3968	952.9412	974.8145	1046.5958	1121.9748	1141.1146	1149.3979	1178.4324	1234.385	1295.8046	1351.2802	1427.9671	1501.4569	1921.4205	2242.5182	3015.6561	3127.7634	3226.3896	3500.7097	3810.5804
OC1C(=O)N2CC12C#C	O[C@H]1C(=O)N2C[C@@]12C#C	
InChI=1S/C6H5NO2/c1-2-6-3-7(6)5(9)4(6)8/h1,4,8H,3H2	InChI=1S/C6H5NO2/c1-2-6-3-7(6)5(9)4(6)8/h1,4,8H,3H2/t4-,6-,7?/m0/s1
