18
gdb 90281	3.38359	1.32536	1.17842	4.5049	79.27	-0.2406	-0.0275	0.2131	1093.2084	0.149322	-401.973533	-401.965837	-401.964892	-402.005534	30.319	
C	-0.0282523803	 1.5480640366	-0.1369354024	-0.388129
C	-0.0012790419	 0.0306155136	-0.0608343841	-0.026431
C	 1.2154776592	-0.644155316	-0.8150427316	-0.321005
C	 1.8713273543	-0.6562915004	 0.5429684834	 0.254429
C	 2.8672655504	-0.0821299416	 1.2233363293	-0.334346
C	 2.3310241553	 0.3408226337	 2.5590943638	 0.402921
O	 2.921105037	 0.7923058107	 3.5138350486	-0.375236
N	 0.9354815478	 0.1818235332	 2.470235922	-0.340392
C	 0.5835026265	-0.5674037822	 1.3008388727	-0.025526
H	 0.9416909895	 1.9765207838	 0.1334782015	 0.13182
H	-0.2774866589	 1.8800654486	-1.1496432184	 0.117805
H	-0.7742399772	 1.9592290433	 0.5498557001	 0.123099
H	-0.9737235987	-0.3940393933	-0.3229528728	 0.079957
H	 0.9605152962	-1.6344542029	-1.2020824232	 0.118935
H	 1.7080057488	-0.0637824112	-1.5976015386	 0.121177
H	 3.8591014439	 0.1931036682	 0.893714523	 0.117658
H	 0.4076685295	 0.1457679934	 3.3287314321	 0.245755
H	 0.0929578185	-1.5190582676	 1.5323329648	 0.097508
107.6972	178.1098	218.4606	239.5971	322.7855	374.8725	442.333	512.0582	550.1082	607.1087	718.6197	723.7037	775.2741	801.2257	816.1721	863.471	888.6134	907.0466	931.1661	1014.6144	1039.1836	1075.5742	1103.2819	1109.0523	1142.5355	1182.9825	1196.5441	1235.6677	1250.0118	1291.827	1332.9056	1363.6216	1403.0997	1416.8599	1478.0732	1492.808	1495.9401	1687.4003	1822.1207	3039.3058	3044.3277	3061.4266	3072.9169	3108.1821	3113.5931	3122.8964	3239.021	3630.5931
CC1CC2=CC(=O)NC12	C[C@H]1C[C]2[CH]C(=O)N[C@@H]12	
InChI=1S/C7H9NO/c1-4-2-5-3-6(9)8-7(4)5/h3-4,7H,2H2,1H3,(H,8,9)	InChI=1S/C7H9NO/c1-4-2-5-3-6(9)8-7(4)5/h3-4,7H,2H2,1H3,(H,8,9)/t4-,7-/m0/s1
