19
gdb 67988	2.87252	1.66355	1.26127	3.1004	78.53	-0.2319	-0.0081	0.2238	1034.4627	0.16034	-385.89681	-385.889328	-385.888383	-385.92842	30.365	
C	-0.0230038646	 1.4606494024	 0.0765289335	-0.486632
C	 0.0191670208	-0.0460112587	-0.0200462162	 0.345468
C	 0.9978108616	-0.6879143063	-0.9933768349	-0.41539
C	 0.363289484	-2.049755384	-1.3344356554	 0.423513
O	 0.7147231769	-2.8015628347	-2.2053757555	-0.326123
C	-0.7749127822	-2.2519456402	-0.3451846405	-0.161715
C	-0.1263636019	-2.3162748687	 1.0897750656	-0.255418
C	-0.3797945883	-0.8167362433	 1.2333050824	-0.098943
C	-1.2774158126	-0.8258157531	 0.0032437681	-0.116966
H	 0.9168782278	 1.8610115761	 0.4734252491	 0.121488
H	-0.1883254012	 1.9146805776	-0.9071222442	 0.119545
H	-0.8302924074	 1.793125406	 0.7375340239	 0.117903
H	 1.0948057538	-0.0977295899	-1.9117922872	 0.125937
H	 2.0104789447	-0.8315374555	-0.5993597706	 0.126048
H	-1.4694860787	-3.0441893585	-0.6130755742	 0.087966
H	-0.764612528	-2.8945703542	 1.7613688027	 0.116266
H	 0.9012180671	-2.6892447918	 1.1680514859	 0.103211
H	-0.5206303836	-0.2896283592	 2.1703031281	 0.084012
H	-2.2627653582	-0.411122494	-0.1643010405	 0.089828
109.9393	219.3959	253.489	288.1695	302.1339	408.6738	455.2852	522.8377	552.2095	637.6547	694.3296	755.0675	782.1487	846.9182	856.62	892.1225	928.3042	949.5352	958.7234	984.1435	1002.2965	1027.249	1066.9733	1089.4016	1103.1248	1138.7883	1180.2541	1195.4039	1215.6848	1227.5509	1245.3282	1269.862	1291.367	1327.6477	1400.564	1419.9287	1456.9769	1490.4142	1496.5966	1503.8604	1847.9783	3023.4105	3036.7129	3041.684	3077.7033	3084.6656	3095.9346	3105.9281	3150.4684	3170.5152	3199.3186
CC12CC(=O)C3CC1C23	C[C@@]12CC(=O)[C@H]3C[C@@H]1[C@@H]23	
InChI=1S/C8H10O/c1-8-3-6(9)4-2-5(8)7(4)8/h4-5,7H,2-3H2,1H3	InChI=1S/C8H10O/c1-8-3-6(9)4-2-5(8)7(4)8/h4-5,7H,2-3H2,1H3/t4-,5-,7+,8-/m1/s1
