19
gdb 97501	3.75818	0.66081	0.59485	2.7443	83.42	-0.2572	-0.0517	0.2055	1891.7638	0.15563	-423.012749	-423.001761	-423.000817	-423.050619	37.464	
C	 0.3055780108	 1.3994697417	 0.0425919817	-0.392696
C	-0.0466861939	-0.0998144543	-0.0422851956	-0.072182
C	-1.5569590948	-0.3378559316	-0.0777101892	-0.392262
C	 0.6371413306	-0.7243729434	-1.2570914146	 0.21083
O	 0.0301892309	-1.1569025301	-2.2145371471	-0.299474
C	 2.0887109321	-0.7741064211	-1.2076837392	-0.027123
C	 3.2952011253	-0.827033093	-1.1655394991	 0.150172
C	 4.75104815	-0.9542847576	-1.1672852433	-0.198792
O	 5.3010554476	-1.2127255363	-2.4463288719	-0.395199
H	 1.3869420428	 1.5580993198	 0.069292638	 0.128289
H	-0.0985539933	 1.9408525193	-0.8192163037	 0.129411
H	-0.1260915476	 1.8351407947	 0.9483165581	 0.122892
H	 0.3865584478	-0.5907135138	 0.840717368	 0.095914
H	-2.0020222877	 0.1287593632	-0.9605973709	 0.13243
H	-1.7910872722	-1.4046590014	-0.1186657379	 0.124896
H	-2.0274802508	 0.0873311877	 0.8138670261	 0.107427
H	 5.2070548552	-0.0185635605	-0.8247444509	 0.150605
H	 5.0337611884	-1.728025806	-0.4343573915	 0.12977
H	 4.8303541387	-1.9637001372	-2.823526287	 0.295092
33.358	41.1757	67.1509	126.7118	166.2922	206.1952	226.4961	262.9942	294.8203	309.0172	356.8404	393.0618	425.6882	530.8015	610.3366	699.855	748.4021	869.1286	932.408	949.057	970.7971	984.5169	1061.2991	1103.3939	1122.445	1168.6645	1208.897	1217.0234	1311.0513	1355.012	1362.2062	1398.7755	1417.2177	1420.1799	1480.0222	1484.9995	1487.0835	1500.8858	1509.625	1758.4202	2319.058	2972.2914	3010.9039	3039.0529	3047.1373	3064.2258	3109.8863	3118.6537	3120.1205	3125.0149	3814.8923
CC(C)C(=O)C#CCO	CC(C)C(=O)C#CCO	
InChI=1S/C7H10O2/c1-6(2)7(9)4-3-5-8/h6,8H,5H2,1-2H3	InChI=1S/C7H10O2/c1-6(2)7(9)4-3-5-8/h6,8H,5H2,1-2H3
