20
gdb 105547	2.46107	1.38745	1.08025	3.57	74.05	-0.244	0.0635	0.3075	1175.2095	0.171094	-440.218518	-440.209473	-440.208529	-440.25252	33.493	
O	 0.0811985537	 1.4974164423	-0.2884277056	-0.420201
C	 0.1491252693	 0.0851075139	-0.1706598766	-0.153863
C	-1.2533370698	-0.4616610069	 0.0706737301	 0.262905
C	-2.0818766451	 0.2457226501	 1.1712968571	-0.140376
O	-3.178223061	 0.4691233525	 0.2636872483	-0.278334
C	-2.375587903	 0.0650517531	-0.8676894615	-0.108297
C	-1.2068013622	-1.9760894743	 0.1374716906	-0.055243
C	-1.1195817557	-2.7192960129	 1.4199178143	-0.253612
N	-2.3501627908	-2.7646401499	 0.6126253885	-0.329705
H	 0.9689796496	 1.8331653569	-0.4404904846	 0.292781
H	 0.5616734176	-0.3694119848	-1.0861699535	 0.092677
H	 0.8014406167	-0.215086705	 0.665085748	 0.095613
H	-2.3865406124	-0.3443247601	 2.0444366105	 0.091658
H	-1.6309375629	 1.1847511254	 1.5101475361	 0.117611
H	-2.0778594993	 0.9220799554	-1.4813679375	 0.112732
H	-2.8835546466	-0.6849809486	-1.4836492261	 0.107993
H	-0.7271321298	-2.4237858384	-0.7335209153	 0.090103
H	-0.5707989949	-3.6554032502	 1.4721712273	 0.119256
H	-1.1201134606	-2.1479654253	 2.3449838511	 0.112085
H	-3.0600264628	-2.1495656431	 1.0055392186	 0.244216
80.7226	105.129	127.0936	194.3645	238.666	251.4782	304.1534	324.3708	394.4525	465.91	555.0066	634.5489	797.3146	851.1437	872.1667	887.0485	926.0773	955.2508	963.4321	992.7616	1033.225	1038.043	1082.3512	1098.2795	1138.5165	1150.9676	1163.1725	1168.2225	1174.6665	1213.5632	1239.2227	1256.3182	1281.8603	1303.1719	1312.8884	1318.8374	1380.8599	1421.7276	1456.5094	1500.6885	1513.0414	1514.2987	1532.0684	2963.1652	2993.7207	3016.3403	3031.1463	3069.8598	3083.5375	3096.3271	3108.4097	3190.1508	3496.5389	3838.6075
OCC1(COC1)C1CN1	OCC1(COC1)[C@H]1CN1	
InChI=1S/C6H11NO2/c8-2-6(3-9-4-6)5-1-7-5/h5,7-8H,1-4H2	InChI=1S/C6H11NO2/c8-2-6(3-9-4-6)5-1-7-5/h5,7-8H,1-4H2/t5-/m1/s1
