14
gdb 30471	6.51901	0.92324	0.81277	2.9824	78.19	-0.217	-0.0329	0.1841	1347.9312	0.098922	-436.661626	-436.653137	-436.652193	-436.695454	30.088	
C	 0.047063176	 1.3837041351	 0.1116572672	-0.335864
N	 0.2330592295	-0.0549124799	 0.0795611875	-0.362834
C	 0.6485926902	-0.6104097311	-0.9557775674	 0.526935
O	 0.9857648979	-0.0263583383	-2.1709159553	-0.216201
C	 1.3875465773	-1.0402830843	-2.9991964328	-0.145674
C	 1.3117334028	-2.2082247642	-2.3502717028	 0.180695
O	 0.8481523962	-1.9590735514	-1.0609011749	-0.247909
C	 1.601559903	-3.523955489	-2.7359677534	 0.242076
C	 1.8501279475	-4.6545192144	-3.0659861792	-0.40433
H	 0.6603659212	 1.8081219007	 0.9142103712	 0.131251
H	 0.2999788643	 1.893538726	-0.8256682237	 0.121906
H	-0.9972477762	 1.6062346306	 0.3571339623	 0.131251
H	 1.691910864	-0.7833881436	-3.9981247617	 0.17154
H	 2.0698024765	-5.6518910762	-3.3582873069	 0.207156
51.155	91.1942	132.4511	213.4518	231.6736	257.4915	437.4447	441.1773	549.8396	564.9583	628.414	633.175	703.6643	718.6668	725.4824	775.5713	863.4834	958.1855	1067.0294	1112.7869	1138.532	1139.5809	1200.417	1266.4022	1308.233	1448.5771	1494.2091	1503.2264	1689.0972	1853.2682	2239.3321	3015.2953	3080.2462	3082.6969	3304.7294	3500.6636
CN=C1OC=C(O1)C#C	CN=c1occ(o1)C#C	
InChI=1S/C6H5NO2/c1-3-5-4-8-6(7-2)9-5/h1,4H,2H3	InChI=1S/C6H5NO2/c1-3-5-4-8-6(7-2)9-5/h1,4H,2H3
