18
gdb 8145	4.22318	1.60978	1.35332	1.4421	73.77	-0.215	0.0238	0.2388	958.9196	0.153575	-347.805977	-347.798378	-347.797434	-347.837254	30.12	
C	 0.0317045069	 1.4794264497	 0.054042403	-0.486725
C	-0.012688526	-0.0139668939	-0.0167755315	 0.308698
C	-0.0495026135	-0.7751711323	-1.1187125055	-0.169391
C	-0.0327157539	-2.2306773886	-0.8073694463	-0.158891
C	 1.211883883	-2.7370067775	-0.0771717884	-0.304722
C	 0.0202359874	-2.3091071815	 0.7147840094	 0.416003
O	-0.6105668554	-3.3110390733	 1.4514530246	-0.469599
C	-0.0224591894	-0.8716874784	 1.2367940673	-0.383337
H	 0.9473060412	 1.8333448904	 0.5453496709	 0.124144
H	-0.0105850857	 1.9291811893	-0.9419813194	 0.122391
H	-0.8068420294	 1.8750339232	 0.6423506575	 0.120989
H	-0.0592297412	-0.3882002329	-2.1325871862	 0.085774
H	-0.5994155371	-2.9417053049	-1.3985457075	 0.085985
H	 1.3827617437	-3.8079348907	-0.1032283962	 0.11792
H	 2.1044589036	-2.1193457634	-0.0886272988	 0.107821
H	-1.5535338743	-3.1127838886	 1.4745129654	 0.277866
H	 0.8172778552	-0.6479229408	 1.9068308907	 0.112387
H	-0.9359994553	-0.7016126258	 1.828077371	 0.092685
143.7704	185.8641	253.196	287.3341	328.6811	384.7225	413.0434	420.9348	481.881	559.7949	646.8043	739.231	831.2523	857.8502	870.382	904.0702	929.7539	971.4827	976.4121	1006.1376	1056.5441	1058.8348	1072.873	1088.6483	1161.2217	1185.8711	1233.9277	1251.6345	1292.0561	1334.8863	1340.7731	1411.9197	1416.5528	1464.4914	1478.7614	1484.4684	1491.5832	1702.075	2989.0485	3012.6031	3042.8058	3056.1484	3106.246	3123.5955	3169.0919	3182.9673	3219.5265	3789.9924
CC1=CC2CC2(O)C1	CC1=C[C@H]2C[C@@]2(O)C1	
InChI=1S/C7H10O/c1-5-2-6-4-7(6,8)3-5/h2,6,8H,3-4H2,1H3	InChI=1S/C7H10O/c1-5-2-6-4-7(6,8)3-5/h2,6,8H,3-4H2,1H3/t6-,7-/m0/s1
