19
gdb 97810	2.65898	0.80679	0.67991	2.3176	82.16	-0.248	0.0231	0.2712	1674.5613	0.157869	-422.971738	-422.961588	-422.960644	-423.008616	35.818	
O	 0.2361625866	 0.8743306931	-0.4900494522	-0.400585
C	-0.0429164291	-0.1448064056	 0.4604140102	-0.194067
C	-1.3938801117	-0.6954676644	 0.3530456795	 0.052242
C	-2.5340155919	-1.0791055829	 0.2423574089	 0.048901
C	-3.8767896983	-1.5713796317	 0.1389415853	-0.187308
C	-4.4960947121	-1.8791118588	-1.2188294731	-0.302699
C	-4.1328498934	-3.0109961776	-0.3067321938	-0.019021
C	-2.9540875708	-3.9044846366	-0.6250725889	-0.080564
O	-2.2879651707	-4.3573659784	 0.5405036842	-0.423021
H	-0.4726184865	 1.5234815261	-0.4311359458	 0.28713
H	 0.701422888	-0.928460138	 0.2798309546	 0.141157
H	 0.1197781717	 0.2124198024	 1.4902224377	 0.118972
H	-4.5613647332	-1.1880005534	 0.88995617	 0.113542
H	-5.5411161544	-1.6254741586	-1.3555093282	 0.121836
H	-3.8715142278	-1.7119388453	-2.0894420757	 0.129803
H	-4.9441561814	-3.5048755432	 0.2198626113	 0.100188
H	-3.300283005	-4.8033061429	-1.1466129111	 0.11057
H	-2.2651287221	-3.377845529	-1.3018997542	 0.096018
H	-1.9114503379	-3.5761457351	 0.9621033812	 0.286907
26.9333	55.3377	93.6495	116.5534	202.0424	210.7352	282.569	321.4598	352.7896	405.6915	439.0442	481.5782	576.5138	597.8979	719.0966	787.0813	848.048	901.2663	941.6232	978.5552	985.8793	1040.0397	1063.6209	1073.7112	1080.8566	1125.8174	1154.7731	1168.5396	1216.6583	1229.6154	1251.183	1357.7399	1359.0309	1391.1494	1410.3984	1420.7071	1434.777	1483.2951	1490.0597	1498.4302	2341.1072	2974.0127	2997.1066	3060.7465	3070.9174	3138.5538	3143.8341	3157.8578	3228.0085	3793.2805	3816.3013
OCC#CC1CC1CO	OCC#C[C@H]1C[C@H]1CO	
InChI=1S/C7H10O2/c8-3-1-2-6-4-7(6)5-9/h6-9H,3-5H2	InChI=1S/C7H10O2/c8-3-1-2-6-4-7(6)5-9/h6-9H,3-5H2/t6-,7-/m0/s1
