23
gdb 58774	2.46976	1.2702	1.19963	1.6664	85.93	-0.2246	0.0781	0.3027	1240.8482	0.203701	-388.265466	-388.255474	-388.254529	-388.299978	37.813	
C	 0.1386485256	 1.4712313356	 0.0796795885	-0.386943
C	-0.0941557409	-0.0458196027	-0.0280621222	-0.081177
C	-1.5927350794	-0.3824669592	-0.0675030685	-0.392241
C	 0.6207024939	-0.5956633969	-1.2302805689	 0.478643
C	 2.0718624224	-0.9666338615	-1.3352614988	-0.397267
C	 1.0045270624	-1.9789050234	-1.7258274749	 0.181667
C	 0.886656195	-3.3533926477	-1.1355512654	-0.495049
C	 0.4038874172	-1.5204142773	-3.0510613341	-0.124489
O	 0.1463050268	-0.1903952392	-2.528741263	-0.336201
H	 1.2053617407	 1.7034055781	 0.1540759376	 0.114599
H	-0.2564754421	 1.9820016049	-0.804075033	 0.133815
H	-0.3637900572	 1.8805225343	 0.9617684896	 0.106319
H	 0.3528714792	-0.5277575688	 0.8521654296	 0.073994
H	-2.0518733452	 0.0361032785	-0.9677544977	 0.132447
H	-1.7571740455	-1.4647015141	-0.0771241905	 0.108899
H	-2.1085175745	 0.0305926052	 0.8051035199	 0.106278
H	 2.6966454004	-0.492524821	-2.0885523947	 0.107577
H	 2.5706851727	-1.1852617586	-0.3950263795	 0.107444
H	 1.1375990726	-3.348005738	-0.0699095325	 0.120819
H	-0.1304635379	-3.7488837872	-1.2369571615	 0.119136
H	 1.5683172378	-4.0588630049	-1.6265418863	 0.121796
H	 1.056186095	-1.5021213403	-3.9332332599	 0.098739
H	-0.5377491589	-2.0256167659	-3.3007331441	 0.101195
63.8296	116.0583	170.9583	196.4189	210.6882	230.6449	269.2024	284.3628	333.2938	346.9553	438.6045	485.3248	534.5541	592.0031	691.7563	782.6612	864.9415	878.3978	918.4337	928.8832	956.5285	963.8443	983.2841	996.4845	1028.344	1039.4605	1054.1461	1114.7203	1135.3374	1154.3944	1174.4847	1192.5026	1245.378	1276.2722	1323.0654	1334.2251	1364.6215	1392.9153	1413.0832	1415.6102	1432.7127	1485.6445	1486.2028	1492.341	1494.822	1500.2685	1501.2119	1517.5634	1525.1515	3009.4795	3014.1699	3020.2922	3034.0853	3037.8896	3057.1734	3076.6157	3096.2141	3102.1456	3103.4911	3106.7372	3110.8803	3117.5081	3194.9335
CC(C)C12CC1(C)CO2	CC(C)[C@@]12C[C@]1(C)CO2	
InChI=1S/C8H14O/c1-6(2)8-4-7(8,3)5-9-8/h6H,4-5H2,1-3H3	InChI=1S/C8H14O/c1-6(2)8-4-7(8,3)5-9-8/h6H,4-5H2,1-3H3/t7-,8+/m1/s1
