20
gdb 107442	2.96013	1.39021	1.16987	1.937	77.94	-0.2181	0.0669	0.285	1119.6862	0.172345	-403.101227	-403.093164	-403.092219	-403.133735	31.919	
O	-0.038366214	 1.3531989582	 0.375569056	-0.42144
C	-0.0110728816	-0.0003881511	-0.0617745989	-0.190571
C	-1.4153444601	-0.534615396	-0.0303981955	 0.390856
C	-1.9750838227	-1.1024477307	 1.2516994461	-0.338673
C	-1.7162946144	-2.0180552939	 0.0821114407	-0.107017
C	-2.8379575835	-2.3260160937	-0.9133881365	-0.187226
N	-3.1789859664	-1.0886055053	-1.6572167673	-0.102413
C	-3.845066532	-0.0413399801	-0.8692377058	-0.256123
C	-2.3759597314	 0.0098262708	-1.0699751096	-0.082019
H	 0.8355425191	 1.7303459339	 0.2360148479	 0.286826
H	 0.3888374724	-0.0725278623	-1.0864275499	 0.089082
H	 0.6310598924	-0.6178605706	 0.5865534176	 0.082163
H	-1.2873713445	-1.1718234547	 2.0891785838	 0.112163
H	-2.9918288422	-0.8747730946	 1.547767018	 0.114425
H	-0.912007036	-2.7418716113	 0.1731187433	 0.085592
H	-2.4843011093	-3.0631891248	-1.6419082842	 0.109372
H	-3.7339908479	-2.7432562516	-0.4393463123	 0.105812
H	-4.492050121	 0.6129130896	-1.4489317996	 0.111484
H	-4.2394544378	-0.2866794088	 0.1122582663	 0.108463
H	-1.956864789	 0.7340473271	-1.7634367001	 0.089244
86.685	134.5375	247.7012	260.5236	279.1164	343.5625	383.4942	445.8244	479.0041	650.2849	673.0932	701.3427	784.7911	829.5549	835.0449	882.9487	918.3937	950.5216	983.2054	997.3745	1025.6016	1035.1696	1065.9092	1072.5346	1096.2149	1100.9679	1116.1961	1121.6416	1162.2401	1219.5788	1230.2157	1242.7112	1261.3135	1275.1102	1316.0725	1340.411	1374.3686	1413.2409	1465.1878	1491.7399	1499.5345	1516.1886	1524.1773	2961.0558	2991.331	3034.7171	3070.3273	3106.6238	3131.2065	3142.0679	3151.9525	3187.7761	3216.2496	3824.0325
OCC12CC1CN1CC21	OC[C@]12C[C@H]1CN1C[C@@H]21	
InChI=1S/C7H11NO/c9-4-7-1-5(7)2-8-3-6(7)8/h5-6,9H,1-4H2	InChI=1S/C7H11NO/c9-4-7-1-5(7)2-8-3-6(7)8/h5-6,9H,1-4H2/t5-,6-,7+,8?/m0/s1
