15
gdb 60780	2.16824	1.38152	0.85529	10.5897	86.49	-0.1834	-0.049	0.1343	1269.0716	0.112026	-412.978993	-412.969264	-412.968319	-413.014417	33.76	
C	-0.2586539455	 1.4345008587	 0.0108136105	-0.384824
N	 0.0147360729	-0.0081966828	-0.0004014845	-0.051655
C	 0.2728563927	-0.6133106939	 1.1288157293	 0.122017
N	 0.2906227907	 0.0003332038	 2.3418865791	-0.529311
H	 0.3247030738	-0.6018417041	 3.1477229836	 0.289539
H	-0.2017121783	 0.8679661976	 2.4813909609	 0.279018
C	-0.0844572303	-0.7077434267	-1.2446620275	-0.02903
C	-0.0700455654	 0.0190632265	-2.4349554659	 0.184946
N	-0.0751071429	 0.655324193	-3.4129811086	-0.399352
C	-0.0903541022	-2.1009557206	-1.1873717409	 0.196069
N	-0.0872575286	-3.258021003	-1.0355205115	-0.396343
H	 0.5079171867	 1.9473521451	 0.5967506986	 0.15665
H	-0.2378150787	 1.8047750576	-1.0117349242	 0.211128
H	-1.2488032421	 1.62641097	 0.4373211971	 0.156694
H	 0.510253887	-1.6687110213	 1.0923018338	 0.194454
30.9263	111.3791	134.9437	152.8398	161.8085	246.6019	299.7073	354.887	405.1737	417.0109	479.0027	499.9441	508.244	563.0089	574.9139	611.5022	730.157	904.3344	986.4075	1095.4081	1137.926	1149.973	1257.5046	1324.2657	1345.2172	1434.1347	1455.0372	1496.9817	1501.1066	1649.4817	1725.9073	2254.573	2286.5096	3045.5035	3119.7687	3179.3883	3226.9106	3601.5448	3713.7326
CN(C=[NH2+])[C-](C#N)C#N	CN(C=[NH2])[C](C#N)C#N	
InChI=1S/C5H5N4/c1-9(4-8)5(2-6)3-7/h4,8H,1H3/q-1/p+1	InChI=1S/C5H6N4/c1-9(4-8)5(2-6)3-7/h4H,8H2,1H3
