14
gdb 29440	5.78423	0.97724	0.836	3.1995	69.84	-0.2	-0.0061	0.1939	1281.3749	0.102225	-470.032233	-470.024259	-470.023315	-470.065481	29.027	
O	 0.0790997965	 1.3904340709	 0.0806815213	-0.430663
C	 0.0597340147	 0.0508086162	-0.0425276692	 0.332866
C	-0.0013882541	-0.6883296413	-1.1750750022	-0.162351
O	 0.0040772482	-2.0229428318	-0.7747036126	-0.149718
C	 0.0674809524	-1.9697350238	 0.5529132225	 0.546553
N	 0.0916896149	-3.120791713	 1.302522513	-0.393226
C	 0.057159318	-4.4454558128	 0.9039383831	 0.077098
N	-0.0061382526	-4.8228601538	-0.3058188887	-0.424802
N	 0.1040348166	-0.7704104644	 1.0680570934	-0.451196
H	 0.1257557702	 1.5803509669	 1.0251449803	 0.305419
H	-0.0495070448	-0.4958485226	-2.229199938	 0.146873
H	 0.140907004	-2.935763707	 2.2913295573	 0.273961
H	 0.0925312845	-5.1014871177	 1.7817189273	 0.098994
H	-0.0198474484	-5.8394809858	-0.3503728676	 0.230194
38.2934	158.774	160.685	269.2975	301.951	339.5149	387.4145	470.1772	522.215	586.9171	619.4201	691.6752	730.8453	755.2548	804.2737	831.237	980.3842	1030.9035	1047.2286	1107.8314	1114.5766	1186.1052	1231.5785	1282.9893	1393.2365	1415.8213	1460.2651	1493.7517	1660.1744	1703.4523	1736.375	3048.7963	3327.9951	3513.2872	3656.7827	3812.0083
OC1=COC(NC=N)=N1	Oc1coc(NC=N)n1	
InChI=1S/C4H5N3O2/c5-2-6-4-7-3(8)1-9-4/h1-2,8H,(H2,5,6,7)	InChI=1S/C4H5N3O2/c5-2-6-4-7-3(8)1-9-4/h1-2,8H,(H2,5,6,7)
