18
gdb 48481	2.09188	1.53909	1.18002	3.2404	76.26	-0.2764	-0.0483	0.2281	1118.5914	0.148195	-401.989743	-401.981155	-401.980211	-402.023608	31.466	
O	 0.2947910279	 0.0632277434	-0.8322153423	-0.237835
C	 0.1802353636	 1.1215879809	-0.279260805	 0.134151
C	 1.3679547215	 2.0064327573	 0.1510447645	 0.059531
C	 2.7231090098	 1.227492127	 0.1380778736	-0.26958
C	 3.5942983481	 1.9082773816	-0.9385459162	-0.20025
C	 2.5793927116	 2.5392630917	-1.9021900262	-0.210628
C	 1.5161977902	 3.1143872438	-0.9593761664	-0.252807
C	 1.041249156	 2.5978269769	 1.4453018232	 0.231381
N	 0.7616913938	 3.0617751574	 2.467041985	-0.337978
H	-0.8129653133	 1.5762485937	-0.0806215384	 0.113097
H	 3.190368799	 1.22592971	 1.1237287513	 0.125982
H	 2.5046032909	 0.1928919172	-0.1363366828	 0.143416
H	 4.2117649886	 2.6932245555	-0.4870941359	 0.109603
H	 4.2701757425	 1.2022523274	-1.4273744273	 0.110353
H	 3.0114420136	 3.3051057658	-2.5514528807	 0.108961
H	 2.1368706692	 1.768565199	-2.5434778188	 0.121863
H	 0.5614562552	 3.3430356242	-1.4428069926	 0.118026
H	 1.8719779118	 4.0357248873	-0.489371815	 0.132714
59.7775	80.0666	166.0601	176.3673	252.0076	298.9245	332.5853	470.2956	541.3294	544.9237	560.9888	621.1461	728.1641	838.0912	859.1111	872.9935	913.1916	930.5451	981.5427	997.2207	1034.0795	1074.2477	1089.7493	1127.665	1200.817	1232.2677	1258.7865	1275.1278	1320.1911	1345.2125	1348.3322	1356.7932	1416.4438	1485.1972	1490.6151	1492.0664	1510.6126	1836.8831	2349.5314	2917.566	3042.2893	3048.4803	3054.922	3078.888	3096.0324	3100.0669	3109.3322	3132.6758
O=CC1(CCCC1)C#N	O=CC1(CCCC1)C#N	
InChI=1S/C7H9NO/c8-5-7(6-9)3-1-2-4-7/h6H,1-4H2	InChI=1S/C7H9NO/c8-5-7(6-9)3-1-2-4-7/h6H,1-4H2
