19
gdb 90111	3.11815	1.67078	1.49597	1.6721	80.28	-0.2227	0.0027	0.2254	966.1895	0.159633	-385.758898	-385.751716	-385.750772	-385.789886	30.297	
C	-0.2091007438	 1.584457783	-0.1948685657	-0.399002
C	-0.0647691419	 0.0871810858	-0.0180099771	 0.056469
O	 0.9910467176	-0.5155562134	-0.8986321632	-0.368941
C	 1.8206390038	-0.6477937213	 0.2824774465	 0.37542
C	 2.4958194383	-1.6718707313	 1.3027070323	-0.304164
C	 1.8145628582	-0.5864396746	 2.3005910099	-0.145688
C	 2.6199743963	 0.6605772135	 1.9348443089	-0.070762
C	 2.6479202073	 0.6072314683	 0.6036926837	-0.152158
C	 0.6519352994	-0.6086148796	 1.2083651559	-0.042869
H	 0.7025234627	 2.1278474032	 0.0513916467	 0.130371
H	-0.4818027979	 1.8075694336	-1.2313939613	 0.126819
H	-1.0143209726	 1.9475724274	 0.4533244296	 0.118306
H	-1.0170110139	-0.4061098247	-0.2362759996	 0.089071
H	 2.0345657161	-2.6613738986	 1.3425168401	 0.109523
H	 3.5868702485	-1.7295258549	 1.3317450626	 0.102835
H	 1.6388569992	-0.8297041781	 3.3478493961	 0.075011
H	 3.0727559818	 1.3577411619	 2.6253255333	 0.104892
H	 3.1112856764	 1.2456665032	-0.134547083	 0.105558
H	 0.1855249044	-1.5952922833	 1.2705320043	 0.089308
188.7324	215.7799	217.3068	358.3799	410.0593	458.944	467.5154	527.63	601.1707	686.2959	707.9452	733.2124	743.1619	787.1925	817.3308	880.1398	907.4149	920.3795	943.6371	979.7923	994.6116	1031.691	1046.8699	1051.2005	1092.7388	1107.7395	1121.2155	1154.3261	1181.7782	1195.419	1200.9145	1238.6622	1276.7766	1319.2619	1372.6051	1398.0713	1429.7882	1484.4873	1490.4484	1496.672	1630.5616	3040.1546	3048.4703	3056.4515	3068.7377	3102.6712	3124.9517	3135.526	3155.0865	3221.1186	3249.9054
CC1OC23CC(C=C2)C13	C[C@H]1O[C@@]23C[C@@H](C=C2)[C@@H]13	
InChI=1S/C8H10O/c1-5-7-6-2-3-8(7,4-6)9-5/h2-3,5-7H,4H2,1H3	InChI=1S/C8H10O/c1-5-7-6-2-3-8(7,4-6)9-5/h2-3,5-7H,4H2,1H3/t5-,6-,7-,8-/m1/s1
