16
gdb 47766	2.03985	1.72397	1.23578	3.7888	68.93	-0.2588	-0.0516	0.2073	1048.7317	0.125035	-437.913646	-437.905641	-437.904696	-437.946621	29.406	
O	 0.0542001782	-0.0382763985	 0.0482672657	-0.284711
C	-0.0362755251	 1.1595466302	-0.0003655684	 0.393448
C	-1.3363234753	 1.9345866923	-0.0555035949	-0.320855
C	-1.2715933291	 3.0713554528	-1.095388022	-0.216458
C	 0.0066139409	 3.8848913355	-0.9171804823	-0.087247
O	 1.1626066342	 3.0485316774	-1.0222199347	-0.242297
C	 1.2412162602	 2.0504320348	-0.0262284637	-0.11849
C	 1.4707481938	 2.6190953377	 1.3188335913	 0.262373
N	 1.6088557297	 3.073332925	 2.3728794472	-0.318888
H	-2.1542598528	 1.2356888076	-0.2428650521	 0.13567
H	-1.4874326057	 2.367225179	 0.9440517991	 0.149097
H	-1.2868020414	 2.6489667027	-2.1060746471	 0.125408
H	-2.1465844656	 3.7225415187	-0.9986808739	 0.117127
H	 0.1215920905	 4.6295463553	-1.7077196242	 0.127932
H	 0.008992565	 4.4089378023	 0.050252059	 0.120802
H	 2.0832761826	 1.4040968572	-0.285068489	 0.15709
73.5769	130.8627	136.6717	229.218	327.8255	378.9947	400.1425	443.4249	488.7265	561.7253	614.915	698.2663	754.4621	860.644	892.2686	916.2514	938.3624	1002.5551	1039.204	1089.1212	1115.4391	1171.3365	1210.3374	1251.5763	1264.7276	1298.3522	1340.8312	1345.907	1374.976	1408.8948	1462.3208	1485.9502	1501.3798	1841.2436	2346.6838	3004.1477	3020.9648	3045.6633	3091.0708	3099.11	3110.7522	3115.0968
O=C1CCCOC1C#N	O=C1CCCO[C@H]1C#N	
InChI=1S/C6H7NO2/c7-4-6-5(8)2-1-3-9-6/h6H,1-3H2	InChI=1S/C6H7NO2/c7-4-6-5(8)2-1-3-9-6/h6H,1-3H2/t6-/m0/s1
