19
gdb 118636	2.61163	0.76091	0.62196	2.8534	73.91	-0.2587	-0.0409	0.2178	1738.6183	0.154844	-460.169824	-460.158992	-460.158048	-460.207894	36.027	
O	-0.1155431332	 1.5265494024	 0.0561907526	-0.418147
C	 0.0588915494	 0.1204923981	 0.0363287179	-0.086904
C	-1.3320265787	-0.505847423	 0.0476306043	-0.193392
C	-1.3101844077	-2.046544301	 0.0476224758	-0.092115
C	-2.7425678983	-2.6076054942	 0.2131007889	-0.305118
C	-2.7749752535	-4.101151781	 0.4674574264	 0.155755
O	-3.4315518126	-4.6241130429	 1.3296334494	-0.235164
C	-0.7123981444	-2.5449921401	-1.2576127884	 0.163966
O	 0.2730828169	-3.2269279745	-1.3625547106	-0.248899
H	 0.7528272154	 1.9396210509	 0.0503191948	 0.290839
H	 0.6156638698	-0.2017722377	-0.8582376556	 0.100249
H	 0.6280145913	-0.2291141783	 0.912830304	 0.096626
H	-1.8669988958	-0.1514617959	 0.9350109132	 0.121503
H	-1.8928077361	-0.138369714	-0.8214278963	 0.114766
H	-0.671671491	-2.4111474466	 0.8603830775	 0.105952
H	-3.2667434	-2.1072450701	 1.0318061551	 0.132985
H	-3.31343736	-2.4144427017	-0.7085685486	 0.128021
H	-2.1381253811	-4.7091076688	-0.2148570018	 0.091866
H	-1.2808156503	-2.2107678817	-2.1603941086	 0.077209
52.4173	53.8227	59.2251	86.251	116.2171	123.8247	252.025	268.4205	309.2647	331.9457	340.2701	420.3715	531.9899	578.346	777.3588	786.638	898.7145	969.4664	994.846	1001.7922	1026.3651	1071.603	1104.5764	1115.5803	1149.8769	1208.0384	1222.2498	1239.5824	1282.1901	1307.3441	1332.7416	1342.1349	1363.5938	1420.6787	1436.9497	1457.7946	1468.496	1491.9107	1526.2484	1833.1363	1836.8107	2833.5712	2877.6961	2966.9855	2993.6499	3003.1516	3032.4769	3054.2994	3083.2302	3100.1249	3832.2756
OCCC(CC=O)C=O	OCC[C@@H](CC=O)C=O	
InChI=1S/C6H10O3/c7-3-1-6(5-9)2-4-8/h3,5-6,8H,1-2,4H2	InChI=1S/C6H10O3/c7-3-1-6(5-9)2-4-8/h3,5-6,8H,1-2,4H2/t6-/m1/s1
