19
gdb 20033	4.83084	1.0661	0.97378	2.2572	72.44	-0.2434	0.0699	0.3133	1235.3373	0.166081	-365.013556	-365.005195	-365.004251	-365.047276	30.894	
O	-0.0263937258	 1.3368607065	-0.6299513958	-0.423315
C	 0.0244128878	 0.2257372211	 0.2494187687	-0.063229
C	-1.3075617507	-0.4878699419	 0.2900232021	-0.043149
N	-1.682603401	-1.1418010795	-0.9823890451	-0.359066
C	-1.4803973425	-1.9663811761	 0.2231696386	-0.026221
C	-0.367794185	-2.9639745968	 0.2057775329	 0.033631
C	-0.1123404407	-3.8153600435	 1.4260186058	-0.268916
C	-0.6936256306	-4.4384927907	 0.1829719861	-0.27349
H	-0.3410662503	 0.9837686965	-1.4711382053	 0.288366
H	 0.8227662449	-0.4721778687	-0.0388265891	 0.088018
H	 0.2736724829	 0.6224667438	 1.2392695335	 0.106601
H	-2.0915793494	 0.0676154343	 0.8028893595	 0.08626
H	-2.6726158496	-1.0188759924	-1.173744019	 0.233034
H	-2.3810599648	-2.3407548178	 0.7122049507	 0.077816
H	 0.5000573445	-2.6619031927	-0.3694747619	 0.092689
H	 0.9151036162	-4.0406354559	 1.6887634629	 0.114881
H	-0.7680879059	-3.6831186527	 2.2806763344	 0.111019
H	-1.740382373	-4.7250883945	 0.2013059573	 0.110004
H	-0.066099087	-5.092342879	-0.4119803665	 0.115066
50.6443	65.1234	149.9475	191.4607	293.6705	306.87	403.5473	449.4376	501.8089	584.0862	753.4579	807.2896	819.974	828.4812	900.0781	916.4568	936.6197	972.4339	997.6359	1003.9006	1058.8783	1069.9242	1078.2286	1084.8572	1129.7005	1159.4828	1185.0243	1198.4686	1224.2312	1250.5894	1269.9068	1279.3876	1335.213	1363.1552	1409.5933	1448.2546	1471.206	1486.7611	1499.8455	1511.3343	3007.4805	3073.6804	3089.6029	3118.2551	3129.8808	3134.397	3173.8967	3208.2409	3223.8085	3510.7451	3784.2965
OCC1NC1C1CC1	OC[C@H]1N[C@H]1C1CC1	
InChI=1S/C6H11NO/c8-3-5-6(7-5)4-1-2-4/h4-8H,1-3H2	InChI=1S/C6H11NO/c8-3-5-6(7-5)4-1-2-4/h4-8H,1-3H2/t5-,6+/m1/s1
