13
gdb 7036	5.99179	0.96539	0.89897	4.2733	58.44	-0.2588	-0.0507	0.2081	1208.3499	0.093024	-435.788225	-435.779879	-435.778935	-435.822862	27.361	
O	 0.6477053483	-0.2703327049	-0.1116192638	-0.228446
C	 0.284965529	 0.8583808901	-0.302881148	 0.167036
C	 1.1234343548	 2.0814953462	 0.0595405028	-0.402452
C	 1.0160479906	 3.1448487652	-1.0313332962	 0.415526
O	-0.0497567699	 3.5436762495	-1.4242920252	-0.299796
N	 2.2505150892	 3.5776101763	-1.5280624595	-0.352399
C	 2.4814845823	 4.53256743	-2.5224931533	 0.168344
O	 1.649875094	 5.1504775073	-3.122529225	-0.240593
H	-0.6966433443	 1.1049791745	-0.7547282624	 0.121389
H	 0.6750505838	 2.5183803045	 0.9615169059	 0.171206
H	 2.1405051756	 1.7621185939	 0.2976611886	 0.124503
H	 3.0769434456	 3.1588891644	-1.1274175573	 0.262326
H	 3.5719510611	 4.648148803	-2.6876098867	 0.093356
30.0014	66.6349	105.0891	173.3221	217.8473	258.0066	348.4496	467.9892	533.9646	603.273	669.3754	763.4313	844.7369	922.3947	1021.9957	1030.8028	1054.5362	1102.5631	1143.138	1218.1386	1301.576	1403.6349	1443.5801	1445.2669	1503.0938	1803.0759	1839.2428	1874.4157	2929.0335	2944.1553	3038.5067	3114.4543	3617.1484
O=CCC(=O)NC=O	O=CCC(=O)NC=O	
InChI=1S/C4H5NO3/c6-2-1-4(8)5-3-7/h2-3H,1H2,(H,5,7,8)	InChI=1S/C4H5NO3/c6-2-1-4(8)5-3-7/h2-3H,1H2,(H,5,7,8)
