17
gdb 50644	3.03711	1.18626	0.88981	3.0592	69.19	-0.2626	-0.0437	0.219	1250.6375	0.13538	-459.016418	-459.007989	-459.007045	-459.050696	30.227	
O	-0.8782040252	 0.9866234178	 0.4958853207	-0.241565
C	 0.2081583278	 0.8437932621	 0.00171124	 0.133639
C	 1.298807094	 1.9069096083	 0.0733937128	 0.046201
C	 1.4377299788	 2.5233193286	 1.4604896793	-0.214715
C	 2.6366653971	 3.4690924802	 1.4586371142	-0.237745
C	 3.8950394979	 2.6805084302	 1.082560141	-0.324988
C	 3.7458841997	 1.7199126302	-0.0900745004	 0.403027
O	 4.6812761022	 1.2787398102	-0.6956524431	-0.31046
O	 2.4956602624	 1.2816292943	-0.4139572937	-0.248149
H	 0.5041777436	-0.0715682427	-0.5536513677	 0.110419
H	 1.0206582186	 2.695549907	-0.6440739204	 0.121872
H	 0.5003582808	 3.0303365937	 1.701554613	 0.134111
H	 1.5779855754	 1.7291522902	 2.2041382556	 0.115137
H	 2.4661975882	 4.2768490464	 0.7359147133	 0.112947
H	 2.7682373015	 3.9422203714	 2.4361458421	 0.113406
H	 4.7465727105	 3.3256903703	 0.8558290365	 0.142306
H	 4.2047011866	 2.0529539119	 1.9290445867	 0.144556
45.7997	91.3028	95.3175	190.5504	257.9449	369.766	420.1039	436.3308	507.2706	519.3156	586.4627	688.9676	772.2331	845.9123	859.5032	926.5189	942.9702	966.3685	1056.0267	1086.91	1106.793	1127.6753	1168.1387	1209.0036	1246.9117	1278.2553	1313.4714	1347.5856	1355.9194	1368.4102	1383.0659	1401.4106	1459.2049	1484.5477	1500.4117	1839.2281	1851.7453	2917.4141	2982.6722	3029.3109	3035.2833	3042.8259	3086.549	3110.9016	3112.5386
O=CC1CCCC(=O)O1	O=C[C@H]1CCCC(=O)O1	
InChI=1S/C6H8O3/c7-4-5-2-1-3-6(8)9-5/h4-5H,1-3H2	InChI=1S/C6H8O3/c7-4-5-2-1-3-6(8)9-5/h4-5H,1-3H2/t5-/m1/s1
