13
gdb 25213	2.51645	1.85602	1.23202	6.4972	69.44	-0.2504	-0.0758	0.1746	960.4736	0.091024	-452.797827	-452.790677	-452.789733	-452.829733	26.359	
O	-0.0025480804	 0.0054513958	-0.6627139213	-0.323391
C	 0.0100405728	 1.1305284525	-0.2340018384	 0.331612
N	-1.1837463759	 1.8044122314	 0.0596285931	-0.32842
C	-1.4071281345	 3.108893053	 0.4247549622	 0.033702
C	-0.5813272339	 4.1682424214	 0.2586270411	-0.13946
C	 0.6965253547	 4.1077661164	-0.4103683587	-0.001051
N	 1.4958526127	 3.1064142178	-0.5026968969	-0.22967
C	 1.284304408	 1.9031606118	 0.1494221138	 0.281611
O	 2.0627223404	 1.4101357947	 0.9253945927	-0.287593
H	-1.9841421963	 1.1849459865	 0.0381332462	 0.272129
H	-2.3953985776	 3.2686625661	 0.8431288263	 0.141201
H	-0.9659246324	 5.1443357937	 0.5292404831	 0.11745
H	 1.0132449124	 5.0225821988	-0.9168828331	 0.131879
91.0012	131.0616	261.3664	315.1849	321.0028	406.5133	477.6257	559.3789	627.1755	662.0901	712.6407	762.4272	789.6566	843.8721	916.259	958.1038	976.2836	995.5334	1051.1265	1157.7746	1221.226	1318.4877	1424.6375	1449.1685	1492.9245	1622.845	1705.884	1802.3195	1821.4101	3102.4506	3187.3275	3208.6008	3581.6567
O=C1NC=CC=NC1=O	O=c1[nH]cccnc1=O	
InChI=1S/C5H4N2O2/c8-4-5(9)7-3-1-2-6-4/h1-3H,(H,6,7,8,9)	InChI=1S/C5H4N2O2/c8-4-5(9)7-3-1-2-6-4/h1-3H,(H,6,7,8,9)
