20
gdb 108491	2.71718	1.52091	1.21567	1.4033	78.15	-0.2417	0.0212	0.263	1105.8517	0.172066	-403.163027	-403.154764	-403.153819	-403.19608	31.646	
C	 0.0362986377	 1.5406200625	 0.0934339892	-0.38222
C	-0.0129636634	 0.0099747659	 0.0618057564	-0.250096
C	-1.4291994805	-0.544221413	-0.0299241194	 0.323332
C	-2.3672751634	-0.3515568398	 1.2022229795	-0.263842
C	-2.6575376013	-1.8854782282	 1.2187765266	-0.244179
C	-1.6654935935	-2.0886968862	 0.0520606531	 0.032983
O	-2.2883417768	-2.4330486065	-1.2053260694	-0.233061
C	-2.480779753	-1.243258837	-1.832430336	 0.104028
N	-2.0771724082	-0.1647328943	-1.3024214783	-0.301423
H	 1.0695596066	 1.8971928471	 0.1416735251	 0.108616
H	-0.4331447936	 1.9574728673	-0.8009124646	 0.142084
H	-0.4933999825	 1.9378895479	 0.9660213771	 0.113895
H	 0.5614217356	-0.3628296448	-0.7956792435	 0.099852
H	 0.4645174578	-0.4002953259	 0.9614680874	 0.089164
H	-1.8478543012	 0.0094786314	 2.0938770473	 0.101997
H	-3.2269798662	 0.2928968178	 1.0113073273	 0.111845
H	-2.3820634722	-2.3996574987	 2.1423538183	 0.107438
H	-3.679343647	-2.1677330109	 0.9566573241	 0.115028
H	-0.8243212771	-2.7655485815	 0.2111280536	 0.086211
H	-2.9862103176	-1.3229427531	-2.7890246338	 0.138348
78.6852	98.3838	177.7072	216.0408	290.7308	329.5051	344.4091	438.2316	582.8279	631.8056	657.6498	736.7145	787.8915	823.5819	863.3128	872.0105	933.8144	946.0581	964.4389	978.7279	999.0343	1023.9509	1029.2021	1096.0238	1131.6408	1145.4774	1186.2097	1196.8814	1226.2441	1241.5609	1270.7178	1302.182	1314.3328	1321.7188	1360.8539	1369.0693	1407.3873	1466.8378	1477.8203	1488.0339	1496.5437	1509.6061	1687.7801	3015.7953	3038.4613	3052.7837	3063.583	3070.7339	3096.8165	3101.9923	3115.9744	3127.1269	3133.1554	3210.3051
CCC12CCC1OC=N2	CC[C@]12CC[C@H]1OC=N2	
InChI=1S/C7H11NO/c1-2-7-4-3-6(7)9-5-8-7/h5-6H,2-4H2,1H3	InChI=1S/C7H11NO/c1-2-7-4-3-6(7)9-5-8-7/h5-6H,2-4H2,1H3/t6-,7+/m1/s1
