15
gdb 109104	3.44835	1.19115	0.89073	5.0494	72.37	-0.224	-0.0752	0.1487	1223.8571	0.112426	-453.967524	-453.95879	-453.957845	-454.001556	30.935	
O	-0.0312853082	 1.4473166747	 0.0495958	-0.425976
C	 0.0132028259	 0.0291411084	 0.0052164034	-0.182071
C	-1.3866832734	-0.4840156213	 0.0018789234	 0.135795
C	-2.5289259316	 0.2376939723	-0.014577534	-0.08788
N	-3.6702194786	-0.5573120685	-0.064045007	-0.36799
C	-3.311318299	-1.9041529502	 0.006092273	 0.308217
N	-4.0279212076	-2.9472423221	 0.0647132434	-0.482992
C	-1.7623976752	-1.8988038548	 0.0043825971	 0.259969
O	-1.0567876409	-2.8817635986	 0.0030446978	-0.313364
H	 0.8718258985	 1.7756084689	 0.0328656869	 0.293918
H	 0.5420078182	-0.331177992	-0.8923899204	 0.112208
H	 0.5543765985	-0.3877566483	 0.8700165438	 0.113078
H	-2.6234545722	 1.3141299333	-0.0134183053	 0.159017
H	-4.596498422	-0.2135360149	 0.1239226007	 0.259553
H	-5.0273696024	-2.7261462469	 0.0556168073	 0.218517
51.0865	103.7808	159.3164	203.3608	231.7509	292.5724	310.0005	356.9392	379.9158	537.9671	562.141	631.2651	730.3547	800.4352	815.5728	890.2646	925.6257	939.3369	1036.816	1050.3619	1087.9781	1125.3884	1205.0395	1220.572	1236.348	1335.0906	1352.7269	1418.2665	1472.3918	1515.9103	1679.0203	1752.2688	1803.8326	2966.1497	2982.9982	3247.7415	3434.7346	3662.4444	3841.7007
OCC1=CNC(=N)C1=O	OCC1=CN[C]([NH])C1=O	
InChI=1S/C5H6N2O2/c6-5-4(9)3(2-8)1-7-5/h1,8H,2H2,(H2,6,7,9)	InChI=1S/C5H6N2O2/c6-5-4(9)3(2-8)1-7-5/h1,8H,2H2,(H2,6,7,9)
