20
gdb 60628	2.42575	1.35557	1.03671	3.1373	76.09	-0.2384	0.0223	0.2606	1213.5094	0.168896	-440.290434	-440.280439	-440.279495	-440.325474	36.455	
C	 0.5233796593	 1.5179928033	 0.0996438246	-0.339042
N	-0.006035391	 0.1542867708	 0.0813013898	-0.107165
C	 0.3491175027	-0.7152835472	 1.1698760344	-0.041967
C	 0.066027979	-0.2508132613	 2.5905274063	-0.356001
C	-0.764582939	-1.3431192863	 1.9847991127	 0.13692
O	-2.0964779785	-1.1196396649	 1.6419309683	-0.420627
C	-0.38723518	-0.3629309272	-1.1567576386	 0.388528
C	-0.688974026	-1.850623376	-1.2124805678	-0.500208
O	-0.4838358228	 0.3465555994	-2.1399822725	-0.358601
H	 1.620760765	 1.5163076916	 0.1210280495	 0.121729
H	 0.1875271632	 2.0195032179	-0.8059938271	 0.168728
H	 0.1641228107	 2.0597813554	 0.9776964891	 0.119515
H	 1.2592521592	-1.2986000436	 1.0300516706	 0.099455
H	 0.7950891674	-0.4898860964	 3.3565288851	 0.124161
H	-0.4206718113	 0.7101999889	 2.7157610534	 0.126067
H	-0.6277812691	-2.361849181	 2.3308267661	 0.114413
H	-2.1226408108	-0.3301755843	 1.0858609397	 0.287989
H	-1.4722837395	-2.1248699953	-0.5020626597	 0.16162
H	-1.0086070198	-2.0817971366	-2.2278815281	 0.142281
H	 0.1997030811	-2.443413817	-0.9720367457	 0.132205
71.5511	88.0738	106.4089	162.5846	195.8271	218.509	274.7148	325.6317	369.485	393.8073	444.6031	469.5476	563.0521	605.2371	656.2484	707.1212	801.8333	817.0292	922.9933	974.8715	1016.4295	1026.5998	1062.789	1067.2265	1091.286	1117.9344	1132.622	1158.3711	1171.6843	1221.89	1291.7481	1325.3098	1357.9977	1378.0856	1398.7322	1433.5389	1443.738	1475.9211	1483.569	1488.7829	1501.3494	1512.7068	1775.5155	3023.2805	3050.6378	3091.9583	3097.8724	3122.4297	3137.5128	3166.0938	3174.1853	3175.1746	3226.7072	3767.8897
CN(C1CC1O)C(C)=O	CN([C@H]1C[C@H]1O)C(=O)C	
InChI=1S/C6H11NO2/c1-4(8)7(2)5-3-6(5)9/h5-6,9H,3H2,1-2H3	InChI=1S/C6H11NO2/c1-4(8)7(2)5-3-6(5)9/h5-6,9H,3H2,1-2H3/t5-,6+/m0/s1
