15
gdb 125465	5.40323	1.27613	1.03901	5.1884	74.31	-0.2086	0.016	0.2247	1093.4252	0.115847	-413.019416	-413.011948	-413.011004	-413.051273	27.927	
C	-0.0143073029	 1.4820228137	 0.0514646911	-0.503279
C	-0.0003567494	-0.0063500122	-0.0402838476	 0.315788
N	-0.0381842945	-0.70888285	-1.1443632563	-0.379956
C	-0.0055414393	-2.0303329566	-0.7258772187	 0.203148
C	 0.0527829063	-2.0923563641	 0.6558089669	 0.457008
N	 0.083317623	-3.3878853592	 1.0285413992	-0.367355
N	 0.0461218516	-4.198288096	-0.0817921368	-0.228652
C	-0.0070682661	-3.3865125181	-1.1345343333	-0.126187
N	 0.0567216146	-0.8031214496	 1.1150003147	-0.450346
H	 0.8840718371	 1.8689490481	 0.5468172653	 0.132146
H	-0.0549323657	 1.889381572	-0.9590817648	 0.163273
H	-0.8841664302	 1.8484653564	 0.609410489	 0.132472
H	 0.1257811128	-3.8139572441	 1.9361248974	 0.270702
H	-0.043538891	-3.8127997456	-2.1256496479	 0.115662
H	 0.0934655837	-0.4709744646	 2.0627013017	 0.265578
104.3991	147.9516	245.4659	284.1536	296.1742	355.4532	392.8395	516.492	573.1151	657.5167	666.6785	766.4858	778.3579	826.2329	879.9901	942.0957	983.6705	1019.9976	1049.8898	1059.3253	1185.1464	1234.2397	1240.6464	1332.9254	1378.2832	1404.2091	1423.3581	1474.5487	1480.3018	1485.7861	1545.9318	1590.8943	1641.8736	3027.7947	3076.3854	3152.9424	3252.7333	3678.7839	3698.0976
CC1=NC2=C(NN=C2)N1	Cc1nc2c([nH]nc2)[nH]1	
InChI=1S/C5H6N4/c1-3-7-4-2-6-9-5(4)8-3/h2H,1H3,(H2,6,7,8,9)	InChI=1S/C5H6N4/c1-3-7-4-2-6-9-5(4)8-3/h2H,1H3,(H2,6,7,8,9)
