21
gdb 83886	2.0455	1.81922	1.29945	3.0279	76.99	-0.2452	0.0578	0.3029	1074.2424	0.184831	-424.222621	-424.214241	-424.213297	-424.255111	33.635	
O	-0.084955936	 1.3764569662	-0.2377927158	-0.417146
C	-0.0482370915	-0.017087493	-0.0696840466	 0.067314
C	-0.4609971206	-0.6428095395	 1.246877621	-0.093116
C	-0.8613693278	 0.2268760417	 2.4357852626	-0.212198
C	-2.3694649325	 0.5146019561	 2.4754265066	-0.202247
C	-2.8413470045	 1.0941471899	 1.1384643178	-0.217693
C	-2.6727037261	 0.0903325066	-0.0171979032	 0.1354
O	-2.8491337972	 0.714806274	-1.2840193628	-0.450492
C	-1.3731987544	-0.7087059527	 0.026188742	-0.092324
H	 0.6828922712	 1.7622138825	 0.1972426413	 0.293333
H	 0.7400810771	-0.5090422561	-0.6380512803	 0.086631
H	 0.061039354	-1.5611109208	 1.4989715775	 0.084581
H	-0.5474934245	-0.2682895431	 3.3597687777	 0.096173
H	-0.3234504359	 1.1840089204	 2.401849987	 0.083359
H	-2.9132843759	-0.4154029825	 2.6903544575	 0.094078
H	-2.5972471632	 1.207039538	 3.2936075574	 0.090286
H	-3.8944336436	 1.3897810784	 1.1845916236	 0.094219
H	-2.2632913819	 1.9960667306	 0.910399085	 0.099516
H	-3.4936000373	-0.6342058392	 0.0505617302	 0.08244
H	-2.0985176195	 1.3113077111	-1.3936872061	 0.288739
H	-1.4345262799	-1.6607810687	-0.4921112725	 0.089148
107.2652	165.9011	202.6569	263.841	294.5296	334.581	411.4187	427.1926	438.0295	470.0243	563.3378	630.4512	696.2614	732.9007	775.6875	804.5522	880.7664	903.9031	922.0801	970.8829	1021.4772	1050.8038	1057.2685	1073.5861	1088.1773	1121.8597	1133.0102	1156.459	1180.6565	1214.3505	1252.7403	1281.2558	1284.2817	1306.0458	1345.5735	1362.3117	1367.7284	1372.9896	1381.7454	1394.4517	1443.6478	1457.0904	1482.6459	1490.4878	1498.7832	3010.1995	3017.4044	3028.1616	3042.8859	3065.0988	3072.3963	3089.784	3103.8487	3141.1318	3154.7811	3788.8329	3801.3194
OC1C2CCCC(O)C12	O[C@H]1[C@H]2CCC[C@@H](O)[C@@H]12	
InChI=1S/C7H12O2/c8-5-3-1-2-4-6(5)7(4)9/h4-9H,1-3H2	InChI=1S/C7H12O2/c8-5-3-1-2-4-6(5)7(4)9/h4-9H,1-3H2/t4-,5+,6-,7-/m0/s1
