18
gdb 95440	2.70081	1.3473	0.98299	3.9687	75.69	-0.2388	-0.0362	0.2026	1204.7737	0.147299	-439.128627	-439.119567	-439.118623	-439.162894	33.164	
C	 0.2829166556	 1.6377306485	-0.1577715963	-0.403586
C	 0.0638517035	 0.1427812607	 0.0534276018	 0.064583
O	 0.4610425442	-0.5764870454	-1.1243651322	-0.283572
C	 1.3057536502	-1.665029127	-0.7875563192	-0.108432
C	 1.5845572895	-1.5067038157	 0.6781572623	-0.242214
C	 0.8864635987	-0.47946719	 1.1627930622	 0.222888
C	 0.7610480245	-0.0093792097	 2.5665012236	 0.320402
N	 1.7471115786	-0.4133761538	 3.4306486016	-0.533986
O	-0.1874919612	 0.666071621	 2.9289038579	-0.356718
H	 1.3438848954	 1.8533463002	-0.3183682506	 0.108063
H	-0.2741171417	 1.972308997	-1.0370774429	 0.123841
H	-0.0700468925	 2.1893432729	 0.7167941018	 0.142912
H	-1.0059094278	-0.033504307	 0.2461810121	 0.098395
H	 0.8117282841	-2.6291838993	-0.9990381774	 0.108974
H	 2.2187992994	-1.6338638851	-1.4019807991	 0.111235
H	 2.222778283	-2.1839462147	 1.2329960659	 0.108364
H	 2.6442444001	-0.6995580491	 3.0773686457	 0.25714
H	 1.7242137063	-0.0018738335	 4.3507231228	 0.261711
57.2336	80.2184	161.2308	173.9675	245.0004	283.487	349.1808	358.9522	405.512	495.3835	507.2045	579.4831	646.8609	742.4834	776.5541	808.6598	862.4398	874.2347	952.4908	1029.8421	1043.9226	1064.2444	1087.4486	1107.2102	1125.7872	1162.2073	1199.3978	1274.735	1324.9804	1371.2364	1375.6247	1393.5588	1402.4594	1493.5701	1494.4701	1515.751	1615.0271	1697.017	1770.219	2954.8108	2981.7968	2991.3442	3043.4796	3117.4016	3136.7841	3206.4969	3592.4676	3722.7095
CC1OCC=C1C(N)=O	C[C@H]1OCC=C1C(=O)N	
InChI=1S/C6H9NO2/c1-4-5(6(7)8)2-3-9-4/h2,4H,3H2,1H3,(H2,7,8)	InChI=1S/C6H9NO2/c1-4-5(6(7)8)2-3-9-4/h2,4H,3H2,1H3,(H2,7,8)/t4-/m1/s1
