19
gdb 35042	2.54558	1.40344	1.39338	0.877	86.46	-0.2266	0.0167	0.2434	1073.2466	0.160467	-348.723618	-348.715613	-348.714668	-348.756068	31.825	
C	-0.0999473288	-1.2513163111	-0.0366467108	-0.476996
C	-0.0497966908	-0.0488518926	-0.0172507663	 0.361166
C	-0.0123898128	 1.3811173982	 0.0020656672	-0.23123
C	 0.4877927137	 2.1516054884	 1.2287932606	-0.057644
C	 1.0368374168	 1.4034616752	 2.440573824	-0.235048
C	 2.5770180506	 1.4363504996	 2.5099471396	-0.252019
C	 3.2112742715	 1.1465747278	 1.1707117629	-0.048855
C	 2.6227933345	 1.4602617464	 0.0161594289	-0.064374
C	 1.313262663	 2.1554208711	-0.0260104779	-0.083871
H	-0.1390262625	-2.3117706496	-0.0630198614	 0.193009
H	-0.8265110363	 1.8559587526	-0.5387083804	 0.109236
H	-0.0735075808	 3.054822624	 1.444479067	 0.088857
H	 0.6125534995	 1.8277632764	 3.3558589884	 0.094706
H	 0.7137581554	 0.3579879167	 2.4004490662	 0.122782
H	 2.920502958	 2.417623131	 2.8698930315	 0.109172
H	 2.9250364579	 0.711345063	 3.254168161	 0.10206
H	 4.1870859698	 0.6680231256	 1.168210265	 0.087456
H	 3.1018592651	 1.2309543776	-0.9318465998	 0.087356
H	 1.2816726562	 3.0490139297	-0.6445149256	 0.094238
83.8278	122.9852	182.4845	262.5139	346.0758	421.9051	469.3842	511.2149	570.6043	601.8792	607.7204	647.7061	720.3165	739.7629	780.4923	788.1702	836.3323	896.5324	940.7045	975.0051	995.1371	1007.9462	1013.9091	1058.4764	1081.5536	1103.0207	1127.0951	1193.6906	1210.4767	1231.6997	1270.4221	1338.1531	1352.4242	1363.5949	1390.9719	1415.6732	1423.3397	1478.5759	1489.4334	1712.4089	2231.2288	2998.8627	3041.7147	3058.5207	3083.7581	3129.3963	3140.077	3151.265	3159.124	3174.0689	3505.3581
C#CC1C2CCC=CC12	C#C[C@H]1[C@H]2CCC=C[C@@H]12	
InChI=1S/C9H10/c1-2-7-8-5-3-4-6-9(7)8/h1,3,5,7-9H,4,6H2	InChI=1S/C9H10/c1-2-7-8-5-3-4-6-9(7)8/h1,3,5,7-9H,4,6H2/t7-,8+,9-/m1/s1
