21
gdb 62833	2.50952	1.75584	1.4593	2.0622	83.29	-0.223	0.0586	0.2816	1023.7053	0.180968	-386.942848	-386.934576	-386.933632	-386.974734	34.169	
C	-0.127795673	 1.4826243183	 0.0308009826	-0.463063
C	 0.0076602413	-0.0378590634	-0.0412502892	 0.320084
C	-1.2952657554	-0.6475386958	-0.5637244138	-0.483009
C	 1.339525687	-0.6001716338	-0.5749123179	-0.038116
O	 2.060885012	 0.0428073898	 0.5919406147	-0.37293
C	 0.8670743647	-0.6815657399	 1.1348004363	 0.348044
C	 0.3156007606	-1.4986316226	 2.3098868773	-0.340634
C	 0.1098586616	-2.6373147538	 1.2072640524	-0.27448
C	 1.2095905077	-1.8952676042	 0.3293473641	-0.055953
H	 0.7694084958	 1.9434046472	 0.4412689741	 0.140298
H	-0.3083978756	 1.8980750182	-0.9675590391	 0.108797
H	-0.9875865914	 1.7571007773	 0.6530301902	 0.107964
H	-1.6578364948	-0.042875873	-1.4022789386	 0.116008
H	-1.1847102413	-1.6689270226	-0.9283886421	 0.127059
H	-2.0805447982	-0.6306609233	 0.2008000906	 0.118482
H	 1.8334599679	-0.4573622779	-1.541638814	 0.085637
H	 1.0868757306	-1.7843794518	 3.0291558706	 0.12633
H	-0.5624986908	-1.1201215987	 2.8402643869	 0.10748
H	 0.4222532331	-3.6369840523	 1.5140118306	 0.113246
H	-0.9082247011	-2.6865676159	 0.8314440132	 0.12042
H	 2.1984512895	-2.2904143217	 0.5656670211	 0.088337
171.2172	193.9325	217.6039	243.132	328.1154	337.8231	390.7029	401.6264	441.9428	551.8841	589.5443	633.4358	641.6255	712.5623	756.4514	794.0005	822.9979	875.5317	882.3067	956.5504	963.3568	973.5013	1009.539	1021.179	1054.1272	1083.5001	1130.0368	1156.726	1168.3703	1185.0278	1205.7155	1213.4674	1225.5483	1237.521	1281.9145	1311.7162	1364.1165	1396.9158	1416.78	1467.1996	1478.9016	1483.7586	1502.3602	1505.7539	1523.6718	3027.9766	3034.5713	3058.099	3060.5332	3080.2839	3086.4278	3090.1287	3100.8562	3120.5444	3137.0204	3158.1986	3177.4042
CC1(C)C2OC11CCC21	CC1(C)[C@H]2O[C@]31CC[C@@H]23	
InChI=1S/C8H12O/c1-7(2)6-5-3-4-8(5,7)9-6/h5-6H,3-4H2,1-2H3	InChI=1S/C8H12O/c1-7(2)6-5-3-4-8(5,7)9-6/h5-6H,3-4H2,1-2H3/t5-,6-,8+/m0/s1
