17
gdb 76274	2.38329	1.61839	1.06999	2.1012	69.22	-0.2502	-0.0215	0.2287	1105.19	0.137343	-455.223962	-455.215369	-455.214425	-455.257402	31.87	
C	 0.06350717	 1.5847829694	 0.1863362307	-0.37533
C	-0.0306058167	 0.0639616453	-0.0093032016	-0.143093
C	 0.7839727934	-0.4834942077	-1.2135428935	-0.11034
N	 1.121684044	 0.4648217382	-2.2605199053	-0.522891
C	 2.0650106164	-1.0289107636	-0.5725732216	 0.435301
O	 3.0998930943	-1.2853535674	-1.1363802063	-0.357379
N	 1.8032799191	-1.1900298888	 0.7758520663	-0.358734
C	 0.5916152213	-0.6401236938	 1.1999376713	 0.421391
O	 0.1722534074	-0.6930154407	 2.3268482628	-0.348558
H	 1.1044274164	 1.9129532396	 0.2534555002	 0.130289
H	-0.387066883	 2.1064174644	-0.6598055511	 0.12803
H	-0.455707822	 1.868733061	 1.1050862289	 0.134489
H	-1.0837235695	-0.2252596741	-0.0645285431	 0.106125
H	 0.263829918	-1.3810870698	-1.5920631867	 0.103603
H	 1.998339002	 0.1692389479	-2.6827769378	 0.249062
H	 0.4193737826	 0.4630316606	-2.9911619096	 0.234771
H	 2.4622898963	-1.6102401907	 1.4165458065	 0.273262
56.9728	140.2292	216.2417	227.5416	254.786	260.1935	283.8867	388.9399	478.5036	548.4817	622.9551	644.9264	660.7681	731.4531	750.5058	790.6959	861.1594	881.9448	908.8664	1039.8718	1076.2897	1103.5567	1147.9799	1184.1297	1208.0068	1270.7759	1323.0216	1336.334	1348.3072	1360.8596	1394.8817	1410.4544	1487.9617	1494.0088	1651.737	1832.4669	1876.0425	2942.252	3053.6335	3073.6196	3127.6747	3140.0031	3496.0176	3582.2583	3615.2401
CC1C(N)C(=O)NC1=O	C[C@H]1[C@@H](N)C(=O)NC1=O	
InChI=1S/C5H8N2O2/c1-2-3(6)5(9)7-4(2)8/h2-3H,6H2,1H3,(H,7,8,9)	InChI=1S/C5H8N2O2/c1-2-3(6)5(9)7-4(2)8/h2-3H,6H2,1H3,(H,7,8,9)/t2-,3+/m0/s1
