21
gdb 121334	3.27264	0.92368	0.75944	3.0107	78.64	-0.2375	-0.0183	0.2192	1515.2459	0.182497	-424.260682	-424.251213	-424.250269	-424.295736	34.759	
O	 0.214708376	 1.4120173494	 0.4409331083	-0.419646
C	 0.1249137185	 0.0107290305	 0.2243173531	-0.078198
C	-1.3196005761	-0.446555197	-0.005070324	-0.215806
C	-1.4716381756	-1.9644952074	-0.1591798762	-0.08435
C	-2.8998286245	-2.5243424872	-0.0266678208	-0.235136
C	-2.8339442801	-3.9054178707	-0.7118475753	-0.221978
C	-1.9193011442	-3.6707605285	-1.9245076133	-0.30767
C	-0.9960029959	-2.5188105162	-1.5115983761	 0.399184
O	-0.0677035435	-2.101878655	-2.1593197177	-0.320262
H	 0.051255387	 1.8471933955	-0.4014585875	 0.281486
H	 0.7570702035	-0.3153121413	-0.6100565256	 0.122551
H	 0.5153544169	-0.4552085492	 1.1372565289	 0.102172
H	-1.9272968167	-0.1025837936	 0.8402233967	 0.104234
H	-1.7179345603	 0.0490010435	-0.9012060288	 0.089514
H	-0.8409588692	-2.4655214788	 0.5946242973	 0.100802
H	-3.2384311145	-2.5774002481	 1.011129834	 0.105286
H	-3.600152342	-1.8715788681	-0.5642213351	 0.103632
H	-2.3777979681	-4.6340355821	-0.0316367707	 0.106866
H	-3.8191188531	-4.2908144707	-0.9849784419	 0.105171
H	-1.3404952454	-4.5384954557	-2.2506259814	 0.129017
H	-2.4912321427	-3.3276462892	-2.7965451838	 0.13313
57.632	83.4896	105.2465	149.0127	218.0452	267.3343	289.5665	330.3598	385.1383	483.7435	549.8927	592.6976	624.3607	710.551	778.5797	831.0105	896.4605	920.1306	945.5726	995.9872	1008.1959	1024.9622	1048.2482	1071.646	1117.2615	1129.1621	1161.6756	1176.5639	1197.8166	1231.3022	1278.0466	1297.4326	1299.8954	1330.5132	1334.9192	1340.4612	1360.4351	1403.8006	1418.0523	1447.7299	1483.9386	1494.6064	1505.9695	1518.5918	1832.1934	2971.5555	3013.0467	3027.1859	3030.3131	3035.7914	3043.647	3054.0846	3081.8948	3094.632	3099.0318	3106.4993	3821.0072
OCCC1CCCC1=O	OCC[C@H]1CCCC1=O	
InChI=1S/C7H12O2/c8-5-4-6-2-1-3-7(6)9/h6,8H,1-5H2	InChI=1S/C7H12O2/c8-5-4-6-2-1-3-7(6)9/h6,8H,1-5H2/t6-/m1/s1
