16
gdb 51898	6.28834	0.74168	0.67506	5.6641	77.61	-0.2375	-0.0401	0.1974	1582.6062	0.123016	-437.909271	-437.900802	-437.899858	-437.944531	29.493	
O	-0.1585851965	 0.0215345016	 0.5064021858	-0.247398
C	 0.2081980791	 0.8277890212	-0.3077050051	 0.152807
C	 0.9094956478	 2.1306721685	 0.0426266232	-0.239882
N	 0.9193549842	 3.0161180274	-1.1035203009	-0.364096
C	 1.1529626371	 4.2456359759	-0.9219135098	 0.455576
O	 1.4190947761	 4.8216006326	 0.2991190384	-0.256092
C	 1.6167111443	 6.2283680672	 0.1288503602	-0.133858
C	 1.4537254947	 6.4628267719	-1.3446829172	-0.097114
C	 1.186845285	 5.3001639229	-1.9398623123	-0.162848
H	 0.0713400804	 0.675085921	-1.4015849766	 0.086801
H	 0.4407966604	 2.561146813	 0.9375973169	 0.136547
H	 1.9378657973	 1.866368254	 0.3401769085	 0.138481
H	 0.8784831036	 6.772074375	 0.7333414046	 0.13492
H	 2.6153024667	 6.4964852003	 0.4985815782	 0.134562
H	 1.5441016588	 7.4382440676	-1.8029665483	 0.128413
H	 1.010143251	 5.0983183199	-2.9854539757	 0.13318
20.1462	64.7988	114.138	152.9296	246.9478	309.9187	399.3348	402.8961	586.854	664.0112	699.0978	746.2328	801.3246	803.9773	889.571	950.8447	974.4567	1029.0398	1035.5129	1059.0021	1079.3889	1085.9254	1118.2185	1196.5284	1198.7342	1227.5716	1323.9061	1364.2893	1376.9124	1401.8418	1433.3486	1498.3826	1659.2623	1774.516	1841.3653	2891.891	2979.3926	3015.7055	3038.567	3045.369	3231.2222	3264.404
O=CCN=C1OCC=C1	O=CCN=C1OCC=C1	
InChI=1S/C6H7NO2/c8-4-3-7-6-2-1-5-9-6/h1-2,4H,3,5H2	InChI=1S/C6H7NO2/c8-4-3-7-6-2-1-5-9-6/h1-2,4H,3,5H2
