16
gdb 38048	3.75004	1.84198	1.59629	1.4406	71.24	-0.2308	-0.0022	0.2286	846.3516	0.127328	-400.700616	-400.694793	-400.693849	-400.730374	25.232	
C	-0.042896904	 1.6247163626	 0.2084419075	-0.272239
C	 1.4802311386	 1.3588223412	 0.0049952963	-0.137816
C	 1.7314857385	 0.4031986788	 1.1996129219	-0.078813
C	 0.6897008028	-0.44601958	 1.1933044659	-0.188195
C	-0.069506587	 0.0666856977	-0.0134362596	 0.393283
O	-1.1584839868	-0.4899191434	-0.7326728773	-0.291292
C	-0.8555988903	-0.0828515488	-2.016955134	 0.082545
N	 0.2832954617	 0.422915243	-2.2880015901	-0.297258
C	 1.0587571704	 0.2536215307	-1.0460974458	 0.03965
H	-0.360848906	 1.9918789918	 1.1848515163	 0.099675
H	-0.5050578583	 2.1883305941	-0.6039938264	 0.116612
H	 2.2047057742	 2.1480218018	-0.1857900662	 0.076244
H	 2.5699332131	 0.4472102016	 1.8800300591	 0.108825
H	 0.4473704046	-1.2754796189	 1.8397241184	 0.119672
H	-1.6607570121	-0.2384472089	-2.7264217173	 0.141092
H	 1.7982003607	-0.5406997732	-1.1866960486	 0.088015
277.3507	324.2678	419.8607	459.6466	531.2061	550.2372	580.3103	680.447	703.0694	736.7591	852.237	867.1637	880.7775	895.4806	912.8891	943.9231	966.752	994.3135	1018.8097	1031.5709	1047.9352	1051.9268	1080.6987	1127.6518	1172.4967	1204.0594	1228.669	1241.3545	1257.3309	1324.5336	1333.6626	1344.424	1491.3243	1587.7749	1636.3474	3063.3561	3078.7245	3137.6688	3148.9019	3217.6631	3228.4173	3258.6363
C1C2C=CC11OC=NC21	C1[C@H]2C=C[C@]31O[CH][N][C@@H]23	
InChI=1S/C7H7NO/c1-2-7-3-5(1)6(7)8-4-9-7/h1-2,4-6H,3H2	InChI=1S/C7H7NO/c1-2-7-3-5(1)6(7)8-4-9-7/h1-2,4-6H,3H2/t5-,6+,7-/m1/s1
