17
gdb 87702	2.79105	1.20923	1.01969	2.7116	70.82	-0.2312	-0.0301	0.2011	1194.9796	0.133343	-458.940408	-458.931185	-458.930241	-458.974959	33.261	
O	 0.0806967831	 1.3855598462	 0.2630887772	-0.41563
C	 0.0409299941	-0.0065220779	 0.2654688197	 0.058034
C	-0.6987635006	-0.7331302069	 1.3431189234	-0.381647
C	-1.3107752561	-0.6023481556	-0.0421311801	 0.200329
C	-2.5829815144	 0.1343385219	-0.495709006	-0.339772
C	-2.9483543701	-1.0882195299	-1.3925621219	 0.029087
O	-3.174999231	-0.7902336432	-2.7470979724	-0.429444
C	-1.5704604379	-1.6973623371	-1.030890687	 0.306433
O	-0.93970851	-2.6259491395	-1.4585159521	-0.325584
H	 0.7070235174	 1.670526533	 0.9370734341	 0.29511
H	 0.8933832699	-0.5069970191	-0.1941421814	 0.110979
H	-0.3531592367	-1.7160827981	 1.6466274493	 0.133195
H	-1.1598354121	-0.1316411801	 2.1199893093	 0.126647
H	-3.3100662746	 0.3771109833	 0.2805751222	 0.108855
H	-2.3680726221	 1.0236148907	-1.0908356343	 0.137716
H	-3.7652477183	-1.6875115969	-0.9577158397	 0.089621
H	-2.9587508706	-1.5806411209	-3.2553572505	 0.296073
44.5308	112.8265	156.1668	162.0684	218.0148	252.0374	270.2015	340.5636	398.8413	461.2564	537.7774	561.2103	720.371	733.3183	810.5185	834.4348	879.2622	933.3703	955.4631	1007.8385	1050.9662	1057.3309	1099.0415	1110.0485	1156.207	1180.1527	1192.6414	1219.5679	1242.9524	1294.7562	1314.3793	1337.6313	1391.1147	1420.7645	1474.2502	1481.2579	1871.784	2966.5752	3081.4684	3106.875	3125.8204	3139.1433	3221.7383	3798.7393	3805.3655
OC1CC11CC(O)C1=O	O[C@H]1C[C@]21C[C@@H](O)C2=O	
InChI=1S/C6H8O3/c7-3-1-6(5(3)9)2-4(6)8/h3-4,7-8H,1-2H2	InChI=1S/C6H8O3/c7-3-1-6(5(3)9)2-4(6)8/h3-4,7-8H,1-2H2/t3-,4+,6+/m1/s1
