16
gdb 133773	3.05964	1.00881	0.91998	1.2168	58.05	-0.2694	0.07	0.3394	1256.0884	0.119854	-569.376251	-569.36725	-569.366305	-569.411272	32.087	
O	-0.1824761622	 1.4571965442	-0.5088921586	-0.422952
C	 0.0249308238	 0.1507873877	 0.0126783631	-0.116205
C	-1.3290910883	-0.5103373198	 0.0906665291	 0.012547
C	-1.918607532	-1.2420294495	-1.0851845221	-0.292034
C	-1.5232395187	-2.0073188946	 0.1532262039	-0.190669
C	-0.3850092781	-2.9841119401	 0.1267809816	 0.286004
F	 0.492030117	-2.7522848022	-0.8683019483	-0.084118
F	 0.3130591557	-2.9643447171	 1.2768974223	-0.084124
F	-0.8386746205	-4.2379505895	-0.0338468809	-0.076209
H	 0.665008335	 1.9118540666	-0.5152454784	 0.287792
H	 0.7017911362	-0.432870259	-0.6235895184	 0.101411
H	 0.4705002814	 0.1916656563	 1.0192029478	 0.09587
H	-2.030387625	 0.0524513976	 0.7001961785	 0.104603
H	-2.9748885979	-1.1356069184	-1.3013693223	 0.124154
H	-1.2859388095	-1.3641458777	-1.9568687063	 0.136025
H	-2.314349677	-2.3651223545	 0.8032989591	 0.117903
35.8124	74.7213	132.683	196.1529	244.805	258.1521	311.64	367.221	438.4368	504.7214	528.9533	601.3401	676.3593	777.8715	815.2483	865.7916	920.8977	986.368	1024.8021	1073.2827	1077.1145	1086.5958	1138.5883	1166.9142	1172.4916	1185.8378	1221.4639	1255.473	1288.4238	1292.6915	1389.3311	1436.2249	1473.6045	1499.4429	1527.3676	2979.3275	3044.6231	3147.1253	3152.245	3174.6037	3235.8678	3829.3683
OCC1CC1C(F)(F)F	OC[C@H]1C[C@H]1C(F)(F)F	
InChI=1S/C5H7F3O/c6-5(7,8)4-1-3(4)2-9/h3-4,9H,1-2H2	InChI=1S/C5H7F3O/c6-5(7,8)4-1-3(4)2-9/h3-4,9H,1-2H2/t3-,4-/m1/s1
