16
gdb 50882	2.5662	1.0367	0.83232	2.792	74.7	-0.2311	-0.0171	0.214	1374.3902	0.123435	-434.062312	-434.052861	-434.051917	-434.098297	33.535	
N	-0.5523016114	 0.968426271	-0.6107658393	-0.564991
C	-0.1429782124	-0.151953678	-0.1512415169	 0.477795
N	-0.8725079324	-0.9137452634	 0.7105901455	-0.315176
C	-2.2654648256	-0.5982356949	 0.9852472479	-0.305518
C	-3.2125286441	-1.3649179309	 0.1720930601	 0.315685
C	-3.9850506459	-2.0148744426	-0.4793797035	-0.463994
N	 1.135925305	-0.698097252	-0.4647028817	-0.367222
C	 1.6697520876	-1.9140362711	-0.1337099591	 0.180448
O	 1.1378324974	-2.7807150501	 0.5288378923	-0.318718
H	 0.1339905598	 1.4186908506	-1.20894658	 0.206314
H	-0.5318528225	-1.8509486495	 0.8842132644	 0.280069
H	-2.4638314341	-0.783169837	 2.0475463351	 0.136193
H	-2.3962689409	 0.4717614869	 0.8052734019	 0.180251
H	-4.6692655312	-2.5795351139	-1.0628857654	 0.199256
H	 1.7097245404	-0.1036285452	-1.0430061604	 0.257955
H	 2.6855915304	-2.03101775	-0.553983981	 0.101654
22.061	53.4164	105.9275	206.3482	221.1467	277.6273	305.3595	327.6705	408.0174	520.943	547.7688	601.8446	613.682	629.039	660.3077	724.7632	745.2549	839.7513	873.4827	938.1562	1021.7913	1028.022	1089.644	1150.8747	1197.8383	1290.6133	1314.6467	1380.3311	1442.1225	1461.0632	1484.6032	1584.4882	1741.5025	1801.4578	2238.3158	2967.3664	3038.0611	3106.7789	3506.1594	3532.3109	3551.1123	3629.879
N=C(NCC#C)NC=O	N=C(NCC#C)NC=O	
InChI=1S/C5H7N3O/c1-2-3-7-5(6)8-4-9/h1,4H,3H2,(H3,6,7,8,9)	InChI=1S/C5H7N3O/c1-2-3-7-5(6)8-4-9/h1,4H,3H2,(H3,6,7,8,9)
