17
gdb 61486	3.27256	0.8569	0.70428	1.5692	75.94	-0.2611	0.0106	0.2717	1522.3568	0.13468	-417.971897	-417.962206	-417.961262	-418.006806	35.228	
N	-0.0925863258	 1.5276829661	-0.1120373896	-0.504823
C	-0.0806617095	 0.0582805375	-0.0149384287	-0.14814
C	-1.5130065192	-0.5031382687	 0.0902374988	-0.203837
C	-2.2498567184	-0.0103379873	 1.3592251089	-0.072499
O	-2.5213327594	 1.3770961407	 1.3223347499	-0.433021
C	-3.5115560628	-0.7352540986	 1.5153153763	 0.340953
C	-4.5307220366	-1.3602561594	 1.6283545028	-0.433439
C	 0.6451319419	-0.5766207669	-1.1341992058	 0.259018
N	 1.2148289243	-1.0359941518	-2.0291156777	-0.310744
H	 0.8533206559	 1.8948661145	-0.0695124171	 0.256025
H	-0.4798051325	 1.8114630121	-1.0085287474	 0.257388
H	 0.4575258065	-0.1981879023	 0.9061538434	 0.141059
H	-2.0937711863	-0.2128526035	-0.7918031226	 0.13102
H	-1.459994401	-1.5953695355	 0.1036545192	 0.137318
H	-1.6120701727	-0.2568921594	 2.2291213204	 0.090458
H	-1.6875997658	 1.8012330741	 1.0571013558	 0.292738
H	-5.4376061685	-1.9018841714	 1.7390888135	 0.200526
61.9497	101.3497	108.1867	182.3721	245.5402	255.4014	282.3995	315.2482	344.2951	445.769	486.3355	570.093	584.6208	606.4441	634.4734	665.5931	673.4258	848.0346	860.6866	929.2473	984.5831	990.6586	1024.7799	1095.113	1131.6911	1166.2901	1266.4057	1296.196	1317.337	1349.7414	1367.5136	1394.674	1466.4	1484.3542	1657.3917	2245.3552	2349.2001	2918.0362	3038.924	3058.4475	3109.9916	3492.9227	3503.7399	3574.1155	3632.2454
NC(CC(O)C#C)C#N	N[C@@H](C[C@@H](O)C#C)C#N	
InChI=1S/C6H8N2O/c1-2-6(9)3-5(8)4-7/h1,5-6,9H,3,8H2	InChI=1S/C6H8N2O/c1-2-6(9)3-5(8)4-7/h1,5-6,9H,3,8H2/t5-,6-/m0/s1
