17
gdb 14668	13.58699	0.57665	0.56082	4.3778	79.18	-0.2596	0.0255	0.2851	1920.9299	0.140837	-326.726183	-326.716654	-326.71571	-326.763418	31.84	
C	-0.0453312909	 1.5610364502	 0.0591064458	-0.364615
C	 0.0081716155	 0.0236108253	-0.009125635	-0.314941
C	 0.687169413	-0.4701800749	-1.2029357837	 0.133107
C	 1.2535593322	-0.8405878913	-2.1993896718	 0.001791
C	 1.9313641673	-1.3334811215	-3.391012551	-0.34885
C	 1.9687606311	-2.8840700597	-3.4266265663	-0.323687
C	 2.6462451679	-3.3915409484	-4.6171104279	 0.255046
N	 3.1856667554	-3.7724745878	-5.5653598488	-0.302262
H	 0.9623622944	 1.9849133227	 0.0657801177	 0.130004
H	-0.5776667801	 1.9699091838	-0.8037975377	 0.130005
H	-0.5616799915	 1.8832638346	 0.9680017101	 0.117482
H	 0.5137632805	-0.3655411531	 0.8839094732	 0.13084
H	-1.0117944709	-0.3804259955	 0.0224173823	 0.13084
H	 1.4307472148	-0.9697125479	-4.2958212666	 0.149531
H	 2.9583896458	-0.952684305	-3.4339020559	 0.149532
H	 2.4800971222	-3.2625753116	-2.5358540954	 0.163089
H	 0.9484602732	-3.2796624399	-3.4001919591	 0.163087
6.2739	59.6891	67.0469	162.2201	182.1592	191.348	265.1488	384.2368	408.8174	455.9073	493.0843	543.8149	750.8466	766.7323	786.442	947.8199	967.6026	1007.6133	1035.2336	1079.0853	1105.3906	1167.5737	1198.3643	1284.8798	1285.921	1306.9388	1350.2039	1369.9932	1409.3661	1468.2111	1476.5069	1482.6337	1494.8081	1505.7252	2363.1778	2369.5825	3020.3848	3034.4988	3045.6511	3047.7622	3059.3759	3065.502	3102.1292	3119.6631	3125.0037
CCC#CCCC#N	CCC#CCCC#N	
InChI=1S/C7H9N/c1-2-3-4-5-6-7-8/h2,5-6H2,1H3	InChI=1S/C7H9N/c1-2-3-4-5-6-7-8/h2,5-6H2,1H3
