16
gdb 26862	3.00092	1.43081	0.97709	4.685	79.18	-0.1966	-0.0538	0.1428	1152.2989	0.125828	-434.131536	-434.123282	-434.122338	-434.16423	31.063	
C	 0.0582268965	 1.5383640701	 0.0425399989	-0.510074
C	-0.0267042093	 0.0442426659	 0.0143448731	 0.337462
C	-1.1998650856	-0.6653462271	 0.0651013942	 0.243565
N	-2.4558907572	-0.0308494286	 0.1620435167	-0.582819
N	-1.2016461946	-2.0299222956	 0.097310901	-0.267447
C	-0.0800336974	-2.6853930741	 0.0494848079	-0.118941
C	 1.2385296374	-2.0678052258	-0.0648300582	 0.374878
O	 2.3139123201	-2.6411880611	-0.1418266887	-0.40196
N	 1.1390247178	-0.6751093045	-0.0708399339	-0.40047
H	 0.9698174967	 1.8730197657	 0.5486408101	 0.135292
H	 0.0641492328	 1.9708956659	-0.9665130201	 0.143214
H	-0.8039653241	 1.9451471843	 0.576904078	 0.161688
H	-2.6386492577	 0.6254662131	-0.5872449568	 0.244825
H	-3.1832155508	-0.7357333652	 0.1745723131	 0.249624
H	-0.1060184692	-3.7711569445	 0.0929625636	 0.131892
H	 2.0237860444	-0.1871929986	-0.124905629	 0.259272
111.5622	135.3193	184.7678	234.8934	290.0702	338.5869	354.8085	448.6123	493.0812	503.6339	580.0778	589.9605	709.6196	715.6463	766.994	790.6068	835.3002	931.4083	936.1436	1029.4645	1053.8911	1077.4818	1206.7464	1227.3777	1315.8963	1322.3758	1403.5034	1416.9892	1460.6291	1481.8671	1500.2909	1570.9105	1642.0754	1665.1713	1778.2958	3020.3137	3079.4593	3124.1713	3168.9006	3526.3167	3590.6249	3618.2185
CC1=C(N)N=CC(=O)N1	Cc1c(N)ncc(=O)[nH]1	
InChI=1S/C5H7N3O/c1-3-5(6)7-2-4(9)8-3/h2H,1H3,(H2,6,7)(H,8,9)	InChI=1S/C5H7N3O/c1-3-5(6)7-2-4(9)8-3/h2H,1H3,(H2,6,7)(H,8,9)
