20
gdb 102706	3.12097	0.7784	0.64654	4.7248	74.78	-0.2545	0.008	0.2625	1696.6413	0.16907	-477.402153	-477.39147	-477.390526	-477.439217	36.879	
O	 0.1258273807	 1.366679843	-0.0977013832	-0.413354
C	 0.0328996849	-0.0458941054	-0.0832904708	-0.070642
C	-1.4179067475	-0.5553037633	-0.0662213704	-0.065825
C	-2.1974333581	-0.0661248353	-1.302379039	-0.050662
O	-3.5980529103	-0.110249625	-1.1434657335	-0.429971
C	-1.4152384952	-2.0764882866	 0.0557765379	-0.091927
O	-2.7725393159	-2.5414669726	 0.0497059058	-0.198354
C	-2.9671624581	-3.8591570536	 0.2680981823	 0.133082
N	-4.1250986561	-4.3449474563	 0.1627703317	-0.435905
H	-0.2811555967	 1.7010078126	 0.7084103092	 0.286221
H	 0.5368657673	-0.3805809168	-0.9980565392	 0.116001
H	 0.5903476246	-0.4734720867	 0.7660745168	 0.088494
H	-1.9227436564	-0.1435555937	 0.8195220808	 0.087252
H	-1.9354105615	 0.9801487584	-1.4809303989	 0.121417
H	-1.8637847113	-0.6409013142	-2.1854782852	 0.076775
H	-3.8306388624	-1.0144921895	-0.9011602367	 0.296518
H	-0.8772788321	-2.5244696598	-0.7920542356	 0.113984
H	-0.9210252431	-2.3974458511	 0.9828223578	 0.109899
H	-2.0476039056	-4.3959632105	 0.5381841253	 0.092001
H	-4.1107868773	-5.3401769736	 0.3747587649	 0.234996
40.4269	74.9636	109.2893	115.3528	131.8436	147.1539	232.2693	277.9827	315.424	334.8492	376.6537	450.6615	501.5852	568.6484	636.6114	823.8435	844.018	910.784	943.1299	987.2292	1042.9543	1045.5275	1085.0382	1099.479	1118.3278	1133.9552	1142.2912	1198.6676	1226.6782	1281.5511	1295.034	1316.6341	1346.4418	1387.6071	1401.0398	1410.5564	1422.5991	1434.1626	1450.3388	1502.1423	1510.8182	1517.7196	1751.6634	2940.4021	2968.6837	2994.0892	3011.8634	3029.9816	3041.7421	3060.1455	3094.6898	3523.482	3791.6723	3812.4604
OCC(CO)COC=N	OCC(CO)CO[CH][NH]	
InChI=1S/C5H11NO3/c6-4-9-3-5(1-7)2-8/h4-8H,1-3H2	InChI=1S/C5H11NO3/c6-4-9-3-5(1-7)2-8/h4-8H,1-3H2
