18
gdb 97009	3.54742	1.23811	1.11977	2.3905	74.66	-0.2513	0.0265	0.2777	1151.9857	0.148798	-439.084164	-439.076138	-439.075194	-439.117314	29.498	
C	-0.2830010483	 1.4398504018	-0.0855188359	-0.339923
N	-0.3173766494	-0.0091612998	-0.2276201229	-0.332532
C	 0.5422602722	-0.5765965702	-0.9327133672	 0.479161
O	 1.5990324439	-0.0573015087	-1.6725973068	-0.281761
C	 1.9917203051	-1.3912515921	-2.119960171	 0.104268
C	 3.254420512	-1.8912689641	-1.4327452824	-0.105045
O	 2.857225794	-2.2446298664	-0.1149457966	-0.246429
C	 1.5603713812	-2.8228908447	-0.2109548984	-0.092725
C	 0.8352300563	-2.0173923224	-1.2965370287	-0.227163
H	 0.5082825985	 1.9287745318	-0.6654093121	 0.126691
H	-1.2508823404	 1.8516920576	-0.3911904509	 0.126844
H	-0.1486835625	 1.6912727265	 0.9723137528	 0.129789
H	 1.9907630073	-1.4570928936	-3.2085101184	 0.097048
H	 3.6446423167	-2.7659000922	-1.9806474138	 0.094043
H	 4.0376727884	-1.1328133307	-1.364793928	 0.128987
H	 1.6222945805	-3.8826882332	-0.5067421566	 0.09496
H	 1.0856188337	-2.7533777168	 0.7698265858	 0.135859
H	 0.0399861108	-2.5556585627	-1.810262919	 0.107929
79.8534	90.5626	167.7889	201.0387	249.7048	310.6311	386.1406	497.9283	618.2042	660.8456	750.7031	784.5602	860.2932	875.5424	897.4047	941.4805	991.0219	1012.1929	1031.523	1053.7706	1083.4471	1108.5651	1120.3037	1133.7253	1179.3133	1193.8043	1216.1347	1261.8167	1277.4201	1296.0167	1343.9226	1352.4796	1400.0344	1440.6206	1488.5289	1494.4527	1497.4181	1509.3456	1852.7871	2966.0298	2977.5595	3018.5846	3084.5794	3089.1273	3108.6903	3111.8198	3114.4503	3132.5253
CN=C1OC2COCC12	CN=C1O[C@H]2COC[C@@H]12	
InChI=1S/C6H9NO2/c1-7-6-4-2-8-3-5(4)9-6/h4-5H,2-3H2,1H3	InChI=1S/C6H9NO2/c1-7-6-4-2-8-3-5(4)9-6/h4-5H,2-3H2,1H3/t4-,5+/m1/s1
