18
gdb 81599	3.76983	1.17949	1.03377	2.0683	71.97	-0.2379	0.0619	0.2998	1172.6243	0.14756	-438.965946	-438.958283	-438.957339	-438.998422	30.073	
O	 0.1510022715	 1.4966695724	 0.0765162138	-0.445655
C	 0.1444681714	 0.1104378462	 0.0504003287	 0.190789
C	-0.1109527279	-0.6454967477	 1.3942462846	-0.060705
O	-1.5061260684	-0.1347345547	 1.3428646272	-0.337005
C	-1.2273856951	-0.6176702236	-0.0404102749	-0.035587
C	-0.6157157471	-1.890785816	 0.5948157664	 0.065805
N	 0.2124305714	-2.7781028654	-0.1846117495	-0.1004
C	 1.6654511883	-2.7670670809	-0.0201338266	-0.220372
C	 0.8499640132	-3.888326256	 0.5157810357	-0.22303
H	-0.5874509454	 1.7418675347	 0.6529576815	 0.288417
H	 0.9504318619	-0.2313516953	-0.5985029585	 0.102352
H	 0.4046237962	-0.5671830113	 2.3527064415	 0.095112
H	-2.0274865045	-0.5214037865	-0.7745876444	 0.098364
H	-1.3691833325	-2.4512860409	 1.1513226338	 0.100128
H	 2.2422663731	-2.8856082972	-0.9331563908	 0.123972
H	 2.0991415334	-2.0820902594	 0.7052858667	 0.121719
H	 0.736523831	-3.9432566045	 1.5973544862	 0.114947
H	 0.8186696195	-4.8464329739	 0.0046373385	 0.121149
67.5137	155.1003	185.5645	291.1902	334.1543	383.0841	436.4039	543.0946	584.3084	688.052	761.2814	797.8406	812.4305	845.8361	853.1706	883.6089	908.2323	923.3716	930.5264	1037.4946	1059.0775	1082.3638	1110.4259	1128.7753	1130.9607	1134.7392	1155.3997	1173.7914	1180.7763	1186.5293	1211.8755	1250.7208	1258.8937	1316.6836	1338.3434	1378.7075	1458.4447	1494.4195	1524.3419	3094.5443	3100.0766	3103.4315	3108.9084	3123.4417	3133.5187	3178.162	3193.7353	3738.0832
OC1C2OC1C2N1CC1	O[C@H]1[C@H]2O[C@@H]1[C@H]2N1CC1	
InChI=1S/C6H9NO2/c8-4-5-3(6(4)9-5)7-1-2-7/h3-6,8H,1-2H2	InChI=1S/C6H9NO2/c8-4-5-3(6(4)9-5)7-1-2-7/h3-6,8H,1-2H2/t3-,4-,5-,6+
