17
gdb 54130	2.80424	1.29638	1.0796	1.4154	68.6	-0.261	-0.0348	0.2262	1145.4807	0.132658	-459.017765	-459.008548	-459.007604	-459.052582	33.159	
C	-0.4114217184	 1.3503775235	 0.2458299033	-0.484359
C	 0.4544229958	 0.1423846167	-0.0284390945	 0.337061
O	 1.37748443	-0.1844693161	 0.6802411889	-0.30076
C	 0.1184678548	-0.7159919236	-1.2563302727	 0.30235
C	 1.3602776281	-1.1711041309	-1.9965984271	-0.440791
C	-0.9639311604	-1.7932078852	-0.9744185144	-0.457365
C	-1.804764616	-0.9764018855	-1.9516318426	 0.438303
O	-2.8910284995	-1.0152285697	-2.4287839533	-0.308736
O	-0.8292534081	-0.0320710127	-2.1619896078	-0.269797
H	-0.3528834165	 2.0517153355	-0.5925787508	 0.162817
H	-1.4663736205	 1.0670156846	 0.3300447225	 0.148535
H	-0.0791680356	 1.8290721384	 1.1671261422	 0.145012
H	 2.0302939752	-1.6778413128	-1.2992850436	 0.15607
H	 1.0962729451	-1.849173727	-2.8123632132	 0.126149
H	 1.8897496996	-0.3118646253	-2.4180354443	 0.139411
H	-0.7182981527	-2.8018520231	-1.3100629316	 0.153548
H	-1.364730481	-1.8342915568	 0.0400836091	 0.152553
30.381	86.0004	157.7589	202.9197	227.663	246.3102	312.0665	348.9868	431.3738	481.832	521.3488	524.5623	606.4546	635.8939	783.8295	847.5467	866.8068	939.9578	960.8101	985.3312	1029.9402	1060.6087	1084.1446	1157.3821	1183.4324	1219.0677	1235.7582	1300.6712	1385.4789	1404.3984	1450.9514	1455.6946	1468.8468	1481.7446	1493.5528	1810.2702	1943.9644	3044.6898	3051.289	3089.2689	3105.1798	3123.2133	3145.531	3146.7023	3160.4614
CC(=O)C1(C)CC(=O)O1	CC(=O)[C@@]1(C)CC(=O)O1	
InChI=1S/C6H8O3/c1-4(7)6(2)3-5(8)9-6/h3H2,1-2H3	InChI=1S/C6H8O3/c1-4(7)6(2)3-5(8)9-6/h3H2,1-2H3/t6-/m1/s1
