13
gdb 132297	2.0118	1.79556	0.94908	6.2815	66.32	-0.2225	-0.0316	0.1908	1109.7154	0.088815	-497.917999	-497.910469	-497.909525	-497.949958	28.755	
N	 0.0078841573	 1.3910178176	-0.1030924434	-0.579324
C	 0.0000925163	 0.0279515272	-0.0387055818	 0.43078
C	-1.173445359	-0.6943727326	-0.0166881057	-0.386938
C	-1.2041627158	-2.1144031048	 0.0035856506	 0.438115
O	-2.1194751096	-2.8836908329	 0.0226192931	-0.338611
O	 0.130662247	-2.7362970116	 0.0073869535	-0.249646
C	 1.2127723287	-2.0050237388	-0.0113115847	 0.438976
F	 2.3023067739	-2.7420454421	-0.0049006133	-0.039247
C	 1.2598343217	-0.6578562817	-0.0340994502	-0.470729
H	 0.8533781787	 1.8836625928	 0.1296437066	 0.265677
H	-0.8487723881	 1.8866441079	 0.0798440549	 0.267749
H	-2.1380435086	-0.2031694439	-0.0179421235	 0.106051
H	 2.2084547474	-0.141926727	-0.0582175861	 0.117148
153.1145	193.3288	202.3902	320.0031	341.7779	353.5632	449.7497	455.7489	517.2817	578.8437	626.0961	657.4472	690.7075	724.9326	773.076	796.743	811.5021	988.7079	1046.7945	1074.7458	1155.2122	1224.5654	1318.92	1415.8388	1507.8272	1579.6119	1659.4772	1710.7747	1880.3092	3210.9613	3236.4408	3607.2274	3721.3519
NC1=CC(=O)OC(F)=C1	Nc1cc(=O)oc(F)c1	
InChI=1S/C5H4FNO2/c6-4-1-3(7)2-5(8)9-4/h1-2H,7H2	InChI=1S/C5H4FNO2/c6-4-1-3(7)2-5(8)9-4/h1-2H,7H2
