19
gdb 41636	2.80911	1.77407	1.48424	2.9747	73.33	-0.238	0.0639	0.3019	953.3783	0.162037	-422.993761	-422.986732	-422.985788	-423.026317	27.58	
C	-0.0039500862	 1.4186050194	-0.4566747931	-0.079066
O	 1.1270545175	 1.7595887941	 0.3654234552	-0.286666
C	 1.3718627424	 0.371730085	 0.6810823239	 0.13411
C	 1.2776068867	 0.0368110974	 2.1712689815	-0.262139
C	-0.1800557101	-0.3321405357	 2.4342374705	 0.13435
O	-1.0537907595	 0.7885802095	 2.716942659	-0.290637
C	-1.9569186607	 0.3803735441	 1.6704158453	-0.086462
C	-0.9066433918	-0.5811475633	 1.0809257572	-0.091225
C	 0.0479385801	-0.0629833869	-0.0191422911	-0.09982
H	-0.8915368922	 2.003575973	-0.1959391237	 0.108621
H	 0.2105747482	 1.5651810273	-1.5237511971	 0.094884
H	 2.3106923192	 0.0306775943	 0.2278151075	 0.071126
H	 1.9211024188	-0.8195431079	 2.4050401426	 0.097157
H	 1.5981309341	 0.8808377884	 2.7886590099	 0.132499
H	-0.2941964895	-1.1103849548	 3.1996631105	 0.070105
H	-2.8343199908	-0.1435298568	 2.0749784515	 0.095203
H	-2.3008344041	 1.2240054048	 1.0641086348	 0.105756
H	-1.2557587295	-1.5928945325	 0.8698893284	 0.074797
H	 0.1343335674	-0.7734297796	-0.8418108526	 0.077406
28.3879	115.9113	326.9906	347.3539	360.3936	451.8292	600.9386	666.9117	755.11	775.7183	810.3222	861.0818	875.781	897.9449	914.6804	971.935	977.7117	1013.8986	1017.4357	1038.2042	1062.3435	1068.4736	1095.8916	1131.5425	1165.0124	1169.4185	1186.3574	1199.7558	1225.2259	1260.0698	1268.9301	1312.018	1315.4244	1331.0319	1360.3395	1365.8153	1375.3456	1380.823	1449.5009	1512.9798	1540.953	3001.5534	3008.6728	3017.1583	3023.3936	3048.0425	3065.0668	3076.1467	3088.3786	3104.6885	3107.1054
C1OC2CC3OCC3C12	C1O[C@H]2C[C@H]3OC[C@H]3[C@@H]12	
InChI=1S/C7H10O2/c1-6-4(2-8-6)5-3-9-7(1)5/h4-7H,1-3H2	InChI=1S/C7H10O2/c1-6-4(2-8-6)5-3-9-7(1)5/h4-7H,1-3H2/t4-,5+,6+,7-
