17
gdb 48629	3.5431	1.4175	1.21712	1.5134	67.92	-0.2543	-0.0391	0.2151	1020.3543	0.136132	-458.943294	-458.93583	-458.934886	-458.975518	28.774	
O	-0.3487031311	 0.3342131332	-0.5713242215	-0.261733
C	 0.0835028625	 1.084880821	 0.2658306316	 0.086387
C	 1.3398917648	 1.8915502058	 0.0659572853	 0.327571
C	 2.6491943153	 1.1823693348	-0.4086197131	-0.311367
C	 3.0079789603	 2.5762779004	-0.9903194438	 0.100177
C	 1.4866692722	 2.8023309565	-1.1941635334	-0.255439
O	 3.4541868149	 3.4631604635	 0.040234847	-0.273928
C	 2.9142353465	 3.1291218094	 1.298375989	 0.018374
O	 1.5696203052	 2.6842402207	 1.227324041	-0.324943
H	-0.4148393757	 1.2384965016	 1.2471435432	 0.095779
H	 3.2999078371	 0.7138125084	 0.3308951201	 0.116612
H	 2.40884388	 0.4708944041	-1.1993462039	 0.135565
H	 3.7066195042	 2.6730631321	-1.821534388	 0.089905
H	 1.0941520634	 2.3152107886	-2.0888508823	 0.122676
H	 1.1205662855	 3.8247769601	-1.0939130376	 0.11314
H	 3.5291634341	 2.3515697088	 1.7770418427	 0.095136
H	 2.927208741	 4.0314193709	 1.9143098137	 0.126087
60.8553	184.2518	208.944	287.0654	364.2841	392.436	469.3138	485.5732	554.1459	640.1972	721.7404	812.4163	851.6685	852.3363	878.771	928.722	961.4224	974.567	1012.5612	1056.2938	1081.619	1103.6203	1146.228	1181.7726	1187.9635	1217.2903	1240.6855	1250.4765	1262.9709	1288.9554	1360.5833	1401.1641	1443.0543	1456.746	1492.267	1543.2854	1828.2772	2908.2807	2976.4212	3077.5399	3089.3869	3100.3346	3113.8037	3150.788	3153.7556
O=CC12CC(C1)OCO2	O=C[C@@]12C[C@@H](C1)OCO2	
InChI=1S/C6H8O3/c7-3-6-1-5(2-6)8-4-9-6/h3,5H,1-2,4H2	InChI=1S/C6H8O3/c7-3-6-1-5(2-6)8-4-9-6/h3,5H,1-2,4H2/t5-,6+
