17
gdb 127049	3.23684	1.08456	0.8249	3.8605	71.64	-0.2597	-0.0269	0.2329	1377.4539	0.134409	-455.113826	-455.104799	-455.103855	-455.148406	31.629	
C	-0.0397157217	 1.507904705	 0.0426691695	-0.394365
C	 0.0162031222	-0.0059291699	 0.0226728994	-0.054175
O	-1.3418480842	-0.4932691358	 0.0217311534	-0.266952
C	-1.4862446601	-1.8155013349	 0.0047518318	 0.361005
N	-0.5182976251	-2.690904847	-0.0108207007	-0.189533
O	-1.155504658	-3.9143642068	-0.0245216012	-0.177845
N	-2.5165147241	-3.7667926372	-0.0175040457	-0.133107
C	-2.7533245293	-2.4860721367	 0.000769115	 0.243746
C	-4.1186569049	-1.8900948161	 0.0142619902	-0.49531
H	 0.9759770053	 1.913776849	 0.0451804097	 0.129242
H	-0.5624930644	 1.8903217384	-0.8382664754	 0.133575
H	-0.5574651304	 1.8668371229	 0.9363739066	 0.133595
H	 0.5266009542	-0.3876753267	-0.8687067933	 0.129774
H	 0.5336573466	-0.4106955407	 0.8997166434	 0.129758
H	-4.2647186564	-1.2754438688	 0.9082755058	 0.147679
H	-4.2662600121	-1.2396995353	-0.8537601824	 0.147598
H	-4.8728477575	-2.6783002692	-0.0007850262	 0.155314
68.9433	97.9117	113.0092	129.1899	243.916	256.4182	262.9088	349.8097	386.2426	508.2008	616.5202	649.0367	748.2702	795.3396	815.2983	908.7762	917.57	939.8712	1015.0022	1056.4855	1069.3884	1072.908	1136.7543	1182.3807	1282.7336	1295.286	1392.9391	1412.9117	1420.6189	1449.017	1476.9398	1484.4043	1490.3326	1497.5695	1517.791	1578.7492	1644.4292	3038.9003	3046.2355	3048.9769	3078.7851	3102.0557	3124.7284	3128.3015	3146.8142
CCOC1=NON=C1C	CCOc1nonc1C	
InChI=1S/C5H8N2O2/c1-3-8-5-4(2)6-9-7-5/h3H2,1-2H3	InChI=1S/C5H8N2O2/c1-3-8-5-4(2)6-9-7-5/h3H2,1-2H3
