20
gdb 116090	2.76614	1.18688	0.88244	4.5681	76.6	-0.2322	0.0139	0.2461	1335.3674	0.171635	-440.314183	-440.30531	-440.304366	-440.348193	32.764	
C	 0.0819563479	 1.5302555	-0.0889892847	-0.396077
C	 0.0132752099	 0.0106706014	 0.0575261062	-0.110015
N	-1.3504597536	-0.5136764004	 0.0052666892	-0.082182
C	-1.3966252715	-1.9603162078	-0.1184937348	-0.170311
C	-2.8244461677	-2.3688606792	-0.4213618562	-0.069144
O	-3.7583072006	-1.9042082117	 0.567044475	-0.221664
C	-3.5283400839	-0.7636011995	 1.2518287242	 0.411112
O	-4.3759982383	-0.3254895192	 1.9801729045	-0.327318
C	-2.1569950124	-0.102146627	 1.145029847	-0.300215
H	 1.1256483639	 1.8490864719	-0.1651470605	 0.119839
H	-0.4461000127	 1.8522485007	-0.9912500274	 0.128798
H	-0.3548185703	 2.0505161408	 0.7680994321	 0.126877
H	 0.5655562308	-0.4518850646	-0.7682295504	 0.102039
H	 0.5242493239	-0.2971285267	 0.9916478356	 0.080508
H	-0.7590673201	-2.2762844856	-0.950797533	 0.112871
H	-1.0352925198	-2.4788244216	 0.7921070911	 0.089631
H	-3.1277364831	-1.963497962	-1.3930213218	 0.123238
H	-2.9333828049	-3.4562208816	-0.4409345245	 0.121907
H	-1.6529678831	-0.3180025279	 2.1103312731	 0.11339
H	-2.3409495743	 0.9734378801	 1.1242484852	 0.146716
82.1199	95.0773	124.6262	200.1078	223.1236	281.1406	362.5179	393.3334	468.3791	472.3442	512.9228	585.0148	664.0249	795.3741	813.3026	828.7751	936.9212	976.4639	995.298	1029.2082	1083.3972	1102.7472	1114.4241	1151.0968	1177.5855	1206.0812	1245.7187	1256.1126	1285.1456	1300.306	1340.0816	1363.6447	1394.5115	1410.1856	1426.1162	1436.2137	1474.3888	1486.2009	1494.1149	1500.0194	1505.4448	1516.8219	1847.7019	2891.5904	2904.1348	2914.3171	3044.9605	3045.644	3052.4931	3073.8357	3104.8792	3109.971	3117.0217	3121.8652
CCN1CCOC(=O)C1	CCN1CCOC(=O)C1	
InChI=1S/C6H11NO2/c1-2-7-3-4-9-6(8)5-7/h2-5H2,1H3	InChI=1S/C6H11NO2/c1-2-7-3-4-9-6(8)5-7/h2-5H2,1H3
