17
gdb 98631	4.16984	1.02051	0.94234	4.0897	70.29	-0.247	-0.0274	0.2196	1256.8811	0.134854	-458.92226	-458.914023	-458.913079	-458.955815	30.473	
O	 0.1443405915	 1.3235829761	-0.2469876485	-0.421771
C	-0.0377853633	-0.056460355	-0.18281594	-0.132337
C	-1.5137781156	-0.411587902	-0.0195863374	 0.359077
O	-2.326326123	 0.492200396	 0.0463172191	-0.344173
C	-1.8487847745	-1.8536043917	 0.0216048973	-0.159063
C	-3.1423961019	-2.465366627	 0.5520141692	-0.167615
C	-4.3508615588	-1.6204172198	 0.1417874585	-0.084499
O	-3.935030234	-1.6639553697	-1.257286424	-0.266415
C	-2.8633820763	-2.5145850565	-0.9180347737	 0.096556
H	-0.7510747763	 1.6936332273	-0.169687814	 0.293958
H	 0.3394727275	-0.558042739	-1.0903836577	 0.115463
H	 0.5157779372	-0.4971237405	 0.6645667096	 0.111605
H	-0.9922434944	-2.504927496	 0.1816992303	 0.103694
H	-3.1270804812	-3.2395319155	 1.3069128014	 0.112478
H	-5.2941679842	-2.16181956	 0.2634903867	 0.115803
H	-4.4217872725	-0.6015412711	 0.5199967578	 0.146502
H	-2.5838423303	-3.3007827057	-1.6100855447	 0.120737
50.8012	108.0227	157.4512	194.2065	291.6926	363.0943	387.1351	434.259	463.6009	590.7307	728.2631	768.4108	783.7	805.0659	896.1235	920.995	961.2645	979.2783	999.1537	1018.9076	1054.8078	1069.1864	1094.2613	1100.0545	1151.8448	1167.6715	1169.9496	1243.1131	1261.5852	1302.7818	1308.075	1369.7478	1432.2253	1459.123	1493.8829	1496.6214	1774.4265	2961.0167	2977.2459	3057.5039	3141.0253	3151.5648	3181.7348	3208.6879	3663.8306
OCC(=O)C1C2COC12	OCC(=O)[C@H]1[C@H]2CO[C@@H]12	
InChI=1S/C6H8O3/c7-1-4(8)5-3-2-9-6(3)5/h3,5-7H,1-2H2	InChI=1S/C6H8O3/c7-1-4(8)5-3-2-9-6(3)5/h3,5-7H,1-2H2/t3-,5-,6-/m1/s1
