19
gdb 67843	2.29054	2.04047	1.52907	1.5098	78.77	-0.2354	0.0199	0.2553	952.2961	0.160634	-385.86522	-385.857941	-385.856997	-385.896334	30.521	
O	-0.0516748334	 1.3925512286	-0.0442137891	-0.494661
C	 0.0189964294	-0.0164214188	-0.0281245321	 0.404771
C	-1.2783680213	-0.6116101932	-0.4902399491	-0.110486
C	-1.7557751144	-1.4993095543	 0.3844308746	-0.064377
C	-0.8840862552	-1.679520994	 1.6132752539	-0.296495
C	 0.2988672421	-0.72559947	 1.3446110117	-0.078279
C	 1.6260841921	-1.2660110812	 0.7721762767	-0.068109
C	 1.4140744762	-2.0756712562	-0.4744738738	-0.28978
C	 1.3618889463	-0.5780171678	-0.5742742564	-0.139308
H	 0.8191783341	 1.7317883875	 0.191041109	 0.274654
H	-1.7433475621	-0.335403068	-1.4298370208	 0.095177
H	-2.6763131435	-2.0597931374	 0.251505797	 0.093536
H	-1.432761608	-1.4325186308	 2.5307672063	 0.10602
H	-0.5556284317	-2.7211825754	 1.7234691522	 0.108428
H	 0.4610760334	-0.0007449204	 2.1448461907	 0.070391
H	 2.554412994	-1.3272912186	 1.328199456	 0.082487
H	 2.3122120437	-2.5303308688	-0.881150279	 0.110105
H	 0.5142175152	-2.6662890169	-0.6194456511	 0.115387
H	 2.0326675133	-0.0173100043	-1.2169115967	 0.080538
167.6334	217.9497	285.9781	302.2232	336.8892	413.39	468.2966	521.0825	608.806	652.3962	719.0779	765.038	777.1286	805.5003	837.8681	915.7918	935.3122	946.3496	967.9351	975.256	981.798	1041.7547	1049.0829	1056.9905	1074.4279	1092.9435	1095.6616	1115.1243	1160.7323	1173.5667	1186.9503	1213.7455	1285.3768	1301.1163	1314.1299	1346.6	1352.4068	1414.7103	1479.5877	1490.13	1674.2363	3020.0059	3046.1955	3090.4077	3119.2319	3160.8475	3173.5661	3174.2302	3202.0298	3205.1817	3797.4594
OC12C=CCC1C1CC21	O[C@]12C=CC[C@H]1[C@H]1C[C@@H]21	
InChI=1S/C8H10O/c9-8-3-1-2-6(8)5-4-7(5)8/h1,3,5-7,9H,2,4H2	InChI=1S/C8H10O/c9-8-3-1-2-6(8)5-4-7(5)8/h1,3,5-7,9H,2,4H2/t5-,6+,7-,8-/m1/s1
