20
gdb 30727	2.96409	1.17653	0.9049	1.4731	84.21	-0.177	0.0523	0.2293	1348.8912	0.169968	-403.193969	-403.183725	-403.182781	-403.229524	36.798	
C	-0.3382005912	 1.5441773531	-0.0221165654	-0.362902
C	 0.0476305128	 0.0540408202	 0.0359342666	-0.302499
C	 0.7803004168	-0.4370020348	-1.1690236155	 0.231625
C	 2.1103990994	-0.7475314764	-1.3456366138	 0.156066
O	 3.0502839932	-0.6452916551	-0.351828053	-0.455793
C	 2.3259371015	-1.1569155621	-2.6956537321	 0.172122
C	 3.6316020801	-1.5790092754	-3.2962600548	-0.530545
C	 1.0960953923	-1.0807638797	-3.3139123251	-0.174878
N	 0.1779145311	-0.6437027139	-2.3975921901	-0.314119
H	 0.5528491547	 2.1702401417	-0.1257593819	 0.126383
H	-0.9907706507	 1.7544900508	-0.8765405133	 0.103951
H	-0.8690260736	 1.8482418912	 0.886157837	 0.107929
H	 0.6903471117	-0.12121865	 0.9043655391	 0.12551
H	-0.8587521942	-0.5464054425	 0.1994880574	 0.094297
H	 3.8591881249	-1.0655098453	-0.6572498812	 0.293098
H	 4.0519959896	-2.4660331076	-2.8022089945	 0.116533
H	 3.5122648423	-1.8317012727	-4.3535443926	 0.126369
H	 4.3907761235	-0.787838216	-3.2367382651	 0.122031
H	 0.8128213265	-1.3062720208	-4.3298755226	 0.110415
H	-0.8015093109	-0.5156554347	-2.5781143389	 0.254407
40.7701	107.2534	117.1994	153.4048	190.3269	222.3553	239.8806	280.1375	300.937	381.0455	410.1118	504.8177	562.2095	645.1658	694.544	704.0685	726.8812	736.2431	788.7023	946.1198	990.855	1016.7541	1058.8542	1063.0909	1082.5926	1128.1134	1223.1885	1248.6385	1270.3574	1305.1274	1358.3298	1363.36	1406.3943	1419.3523	1439.4348	1477.2384	1485.6679	1493.1275	1497.0581	1503.6203	1516.1663	1569.5652	1678.1516	3001.96	3003.0568	3031.0742	3043.3374	3076.5766	3099.529	3103.7022	3113.1595	3256.0274	3690.2132	3841.3117
CCC1=C(O)C(C)=CN1	CCc1c(O)c(C)c[nH]1	
InChI=1S/C7H11NO/c1-3-6-7(9)5(2)4-8-6/h4,8-9H,3H2,1-2H3	InChI=1S/C7H11NO/c1-3-6-7(9)5(2)4-8-6/h4,8-9H,3H2,1-2H3
