23
gdb 102472	2.13055	1.05642	0.80219	2.7426	83.26	-0.2331	-0.0133	0.2198	1565.9278	0.201848	-425.443674	-425.432103	-425.431159	-425.481367	40.069	
C	-0.7884361684	 0.9898169754	-0.5734624517	-0.386789
C	-0.2540575241	-0.3953690294	-0.2019047323	-0.190982
C	 0.6967242319	-0.3594155571	 1.006793224	 0.041408
O	-0.0458385893	 0.1131030802	 2.1012988216	-0.227509
C	 0.7177592981	 0.3944733549	 3.255631406	-0.242213
C	 1.2798480738	-1.7663821664	 1.2503535531	 0.357926
O	 0.7982584006	-2.5127199262	 2.0697010579	-0.307154
C	 2.4946215293	-2.1497902913	 0.4135432124	-0.28779
C	 2.8313863656	-3.6377595149	 0.4769581296	-0.376179
H	 0.0248172266	 1.6591762891	-0.8757232245	 0.109802
H	-1.4944774211	 0.9232160961	-1.4066187696	 0.112881
H	-1.3005433697	 1.4426452066	 0.2781953815	 0.140119
H	-1.0818166003	-1.0659761648	 0.0550347735	 0.124161
H	 0.2660532252	-0.8404144441	-1.0575203849	 0.099145
H	 1.5361703688	 0.3271529727	 0.7866529366	 0.060861
H	 0.0342358769	 0.8254995392	 3.9907731623	 0.128935
H	 1.1685407616	-0.5110193676	 3.6796673668	 0.125558
H	 1.5136320306	 1.125988547	 3.0426963495	 0.097634
H	 2.3459614937	-1.811693747	-0.6196603248	 0.118442
H	 3.3332990753	-1.5444371803	 0.7893562726	 0.126376
H	 2.9691066327	-3.9569404823	 1.5124205932	 0.137392
H	 2.0213317369	-4.2404857439	 0.0567050358	 0.12758
H	 3.7458678655	-3.8536592959	-0.0822058788	 0.110397
50.1037	61.2533	88.4818	108.1807	163.8782	172.6841	197.2169	209.9444	234.9837	265.6191	303.6227	337.5534	438.3816	481.7488	565.4562	668.7218	762.6363	792.4689	860.0912	912.6829	954.8318	993.4991	1020.8894	1050.15	1053.2038	1114.4759	1126.0496	1146.5698	1173.5399	1183.2725	1237.5473	1265.7259	1292.1737	1316.3875	1360.2971	1373.9671	1387.2911	1405.2521	1412.4238	1452.7538	1475.8447	1480.8632	1487.0823	1492.742	1494.3075	1499.9194	1508.7144	1510.6938	1812.524	2925.6916	2979.0812	3010.9539	3037.486	3039.879	3050.6798	3052.8271	3056.7702	3080.3784	3103.5499	3119.3189	3119.3749	3132.4847	3133.7291
CCC(OC)C(=O)CC	CC[C@@H](OC)C(=O)CC	
InChI=1S/C7H14O2/c1-4-6(8)7(5-2)9-3/h7H,4-5H2,1-3H3	InChI=1S/C7H14O2/c1-4-6(8)7(5-2)9-3/h7H,4-5H2,1-3H3/t7-/m1/s1
