14
gdb 24079	4.03697	1.05432	0.91746	4.9818	67.41	-0.219	-0.0041	0.2149	1214.4967	0.10256	-432.891763	-432.883974	-432.88303	-432.925287	27.784	
N	 1.6078575746	-0.3156469526	 0.7509146391	-0.287986
C	 0.7893054375	 0.4010626217	 0.3638891185	 0.263408
C	-0.2778780172	 1.2867512306	-0.131978194	-0.210493
O	-0.2981372062	 2.5437940344	 0.513053575	-0.257575
C	 0.6787866024	 3.4037656833	 0.1238338643	 0.399977
C	 1.7540771649	 3.3465921951	-0.7230046384	-0.211095
N	 2.3934716608	 4.5728737052	-0.7304145845	-0.244379
C	 1.7215695666	 5.3364554087	 0.0900285748	 0.014058
N	 0.6565290415	 4.6712542143	 0.6444189648	-0.33304
H	-0.1716116119	 1.4068967489	-1.2181616919	 0.164406
H	-1.2454601815	 0.8228372864	 0.0740879976	 0.171914
H	 2.1181100782	 2.5142076777	-1.3025736271	 0.12065
H	 1.9406251487	 6.365273526	 0.3314999947	 0.135854
H	-0.0199898885	 5.0184948702	 1.3037509971	 0.274301
46.0172	66.7161	200.0053	228.7475	319.7607	377.0585	430.0484	487.5534	629.4448	661.8026	665.6877	679.6462	788.7506	796.4123	909.7414	924.6244	1013.4509	1049.3269	1085.3346	1103.6656	1140.7749	1270.0155	1275.9457	1306.9835	1385.6496	1403.8697	1455.0108	1470.6693	1531.2632	1621.0503	2365.0309	3029.9852	3111.1767	3257.518	3264.6587	3665.1615
N#CCOC1=CN=CN1	N#CCOc1cnc[nH]1	
InChI=1S/C5H5N3O/c6-1-2-9-5-3-7-4-8-5/h3-4H,2H2,(H,7,8)	InChI=1S/C5H5N3O/c6-1-2-9-5-3-7-4-8-5/h3-4H,2H2,(H,7,8)
