16
gdb 126059	3.02151	1.62634	1.11701	3.978	72.12	-0.2346	-0.041	0.1936	1047.6267	0.124637	-434.032967	-434.024872	-434.023928	-434.06616	29.125	
C	 0.047011352	 1.6047266745	-0.04862904	-0.372004
C	-0.0030955532	 0.0784279553	 0.0570068781	-0.099716
N	 0.7006432287	-0.5817172974	-1.0807233709	-0.327452
C	 1.5368162242	-1.7390660209	-0.6506034567	-0.283415
C	 1.598948806	-1.4888835166	 0.8184702432	 0.221617
C	 0.7555724022	-0.4990311478	 1.2109320674	 0.399876
O	 0.7939947793	-0.2853396722	 2.4890270899	-0.277675
N	 1.8708433498	-1.3552987547	 2.9643228127	-0.042852
N	 2.2258723911	-1.9438220758	 1.9384866368	-0.167459
H	 1.0836428628	 1.9463911939	-0.1009677808	 0.131927
H	-0.4685434229	 1.9337644432	-0.9552732065	 0.120728
H	-0.4408374008	 2.0679264348	 0.8146205252	 0.127675
H	-1.0581206145	-0.2355154388	 0.1319632232	 0.098259
H	 0.0532687876	-0.8433428017	-1.8116654766	 0.227985
H	 1.0781162627	-2.7113421856	-0.8876134646	 0.112959
H	 2.514797415	-1.7095025101	-1.1462234206	 0.129548
68.9414	97.6713	157.3806	227.6406	236.5588	286.3156	432.7556	482.2704	545.4027	640.0504	659.1507	687.7742	743.1366	783.4298	931.0278	946.2946	990.8056	1043.9558	1058.7399	1094.511	1107.2332	1171.7892	1183.5382	1256.0565	1327.6355	1355.0116	1394.4269	1405.0951	1441.8901	1476.1823	1493.03	1506.5065	1513.9513	1528.4203	1597.73	2952.378	2980.0933	3034.871	3043.5234	3117.8015	3130.9813	3577.503
CC1NCC2=C1ON=N2	C[C@H]1NCc2c1onn2	
InChI=1S/C5H7N3O/c1-3-5-4(2-6-3)7-8-9-5/h3,6H,2H2,1H3	InChI=1S/C5H7N3O/c1-3-5-4(2-6-3)7-8-9-5/h3,6H,2H2,1H3/t3-/m1/s1
