18
gdb 61901	3.43932	0.77127	0.70075	6.5211	73.84	-0.2411	0.013	0.2541	1597.4435	0.146623	-435.300193	-435.289949	-435.289005	-435.336507	35.846	
C	 0.0017252927	 1.5582704133	-0.0590035236	-0.401073
C	-0.0447250686	 0.015750015	 0.0176974777	-0.05055
N	 0.4558651067	-0.7008427218	-1.1488451633	-0.299158
C	-0.0951460103	-0.2945924487	-2.4294684747	-0.279116
C	 0.3320052691	-1.2117332889	-3.4928912745	 0.270685
N	 0.6752169533	-1.9142601813	-4.3427571278	-0.298287
C	 0.8411656343	-0.4279602642	 1.1917369178	 0.426629
N	 0.1995236608	-0.630254157	 2.3736979799	-0.52522
O	 2.0471127578	-0.5244050282	 1.0644519655	-0.369831
H	 1.0308708825	 1.8956065468	-0.2149490605	 0.14063
H	-0.6212180065	 1.9367158879	-0.8742957877	 0.120704
H	-0.3664032758	 2.0007607822	 0.8719103337	 0.123841
H	-1.0840007906	-0.2968711566	 0.1920634268	 0.076795
H	 1.4710129325	-0.6669002754	-1.139055394	 0.246417
H	-1.1910280105	-0.333626575	-2.3737350497	 0.150162
H	 0.1621160772	 0.7288849512	-2.7525625752	 0.136881
H	-0.8015003696	-0.700117428	 2.4285996335	 0.263565
H	 0.7457006849	-0.9479184913	 3.1588198364	 0.266923
38.6069	67.4742	101.6744	120.4922	230.9053	239.2432	264.5914	276.5144	325.1612	349.4373	392.1186	478.0204	560.2767	591.2887	643.4165	745.4257	766.2122	811.8157	907.3058	948.163	992.5787	1055.4489	1070.5225	1101.582	1138.0344	1193.5176	1249.2121	1283.9097	1341.9398	1372.8975	1397.9043	1412.4422	1484.0165	1490.88	1494.8917	1510.7881	1620.8481	1798.3185	2368.9732	2953.9426	3004.1629	3038.8909	3039.9394	3111.0311	3121.2838	3524.6667	3596.886	3732.2437
CC(NCC#N)C(N)=O	C[C@@H](NCC#N)C(=O)N	
InChI=1S/C5H9N3O/c1-4(5(7)9)8-3-2-6/h4,8H,3H2,1H3,(H2,7,9)	InChI=1S/C5H9N3O/c1-4(5(7)9)8-3-2-6/h4,8H,3H2,1H3,(H2,7,9)/t4-/m1/s1
