27
gdb 101672	2.8684	0.68048	0.6408	1.3718	93.01	-0.2617	0.079	0.3407	1951.2006	0.249633	-390.701269	-390.689087	-390.688143	-390.739308	44.011	
C	-0.1825540431	 1.6878545737	 0.1028530036	-0.393168
C	-0.1057741108	 0.1578334668	 0.1220427827	-0.162521
C	 0.517949748	-0.4515757994	 1.3939916216	 0.029931
C	-0.3275443703	-0.1581845797	 2.6418700196	-0.390511
C	 0.7289131451	-1.9658729147	 1.1835231707	-0.187674
C	 1.4370227165	-2.7581333133	 2.2987323438	 0.018695
C	 1.4067346628	-4.2620613185	 1.9908080847	-0.394496
C	 2.8754551559	-2.2821015308	 2.5114733241	-0.068207
O	 3.4335122069	-3.0101801307	 3.5980979996	-0.423813
H	 0.8077692642	 2.1357590462	 0.244536251	 0.111134
H	-0.5726155711	 2.0458330397	-0.8552909698	 0.111039
H	-0.8379867245	 2.0783350548	 0.8871642818	 0.11787
H	-1.1124876982	-0.2613048569	-0.01638291	 0.090986
H	 0.4794981667	-0.1755956136	-0.7446707243	 0.089293
H	 1.5000239542	 0.0241833796	 1.5301169738	 0.068288
H	-1.3167910091	-0.625361315	 2.5586807104	 0.109757
H	 0.1431097608	-0.5408119136	 3.5519877595	 0.117667
H	-0.4779068251	 0.9156446823	 2.7841414422	 0.112072
H	-0.2545658003	-2.4268051281	 1.0147219687	 0.088985
H	 1.2879344667	-2.1138473583	 0.2481615961	 0.084677
H	 0.9085541107	-2.6006512214	 3.2475093686	 0.082702
H	 1.8939386751	-4.4733494122	 1.0307048829	 0.103614
H	 1.9300566711	-4.8260440966	 2.7655084021	 0.131742
H	 0.377018564	-4.6286822477	 1.9279678024	 0.104558
H	 3.4532824899	-2.4452050678	 1.5851548812	 0.078842
H	 2.8931848783	-1.2026644996	 2.7228531725	 0.083663
H	 4.3411372555	-2.7183102854	 3.7203429207	 0.284876
40.1193	71.8328	87.6685	113.6138	154.3793	213.6574	231.2121	233.946	247.834	265.7121	288.096	316.8509	339.8568	415.5498	421.7902	507.7146	535.2668	774.0301	798.6254	836.4996	878.3079	906.2788	929.9456	964.1834	976.7972	1007.9531	1040.4485	1056.477	1071.9409	1095.5955	1142.1086	1172.3711	1176.575	1183.8332	1230.3294	1266.4018	1287.4388	1298.9856	1312.5814	1344.5626	1360.835	1381.5363	1385.9195	1398.1018	1402.5062	1413.8822	1417.1046	1456.9184	1476.436	1486.8129	1493.2958	1496.7061	1501.0908	1506.9481	1508.1758	1512.9221	1521.1926	2952.49	2990.6595	2996.3825	3003.014	3010.1864	3024.8559	3029.0896	3029.6464	3031.8334	3039.2355	3046.7955	3090.8949	3095.736	3097.0142	3103.3597	3112.254	3130.4916	3834.3622
CCC(C)CC(C)CO	CC[C@@H](C)C[C@@H](C)CO	
InChI=1S/C8H18O/c1-4-7(2)5-8(3)6-9/h7-9H,4-6H2,1-3H3	InChI=1S/C8H18O/c1-4-7(2)5-8(3)6-9/h7-9H,4-6H2,1-3H3/t7-,8-/m1/s1
