17
gdb 6444	3.66127	1.4361	1.24432	3.2563	68.89	-0.2878	0.0129	0.3007	1022.3921	0.141125	-363.869053	-363.860741	-363.859797	-363.901634	30.924	
C	 0.1067632914	 1.6480497349	 0.0267271541	-0.40894
C	 0.0571595	 0.1291252537	 0.0121680304	 0.050054
C	 1.0621301427	-0.6400325303	-0.890773877	-0.272911
C	 1.2487678706	-1.6854522226	 0.2412721594	 0.27416
O	 2.5913819976	-2.0668514587	 0.4225022141	-0.455921
C	 0.6249177987	-0.6482229816	 1.2333605973	-0.295353
C	 0.3887663895	-2.8679962726	 0.0732433561	 0.226316
N	-0.2758772854	-3.8088373795	-0.0275742494	-0.339382
H	 1.1207593671	 2.0065852769	 0.2364440151	 0.115957
H	-0.2018468583	 2.063120949	-0.9388681253	 0.122366
H	-0.5591413209	 2.0589930956	 0.793221327	 0.121492
H	-0.9622338557	-0.2100123368	-0.1980187223	 0.092846
H	 0.7295466234	-1.0030162343	-1.863935321	 0.122469
H	 2.004141344	-0.096204582	-1.0039556592	 0.122973
H	 2.6396905608	-2.713373691	 1.1363543398	 0.292186
H	 1.442057445	-0.1033644027	 1.7151968894	 0.115303
H	-0.0701446105	-1.017925978	 1.9892513614	 0.116385
73.6159	169.2231	184.1621	224.9068	282.2906	310.5311	362.7002	382.1436	430.0548	501.2561	588.1849	638.0603	710.5051	830.5187	839.6164	893.8551	945.2141	953.9027	1008.9926	1048.2118	1075.2116	1139.795	1157.8337	1207.2532	1227.3993	1266.5936	1282.8237	1292.3349	1359.5652	1380.5977	1413.4276	1463.9709	1489.1662	1496.4519	1496.9342	2346.6015	3027.0832	3053.189	3061.5022	3072.0166	3097.1785	3097.393	3128.8782	3137.2049	3798.4001
CC1CC(O)(C1)C#N	C[C@H]1C[C@@](O)(C1)C#N	
InChI=1S/C6H9NO/c1-5-2-6(8,3-5)4-7/h5,8H,2-3H2,1H3	InChI=1S/C6H9NO/c1-5-2-6(8,3-5)4-7/h5,8H,2-3H2,1H3/t5-,6+
