14
gdb 14488	4.77789	1.82456	1.74637	1.285	60.51	-0.2208	0.0701	0.2908	766.4563	0.10555	-382.412281	-382.405805	-382.404861	-382.442299	26.47	
O	 0.3109211589	 1.3407990902	 0.2563116881	-0.450233
C	 0.1677467844	-0.0109946221	 0.0974035503	 0.399146
C	 0.8799372193	-1.1066633391	 0.8540505734	-0.13278
C	-0.3586652386	-2.034237173	 0.7135680271	-0.174609
C	-1.0983180709	-0.9279358968	-0.0599178819	-0.239073
C	-0.26007644	-1.9381202753	-0.8058667398	 0.388551
O	-0.6913278246	-2.7706670853	-1.8039714267	-0.449435
C	 1.0084243244	-1.0208920303	-0.6774896	-0.28785
H	 0.187118577	 1.7643309208	-0.6013957705	 0.289059
H	 1.6662739059	-1.0442909143	 1.5943649702	 0.092296
H	-0.7809728472	-2.7961632762	 1.355857504	 0.089537
H	-2.1620984105	-0.7404883817	-0.1156153786	 0.095573
H	-0.1619505883	-3.5765725327	-1.7778548947	 0.288609
H	 1.9001386703	-0.879801324	-1.274157101	 0.091208
218.3257	276.0844	321.7814	357.7778	393.7575	406.366	545.9791	616.2459	675.9258	754.9252	779.7382	801.0223	825.9298	867.6377	869.1505	895.9529	902.4373	948.2112	988.1476	1022.182	1076.3842	1107.7533	1115.2287	1201.7155	1222.6673	1237.1457	1296.8994	1309.0151	1462.1633	1464.2227	3191.7022	3200.623	3209.5192	3212.4837	3777.1508	3778.8868
OC12C3C4C1C4(O)C23	O[C@@]12[C@H]3[C@H]4[C@@H]1[C@@]4(O)[C@@H]23	
InChI=1S/C6H6O2/c7-5-1-2-4(5)6(2,8)3(1)5/h1-4,7-8H	InChI=1S/C6H6O2/c7-5-1-2-4(5)6(2,8)3(1)5/h1-4,7-8H/t1-,2-,3+,4-,5+,6-/m0/s1
