19
gdb 125293	2.9255	1.41699	1.03992	2.4132	83.51	-0.225	0.0239	0.2489	1182.5335	0.160862	-382.083145	-382.074838	-382.073893	-382.116834	31.27	
C	-0.2258533857	 1.5124406716	 0.0538456257	-0.507339
C	-0.0236731357	 0.0340696195	-0.0284845494	 0.372666
C	-0.0106099379	-0.8097057916	-1.1258664116	-0.31946
C	 0.2234398162	-2.0910887303	-0.5966028498	 0.001353
N	 0.3481393349	-2.0611287475	 0.7271718865	-0.279804
N	 0.1952100647	-0.7601576211	 1.0574068741	-0.021944
C	 0.2718458821	-0.3582132438	 2.433997654	 0.066932
C	-0.2616697769	-1.2648285891	 3.5088075683	-0.276514
C	 1.227752226	-1.053116601	 3.3641298148	-0.276503
H	 0.6405219074	 2.0263796767	 0.4863132545	 0.136795
H	-0.3812446946	 1.9150716049	-0.9492470403	 0.137904
H	-1.1018454153	 1.7786484865	 0.6567795229	 0.136786
H	-0.1515673292	-0.5248519461	-2.1562548067	 0.097445
H	 0.3067314683	-3.0333565336	-1.1183441264	 0.107978
H	 0.1309322873	 0.7089110299	 2.5436686957	 0.107087
H	-0.780872979	-0.8115794248	 4.345918237	 0.113714
H	-0.6526076033	-2.2179257122	 3.1743684861	 0.144595
H	 1.7964100746	-1.8697342793	 2.9365619835	 0.144598
H	 1.7496398763	-0.4517085587	 4.100140721	 0.113708
34.5447	142.0819	154.7943	189.1649	252.5579	292.426	425.1607	478.3018	607.3173	655.4338	675.6876	708.3127	783.6943	784.301	811.6554	881.6418	913.6687	941.2111	949.272	998.3091	1063.0059	1064.1201	1067.5035	1083.7322	1085.3474	1116.8144	1132.6287	1201.6552	1227.4971	1239.306	1318.585	1353.8665	1387.2303	1417.7508	1447.757	1452.4381	1483.654	1484.6874	1496.5119	1522.4228	1583.451	3027.0365	3076.1384	3126.0351	3141.3666	3143.2177	3202.1552	3233.5899	3240.2033	3246.0367	3265.0735
CC1=CC=NN1C1CC1	Cc1ccnn1C1CC1	
InChI=1S/C7H10N2/c1-6-4-5-8-9(6)7-2-3-7/h4-5,7H,2-3H2,1H3	InChI=1S/C7H10N2/c1-6-4-5-8-9(6)7-2-3-7/h4-5,7H,2-3H2,1H3
