15
gdb 123351	7.1114	0.73787	0.69453	1.1946	72.53	-0.2675	-0.0293	0.2382	1534.3506	0.112312	-416.77823	-416.770035	-416.769091	-416.812288	29.064	
C	 0.0143365986	-1.2107366271	 0.0764394809	-0.43442
C	-0.0083207064	-0.0098504173	 0.1145306441	 0.294481
C	-0.0023070065	 1.4461994106	 0.1513967866	-0.354222
C	 1.3855742999	 2.0345412011	-0.2018472712	-0.302362
C	 1.3956685774	 3.5236788575	-0.1055814962	 0.367985
N	 1.6739385502	 4.2959571093	-1.1231441771	-0.173962
O	 1.5680566719	 5.5906497033	-0.5931421696	-0.150742
C	 1.2331684754	 5.4367529454	 0.6867324816	 0.107958
N	 1.1073991945	 4.2058800443	 1.0639226799	-0.305201
H	 0.0197039015	-2.2721121204	 0.0476489306	 0.198098
H	-0.7502048042	 1.8385196009	-0.5484647317	 0.141296
H	-0.2933858831	 1.7990239516	 1.1472656794	 0.156542
H	 2.1283287651	 1.6289618085	 0.4928170471	 0.141987
H	 1.6779289537	 1.740111356	-1.2118934314	 0.143957
H	 1.1033231021	 6.3345201863	 1.273501737	 0.168606
55.7076	64.9187	100.34	189.1564	314.3499	357.7584	380.3939	478.6642	622.1214	633.3239	649.2991	710.4762	766.7134	794.8231	904.8527	907.5224	969.6565	983.7828	992.1677	1024.0384	1044.1168	1150.2667	1185.7233	1282.1116	1300.4663	1306.7671	1360.2247	1380.5993	1471.6207	1483.4483	1524.3785	1604.3551	2241.8645	3033.1721	3061.5617	3071.1894	3124.4785	3265.771	3506.8683
C#CCCC1=NOC=N1	C#CCCc1nocn1	
InChI=1S/C6H6N2O/c1-2-3-4-6-7-5-9-8-6/h1,5H,3-4H2	InChI=1S/C6H6N2O/c1-2-3-4-6-7-5-9-8-6/h1,5H,3-4H2
