18
gdb 103912	2.17922	1.55742	1.09816	4.4926	69.26	-0.2442	0.0038	0.248	1125.7771	0.147321	-476.229104	-476.220235	-476.219291	-476.262461	33.626	
O	 0.0011948029	 0.0275060113	 1.3659608199	-0.43534
C	-0.1015460705	-0.1351674535	-0.0372969435	-0.144112
C	-1.5110214794	-0.5627205848	-0.3863838932	 0.416012
O	-2.4700701614	 0.2689939763	 0.1880497078	-0.464412
C	-1.8765157422	-1.146791062	-1.7104477371	-0.380137
C	-1.895448073	-2.0331131569	-0.4780032687	-0.055732
N	-0.93160937	-3.0927627744	-0.3812937315	-0.281011
C	-0.2236405073	-3.398201941	 0.7330598973	 0.159793
O	-0.1904791702	-2.7474822574	 1.7630049853	-0.335893
H	-0.06464141	-0.8686952559	 1.7419461679	 0.309988
H	 0.0967440955	 0.8455911035	-0.483234951	 0.115111
H	 0.6369624052	-0.8456711656	-0.4323296352	 0.088865
H	-2.1098320615	 0.4830770363	 1.0622689468	 0.29023
H	-2.8309337487	-0.8627325596	-2.1381281333	 0.134532
H	-1.0775000871	-1.3102972806	-2.4271258598	 0.117436
H	-2.8729447429	-2.259702311	-0.0605740646	 0.117881
H	-0.8896162386	-3.7584122435	-1.1397825121	 0.254218
H	 0.3589094893	-4.3305605414	 0.610344795	 0.092571
90.9214	145.0766	181.2999	201.7987	252.1712	277.8669	328.5004	391.4804	440.0226	473.6479	516.0315	555.0776	583.9723	700.8401	759.7118	799.1777	844.1791	909.675	915.3794	1006.8744	1034.1322	1040.1343	1046.3575	1077.5301	1087.0792	1123.8026	1204.3641	1243.6958	1280.9033	1289.3347	1360.8509	1382.8864	1433.2527	1437.2519	1470.3002	1492.2239	1500.8894	1520.6302	1782.5546	2961.0346	3014.4705	3074.7768	3131.8427	3142.0906	3226.9912	3594.5762	3619.7067	3718.9393
OCC1(O)CC1NC=O	OC[C@@]1(O)C[C@H]1NC=O	
InChI=1S/C5H9NO3/c7-2-5(9)1-4(5)6-3-8/h3-4,7,9H,1-2H2,(H,6,8)	InChI=1S/C5H9NO3/c7-2-5(9)1-4(5)6-3-8/h3-4,7,9H,1-2H2,(H,6,8)/t4-,5+/m1/s1
