18
gdb 112173	2.49821	1.21374	1.00716	3.3862	69.07	-0.2411	0.0263	0.2675	1228.9415	0.145287	-476.234485	-476.224559	-476.223615	-476.269223	35.738	
C	-0.0797517397	 1.6400992373	 0.1643766819	-0.450114
C	-0.0299761244	 0.1286063312	 0.0014331941	 0.197802
O	-1.3131423339	-0.4537493804	 0.1311920666	-0.474286
C	 0.7248494823	-0.4804147951	-1.2293599449	 0.057518
C	 1.3151320446	 0.4194376673	-2.2955410582	-0.100226
O	 2.0909382893	-0.4183277139	-3.1417646786	-0.426535
N	 1.7017311175	-1.022476822	-0.2711090296	-0.347563
C	 1.0412666498	-0.6154201114	 0.855369257	 0.401846
O	 1.1944701289	-0.8041419837	 2.0346647631	-0.379675
H	 0.9027071499	 2.1012693092	 0.0289778859	 0.124196
H	-0.7835796276	 2.0785101359	-0.5493562951	 0.127833
H	-0.421953356	 1.8825334465	 1.1757437344	 0.12969
H	-1.5122851912	-0.4938838002	 1.0744543325	 0.293294
H	 0.1185562788	-1.2592581647	-1.7023538065	 0.107898
H	 0.4996909179	 0.912181121	-2.8482160662	 0.098095
H	 1.9359595655	 1.1995414937	-1.832307552	 0.090731
H	 2.5184808722	 0.1313456746	-3.804936717	 0.292199
H	 2.4433057462	-1.6942333955	-0.4060148973	 0.257296
79.3246	107.9806	146.029	168.9932	214.3071	244.9379	255.9636	280.425	322.7474	339.6532	411.8216	458.8109	524.7434	618.4156	687.2827	755.784	766.6173	856.4706	921.1727	975.2513	1050.4011	1063.8878	1089.4129	1124.2379	1143.7421	1203.5607	1222.6535	1241.7081	1266.1259	1293.1414	1346.5998	1382.0537	1391.7086	1406.7791	1465.6757	1487.8883	1491.2895	1512.4534	1888.7832	2978.3212	3018.9564	3038.7651	3069.0896	3108.8263	3120.0457	3609.3421	3790.2892	3831.0609
CC1(O)C(CO)NC1=O	C[C@@]1(O)[C@@H](CO)NC1=O	
InChI=1S/C5H9NO3/c1-5(9)3(2-7)6-4(5)8/h3,7,9H,2H2,1H3,(H,6,8)	InChI=1S/C5H9NO3/c1-5(9)3(2-7)6-4(5)8/h3,7,9H,2H2,1H3,(H,6,8)/t3-,5-/m1/s1
