17
gdb 35261	2.3438	1.63178	1.19702	4.1585	71.67	-0.2513	0.0112	0.2625	1059.7866	0.137017	-417.963047	-417.954856	-417.953912	-417.99668	29.721	
N	 0.5117264319	-0.603338987	 1.7451923037	-0.344933
C	 0.3841220892	 0.3001949516	 1.035094469	 0.341651
C	 0.1861720846	 1.4030707907	 0.1247517173	-0.176407
N	 0.5375399296	 2.7547984805	 0.5995431742	-0.316511
C	 1.3081357708	 2.1729477656	-0.4994484919	-0.040417
C	 2.7766502792	 1.8782379688	-0.269568916	 0.148662
C	 3.3100517143	 1.5835139684	 1.1466018768	-0.307335
C	 3.7788539981	 0.2479082263	 0.5344757797	-0.062219
O	 3.152024266	 0.5638388219	-0.735134719	-0.298695
H	-0.7062766113	 1.2875355994	-0.4851151077	 0.136028
H	-0.146900581	 3.4278470058	 0.2654430928	 0.250217
H	 1.0827264422	 2.5179605319	-1.5077469057	 0.105817
H	 3.3545443219	 2.6535089604	-0.7936826543	 0.077452
H	 4.0935677329	 2.259223787	 1.4909251789	 0.11069
H	 2.5474185986	 1.4981324769	 1.9186014476	 0.143357
H	 4.8646033911	 0.1365657609	 0.4289703664	 0.1009
H	 3.356598242	-0.6598310092	 0.9754784882	 0.131744
48.7286	105.5746	141.5853	190.519	252.0184	260.5917	447.8639	486.1997	579.4269	671.9638	702.5788	793.7575	812.9077	846.2631	896.7031	929.207	957.9522	980.3879	996.688	1028.1998	1068.09	1072.6032	1133.8081	1167.0161	1196.2504	1206.8022	1224.7582	1251.9583	1261.7526	1290.5915	1358.3565	1395.2478	1408.6683	1458.17	1494.4064	1527.9182	2358.0065	2989.3095	3028.318	3087.6902	3098.8654	3116.8332	3143.8901	3161.2322	3513.8863
N#CC1NC1C1CCO1	N#C[C@H]1N[C@H]1[C@H]1CCO1	
InChI=1S/C6H8N2O/c7-3-4-6(8-4)5-1-2-9-5/h4-6,8H,1-2H2	InChI=1S/C6H8N2O/c7-3-4-6(8-4)5-1-2-9-5/h4-6,8H,1-2H2/t4-,5-,6-/m1/s1
