17
gdb 86153	2.31459	1.6391	1.20107	2.1632	63.7	-0.2677	-0.0446	0.2231	1048.5782	0.135056	-496.117978	-496.109314	-496.108369	-496.151432	32.593	
O	-0.8537749025	 1.1128694713	-0.9495599898	-0.437711
C	-0.1858243549	 0.1691322169	-0.1371822684	 0.087874
C	-1.2120260432	-0.8954690995	 0.3204720854	-0.251085
C	-1.2418253935	-1.9947291441	-0.7737349479	 0.063605
O	-2.490625959	-2.1372897423	-1.4020346975	-0.432903
C	-0.1676805695	-1.5333767788	-1.7510057973	 0.328159
O	-0.1690364622	-1.7204475526	-2.9440526404	-0.339274
C	 0.8047707311	-0.6168502772	-1.027435462	 0.010473
O	 1.5208878307	 0.1995427439	-1.9165316831	-0.443859
H	-0.1761346809	 1.4832936466	-1.5327719533	 0.289634
H	 0.3136509621	 0.6553868145	 0.7114438586	 0.075616
H	-0.928584773	-1.3133456569	 1.2895066193	 0.106469
H	-2.1975557447	-0.4370496514	 0.4166531127	 0.146841
H	-0.9139591392	-2.9588044825	-0.3472118324	 0.096285
H	-2.31466449	-2.2663192465	-2.3442004212	 0.295133
H	 1.4826735116	-1.2164964214	-0.3980587925	 0.10348
H	 1.3627054073	-0.16764383	-2.8004454301	 0.301262
57.8448	111.4513	208.2971	260.5899	282.655	300.0709	356.1432	387.7834	426.3265	497.5526	522.7484	556.9457	620.397	674.3453	747.6117	826.2374	907.8642	939.4949	984.8234	992.1758	1035.9759	1065.6401	1153.2056	1171.8177	1188.2097	1213.4566	1237.8932	1274.5242	1321.8954	1348.002	1361.3187	1371.5358	1396.6533	1403.9407	1431.4334	1466.0287	1835.1262	2945.9818	2978.8671	3012.6041	3076.7895	3136.4935	3700.5891	3742.7273	3750.7731
OC1CC(O)C(=O)C1O	O[C@H]1C[C@@H](O)C(=O)[C@H]1O	
InChI=1S/C5H8O4/c6-2-1-3(7)5(9)4(2)8/h2-4,6-8H,1H2	InChI=1S/C5H8O4/c6-2-1-3(7)5(9)4(2)8/h2-4,6-8H,1H2/t2-,3+,4-/m0/s1
