17
gdb 127267	5.57528	0.93525	0.80509	4.5703	81.52	-0.1954	0.0192	0.2146	1391.3102	0.137951	-414.205548	-414.19682	-414.195876	-414.239824	31.201	
C	 0.0061786962	 1.4759263653	-0.0249573992	-0.320828
N	-0.0338040502	 0.0307207701	-0.0244137666	 0.067191
C	-0.0218854038	-0.7980081631	-1.1018779441	-0.152415
C	 0.0199660765	-2.0890775809	-0.6029341701	 0.251407
N	 0.0301186764	-3.2563586289	-1.3707369173	-0.397681
C	 0.0668868985	-4.5475255541	-0.9158778326	 0.075604
N	 0.0960077889	-4.8638369439	 0.3200860081	-0.456552
C	 0.0360188517	-1.9300991342	 0.8032822889	-0.059306
N	 0.0072171076	-0.6406515396	 1.1374925984	-0.264255
H	 1.0238211604	 1.8504247377	-0.1842880743	 0.138512
H	-0.644447782	 1.8686363175	-0.8108704763	 0.134642
H	-0.3501213393	 1.8182466692	 0.9465351912	 0.161172
H	-0.0482308349	-0.4203961655	-2.1119931309	 0.118125
H	 0.0111927751	-3.1367567982	-2.3688845669	 0.249337
H	 0.0676855835	-5.2579284763	-1.7518555291	 0.084208
H	 0.1199875524	-5.8753637453	 0.419838475	 0.220356
H	 0.0585237328	-2.7063116598	 1.5472071458	 0.150483
52.9023	63.9416	153.5759	175.5374	212.7001	286.3585	368.5863	427.6184	432.895	560.5204	633.6561	669.3569	733.7503	737.526	790.5173	818.5934	889.8373	1001.5671	1019.3646	1032.0145	1074.0172	1113.7514	1147.2877	1199.5848	1206.5114	1257.8934	1352.9859	1387.4233	1413.2823	1436.5887	1443.012	1465.2528	1489.1753	1512.3438	1552.9066	1641.8091	1725.4516	3033.5738	3039.0487	3101.2379	3158.5926	3251.3567	3307.5422	3520.731	3661.2084
CN1C=C(NC=N)C=N1	Cn1cc(NC=N)cn1	
InChI=1S/C5H8N4/c1-9-3-5(2-8-9)7-4-6/h2-4H,1H3,(H2,6,7)	InChI=1S/C5H8N4/c1-9-3-5(2-8-9)7-4-6/h2-4H,1H3,(H2,6,7)
