20
gdb 63549	3.03313	1.34524	1.15366	1.8633	79.55	-0.2321	0.0249	0.257	1146.9701	0.170463	-403.157004	-403.148169	-403.147224	-403.190345	33.567	
C	-0.1190172835	 1.4995924269	 0.0506284298	-0.454499
C	-0.0042959924	-0.0131896897	 0.0371679714	 0.249141
C	-1.2433195186	-0.7319192369	-0.4630301824	-0.449119
C	 1.3548648155	-0.6248341746	-0.2919475619	-0.3971
C	 0.8253504178	-0.6714162079	 1.1080467762	 0.384866
C	 1.4466739501	 0.0056126076	 2.3374045646	-0.259301
N	 1.2937792371	-0.9800972031	 3.4228326388	-0.266147
C	 0.7170876411	-1.9775848711	 2.8970515556	 0.108408
O	 0.387329021	-1.957836702	 1.5839191886	-0.247081
H	 0.7995176738	 1.9810344714	 0.3993391564	 0.117799
H	-0.3243933654	 1.8748946595	-0.9583469991	 0.120301
H	-0.9382171072	 1.8303990858	 0.699729014	 0.120264
H	-1.4580668424	-0.4488794977	-1.4996820759	 0.11478
H	-1.1264740315	-1.8163756205	-0.4188616292	 0.131035
H	-2.1182563017	-0.4672264989	 0.1418656269	 0.116948
H	 1.3660041727	-1.5571037901	-0.8470630087	 0.121256
H	 2.1921903015	 0.0369244303	-0.4958066577	 0.111485
H	 2.5077617532	 0.2417822577	 2.197225895	 0.118704
H	 0.9393138097	 0.9372538077	 2.6119855916	 0.119762
H	 0.4462196094	-2.8930162646	 3.4111883056	 0.138498
73.7763	158.6088	171.8703	192.4567	215.9205	283.082	356.1491	400.1786	424.1503	462.2983	527.7511	550.9482	716.2075	788.5134	865.1274	888.0138	913.9681	935.4065	959.0045	972.8702	982.5365	985.7197	1034.1688	1049.2941	1074.6845	1139.8858	1156.0862	1166.8287	1208.8217	1218.1598	1293.3707	1311.3479	1339.088	1401.9208	1409.9189	1424.7509	1480.676	1484.1984	1490.2618	1498.8701	1501.2041	1516.0549	1708.2971	3023.4883	3029.5209	3031.8097	3060.0654	3083.8534	3087.0197	3101.8663	3117.8316	3130.2924	3209.7077	3216.6778
CC1(C)CC11CN=CO1	CC1(C)C[C@]21CN=CO2	
InChI=1S/C7H11NO/c1-6(2)3-7(6)4-8-5-9-7/h5H,3-4H2,1-2H3	InChI=1S/C7H11NO/c1-6(2)3-7(6)4-8-5-9-7/h5H,3-4H2,1-2H3/t7-/m1/s1
