16
gdb 8393	3.94778	1.73704	1.50451	1.7408	65.55	-0.2483	-0.0253	0.223	878.497	0.12862	-383.688513	-383.680919	-383.679975	-383.721473	27.783	
C	-0.1173140798	 1.3965863739	 0.3625143094	-0.485332
C	-0.0132893332	-0.0382015876	-0.0961048041	 0.245601
O	 1.0119070695	-0.5624906806	-0.4667088844	-0.305031
C	-1.2898874296	-0.8355908756	-0.0745867839	 0.337653
C	-2.072865696	-1.4573518278	-1.2663915715	-0.244063
C	-2.9058319024	-1.5954586734	 0.0284240551	 0.039289
C	-1.6484653392	-2.0818162609	 0.7846872827	-0.244035
O	-2.5511666006	-0.1974491172	 0.3806799083	-0.345971
H	 0.8591509898	 1.8783418035	 0.3058192408	 0.139357
H	-0.8472530586	 1.9314390394	-0.2549047163	 0.153747
H	-0.5048305901	 1.4313443634	 1.3866233457	 0.153812
H	-2.4528765288	-0.7363527743	-1.9906416493	 0.112866
H	-1.663908279	-2.3598547868	-1.7239327964	 0.113041
H	-3.9474223009	-1.8882867471	 0.1547871233	 0.10315
H	-1.2037534104	-3.0369559895	 0.5000137322	 0.113046
H	-1.6558696905	-1.9090796494	 1.8612063185	 0.112868
25.3752	131.6312	171.8154	192.3915	345.4825	439.6708	534.7248	557.3555	609.6323	613.3956	744.1128	792.4441	893.9314	919.5811	936.8925	937.3551	983.7587	992.3096	1020.6572	1089.7045	1092.7311	1118.9504	1142.9802	1160.3784	1214.4247	1235.512	1237.5862	1335.0679	1384.6957	1454.5411	1461.7479	1467.0956	1508.381	1807.8554	3041.7467	3074.1041	3080.1146	3101.9901	3128.2848	3156.6455	3158.4895	3162.0263
CC(=O)C12CC(C1)O2	CC(=O)[C@@]12C[C@@H](C1)O2	
InChI=1S/C6H8O2/c1-4(7)6-2-5(3-6)8-6/h5H,2-3H2,1H3	InChI=1S/C6H8O2/c1-4(7)6-2-5(3-6)8-6/h5H,2-3H2,1H3/t5-,6+
