20
gdb 65187	2.77512	1.18583	1.04281	2.8615	81.55	-0.228	-0.0279	0.2001	1236.2304	0.168631	-403.109645	-403.100452	-403.099507	-403.143697	34.718	
C	 0.9149680094	 0.4336632487	 0.1526513651	-0.442836
C	 0.3934389424	-0.8077177556	 0.8443402945	 0.357107
C	 1.2084128948	-2.0674276573	 0.7619734429	-0.304854
C	 1.123874441	-1.3126670243	 2.0727048094	-0.310406
N	-1.0399493521	-0.9541540509	 0.6442188812	-0.119118
C	-1.9064759671	-1.5606915156	 1.6151932421	-0.261164
C	-2.0153310917	-0.0852077051	 1.3288374974	-0.097302
C	-1.6150489744	 0.8523327383	 2.410048955	 0.155339
O	-2.1661473515	 1.9079433333	 2.610373335	-0.272646
H	 2.0062176359	 0.4747599607	 0.2023352464	 0.118177
H	 0.6149143077	 0.4355058087	-0.8997343073	 0.13218
H	 0.5242825211	 1.3466330271	 0.6161152798	 0.127404
H	 0.6673385411	-3.0055339735	 0.6969086806	 0.118968
H	 2.1355925453	-2.0455825709	 0.1997935272	 0.117125
H	 1.9890641057	-0.7502719489	 2.4085135292	 0.117094
H	 0.5707871684	-1.7806410119	 2.8785683061	 0.113079
H	-2.6744552462	-2.2257851275	 1.2292465376	 0.132054
H	-1.5103276339	-1.839213942	 2.5906926219	 0.121848
H	-2.8206729373	 0.284032191	 0.6994240174	 0.112602
H	-0.7657873488	 0.5128490661	 3.0407157884	 0.085349
61.1168	94.575	175.7657	216.2165	231.3038	299.5358	322.7389	344.9908	371.1392	428.5281	496.2774	573.1946	624.7568	774.7297	801.1191	859.0546	868.4631	915.0737	932.4711	941.8531	981.8315	1027.7869	1041.9008	1065.0313	1076.8092	1081.5872	1114.9068	1125.4054	1147.1031	1183.8889	1187.3008	1242.9804	1319.5762	1331.5105	1357.0315	1418.6908	1436.0616	1461.553	1484.4209	1493.0678	1501.4106	1509.9542	1808.8735	2905.5321	3034.1554	3094.4815	3098.0636	3119.5383	3131.4323	3136.0832	3152.4267	3181.1405	3210.9694	3224.9206
CC1(CC1)N1CC1C=O	CC1(CC1)N1C[C@H]1C=O	
InChI=1S/C7H11NO/c1-7(2-3-7)8-4-6(8)5-9/h5-6H,2-4H2,1H3	InChI=1S/C7H11NO/c1-7(2-3-7)8-4-6(8)5-9/h5-6H,2-4H2,1H3/t6-,8?/m0/s1
