17
gdb 50018	2.99309	1.07807	0.98238	3.585	76.66	-0.2528	-0.0491	0.2037	1246.4905	0.134069	-421.834321	-421.825796	-421.824852	-421.868233	31.04	
O	-0.0402574324	 0.0621993168	-0.5172883965	-0.259108
C	 0.0267284728	 1.1844729038	-0.0831731597	 0.169472
C	 1.2718175649	 1.9837433007	-0.0029456993	-0.154656
C	 1.1589359582	 3.488336843	-0.0746695585	-0.348
C	 1.4857992562	 2.8550770705	 1.2390003082	 0.211127
C	 0.7422477687	 2.880759435	 2.5899115303	-0.335102
C	 2.1182063563	 3.0198418468	 3.3219369806	-0.341909
C	 2.8135943924	 2.9648868805	 1.9473695825	 0.356034
O	 3.9494496408	 2.9950303601	 1.5699937084	-0.303292
H	-0.8794804335	 1.7136254701	 0.2957195214	 0.069726
H	 2.1598561572	 1.511730896	-0.4097897544	 0.129953
H	 1.9527168902	 4.0209917649	-0.5866830271	 0.149675
H	 0.1643494209	 3.9095798126	-0.1899768692	 0.132667
H	 0.0723878154	 3.7327968125	 2.7213801881	 0.118526
H	 0.2013713534	 1.965142503	 2.8353993464	 0.124441
H	 2.277532675	 3.9609612018	 3.855080447	 0.139111
H	 2.3899227835	 2.1950199319	 3.9860900918	 0.141336
67.8142	90.899	114.7045	189.9278	244.2656	317.6346	358.3307	467.3978	505.0048	524.129	602.9896	717.9479	753.7964	820.6349	865.9955	889.4939	926.2931	987.0204	1010.9972	1038.9464	1049.2159	1078.2892	1082.4584	1112.4979	1167.9384	1177.8725	1214.5373	1224.9554	1258.371	1294.7701	1373.2685	1437.5775	1442.092	1471.8856	1492.3739	1821.4773	1884.5181	2850.4729	3067.3768	3077.1159	3115.3168	3126.6981	3132.1711	3180.4234	3221.5852
O=CC1CC11CCC1=O	O=C[C@H]1C[C@]21CCC2=O	
InChI=1S/C7H8O2/c8-4-5-3-7(5)2-1-6(7)9/h4-5H,1-3H2	InChI=1S/C7H8O2/c8-4-5-3-7(5)2-1-6(7)9/h4-5H,1-3H2/t5-,7+/m1/s1
