18
gdb 93159	2.03459	1.82476	1.3532	2.0632	72.99	-0.2366	-0.0109	0.2257	1032.8123	0.148969	-439.101016	-439.092538	-439.091594	-439.134481	31.594	
N	 0.2749094274	 1.5830367678	 0.0911912144	-0.507296
C	 0.0862870651	 0.1340396267	 0.0614607023	-0.08896
C	-1.4143349611	-0.2160124065	 0.2310853012	-0.260032
C	-2.3625209265	-0.0938571954	-0.9452117454	-0.054897
C	-2.1766608836	-0.1620322085	-2.267249768	-0.063123
C	-0.8961401983	-0.2922345096	-3.0446762857	-0.147479
O	 0.2369156951	 0.1904659545	-2.3169065041	-0.247773
C	 0.5447285124	-0.5679334367	-1.2083018133	 0.393865
O	 1.0384311677	-1.6566192745	-1.280423382	-0.31521
H	 1.2677292404	 1.7986548857	 0.0628316105	 0.233244
H	-0.117936905	 1.9778378082	-0.759008684	 0.237504
H	 0.6264745712	-0.3039970181	 0.9050328555	 0.104351
H	-1.4797995891	-1.2526916527	 0.589658557	 0.134178
H	-1.7842466075	 0.4161191174	 1.0451693124	 0.125701
H	-3.3988033278	-0.0066829278	-0.6224202225	 0.098829
H	-3.0639345893	-0.1298461591	-2.8972085866	 0.096532
H	-0.7223201228	-1.3346080287	-3.3498257069	 0.135128
H	-0.9404732282	 0.3135505373	-3.9543398448	 0.125437
57.1243	102.5299	154.7987	247.2511	276.6659	302.2277	365.1621	414.1413	443.7401	535.0868	657.5558	675.3781	747.5452	792.8986	818.32	871.3789	890.6502	908.3799	965.5484	1001.5922	1024.0722	1042.0371	1081.3384	1133.2486	1179.8477	1189.6612	1251.4092	1273.5594	1282.8166	1312.2857	1380.6734	1398.2027	1401.5156	1429.5415	1457.1143	1488.9359	1666.536	1723.7103	1846.5851	3005.8951	3016.1982	3072.3515	3081.0318	3084.5118	3128.9004	3152.4059	3490.9298	3566.6648
NC1CC=CCOC1=O	N[C@H]1CC=CCOC1=O	
InChI=1S/C6H9NO2/c7-5-3-1-2-4-9-6(5)8/h1-2,5H,3-4,7H2	InChI=1S/C6H9NO2/c7-5-3-1-2-4-9-6(5)8/h1-2,5H,3-4,7H2/t5-/m0/s1
