16
gdb 45883	2.25357	2.08648	1.29389	3.1663	70.21	-0.2421	-0.0292	0.2129	967.4333	0.125013	-437.880221	-437.872741	-437.871797	-437.912517	28.24	
O	-0.2317956379	-0.017654775	 0.4036824455	-0.293624
C	-0.0520060791	 1.1345951995	 0.0962190581	 0.332178
C	-1.1942224327	 2.1082812104	-0.1801410508	-0.228161
N	-1.4407851234	 3.060252903	 0.8948526085	-0.246868
C	-0.6503911658	 3.3993035096	 1.812614729	 0.131713
O	 0.6476196128	 3.0608752397	 2.1057755491	-0.229237
C	 1.5852050284	 2.8208956922	 1.0829980039	 0.105248
C	 2.319025143	 1.5115181362	 1.1108580306	-0.315384
C	 1.3073892642	 1.7842329718	 0.0329650722	-0.148196
H	-0.9883711405	 2.6698287025	-1.1017339697	 0.122535
H	-2.1149809543	 1.5385123101	-0.3365930245	 0.135209
H	-1.0151894813	 4.0591168389	 2.5993813366	 0.130512
H	 2.1216849342	 3.7240204081	 0.8054635594	 0.110609
H	 3.3736582092	 1.5082803343	 0.8614901892	 0.124699
H	 2.0201778502	 0.8019302251	 1.8744655408	 0.149285
H	 1.641039163	 2.0134600136	-0.9760977878	 0.119482
80.5084	110.9406	194.8926	296.2748	367.998	396.6681	475.3995	481.1604	575.8383	675.8934	754.2736	791.747	818.5186	862.759	918.8243	952.6989	971.1575	986.2592	1032.7339	1062.7694	1079.626	1080.9007	1124.2444	1143.9939	1175.8081	1235.1446	1258.1187	1338.0196	1374.5601	1387.754	1426.462	1465.2743	1479.0284	1761.5135	1819.4406	3018.4493	3086.5656	3138.7427	3142.9298	3144.8973	3150.1828	3235.4695
O=C1CN=COC2CC12	O=C1CN=CO[C@H]2C[C@@H]12	
InChI=1S/C6H7NO2/c8-5-2-7-3-9-6-1-4(5)6/h3-4,6H,1-2H2	InChI=1S/C6H7NO2/c8-5-2-7-3-9-6-1-4(5)6/h3-4,6H,1-2H2/t4-,6-/m0/s1
