22
gdb 56147	3.15376	0.85191	0.79183	2.4515	79.17	-0.2652	0.0578	0.3229	1565.7843	0.191439	-441.546915	-441.535852	-441.534908	-441.583758	40.298	
C	 0.0097740954	 1.5526489304	 0.0074416568	-0.40029
C	 0.0424674994	 0.0136885203	 0.0037503803	 0.228279
C	 0.7924845841	-0.5008618945	 1.245638159	-0.39977
C	-1.3951003384	-0.5363891219	 0.0011465903	-0.411833
C	 0.7260297647	-0.4939170728	-1.2712549247	-0.051391
O	 2.0763669202	-0.0019355514	-1.3053225151	-0.269279
C	 2.7940283661	-0.3566532915	-2.3986832157	 0.495338
N	 4.0378417169	 0.2116591618	-2.3429779567	-0.56524
O	 2.381517163	-1.0459582488	-3.3014808349	-0.396876
H	 1.0202898299	 1.968113497	-0.0243472327	 0.121385
H	-0.5398537795	 1.9372288429	-0.8589470505	 0.109138
H	-0.4852888741	 1.926315654	 0.909886	 0.108221
H	 0.3043145585	-0.15465446	 2.1626465671	 0.10891
H	 0.8106250987	-1.5962536117	 1.2698392392	 0.10813
H	 1.8266114217	-0.1467546085	 1.2560582449	 0.118328
H	-1.9544054441	-0.1901178182	-0.8748801064	 0.113829
H	-1.4046121343	-1.6318928414	-0.0042942692	 0.113182
H	-1.9343094386	-0.203042035	 0.8936959704	 0.113904
H	 0.7453452266	-1.5888640875	-1.3000965847	 0.111939
H	 0.1991788948	-0.1481978413	-2.1669900909	 0.114568
H	 4.3669798682	 0.566955658	-1.4614480072	 0.262021
H	 4.7187330807	-0.1579801898	-2.9838029292	 0.267506
23.626	66.836	130.621	171.0052	214.9123	247.523	254.858	255.3965	301.3365	329.1397	354.9229	388.871	409.3221	460.9067	498.9429	547.1788	656.4708	763.9407	784.4784	919.4534	928.9933	937.4696	945.1507	950.6879	961.573	1055.2867	1079.1744	1090.1146	1120.6818	1231.7901	1243.9169	1288.1885	1309.4769	1344.3941	1396.5444	1397.4481	1410.0696	1440.032	1478.3349	1486.5138	1489.2859	1497.0776	1504.9236	1514.0417	1521.8709	1612.1751	1833.5219	3025.0846	3028.6065	3032.8089	3040.7892	3082.4528	3091.4765	3094.7155	3096.9099	3101.34	3114.6319	3118.6519	3613.4748	3742.4443
CC(C)(C)COC(N)=O	CC(C)(C)COC(=O)N	
InChI=1S/C6H13NO2/c1-6(2,3)4-9-5(7)8/h4H2,1-3H3,(H2,7,8)	InChI=1S/C6H13NO2/c1-6(2,3)4-9-5(7)8/h4H2,1-3H3,(H2,7,8)
