22
gdb 98275	2.58709	1.01729	0.96044	1.4214	79.84	-0.2086	0.0143	0.2229	1419.5146	0.191292	-441.501682	-441.490499	-441.489555	-441.538429	39.111	
C	 1.5480474647	 1.0607620152	 0.3894968795	-0.240786
O	 1.2469586669	-0.3160486489	 0.127498303	-0.232589
C	 0.4162933869	-0.5361023381	-0.9073356886	 0.474336
O	-0.0827662093	 0.3479395752	-1.5613926586	-0.370585
C	 0.2184533017	-2.0327108592	-1.1528129712	-0.074046
C	-1.2601284628	-2.3403811262	-1.4382829388	-0.407129
N	 1.1815996791	-2.4330332971	-2.189383072	-0.06528
C	 1.533827377	-3.8412897854	-2.1350241261	-0.321646
C	 0.8560624541	-2.0016675549	-3.5429229201	-0.336294
H	 2.045417481	 1.5156692485	-0.4709058295	 0.141078
H	 0.6345470318	 1.6215567709	 0.6026406825	 0.140226
H	 2.2089894176	 1.0605828156	 1.2562232451	 0.132478
H	 0.5280358163	-2.545512655	-0.2383754743	 0.095624
H	-1.3938615795	-3.3958324139	-1.6917782144	 0.117193
H	-1.8712914845	-2.1261265393	-0.5557991358	 0.118773
H	-1.6345187414	-1.7261189405	-2.2597792961	 0.141543
H	 0.70643173	-4.5224664058	-2.4098308233	 0.093586
H	 2.3582699366	-4.0329446994	-2.8298656099	 0.119259
H	 1.8733300945	-4.1055137679	-1.1287443044	 0.118639
H	 0.5826673514	-0.9450364637	-3.5441205126	 0.14829
H	 1.7388605721	-2.1308204272	-4.1782630392	 0.114537
H	 0.029278986	-2.5722779729	-4.0028448852	 0.092793
41.1817	77.8271	115.688	136.041	201.4269	209.9434	233.229	238.1473	255.0717	269.3387	318.7213	360.3515	384.396	413.6537	538.5311	694.1075	760.919	815.2232	862.6603	962.5945	1012.7418	1047.5705	1073.9672	1100.6587	1121.6854	1123.2388	1178.4555	1186.7983	1194.7907	1215.6201	1244.7562	1306.4803	1368.7244	1392.208	1404.6358	1445.1969	1472.6039	1473.1658	1481.18	1481.7731	1486.1316	1495.1558	1496.9324	1502.8365	1510.3426	1521.1767	1808.9649	2926.9267	2944.9389	3045.8337	3051.9777	3055.3148	3061.5143	3075.2055	3101.4686	3110.9573	3126.4364	3133.1702	3137.5865	3159.1352
COC(=O)C(C)N(C)C	COC(=O)[C@@H](C)N(C)C	
InChI=1S/C6H13NO2/c1-5(7(2)3)6(8)9-4/h5H,1-4H3	InChI=1S/C6H13NO2/c1-5(7(2)3)6(8)9-4/h5H,1-4H3/t5-/m1/s1
