17
gdb 45691	3.64372	1.36288	1.04127	3.69	74.07	-0.2254	-0.019	0.2064	1105.7018	0.138159	-418.021407	-418.013987	-418.013042	-418.053636	28.704	
O	-0.0326685138	-0.0100664236	 0.4065958692	-0.30504
C	-0.0009742805	 1.1446609888	 0.0567383354	 0.369041
C	-1.3095123478	 1.8909690404	-0.2893448407	-0.268154
N	-1.227020359	 3.3214755864	-0.588744594	-0.327145
C	-0.1078727195	 3.6579357852	-1.0684844294	 0.414502
N	 0.4720633328	 4.8778543854	-1.3871104582	-0.358787
C	 1.8433881321	 4.3270196577	-1.2245032206	-0.196619
C	 1.2017341173	 2.9027845662	-1.2157528249	-0.119544
C	 1.3157638375	 1.9276351491	-0.0487927087	-0.333415
H	-1.7696860567	 1.3415269851	-1.1234366954	 0.138355
H	-1.9860746358	 1.7415741452	 0.5597349175	 0.139373
H	 0.1567628832	 5.7568596515	-0.9974163474	 0.244901
H	 2.5189922776	 4.5635549223	-2.0500345888	 0.118358
H	 2.316089148	 4.5889539754	-0.2711237667	 0.114606
H	 1.3112824063	 2.3944676955	-2.1773427645	 0.111666
H	 1.4321806554	 2.4854118614	 0.8910133858	 0.129564
H	 2.1422377229	 1.217463478	-0.1198601286	 0.12834
60.4568	152.852	255.5325	315.4418	365.4792	416.2402	466.7247	505.7264	556.6472	621.8698	690.2901	725.9482	773.3825	831.8777	882.219	934.299	961.9814	981.3651	1060.571	1079.3697	1106.1259	1137.4906	1155.8151	1198.6144	1214.8571	1235.9736	1250.9066	1269.3636	1320.8784	1323.2092	1349.6255	1388.7976	1451.9977	1461.4028	1517.0225	1807.0142	1816.9375	3010.392	3022.0757	3037.2951	3063.1141	3076.9319	3101.5789	3112.7609	3576.2089
O=C1CN=C2NCC2C1	O=C1C[N][C]2NC[C@H]2C1	
InChI=1S/C6H8N2O/c9-5-1-4-2-7-6(4)8-3-5/h4H,1-3H2,(H,7,8)	InChI=1S/C6H8N2O/c9-5-1-4-2-7-6(4)8-3-5/h4H,1-3H2,(H,7,8)/t4-/m1/s1
