14
gdb 21723	5.01043	1.42603	1.12527	2.2104	59.21	-0.2393	-0.0072	0.2321	1003.743	0.109084	-412.040981	-412.033336	-412.032392	-412.073872	27.276	
N	 0.220130022	 1.2282424344	-0.6174962298	-0.485177
C	-0.1971759775	 0.3125814725	 0.4315076041	-0.285016
C	-1.483015555	-0.425260878	 0.1717665612	 0.425348
N	-2.2714605864	-0.3041165425	-0.8536234406	-0.36859
C	-3.2686565655	-1.2095888223	-0.5512755637	 0.40891
N	-4.2975909004	-1.4483830578	-1.4238962561	-0.584443
N	-3.1204316916	-1.8452086859	 0.5879710582	-0.213883
O	-1.8976054951	-1.3147759918	 1.0726727658	-0.205849
H	 0.3151522631	 0.7168270715	-1.4902860215	 0.24072
H	-0.5197738974	 1.9038488076	-0.7859055562	 0.240174
H	 0.5926051858	-0.4274455077	 0.6072934873	 0.147137
H	-0.3016324039	 0.86242168	 1.3748589163	 0.146094
H	-4.5157115657	-0.6702312752	-2.0268440091	 0.266753
H	-5.1050492124	-1.8978404148	-1.0192441358	 0.267824
28.6774	165.8116	171.2452	257.5303	322.6537	361.8346	403.2184	470.5236	566.3495	647.7288	665.6809	769.548	784.8927	911.9123	921.0812	922.3429	1026.0399	1065.855	1128.1447	1142.2293	1189.9946	1262.9858	1388.4292	1390.5133	1446.7821	1465.7195	1579.6337	1631.3272	1660.3712	1677.8695	3038.125	3070.6122	3498.4751	3567.9339	3585.2498	3694.9582
NCC1=NC(N)=NO1	NCc1nc(N)no1	
InChI=1S/C3H6N4O/c4-1-2-6-3(5)7-8-2/h1,4H2,(H2,5,7)	InChI=1S/C3H6N4O/c4-1-2-6-3(5)7-8-2/h1,4H2,(H2,5,7)
