19
gdb 108434	2.27198	1.70916	1.2016	3.3232	76.32	-0.2338	0.0239	0.2577	1097.1392	0.159817	-419.177897	-419.169422	-419.168478	-419.210944	32.196	
C	-0.0842152608	 1.5396054919	-0.0601917861	-0.385611
C	-0.0321500544	 0.0045519492	-0.0715761372	-0.307814
C	 0.7737334158	-0.5320970619	-1.2301813566	 0.214698
N	 0.2567368174	-0.3186315283	-2.6215467934	-0.350071
C	 0.3664411391	-1.7762648556	-2.9247145727	-0.193829
C	 1.0885458722	-2.0118578724	-1.5896974753	 0.030567
O	 2.5125960222	-1.6978586886	-1.6369446468	-0.280001
C	 2.29193507	-0.38766372	-1.2354791783	 0.451282
N	 3.1028856575	 0.5276058645	-0.9651158096	-0.556703
H	 0.9245140697	 1.9544496602	 0.0051367631	 0.163086
H	-0.5476278336	 1.9310023691	-0.9717033864	 0.118671
H	-0.6683653108	 1.8981343144	 0.7921334035	 0.112435
H	 0.4129910515	-0.3560453606	 0.8632752316	 0.113341
H	-1.0467930253	-0.4128860855	-0.1202973875	 0.093849
H	-0.6999797863	 0.0167551885	-2.6236803327	 0.223073
H	-0.59569467	-2.3005312212	-2.969476534	 0.105915
H	 0.9433685326	-2.0050404041	-3.8256960296	 0.120792
H	 0.8931915981	-2.8975901639	-0.986817152	 0.09795
H	 4.0702075151	 0.2259370544	-1.0965605	 0.22837
101.5336	127.7561	154.4576	205.9913	246.9677	303.7733	324.8747	406.2341	470.8591	631.0611	668.4268	681.079	762.9444	786.219	835.5086	865.5458	883.8941	932.9252	955.2722	987.4784	999.981	1006.3007	1023.6251	1078.7956	1126.606	1151.6944	1158.159	1207.4926	1223.1171	1265.4308	1296.2949	1320.6846	1346.1477	1362.3354	1414.2817	1419.1036	1480.6772	1494.9691	1498.2402	1511.5617	1823.2865	3017.0213	3028.1595	3042.4562	3060.1587	3087.3345	3108.2139	3125.4652	3132.851	3470.4789	3537.6349
CCC12NCC1OC2=N	CC[C@]12NC[C@H]1O[C]2[NH]	
InChI=1S/C6H10N2O/c1-2-6-4(3-8-6)9-5(6)7/h4,7-8H,2-3H2,1H3	InChI=1S/C6H10N2O/c1-2-6-4(3-8-6)9-5(6)7/h4,7-8H,2-3H2,1H3/t4-,6+/m1/s1
