18
gdb 87428	3.49061	1.41929	1.35078	2.1455	75.25	-0.2232	0.0694	0.2926	1009.7442	0.147924	-401.839201	-401.831861	-401.830917	-401.870749	29.75	
O	 0.0505770767	 1.3655479826	 0.1204407164	-0.420876
C	-0.018920508	-0.0287068732	 0.0094852148	 0.008033
C	-0.4663449006	-0.7713203614	 1.2488880403	-0.396451
C	-1.3537421752	-0.6977418882	 0.0453620207	 0.394437
C	-2.7563038201	-0.1672811701	-0.0273716895	-0.183611
C	-3.2549782144	-0.5711129324	-1.4375280846	-0.098003
C	-2.0857336092	-1.2948524336	-2.0841322508	-0.175944
N	-1.7586451085	-1.9127095697	-0.7316391305	-0.221725
C	-3.2142393755	-1.5674661547	-0.320117941	-0.024264
H	-0.2413716758	 1.7436594673	-0.7159464952	 0.286958
H	 0.7670169209	-0.4949768978	-0.5864672384	 0.089188
H	 0.0145434217	-1.7176368633	 1.470356979	 0.1237
H	-0.731124736	-0.1646048827	 2.1084851311	 0.123111
H	-3.2487439132	 0.5960993093	 0.5603268114	 0.099308
H	-4.1210471277	-0.0988719612	-1.8849047127	 0.092571
H	-2.4044593113	-2.0815645398	-2.7725979432	 0.10904
H	-1.263612159	-0.7217513504	-2.5278790439	 0.092314
H	-3.9208520149	-2.2460601905	 0.1349149761	 0.102212
130.3904	154.1116	227.6015	287.3562	372.8731	435.3449	484.7613	505.881	647.6534	762.8839	788.5945	807.7173	821.1377	842.3148	859.3139	882.2047	916.0936	963.2755	978.1196	994.8061	1010.6551	1027.3894	1034.2674	1054.7376	1059.1444	1098.5982	1114.298	1145.353	1164.1258	1176.7394	1198.6019	1242.5097	1291.9232	1299.9087	1348.2411	1375.6544	1420.1488	1494.6537	1506.6569	3035.0204	3089.3533	3101.362	3133.5654	3187.9548	3202.7248	3225.7054	3227.5046	3801.9186
OC1CC11C2C3CN1C23	O[C@H]1C[C@]21[C@H]1[C@H]3CN2[C@@H]13	
InChI=1S/C7H9NO/c9-4-1-7(4)5-3-2-8(7)6(3)5/h3-6,9H,1-2H2	InChI=1S/C7H9NO/c9-4-1-7(4)5-3-2-8(7)6(3)5/h3-6,9H,1-2H2/t3-,4+,5+,6-,7+/m1/s1
