19
gdb 33084	6.25123	0.74645	0.67351	0.7956	79.92	-0.1612	0.0716	0.2328	1655.9699	0.159206	-419.231292	-419.22158	-419.220635	-419.265928	35.696	
C	-0.0009292266	 1.5265692855	 0.0224907436	-0.400955
C	 0.1083021222	 0.0057185294	-0.0081763408	-0.098426
N	 0.5550314016	-0.4575854759	-1.3117292029	-0.39767
C	 0.7570565245	-1.8349249965	-1.4694922539	 0.336983
C	 0.3479267189	-2.8462327581	-0.6307469052	-0.188008
N	 0.7104817369	-4.0527077566	-1.2336645791	-0.312123
C	 1.3412460765	-3.7957892191	-2.4067235807	 0.413206
O	 1.7792583059	-4.8556964229	-3.1349793317	-0.438377
C	 1.3966854094	-2.4368203338	-2.605660981	-0.427611
H	 0.9755224439	 1.9960185205	-0.1469468526	 0.111475
H	-0.6858908662	 1.8819928472	-0.7528956524	 0.127182
H	-0.3669662907	 1.869219191	 0.9945372704	 0.116597
H	 0.7695392663	-0.3437108163	 0.8056557745	 0.08325
H	-0.8769834338	-0.4385408894	 0.1838588223	 0.107371
H	 1.3418663637	 0.0802939216	-1.6527731009	 0.220133
H	-0.162728629	-2.832243519	 0.3153053848	 0.104452
H	 0.5501076729	-4.9732678858	-0.8671759482	 0.260273
H	 2.1773507043	-4.5193434782	-3.9429980587	 0.305363
H	 1.8204838991	-1.9255394936	-3.4564869475	 0.076886
64.9839	93.724	133.4398	194.6219	225.4996	247.0635	260.7411	335.4646	340.1771	405.988	479.3968	572.777	587.115	651.6749	671.3968	687.9047	722.5284	781.9126	823.8976	923.1082	993.134	1018.2236	1078.7615	1111.5219	1144.0544	1157.6674	1183.3428	1215.772	1284.1428	1301.1352	1312.5995	1378.3172	1407.663	1425.5441	1486.974	1499.2723	1506.0046	1528.4364	1560.3946	1592.9885	1646.873	2934.0776	3027.7347	3034.0088	3098.1307	3118.8935	3240.3541	3290.9835	3549.9972	3700.6456	3852.3033
CCNC1=CNC(O)=C1	CCNc1c[nH]c(O)c1	
InChI=1S/C6H10N2O/c1-2-7-5-3-6(9)8-4-5/h3-4,7-9H,2H2,1H3	InChI=1S/C6H10N2O/c1-2-7-5-3-6(9)8-4-5/h3-4,7-9H,2H2,1H3
