14
gdb 27936	2.48436	1.41011	0.90125	6.3396	69.93	-0.2048	-0.0235	0.1813	1187.7647	0.101859	-470.054555	-470.046393	-470.045449	-470.087177	30.26	
N	 0.1049806541	 1.3795104271	 0.208952356	-0.606373
C	-0.0016656834	 0.0053333938	 0.045172024	 0.272001
C	-1.0699937638	-0.8768777417	-0.0058754186	 0.135542
C	-2.4695351141	-0.5149098199	-0.0159001446	 0.072049
O	-3.4152119526	-1.2719072634	-0.0552410879	-0.29083
N	-0.5933322473	-2.1951880796	-0.0742523482	-0.398572
C	 0.6909771711	-2.0828023271	-0.0759490675	 0.443237
O	 1.606561705	-3.060203185	-0.1413123535	-0.423511
N	 1.1289782826	-0.7801021396	-0.0093152697	-0.34822
H	 0.6847652799	 1.8357200639	-0.4866649965	 0.257282
H	-0.7970478702	 1.8334546183	 0.2546206293	 0.266736
H	-2.6355870949	 0.5922561366	 0.0100045288	 0.023946
H	 1.1137490128	-3.8901259961	-0.1869624321	 0.320295
H	 2.0818363908	-0.4747655872	 0.1026993506	 0.27642
135.7372	173.4038	211.1198	221.8383	243.3018	302.2916	411.3352	434.5698	447.2719	467.593	573.865	644.9971	679.1515	690.7078	715.6726	753.8205	884.803	1011.2444	1032.9315	1086.302	1181.8533	1195.4251	1287.9319	1347.685	1422.7803	1492.1737	1532.0797	1606.4509	1660.1104	1673.0057	1788.5954	2791.7469	3522.8388	3630.8763	3658.5463	3796.887
NC1=C(C=O)N=C(O)N1	Nc1c(C=O)nc(O)[nH]1	
InChI=1S/C4H5N3O2/c5-3-2(1-8)6-4(9)7-3/h1H,5H2,(H2,6,7,9)	InChI=1S/C4H5N3O2/c5-3-2(1-8)6-4(9)7-3/h1H,5H2,(H2,6,7,9)
