22
gdb 96880	3.21867	0.93529	0.89546	2.3197	85.64	-0.2444	0.034	0.2783	1467.2936	0.192371	-404.357984	-404.347644	-404.346699	-404.394063	37.101	
C	 0.3388680077	 1.4351857762	-0.0694973801	-0.338307
N	 0.3952099806	-0.0156716219	 0.0431602041	-0.329513
C	 0.4914430351	-0.7037197765	-0.9957726141	 0.474476
C	 0.5612195275	-2.1838334707	-1.2953645345	-0.423709
C	 0.6051083716	-1.7230634626	-2.7707393099	 0.148329
O	 0.5569621168	-0.319905462	-2.3293499601	-0.282529
C	 1.8145086423	-2.0245093208	-3.6512015435	 0.011509
C	 1.6484791409	-1.3357839226	-5.0150081858	-0.39134
C	 3.1524845913	-1.6411646318	-3.0045091156	-0.401637
H	 1.1905605984	 1.8703081198	 0.4655718575	 0.125309
H	 0.3460651862	 1.8067024222	-1.1009600084	 0.123613
H	-0.5674796205	 1.7973214423	 0.4281798979	 0.125366
H	 1.4539216726	-2.6858407227	-0.9193924116	 0.133741
H	-0.3222921801	-2.7533953754	-1.0022592745	 0.132403
H	-0.3167543939	-1.9500646599	-3.3176416555	 0.086665
H	 1.8007218711	-3.1130642603	-3.8102124299	 0.080311
H	 2.4891735158	-1.5680664804	-5.6756150296	 0.113479
H	 0.7282015406	-1.6547802223	-5.515597291	 0.1113
H	 1.6046264182	-0.2487231787	-4.8919299121	 0.134489
H	 3.3278922654	-2.1684793585	-2.0622548461	 0.115653
H	 3.9800701461	-1.8881171029	-3.6761126912	 0.115409
H	 3.1907504164	-0.5666522203	-2.8035539261	 0.134982
55.7299	64.8249	70.7666	168.5785	206.7516	218.8296	234.2498	274.6602	295.1802	353.7382	419.3493	529.4512	553.4139	577.4625	699.5043	775.894	885.2762	916.1609	924.7954	951.7603	967.4993	997.2417	1031.1269	1076.0113	1086.8864	1106.1696	1131.3857	1134.6489	1164.6425	1187.8494	1208.082	1243.5954	1294.0565	1328.5359	1370.1583	1385.9635	1401.8516	1426.3746	1439.096	1467.4559	1488.7157	1494.2591	1496.3005	1497.2913	1507.0906	1515.3506	1847.644	2999.9098	3015.6783	3033.2882	3042.3126	3046.3925	3079.9427	3085.3778	3087.6245	3102.4465	3107.058	3110.438	3119.0518	3139.9514
CN=C1CC(O1)C(C)C	CN=C1C[C@@H](O1)C(C)C	
InChI=1S/C7H13NO/c1-5(2)6-4-7(8-3)9-6/h5-6H,4H2,1-3H3	InChI=1S/C7H13NO/c1-5(2)6-4-7(8-3)9-6/h5-6H,4H2,1-3H3/t6-/m1/s1
