15
gdb 18339	3.81094	2.1208	1.55544	4.9862	60.15	-0.2371	0.006	0.2431	803.0103	0.12175	-399.81026	-399.803859	-399.802915	-399.841148	23.984	
O	 0.0143687253	 0.0113371321	-0.2661000928	-0.343777
C	 0.0285357727	 1.1908830744	-0.0669784834	 0.466359
O	-1.1006570832	 1.9063245053	 0.1847959069	-0.222463
C	-0.8402112728	 3.3078744491	 0.3743268246	-0.083729
C	 0.6458041129	 3.5641159569	 0.0421642127	-0.068497
C	 1.5862160787	 3.779386323	 1.2523389032	-0.175177
N	 1.7563465322	 2.3102591978	 1.344190056	-0.308919
C	 1.2230950848	 2.1359866127	-0.0315585872	-0.138411
H	-1.5185588174	 3.855990534	-0.2845910655	 0.121993
H	-1.080148632	 3.5617726266	 1.411977174	 0.124027
H	 0.7768054437	 4.2268187164	-0.8114755526	 0.092992
H	 2.4955613049	 4.3259190996	 0.9692068732	 0.101059
H	 1.1590598753	 4.244560656	 2.1482989797	 0.108588
H	 2.6973320062	 1.9692679219	 1.4976130639	 0.231327
H	 1.9509969187	 1.9021737142	-0.8131243628	 0.094628
99.9237	140.0741	249.8777	348.4228	458.8321	601.8747	666.0041	692.0624	742.0976	826.4265	852.2375	905.4723	914.0155	967.1435	1006.9402	1029.1223	1042.8636	1086.1285	1119.3491	1160.1193	1192.1315	1200.7756	1234.138	1253.6754	1290.1542	1336.551	1343.766	1384.1308	1408.3562	1515.5838	1524.5039	1882.7873	3008.476	3049.1092	3057.0584	3074.108	3095.3743	3128.1947	3554.303
O=C1OCC2CNC12	O=C1OC[C@H]2CN[C@@H]12	
InChI=1S/C5H7NO2/c7-5-4-3(1-6-4)2-8-5/h3-4,6H,1-2H2	InChI=1S/C5H7NO2/c7-5-4-3(1-6-4)2-8-5/h3-4,6H,1-2H2/t3-,4-/m1/s1
