19
gdb 99725	1.72968	1.54916	0.99769	2.1396	73.79	-0.2304	-0.0247	0.2058	1266.1349	0.15728	-456.393471	-456.383058	-456.382114	-456.429781	36.758	
C	-0.7854163113	-1.535301525	-0.365680114	-0.324172
N	-0.3225441005	-0.3423312087	 0.3321062596	-0.301932
C	 0.7313707355	-0.5667170466	 1.3021709589	-0.175324
C	 1.8361887626	 0.5042882809	 1.1465090138	 0.375619
C	 3.0843110412	 0.3407281975	 1.9756262375	-0.483821
O	 1.6875497096	 1.4020475362	 0.3477797298	-0.308015
C	 0.2131092647	-0.578295901	 2.7702034203	 0.384046
N	-1.0403761282	-0.0939530938	 2.8883264572	-0.499572
O	 0.8991815072	-0.9791977689	 3.6936348462	-0.373033
H	-1.271928581	-2.2172711171	 0.3403231577	 0.127406
H	-1.5278673975	-1.2498501933	-1.1160916307	 0.125646
H	 0.0185117097	-2.0952396494	-0.8726071211	 0.106681
H	-0.0059631942	 0.3790818626	-0.3097451935	 0.242059
H	 1.2276577233	-1.5423251669	 1.1784670899	 0.106073
H	 3.6937362425	-0.4558409565	 1.5302105692	 0.144515
H	 3.6583188298	 1.2682276526	 1.965118836	 0.138215
H	 2.8396692761	 0.0202478531	 2.9903349312	 0.183651
H	-1.520342188	 0.177561166	 2.0424047469	 0.269762
H	-1.4781983413	-0.0642210317	 3.793005465	 0.262196
39.4172	72.8426	84.9631	142.0403	183.0895	206.6128	231.2713	338.0603	351.5667	370.4058	392.9356	493.9858	514.8697	570.6705	605.3202	667.3532	735.1613	818.4252	853.3535	914.3849	956.0558	1036.0316	1060.663	1097.1005	1149.7787	1166.7908	1182.6846	1211.6012	1251.7509	1332.4246	1352.0759	1391.4835	1460.0369	1466.2133	1470.8634	1476.1469	1495.8715	1515.5256	1562.0296	1791.9393	1803.0363	2964.1599	2986.4041	3038.2774	3061.3071	3108.798	3112.4281	3163.7635	3503.9497	3559.1701	3723.0527
CNC(C(C)=O)C(N)=O	CN[C@@H](C(=O)C)C(=O)N	
InChI=1S/C5H10N2O2/c1-3(8)4(7-2)5(6)9/h4,7H,1-2H3,(H2,6,9)	InChI=1S/C5H10N2O2/c1-3(8)4(7-2)5(6)9/h4,7H,1-2H3,(H2,6,9)/t4-/m0/s1
