16
gdb 27405	2.53611	1.64087	1.06307	1.0833	85.13	-0.2401	-0.0785	0.1616	1110.2828	0.125308	-396.941868	-396.933973	-396.933029	-396.974395	29.492	
C	 0.0487366893	 1.4819212655	 0.1521945296	-0.449984
C	-0.0445696234	-0.0076482422	-0.0533708809	 0.306554
C	-1.254056001	-0.6200229645	-0.1568661609	-0.148403
C	-1.5022808043	-2.0526538524	-0.2745005021	 0.226432
N	-2.5683231789	-2.5027216655	-0.826834569	-0.493836
C	-0.5498082427	-2.9119297545	 0.4842410809	-0.037223
N	 0.7264280613	-2.8432915068	 0.52092124	-0.204076
C	 1.459976938	-1.8447381253	-0.0853633514	 0.073885
N	 1.1906323376	-0.5983240455	-0.2510470873	-0.28217
H	 0.5886985084	 1.9430358241	-0.6806766761	 0.146004
H	-0.9355094685	 1.9444153892	 0.2456616626	 0.125374
H	 0.6254156709	 1.6975432469	 1.0587040019	 0.139945
H	-2.1500065218	-0.0060059244	-0.1536179469	 0.116962
H	-2.6293986061	-3.5193203245	-0.7188776575	 0.217138
H	-1.0173846632	-3.7085398152	 1.0723106407	 0.134468
H	 2.4642442943	-2.1667188147	-0.3600712234	 0.128929
91.7427	138.0152	176.0702	271.1031	296.6954	359.844	424.3225	435.2707	471.8974	573.3525	637.725	675.0138	803.6119	850.7549	865.53	898.9146	932.7233	972.9566	997.8634	1041.8366	1065.6572	1088.017	1142.8899	1191.1638	1337.8681	1389.9503	1396.9027	1411.5167	1449.2586	1471.9523	1482.7205	1576.9713	1629.7835	1671.4538	1696.5368	3039.758	3078.1765	3097.5679	3136.0698	3137.1587	3175.0792	3422.1186
CC1=CC(=N)C=NC=N1	CC1=C[C]([NH])C=NC=N1	
InChI=1S/C6H7N3/c1-5-2-6(7)3-8-4-9-5/h2-4,7H,1H3	InChI=1S/C6H7N3/c1-5-2-6(7)3-8-4-9-5/h2-4,7H,1H3
