20
gdb 79709	2.6887	1.72379	1.33885	1.9682	78.31	-0.2165	0.0874	0.3039	1019.9832	0.172764	-403.07798	-403.070436	-403.069492	-403.109469	31.349	
C	-0.0625458599	 1.5267949117	-0.0529626639	-0.342601
N	 0.0055971241	 0.0690937464	-0.04999355	-0.099664
C	 0.7273985721	-0.7840858743	-1.0320340957	-0.087161
C	 2.2383718983	-0.6685596727	-0.7447802093	-0.043336
C	 2.7751756093	 0.5019989822	 0.0376971193	-0.318845
C	 2.1898737447	-0.6679045694	 0.7855619421	-0.043318
C	 0.6637383556	-0.7831247774	 0.9766185353	-0.08716
C	 0.3481470432	-1.9514523914	-0.0381650762	 0.211135
O	-0.9649662213	-2.4062334791	-0.0795729694	-0.45711
H	 0.4443570784	 1.9584776346	-0.9229443656	 0.127655
H	-1.1101338082	 1.8524128011	-0.0870173078	 0.110606
H	 0.3870581454	 1.9592404922	 0.8476000286	 0.12766
H	 0.3804003782	-0.7693967759	-2.0663949279	 0.070542
H	 2.9193969305	-1.2974454939	-1.30670895	 0.089693
H	 3.8593081659	 0.5574510659	 0.072006641	 0.111147
H	 2.3035904854	 1.4722936076	 0.0224079528	 0.111218
H	 2.8338667714	-1.296337279	 1.3900475744	 0.089691
H	 0.2518994739	-0.7674449864	 1.9869003498	 0.070542
H	 1.0114414328	-2.8177900338	-0.0167219223	 0.081664
H	-1.4997299198	-1.5988212282	-0.0968980052	 0.277642
144.3968	205.1171	262.76	291.7413	312.012	394.7294	446.0844	506.7656	581.442	652.432	683.106	691.3046	758.9763	800.1201	847.9679	883.7829	883.9298	906.5374	935.0876	1007.6151	1023.6197	1053.2171	1065.7141	1082.8891	1097.9098	1107.6424	1115.7474	1141.4559	1185.7322	1186.7888	1219.5442	1226.2394	1234.8757	1256.1061	1293.8742	1309.1312	1312.4297	1363.8396	1435.0417	1455.0752	1484.7699	1510.1417	1521.2885	3006.0757	3055.8648	3090.0377	3104.2924	3104.7043	3111.9833	3144.7632	3171.907	3181.3882	3254.9429	3729.698
CN1C2C3CC3C1C2O	CN1[C@H]2[C@H]3C[C@H]3[C@@H]1[C@H]2O	
InChI=1S/C7H11NO/c1-8-5-3-2-4(3)6(8)7(5)9/h3-7,9H,2H2,1H3	InChI=1S/C7H11NO/c1-8-5-3-2-4(3)6(8)7(5)9/h3-7,9H,2H2,1H3/t3-,4+,5-,6+,7-
