19
gdb 75354	2.87867	1.7382	1.33268	1.5686	80.32	-0.2141	0.0268	0.2409	1013.3805	0.160903	-385.868388	-385.86115	-385.860206	-385.89971	29.601	
C	-0.0445837297	 1.5067846543	 0.0631947774	-0.488442
C	-0.0008040352	 0.0068074825	-0.0428746473	 0.363714
C	-0.0759531158	-0.6392861517	-1.2108899586	-0.170368
C	 0.0192619985	-2.1394679706	-1.3427207	-0.271174
C	 0.499279023	-2.7782868217	-0.0503820742	 0.092038
O	 1.8189255578	-2.2567113275	 0.3219101695	-0.296274
C	 1.2736388155	-1.7252541925	 1.519176879	 0.092418
C	-0.1065861872	-2.2440108609	 1.2574521032	-0.178467
C	 0.1324506024	-0.7496300032	 1.2337045632	-0.168792
H	 0.8715341132	 1.8959585172	 0.5257925911	 0.126602
H	-0.154006879	 1.975691994	-0.9183488749	 0.119509
H	-0.8787118581	 1.8396504054	 0.6945306603	 0.118915
H	-0.1893954222	-0.0710833074	-2.1309271543	 0.076931
H	-0.9436107233	-2.5800296279	-1.6447767245	 0.103897
H	 0.7297877917	-2.3989721056	-2.1386302008	 0.116249
H	 0.5352340652	-3.8705669167	-0.1069632732	 0.081305
H	 1.9003033692	-1.6967536971	 2.4033451671	 0.10311
H	-0.8285521533	-2.7450545463	 1.8874933507	 0.094973
H	-0.2041453827	-0.2352095041	 2.1306286362	 0.083856
139.8684	180.6956	276.2622	315.4666	334.6405	387.4468	499.2095	547.1462	630.6224	700.2581	743.5598	779.6199	814.2092	832.0636	866.189	904.1741	933.8305	963.5473	995.7512	1013.8433	1024.4529	1038.1702	1054.1002	1069.4592	1075.0981	1097.1	1146.9521	1175.0031	1194.2124	1250.1104	1284.9132	1294.6592	1345.46	1374.5605	1385.9964	1413.9967	1433.0143	1463.0814	1478.7169	1492.7122	1730.5862	2992.3554	3013.9523	3035.5752	3059.9163	3059.9542	3109.8895	3142.0674	3153.9215	3176.9901	3202.9282
CC1=CCC2OC3C2C13	CC1=CC[C@H]2O[C@@H]3[C@H]2[C@H]13	
InChI=1S/C8H10O/c1-4-2-3-5-7-6(4)8(7)9-5/h2,5-8H,3H2,1H3	InChI=1S/C8H10O/c1-4-2-3-5-7-6(4)8(7)9-5/h2,5-8H,3H2,1H3/t5-,6+,7-,8+/m1/s1
