17
gdb 39193	2.59999	2.47302	1.64868	1.9677	71.03	-0.2298	0.0076	0.2373	837.533	0.140421	-417.996731	-417.990646	-417.989701	-418.02705	25.006	
C	-0.0589430219	 1.4910166242	 0.0542938375	-0.205827
C	 1.4901100032	 1.5173510243	 0.0250921999	 0.10413
O	 2.0542944976	 1.6317725173	 1.3213231345	-0.270685
C	 2.8039768695	 0.4534720337	 1.6246416212	-0.08676
C	 2.0763662708	-0.7052578168	 0.918390211	-0.020813
N	 0.9347328437	-1.1785091825	 1.7280747267	-0.225041
C	-0.1225398153	-0.6937306177	 1.2068969726	 0.034208
N	-0.0340353081	-0.0184196247	-0.0278362483	-0.120959
C	 1.4421149588	 0.0061337934	-0.2955256496	-0.048273
H	-0.5174862419	 1.8966027533	 0.9587027668	 0.125971
H	-0.5270660001	 1.9214022502	-0.8347143043	 0.115555
H	 1.9676420065	 2.2051716942	-0.681133756	 0.080801
H	 3.8361908893	 0.5436882688	 1.2542308558	 0.093584
H	 2.820877879	 0.337048556	 2.7104288746	 0.12758
H	 2.747506768	-1.5316699202	 0.6762147047	 0.086924
H	-1.1043139331	-0.8006785166	 1.6619110467	 0.125276
H	 1.7235366839	-0.3394429169	-1.2897532137	 0.084329
157.7304	224.7046	357.7266	383.4948	518.3244	598.788	653.8059	759.9921	797.139	824.0008	844.1829	858.0558	898.7987	934.394	951.4841	963.9927	978.1197	1010.6764	1033.8783	1056.1357	1085.5976	1094.3487	1134.1494	1213.8009	1222.0489	1229.1949	1254.4348	1264.1923	1283.9848	1305.497	1306.8328	1333.525	1340.4791	1385.7661	1487.3428	1504.6588	1668.0005	2992.5652	3044.6518	3062.5317	3091.2179	3111.1512	3116.6085	3126.1326	3173.7685
C1C2OCC3N=CN1C23	C1[C@H]2OC[C@H]3N=CN1[C@@H]23	
InChI=1S/C6H8N2O/c1-5-6-4(2-9-5)7-3-8(1)6/h3-6H,1-2H2	InChI=1S/C6H8N2O/c1-5-6-4(2-9-5)7-3-8(1)6/h3-6H,1-2H2/t4-,5-,6-/m1/s1
