19
gdb 91691	3.34231	1.25159	1.14545	1.4303	76.41	-0.2459	-0.0303	0.2156	1134.5992	0.159335	-423.014018	-423.006003	-423.005059	-423.046664	30.882	
C	 0.1185774821	 1.6611136651	-0.2277798913	-0.415638
C	 0.0786433858	 0.2065193907	 0.207798072	 0.142053
O	 0.6686105843	-0.661297688	-0.8071753516	-0.291874
C	 1.6132519505	-1.4135687071	-0.0471746199	 0.093641
C	 0.8595993472	-1.7688514084	 1.250216941	-0.253476
C	 0.9255950714	-0.2180439546	 1.4220775067	-0.077974
C	 2.3494911875	-0.2839640305	 0.7788329333	-0.088534
C	 3.4990695168	-0.7108516725	 1.6414387859	 0.110927
O	 3.4280339539	-1.1354042177	 2.7699659447	-0.249329
H	 1.140623232	 2.0355204031	-0.3287349777	 0.120401
H	-0.3783551456	 1.7735530058	-1.1957604157	 0.132161
H	-0.4092439417	 2.2862047243	 0.5002479455	 0.117642
H	-0.9672100405	-0.0955873912	 0.3539063786	 0.079713
H	 2.1309847444	-2.1249539334	-0.6888037473	 0.08934
H	-0.1244722973	-2.2275217107	 1.1277049371	 0.100986
H	 1.4600049437	-2.2965749044	 1.9874807339	 0.137643
H	 0.7474215177	 0.2750902404	 2.3759413732	 0.085998
H	 2.6724660633	 0.5529025398	 0.1530640176	 0.08631
H	 4.4897549046	-0.6043030206	 1.142471784	 0.080011
77.4583	185.4982	188.056	208.7661	268.8204	302.8388	400.115	496.3164	508.5448	642.4792	694.7622	804.4141	812.2907	841.1312	860.3974	901.2593	909.4935	971.8452	997.798	1008.9076	1036.5513	1057.0939	1066.0415	1097.8287	1117.2886	1128.2078	1154.3215	1195.7784	1224.4797	1243.4615	1260.3271	1290.4231	1332.8865	1368.1034	1396.0802	1412.6913	1431.9403	1487.1841	1495.4162	1498.5387	1809.8815	2866.3728	3009.5332	3040.9555	3073.935	3078.8708	3110.9922	3121.7195	3136.538	3140.5335	3174.9036
CC1OC2CC1C2C=O	C[C@H]1O[C@@H]2C[C@H]1[C@H]2C=O	
InChI=1S/C7H10O2/c1-4-5-2-7(9-4)6(5)3-8/h3-7H,2H2,1H3	InChI=1S/C7H10O2/c1-4-5-2-7(9-4)6(5)3-8/h3-7H,2H2,1H3/t4-,5-,6-,7-/m1/s1
