19
gdb 95320	2.66052	1.75051	1.52104	2.4669	68.87	-0.245	0.0724	0.3174	951.4726	0.16259	-460.178659	-460.171474	-460.17053	-460.209962	29.32	
O	 0.0433731699	 1.4157757122	-0.1572396694	-0.445377
C	 0.0942992516	 0.0053202755	-0.0076343918	 0.119844
C	 0.8411207485	-0.4385578703	 1.265890167	-0.238711
C	-0.0320085629	-0.2673165004	 2.5280979954	-0.229073
C	-1.4694246354	-0.7217704401	 2.2499849452	 0.063417
C	-1.5618552563	-2.140762506	 1.6640273009	-0.09456
O	-1.3691868059	-1.9387956526	 0.2600118565	-0.272127
C	-1.3447946363	-0.538408957	 0.0395528075	 0.161017
O	-1.9936972378	 0.0524037862	 1.1541552572	-0.272319
H	-0.643462509	 1.7262335998	 0.4460908678	 0.284776
H	 0.6077979067	-0.3798160704	-0.8941259659	 0.088478
H	 1.1243080929	-1.4901890391	 1.1507067701	 0.111153
H	 1.7662133495	 0.1379821312	 1.3521857578	 0.108447
H	 0.3896446692	-0.8270713619	 3.3704154939	 0.101593
H	-0.0647832447	 0.7855043269	 2.8305897524	 0.108539
H	-2.1262931533	-0.5687792524	 3.10856942	 0.089647
H	-0.7919114125	-2.8159587062	 2.0516422456	 0.110117
H	-2.5483787679	-2.5860923127	 1.8377893973	 0.109918
H	-1.9100357463	-0.2903884827	-0.8632885374	 0.095221
150.4949	186.2815	254.3235	343.5111	379.4087	438.4696	458.103	485.3934	528.5001	699.7555	756.8047	790.3221	808.4311	833.6304	889.7216	932.7081	943.0305	961.4979	1013.4092	1028.7774	1033.0868	1053.6052	1096.8821	1106.6978	1159.0389	1189.5345	1203.0078	1224.365	1266.3557	1306.6756	1325.0547	1331.0821	1347.995	1366.2857	1373.8935	1383.8021	1401.1448	1432.9376	1478.2449	1488.5045	1522.8653	3030.0925	3037.4626	3048.1933	3067.279	3074.6228	3078.8715	3082.8798	3098.6156	3100.2905	3777.012
OC1CCC2COC1O2	O[C@H]1CC[C@@H]2CO[C@H]1O2	
InChI=1S/C6H10O3/c7-5-2-1-4-3-8-6(5)9-4/h4-7H,1-3H2	InChI=1S/C6H10O3/c7-5-2-1-4-3-8-6(5)9-4/h4-7H,1-3H2/t4-,5+,6+/m1/s1
