16
gdb 115031	2.46124	1.39506	1.07196	5.6283	69.26	-0.2634	-0.0013	0.2621	1132.4662	0.126164	-434.081107	-434.072797	-434.071853	-434.114668	29.92	
N	 0.1217941391	 0.7768297076	 0.8731345789	-0.508863
H	 0.0326715463	-0.2162009118	 0.6849241933	 0.24077
H	-1.136219295	 1.686102339	 2.8443676724	 0.155693
H	 1.0061581364	 1.0763965088	 0.479302759	 0.241164
C	-0.985834621	 1.4987838635	 0.2560951048	-0.185418
C	-2.2767429069	 1.2538754148	 1.0266725433	 0.093754
O	-2.6139223898	-0.1601258451	 0.9735075738	-0.236752
C	-2.8226951572	-0.5426570865	 2.2535018004	 0.125752
N	-2.6498225548	 0.2753888036	 3.2055865999	-0.260227
C	-2.1835159655	 1.5232405127	 2.563948384	-0.140495
C	-2.9722905718	 2.682998339	 2.9819785395	 0.293576
N	-3.5815435453	 3.6199590245	 3.2744429154	-0.324799
H	-0.7751003337	 2.5738747156	 0.2997841627	 0.126803
H	-1.1648420398	 1.2492036694	-0.8016930696	 0.10752
H	-3.1029520193	 1.8029069266	 0.5660760089	 0.117251
H	-3.1336157415	-1.5749502617	 2.3698022734	 0.154269
57.6488	125.1019	165.3184	169.0064	261.6049	289.1386	338.7517	460.8281	524.4809	559.9836	621.447	694.4839	831.3712	858.9442	893.6055	912.7953	960.6827	980.9756	1002.1185	1049.1065	1066.5405	1130.3512	1138.4085	1191.1036	1240.5238	1306.8088	1320.1016	1331.5588	1363.1804	1394.8204	1424.2346	1494.4061	1655.2419	1703.6058	2364.3836	2979.62	3047.098	3063.8521	3075.0205	3219.3886	3515.7286	3596.2199
[NH3+]CC1OC=N[C-]1C#N	NC[C@H]1OC=N[C@@H]1C#N	
InChI=1S/C5H6N3O/c6-1-4-5(2-7)9-3-8-4/h3,5H,2,7H2/q-1/p+1	InChI=1S/C5H7N3O/c6-1-4-5(2-7)9-3-8-4/h3-5H,2,7H2/t4-,5-/m1/s1
