19
gdb 61482	2.40631	0.9732	0.89881	1.2153	84.34	-0.258	0.0245	0.2825	1436.044	0.154032	-385.811934	-385.80124	-385.800296	-385.848265	38.651	
C	-1.4315811318	 0.5315613079	 0.7546628195	-0.395509
C	-0.0576117908	 0.2119027603	 0.1630042779	-0.019172
O	 0.7352431101	-0.2810633608	 1.237851057	-0.262353
C	 2.1087355396	-0.5364359238	 0.9280983644	-0.037689
C	 2.94335739	 0.7536025216	 0.9366127943	-0.397006
C	 2.609164694	-1.4948385013	 1.9126773692	 0.325377
C	 3.0571023981	-2.2674931417	 2.7157329401	-0.453706
C	-0.1522092362	-0.7494792668	-0.9450377468	 0.345457
C	-0.235457983	-1.5337534399	-1.8525541734	-0.49274
H	-1.3187848469	 1.2593609209	 1.5617948103	 0.127101
H	-2.0898171612	 0.9436529832	-0.0139527284	 0.126197
H	-1.8831727083	-0.3772876262	 1.158727929	 0.140187
H	 0.3795907258	 1.1425815467	-0.2322278518	 0.096703
H	 2.1694111375	-1.0017551196	-0.0669766125	 0.113164
H	 2.8760242229	 1.2347419908	 1.9153056908	 0.135312
H	 3.9918728004	 0.5240737942	 0.7283956171	 0.129859
H	 2.5899027316	 1.4513147567	 0.1720823905	 0.118133
H	 3.4410177937	-2.9592611078	 3.4240844354	 0.197647
H	-0.3094676253	-2.2282411544	-2.6529284025	 0.203039
28.2779	81.2356	127.3286	173.4309	204.9723	208.0981	225.0232	256.2691	294.4417	358.8332	416.1194	507.9096	543.5077	556.3562	617.4565	622.5544	632.4348	667.7997	679.0436	811.8046	834.4746	889.8663	977.063	1042.4103	1075.9743	1100.7317	1117.7996	1135.9483	1158.9482	1331.1574	1346.9288	1356.8177	1387.351	1400.2549	1403.4808	1480.8066	1489.1618	1490.5301	1494.4577	2228.9013	2243.8514	2975.8134	2999.4549	3047.4564	3054.3113	3120.2609	3134.3087	3135.4785	3139.544	3501.4543	3504.3293
CC(OC(C)C#C)C#C	C[C@@H](O[C@@H](C)C#C)C#C	
InChI=1S/C8H10O/c1-5-7(3)9-8(4)6-2/h1-2,7-8H,3-4H3	InChI=1S/C8H10O/c1-5-7(3)9-8(4)6-2/h1-2,7-8H,3-4H3/t7-,8+
