21
gdb 96085	2.75179	1.50093	1.14323	1.8235	78.63	-0.2449	0.0834	0.3283	1148.8706	0.182514	-424.224829	-424.216188	-424.215244	-424.257578	33.951	
C	-0.0193697957	 1.541076831	-0.0806629892	-0.398679
C	 0.0407243337	 0.0244098832	 0.0191585928	 0.10511
O	 0.6440073311	-0.4632475494	-1.1816914662	-0.246448
C	 0.864209673	-1.8439835455	-1.1111499287	 0.002247
O	 1.9016230867	-2.176359364	-0.2248999174	-0.285026
C	 1.703241334	-1.6833790535	 1.0841745086	 0.411003
C	 1.7511272047	-2.7829486073	 2.1142558844	-0.448302
C	 2.2980405315	-0.3245675308	 1.3559981555	-0.334761
C	 0.7947260482	-0.4845953316	 1.2378157922	-0.106584
H	 0.9884819383	 1.9626266826	-0.1237056678	 0.127267
H	-0.5603390739	 1.8394004224	-0.9829677146	 0.123686
H	-0.5340650926	 1.9589535263	 0.789881939	 0.114487
H	-0.9874429983	-0.3756826128	 0.0708141136	 0.066805
H	-0.0716104517	-2.3562369649	-0.8199855269	 0.074084
H	 1.1841920629	-2.1771528585	-2.1005277818	 0.113879
H	 2.7020502726	-3.3217812739	 2.0477684804	 0.128737
H	 1.6569359782	-2.3757328814	 3.1253253792	 0.113054
H	 0.942347554	-3.5044502401	 1.9563081241	 0.118426
H	 2.7174248981	-0.1175954741	 2.3346892299	 0.106671
H	 2.818511168	 0.1330563659	 0.5221078385	 0.127126
H	 0.2262742272	-0.4298170436	 2.1623147145	 0.087215
114.4203	154.3236	225.0208	228.5003	250.2025	318.8845	342.9779	361.022	414.4337	467.4335	535.1842	603.0465	683.9696	740.9095	765.7308	856.693	879.9193	916.492	942.244	989.7567	1014.6051	1043.0495	1059.8629	1072.1764	1107.2342	1124.8542	1131.1149	1144.5538	1157.894	1223.2159	1262.8853	1286.7967	1310.7313	1369.8879	1374.0829	1402.9432	1407.7049	1422.3554	1444.7209	1476.4536	1479.9098	1484.8977	1496.5489	1500.4551	1511.4132	2927.8116	2943.2464	3032.2364	3044.2718	3098.6818	3110.5363	3111.4564	3118.4643	3125.0305	3132.6506	3142.8108	3225.8944
CC1OCOC2(C)CC12	C[C@H]1OCO[C@@]2(C)C[C@@H]12	
InChI=1S/C7H12O2/c1-5-6-3-7(6,2)9-4-8-5/h5-6H,3-4H2,1-2H3	InChI=1S/C7H12O2/c1-5-6-3-7(6,2)9-4-8-5/h5-6H,3-4H2,1-2H3/t5-,6+,7+/m1/s1
