19
gdb 120674	4.86866	0.73018	0.68758	2.2435	72.5	-0.2534	0.0687	0.322	1634.6468	0.157321	-460.108209	-460.09883	-460.097886	-460.143509	33.222	
O	-0.0452570849	 1.422275912	 0.2548696031	-0.420538
C	-0.0727358803	 0.0086703615	 0.3652384028	-0.065524
C	-1.2742611472	-0.4909752843	-0.4319167986	-0.214107
C	-1.3801596195	-1.9938449738	-0.4219806914	-0.046716
O	-1.8141541915	-2.6060439721	 0.8161277853	-0.280376
C	-2.6562376296	-2.69697928	-0.3101977267	 0.355289
C	-4.1002299414	-2.2074804039	-0.3752190466	-0.152527
O	-4.4872342794	-3.4279731116	-1.0465373172	-0.275581
C	-3.1648042206	-3.998241308	-0.922707699	-0.155397
H	 0.6719835301	 1.7534638055	 0.8029317198	 0.28805
H	 0.851407465	-0.4426235143	-0.032868164	 0.085061
H	-0.1731103246	-0.3158202518	 1.4115537719	 0.107159
H	-2.184352962	-0.0467292075	-0.0160210567	 0.113958
H	-1.1832318103	-0.1402951484	-1.4674210866	 0.114848
H	-0.5538329677	-2.5287348653	-0.8957604141	 0.094962
H	-4.5815162053	-2.0965065689	 0.6047387713	 0.115106
H	-4.2989746101	-1.3177522542	-0.9848345766	 0.111783
H	-2.7456795789	-4.2902821069	-1.8930623112	 0.109553
H	-3.1395711316	-4.855314008	-0.2374732954	 0.114997
54.2014	85.9611	94.3169	123.1316	207.1253	258.5152	268.1424	332.3647	387.461	464.5825	526.5966	599.2342	785.1788	838.1207	847.7637	906.8649	941.5203	988.7521	1005.468	1022.3705	1051.5958	1071.2202	1097.2567	1129.3094	1136.3897	1143.7434	1168.986	1192.7142	1227.9012	1246.4051	1298.8432	1311.3122	1322.844	1335.2958	1384.6478	1460.118	1476.1362	1499.4596	1522.8636	1528.1015	1537.6818	2962.736	3008.576	3009.9291	3021.1856	3038.87	3062.4829	3063.217	3079.7732	3096.4301	3832.1914
OCCC1OC11COC1	OCC[C@H]1OC21COC2	
InChI=1S/C6H10O3/c7-2-1-5-6(9-5)3-8-4-6/h5,7H,1-4H2	InChI=1S/C6H10O3/c7-2-1-5-6(9-5)3-8-4-6/h5,7H,1-4H2/t5-/m1/s1
