21
gdb 68889	2.33892	1.81982	1.24997	0.9431	84.18	-0.2145	0.0175	0.232	1088.9579	0.181975	-387.087255	-387.078483	-387.077539	-387.119885	34.768	
C	-0.0757795712	 1.463759727	-0.093596913	-0.446893
C	 0.0830628477	-0.0350412484	-0.0108061635	 0.397375
C	 1.4366561484	-0.6673075021	-0.1903371646	-0.395848
C	 0.7407711091	-0.709974434	 1.1825784032	 0.225273
C	 1.3205646611	 0.0770218143	 2.3415865589	-0.480055
C	 0.1269186923	-2.0144011998	 1.549215726	-0.080047
C	-0.7519601356	-2.6365703586	 0.7653086386	-0.115781
C	-1.1917238166	-2.0266580303	-0.5354327454	-0.137676
O	-1.0792746104	-0.6116060806	-0.5512500015	-0.302056
H	 0.8027159711	 1.9863293448	 0.2883644708	 0.114592
H	-0.2243523337	 1.7601369863	-1.1366998288	 0.126198
H	-0.9519805631	 1.787113542	 0.4769550882	 0.125235
H	 1.5267596422	-1.6060050926	-0.7251718067	 0.116901
H	 2.2888787196	-0.0040345742	-0.3055587532	 0.1076
H	 1.8262523033	 0.9876745769	 2.0123014075	 0.115348
H	 0.5436883759	 0.3654784661	 3.0586808541	 0.121738
H	 2.0593201006	-0.5292091574	 2.8799901235	 0.116527
H	 0.4260995615	-2.4497970673	 2.4999072119	 0.084829
H	-1.1749038775	-3.5982148543	 1.0389356175	 0.09233
H	-0.6356585278	-2.4651107369	-1.3830764702	 0.099566
H	-2.2515711568	-2.2335916711	-0.7210325034	 0.114844
147.7776	169.0559	182.0538	186.6486	283.8706	297.6583	352.4598	397.158	427.6256	452.8769	518.6094	561.4716	648.7504	681.9564	742.3295	814.355	867.2261	900.1721	922.2967	935.7947	946.2064	982.9336	997.6471	1036.2926	1048.8704	1100.8741	1104.8853	1114.746	1185.5552	1210.9151	1236.3706	1264.3193	1275.916	1372.5082	1407.5985	1411.9175	1416.7486	1427.9421	1474.9245	1476.5866	1494.4586	1496.204	1501.6992	1511.3509	1716.2885	2940.0075	3024.693	3044.386	3057.181	3080.3362	3106.0943	3116.7012	3123.6419	3138.9271	3146.6638	3180.5184	3214.6879
CC12CC1(C)C=CCO2	C[C@@]12C[C@]1(C)C=CCO2	
InChI=1S/C8H12O/c1-7-4-3-5-9-8(7,2)6-7/h3-4H,5-6H2,1-2H3	InChI=1S/C8H12O/c1-7-4-3-5-9-8(7,2)6-7/h3-4H,5-6H2,1-2H3/t7-,8+/m0/s1
