21
gdb 68490	2.65978	1.6242	1.25165	1.9429	77.38	-0.2404	0.0757	0.3161	1064.4374	0.184492	-424.218531	-424.21072	-424.209776	-424.250074	32.653	
O	-0.0514386186	 1.4523457285	-0.0449353514	-0.479417
C	-0.0155353675	 0.0409093162	 0.020582706	 0.418785
C	 0.249037792	-0.5873205475	 1.4244710214	-0.318282
C	-0.8960264929	-1.5958020711	 1.1330256176	 0.124541
C	-1.4280810149	-0.5910654993	 0.0676638722	-0.280194
O	-0.51537124	-2.8637372286	 0.6312426597	-0.265071
C	 0.6676124042	-2.9523621229	-0.1464217327	-0.065253
C	 0.7090576423	-2.0380453959	-1.3754262627	-0.225109
C	 0.8872293051	-0.5368308118	-1.080269089	-0.271717
H	 0.8547442069	 1.7749925854	-0.1026500772	 0.272393
H	 1.2447291965	-0.9708842254	 1.6602679371	 0.094017
H	-0.057528831	 0.1161913091	 2.2021129132	 0.106861
H	-1.5731456117	-1.8145143221	 1.9606946251	 0.083266
H	-2.1327584127	 0.1154646311	 0.5135100533	 0.108597
H	-1.8554703569	-1.0022268259	-0.8490923386	 0.099232
H	 1.5597037208	-2.782297303	 0.4768608282	 0.087791
H	 0.7012525855	-3.9972121964	-0.470428546	 0.106548
H	 1.5378425167	-2.369018758	-2.0126272174	 0.097735
H	-0.207764513	-2.2005346643	-1.9528371493	 0.112422
H	 0.6942259271	 0.0308896083	-1.9976744713	 0.106081
H	 1.9337071222	-0.3420163365	-0.8010199183	 0.086775
205.7152	225.1567	261.7769	294.1215	336.7321	359.6913	413.6328	419.8497	445.8167	497.8783	546.1924	646.6369	774.7977	810.0448	831.4864	864.6768	878.9385	921.9342	943.4434	953.1806	982.9547	987.1089	1061.4172	1067.6874	1089.9951	1128.3073	1159.5424	1188.0255	1205.1642	1215.279	1246.0424	1261.0551	1269.9609	1291.3665	1312.008	1363.1802	1376.3516	1391.7153	1401.0411	1419.1619	1458.2005	1480.7653	1484.6176	1498.6514	1513.778	2982.6227	2995.0108	3034.6288	3060.2528	3062.8461	3067.9949	3075.2719	3080.7088	3091.1022	3121.0245	3127.6863	3798.4792
OC12CC(C1)OCCC2	O[C@@]12C[C@@H](C1)OCCC2	
InChI=1S/C7H12O2/c8-7-2-1-3-9-6(4-7)5-7/h6,8H,1-5H2	InChI=1S/C7H12O2/c8-7-2-1-3-9-6(4-7)5-7/h6,8H,1-5H2/t6-,7-
