20
gdb 81930	2.10215	1.80313	1.17541	2.9707	79.95	-0.2075	-0.0155	0.192	1118.7633	0.170292	-403.150885	-403.142029	-403.141085	-403.184644	33.557	
C	 0.4628819308	 1.6092691129	 0.0005375026	-0.386854
C	 0.1520245234	 0.1142189996	-0.0205884317	-0.064226
N	 0.6789212363	-0.6020987625	-1.1878368124	-0.082836
C	-0.2562509487	-0.7299593549	-2.2891372599	-0.335376
C	 1.2736957464	-1.8593090042	-0.7519508863	 0.018771
C	 2.6023732136	-1.7320033471	-0.0865910337	-0.305171
C	 1.3347650934	-1.8941656793	 0.7596137035	-0.17374
C	 0.6811655858	-0.63257098	 1.2195901075	 0.393405
O	 0.5083896494	-0.2725298585	 2.35753143	-0.336361
H	 1.5396405602	 1.7797830789	-0.0863180822	 0.120824
H	-0.0310446395	 2.1277509326	-0.8264618644	 0.114097
H	 0.1117271913	 2.0405910546	 0.942012972	 0.137091
H	-0.9457355339	-0.0181925663	 0.0387309887	 0.094251
H	-0.5742769841	 0.2638294712	-2.618620553	 0.126006
H	 0.2323094901	-1.2169874969	-3.1386348265	 0.123155
H	-1.1650662844	-1.3080061107	-2.0342507853	 0.095786
H	 1.0274013605	-2.7395903365	-1.3356846821	 0.096641
H	 3.2693583945	-2.5868832861	-0.0760000193	 0.124245
H	 3.0920607576	-0.7649524178	-0.1212756794	 0.128224
H	 1.2307242175	-2.7808025889	 1.3719730019	 0.112067
40.9074	156.9777	206.7672	210.8977	218.9973	245.0524	314.9522	408.9752	452.0714	499.2623	535.3331	616.8018	682.2283	761.1094	776.225	815.1406	895.4809	937.8631	942.9401	993.5788	1042.328	1062.5824	1079.8007	1090.8485	1109.112	1111.0687	1154.3779	1170.8987	1198.0835	1199.2445	1256.8116	1315.0557	1330.8331	1344.2395	1391.5049	1402.6277	1465.5518	1477.8352	1489.8974	1492.6401	1498.9414	1504.6384	1833.4347	2914.7845	2924.3001	3042.9577	3064.2897	3105.7781	3114.0804	3127.1238	3133.0093	3168.2683	3194.7038	3226.3092
CC1N(C)C2CC2C1=O	C[C@H]1N(C)[C@H]2C[C@H]2C1=O	
InChI=1S/C7H11NO/c1-4-7(9)5-3-6(5)8(4)2/h4-6H,3H2,1-2H3	InChI=1S/C7H11NO/c1-4-7(9)5-3-6(5)8(4)2/h4-6H,3H2,1-2H3/t4-,5-,6+/m1/s1
