17
gdb 8691	2.63638	1.71346	1.36425	2.4946	64.58	-0.2842	0.0114	0.2955	980.1158	0.139365	-400.997061	-400.987581	-400.986637	-401.030921	33.346	
C	-0.0883836227	 1.3762878225	 0.0674082768	-0.258104
O	 0.0422667816	-0.034232364	-0.0163466677	-0.263825
C	 0.7326736487	-0.5427474012	-1.1391974314	 0.206533
C	 2.1945337621	-0.0829872548	-1.2323639864	-0.430344
C	 0.6532827111	-2.0845636718	-0.9758473656	-0.100444
O	 1.2243533569	-2.7770594768	-2.0601777469	-0.411968
C	 0.0154405701	-0.1928414822	-2.3951499571	 0.242882
N	-0.5512585024	 0.0400674964	-3.3757459801	-0.345177
H	 0.8793300789	 1.8734911229	 0.2087344451	 0.119053
H	-0.5774210625	 1.7900050254	-0.8244876796	 0.133738
H	-0.7156688778	 1.5716728919	 0.9391277448	 0.140148
H	 2.6714618395	-0.2394656681	-0.2604292565	 0.132556
H	 2.7106949692	-0.6859665036	-1.9822630838	 0.155095
H	 2.2822550394	 0.9696145183	-1.5085509859	 0.13295
H	 1.228755741	-2.3493316994	-0.0845390804	 0.127161
H	-0.3957160012	-2.3545030377	-0.8008453452	 0.118476
H	 0.6418795782	-2.6796468078	-2.82214401	 0.301269
96.5286	110.1225	158.4685	164.3598	197.251	228.4332	258.2482	311.2591	374.914	406.2938	421.2164	440.0564	585.8964	645.1668	689.1275	876.1415	934.0024	960.0932	1067.9478	1110.7723	1130.1556	1164.3432	1182.3786	1192.5744	1244.669	1268.5595	1372.8768	1398.5872	1410.7454	1475.5049	1485.4608	1488.3277	1497.2672	1504.6493	1509.2219	2342.6967	3007.2359	3029.4467	3052.3476	3068.1688	3103.0286	3130.6179	3133.0403	3144.2772	3801.6365
COC(C)(CO)C#N	CO[C@@](C)(CO)C#N	
InChI=1S/C5H9NO2/c1-5(3-6,4-7)8-2/h7H,4H2,1-2H3	InChI=1S/C5H9NO2/c1-5(3-6,4-7)8-2/h7H,4H2,1-2H3/t5-/m1/s1
