21
gdb 84282	2.93478	1.59242	1.46368	0.5362	87.74	-0.2203	0.	0.2202	1025.8359	0.185227	-349.923593	-349.916239	-349.915294	-349.95495	30.746	
C	 0.1698441248	 1.5675107008	 0.0006314007	-0.394937
C	 0.0008170299	 0.0415390672	-0.0105260176	-0.023477
C	 0.8097679077	-0.6061400266	-1.1281783973	-0.119192
C	 1.5131536147	-1.6563793185	-0.6822203999	 0.116446
C	 3.0151519214	-1.7412527605	-0.7845733648	-0.261116
C	 3.2971526314	-0.8355319216	 0.4789375139	-0.221843
C	 2.0840633842	-1.0590123379	 1.4274560662	-0.038629
C	 0.5746050716	-0.6903618674	 1.2103115853	-0.055362
C	 1.1327493516	-1.996061615	 0.7489241435	-0.133631
H	 1.2276244371	 1.8469060164	 0.0422833091	 0.118636
H	-0.2673434624	 2.0235750816	-0.8940483	 0.11124
H	-0.3263499037	 2.0022828589	 0.8746853689	 0.113294
H	-1.0775009973	-0.1767122374	-0.0643127628	 0.075027
H	 1.0478838863	-0.0577511231	-2.0356651054	 0.084383
H	 3.4195249398	-2.7477931786	-0.6360248983	 0.098606
H	 3.4291802223	-1.3236907512	-1.7050930345	 0.099378
H	 4.2173952711	-1.130074211	 0.9964358822	 0.095501
H	 3.4162473556	 0.2057172553	 0.1640909022	 0.104237
H	 2.3213698945	-1.1920586637	 2.4793265729	 0.080123
H	 0.0145275113	-0.6352342882	 2.1412747962	 0.072436
H	 0.8501884881	-2.9909031494	 1.0750340796	 0.07888
124.6316	209.1438	236.6942	286.9676	363.4895	416.0095	525.9104	600.8551	623.4987	649.07	732.9061	760.1309	814.3328	846.7158	852.7805	855.6524	885.1269	897.6165	948.9448	971.1609	994.6613	1031.102	1055.807	1060.9913	1083.1465	1090.4146	1121.4837	1123.8101	1145.8746	1173.6687	1199.0194	1256.4185	1270.7467	1289.0324	1303.8942	1314.8412	1327.9526	1356.3227	1388.1601	1406.5455	1478.9856	1494.8745	1496.3843	1497.4786	1659.6088	2970.5958	3029.0161	3034.4899	3048.7442	3079.8543	3097.8658	3102.4392	3113.0915	3130.8263	3145.1292	3164.2181	3166.135
CC1C=C2CCC3C1C23	C[C@H]1[CH][C]2CC[C@H]3[C@@H]1[C@@H]23	
InChI=1S/C9H12/c1-5-4-6-2-3-7-8(5)9(6)7/h4-5,7-9H,2-3H2,1H3	InChI=1S/C9H12/c1-5-4-6-2-3-7-8(5)9(6)7/h4-5,7-9H,2-3H2,1H3/t5-,7-,8+,9-/m0/s1
