17
gdb 105437	2.33173	1.48688	1.1973	4.3444	72.99	-0.2453	0.0035	0.2488	1091.8038	0.137968	-414.198684	-414.18998	-414.189035	-414.232305	31.761	
N	-0.0811402003	 1.5101171076	 0.0309571229	-0.508542
C	-0.0534830726	 0.0532702107	-0.0067963269	-0.204706
C	 0.8390713889	-0.4951295872	 1.1227944599	 0.137523
C	 1.1281080613	-2.0393993586	 0.9993545141	-0.217757
N	 2.5769769581	-2.2069313217	 1.1588972396	-0.232315
C	 3.0752919636	-1.0364598803	 1.1905975502	 0.069516
N	 2.2116564609	 0.0431164801	 1.0204735647	-0.335712
C	 0.2544082504	-0.1661873266	 2.4355598124	 0.277628
N	-0.1953576201	 0.0629319141	 3.4753900885	-0.339985
H	 0.750787705	 1.8828051383	-0.4143896995	 0.235402
H	-0.8786754129	 1.8684883365	-0.4810275541	 0.240407
H	-1.070529117	-0.3258350762	 0.1373423666	 0.125269
H	 0.3289352798	-0.3694665339	-0.9489595368	 0.099903
H	 0.5864416852	-2.6229975139	 1.7470402823	 0.138492
H	 0.8207174572	-2.3971538507	 0.009065761	 0.119578
H	 4.1383832229	-0.8390772197	 1.2939107852	 0.135371
H	 2.4073493795	 0.8995103815	 1.5208532298	 0.259928
78.4907	106.2623	152.8793	184.1472	217.5697	252.4983	380.9581	404.7605	486.1916	503.782	582.4441	619.6481	668.659	810.0993	843.4386	866.2771	886.1176	938.9679	978.3778	987.4512	1058.7066	1069.6355	1108.1443	1119.0567	1159.6391	1214.0481	1261.1393	1324.3665	1343.753	1348.3819	1409.4036	1413.1452	1487.0936	1493.8673	1655.7477	1704.9575	2350.8845	2978.3489	3035.8932	3079.5946	3101.1822	3188.9348	3515.1205	3593.7484	3597.1589
NCC1(CN=CN1)C#N	NC[C@]1(C[N][CH]N1)C#N	
InChI=1S/C5H8N4/c6-1-5(2-7)3-8-4-9-5/h4H,1,3,6H2,(H,8,9)	InChI=1S/C5H8N4/c6-1-5(2-7)3-8-4-9-5/h4H,1,3,6H2,(H,8,9)/t5-/m1/s1
