15
gdb 98014	4.74244	0.60266	0.59612	3.1568	76.16	-0.2735	-0.0667	0.2068	1883.4351	0.10878	-457.775401	-457.765217	-457.764273	-457.812705	33.021	
C	 0.3527149203	 1.3438440153	 0.0225460146	-0.244459
O	 0.5025149457	-0.0816406646	-0.0844642046	-0.215844
C	 0.0567469959	-0.6127578124	-1.2322232462	 0.265778
O	-0.4352487802	 0.0061948378	-2.1420260546	-0.347758
C	 0.2450797021	-2.0473287621	-1.2453744349	-0.088146
C	 0.3626147823	-3.2462346472	-1.3288846046	 0.23183
C	 0.4987431462	-4.6936343322	-1.4190384311	 0.241693
C	 1.75454064	-5.1848613548	-2.1029454612	-0.483135
O	-0.3541643578	-5.4247581358	-0.9680753337	-0.26196
H	 0.9075769745	 1.8475885131	-0.7724980327	 0.148502
H	-0.7010305203	 1.6234066704	-0.0478794081	 0.150469
H	 0.7562382836	 1.606055423	 0.9997037622	 0.143041
H	 2.6401852204	-4.8064690576	-1.5811342337	 0.153329
H	 1.760424611	-6.2756154723	-2.1103240326	 0.150675
H	 1.7976748064	-4.8009774905	-3.1279858889	 0.155986
30.0789	69.3338	74.3852	117.0582	124.5127	152.5774	231.6843	285.1454	313.9843	329.6868	509.4633	570.2517	613.9175	624.702	767.1993	771.9123	905.899	975.1183	1043.9637	1044.7997	1176.5772	1203.8519	1226.2389	1277.1857	1383.5138	1459.2631	1466.8855	1471.91	1481.5123	1494.6517	1776.1617	1795.3395	2319.1108	3040.2974	3056.869	3105.0673	3134.0123	3154.9819	3169.7683
COC(=O)C#CC(C)=O	COC(=O)C#CC(=O)C	
InChI=1S/C6H6O3/c1-5(7)3-4-6(8)9-2/h1-2H3	InChI=1S/C6H6O3/c1-5(7)3-4-6(8)9-2/h1-2H3
