20
gdb 67738	3.31566	1.53971	1.34729	1.463	83.61	-0.2213	0.0072	0.2285	1046.5648	0.170902	-365.978087	-365.970105	-365.969161	-366.009769	32.564	
C	-0.0364252582	 1.5094874775	 0.0454813416	-0.48612
C	-0.0461408397	 0.0129175604	-0.1107752354	 0.325218
C	 0.8633864623	-0.6794177347	-1.0638010646	-0.157862
C	 0.4355932716	-1.9294957831	-1.2753003619	-0.1417
C	-0.7390729849	-2.2163393627	-0.368121507	 0.249556
C	-1.6747570996	-3.3471090296	-0.7364017248	-0.500506
C	-0.1288597838	-2.1612017595	 1.0849791792	-0.171234
N	-0.3971024329	-0.7046232164	 1.2149728912	-0.197028
C	-1.2773386512	-0.7975903124	 0.0064751515	-0.132064
H	 0.9369893438	 1.8590047664	 0.4058600067	 0.123134
H	-0.2400855606	 2.0008072666	-0.9122240902	 0.1172
H	-0.7922946341	 1.8240635446	 0.7689642125	 0.130679
H	 1.761203947	-0.2223138548	-1.461709833	 0.097134
H	 0.9434545665	-2.7007231615	-1.8435130459	 0.097063
H	-1.1318356952	-4.2956579276	-0.8163579176	 0.118919
H	-2.4590203787	-3.4749792407	 0.0172237308	 0.117043
H	-2.1607064731	-3.1610832729	-1.7004205275	 0.12218
H	-0.7716645982	-2.6741029825	 1.8064949046	 0.108196
H	 0.9117026807	-2.4769195963	 1.2160618778	 0.095709
H	-2.3021615818	-0.4348233405	-0.015447398	 0.084483
178.7887	196.8476	212.6522	256.2873	304.0746	328.2513	396.1316	415.2333	552.2937	558.3668	624.4577	672.0631	721.4567	750.4295	810.6764	854.7758	872.4828	874.3105	910.788	946.6451	981.4163	1011.1557	1021.3288	1032.8997	1078.6795	1099.7305	1142.624	1159.0804	1177.88	1213.0626	1255.2664	1270.2147	1320.5385	1340.4467	1403.3492	1413.752	1419.8281	1486.1615	1487.9892	1491.9258	1495.2792	1498.6014	1640.8964	3025.7926	3034.1127	3036.0494	3091.8933	3094.6618	3095.1089	3098.2823	3123.6859	3136.0937	3187.6443	3214.7606
CC12C=CC3(C)CN1C23	C[C@@]12C=C[C@@]3(C)CN1[C@@H]23	
InChI=1S/C8H11N/c1-7-3-4-8(2)6(7)9(8)5-7/h3-4,6H,5H2,1-2H3	InChI=1S/C8H11N/c1-7-3-4-8(2)6(7)9(8)5-7/h3-4,6H,5H2,1-2H3/t6-,7+,8+,9?/m1/s1
