17
gdb 108290	3.14724	1.27627	1.06206	2.0389	68.38	-0.2512	-0.0335	0.2177	1131.1497	0.134724	-458.938281	-458.930005	-458.929061	-458.971614	30.848	
O	-0.1549976266	 1.5116321065	-0.2534224533	-0.415641
C	-0.0034866088	 0.1039086568	-0.2489085602	-0.151944
C	-1.2960645948	-0.5577179682	 0.1563538695	 0.427114
C	-1.8015082312	-0.477845235	 1.619991427	-0.395307
C	-2.1767592133	-1.9715783809	 1.5177497556	 0.411634
O	-2.6551952854	-2.7620084853	 2.2763348385	-0.292321
C	-1.6437450344	-2.0831285363	 0.0785990378	-0.286696
C	-2.6808207831	-1.6319005325	-0.9757724613	-0.091158
O	-2.3601934668	-0.2357871904	-0.7799657352	-0.338416
H	-0.9001752181	 1.7016819061	-0.8362781395	 0.297639
H	 0.3075021203	-0.2738192081	-1.2356273913	 0.092881
H	 0.7909686716	-0.1305769335	 0.4674743925	 0.112045
H	-1.0070127572	-0.311788657	 2.3558697479	 0.139171
H	-2.6173667418	 0.222640025	 1.8098803391	 0.142844
H	-0.9636712784	-2.8969564119	-0.1697667949	 0.106043
H	-2.4370994231	-1.9588114007	-1.9930596114	 0.118202
H	-3.732388409	-1.8555880844	-0.766392411	 0.123911
68.7822	93.1611	164.2698	209.2131	326.7248	363.1869	386.4756	439.4255	446.6126	524.358	623.0742	684.5778	732.5123	849.6356	895.1817	925.3405	950.6148	975.4764	994.8029	1045.2864	1055.85	1079.6277	1100.7375	1128.0336	1151.2508	1166.4814	1194.9505	1237.781	1250.3766	1316.7812	1342.3795	1381.8752	1416.0501	1433.5578	1496.8707	1525.4545	1894.7036	2983.3836	3027.5662	3057.0774	3075.7363	3077.0922	3125.513	3128.5174	3790.6514
OCC12CC(=O)C1CO2	OC[C@]12CC(=O)[C@H]1CO2	
InChI=1S/C6H8O3/c7-3-6-1-5(8)4(6)2-9-6/h4,7H,1-3H2	InChI=1S/C6H8O3/c7-3-6-1-5(8)4(6)2-9-6/h4,7H,1-3H2/t4-,6-/m1/s1
