13
gdb 28631	5.33637	1.05646	0.88188	3.0125	72.17	-0.2563	-0.0747	0.1816	1196.3944	0.09077	-452.813806	-452.80677	-452.805826	-452.845572	26.053	
O	 0.0879481339	 1.3266935609	-0.0746256643	-0.398649
C	 0.0659988362	-0.007586802	 0.0221649918	 0.42405
N	 0.5100502594	-0.72445533	-1.0037023405	-0.340086
C	 0.467538345	-2.0497532551	-0.8585699377	-0.03859
C	-0.0156456105	-2.6491921754	 0.3041313388	 0.189286
C	-0.0600994696	-4.121834208	 0.4588380374	 0.099481
O	 0.3084742101	-4.9032459248	-0.3869674665	-0.262078
N	-0.462762049	-1.9103471242	 1.3365047798	-0.276366
C	-0.4254482579	-0.5982433583	 1.2041241522	-0.087285
H	 0.4535888389	 1.53863198	-0.9463493495	 0.309861
H	 0.8239031463	-2.6621364159	-1.6806038534	 0.151943
H	-0.4695149802	-4.4482870242	 1.4373983104	 0.092207
H	-0.7799859927	 0.022106447	 2.0215946715	 0.136227
98.4616	180.5161	195.192	338.5777	392.0611	442.2812	469.6891	521.0643	594.0217	614.5703	668.7158	804.482	807.2538	899.6108	931.4041	989.0506	1034.0216	1049.0187	1171.2323	1260.743	1289.6596	1303.6464	1357.6642	1396.6464	1449.0071	1518.9646	1590.0976	1623.9866	1801.5165	2926.9154	3179.6612	3193.4209	3750.2357
OC1=NC=C(C=O)N=C1	Oc1ncc(C=O)nc1	
InChI=1S/C5H4N2O2/c8-3-4-1-7-5(9)2-6-4/h1-3H,(H,7,9)	InChI=1S/C5H4N2O2/c8-3-4-1-7-5(9)2-6-4/h1-3H,(H,7,9)
