20
gdb 57448	2.62427	1.18077	1.01974	4.014	76.82	-0.2357	-0.0114	0.2243	1261.7688	0.167543	-440.269166	-440.259	-440.258055	-440.304468	37.36	
C	 0.2937910746	 0.9207359337	 0.2330819132	-0.424507
C	 1.1613670383	-0.3098561903	 0.5356096167	 0.333864
C	 2.4103195281	 0.0633352471	 1.3492599951	-0.411931
O	 0.3977503242	-1.282401719	 1.2460199491	-0.456401
C	 1.5916564245	-0.9474372952	-0.7797284999	 0.000496
N	 2.1389240315	-2.2939475815	-0.7842832518	-0.337267
C	 0.8660260275	-2.0528412003	-1.4915832704	-0.138426
C	-0.3424313466	-2.7603389789	-0.9570524106	 0.175845
O	-1.393552134	-2.7752126491	-1.5503282653	-0.277266
H	 0.8453445469	 1.6703805388	-0.3433108997	 0.116826
H	-0.5955583491	 0.6294149716	-0.3324062236	 0.139966
H	-0.0293083759	 1.397127755	 1.1660431124	 0.107595
H	 2.1232000223	 0.5229664073	 2.3015384726	 0.105063
H	 2.9934180336	-0.8368160346	 1.5573634858	 0.141156
H	 3.0413691136	 0.7789770423	 0.8116785268	 0.110798
H	 0.0140770846	-0.8536793685	 2.0177599842	 0.281806
H	 2.0548575673	-0.2195937683	-1.4465563897	 0.087504
H	 2.9085336278	-2.3796753871	-1.4417053319	 0.238813
H	 0.8651514349	-1.9828304554	-2.5781226721	 0.10234
H	-0.1821142242	-3.2929675778	-0.0033579311	 0.103727
42.3664	70.5279	185.9754	213.4692	231.2462	236.3949	277.7099	286.2624	316.0745	349.3461	393.9428	407.0651	495.4741	556.8579	586.1789	742.5304	827.9202	874.8698	918.4902	926.3786	960.8072	974.2803	1002.1565	1024.8812	1037.0243	1105.9617	1144.6374	1174.0746	1206.8194	1214.2591	1237.3499	1262.1171	1353.0715	1370.7738	1392.0926	1410.6772	1422.1631	1470.2649	1481.6382	1481.9544	1498.9688	1515.7108	1811.6475	2984.7527	3027.751	3032.9609	3092.5448	3096.8433	3103.0535	3121.2661	3128.2564	3129.7031	3513.7405	3819.4561
CC(C)(O)C1NC1C=O	CC(C)(O)[C@H]1N[C@H]1C=O	
InChI=1S/C6H11NO2/c1-6(2,9)5-4(3-8)7-5/h3-5,7,9H,1-2H3	InChI=1S/C6H11NO2/c1-6(2,9)5-4(3-8)7-5/h3-5,7,9H,1-2H3/t4-,5-/m0/s1
