19
gdb 64310	2.23861	1.79899	1.28419	3.0542	78.03	-0.2317	-0.055	0.1768	1055.028	0.158077	-423.059323	-423.050531	-423.049586	-423.092354	33.621	
C	-0.1393471051	 1.5482259972	 0.1091007472	-0.426705
C	-0.0013635122	 0.018453484	-0.0016008894	 0.235096
C	-1.3684471048	-0.6500519422	-0.1176929007	-0.410039
O	 0.708389962	-0.3598826558	-1.1908066667	-0.28947
C	 2.0716296679	-0.0148606021	-1.252397833	-0.134246
C	 2.829664966	-0.3663618592	-0.0103802058	-0.066998
C	 2.2005405054	-0.6370148937	 1.1376145502	-0.146348
C	 0.7371918272	-0.4930924723	 1.2522845332	 0.354268
O	 0.1485849274	-0.6914264442	 2.2966046994	-0.342157
H	 0.8318543571	 2.0417425296	 0.2144382905	 0.117207
H	-0.6331562863	 1.9383168999	-0.7855727441	 0.124803
H	-0.7390250549	 1.8037836953	 0.9864506956	 0.139112
H	-1.9244684052	-0.2222986949	-0.9561839673	 0.114836
H	-1.2477749784	-1.7221685957	-0.2926948674	 0.124282
H	-1.9307240989	-0.5081422573	 0.8062200192	 0.139376
H	 2.4827626236	-0.5616896389	-2.1095109031	 0.128138
H	 2.2173063975	 1.0587741005	-1.4756289949	 0.111003
H	 3.9150703614	-0.3839713149	-0.0797728057	 0.114742
H	 2.7263242803	-0.9151594551	 2.0454243329	 0.113101
75.4228	187.8033	208.5694	223.0616	247.3427	299.6178	335.5024	345.6904	399.5515	474.0446	504.9728	533.2395	651.5245	668.3802	809.1518	828.6985	835.321	921.8064	940.0339	955.212	1010.0311	1014.989	1043.8669	1102.713	1156.9462	1180.5143	1193.6897	1226.7004	1263.5	1308.2101	1386.1006	1391.7158	1406.6194	1407.9332	1473.5326	1478.253	1484.7862	1495.4942	1509.7996	1688.9789	1774.4654	2934.4424	3041.0494	3050.3314	3054.2823	3111.4874	3125.194	3127.8308	3152.1435	3156.0181	3191.035
CC1(C)OCC=CC1=O	CC1(C)OCC=CC1=O	
InChI=1S/C7H10O2/c1-7(2)6(8)4-3-5-9-7/h3-4H,5H2,1-2H3	InChI=1S/C7H10O2/c1-7(2)6(8)4-3-5-9-7/h3-4H,5H2,1-2H3
