23
gdb 102988	1.86748	1.33078	1.10064	1.0025	93.23	-0.2319	0.057	0.2889	1319.279	0.202668	-351.121728	-351.110744	-351.1098	-351.157136	40.817	
C	 2.7703976002	 0.6108287432	 0.8622692223	-0.38285
C	 1.6021210236	-0.3185848799	 0.5140863126	-0.251196
C	 1.5688767021	-0.7245137727	-0.959505083	 0.103747
C	 1.4182987644	 0.386762809	-1.8646078376	 0.293367
C	 1.2854693119	 1.3193762126	-2.6147483572	-0.465826
C	 2.4024847296	-1.9061902696	-1.4783610296	-0.047615
C	 3.354789837	-2.6878191549	-0.5982235345	-0.418298
C	 0.9019313733	-2.0348677562	-1.4013803989	-0.066197
C	 0.1850360126	-2.957819786	-0.4387407271	-0.417353
H	 3.7334577553	 0.1188323339	 0.6921638597	 0.115606
H	 2.7447261805	 1.5150378866	 0.2476321371	 0.132983
H	 2.7270612514	 0.911690295	 1.9136174663	 0.108183
H	 1.6454830322	-1.2102590554	 1.1441557383	 0.093102
H	 0.6548858189	 0.1793968488	 0.7543834244	 0.104552
H	 1.1706973898	 2.1391882741	-3.2792700825	 0.186912
H	 2.7873098214	-1.7517893862	-2.4825564713	 0.093355
H	 2.9943086812	-2.8077024789	 0.4257113948	 0.118216
H	 3.5138324534	-3.6918899743	-1.0078134288	 0.119699
H	 4.3313128702	-2.1948150849	-0.5479597424	 0.124222
H	 0.3958919052	-1.9519993074	-2.3592600474	 0.094156
H	 0.7115133714	-3.0861444813	 0.5091615603	 0.118001
H	-0.818964191	-2.5832162739	-0.2117700365	 0.123445
H	 0.0719708555	-3.9524723815	-0.8844300488	 0.119789
87.847	122.0507	144.4809	150.487	164.7946	191.5608	208.1295	232.1727	292.571	309.354	403.0347	422.87	529.6403	541.8882	555.9872	573.7487	639.2516	656.6156	774.0824	787.8981	808.7617	920.8413	976.3795	1005.0595	1022.0964	1037.2074	1046.8538	1098.8089	1118.8997	1133.2622	1155.2872	1183.9725	1250.5398	1292.4798	1313.9674	1362.2279	1375.5484	1410.0618	1414.0864	1421.297	1440.742	1478.8079	1490.404	1496.1254	1497.0881	1501.5075	1507.5981	1515.8822	2224.3042	3033.0145	3033.9563	3037.6458	3039.2209	3088.3914	3089.9991	3090.4737	3106.2714	3113.2667	3118.6595	3125.8282	3140.3688	3151.7858	3503.4185
CCC1(C#C)C(C)C1C	CC[C@@]1(C#C)[C@@H](C)[C@H]1C	
InChI=1S/C9H14/c1-5-9(6-2)7(3)8(9)4/h1,7-8H,6H2,2-4H3	InChI=1S/C9H14/c1-5-9(6-2)7(3)8(9)4/h1,7-8H,6H2,2-4H3/t7-,8+,9-
