22
gdb 110824	3.24373	1.10212	0.98932	0.3243	82.31	-0.2263	0.0699	0.2962	1303.9998	0.193056	-404.296138	-404.286569	-404.285625	-404.330003	36.871	
C	-0.2073196158	 1.6495587546	 0.1040477994	-0.448473
C	-0.0814740695	 0.1302086903	 0.0788967133	 0.355857
C	-1.4732025985	-0.5005245509	 0.0265119035	-0.410596
C	 0.8888980393	-0.5606385501	-0.9275855707	-0.320536
C	 1.5206558959	-1.2460532454	 0.2810814764	-0.030654
C	 2.0801913136	-0.2852184298	 1.2469975717	-0.008077
C	 2.8556790044	 0.9797869392	 0.9214911817	-0.107668
O	 4.253818371	 0.7279081262	 0.9595166473	-0.415331
N	 0.6166623387	-0.5116729014	 1.272816507	-0.199916
H	 0.7500250159	 2.1687999777	 0.0533166602	 0.118837
H	-0.8123180492	 1.9905738867	-0.7433641824	 0.116178
H	-0.7140192742	 1.9641274788	 1.0230222862	 0.124709
H	-1.9935090936	-0.2117301817	-0.8931630272	 0.107124
H	-1.406535433	-1.5915419851	 0.0605631054	 0.116829
H	-2.0714068657	-0.17459229	 0.8831857263	 0.118814
H	 0.3807478814	-1.24418331	-1.6102793238	 0.106237
H	 1.5523245132	 0.0817226851	-1.5143698621	 0.104672
H	 1.6936687256	-2.3149963338	 0.3609570418	 0.091493
H	 2.4994432057	-0.7623307719	 2.1356244663	 0.082953
H	 2.6579637358	 1.3373915131	-0.0903988922	 0.116506
H	 2.573983764	 1.7848385606	 1.6177616567	 0.097425
H	 4.4895765849	 0.5008012278	 1.8647876052	 0.283617
79.2601	151.9085	184.3409	188.6915	250.1064	257.786	291.8904	307.6691	368.4855	378.6248	417.3491	505.3884	593.0414	629.7692	752.5047	762.9067	828.4068	855.1957	920.0181	951.8707	963.225	987.4805	999.1336	1011.518	1034.959	1062.3975	1078.6061	1090.923	1138.5618	1177.6655	1218.7495	1234.5322	1268.9904	1275.0592	1285.0461	1348.0693	1382.6188	1400.0032	1412.6166	1421.3047	1456.1679	1477.1798	1483.5371	1491.6847	1501.2556	1506.6277	1516.2174	2984.5343	3031.4086	3039.0558	3055.4686	3079.573	3095.4578	3105.8666	3110.1147	3111.4297	3115.9447	3143.9394	3154.122	3815.7002
CC1(C)CC2C(CO)N12	CC1(C)C[C@H]2[C@@H](CO)N12	
InChI=1S/C7H13NO/c1-7(2)3-5-6(4-9)8(5)7/h5-6,9H,3-4H2,1-2H3	InChI=1S/C7H13NO/c1-7(2)3-5-6(4-9)8(5)7/h5-6,9H,3-4H2,1-2H3/t5-,6+,8?/m0/s1
