23
gdb 118512	2.21363	0.91276	0.6841	0.5367	82.19	-0.2566	0.0768	0.3334	1674.4068	0.20452	-425.400302	-425.389594	-425.38865	-425.436743	38.812	
O	-0.2176927954	 1.4055509387	-0.3498556709	-0.421212
C	 0.0015029896	 0.0288400475	-0.0758758795	-0.086947
C	-1.3664904586	-0.6378603902	 0.0292374541	-0.175019
C	-1.3317144988	-2.1702575141	 0.1697213571	-0.027743
C	-0.7061394274	-2.609895041	 1.505951991	-0.064575
O	-0.5789305782	-4.0146916712	 1.6343535765	-0.427934
C	-2.7310718056	-2.7467512623	 0.017005289	 0.010667
C	-3.3278988826	-2.957828956	-1.3489621613	-0.280761
C	-2.9498565383	-4.1515961886	-0.5087366252	-0.292155
H	 0.6367675461	 1.8456194181	-0.3786725706	 0.28501
H	 0.5844383752	-0.4497846554	-0.8807361587	 0.084849
H	 0.5721692032	-0.096999459	 0.8568141477	 0.088901
H	-1.9107479331	-0.1951708317	 0.8736735873	 0.100775
H	-1.9306899789	-0.3745444939	-0.8722348856	 0.111075
H	-0.7076734855	-2.5852715148	-0.6353426015	 0.071997
H	 0.3096648839	-2.2147664565	 1.6019476086	 0.103866
H	-1.2976756378	-2.1836042411	 2.3354548037	 0.081067
H	-1.4553304378	-4.3911764981	 1.5054416145	 0.288149
H	-3.4281578721	-2.4167890656	 0.785767488	 0.083131
H	-4.3807769593	-2.7432897805	-1.492741079	 0.114089
H	-2.7073431974	-2.7316764277	-2.2102412011	 0.114892
H	-2.0754691756	-4.7198712113	-0.8074722626	 0.124831
H	-3.7471412857	-4.7507779854	-0.0813803214	 0.113048
63.7641	77.8679	102.5621	125.9078	145.2801	207.5307	254.2888	270.0785	308.5888	336.8558	384.0783	402.3375	462.3994	584.3579	761.9582	788.5516	818.5459	831.8607	914.7249	927.2637	964.6676	989.1556	1023.8372	1055.9561	1066.812	1074.6972	1082.0024	1099.2624	1127.2338	1143.5022	1162.1608	1201.7853	1217.972	1223.8987	1245.1525	1256.6846	1303.988	1308.6703	1330.1357	1360.4126	1385.3058	1421.3649	1436.4088	1463.667	1472.5012	1492.6583	1504.9947	1509.0618	1528.0964	2949.6971	2959.5935	2994.0468	3002.6019	3029.7508	3076.5722	3080.6539	3117.5492	3128.3247	3133.9849	3207.6724	3222.479	3820.3746	3829.9478
OCCC(CO)C1CC1	OCC[C@@H](CO)C1CC1	
InChI=1S/C7H14O2/c8-4-3-7(5-9)6-1-2-6/h6-9H,1-5H2	InChI=1S/C7H14O2/c8-4-3-7(5-9)6-1-2-6/h6-9H,1-5H2/t7-/m0/s1
