18
gdb 14553	4.2806	1.45182	1.37016	2.1415	67.45	-0.2342	0.0658	0.3	965.7244	0.152876	-384.885521	-384.877401	-384.876457	-384.917858	30.392	
C	-0.0218445783	 1.5879116528	-0.0981230565	-0.489454
C	-0.0063809857	 0.074201365	-0.0748030095	 0.28844
C	-1.2546409823	-0.5839097043	 0.4947399367	-0.134952
O	-1.4807885741	-0.288193519	 1.8649264033	-0.419127
C	 0.6267210902	-0.7656090397	-1.1801767675	-0.184894
C	 1.9320472596	-0.1345219675	-1.6497661744	-0.109458
O	 2.4149836266	-0.0139268538	-0.2840742994	-0.289901
C	 1.2535289283	-0.6966382956	 0.1975758104	 0.069907
H	 0.9622990745	 1.9892290166	-0.3466592469	 0.143567
H	-0.7514016278	 1.9719523734	-0.8204908842	 0.112639
H	-0.2811360648	 1.9848697431	 0.8903292896	 0.107644
H	-2.1275094827	-0.3098719192	-0.1193997817	 0.090678
H	-1.1554294118	-1.6739664949	 0.4429903189	 0.105534
H	-1.738466451	 0.6357549357	 1.932863889	 0.2858
H	 0.1024856125	-1.570286496	-1.6799436675	 0.095102
H	 2.5655536196	-0.8265192214	-2.2157151649	 0.112704
H	 1.88689236	 0.8310139018	-2.1669901872	 0.105249
H	 1.3851274371	-1.4196227971	 0.9949848919	 0.110522
80.8734	176.5492	181.81	237.505	260.1108	304.0801	334.8262	378.1753	476.5086	573.0821	700.0073	768.7563	825.8098	887.5048	948.3294	953.7745	959.9149	985.0278	1000.5814	1030.9103	1061.8037	1077.36	1098.154	1125.3525	1161.9785	1171.6021	1227.9114	1244.7511	1305.7452	1337.0555	1382.5655	1407.5882	1415.7355	1432.4182	1486.4207	1498.0357	1507.8345	1524.612	2975.5434	3024.8809	3028.0899	3063.3332	3072.9976	3081.3155	3130.7337	3173.8781	3191.2132	3831.5568
CC1(CO)C2COC12	C[C@@]1(CO)[C@H]2CO[C@@H]12	
InChI=1S/C6H10O2/c1-6(3-7)4-2-8-5(4)6/h4-5,7H,2-3H2,1H3	InChI=1S/C6H10O2/c1-6(3-7)4-2-8-5(4)6/h4-5,7H,2-3H2,1H3/t4-,5+,6+/m0/s1
