23
gdb 113241	4.29783	0.76655	0.72998	0.7251	92.56	-0.2571	0.0532	0.3102	1665.4012	0.202919	-351.120252	-351.109542	-351.108597	-351.155939	39.916	
C	 0.5003420188	 1.5810763547	 0.0503540426	-0.369256
C	-0.0951453581	 0.1752967075	-0.0963454646	-0.208022
C	 0.4880098144	-0.5763167161	-1.2769868509	-0.031765
C	 1.7752395297	-1.3642607806	-1.155292026	-0.320368
C	 0.4724308959	-2.0847976615	-1.4132137075	 0.336053
C	-0.1202907975	-2.9615921892	-0.3269402959	-0.465181
C	 0.2498846822	-2.624659206	-2.8297691806	-0.42709
C	 0.8851249921	-3.9180882582	-3.0706669741	 0.324978
C	 1.4145783879	-4.98207633	-3.2528400659	-0.461208
H	 1.5841861171	 1.5348095785	 0.1991023504	 0.118794
H	 0.3157981921	 2.1838274296	-0.8458202938	 0.112986
H	 0.0637441819	 2.1101776817	 0.903199963	 0.109424
H	 0.0756207964	-0.385992019	 0.8286929237	 0.095964
H	-1.1847571684	 0.2515248443	-0.2103368505	 0.095842
H	 0.3677314206	-0.0398768497	-2.2176268428	 0.073684
H	 2.5076264736	-1.3077785999	-1.9540384162	 0.109438
H	 2.2105890109	-1.4602766565	-0.1649195518	 0.105364
H	 0.1114177974	-2.5892152242	 0.6733491918	 0.114701
H	-1.2118306595	-3.0233750885	-0.4169628489	 0.111166
H	 0.2769630024	-3.978883178	-0.4039386871	 0.131561
H	-0.829047592	-2.7120989749	-3.0206659641	 0.125658
H	 0.6293566962	-1.8991582264	-3.5599329143	 0.124042
H	 1.881058356	-5.9205509079	-3.4225175866	 0.193235
57.2913	84.2198	114.2156	158.817	194.0409	219.1042	257.124	295.2048	340.5769	357.8131	364.0075	415.9494	432.5895	600.3989	614.2552	636.0624	712.4722	781.5063	814.4999	877.7214	907.65	933.7346	939.1824	971.0724	978.4937	1014.9284	1056.7993	1060.7592	1105.1621	1124.0767	1134.2082	1195.7914	1216.8907	1261.6343	1301.4017	1328.043	1343.6496	1366.9966	1410.5164	1421.9185	1429.9003	1464.3794	1481.5284	1493.4314	1497.1057	1498.9486	1506.3152	1510.9606	2234.7542	3008.1984	3018.4496	3028.9065	3031.5822	3047.1257	3061.3949	3090.2117	3098.4932	3104.8513	3109.6287	3120.2302	3123.1742	3204.3473	3506.4856
CCC1CC1(C)CC#C	CC[C@H]1C[C@]1(C)CC#C	
InChI=1S/C9H14/c1-4-6-9(3)7-8(9)5-2/h1,8H,5-7H2,2-3H3	InChI=1S/C9H14/c1-4-6-9(3)7-8(9)5-2/h1,8H,5-7H2,2-3H3/t8-,9-/m0/s1
