18
gdb 16561	3.08677	2.59233	2.07145	1.3882	71.33	-0.2349	0.022	0.2569	752.9605	0.157805	-347.823999	-347.817927	-347.816983	-347.853816	25.28	
C	-0.0258111022	 1.5528848044	-0.0398927872	-0.060702
O	 1.342025114	 1.9679282109	 0.0393511632	-0.278061
C	 2.1922698061	 0.8145629881	-0.0557794072	 0.10959
C	 1.3179176146	-0.2412435828	-0.7413607643	-0.236759
C	 0.0178632026	 0.0132382796	 0.0462976555	-0.080009
C	 0.2299380804	-0.4293966376	 1.4807061687	-0.067511
C	 1.4158708347	-0.2727277475	 2.0712531183	-0.04583
C	 2.5911006011	 0.3499827235	 1.3560945121	-0.252827
H	-0.587961946	 2.0129621893	 0.7795923622	 0.101312
H	-0.4623558224	 1.8849610004	-0.9938364018	 0.087763
H	 3.0753771354	 1.1029374139	-0.6336455373	 0.072005
H	 1.1953483685	-0.0163502326	-1.8053113543	 0.09832
H	 1.6962916408	-1.2593966289	-0.6295027238	 0.102859
H	-0.8667226715	-0.4490424498	-0.396724822	 0.067208
H	-0.6099656169	-0.8569625608	 2.0208495092	 0.083905
H	 1.5657871412	-0.5904111235	 3.1001334691	 0.086014
H	 3.4309999093	-0.3589404297	 1.3042081033	 0.097606
H	 2.9600531304	 1.219259073	 1.9151053362	 0.115117
171.1934	283.7907	353.8591	412.254	472.5778	517.3525	640.9528	709.0755	774.0051	818.7589	842.7752	874.8694	894.7654	919.783	955.5024	960.076	988.1935	999.6516	1044.73	1048.6016	1077.8642	1105.0488	1140.7914	1176.7624	1208.9334	1213.9495	1240.9501	1304.7602	1319.2148	1335.8973	1348.95	1373.0449	1389.75	1414.3093	1463.3329	1491.8023	1523.7566	1707.7185	2987.9163	2999.8027	3044.532	3052.9828	3065.1518	3067.735	3089.4069	3117.2783	3149.6564	3174.5237
C1OC2CC1C=CC2	C1O[C@@H]2C[C@H]1C=CC2	
InChI=1S/C7H10O/c1-2-6-4-7(3-1)8-5-6/h1-2,6-7H,3-5H2	InChI=1S/C7H10O/c1-2-6-4-7(3-1)8-5-6/h1-2,6-7H,3-5H2/t6-,7+/m1/s1
