19
gdb 33237	6.33795	0.72421	0.65789	2.4147	79.22	-0.1933	0.0342	0.2275	1708.3559	0.160129	-419.24394	-419.234858	-419.233914	-419.27894	32.693	
C	 0.021638876	 1.5106788525	 0.0082457938	-0.382476
C	-0.0435315549	-0.0189113953	 0.0029764231	-0.185836
C	-1.4758862438	-0.530011062	 0.0135607004	-0.039454
O	-1.4245599986	-1.9583317591	 0.0079116246	-0.286668
C	-2.6087925838	-2.6002643045	 0.0150649576	 0.375955
C	-2.7708205257	-3.9657227579	 0.0103719342	-0.226098
N	-4.1442883737	-4.1434092772	 0.0213318082	-0.233298
C	-4.7191221383	-2.9169858544	 0.0316948349	 0.015611
N	-3.8147529745	-1.9563152434	 0.0281984749	-0.338311
H	 1.0582364446	 1.8595673455	 0.0004465546	 0.115177
H	-0.4786577733	 1.9345681737	-0.8694094959	 0.117542
H	-0.4630953774	 1.9278072839	 0.8977908714	 0.117546
H	 0.4666200743	-0.4175744161	-0.8816263581	 0.104645
H	 0.4819643728	-0.4242717528	 0.8754717926	 0.104655
H	-2.0177348764	-0.1809802785	 0.9017685484	 0.108018
H	-2.0331034883	-0.1745558946	-0.8625019206	 0.108017
H	-2.0742342891	-4.7844258003	 0.0007883906	 0.128016
H	-4.6236031708	-5.027329719	 0.021487928	 0.266703
H	-5.7889997091	-2.7751911505	 0.0414573174	 0.130257
49.5406	60.1605	114.2468	133.5258	234.4459	292.6431	324.6822	340.7133	495.1391	517.8409	644.3918	661.6775	733.1977	745.5218	763.379	788.2369	894.4091	913.6003	945.6796	980.127	1046.7892	1073.5936	1089.6931	1142.2502	1151.0928	1189.5282	1247.6091	1266.8648	1310.9182	1327.1116	1332.1286	1352.1148	1412.3136	1420.7267	1482.1146	1492.4927	1501.4047	1506.3557	1518.6673	1524.0167	1623.5531	3016.8928	3032.7428	3037.6342	3048.5641	3074.2774	3101.3438	3108.338	3254.683	3295.3294	3674.1832
CCCOC1=CNC=N1	CCCOc1c[nH]cn1	
InChI=1S/C6H10N2O/c1-2-3-9-6-4-7-5-8-6/h4-5H,2-3H2,1H3,(H,7,8)	InChI=1S/C6H10N2O/c1-2-3-9-6-4-7-5-8-6/h4-5H,2-3H2,1H3,(H,7,8)
