14
gdb 27132	3.24803	1.17589	0.90487	2.7457	65.72	-0.2064	-0.0118	0.1946	1204.2165	0.100278	-473.861883	-473.85356	-473.852615	-473.895479	29.909	
O	-0.1492496852	 1.2501263726	-0.2745320472	-0.451675
C	-0.0130404476	-0.0950673263	-0.1141081686	 0.25875
C	 0.3286234194	-1.0323732955	-1.0605324948	 0.196605
N	 0.3439304901	-2.2729508348	-0.4606734273	-0.29504
C	 0.0147811088	-2.1265820696	 0.8611632046	-0.077191
C	-0.2204009893	-0.7928767679	 1.1073493869	-0.227728
O	 0.6876915656	-0.8663932603	-2.3775478844	-0.225209
C	-0.3372418195	-0.8450294925	-3.2916988639	 0.149772
O	-0.1387072163	-0.6958077965	-4.453745731	-0.248085
H	 0.2475094946	 1.5031347572	-1.1154164616	 0.301588
H	 0.6487360827	-3.1184313004	-0.9101878421	 0.273237
H	-0.0290642769	-2.9791242727	 1.5183724912	 0.128849
H	-0.5101126255	-0.3509003287	 2.046893631	 0.111385
H	-1.3197212107	-0.9740509946	-2.8025095329	 0.104741
50.823	119.8359	151.9013	265.2908	277.9106	298.9628	371.799	405.0443	444.2858	534.7267	627.2557	663.3718	693.8865	717.7276	819.5441	849.5039	911.82	1046.6036	1079.9618	1085.6104	1105.0129	1149.1174	1255.6773	1268.9112	1367.6172	1394.2646	1457.4489	1492.6723	1539.9593	1665.0277	1882.8028	2983.308	3261.3989	3280.1103	3686.4087	3811.5356
OC1=C(NC=C1)OC=O	Oc1c([nH]cc1)OC=O	
InChI=1S/C5H5NO3/c7-3-9-5-4(8)1-2-6-5/h1-3,6,8H	InChI=1S/C5H5NO3/c7-3-9-5-4(8)1-2-6-5/h1-3,6,8H
