15
gdb 13057	4.07877	1.31939	1.10772	2.8577	64.43	-0.2504	-0.0316	0.2188	1049.3709	0.11831	-399.830751	-399.82293	-399.821986	-399.86412	27.525	
O	 0.1907881051	-0.0876376475	-0.9509742151	-0.313837
C	-0.0359881991	 0.9000396772	-0.2878027807	 0.154394
N	 0.9203889448	 1.6882172444	 0.28515293	-0.293687
C	 2.3106525781	 1.3463846596	 0.2621056643	-0.032341
C	 3.3735254194	 2.1931905758	-0.5219141058	-0.257784
C	 4.3631341766	 2.0399108426	 0.6728191911	-0.334952
C	 3.1464030782	 1.6387064803	 1.5220936292	 0.365722
O	 2.8575665386	 1.7455267055	 2.6782932782	-0.295212
H	-1.0570149952	 1.2758899023	-0.084257981	 0.0848
H	 0.622401796	 2.4279983255	 0.903075369	 0.256635
H	 2.3901146485	 0.2936954656	-0.0279395526	 0.14877
H	 3.6853978675	 1.7883271481	-1.484267875	 0.12547
H	 3.0457758129	 3.2273426394	-0.6486645044	 0.117618
H	 5.0617372302	 1.2076330387	 0.5443530319	 0.13945
H	 4.9146644883	 2.9184121526	 1.011955551	 0.134954
34.3156	118.8372	133.856	194.6022	273.8767	392.0386	440.378	514.6204	572.2806	670.9134	722.1124	755.5706	850.1497	900.2222	931.5554	1003.83	1030.3835	1044.9706	1088.1037	1120.9957	1183.8013	1210.796	1227.1388	1243.7138	1263.719	1348.774	1427.5617	1446.5611	1490.9472	1522.8921	1806.665	1887.4187	2952.6333	3067.7163	3075.8142	3083.043	3129.5784	3149.6257	3619.9874
O=CNC1CCC1=O	O=CN[C@H]1CCC1=O	
InChI=1S/C5H7NO2/c7-3-6-4-1-2-5(4)8/h3-4H,1-2H2,(H,6,7)	InChI=1S/C5H7NO2/c7-3-6-4-1-2-5(4)8/h3-4H,1-2H2,(H,6,7)/t4-/m0/s1
