20
gdb 116349	3.04294	1.30448	1.01613	1.4252	74.68	-0.2264	0.0796	0.306	1194.248	0.172866	-440.248531	-440.240336	-440.239391	-440.281378	31.797	
O	-0.0321296077	 1.4514346944	 0.0029579906	-0.424547
C	 0.049001799	 0.042306912	 0.0583747413	-0.068619
C	-1.3375187659	-0.5933955777	 0.0044523483	 0.060754
O	-1.9247685663	-0.1597912193	-1.2182667011	-0.269923
C	-3.2409239773	-0.6746639617	-1.3531159489	-0.08484
C	-3.2075835149	-2.1863340459	-1.5819257086	-0.156114
N	-2.2923305188	-2.9022537385	-0.6734632514	-0.107495
C	-0.880340081	-2.9285607396	-1.057289795	-0.24468
C	-1.321550406	-2.1074450582	 0.0990010076	-0.023699
H	-0.6072194677	 1.6509075824	-0.7453931825	 0.290261
H	 0.6592946943	-0.3636664455	-0.7632681645	 0.092558
H	 0.5390185201	-0.2182283602	 1.0022264122	 0.108712
H	-1.933803962	-0.1890816174	 0.8406448918	 0.07674
H	-3.8240621499	-0.4327808739	-0.4503503698	 0.098621
H	-3.7040050225	-0.1639005269	-2.2022130075	 0.111287
H	-4.2164800193	-2.5930112776	-1.4413676476	 0.107767
H	-2.9162456571	-2.3959638796	-2.6172657367	 0.108981
H	-0.3674075959	-3.8740687739	-0.9005828151	 0.112927
H	-0.5955724228	-2.3957457599	-1.962494745	 0.117113
H	-1.1537552479	-2.4842090431	 1.1069538419	 0.094197
93.9174	122.4007	163.4202	269.472	301.5751	365.6779	400.2359	438.1125	471.2671	507.4584	592.3971	688.5262	745.2827	814.6302	860.6774	903.3708	916.6008	972.6157	991.1326	1054.3277	1074.5412	1086.7107	1115.0783	1118.7827	1127.75	1137.7854	1158.0149	1178.1547	1235.0863	1265.7078	1294.0676	1313.1548	1322.7277	1368.0378	1374.7925	1390.4916	1407.2476	1423.9434	1442.6728	1490.1684	1498.5025	1501.628	1509.9179	2956.4303	2981.9832	2990.5739	3025.3049	3063.6914	3079.7048	3089.4752	3095.7229	3113.5095	3181.0622	3793.9669
OCC1OCCN2CC12	OC[C@H]1OCCN2C[C@@H]12	
InChI=1S/C6H11NO2/c8-4-6-5-3-7(5)1-2-9-6/h5-6,8H,1-4H2	InChI=1S/C6H11NO2/c8-4-6-5-3-7(5)1-2-9-6/h5-6,8H,1-4H2/t5-,6+,7?/m0/s1
