15
gdb 21035	3.94623	1.80384	1.25752	3.066	64.55	-0.2123	0.0221	0.2345	939.5422	0.119694	-396.038338	-396.030432	-396.029488	-396.070629	27.979	
C	 0.0963376934	 1.4005947867	-0.0657201037	-0.32655
N	 0.0758517433	-0.0389601875	-0.0126673276	-0.062509
N	 0.1251817161	-0.8031873897	-1.1607493401	-0.297629
C	 0.0900705339	-2.0341744848	-0.747536242	 0.39967
C	 0.121334731	-3.228499993	-1.6330711527	-0.495914
N	 0.0204328628	-2.0936991023	 0.6249114231	-0.407108
C	 0.0089669893	-0.7919452172	 1.1404588114	 0.466653
O	-0.045782394	-0.4324216633	 2.2990375164	-0.437916
H	 1.016482661	 1.7600212286	-0.5365168608	 0.138083
H	-0.7621890586	 1.7819935913	-0.6269505238	 0.138088
H	 0.0483286461	 1.7571295366	 0.964578486	 0.16617
H	 0.1755475037	-2.8979619556	-2.671152519	 0.162173
H	 0.9900447152	-3.8613614072	-1.4196780524	 0.141388
H	-0.7766599958	-3.843485745	-1.5062224466	 0.141259
H	-0.0204564972	-2.9125718176	 1.2060693318	 0.274144
115.7593	133.9608	151.2408	194.7431	263.1214	308.3242	335.1121	475.2513	545.7797	620.3618	669.1961	696.1898	749.3461	843.3996	986.2774	1034.7396	1045.733	1066.895	1152.3958	1160.2433	1261.2771	1276.7745	1408.5807	1422.5601	1447.1089	1458.8482	1478.2163	1483.7867	1499.1576	1517.3803	1649.5546	1836.4753	3035.3498	3039.9521	3087.6542	3100.3216	3149.7235	3150.6305	3687.9957
CN1N=C(C)NC1=O	Cn1nc(C)[nH]c1=O	
InChI=1S/C4H7N3O/c1-3-5-4(8)7(2)6-3/h1-2H3,(H,5,6,8)	InChI=1S/C4H7N3O/c1-3-5-4(8)7(2)6-3/h1-2H3,(H,5,6,8)
