23
gdb 97857	5.14079	0.60675	0.57514	0.0868	96.24	-0.2355	0.0612	0.2967	2050.3069	0.206532	-351.156445	-351.146201	-351.145256	-351.194919	36.332	
C	-0.6614086293	 1.6769419009	-0.3323401653	-0.36199
C	-0.0732914747	 0.313372481	 0.0745900729	-0.315612
C	 0.7673718194	-0.279569278	-0.9611327106	 0.13612
C	 1.4554069194	-0.7451318139	-1.8346806749	-0.009797
C	 2.2981360773	-1.3272514663	-2.8697098882	-0.145011
C	 3.8142738319	-1.3043995537	-2.5610592781	-0.193785
C	 4.4235667643	-2.2865035156	-3.5839971744	-0.212496
C	 3.2820166316	-3.2835197944	-3.9515376846	-0.212222
C	 2.0459120258	-2.8295236881	-3.1440913023	-0.194529
H	 0.1352558791	 2.3943187617	-0.5475950589	 0.12605
H	-1.2785820932	 1.5809462117	-1.2298444849	 0.12608
H	-1.2827411741	 2.0820217289	 0.4722629828	 0.111107
H	 0.5098517118	 0.4290819401	 0.9976014039	 0.124711
H	-0.8906441861	-0.3765012344	 0.3224102081	 0.12486
H	 2.1353283031	-0.778726719	-3.8093847745	 0.093266
H	 4.2393877691	-0.2991421725	-2.6190726927	 0.098915
H	 3.9662770367	-1.6643673774	-1.5375304308	 0.104681
H	 4.7573982388	-1.7477520745	-4.476421675	 0.099291
H	 5.3032271245	-2.7941592756	-3.1794206067	 0.098215
H	 3.0737181976	-3.2428132316	-5.0252145311	 0.09937
H	 3.5489358355	-4.3193151738	-3.7254616389	 0.098651
H	 1.994283811	-3.3543631652	-2.1838370377	 0.104987
H	 1.1003998606	-3.0077545903	-3.662626488	 0.099138
12.7437	25.9867	73.1456	89.7622	153.4701	211.3276	247.5732	318.767	431.3847	483.7467	505.9392	532.0397	627.319	747.387	785.4978	809.3728	819.5734	880.862	893.9974	956.5774	971.0805	975.7389	980.4469	1052.3073	1079.5879	1080.0577	1105.1755	1174.9585	1185.9607	1198.2174	1229.8651	1255.5254	1286.2469	1294.2212	1309.6702	1324.1887	1328.3676	1337.8402	1350.4634	1379.9612	1407.6041	1476.8977	1485.9715	1494.1544	1494.6335	1496.7633	1505.8026	1518.0906	2362.3261	2991.3266	3015.7225	3041.5393	3042.5423	3043.8958	3044.5616	3049.2722	3058.0732	3078.6353	3094.8203	3100.4918	3110.1675	3115.1326	3122.183
CCC#CC1CCCC1	CCC#CC1CCCC1	
InChI=1S/C9H14/c1-2-3-6-9-7-4-5-8-9/h9H,2,4-5,7-8H2,1H3	InChI=1S/C9H14/c1-2-3-6-9-7-4-5-8-9/h9H,2,4-5,7-8H2,1H3
