20
gdb 97398	4.23915	0.84872	0.82164	2.9038	83.64	-0.2433	0.0259	0.2692	1505.6325	0.170306	-403.109056	-403.100053	-403.099108	-403.143941	32.842	
C	-0.4078624301	 1.0156187778	 0.0688378276	-0.314127
N	 0.4866313524	-0.1124006296	-0.0829537076	-0.208547
C	 0.6199845081	-0.8790642629	 0.9042453019	 0.133778
O	 1.432987848	-1.9575556481	 0.8323510648	-0.211546
C	 1.5727627358	-2.6962606157	 2.0258907695	 0.111844
C	 0.5101685279	-3.6206321099	 2.5391309915	-0.107157
C	-0.2622923224	-4.2598325455	 1.378158911	-0.228081
C	 1.0798382685	-4.7864013166	 0.7790594377	-0.220561
C	 1.8436979239	-4.1544488813	 1.9498839325	-0.105746
H	 0.1405797108	 1.946789282	-0.1143542266	 0.127187
H	-1.2008935969	 0.9616854281	-0.6859568717	 0.126778
H	-0.8816278196	 1.0838468515	 1.0622717642	 0.094276
H	 0.1131743852	-0.7598895579	 1.8741231164	 0.07678
H	 2.1311350162	-2.1632819854	 2.7931557701	 0.10254
H	 0.1769157443	-3.5766517652	 3.5698810311	 0.088092
H	-0.9107517531	-5.0721463865	 1.7115039704	 0.106763
H	-0.8474186361	-3.576676114	 0.7561472192	 0.1103
H	 1.1347185542	-5.8763300083	 0.7842669146	 0.104879
H	 1.352925986	-4.4170731835	-0.211784782	 0.121043
H	 2.6976251471	-4.5920886591	 2.4534207155	 0.091508
36.8221	74.381	124.4798	194.9081	227.6613	229.4349	318.6976	366.1141	448.6842	528.6323	665.2206	732.3288	758.7636	794.6168	818.2665	930.4339	962.0633	968.259	985.7014	998.4831	1018.4518	1025.5746	1067.6764	1086.4196	1135.8383	1140.9237	1141.9964	1154.2621	1201.8566	1229.7215	1239.251	1250.3467	1268.4587	1303.292	1347.9401	1396.2365	1434.7346	1450.969	1477.5718	1480.8517	1501.1398	1504.3056	1778.4553	2964.3958	3001.525	3056.5109	3060.8947	3074.3822	3075.7852	3110.5571	3126.1012	3130.8611	3170.5449	3183.774
CN=COC1C2CCC12	CN=CO[C@H]1[C@H]2CC[C@@H]12	
InChI=1S/C7H11NO/c1-8-4-9-7-5-2-3-6(5)7/h4-7H,2-3H2,1H3	InChI=1S/C7H11NO/c1-8-4-9-7-5-2-3-6(5)7/h4-7H,2-3H2,1H3/t5-,6+,7-
