20
gdb 79884	2.43206	1.76411	1.40553	0.3214	78.49	-0.2223	0.0522	0.2745	1030.7533	0.170876	-403.065188	-403.056973	-403.056029	-403.097319	32.488	
C	-0.0288724079	 1.5798079545	-0.0874351568	-0.449409
C	 0.0916652713	 0.0720160764	 0.0593181478	-0.014799
N	 1.1760264479	-0.8567066539	-0.3700324341	-0.226293
C	 2.5637156486	-0.4155263773	 0.0492172594	-0.018359
C	 2.9811194532	 1.061589176	 0.1378833273	-0.110674
O	 2.4569761627	 1.1563581485	 1.4946033082	-0.298922
C	 2.1554830646	-0.2600884896	 1.5075923934	 0.048302
C	 0.7341889045	-0.7297092718	 1.1169655604	 0.290841
C	 0.0576727114	-1.8514589133	 1.8517598135	-0.490784
H	 0.0841400384	 1.8754164722	-1.136297165	 0.121596
H	-1.0415656532	 1.8650601066	 0.2174184227	 0.116057
H	 0.6712771995	 2.1326565392	 0.5315280086	 0.160568
H	-0.831297002	-0.4084028348	-0.2697021158	 0.099068
H	 3.2967777095	-1.1341610166	-0.3131103396	 0.092142
H	 4.0695367817	 1.2003579456	 0.1351138664	 0.107238
H	 2.5235450151	 1.7764907818	-0.5502081432	 0.113597
H	 2.6085873409	-0.7808524468	 2.3546284507	 0.082469
H	-0.3870971525	-1.4875045014	 2.7861021892	 0.125345
H	-0.738278541	-2.289521328	 1.2430918224	 0.130295
H	 0.7653015972	-2.6485809773	 2.1063351844	 0.121722
168.2982	180.0167	208.8355	224.2412	285.7558	295.1295	331.6059	350.7886	513.7885	568.6888	610.823	662.024	717.0948	796.9088	862.7839	874.2998	894.2222	925.6249	954.614	982.5992	1029.1607	1047.0746	1063.4763	1081.3018	1116.4981	1135.8711	1160.2292	1168.0849	1202.7978	1241.5191	1255.8024	1306.1496	1318.9609	1348.3046	1368.2281	1404.7816	1411.37	1467.3674	1481.9666	1491.1249	1497.9592	1512.0722	1529.6195	3023.6953	3025.3228	3039.124	3078.4636	3083.7083	3085.0505	3092.0454	3099.174	3112.6661	3124.8751	3194.0216
CC1N2C3COC3C12C	C[C@H]1N2[C@H]3CO[C@H]3[C@@]12C	
InChI=1S/C7H11NO/c1-4-7(2)6-5(3-9-6)8(4)7/h4-6H,3H2,1-2H3	InChI=1S/C7H11NO/c1-4-7(2)6-5(3-9-6)8(4)7/h4-6H,3H2,1-2H3/t4-,5+,6-,7-,8?/m1/s1
