19
gdb 39857	3.14681	1.85003	1.5245	1.5932	78.24	-0.2278	0.0758	0.3036	921.8586	0.16298	-381.983109	-381.976673	-381.975729	-382.013537	27.611	
C	 0.009206086	 1.4655930285	-0.0300659126	-0.345784
N	 1.2220908928	 0.6170001337	 0.0754643535	-0.399174
C	-0.0971492831	-0.0042400759	 0.0083784878	 0.445635
C	-0.5839239571	-0.9083622406	 1.1368034361	-0.139656
C	 0.2262053302	-2.1686605172	 0.7799556429	-0.167076
N	-0.6383324233	-2.281338173	-0.4514508757	-0.154756
C	-1.7632377198	-1.612555975	 0.3475582761	-0.001252
C	-2.1449954505	-0.8056766065	-0.8950588563	-0.236214
C	-0.6195043383	-0.8867980311	-1.1252844826	-0.104484
H	-0.2067256559	 2.0590751925	 0.854462867	 0.119851
H	-0.1911680129	 1.9734343347	-0.9713896606	 0.110767
H	 1.6856862442	 0.5683178001	-0.8293540541	 0.2293
H	-0.6679765803	-0.4939805143	 2.1413859561	 0.067261
H	 1.3020762562	-2.0589134725	 0.6185611878	 0.110258
H	 0.0240231547	-3.0340755948	 1.4170804577	 0.103739
H	-2.4511507502	-2.2532092917	 0.9006275992	 0.079057
H	-2.7083038806	-1.4256163532	-1.5956352686	 0.112319
H	-2.5974955687	 0.1822425533	-0.7916304428	 0.100074
H	-0.1546076334	-0.8119696668	-2.1091378508	 0.070137
175.0718	261.305	309.0419	412.8296	424.3365	516.3612	582.9315	721.1896	749.5084	752.7665	815.5016	851.137	882.3244	900.6282	923.2564	939.7875	948.0132	958.9062	977.1312	1000.7138	1006.8398	1044.2711	1063.4291	1070.6102	1093.1179	1131.9435	1149.6337	1172.076	1202.3683	1208.5522	1231.9787	1239.2585	1257.2769	1265.6799	1273.8038	1284.3155	1329.1202	1433.1319	1482.5936	1503.5454	1521.835	3054.3019	3070.8878	3097.8852	3106.3712	3108.9223	3113.8342	3118.7237	3134.2437	3181.332	3485.2275
C1NC11C2CN3C2CC13	C1N[C@]21[C@@H]1CN3[C@@H]1C[C@@H]23	
InChI=1S/C7H10N2/c1-5-4-2-9(5)6(1)7(4)3-8-7/h4-6,8H,1-3H2	InChI=1S/C7H10N2/c1-5-4-2-9(5)6(1)7(4)3-8-7/h4-6,8H,1-3H2/t4-,5-,6+,7-/m1/s1
