15
gdb 85088	2.44057	1.32007	0.89018	3.7613	70.23	-0.2479	-0.0887	0.1592	1228.5721	0.11125	-457.799832	-457.791399	-457.790455	-457.833535	30.075	
O	-0.1345390331	 1.5064268442	-0.0812340934	-0.421092
C	 0.0187454079	 0.0954412865	-0.14297831	 0.069504
C	-1.3386058216	-0.5833411734	 0.1026343696	-0.345421
C	-1.5115837286	-1.5798761881	-1.0498942998	 0.317811
O	-2.379220019	-2.4117954151	-1.1626711916	-0.316397
C	-0.4014919323	-1.3247647062	-2.013925159	 0.105644
C	-0.2725972634	-2.0189269064	-3.315753607	 0.076753
O	 0.6283415016	-1.8145159799	-4.0967207982	-0.260159
C	 0.4252761577	-0.3910434378	-1.5192613875	-0.162518
H	 0.7349271248	 1.9140066494	-0.1567707378	 0.290997
H	 0.764154715	-0.2418556812	 0.5948459966	 0.096146
H	-1.4262471444	-1.0829266403	 1.0693328235	 0.138704
H	-2.1291749713	 0.171519259	 0.0441897574	 0.159858
H	-1.0744130497	-2.7533155267	-3.5252408683	 0.108588
H	 1.3032017865	-0.0153416338	-2.0359828946	 0.14158
73.1275	107.0918	149.9552	174.3997	270.9477	309.4109	332.8742	401.9391	461.6185	562.0504	590.333	642.4441	715.9499	841.3432	887.7504	907.3907	981.1467	1016.4897	1043.6713	1058.05	1076.9659	1165.8905	1201.1845	1251.202	1268.447	1312.1728	1331.5234	1411.1369	1426.8974	1448.0288	1666.3267	1795.3242	1822.2175	2952.5034	2972.4802	3071.6434	3125.9763	3193.1154	3812.0287
OC1CC(=O)C(C=O)=C1	O[C@H]1CC(=O)C(=C1)C=O	
InChI=1S/C6H6O3/c7-3-4-1-5(8)2-6(4)9/h1,3,5,8H,2H2	InChI=1S/C6H6O3/c7-3-4-1-5(8)2-6(4)9/h1,3,5,8H,2H2/t5-/m1/s1
