17
gdb 124642	4.41418	0.92887	0.85076	4.1818	71.35	-0.245	-0.0555	0.1895	1372.093	0.134871	-451.27833	-451.269522	-451.268577	-451.312522	31.781	
C	-0.0058650065	 1.5355612427	 0.0584713517	-0.389082
C	 0.0113684107	 0.0040824	-0.0391474497	 0.059424
C	 0.7664665166	-0.4919805893	-1.2720458421	-0.404666
N	 0.5969383864	-0.6223452879	 1.1508877952	-0.377817
C	-0.0498385838	-0.6503404119	 2.3380150774	 0.525925
N	-1.31221175	-0.3682440342	 2.5521399696	-0.212137
O	-1.4645472765	-0.6156117937	 3.8989094687	-0.148631
N	-0.2683614622	-1.0229173768	 4.4241554983	 0.050702
N	 0.5926178186	-1.0492037412	 3.5056332041	-0.240735
H	 1.0141035033	 1.9335618948	 0.1029714938	 0.113126
H	-0.5014426179	 1.9687137873	-0.8159152389	 0.122639
H	-0.5464272643	 1.8615157696	 0.9506198446	 0.142549
H	-1.0229729604	-0.3539311027	-0.0877568345	 0.121329
H	 1.8152410618	-0.1715915606	-1.2431449985	 0.117392
H	 0.7422377372	-1.5830280836	-1.3356912682	 0.131305
H	 0.3218071678	-0.079750207	-2.1814786167	 0.129902
H	 1.6034211992	-0.6449175856	 1.2200098253	 0.258778
58.5409	74.0966	134.0668	228.9448	260.4139	305.204	319.0463	390.184	420.7083	462.3155	488.5929	642.5915	774.6	796.6762	813.3579	851.5672	924.0043	934.2697	953.6869	991.2511	1062.151	1102.8639	1148.9361	1177.8358	1194.4054	1269.2791	1354.311	1383.3218	1401.3251	1422.3206	1453.199	1485.3142	1487.769	1501.1228	1510.0108	1556.0833	1661.493	3031.2869	3035.9571	3054.1905	3101.4331	3109.4837	3124.9705	3128.3545	3620.1664
CC(C)NC1=NON=N1	CC(C)Nc1nonn1	
InChI=1S/C4H8N4O/c1-3(2)5-4-6-8-9-7-4/h3H,1-2H3,(H,5,7)	InChI=1S/C4H8N4O/c1-3(2)5-4-6-8-9-7-4/h3H,1-2H3,(H,5,7)
