18
gdb 60507	3.33199	1.12419	0.90582	3.2133	80.57	-0.2432	-0.042	0.2012	1282.6324	0.147312	-398.119756	-398.110406	-398.109461	-398.154348	33.556	
C	 0.76452218	 1.44574498	-0.0931404636	-0.352575
N	 0.0476842689	 0.1869574641	 0.0792046833	-0.097778
C	 0.0957818306	-0.4114766531	 1.3863394289	 0.049416
C	-0.5345350805	 0.3314893542	 2.5370759963	-0.292508
C	-1.1709911156	-0.9260522844	 2.0032367312	-0.244076
C	-0.1679328507	-0.6525735107	-0.9883704132	 0.296057
N	-0.3764127778	-1.9110241183	-0.8564294084	-0.516209
C	-0.1898295896	-0.0180370758	-2.3002701608	 0.228435
N	-0.2225242921	 0.4066428642	-3.375918508	-0.33996
H	 0.5580449954	 1.8681273863	-1.0775596322	 0.164449
H	 0.4322177017	 2.1572649925	 0.6653756414	 0.137999
H	 1.8510135006	 1.3151531139	 0.0090773955	 0.128824
H	 1.00418284	-0.9756805918	 1.5932002231	 0.102469
H	-0.0263732329	 0.3031448384	 3.4942008044	 0.1212
H	-1.0330378116	 1.2696788037	 2.3202323251	 0.12132
H	-2.0790822788	-0.8199470738	 1.4230998005	 0.12881
H	-1.1087258691	-1.8394385322	 2.5824364185	 0.124649
H	-0.5870237186	-2.3372539571	-1.755892892	 0.239481
66.4693	84.2675	144.5929	153.6736	174.6606	225.4186	323.2657	334.3118	416.0522	438.248	516.8923	598.0488	724.5832	727.4349	775.7102	825.3411	833.9625	854.743	952.8263	989.2015	1065.5539	1078.0966	1082.4435	1121.4869	1124.0945	1158.9822	1192.2052	1218.7673	1262.0936	1281.0849	1392.2282	1428.0114	1462.0391	1472.5775	1487.3053	1501.8404	1520.8416	1662.8877	2340.8636	3008.5067	3101.7211	3109.6875	3139.0227	3146.96	3154.2708	3222.4959	3244.0441	3522.7159
CN(C1CC1)C(=N)C#N	CN(C1CC1)C(=N)C#N	
InChI=1S/C6H9N3/c1-9(5-2-3-5)6(8)4-7/h5,8H,2-3H2,1H3	InChI=1S/C6H9N3/c1-9(5-2-3-5)6(8)4-7/h5,8H,2-3H2,1H3
