21
gdb 83873	1.99975	1.83579	1.2912	1.9128	78.15	-0.2414	0.0708	0.3122	1084.6725	0.183599	-424.211572	-424.202877	-424.201933	-424.244702	33.777	
C	-0.3355597876	 1.4769234089	-0.1364171273	-0.411858
C	-0.0386098058	-0.0008224829	 0.0079700895	-0.031533
C	 1.3234728456	-0.5755931876	-0.3062461672	 0.056218
O	 2.3447721179	 0.32383807	-0.6288507685	-0.248892
C	 3.2845704272	 0.5376706608	 0.4149331759	-0.073926
C	 2.5946864527	 1.1430951558	 1.6358778441	-0.257436
C	 1.5345027063	 0.1757044844	 2.1921423765	 0.117092
O	 0.5626141879	 0.8408172802	 2.9965516134	-0.437176
C	 0.8075264085	-0.6059283332	 1.1165991348	-0.079623
H	 0.5822909575	 2.0574754108	-0.2461111823	 0.126306
H	-0.9380921898	 1.6509399191	-1.0339686375	 0.110009
H	-0.8861968082	 1.858136921	 0.7274840337	 0.130224
H	-0.8688884366	-0.6427980426	-0.2757091016	 0.082678
H	 1.3955938304	-1.5095389947	-0.8608700009	 0.086043
H	 3.7880336078	-0.4058461232	 0.6822001464	 0.088813
H	 4.0379253079	 1.2166576902	 0.0057718687	 0.108716
H	 3.3333551576	 1.3730597881	 2.4141263441	 0.087025
H	 2.1156726138	 2.0839240272	 1.3488188816	 0.117275
H	 2.067570453	-0.5711253673	 2.8045796761	 0.064801
H	 1.0284815766	 1.2921298641	 3.7089129175	 0.277388
H	 0.4536170672	-1.5708371291	 1.4669311931	 0.087856
85.6343	119.2693	195.9084	216.2089	292.7603	302.8038	331.0749	409.8268	413.4649	497.1076	546.6759	657.8105	668.9213	740.3948	774.5937	820.9799	901.1335	914.6248	962.2927	977.6297	1047.9678	1060.3432	1071.495	1082.0736	1097.0956	1113.6083	1149.2991	1162.7953	1189.0431	1225.4594	1252.804	1272.9216	1284.1956	1341.8142	1354.4742	1366.2031	1384.7477	1410.1671	1417.1094	1436.0354	1444.7443	1481.6786	1495.4468	1501.5302	1510.1098	2946.0973	2974.2699	3030.766	3044.6474	3085.4314	3093.468	3106.915	3109.9962	3127.0852	3137.7998	3149.8178	3802.2012
CC1C2OCCC(O)C12	C[C@H]1[C@H]2OCC[C@@H](O)[C@@H]12	
InChI=1S/C7H12O2/c1-4-6-5(8)2-3-9-7(4)6/h4-8H,2-3H2,1H3	InChI=1S/C7H12O2/c1-4-6-5(8)2-3-9-7(4)6/h4-8H,2-3H2,1H3/t4-,5-,6-,7-/m1/s1
