20
gdb 68653	5.15331	0.88629	0.8671	3.7357	83.09	-0.2566	0.0224	0.279	1410.6387	0.170335	-403.106635	-403.097774	-403.09683	-403.141015	33.271	
C	-0.0037131025	 1.4373326553	-0.0078472602	-0.504933
C	-0.002200851	-0.0658179403	 0.0085591429	 0.323459
C	 0.6132300695	-1.0261577602	-1.0646141395	-0.30987
C	 0.0041079168	-1.9279396653	 0.0211387182	 0.432459
C	 0.6351707526	-0.9945928262	 1.0925986195	-0.31527
C	-1.2494910338	-1.0081782056	 0.0239626103	-0.315294
O	 0.057846579	-3.3216841387	-0.0557854411	-0.234874
C	-0.5103816273	-4.0148351721	 0.9535617501	 0.108588
N	-0.490257613	-5.2764988095	 0.9364699313	-0.445624
H	 1.018068613	 1.831112011	-0.0222093158	 0.123706
H	-0.5235071216	 1.8200881068	-0.89250429	 0.123699
H	-0.5065626208	 1.8403843748	 0.8777710214	 0.121708
H	 0.1266265665	-1.0431663298	-2.0430971687	 0.098314
H	 1.7028603365	-1.031742821	-1.149317318	 0.098319
H	 1.7263067653	-0.9943780647	 1.1578914405	 0.099779
H	 0.167886826	-0.9786411384	 2.0814137082	 0.090071
H	-1.8583224453	-0.9932371299	 0.9325106343	 0.090085
H	-1.8656343624	-1.0202479069	-0.8788485221	 0.099773
H	-0.9559917838	-3.3790869454	 1.7282353761	 0.087506
H	-0.9581262634	-5.6396780339	 1.7645252625	 0.228397
36.8535	80.3271	135.2862	207.0216	249.787	280.67	409.3702	417.038	453.3746	554.9373	556.4472	626.1286	741.9511	758.3781	794.2083	825.4802	936.6694	959.8698	968.0742	984.2108	985.9492	1044.8086	1049.3824	1085.2303	1090.5665	1130.3178	1134.0073	1141.0672	1167.827	1178.9386	1211.0833	1217.9934	1286.1185	1295.2796	1350.4373	1414.6355	1423.3314	1489.9119	1490.7405	1495.0054	1497.4372	1562.6145	1744.955	3029.7798	3044.7572	3046.3471	3051.1517	3060.4989	3097.3321	3098.845	3115.2852	3120.0423	3125.7214	3515.0117
CC12CC(C1)(C2)OC=N	C[C@@]12C[C@@](C1)(C2)O[CH][NH]	
InChI=1S/C7H11NO/c1-6-2-7(3-6,4-6)9-5-8/h5,8H,2-4H2,1H3	InChI=1S/C7H11NO/c1-6-2-7(3-6,4-6)9-5-8/h5,8H,2-4H2,1H3/t6-,7-
