20
gdb 59977	2.6079	1.15141	1.07636	10.4332	70.78	-0.196	0.0232	0.2192	1237.4955	0.170864	-477.412763	-477.403326	-477.402382	-477.447288	34.484	
C	 1.1524493097	 0.2362861691	-0.881593726	-0.340683
N	-0.0354993658	-0.3336105212	-0.2019227308	-0.055425
H	 0.2265466708	-1.1540579726	 0.4066986357	 0.296644
C	-0.7216939456	 0.6645044282	 0.6810659753	-0.371222
C	-0.9753826468	-1.0600573596	-1.1389577683	-0.202957
C	-1.593352095	-2.2013798094	-0.3129469569	-0.043435
O	-0.6197755889	-2.6814380796	 0.6033370665	-0.459167
C	-2.8062701202	-1.6433906743	 0.5247620265	 0.359913
O	-3.7003613512	-1.0820086871	-0.1068275959	-0.441637
O	-2.6130742057	-1.8005660097	 1.7652394945	-0.4937
H	 1.8233622317	 0.6647166335	-0.1349647748	 0.16221
H	 1.6671391121	-0.5556393328	-1.4266680366	 0.17119
H	 0.8319661761	 1.0148179317	-1.5768649042	 0.168665
H	-1.4359344422	 0.1333979035	 1.3127249031	 0.232153
H	 0.0357213904	 1.1513213462	 1.2979607036	 0.144938
H	-1.230167563	 1.4004680083	 0.0570974888	 0.168882
H	-1.7570425757	-0.3883081161	-1.4966316574	 0.172188
H	-0.3640219453	-1.4187298375	-1.9704414429	 0.122433
H	-1.9322159319	-2.9887660953	-0.9938460243	 0.103134
H	-1.1689239436	-2.5513958654	 1.4444250643	 0.305874
73.9664	87.9756	122.0123	207.0106	224.326	256.278	263.4437	352.1565	399.0417	416.048	462.7754	509.9514	608.4331	653.5891	769.4626	820.7372	871.9038	945.0714	967.9006	982.0838	1003.831	1046.2419	1085.6182	1098.5197	1138.6457	1197.7356	1228.7643	1258.9873	1282.0594	1315.3331	1330.0023	1365.9434	1409.897	1447.8689	1469.4353	1474.4017	1482.3586	1489.3414	1505.912	1507.158	1525.1301	1552.4504	1795.2162	2938.3502	3013.4369	3057.5061	3061.9911	3067.7781	3074.3669	3145.7321	3151.7718	3154.4924	3162.7674	3167.3033
C[NH+](C)CC(O)C([O-])=O	C[NH](C)C[C@@H](O)C(=O)[O]	
InChI=1S/C5H11NO3/c1-6(2)3-4(7)5(8)9/h4,7H,3H2,1-2H3,(H,8,9)	InChI=1S/C5H11NO3/c1-6(2)3-4(7)5(8)9/h4,6-7H,3H2,1-2H3/t4-/m1/s1
