15
gdb 54672	2.84215	1.44425	0.96906	2.8341	69.15	-0.2605	-0.0807	0.1797	1144.9379	0.111594	-457.833581	-457.825374	-457.824429	-457.867255	29.24	
C	-0.0326738134	 1.505217182	 0.036372897	-0.481386
C	-0.0251250086	-0.0031058429	 0.0396422613	 0.299098
O	-0.0325596202	-0.6589386392	 1.0602748941	-0.300844
C	-0.0070077828	-0.70892005	-1.2812628114	 0.037867
C	 0.0013464664	-2.0371406602	-1.4418040192	-0.158949
C	 0.01895754	-2.3591483026	-2.8993069865	-0.133944
O	 0.0200174288	-1.097740047	-3.5611888906	-0.227771
C	 0.004899081	-0.0830583517	-2.6354693762	 0.40618
O	 0.002563062	 1.072339146	-2.9545394502	-0.346231
H	 0.8422971053	 1.8892533613	-0.4975519475	 0.157639
H	-0.8998873029	 1.8804447647	-0.5161547292	 0.1576
H	-0.0455048132	 1.8660875297	 1.0649546375	 0.135696
H	-0.0037501325	-2.7744855839	-0.6499560308	 0.157973
H	 0.9114311058	-2.9261688979	-3.1947086457	 0.148534
H	-0.8611704058	-2.9349094483	-3.2142003024	 0.148539
41.2929	138.2553	156.3632	191.0197	232.8967	359.1841	365.1277	377.5393	592.1769	594.2072	611.1113	744.7918	784.3894	799.8597	861.2481	940.9673	978.2222	1015.7477	1033.2034	1053.1438	1091.5857	1129.3487	1200.788	1264.679	1317.6844	1367.1988	1393.041	1444.718	1465.3012	1482.6745	1670.0025	1784.3021	1864.8693	3023.6666	3049.7039	3054.8457	3110.4701	3161.8811	3236.6187
CC(=O)C1=CCOC1=O	CC(=O)C1=CCOC1=O	
InChI=1S/C6H6O3/c1-4(7)5-2-3-9-6(5)8/h2H,3H2,1H3	InChI=1S/C6H6O3/c1-4(7)5-2-3-9-6(5)8/h2H,3H2,1H3
