18
gdb 83214	2.72813	1.5292	1.27913	0.8112	77.42	-0.2243	0.0317	0.256	1046.722	0.147068	-401.876082	-401.867752	-401.866808	-401.908779	31.812	
C	-0.3316458078	 1.4600484029	-0.1020762085	-0.330093
N	 0.0396861909	 0.0512239952	 0.0025400479	-0.089891
C	 1.3683657281	-0.4442811642	-0.3112860435	-0.056322
C	 2.5423902343	 0.5173511975	-0.2719657933	-0.110981
O	 2.4480509956	 1.2241428835	 0.9636366011	-0.263132
C	 1.7403109554	 0.4154141523	 1.9097060534	-0.072623
C	 1.0611862127	 1.2647790384	 2.8834137667	 0.308148
C	 0.4990847434	 1.9233239234	 3.7160592181	-0.430662
C	 0.8325687211	-0.4980811176	 1.0818951475	-0.063112
H	 0.45027444	 2.1700925153	 0.1883474405	 0.137861
H	-0.6245990065	 1.6554653935	-1.1385752083	 0.118191
H	-1.2060743908	 1.6313434201	 0.5317452777	 0.130145
H	 1.4301175367	-1.3085911284	-0.9678135118	 0.096423
H	 3.4843912814	-0.0499086858	-0.3378742273	 0.101653
H	 2.5375441791	 1.2658497961	-1.0719616937	 0.116386
H	 2.4478187812	-0.2351319637	 2.4535671219	 0.105048
H	 0.0021398962	 2.5145453915	 4.4451341063	 0.199878
H	 0.4597222289	-1.3976530202	 1.5640228254	 0.103084
100.5058	143.9573	179.8389	226.486	253.3254	265.3184	404.9121	463.4722	514.0468	523.9	621.6278	671.9745	711.1996	741.4129	794.9443	831.7637	866.6738	938.053	988.7684	1016.5174	1024.6582	1073.2822	1092.3899	1108.1467	1132.0201	1162.7958	1185.9818	1235.036	1295.5476	1308.7374	1310.6667	1355.4263	1362.9975	1412.4089	1463.6345	1489.2454	1508.4854	1518.5735	2241.8984	2943.9151	2982.2204	3028.5361	3064.2914	3095.118	3111.0115	3137.7607	3149.3437	3502.6804
CN1C2COC(C#C)C12	CN1[C@H]2CO[C@@H](C#C)[C@@H]12	
InChI=1S/C7H9NO/c1-3-6-7-5(4-9-6)8(7)2/h1,5-7H,4H2,2H3	InChI=1S/C7H9NO/c1-3-6-7-5(4-9-6)8(7)2/h1,5-7H,4H2,2H3/t5-,6-,7-,8?/m0/s1
