13
gdb 15023	2.7728	1.8928	1.27915	4.0798	63.37	-0.2839	0.0051	0.289	923.9502	0.093572	-361.403315	-361.395484	-361.39454	-361.435944	27.532	
C	 0.0926593961	-1.1786649645	-0.2139330848	-0.421622
C	 0.0603455579	 0.0130214432	-0.0809711642	 0.334566
C	-0.0234015232	 1.4672073067	 0.0694399862	-0.36141
C	 1.3142740224	 2.0767754345	 0.1392589198	 0.314806
N	 2.3499160027	 2.5811500162	 0.2153453908	-0.326965
C	-0.8798989777	 2.0897529442	-1.0452330425	 0.09121
C	-0.6532335531	 3.4409613048	-1.566440089	-0.191281
O	-0.2672062935	 2.2722975862	-2.3040175141	-0.211185
H	 0.1343354027	-2.2336509956	-0.3325469915	 0.214799
H	-0.5266340617	 1.6927850142	 1.0216239128	 0.163461
H	-1.8838994978	 1.6661385091	-1.0723203639	 0.118824
H	-1.4924478339	 3.9971260957	-1.9794405164	 0.128116
H	 0.1723469391	 4.0367704954	-1.1843743833	 0.146681
70.6106	128.1249	154.4628	163.0686	331.5805	363.606	371.1843	490.3254	576.1038	646.5496	656.2107	676.9593	780.6411	884.0315	905.4724	966.2538	1018.2807	1092.2822	1102.8309	1165.547	1173.3958	1263.6385	1291.2587	1316.4345	1419.4293	1525.8448	2251.5994	2370.2804	3006.5359	3099.1804	3116.3469	3194.0256	3501.3175
C#CC(C#N)C1CO1	C#C[C@@H](C#N)[C@H]1CO1	
InChI=1S/C6H5NO/c1-2-5(3-7)6-4-8-6/h1,5-6H,4H2	InChI=1S/C6H5NO/c1-2-5(3-7)6-4-8-6/h1,5-6H,4H2/t5-,6+/m0/s1
