19
gdb 117868	4.23834	0.58882	0.53164	1.2849	95.79	-0.242	-0.0111	0.2309	2043.5551	0.15563	-385.830092	-385.81936	-385.818415	-385.866574	37.611	
C	-0.0282670368	 1.3828512176	 0.0215766659	-0.230808
O	-0.0033772568	-0.0250875859	-0.0064965995	-0.231159
C	 0.6418373778	-0.5411707857	-1.1470007997	-0.047701
C	 0.5792881005	-2.0778308293	-1.0719945415	-0.216226
C	-0.8760791343	-2.5883365196	-1.0761902332	-0.384624
C	 1.3603540072	-2.6626529353	-2.1548712433	 0.434198
C	 2.0028695173	-3.141213114	-3.0626245647	-0.295513
C	 2.7212237537	-3.6808359842	-4.0847792039	 0.297806
C	 3.3598629983	-4.1589095123	-4.9914634297	-0.567285
H	 0.987365498	 1.8084755762	 0.0287654615	 0.10789
H	-0.568309489	 1.7985514174	-0.8434525987	 0.107774
H	-0.5434115253	 1.6817961446	 0.9374484814	 0.130001
H	 0.1496397717	-0.1924807869	-2.070443457	 0.09661
H	 1.6915030101	-0.2096981733	-1.186383728	 0.099822
H	 1.0422897004	-2.3630244022	-0.1171070724	 0.122347
H	-0.9065462674	-3.673013909	-0.9486911782	 0.125582
H	-1.4288125718	-2.1155992168	-0.2621672855	 0.137893
H	-1.3660189026	-2.3422131993	-2.0232448138	 0.123806
H	 3.9191904489	-4.5804497619	-5.7891641197	 0.189585
61.0591	71.7105	90.996	131.3226	183.6524	219.3633	235.1517	238.1926	298.2368	343.3936	389.0908	486.8422	502.5748	540.5356	550.5226	595.6859	605.3712	728.5834	883.3945	934.5255	992.3762	1035.9012	1113.1708	1134.4347	1164.5059	1181.8504	1201.8528	1226.6732	1264.6017	1312.4554	1339.5248	1396.0107	1418.412	1480.6735	1485.5639	1492.2736	1499.5159	1503.2245	1527.5094	2180.9038	2361.6779	2960.9265	2976.25	2997.0352	3018.6201	3020.2819	3049.3305	3117.1526	3121.685	3142.8334	3506.2536
COCC(C)C#CC#C	COC[C@@H](C)C#CC#C	
InChI=1S/C8H10O/c1-4-5-6-8(2)7-9-3/h1,8H,7H2,2-3H3	InChI=1S/C8H10O/c1-4-5-6-8(2)7-9-3/h1,8H,7H2,2-3H3/t8-/m0/s1
