15
gdb 50015	2.8629	1.21952	1.03753	4.389	68.75	-0.2548	-0.0375	0.2174	1152.0432	0.111815	-453.911761	-453.903727	-453.902783	-453.944963	29.117	
N	 0.0719509533	 1.1923853775	-0.250119633	-0.545621
C	 0.035121685	-0.0371500994	-0.0275278508	 0.422404
O	 1.0388788261	-0.9523419702	 0.2532312995	-0.261861
C	 0.0937805212	-2.0608623727	 0.3560892711	-0.154477
C	-1.0377176532	-1.0871739896	 0.0195902843	 0.186177
N	-2.3581115693	-0.9392842863	 0.5756813226	-0.359116
C	-2.233566361	-1.2936004295	-0.8557367018	-0.205571
C	-2.6586519977	-0.2274157709	-1.8149117531	 0.182208
O	-3.0341833313	-0.4686648253	-2.93403461	-0.257327
H	 1.0202969845	 1.5663721621	-0.2013269532	 0.238812
H	 0.3124658786	-2.8389090605	-0.3790214725	 0.136413
H	 0.0808429183	-2.4747056905	 1.3686593829	 0.130834
H	-2.6200689055	-1.7543139995	 1.125568243	 0.251471
H	-2.4367463387	-2.3122890607	-1.1787614717	 0.11432
H	-2.5942666803	 0.8000015754	-1.4054189073	 0.121335
78.2623	102.9489	161.7125	212.1385	274.5188	325.1902	389.4462	450.745	514.0398	616.6291	695.3146	765.8138	838.2752	863.1381	917.6471	948.3652	974.5629	983.3765	997.3687	1027.5799	1065.3504	1102.6238	1147.6628	1196.4971	1203.2208	1257.1772	1299.5209	1350.4566	1405.7081	1478.4958	1508.6401	1823.1761	1837.2469	2952.9444	3056.0301	3117.8475	3145.6213	3491.5663	3504.3698
N=C1OCC11NC1C=O	[NH][C]1OC[C@]21N[C@H]2C=O	
InChI=1S/C5H6N2O2/c6-4-5(2-9-4)3(1-8)7-5/h1,3,6-7H,2H2	InChI=1S/C5H6N2O2/c6-4-5(2-9-4)3(1-8)7-5/h1,3,6-7H,2H2/t3-,5-/m0/s1
