18
gdb 108976	5.11046	1.08906	1.01247	1.104	77.27	-0.2158	-0.0046	0.2111	1194.8396	0.148992	-401.856705	-401.849367	-401.848423	-401.888632	29.1	
O	 0.1493178704	 1.3748797426	-0.0020918931	-0.405385
C	 0.0201499073	-0.0285440837	 0.1220974744	-0.186593
C	-1.3967324472	-0.4969417728	 0.124356129	 0.307336
C	-2.5458343355	 0.1866377433	 0.1407214389	-0.219644
C	-3.5918035262	-0.9010576748	 0.0573519697	-0.024779
C	-3.1357387531	-2.1078305921	 0.9363919021	-0.061461
C	-3.6939027183	-3.019192663	-0.1598127718	-0.187561
N	-3.041140017	-1.9173942649	-0.9986675383	-0.147397
C	-1.8719457227	-1.9367883757	 0.0374804789	-0.107158
H	-0.2902809892	 1.6287020039	-0.8209192596	 0.28555
H	 0.580761704	-0.5613181385	-0.6660582116	 0.103137
H	 0.5108879861	-0.2912543384	 1.0690868374	 0.127034
H	-2.7138098162	 1.2527059877	 0.1805324221	 0.113754
H	-4.648358133	-0.6505172935	-0.0460495357	 0.072375
H	-3.1807063873	-2.2058246636	 2.0287724685	 0.064282
H	-3.235346421	-4.0024623267	-0.2989495109	 0.098126
H	-4.7794312557	-3.0748700895	-0.2825263677	 0.09929
H	-1.1534101455	-2.7496008102	-0.0851495325	 0.069092
81.41	174.2896	188.8994	325.9016	372.3704	444.4613	468.143	526.5205	691.4716	718.0583	741.9822	773.4625	818.7654	853.545	869.1095	912.668	934.8506	980.8507	986.414	1004.6643	1048.5488	1068.6603	1102.3249	1107.7412	1128.2675	1170.4317	1176.0465	1207.8024	1209.1897	1238.1896	1244.0834	1257.9792	1306.1525	1326.7835	1385.8466	1421.7533	1488.9805	1528.981	1688.2282	2951.6535	3019.9976	3029.8677	3049.4174	3102.539	3107.2315	3114.979	3243.6632	3806.817
OCC1=CC2C3CN2C13	OCC1=C[C@@H]2[C@H]3CN2[C@@H]13	
InChI=1S/C7H9NO/c9-3-4-1-6-5-2-8(6)7(4)5/h1,5-7,9H,2-3H2	InChI=1S/C7H9NO/c9-3-4-1-6-5-2-8(6)7(4)5/h1,5-7,9H,2-3H2/t5-,6-,7+/m1/s1
