14
gdb 20385	4.93597	2.09412	1.50904	4.9354	63.23	-0.1991	0.0021	0.2012	783.5134	0.111865	-374.885544	-374.879624	-374.878679	-374.915515	22.848	
C	 0.0140752891	 1.4271114383	 0.0811400336	-0.159281
C	 1.4914591714	 1.9362037556	-0.0992030621	-0.349427
C	 2.2070805014	 0.6297343217	 0.0245376266	 0.311289
C	 1.3391430419	-0.4202844804	-0.0878036229	 0.350414
N	 0.0135240399	-0.0158917491	-0.2980650644	-0.394868
N	 2.0001467649	-1.5958625992	-0.0595296074	-0.303464
N	 3.2831536188	-1.3192257585	 0.0655799784	-0.133732
N	 3.4152403079	 0.0302999656	 0.094705352	-0.319262
H	-0.2775282014	 1.5554300099	 1.1326690194	 0.109581
H	-0.6898706206	 1.9870599699	-0.5390610085	 0.118148
H	 1.6367357695	 2.3884861994	-1.088825986	 0.129084
H	 1.7473025622	 2.6918764421	 0.6487616166	 0.121951
H	-0.6847001416	-0.5606481003	 0.1920134789	 0.242686
H	 4.3384790866	 0.4191881648	 0.1941764159	 0.276882
158.4553	215.8142	309.6056	443.0339	540.172	571.6328	669.3231	696.7458	722.1179	744.0533	829.3149	862.1305	939.6409	1025.207	1030.8173	1040.9195	1076.3174	1159.4162	1186.5484	1196.4757	1252.2252	1296.6903	1323.1434	1365.4098	1376.62	1446.0619	1489.564	1516.9157	1559.3499	1626.9086	3005.7655	3020.4922	3079.7388	3096.2625	3563.501	3666.513
C1CC2=C(N1)N=NN2	C1Cc2c(N1)nn[nH]2	
InChI=1S/C4H6N4/c1-2-5-4-3(1)6-8-7-4/h1-2H2,(H2,5,6,7,8)	InChI=1S/C4H6N4/c1-2-5-4-3(1)6-8-7-4/h1-2H2,(H2,5,6,7,8)
