26
gdb 60043	2.46832	0.97243	0.89955	1.1115	93.26	-0.218	0.0778	0.2957	1531.7221	0.237957	-369.596241	-369.584962	-369.584018	-369.63231	42.199	
C	-1.8832493835	 1.1070897187	 2.2717538099	-0.390388
C	-1.9434661503	-0.3941638879	 1.9574422613	 0.035494
C	-3.2775960852	-0.9930730278	 2.4225744572	-0.380568
C	-1.6836137817	-0.6296350504	 0.4540176609	-0.251852
C	-1.5831546293	-2.0870274154	 0.0177548407	 0.337153
C	-0.5239952272	-2.9062504268	 0.7344365552	-0.445216
C	-2.799572727	-2.7875843712	-0.5022812199	-0.285569
N	-1.7081452741	-2.4445287658	-1.4054933955	-0.123404
C	-1.9545883039	-1.4355861738	-2.4237894017	-0.312716
H	-2.0247643998	 1.292881607	 3.3415787388	 0.108824
H	-0.920002685	 1.5391751243	 1.980271831	 0.109112
H	-2.6686020687	 1.6524374592	 1.734304793	 0.110425
H	-1.1384635709	-0.8810884449	 2.5232705045	 0.077389
H	-3.3222891735	-2.0721206181	 2.2519045341	 0.120452
H	-3.4331779803	-0.8146331457	 3.491766224	 0.108038
H	-4.1185476409	-0.5368022284	 1.8859645572	 0.107838
H	-2.4742634595	-0.1229491661	-0.1101291501	 0.090842
H	-0.7430436532	-0.1266862009	 0.1866191143	 0.091684
H	-0.7668617434	-3.0488078013	 1.7926429433	 0.114933
H	-0.4330766955	-3.8879254204	 0.2643875266	 0.123354
H	 0.4541966687	-2.4136719252	 0.6786418472	 0.111085
H	-2.9565878705	-3.8483600539	-0.3169511689	 0.104664
H	-3.718049875	-2.204592082	-0.5733335617	 0.098597
H	-2.7092196954	-0.6789779999	-2.1588622078	 0.099067
H	-1.0195713982	-0.9178506445	-2.6624598171	 0.119712
H	-2.2986674766	-1.9401823392	-3.3329014064	 0.121048
53.5851	95.707	132.7376	179.4219	194.7091	225.2919	237.8669	247.517	251.9725	318.0428	364.5772	376.0186	418.4531	448.0402	454.4941	506.8958	721.512	754.9642	825.3057	882.5304	905.4133	926.6976	942.9535	961.6433	970.412	1001.5008	1049.5807	1078.4431	1099.8893	1122.6566	1147.6055	1153.723	1185.0033	1194.1899	1209.7569	1267.3704	1292.6643	1324.5615	1365.4203	1374.3433	1399.316	1400.3598	1416.5574	1421.7128	1449.7365	1474.2104	1486.2717	1488.5307	1490.4467	1491.7915	1499.1637	1501.806	1504.9478	1508.9787	1516.2806	2976.563	3004.3397	3016.5789	3021.9521	3028.1255	3029.8126	3059.0631	3068.4057	3076.4896	3085.7895	3090.0781	3093.0993	3095.0593	3097.9702	3111.3255	3125.0082	3157.8946
CC(C)CC1(C)CN1C	CC(C)C[C@@]1(C)CN1C	
InChI=1S/C8H17N/c1-7(2)5-8(3)6-9(8)4/h7H,5-6H2,1-4H3	InChI=1S/C8H17N/c1-7(2)5-8(3)6-9(8)4/h7H,5-6H2,1-4H3/t8-,9?/m0/s1
