17
gdb 48511	3.37514	1.65692	1.45978	2.8851	75.99	-0.2428	-0.0297	0.2131	926.8526	0.136734	-384.623838	-384.617067	-384.616122	-384.655267	27.039	
O	-0.0245396537	-0.0390820123	-0.2258860525	-0.256664
C	 0.0472416087	 1.0942349549	 0.1912381729	-0.003305
C	 1.2788578964	 1.9070402695	 0.1807641392	 0.309007
C	 1.7504177754	 3.0465542193	 1.1351712557	-0.190723
C	 2.3887728559	 3.7029231339	-0.0665651057	-0.06759
C	 3.1607922242	 2.6605502425	 0.7453485419	-0.064942
C	 2.7466855616	 1.3644991542	 0.0059416927	-0.105565
C	 2.7075696228	 1.6907571881	-1.5059344085	-0.246083
C	 1.6977706031	 2.7871601961	-1.0974304609	-0.104131
H	-0.854068788	 1.612972415	 0.593243301	 0.070217
H	 1.3456791257	 3.4571020452	 2.0505721524	 0.095427
H	 2.7246897663	 4.7237888521	-0.1887547989	 0.092143
H	 4.0856437067	 2.8844331604	 1.2590925355	 0.092607
H	 3.0630572702	 0.3990487928	 0.3956018614	 0.082415
H	 3.6331755687	 2.0023860857	-1.9989945284	 0.09544
H	 2.2244850293	 0.8894770925	-2.0711770777	 0.122039
H	 0.9639983467	 3.2128865002	-1.7800552501	 0.079707
73.8631	159.8991	225.62	408.3296	437.449	536.4077	683.1846	714.5536	742.6736	775.6174	793.5484	817.7015	842.4728	870.938	921.0975	931.2076	962.6439	966.8796	990.9455	1019.7213	1037.3087	1049.1719	1072.3724	1080.3943	1096.953	1142.8753	1158.481	1207.9618	1223.8068	1230.3852	1267.4798	1290.9451	1324.7879	1348.5429	1426.8987	1483.7787	1794.075	2858.1249	3052.0276	3116.2829	3129.5436	3139.6922	3195.8612	3201.4106	3215.186
O=CC12C3C4C3C1CC24	O=C[C@@]12[C@@H]3[C@H]4[C@@H]3[C@@H]1C[C@@H]24	
InChI=1S/C8H8O/c9-2-8-3-1-4(8)6-5(3)7(6)8/h2-7H,1H2	InChI=1S/C8H8O/c9-2-8-3-1-4(8)6-5(3)7(6)8/h2-7H,1H2/t3-,4+,5-,6+,7-,8+
