20
gdb 57365	2.09307	1.57467	1.21239	3.8649	78.76	-0.2954	0.0061	0.3015	1137.1082	0.167964	-403.148012	-403.138098	-403.137154	-403.182229	37.168	
C	-0.3228606118	 1.5075747033	-0.1016526702	-0.436605
C	-0.0326656641	 0.0003298904	-0.0019785383	 0.161961
C	 0.9170776523	-0.2584007582	 1.1855599661	-0.422352
C	-1.348738636	-0.7763084678	 0.1884668813	-0.425345
C	 0.6644471881	-0.5008448353	-1.280436105	 0.271214
C	 0.5647644604	 0.1564283932	-2.6014603303	-0.223677
O	 1.7385547348	 0.2896154223	-1.8022118802	-0.263991
C	 0.9474643432	-1.9325636663	-1.3030016283	 0.276619
N	 1.1527216473	-3.0700229957	-1.3083347626	-0.345891
H	 0.574139617	 2.0663079424	-0.3807486381	 0.138304
H	-1.1129369219	 1.7254414883	-0.8269711195	 0.11382
H	-0.6644657099	 1.8761584426	 0.869862341	 0.120283
H	 0.4514397813	 0.0733743779	 2.1184227999	 0.116847
H	 1.1527559415	-1.322081971	 1.2866032743	 0.137635
H	 1.85642538	 0.2883642486	 1.0592213809	 0.132613
H	-2.0296513865	-0.6180250527	-0.6546101875	 0.116088
H	-1.1731499452	-1.85139016	 0.2870214472	 0.141734
H	-1.8541334271	-0.4340748088	 1.0967490872	 0.121069
H	 0.6788117949	-0.4431270479	-3.5021126445	 0.138893
H	-0.0380309282	 1.0546280947	-2.7017743434	 0.130781
58.4721	149.2746	188.4369	214.511	255.9552	261.2961	270.3931	302.3346	314.622	354.496	381.2519	447.3474	470.1919	574.4383	605.3769	618.3982	808.7917	869.2302	891.6917	939.2308	945.4541	958.9455	966.5488	1041.2297	1054.7248	1132.4867	1155.694	1174.2788	1237.4709	1246.0003	1288.8634	1355.7174	1397.3123	1400.583	1432.3683	1478.8174	1487.9566	1491.419	1502.7424	1503.4013	1519.3246	1526.6873	2354.723	3034.0541	3037.5848	3043.4956	3102.347	3104.5775	3108.1744	3111.7932	3114.2732	3116.3944	3125.1127	3201.2459
CC(C)(C)C1(CO1)C#N	CC(C)(C)[C@]1(CO1)C#N	
InChI=1S/C7H11NO/c1-6(2,3)7(4-8)5-9-7/h5H2,1-3H3	InChI=1S/C7H11NO/c1-6(2,3)7(4-8)5-9-7/h5H2,1-3H3/t7-/m1/s1
