17
gdb 106237	2.74042	1.45009	1.25616	1.5983	67.81	-0.2137	0.0142	0.2279	1043.8097	0.13644	-455.120919	-455.112463	-455.111518	-455.153919	31.945	
O	 0.6580113761	 0.1342449333	-0.7919660065	-0.411733
C	-0.1775312682	 0.3142297856	 0.3403849842	-0.173496
C	-1.4931452545	-0.4299538607	 0.2362441807	 0.227827
N	-2.4322385053	-0.1935566207	 1.3185762166	-0.324975
C	-3.0478825762	-1.310216248	 1.5073201286	 0.041491
N	-2.611439131	-2.384979078	 0.7794242053	-0.262292
C	-1.6645324294	-1.9015947731	-0.1881151018	-0.118526
C	-2.1381013838	-0.7704363152	-1.0878842282	 0.063386
O	-3.4932282199	-0.550994456	-1.3080430695	-0.440126
H	 0.3172990349	 0.688450332	-1.5004241447	 0.28841
H	 0.3855620109	-0.063868547	 1.2002897932	 0.118979
H	-0.3889591207	 1.3758921963	 0.5328324683	 0.105811
H	-3.8533022294	-1.4373277123	 2.2239041102	 0.130385
H	-3.2066810297	-3.1764211096	 0.5933279946	 0.256687
H	-0.8605760238	-2.5649410513	-0.484106075	 0.111359
H	-1.518402989	-0.6161810619	-1.9667324213	 0.093899
H	-3.7988570311	 0.0540803265	-0.6192343946	 0.292912
64.9376	197.423	203.142	226.3325	238.5672	319.6615	329.0493	371.0566	421.0691	512.1778	605.1456	645.1186	698.2504	756.7016	772.3609	892.8962	903.7549	954.1012	974.8009	1021.838	1045.4194	1072.6418	1081.7265	1131.8859	1147.5885	1207.5272	1219.358	1243.8228	1310.8764	1343.7787	1370.4993	1386.9391	1407.0915	1420.1411	1444.0016	1499.7533	1631.4069	3004.794	3071.908	3147.0231	3181.9712	3194.2864	3638.4894	3750.9939	3828.1269
OCC12N=CNC1C2O	OC[C@]12N=CN[C@H]1[C@H]2O	
InChI=1S/C5H8N2O2/c8-1-5-3(4(5)9)6-2-7-5/h2-4,8-9H,1H2,(H,6,7)	InChI=1S/C5H8N2O2/c8-1-5-3(4(5)9)6-2-7-5/h2-4,8-9H,1H2,(H,6,7)/t3-,4+,5-/m0/s1
