17
gdb 96734	1.89541	1.37684	0.85173	3.2805	74.8	-0.2572	-0.0282	0.229	1338.6461	0.134426	-455.136162	-455.126632	-455.125688	-455.17197	32.363	
C	-0.0868027422	 1.5403762463	-0.1744589757	-0.334386
N	-0.1465004914	 0.1089025308	 0.0287838579	-0.299417
C	 0.4044616568	-0.4716775758	 1.0003777737	 0.424523
O	 0.3021075374	-1.8551752197	 1.1213793077	-0.239255
C	-0.0436949519	-2.6152474529	 0.0329947907	 0.173129
O	-0.2235047213	-3.7874531933	 0.1460776975	-0.258195
C	 1.1825745691	 0.0741607502	 2.1425508371	-0.095251
C	 0.9994283522	-0.5116923038	 3.5066948983	-0.228911
N	 2.2470776503	-0.7254811478	 2.7782778389	-0.311589
H	 0.6028899799	 2.0865248004	 0.4802417511	 0.119152
H	 0.2008580251	 1.7352150959	-1.2127131441	 0.140006
H	-1.0901748839	 1.9602443771	-0.040035086	 0.141562
H	-0.1112804449	-2.0227438391	-0.8867838602	 0.132947
H	 1.4144515447	 1.1293438707	 2.0686445577	 0.111086
H	 1.069480066	 0.1497343197	 4.3651607842	 0.130615
H	 0.305735961	-1.3401520046	 3.60662915	 0.1419
H	 2.2387779329	-1.6605647543	 2.3766139314	 0.252085
63.5115	70.8357	83.1154	104.5688	164.1215	223.1259	266.1043	311.6267	338.8852	470.5382	573.7345	611.2413	706.7094	817.2737	858.0019	904.3466	972.1668	994.4624	1047.5125	1080.0388	1100.8573	1117.1717	1131.1105	1135.8931	1154.2565	1183.712	1261.7644	1275.8334	1311.1553	1387.1733	1394.8966	1451.6422	1484.2138	1501.7116	1505.0447	1772.3862	1865.7832	3016.695	3080.1307	3088.2791	3089.6793	3121.8296	3189.1715	3216.6245	3507.4423
CN=C(OC=O)C1CN1	CN=C(OC=O)[C@H]1CN1	
InChI=1S/C5H8N2O2/c1-6-5(9-3-8)4-2-7-4/h3-4,7H,2H2,1H3	InChI=1S/C5H8N2O2/c1-6-5(9-3-8)4-2-7-4/h3-4,7H,2H2,1H3/t4-/m1/s1
