18
gdb 68803	2.92299	1.28508	1.07802	1.0449	79.28	-0.217	0.0348	0.2517	1171.9216	0.145341	-401.863299	-401.854181	-401.853237	-401.89666	34.967	
C	-0.0319897131	 1.5662422105	 0.1279339141	-0.507402
C	 0.0289548852	 0.0731490644	 0.0913012835	 0.303355
C	 1.215803009	-0.7469669238	-0.3634940994	-0.379632
C	 0.627885346	-0.974121878	 1.0064747483	 0.311939
O	 1.3331057492	-0.8420688316	 2.1837001111	-0.459225
C	-0.7018329022	-1.7487609163	 0.8925094698	-0.244385
N	-1.1804916498	-0.7563645256	-0.1512486058	-0.354074
C	-0.677153001	-3.1444874252	 0.4874093632	 0.344795
C	-0.6252333263	-4.3032863513	 0.1702177533	-0.448455
H	 0.9357575614	 1.9847925337	 0.4177661861	 0.133405
H	-0.2948354445	 1.9710494455	-0.8562021669	 0.132229
H	-0.7797587766	 1.9166376708	 0.8492968931	 0.118421
H	 1.1031433284	-1.4803052834	-1.1574660883	 0.122832
H	 2.1621754884	-0.2146230927	-0.3395990177	 0.111716
H	 2.0565940699	-1.4795124824	 2.1797229566	 0.290657
H	-1.256336435	-1.6377690307	 1.8310160598	 0.109405
H	-2.007449633	-0.2824782737	 0.2043386762	 0.218729
H	-0.590473836	-5.3246093901	-0.118375857	 0.19569
98.3262	128.0823	170.8554	197.3117	253.6362	297.1972	347.5473	364.7774	398.0681	475.0849	516.9701	581.4122	609.6155	618.9253	651.2199	713.7661	765.2544	822.5305	860.1177	927.4593	959.9443	975.0922	995.1059	1057.0148	1068.3496	1111.5739	1162.0074	1195.3909	1227.0017	1271.0394	1309.0788	1351.9677	1374.7377	1409.9633	1434.8213	1480.7787	1494.8187	1527.7993	2232.2304	3024.437	3045.5556	3082.4061	3111.4724	3113.6796	3208.431	3488.8619	3503.6126	3781.9633
CC12CC1(O)C(N2)C#C	C[C@@]12C[C@]1(O)[C@@H](N2)C#C	
InChI=1S/C7H9NO/c1-3-5-7(9)4-6(7,2)8-5/h1,5,8-9H,4H2,2H3	InChI=1S/C7H9NO/c1-3-5-7(9)4-6(7,2)8-5/h1,5,8-9H,4H2,2H3/t5-,6+,7-/m0/s1
