18
gdb 55470	3.33984	1.19503	0.94008	3.7941	68.66	-0.2423	0.0303	0.2725	1223.2348	0.148759	-476.251896	-476.243398	-476.242454	-476.285621	31.776	
N	 0.6345160015	 0.0091800844	 0.7646440854	-0.517747
C	-0.2259294577	 0.3684255036	-0.2171139547	 0.363256
O	-0.0547893903	 1.2971878847	-0.9851194333	-0.376953
C	-1.4842298772	-0.4949771601	-0.3168355603	 0.01605
C	-1.666723041	-1.025603235	-1.7419914033	-0.086503
O	-2.8219725393	-1.844072676	-1.8178352328	-0.251441
C	-2.7427261806	-2.9255515891	-0.905138361	-0.077609
C	-2.5700466618	-2.4106771929	 0.5193625624	-0.0859
O	-1.420542695	-1.5760640532	 0.6077036538	-0.280521
H	 1.4857920773	 0.531998103	 0.882898789	 0.262291
H	 0.428825292	-0.7839733969	 1.3476797731	 0.274829
H	-2.3457682913	 0.1481017238	-0.0745700842	 0.104762
H	-1.7998775893	-0.1951904259	-2.4360277575	 0.138316
H	-0.7707996398	-1.5969232468	-2.0348984424	 0.096
H	-3.6716400257	-3.4954046949	-1.0025485365	 0.112246
H	-1.8958715778	-3.5829067891	-1.1627674349	 0.095169
H	-3.4660665971	-1.8460904126	 0.8213212189	 0.102821
H	-2.4177049568	-3.2341692372	 1.2232048385	 0.110935
39.4769	120.962	196.8456	253.414	272.1999	320.8933	360.6831	425.0463	463.0809	495.22	540.3168	610.3974	625.6927	725.2436	856.4896	886.3191	914.6728	955.1445	1014.9882	1067.8758	1093.1544	1105.9663	1131.8027	1146.0939	1147.8998	1244.4562	1273.9889	1300.2819	1320.32	1347.7009	1380.529	1392.8543	1406.4388	1420.0534	1479.4375	1485.6669	1492.8314	1596.4004	1797.8846	2970.6404	2977.0304	2987.6084	2991.9243	3088.955	3090.8283	3134.2943	3603.091	3744.6486
NC(=O)C1COCCO1	NC(=O)[C@H]1COCCO1	
InChI=1S/C5H9NO3/c6-5(7)4-3-8-1-2-9-4/h4H,1-3H2,(H2,6,7)	InChI=1S/C5H9NO3/c6-5(7)4-3-8-1-2-9-4/h4H,1-3H2,(H2,6,7)/t4-/m1/s1
