14
gdb 42202	3.02372	1.37377	1.03433	4.0133	69.19	-0.2884	-0.0981	0.1903	1098.0318	0.09956	-436.658618	-436.650716	-436.649772	-436.691855	28.352	
O	-0.0328942445	 0.0418984716	-0.6512437008	-0.272661
C	-0.0779183094	 1.1484059189	-0.1749303603	 0.208676
C	 1.156857954	 1.8222678949	 0.2893241758	 0.225171
N	 2.1195719285	 2.3468441959	 0.6567828623	-0.316033
C	-1.3084769374	 1.9396100239	 0.0377272816	 0.315775
C	-1.5058799536	 3.4065562075	 0.4566788599	-0.322093
C	-2.7795211424	 2.9676675861	 1.2593078019	-0.2413
C	-2.5274435152	 1.5251485448	 0.8064433302	-0.011115
O	-2.4996429171	 1.4993093791	-0.6068084687	-0.250308
H	-0.7093939828	 3.7761470412	 1.1043057451	 0.142033
H	-1.6557225447	 4.0959510302	-0.3758296122	 0.130343
H	-2.6650158333	 3.1058863631	 2.3358715937	 0.1263
H	-3.736206763	 3.38123783	 0.9342825512	 0.130583
H	-2.7195997093	 0.5877464229	 1.3163897803	 0.134629
48.996	121.2608	157.8481	236.34	277.19	336.8929	415.4277	482.0988	515.7	651.6028	743.6654	752.2578	775.8655	868.8811	883.6512	931.6919	935.1024	985.9968	1059.8739	1083.1381	1131.8354	1186.1929	1215.4917	1231.749	1275.8088	1282.8642	1405.362	1464.5378	1484.2758	1780.1635	2338.4464	3079.1649	3086.342	3133.8828	3150.12	3192.0139
O=C(C#N)C12CCC1O2	O=C(C#N)[C@]12CC[C@H]1O2	
InChI=1S/C6H5NO2/c7-3-4(8)6-2-1-5(6)9-6/h5H,1-2H2	InChI=1S/C6H5NO2/c7-3-4(8)6-2-1-5(6)9-6/h5H,1-2H2/t5-,6-/m1/s1
