15
gdb 10127	2.94136	1.51281	1.17344	3.9123	60.67	-0.26	-0.042	0.218	1026.5032	0.116283	-436.926885	-436.918202	-436.917258	-436.960795	29.594	
O	 0.1023033478	 1.4036678559	 0.1866655616	-0.41413
C	 0.0602506039	 0.0145483189	-0.0462838805	-0.080728
C	-1.37923081	-0.5041487236	-0.0015191985	-0.016919
O	-1.8383674661	-0.2630030368	 1.315486725	-0.202096
C	-3.0480772542	-0.7626247307	 1.673570992	 0.14766
N	-3.4979974123	-0.5113213875	 2.8218354445	-0.441342
C	-2.2335542663	 0.2031078124	-1.0518477719	 0.165659
O	-3.2943465785	 0.7172369426	-0.8264857695	-0.230847
H	-0.3359611733	 1.560211031	 1.0321133566	 0.305343
H	 0.4831215841	-0.1587111585	-1.0412333505	 0.120452
H	 0.65892525	-0.5513759013	 0.6814523596	 0.115598
H	-1.3851551701	-1.5823306755	-0.2385642432	 0.105793
H	-3.5152843064	-1.3801427561	 0.8987269752	 0.09707
H	-4.3983526943	-0.9673110278	 2.9522627794	 0.234352
H	-1.7911163443	 0.1823129971	-2.0727742797	 0.094137
83.1485	92.0976	108.437	161.4566	189.5912	260.2908	285.979	363.9515	446.4094	565.998	642.6423	696.6993	814.4439	841.1508	902.4427	950.7089	1034.3141	1037.7681	1079.076	1105.635	1164.297	1234.5587	1264.4349	1294.4019	1345.6271	1391.0177	1410.5552	1421.7559	1429.566	1497.0106	1749.6846	1846.9434	2888.4587	2966.9867	3011.134	3060.9078	3084.7679	3524.0134	3793.9806
OCC(OC=N)C=O	OC[C@@H](O[CH][NH])C=O	
InChI=1S/C4H7NO3/c5-3-8-4(1-6)2-7/h1,3-5,7H,2H2	InChI=1S/C4H7NO3/c5-3-8-4(1-6)2-7/h1,3-5,7H,2H2/t4-/m0/s1
