17
gdb 122046	2.33154	0.93855	0.75946	1.9039	72.85	-0.2555	-0.0489	0.2066	1503.6414	0.131327	-458.907271	-458.89697	-458.896026	-458.94432	35.213	
O	 0.0909427171	 1.4209731619	-0.4848218386	-0.418004
C	 0.0144567721	 0.0902741627	-0.0172114074	-0.063606
C	-1.4258837688	-0.3833077676	 0.0906701758	-0.081504
O	-1.9683876681	-0.3160398432	-1.2283041036	-0.271583
C	-3.3494011314	-0.6245871104	-1.2985626741	-0.113676
C	-4.1812014278	 0.5436590557	-0.7227724703	 0.141804
O	-5.0810645807	 0.4102419655	 0.0581603263	-0.224621
C	-3.7320703127	-0.8054226935	-2.6928306644	 0.271589
C	-4.0994746198	-0.9047657203	-3.832217543	-0.396218
H	-0.4048447978	 1.4427908329	-1.3112912085	 0.290758
H	 0.570389931	-0.6021063504	-0.6686741913	 0.100456
H	 0.4797802121	 0.068067421	 0.9734212562	 0.11564
H	-1.4767721042	-1.4142481236	 0.4731893671	 0.10163
H	-1.9852813633	 0.2698518033	 0.7759985666	 0.114776
H	-3.5884215654	-1.5249767013	-0.7132141601	 0.120132
H	-3.848177564	 1.533475403	-1.10430128	 0.100965
H	-4.4130422482	-1.0143632256	-4.8415273004	 0.211462
36.805	60.6727	65.2405	108.0547	173.7231	183.8607	271.7558	305.0765	348.3491	415.3938	454.0111	486.2368	493.542	606.3883	641.2106	684.364	868.0313	902.3637	940.9527	1032.9077	1040.4699	1060.5625	1086.7719	1126.8716	1132.6027	1235.0828	1258.1111	1270.1555	1332.612	1389.294	1393.8209	1414.8734	1438.4036	1496.1247	1507.3863	1842.9179	2239.782	2902.7914	2985.4289	2986.7729	3003.0833	3033.4721	3084.4626	3501.3302	3803.8054
OCCOC(C=O)C#C	OCCO[C@@H](C=O)C#C	
InChI=1S/C6H8O3/c1-2-6(5-8)9-4-3-7/h1,5-7H,3-4H2	InChI=1S/C6H8O3/c1-2-6(5-8)9-4-3-7/h1,5-7H,3-4H2/t6-/m1/s1
