21
gdb 60077	2.32714	1.1289	0.94393	1.1528	85.4	-0.236	0.0571	0.2931	1371.5423	0.17943	-387.047406	-387.037088	-387.036143	-387.08271	38.747	
C	-0.119242593	 1.5150679317	-0.0860357994	-0.401948
C	 0.1545318844	 0.0120806099	-0.1543746357	 0.130707
O	 1.2777161486	-0.2649866138	-0.9919852236	-0.433076
C	 0.4789437075	-0.5758317963	 1.2205828994	-0.267144
C	 0.5347102283	-2.1008005619	 1.2528624296	 0.174743
C	 1.8079227897	-2.7917485514	 0.7891513966	-0.276361
C	 1.4786619818	-2.7626776023	 2.251348324	-0.318212
C	-0.7162633221	-2.7636644725	 0.9922918034	 0.29407
C	-1.7739023315	-3.2966399133	 0.7760213985	-0.488154
H	 0.7440859604	 2.0449307789	 0.329632797	 0.12117
H	-0.3146556909	 1.9185639497	-1.086209415	 0.102581
H	-0.9950079831	 1.729862194	 0.5350624417	 0.115943
H	-0.7392682737	-0.4988552791	-0.5452759405	 0.081359
H	 1.0596989026	 0.0200792941	-1.8845695876	 0.280569
H	 1.4473756606	-0.1744090348	 1.5420007258	 0.100286
H	-0.2721837518	-0.2302367664	 1.9398683876	 0.102688
H	 1.6982684576	-3.7300760996	 0.2588767601	 0.121244
H	 2.5902019066	-2.1453923108	 0.4116425919	 0.133443
H	 2.0454662246	-2.1028817538	 2.8999274575	 0.114605
H	 1.1414117441	-3.6785514501	 2.721746964	 0.123084
H	-2.7013152407	-3.7765660722	 0.5851443647	 0.188402
46.4578	92.8493	137.6039	183.4653	219.2926	244.0594	263.743	299.258	327.4533	360.2115	463.8415	472.2103	539.6415	558.2434	578.3814	642.0525	706.7082	782.3584	834.8036	874.932	909.4334	923.4984	955.8541	960.7003	993.862	1057.5985	1072.6395	1082.5548	1109.3516	1135.5415	1190.462	1197.1689	1281.2045	1296.4467	1328.5859	1354.4324	1389.2143	1406.0302	1428.6111	1462.3279	1470.2555	1493.214	1498.8664	1500.0732	2227.9266	2983.6623	3026.294	3032.9206	3077.692	3094.2065	3109.9589	3134.9347	3152.3504	3223.0673	3244.9381	3504.2347	3822.919
CC(O)CC1(CC1)C#C	C[C@@H](O)CC1(CC1)C#C	
InChI=1S/C8H12O/c1-3-8(4-5-8)6-7(2)9/h1,7,9H,4-6H2,2H3	InChI=1S/C8H12O/c1-3-8(4-5-8)6-7(2)9/h1,7,9H,4-6H2,2H3/t7-/m1/s1
