13
gdb 132254	3.39902	1.25458	0.91635	2.9837	78.16	-0.2477	-0.0537	0.194	1156.4852	0.089411	-423.606562	-423.59949	-423.598546	-423.638216	27.094	
F	-0.0058840258	 0.0498054516	 0.0036049013	-0.06923
C	-0.010433517	 1.3791870407	 0.010492093	 0.324676
N	-1.1888173324	 1.9498870643	 0.0298085498	-0.361715
C	-1.2202268104	 3.297502511	 0.0371519648	 0.173756
C	-0.0573472918	 4.0751761785	 0.0250023083	-0.173548
C	 1.1749555753	 3.4284982605	 0.0045461177	-0.064798
C	 1.2163411174	 2.041577048	-0.0031603624	-0.257102
C	-2.5049790937	 3.9237606831	 0.0582779921	 0.2254
C	-3.5699969011	 4.4831863364	 0.0760153468	-0.361505
H	-0.1319719336	 5.1549088769	 0.0316001925	 0.117524
H	 2.0954220252	 4.0020364151	-0.0052938954	 0.121363
H	 2.1422357115	 1.4812398802	-0.0189060217	 0.124358
H	-4.5184160537	 4.9611952838	 0.0917381132	 0.200819
136.2038	146.3207	222.6943	375.2635	410.3989	472.1636	486.2392	545.1749	585.6756	627.3419	658.158	686.0256	722.4229	757.821	829.6232	912.8312	979.1448	999.3462	999.9423	1097.3286	1172.7992	1237.9555	1315.6913	1328.2275	1455.972	1478.1398	1612.8651	1628.7358	2233.4735	3191.3238	3218.2052	3222.3037	3501.1249
FC1=NC(=CC=C1)C#C	Fc1nc(ccc1)C#C	
InChI=1S/C7H4FN/c1-2-6-4-3-5-7(8)9-6/h1,3-5H	InChI=1S/C7H4FN/c1-2-6-4-3-5-7(8)9-6/h1,3-5H
