15
gdb 131570	7.0019	0.62348	0.59617	2.4642	81.94	-0.2237	-0.0029	0.2208	1789.7829	0.113816	-416.790684	-416.782134	-416.78119	-416.825704	29.872	
O	 0.2717237781	 0.9592653134	 0.892829546	-0.409256
C	-0.0321770276	 0.1463387285	-0.2363878972	-0.231141
C	-1.3870187172	-0.3726843344	-0.125277316	 0.235486
C	-2.507737219	-0.8143457352	-0.0576898595	-0.107172
C	-3.8123284407	-1.346099003	 0.0336061612	 0.12047
C	-5.0078536893	-0.7429791998	-0.3353525269	-0.163769
N	-5.9843831099	-1.6330839528	-0.0612470072	-0.175486
N	-5.5264333758	-2.7887036195	 0.4644984622	-0.206942
C	-4.213921984	-2.6206376716	 0.5246042006	-0.126686
H	 1.1752587026	 1.2734865331	 0.7831130718	 0.288136
H	 0.0570204469	 0.7206574629	-1.1734218083	 0.115339
H	 0.6689316209	-0.7007021121	-0.3163104129	 0.117124
H	-5.2102555296	 0.2281608338	-0.7569055329	 0.14408
H	-6.9742561762	-1.5223436038	-0.2022330048	 0.28028
H	-3.5804859792	-3.4033570793	 0.9136890938	 0.119535
24.9595	79.9662	95.9365	202.4148	228.3478	302.5504	396.1615	481.4581	516.9236	535.0278	603.4628	663.8952	696.2353	796.9521	891.9444	925.1153	948.1573	1025.0509	1025.639	1052.286	1085.5118	1168.6337	1235.0971	1246.6833	1254.0154	1330.624	1365.8757	1415.4924	1456.5615	1497.2353	1500.1717	1600.0722	2357.2786	2959.6029	2977.8764	3256.4962	3271.5874	3674.8122	3813.5077
OCC#CC1=CNN=C1	OCC#Cc1c[nH]nc1	
InChI=1S/C6H6N2O/c9-3-1-2-6-4-7-8-5-6/h4-5,9H,3H2,(H,7,8)	InChI=1S/C6H6N2O/c9-3-1-2-6-4-7-8-5-6/h4-5,9H,3H2,(H,7,8)
