18
gdb 73580	2.26515	2.16195	1.58497	2.7449	70.29	-0.2217	0.0741	0.2958	921.0172	0.14871	-439.034308	-439.026949	-439.026005	-439.06574	29.361	
C	-0.1130925769	 1.464311239	-0.0240782286	-0.464008
C	 0.0334761263	-0.0429223164	-0.0185556116	 0.41002
O	-1.1499524847	-0.6529491271	-0.4902188394	-0.307835
C	-1.4106728072	-1.8078130274	 0.2924570113	 0.035498
O	-0.7101972019	-1.6804549767	 1.524382221	-0.271322
C	 0.3357242606	-0.7642451559	 1.3304309316	 0.040491
C	 1.6808585528	-1.2455399714	 0.7464770095	-0.082612
N	 1.3625482579	-2.0395583633	-0.4615026539	-0.342834
C	 1.3912381247	-0.5663564041	-0.5566838848	-0.113011
H	 0.7968261657	 1.9450743989	 0.3484668078	 0.116897
H	-0.297057068	 1.8237472073	-1.041603995	 0.130041
H	-0.9551207521	 1.7671179873	 0.6043473664	 0.128612
H	-2.4856023251	-1.8473464259	 0.5084115135	 0.1002
H	-1.0811573524	-2.7073400467	-0.236921596	 0.115807
H	 0.4377354298	-0.1274405938	 2.2125994964	 0.086508
H	 2.6206857736	-1.374499059	 1.2685182418	 0.093414
H	 2.2448171495	-2.3856587015	-0.8363002023	 0.23383
H	 2.0632203473	-0.0603475233	-1.2397963778	 0.090302
149.274	221.3095	234.4477	261.9315	276.0586	333.0557	490.3685	560.7122	645.7605	653.8814	738.9933	799.4601	829.7429	853.8524	895.6667	911.7725	934.7287	946.5448	982.7168	1007.9625	1043.7896	1081.9215	1103.6617	1130.4494	1153.6405	1166.2829	1185.3243	1189.0524	1224.0955	1251.986	1285.6447	1325.9926	1356.2625	1381.052	1407.445	1441.536	1483.5374	1493.6989	1537.0377	3021.8668	3038.468	3077.1217	3083.2494	3109.0516	3119.4105	3180.797	3196.3064	3479.1453
CC12OCOC1C1NC21	C[C@]12OCO[C@H]1[C@H]1N[C@@H]21	
InChI=1S/C6H9NO2/c1-6-4-3(7-4)5(6)8-2-9-6/h3-5,7H,2H2,1H3	InChI=1S/C6H9NO2/c1-6-4-3(7-4)5(6)8-2-9-6/h3-5,7H,2H2,1H3/t3-,4+,5-,6+/m0/s1
