12
gdb 23724	5.78536	1.56653	1.23273	1.6529	62.86	-0.2063	-0.0667	0.1396	871.5409	0.08554	-418.830987	-418.824836	-418.823892	-418.861364	23.529	
F	 0.0487279447	 0.0282793171	-0.2824714685	-0.074923
C	-0.0242560299	 1.3340682147	-0.0325515429	 0.282319
C	-1.2207456705	 1.9637890398	 0.0330004219	-0.132931
N	-1.2303506596	 3.3057117365	 0.2929458543	-0.310403
C	-0.0778860981	 4.0654969642	 0.4950064212	 0.350588
N	-0.190001995	 5.3215438626	 0.7334919488	-0.561343
C	 1.1340916339	 3.2452582187	 0.3931417073	-0.068251
N	 1.1548669768	 1.9735274181	 0.1473416246	-0.258212
H	-2.1702421384	 1.4666998214	-0.1084230585	 0.152553
H	-2.1027674134	 3.8109512922	 0.3497386285	 0.274485
H	 0.7289155838	 5.7418375164	 0.8585276197	 0.216962
H	 2.0864224157	 3.7527157383	 0.5366822835	 0.129155
106.373	328.0744	357.4535	400.2054	441.9262	496.2148	512.5093	640.0096	657.5773	751.6014	775.6317	803.6739	846.9861	856.8848	935.274	992.0388	1091.4873	1201.741	1297.1762	1325.0726	1376.3134	1416.8641	1477.8774	1571.4602	1677.608	1703.5516	3147.9834	3233.9813	3504.9318	3619.0202
FC1=CNC(=N)C=N1	FC1=NC=C(NC1)[NH]	
InChI=1S/C4H4FN3/c5-3-1-8-4(6)2-7-3/h1-2H,(H2,6,8)	InChI=1S/C4H5FN3/c5-3-1-8-4(6)2-7-3/h2,6,8H,1H2
