18
gdb 36403	5.22415	0.82504	0.77091	3.7665	78.05	-0.2383	0.018	0.2563	1458.9606	0.147963	-398.077933	-398.069438	-398.068494	-398.111771	31.252	
N	 0.040243476	-1.181066623	-0.1449310016	-0.303139
C	 0.0210259059	-0.0273920184	-0.094341816	 0.27874
C	-0.0041755021	 1.4371271291	 0.0000871038	-0.29163
N	 1.3335862201	 1.9854374913	 0.0480055149	-0.081708
C	 2.1502396662	 1.7488610219	 1.2633058943	-0.252731
C	 2.5838801636	 3.2164885233	 1.1951875464	 0.339125
C	 3.1763921644	 4.074161256	 2.2359642272	-0.307797
N	 3.9352811971	 3.7218950139	 1.0155872715	-0.34994
C	 1.4619099828	 3.4582039541	 0.1842688739	-0.229871
H	-0.5193190738	 1.8310860059	-0.8839591825	 0.158357
H	-0.6221807231	 1.708198932	 0.8795879796	 0.124643
H	 1.5520238477	 1.5181331515	 2.1595179938	 0.100491
H	 2.9224674938	 0.9810790033	 1.1444416753	 0.122065
H	 2.8958610737	 5.1215807638	 2.3112008788	 0.123672
H	 3.4532862883	 3.6115876677	 3.1806806459	 0.116821
H	 4.6181618133	 2.9954984222	 1.2192518395	 0.23509
H	 1.7320550598	 3.9778733785	-0.739710557	 0.125309
H	 0.576848176	 3.9375556071	 0.6328780222	 0.092502
60.0831	75.0833	141.2053	261.5691	293.2838	304.9642	389.969	394.3369	406.0114	458.7668	593.7625	766.1014	826.4686	869.1586	910.5474	925.7744	943.9044	968.9791	983.3318	1001.1644	1048.8634	1095.0823	1109.2114	1130.5748	1140.2824	1182.1234	1206.2639	1257.7696	1264.0898	1272.838	1302.5155	1324.5989	1387.2011	1442.3313	1471.6828	1493.8785	1515.8515	1523.693	2367.2186	2906.2265	2970.7323	2979.5334	3058.3998	3061.8479	3080.1553	3101.4739	3185.2732	3493.9484
N#CCN1CC2(CN2)C1	N#CCN1CC2(CN2)C1	
InChI=1S/C6H9N3/c7-1-2-9-4-6(5-9)3-8-6/h8H,2-5H2	InChI=1S/C6H9N3/c7-1-2-9-4-6(5-9)3-8-6/h8H,2-5H2
