19
gdb 63220	2.34694	1.58875	1.23362	2.1653	81.74	-0.2278	0.0181	0.2459	1095.1869	0.158448	-382.053687	-382.044597	-382.043653	-382.08704	35.011	
C	-0.2253559195	 1.5993202733	-0.0515915326	-0.415707
C	-0.0124936444	 0.0871351921	-0.0120265431	 0.280233
C	-1.3456525054	-0.6551632446	-0.1954258896	-0.406891
N	 0.8989017032	-0.3220774564	-1.1051640193	-0.259689
C	 1.7494702976	-1.1236463267	-0.6013577952	 0.050028
N	 1.6268897571	-1.4356799772	 0.7466494723	-0.299828
C	 0.6975917093	-0.4379898551	 1.3144054553	-0.227625
C	 1.4001308163	 0.5647264386	 2.1112701278	 0.353878
C	 2.0001275857	 1.3575718795	 2.7880429038	-0.471976
H	 0.7240800411	 2.1315565722	 0.0347081424	 0.126817
H	-0.6883224674	 1.8734061685	-1.0034429278	 0.121546
H	-0.8799536264	 1.9286886028	 0.7616265014	 0.11042
H	-1.7656486841	-0.4267084647	-1.1783505311	 0.126765
H	-1.2009873734	-1.7380134369	-0.1311169262	 0.122819
H	-2.067924208	-0.3544672491	 0.571395153	 0.109696
H	 2.531251768	-1.611443409	-1.1779553343	 0.122879
H	 2.471277064	-1.6227070484	 1.2696529146	 0.245011
H	-0.0409644826	-0.9352337283	 1.9523426504	 0.109801
H	 2.5212588889	 2.0687868094	 3.3803509484	 0.201823
66.7295	150.9512	197.1293	222.8956	269.85	286.7671	333.2936	358.9146	376.9641	470.0677	519.9362	595.1854	621.0247	626.6517	639.9311	660.5488	803.5056	820.5908	909.5361	942.1265	952.2639	969.0915	1005.4911	1031.4137	1051.5651	1113.0745	1173.0067	1196.5138	1245.0011	1267.4696	1339.3856	1358.8748	1395.3721	1407.9494	1424.7574	1476.8324	1483.7475	1494.8112	1505.2166	1697.0338	2227.5767	3032.8178	3041.1055	3045.06	3103.6838	3114.7011	3122.3521	3132.3349	3175.9252	3500.7254	3592.8161
CC1(C)N=CNC1C#C	CC1(C)[N][CH]N[C@H]1C#C	
InChI=1S/C7H10N2/c1-4-6-7(2,3)9-5-8-6/h1,5-6H,2-3H3,(H,8,9)	InChI=1S/C7H10N2/c1-4-6-7(2,3)9-5-8-6/h1,5-6H,2-3H3,(H,8,9)/t6-/m0/s1
