20
gdb 112267	2.42975	1.23077	0.9006	1.7629	77.71	-0.2532	0.0173	0.2705	1356.7712	0.169467	-440.277792	-440.267999	-440.267055	-440.312997	34.853	
C	 0.3682148728	 1.5321598703	 0.1202031316	-0.390971
C	 0.0553635201	 0.037137236	 0.0079562136	-0.179805
C	 0.4246683844	-0.5278539169	-1.3476834835	 0.089049
O	 1.8792849865	-0.4706792369	-1.6007714664	-0.267548
C	 1.9770080962	-1.8419116822	-1.6562033907	 0.415543
N	 2.9751167744	-2.5929093909	-1.774680012	-0.550932
C	 0.4750645274	-2.0677257125	-1.5031051991	-0.022644
O	 0.0313548408	-2.775991763	-0.3865216768	-0.24097
C	 0.2103702055	-4.1796511083	-0.5082704887	-0.248516
H	 1.4330766539	 1.7179119554	-0.046600485	 0.135652
H	-0.1936756851	 2.1143103751	-0.6186616414	 0.114159
H	 0.1081099942	 1.9113108416	 1.1124851422	 0.117365
H	 0.5823485891	-0.528920283	 0.7817517478	 0.118722
H	-1.0143993444	-0.1468250527	 0.1649668071	 0.111428
H	-0.0954294686	-0.0080714436	-2.1585783363	 0.091355
H	 3.8436325386	-2.0558833204	-1.8214800087	 0.227866
H	 0.0077924457	-2.4404268263	-2.4270948877	 0.093066
H	-0.3549189174	-4.5767916142	-1.3652127354	 0.107211
H	 1.2681011053	-4.4382196048	-0.6316367323	 0.151144
H	-0.1744848394	-4.6259475126	 0.4109070118	 0.128827
78.5539	85.7423	114.1448	133.8759	175.8899	215.7091	242.0727	295.1117	340.148	419.3192	454.3426	544.4115	678.0621	746.5574	804.647	828.0038	873.0434	907.2112	941.38	981.3203	1029.7155	1034.3908	1070.1932	1098.9872	1153.9177	1184.5517	1186.0686	1225.9075	1243.4273	1257.4494	1283.6514	1306.7974	1354.1951	1386.8934	1407.331	1412.9561	1475.0645	1481.5374	1486.4724	1499.0622	1509.1482	1513.763	1817.0769	2988.8017	2993.7112	3037.357	3044.0783	3060.8077	3071.5528	3088.8922	3109.512	3119.9403	3130.1421	3464.4583
CCC1OC(=N)C1OC	CC[C@H]1O[C]([NH])[C@H]1OC	
InChI=1S/C6H11NO2/c1-3-4-5(8-2)6(7)9-4/h4-5,7H,3H2,1-2H3	InChI=1S/C6H11NO2/c1-3-4-5(8-2)6(7)9-4/h4-5,7H,3H2,1-2H3/t4-,5+/m1/s1
