22
gdb 18010	4.25903	1.35204	1.21987	0.1428	81.42	-0.2591	0.0809	0.3401	1110.1842	0.201458	-313.049409	-313.041278	-313.040334	-313.082147	31.418	
C	-0.1989790649	 1.5213833555	 0.0490427165	-0.377461
C	-0.0084520729	 0.0023994216	-0.0310865771	-0.198051
C	 0.7543290166	-0.5616076721	 1.1616975573	 0.065746
C	 0.0848690365	-0.5713811534	 2.5734586433	-0.255661
C	 0.5876785995	-2.0274468549	 2.8041337155	-0.004037
C	-0.4718369907	-3.1245040841	 2.5554597766	-0.217947
C	-0.1809558134	-3.0479532587	 1.0255562878	-0.231088
C	 1.0178234375	-2.0859542304	 1.2932064266	-0.04895
H	 0.7656945409	 2.0405741038	 0.0746775261	 0.111806
H	-0.7586781883	 1.9004659387	-0.8117730185	 0.109353
H	-0.7489972752	 1.8039959538	 0.9533406612	 0.1177
H	-0.9915982627	-0.4793009596	-0.1062272918	 0.09269
H	 0.5273429736	-0.2525678278	-0.9555882929	 0.09125
H	 1.7202126817	-0.04525339	 1.2330690209	 0.064359
H	 0.4557105118	 0.1781579652	 3.2765046084	 0.095877
H	-1.0081620491	-0.4947287509	 2.5457916744	 0.090025
H	 1.2868539782	-2.165374702	 3.6303274784	 0.057541
H	-0.1876033514	-4.0903840653	 2.9827717745	 0.095712
H	-1.4917293618	-2.8955288403	 2.8809014116	 0.090332
H	 0.1039239373	-4.0006254533	 0.5730260173	 0.098763
H	-0.9874958477	-2.6247382691	 0.4212710727	 0.097749
H	 1.9912707844	-2.4501779268	 0.958902121	 0.054293
69.8185	95.5756	168.3948	222.8778	285.1716	348.0651	382.3908	468.1424	615.6569	727.8729	745.4596	763.8301	784.1479	841.7994	884.9813	898.1029	912.9141	947.5112	967.0459	998.4787	1014.2643	1035.3289	1056.6595	1101.8983	1131.9584	1143.5211	1154.5993	1202.9213	1215.5261	1232.2528	1248.5208	1261.7299	1276.8987	1289.8211	1294.7643	1308.6956	1323.2689	1347.3715	1392.6798	1411.6795	1476.3902	1480.6724	1485.6285	1497.4131	1500.3156	1507.5517	3011.8678	3014.314	3029.4504	3036.4749	3042.2515	3047.0788	3062.2359	3076.3583	3086.8595	3089.4021	3096.022	3100.8265	3102.3683	3113.7021
CCC1CC2CCC12	CC[C@H]1C[C@H]2CC[C@@H]12	
InChI=1S/C8H14/c1-2-6-5-7-3-4-8(6)7/h6-8H,2-5H2,1H3	InChI=1S/C8H14/c1-2-6-5-7-3-4-8(6)7/h6-8H,2-5H2,1H3/t6-,7+,8-/m0/s1
