17
gdb 48040	8.4367	0.48925	0.48162	3.8616	82.31	-0.2643	-0.0625	0.2018	2203.6048	0.132814	-421.768469	-421.758791	-421.757847	-421.805059	32.766	
O	-0.0609788565	-0.014841337	-0.2504582584	-0.229105
C	 0.0984357225	 1.0695548007	 0.2612422053	 0.021084
C	 1.2546236878	 1.9036956304	 0.0616853212	 0.078417
C	 2.2072550701	 2.6318104984	-0.0796412278	 0.054313
C	 3.3742727416	 3.4743031917	-0.2820975516	-0.213182
O	 3.2506120055	 4.6696050602	 0.4678141978	-0.24781
C	 4.3396468645	 5.5256070759	 0.2833798833	 0.155691
C	 4.3625296576	 6.4331866629	-0.9210743822	-0.289423
C	 4.0691109913	 6.9812053755	 0.4625221908	-0.286527
H	-0.6599236973	 1.5087340176	 0.9407479371	 0.103816
H	 4.2777752222	 2.9155656372	 0.0162167402	 0.133155
H	 3.4832103108	 3.695476132	-1.3563262892	 0.13598
H	 5.2884220618	 5.1223825424	 0.6399864702	 0.08897
H	 5.3149128877	 6.6605231327	-1.3868627913	 0.118308
H	 3.5240417421	 6.3621888134	-1.6050944738	 0.124004
H	 3.042757143	 7.2564695467	 0.6754322842	 0.132434
H	 4.8180288854	 7.5874070693	 0.9587907141	 0.119875
36.816	55.6359	68.3886	117.857	172.5524	185.8376	235.9881	371.0491	397.7396	443.8941	504.7408	616.7868	760.0346	816.3893	829.404	855.8134	964.8928	987.1081	1014.5124	1021.6839	1049.413	1075.3698	1083.3751	1125.6605	1161.2813	1193.8283	1200.0935	1240.1556	1248.9823	1365.4344	1420.7489	1425.5594	1454.0517	1484.7755	1500.3223	1768.7467	2333.3585	2921.9328	2963.3078	2989.3059	3092.5822	3136.9767	3145.8119	3222.3054	3238.2154
O=CC#CCOC1CC1	O=CC#CCOC1CC1	
InChI=1S/C7H8O2/c8-5-1-2-6-9-7-3-4-7/h5,7H,3-4,6H2	InChI=1S/C7H8O2/c8-5-1-2-6-9-7-3-4-7/h5,7H,3-4,6H2
