25
gdb 86539	3.11601	1.00933	0.95266	1.4425	88.81	-0.2391	0.0774	0.3165	1436.6879	0.226432	-389.495332	-389.484621	-389.483677	-389.53063	40.615	
C	-0.4992606217	 1.3737470802	 0.1929350056	-0.398386
C	 0.1464897665	 0.0096863903	 0.0434504383	 0.173822
C	 0.8343498471	-0.3191287695	-1.2996824962	-0.337217
C	 2.1346780231	-0.3862748631	-0.4657944715	 0.166087
O	 1.408668507	-0.0834793706	 0.7522203869	-0.320421
C	 2.9382500655	-1.6951399931	-0.3799544156	 0.239491
C	 3.5933457553	-1.9541951929	-1.7473692211	-0.412144
C	 4.0249491924	-1.5021010681	 0.6954429801	-0.409816
C	 2.04255392	-2.8809434336	 0.0168503887	-0.418577
H	 0.1656592919	 2.1627967806	-0.1726317759	 0.117471
H	-1.436617684	 1.4179946265	-0.3731011714	 0.113106
H	-0.7251411995	 1.5759833069	 1.2446539959	 0.125533
H	-0.5417844109	-0.7720055027	 0.3927960592	 0.072948
H	 0.5212801869	-1.2513758403	-1.771415882	 0.107132
H	 0.8017442187	 0.482594371	-2.0401887389	 0.10324
H	 2.8362568497	 0.4286568983	-0.6974921149	 0.065238
H	 4.2355464385	-1.1182224653	-2.0472908262	 0.109128
H	 4.21659347	-2.8540127443	-1.7119696898	 0.112472
H	 2.8441434628	-2.1011524951	-2.5330387347	 0.109958
H	 3.5722925068	-1.2565934022	 1.6603789513	 0.132218
H	 4.6203188528	-2.4133190709	 0.8166539653	 0.10431
H	 4.7080212463	-0.6887087176	 0.425727214	 0.104555
H	 1.2882764505	-3.1006924809	-0.7459446531	 0.104045
H	 2.6449342283	-3.7859496766	 0.1472246596	 0.107267
H	 1.5285970757	-2.675794227	 0.9597320063	 0.128541
55.646	92.4469	162.6875	201.4069	234.7153	244.3821	246.4917	274.9996	296.585	309.1083	372.0199	386.1439	431.6735	471.201	533.5895	698.0466	756.4241	831.989	900.6869	904.028	920.8726	937.2916	940.9414	957.9165	991.2369	1013.1335	1035.2068	1055.0022	1087.9146	1094.3964	1134.909	1200.0209	1233.0268	1239.154	1253.4496	1282.2808	1294.8497	1336.2255	1371.2604	1388.7087	1395.8335	1398.6828	1408.215	1430.9667	1476.0691	1482.7034	1486.6144	1488.804	1491.2972	1493.4118	1505.3047	1507.3862	1522.8476	2985.4897	3005.4116	3022.4922	3027.9425	3030.5032	3035.8093	3077.022	3088.3372	3092.4871	3092.8495	3097.746	3102.4701	3110.192	3112.7917	3118.3322	3131.9938
CC1CC(O1)C(C)(C)C	C[C@H]1C[C@@H](O1)C(C)(C)C	
InChI=1S/C8H16O/c1-6-5-7(9-6)8(2,3)4/h6-7H,5H2,1-4H3	InChI=1S/C8H16O/c1-6-5-7(9-6)8(2,3)4/h6-7H,5H2,1-4H3/t6-,7+/m0/s1
