13
gdb 131288	2.66254	1.48911	0.955	5.8826	64.67	-0.2216	-0.0181	0.2035	1115.5886	0.090082	-486.095549	-486.087782	-486.086838	-486.128022	28.476	
O	-0.0746333882	 1.2902738563	 0.0101271499	-0.40717
C	 0.0315628173	-0.0358243695	 0.0026134495	 0.516622
N	 1.1221083001	-0.7172678159	-0.0067953983	-0.329427
N	 0.6748054172	-2.0461586261	-0.0112967251	-0.110991
C	 1.5524679435	-3.1225935873	-0.0213692368	 0.174278
O	 2.7505876281	-3.0210680846	-0.0270815516	-0.291732
C	-0.7289025653	-2.1442452614	-0.0041523855	 0.490538
N	-1.3942933252	-3.2250008986	-0.0059655437	-0.586747
N	-1.1091182577	-0.7964205285	 0.0045667984	-0.425799
H	 0.8226178755	 1.6523127598	 0.0072830465	 0.330279
H	 0.9870847617	-4.0673026051	-0.023112756	 0.13399
H	-2.3971294482	-3.0637934763	 0.0002016447	 0.222397
H	-2.0537428087	-0.4535811529	 0.012514808	 0.283762
107.4935	148.8557	196.8405	235.599	339.0003	350.8251	406.203	452.0941	464.3277	613.1449	663.0436	681.7907	711.7667	715.2603	738.1584	895.1767	1035.2819	1035.5461	1070.4628	1147.7592	1211.7442	1263.8852	1319.6742	1387.2685	1429.8274	1571.6879	1712.8036	1768.1409	1826.6879	3032.8288	3539.8708	3687.15	3781.2097
OC1=NN(C=O)C(=N)N1	OC1=NN(C=O)[C@H]([NH])N1	
InChI=1S/C3H4N4O2/c4-2-5-3(9)6-7(2)1-8/h1H,(H3,4,5,6,9)	InChI=1S/C3H5N4O2/c4-2-5-3(9)6-7(2)1-8/h1-2,4H,(H2,5,6,9)/t2-/m1/s1
