21
gdb 109546	2.02424	1.48736	1.01984	2.2266	78.72	-0.2475	-0.0238	0.2237	1256.0092	0.180418	-424.238665	-424.228544	-424.2276	-424.273541	36.994	
C	 0.0459118623	 1.7077345445	-0.0825805307	-0.391894
C	 0.0399847919	 0.1763380813	-0.0123922948	-0.172088
C	 0.6928116048	-0.4714384458	-1.2323866532	-0.081424
C	 0.7165152447	-2.0532841633	-1.2334059632	-0.104444
C	 0.6789955982	-2.8693404298	 0.0490054737	-0.412144
C	-0.5589288599	-1.9431144431	-2.0669700172	 0.327691
O	-1.6111139297	-2.5257214656	-2.0611616136	-0.320787
C	-0.2371416651	-0.5220527733	-2.51542546	 0.057988
O	-1.3227848688	 0.3423141639	-2.6724145828	-0.428663
H	 1.0699285351	 2.0926329299	-0.1478528652	 0.109732
H	-0.505666452	 2.0554765566	-0.9588441064	 0.144358
H	-0.4150235031	 2.1421023255	 0.8099625407	 0.109775
H	 0.5669877702	-0.1526320357	 0.8913327839	 0.098816
H	-0.9931712434	-0.1802874951	 0.0899844309	 0.0987
H	 1.6693130518	-0.0201603698	-1.4247320843	 0.075738
H	 1.5405638891	-2.3859811575	-1.8758177657	 0.102789
H	-0.1611216038	-2.578709364	 0.6848521035	 0.131009
H	 0.5641448298	-3.9322912974	-0.1828248214	 0.131861
H	 1.6028597702	-2.7470107002	 0.6228007546	 0.121248
H	 0.3879814603	-0.5064228453	-3.4173679876	 0.103988
H	-2.1172008824	-0.1732219158	-2.4796996812	 0.297751
72.2195	126.5858	165.4812	167.7716	189.672	209.7209	215.6099	259.2096	291.3404	329.5944	450.6306	510.2906	560.2939	588.4239	738.0465	775.1981	803.0216	813.4926	880.7955	956.3788	961.542	1014.2452	1023.0996	1068.129	1087.0586	1125.2432	1157.1973	1164.8024	1179.9478	1235.6101	1261.1305	1290.8725	1321.1232	1340.6502	1363.5051	1395.5984	1405.7241	1410.2487	1414.6118	1484.774	1493.5134	1497.1677	1499.2648	1514.8074	1857.5247	3020.539	3026.3967	3035.5198	3039.5757	3044.7976	3053.1177	3078.3481	3098.821	3110.5097	3124.5226	3132.8416	3758.3258
CCC1C(C)C(=O)C1O	CC[C@H]1[C@@H](C)C(=O)[C@H]1O	
InChI=1S/C7H12O2/c1-3-5-4(2)6(8)7(5)9/h4-5,7,9H,3H2,1-2H3	InChI=1S/C7H12O2/c1-3-5-4(2)6(8)7(5)9/h4-5,7,9H,3H2,1-2H3/t4-,5+,7+/m1/s1
