15
gdb 22091	2.85881	1.02317	0.76595	3.6485	73.91	-0.2424	-0.05	0.1924	1389.6414	0.109794	-453.900016	-453.890371	-453.889426	-453.93625	34.336	
N	 0.6265743926	 0.4229157966	 0.2022556755	-0.510988
C	-0.4671003725	 0.4064721729	-0.6013629007	 0.385036
O	-0.7134353111	 1.2680454936	-1.4227482762	-0.363011
C	-1.4862831923	-0.7249495859	-0.3750637736	-0.38876
C	-1.066669875	-2.0989990836	 0.1143383943	 0.175586
N	 0.0382817191	-2.258504106	 0.7520011319	-0.151545
O	 0.2495296615	-3.5671077743	 1.1544528271	-0.389915
C	-1.9819405565	-3.1615486268	-0.1412760665	 0.311605
C	-2.7944658068	-4.0143054156	-0.3888007605	-0.426341
H	 1.3193439766	 1.1291633235	 0.0111577936	 0.254479
H	 0.8738536475	-0.407554306	 0.7216095166	 0.261215
H	-2.2372066568	-0.3339381986	 0.3257708068	 0.160808
H	-2.0113281405	-0.8417449471	-1.325253765	 0.157829
H	 1.106282464	-3.5206162874	 1.5938538845	 0.311437
H	-3.5013023998	-4.7795146853	-0.5982195078	 0.212565
20.0822	40.049	132.7454	198.1233	248.248	270.4996	304.9951	380.2566	412.1741	444.2491	447.0232	526.4955	582.0905	630.8086	650.4309	661.1732	697.9708	716.248	838.7463	871.2635	945.2524	1056.3429	1140.2944	1190.5792	1224.6632	1344.6675	1365.5226	1404.5919	1447.5615	1614.9919	1686.1342	1800.303	2221.507	3027.1857	3114.7615	3498.1494	3536.2581	3692.6668	3808.8789
NC(=O)CC(=NO)C#C	NC(=O)CC(=NO)C#C	
InChI=1S/C5H6N2O2/c1-2-4(7-9)3-5(6)8/h1,9H,3H2,(H2,6,8)	InChI=1S/C5H6N2O2/c1-2-4(7-9)3-5(6)8/h1,9H,3H2,(H2,6,8)
