19
gdb 31711	5.01462	0.85823	0.774	0.8075	80.17	-0.19	0.0403	0.2303	1523.2589	0.158332	-423.051164	-423.041727	-423.040783	-423.086695	33.635	
C	 0.0439168892	 1.5390251643	-0.1815608971	-0.365092
C	-0.0296358168	 0.0405273429	 0.1557411134	-0.29817
C	-1.4189949817	-0.5185113446	 0.0733583134	 0.291597
C	-2.1666495161	-0.9984405453	 1.0984806	-0.148053
O	-3.4009726598	-1.4157248503	 0.6417119808	-0.196026
C	-3.4082563961	-1.1861475998	-0.6904765877	 0.4816
O	-4.5051264567	-1.5086303967	-1.383460013	-0.268526
C	-5.5902733902	-2.0819890425	-0.6578942109	-0.244439
C	-2.2360860767	-0.639441662	-1.1097666744	-0.449161
H	 1.0742600417	 1.9034071218	-0.1201818841	 0.109602
H	-0.3230297192	 1.7347445789	-1.1939260032	 0.120519
H	-0.5684804591	 2.1243283342	 0.5112590989	 0.119827
H	 0.6283073859	-0.512455264	-0.5272177281	 0.107105
H	 0.3655849039	-0.1271942163	 1.16410574	 0.100325
H	-1.9987554247	-1.1215147027	 2.1546910598	 0.127384
H	-5.9596178248	-1.3960809323	 0.1113567514	 0.134237
H	-6.3719503187	-2.2673162668	-1.3951492843	 0.1367
H	-5.2964851555	-3.0235816247	-0.1826652473	 0.134116
H	-1.9870205545	-0.3650891341	-2.1214468177	 0.106453
29.1708	63.8491	123.0954	173.086	188.6189	240.5854	267.7621	339.9887	424.475	491.4903	602.6794	631.1583	673.9662	693.2857	722.9578	763.1199	791.092	948.0585	958.8011	1006.7412	1058.9463	1063.9004	1089.7851	1125.8555	1177.3045	1192.8621	1201.2861	1244.2495	1287.3133	1329.619	1359.8034	1407.2646	1423.4419	1481.5328	1483.3495	1485.6278	1496.5983	1502.7369	1507.0189	1612.78	1667.7789	3020.6066	3032.4804	3036.3459	3060.1727	3099.0323	3107.2925	3111.4595	3148.6904	3266.7282	3284.0872
CCC1=COC(OC)=C1	CCc1coc(OC)c1	
InChI=1S/C7H10O2/c1-3-6-4-7(8-2)9-5-6/h4-5H,3H2,1-2H3	InChI=1S/C7H10O2/c1-3-6-4-7(8-2)9-5-6/h4-5H,3H2,1-2H3
