20
gdb 12698	3.21814	1.70005	1.32381	2.6744	69.87	-0.2557	0.067	0.3227	982.6495	0.17721	-386.149077	-386.140285	-386.13934	-386.182003	33.11	
C	 0.4132748424	 1.6617231532	 0.03534252	-0.386585
C	 0.0788611931	 0.1660412111	 0.0038715437	-0.03025
C	 0.6870874084	-0.5643745734	-1.2073461644	 0.137684
O	 0.5115535812	 0.1943673618	-2.3910868474	-0.439034
C	 2.1669420878	-0.8108434083	-0.8169758071	-0.247015
C	 2.1830345803	-0.8488901198	 0.7335306291	-0.247055
C	 0.7120558421	-0.6198802719	 1.1665711791	 0.137602
O	 0.56321656	 0.0835037564	 2.3876060246	-0.439009
H	 1.4928271015	 1.8429734429	 0.0291950652	 0.108171
H	-0.0105388775	 2.1590688211	-0.839467614	 0.125685
H	 0.0067042231	 2.1177873042	 0.9403106884	 0.125675
H	-1.0100066645	 0.0514694715	 0.0126054556	 0.072546
H	 0.1782716119	-1.5369638206	-1.3115487029	 0.060596
H	 0.8920380015	-0.3016796117	-3.1222206308	 0.281058
H	 2.5603221011	-1.7261117005	-1.2697419132	 0.08884
H	 2.7669013127	 0.0213303491	-1.197028659	 0.110263
H	 2.5831922987	-1.7860309496	 1.1323934273	 0.088911
H	 2.7930236763	-0.0374779714	 1.1414518512	 0.110228
H	 0.2041967434	-1.5959751522	 1.2368417261	 0.060633
H	 0.9583416664	-0.446133252	 3.0867116485	 0.281055
87.1256	124.4095	200.3277	247.77	257.6317	263.0058	268.3615	345.7361	407.351	486.915	554.6945	597.9478	625.0842	790.4404	831.103	841.3218	936.3305	989.8943	998.6337	1012.1184	1044.1761	1070.0018	1097.5879	1141.3707	1150.263	1200.5733	1232.2719	1252.0861	1257.615	1276.654	1278.3431	1317.7585	1364.0951	1375.5939	1388.1013	1401.2202	1424.459	1451.429	1486.0609	1495.7384	1502.4376	1511.7115	2948.7548	2959.9752	3044.7683	3048.2166	3054.039	3056.912	3081.5759	3102.285	3117.812	3138.8878	3823.4511	3823.5558
CC1C(O)CCC1O	C[C@H]1[C@@H](O)CC[C@H]1O	
InChI=1S/C6H12O2/c1-4-5(7)2-3-6(4)8/h4-8H,2-3H2,1H3	InChI=1S/C6H12O2/c1-4-5(7)2-3-6(4)8/h4-8H,2-3H2,1H3/t4-,5-,6+
