13
gdb 133579	2.69098	1.34026	1.12165	4.7764	55.65	-0.3098	0.0144	0.3243	1044.2809	0.085786	-547.118369	-547.110424	-547.109479	-547.151731	28.515	
F	 0.254311668	 0.1243224681	-0.0110958875	-0.073956
C	-0.0293932858	 1.4327431384	-0.0158384436	 0.294328
F	 1.1019846918	 2.0986124583	-0.2766035096	-0.06856
F	-0.8745595008	 1.6633146815	-1.0327257733	-0.073178
C	-0.6442158059	 1.8867901222	 1.2800254656	-0.17508
C	-1.4418130759	 0.9316760466	 2.1131723652	-0.2951
C	-0.098564236	 1.4263846717	 2.6213286333	-0.171847
C	 1.0186615989	 0.5272370618	 2.7288990657	 0.300617
N	 1.921131411	-0.1828426883	 2.8611368655	-0.331288
H	-0.9629806905	 2.9219363656	 1.2340010006	 0.136624
H	-2.330364522	 1.2989105218	 2.6113400754	 0.143579
H	-1.4840601767	-0.0978594744	 1.7806981572	 0.164427
H	-0.1189864762	 2.1768363567	 3.4045600455	 0.149433
51.9303	111.9356	179.281	233.5625	262.8937	366.6913	411.9646	525.1827	530.2049	553.8315	610.2504	701.036	770.9762	792.0217	855.5749	945.5991	1016.1223	1036.9518	1093.4467	1129.4744	1142.2685	1182.2924	1202.13	1213.7188	1293.0227	1382.1609	1436.8184	1490.3338	2363.9048	3158.8408	3169.5925	3187.0527	3254.7211
FC(F)(F)C1CC1C#N	FC(F)(F)[C@H]1C[C@H]1C#N	
InChI=1S/C5H4F3N/c6-5(7,8)4-1-3(4)2-9/h3-4H,1H2	InChI=1S/C5H4F3N/c6-5(7,8)4-1-3(4)2-9/h3-4H,1H2/t3-,4-/m0/s1
