17
gdb 19790	3.04946	2.6039	1.83239	3.0961	66.43	-0.2384	0.0692	0.3076	775.523	0.143735	-363.818946	-363.812337	-363.811393	-363.849394	26.4	
C	 0.0851133948	 1.5551195891	 0.0211962969	-0.39197
C	 0.0185990927	 0.0247473649	-0.0050207804	-0.018926
C	 0.6721699362	-0.6131569473	-1.2407509803	-0.056078
N	 2.1070804457	-0.321420227	-1.4116190243	-0.311938
C	 1.6927198986	-1.6073897498	-0.8115552557	-0.082292
C	 1.717888641	-1.609879272	 0.7058088824	 0.044283
O	 2.1171838197	-0.3727433676	 1.2980079462	-0.234508
C	 0.7167896564	-0.6418632717	 1.1853263248	 0.023916
H	 1.1285730192	 1.8762848186	-0.0006013774	 0.154389
H	-0.4289253974	 1.9854923971	-0.8442595607	 0.107277
H	-0.3855805786	 1.9562717831	 0.9245836497	 0.109491
H	-1.030591577	-0.3003841858	 0.0156320893	 0.073345
H	 0.0653137076	-0.7601006838	-2.1297048237	 0.084538
H	 2.3625827655	-0.4807218314	-2.3838694759	 0.230171
H	 1.873008392	-2.5342553355	-1.3449430957	 0.085499
H	 2.0003094474	-2.5092826387	 1.2463524376	 0.09283
H	 0.1896769764	-0.7389668124	 2.1331688771	 0.089971
158.1652	207.7355	227.6462	324.488	407.9644	537.9865	564.9327	688.7425	702.9968	791.1362	824.9887	853.254	862.2491	884.4473	902.4873	939.2901	959.5631	1027.8499	1032.3436	1058.7709	1090.8901	1126.6285	1134.3204	1149.7322	1170.8715	1228.577	1261.1128	1311.745	1324.0641	1330.7864	1376.0296	1399.0121	1425.9237	1430.6618	1494.6023	1503.8763	3018.4489	3039.0708	3100.2126	3122.125	3136.6557	3145.2967	3149.3316	3175.146	3490.0366
CC1C2NC2C2OC12	C[C@H]1[C@H]2N[C@H]2[C@H]2O[C@@H]12	
InChI=1S/C6H9NO/c1-2-3-4(7-3)6-5(2)8-6/h2-7H,1H3	InChI=1S/C6H9NO/c1-2-3-4(7-3)6-5(2)8-6/h2-7H,1H3/t2-,3+,4+,5-,6+/m0/s1
