18
gdb 13025	2.57518	2.48241	1.6219	1.2884	67.18	-0.2504	0.0702	0.3207	855.7224	0.153766	-384.932626	-384.92498	-384.924036	-384.963979	29.852	
C	 0.0390656245	 1.5642798571	-0.0698294175	-0.414543
C	 0.0523605568	 0.0477218912	 0.0252039815	 0.086454
O	 0.7622860793	-0.4809669202	-1.0939290155	-0.270584
C	 1.2251777763	-1.7892988864	-0.7575823249	-0.095079
C	 1.4995957152	-1.7494477008	 0.7336789363	-0.105879
C	 2.2569054495	-0.5351347548	 1.2372668885	-0.354522
C	 0.7499044598	-0.5541632366	 1.2447345943	 0.377013
O	 0.0340234058	-0.6177010009	 2.4377294454	-0.472389
H	 1.0568045584	 1.9647817527	-0.0517410573	 0.121254
H	-0.442543747	 1.8871930393	-0.9967263691	 0.128478
H	-0.5222036093	 1.9890020428	 0.7693020384	 0.108716
H	-0.9853021966	-0.3294533173	 0.0385423738	 0.071699
H	 0.4609328853	-2.5508014872	-0.9819855865	 0.09443
H	 2.1049371128	-1.9900278402	-1.3779055527	 0.107196
H	 1.5328223752	-2.6694427045	 1.3042595967	 0.098817
H	 2.7381345879	-0.642141109	 2.2030954394	 0.112392
H	 2.779801928	 0.0909300079	 0.5209749887	 0.120632
H	 0.1233512682	 0.2305493868	 2.8852209505	 0.285914
149.6266	214.358	233.5113	246.0313	288.4562	324.5478	401.3635	428.4303	539.0921	574.6457	667.5493	714.1873	838.1761	867.6587	889.5382	930.35	935.5299	996.2839	1047.5709	1061.7168	1077.7675	1091.5064	1117.1381	1121.797	1149.4909	1230.4134	1239.677	1282.8533	1328.454	1337.5269	1369.1657	1390.8708	1407.8102	1410.5499	1481.4104	1487.4373	1497.5947	1515.3347	2951.5024	2976.5699	3039.6155	3067.7932	3110.0125	3121.7652	3127.7518	3192.1337	3221.6887	3801.3035
CC1OCC2CC12O	C[C@H]1OC[C@H]2C[C@@]12O	
InChI=1S/C6H10O2/c1-4-6(7)2-5(6)3-8-4/h4-5,7H,2-3H2,1H3	InChI=1S/C6H10O2/c1-4-6(7)2-5(6)3-8-4/h4-5,7H,2-3H2,1H3/t4-,5-,6-/m1/s1
