23
gdb 121133	2.8634	0.85525	0.78491	1.2569	82.23	-0.2524	0.0745	0.3269	1573.9742	0.203672	-425.415531	-425.405	-425.404055	-425.45111	39.225	
C	-0.0834839427	 1.5723795703	-0.1043617	-0.448067
C	-0.0069844498	 0.050623028	-0.0258188931	 0.385794
O	-1.2897395202	-0.5274304958	-0.1924639389	-0.479034
C	 1.1537522742	-0.5477795932	-0.8813544848	-0.278078
C	 2.0078068836	-0.6410970526	 0.4105766453	-0.243038
C	 0.6981695414	-0.5183586391	 1.2406826992	 0.01662
C	 0.6811821254	 0.25172544	 2.5534235741	-0.21148
C	 1.4342651174	-0.4695114573	 3.6650937241	-0.075006
O	 1.3717276955	 0.3370871031	 4.832589483	-0.422243
H	 0.8947621661	 2.0374543291	 0.0500119533	 0.12084
H	-0.4351920364	 1.8798943997	-1.0976793067	 0.102553
H	-0.7769593613	 1.9688050144	 0.643147801	 0.126836
H	-1.7198548804	-0.1011336672	-0.941725946	 0.271588
H	 0.8703547994	-1.5346559613	-1.2555048639	 0.104459
H	 1.5383656581	 0.05563952	-1.7085107819	 0.087036
H	 2.6111768134	-1.5403819981	 0.5496500058	 0.097268
H	 2.6549671495	 0.2322620592	 0.5414832552	 0.098457
H	 0.2790416074	-1.5199368045	 1.3940184749	 0.081384
H	 1.1284390601	 1.2449287744	 2.4267267856	 0.098799
H	-0.3532610479	 0.4092458883	 2.8825339442	 0.110905
H	 0.9795330454	-1.45876656	 3.838868256	 0.084381
H	 2.4785970323	-0.6420230679	 3.3574959386	 0.08628
H	 1.8478864194	-0.1144664492	 5.5353661552	 0.283744
69.0068	89.3392	119.2662	141.101	256.6716	261.4011	267.6503	269.7452	278.8012	336.2915	347.6672	413.6223	503.9241	520.1861	614.2208	747.5825	787.208	824.0194	888.4853	898.0055	933.7248	950.0935	973.6926	1003.3649	1027.7149	1076.871	1097.1614	1132.0224	1152.2411	1178.4406	1194.2688	1206.9342	1233.4645	1247.0159	1255.6631	1271.7728	1300.8098	1316.9436	1329.2308	1370.1691	1398.1309	1407.7328	1460.8914	1476.3112	1486.8331	1491.9496	1498.4968	1500.504	1527.2387	2959.1662	2984.6529	3021.1119	3028.3874	3037.6121	3050.6111	3055.9249	3073.6193	3088.9362	3102.7665	3115.2335	3119.9156	3800.4216	3829.5816
CC1(O)CCC1CCO	C[C@@]1(O)CC[C@H]1CCO	
InChI=1S/C7H14O2/c1-7(9)4-2-6(7)3-5-8/h6,8-9H,2-5H2,1H3	InChI=1S/C7H14O2/c1-7(9)4-2-6(7)3-5-8/h6,8-9H,2-5H2,1H3/t6-,7+/m0/s1
