20
gdb 69658	4.00859	1.17093	1.08087	2.8085	78.73	-0.2371	0.0644	0.3015	1188.2623	0.170572	-403.085299	-403.07691	-403.075966	-403.118435	32.132	
C	 0.1041746644	 1.5330281154	 0.049396771	-0.489343
C	-0.042572414	 0.0450925246	-0.0587928565	 0.361055
C	-0.935135119	-0.7612031688	 0.7953187988	-0.286596
N	 0.5273217549	-0.9222266881	 0.9767100016	-0.199209
C	 0.9646064937	-1.8093378936	-0.1512827259	 0.311035
C	 2.4229074019	-2.2896874416	-0.1015832566	-0.134509
O	 2.016667556	-3.6741958458	-0.1176859096	-0.276006
C	 0.6221111004	-3.3106508652	-0.118163218	-0.123603
C	 0.4715895396	-0.8081570685	-1.2200171734	-0.399423
H	 1.1156126173	 1.8523836861	-0.2240881461	 0.122434
H	-0.6009709205	 2.0421478208	-0.6184250747	 0.123294
H	-0.0936009996	 1.8698272203	 1.0711068192	 0.130711
H	-1.4085454236	-0.2673279905	 1.6384885664	 0.120273
H	-1.5110080132	-1.5853060438	 0.3772847199	 0.111592
H	 3.0449882214	-2.0329499591	-0.9688687882	 0.096242
H	 2.9453049012	-2.016737846	 0.823178216	 0.112702
H	 0.1067774859	-3.6354866642	 0.795328634	 0.106235
H	 0.0941825515	-3.707045775	-0.995094031	 0.098848
H	-0.2705175065	-1.1551236396	-1.9461737973	 0.103209
H	 1.3003012182	-0.3429430573	-1.7606666998	 0.111061
67.5808	110.2335	183.6577	212.4365	296.5602	328.3966	387.4086	407.8047	448.5103	516.6346	647.0349	762.3251	808.0051	831.3806	856.5138	891.0238	940.4986	955.8268	969.8096	987.5496	1015.8691	1037.9623	1046.2656	1111.5718	1112.4229	1134.3609	1153.0179	1158.6436	1189.5039	1212.8879	1222.8539	1281.3284	1306.5059	1312.1616	1374.6677	1387.0535	1424.4855	1481.2055	1484.9922	1492.7245	1498.1643	1512.4189	1523.4533	3000.5574	3013.3936	3027.5705	3044.7639	3050.4352	3062.4992	3088.6648	3097.5508	3099.6042	3112.0591	3191.6551
CC12CN1C1(COC1)C2	C[C@]12CN1C1(COC1)C2	
InChI=1S/C7H11NO/c1-6-2-7(4-9-5-7)8(6)3-6/h2-5H2,1H3	InChI=1S/C7H11NO/c1-6-2-7(4-9-5-7)8(6)3-6/h2-5H2,1H3/t6-,8?/m0/s1
