19
gdb 85921	2.69166	1.30841	1.11685	3.595	71.33	-0.2677	0.0052	0.2729	1170.3292	0.157954	-460.22145	-460.212411	-460.211466	-460.254833	34.426	
C	-0.3962568557	 1.5864709516	 0.2305361741	-0.422341
C	 0.0061563211	 0.1372805991	-0.0113225794	 0.353438
C	-1.2144988675	-0.7796070087	-0.1065304099	-0.4178
C	 0.9838047164	-0.0369570149	-1.1994429819	-0.284679
C	 1.9100861817	-1.1525922051	-0.723558498	 0.012253
O	 3.2153597042	-1.0808483802	-1.2332977812	-0.438744
C	 1.8941454064	-0.9539163335	 0.7916277389	 0.396423
O	 2.7540557687	-1.3139637348	 1.549026531	-0.361817
O	 0.7892749265	-0.2839800248	 1.1602750312	-0.243345
H	 0.487853323	 2.2093378615	 0.3893579894	 0.130678
H	-0.9416625552	 1.9729876963	-0.6360727272	 0.124499
H	-1.0417527261	 1.6695890118	 1.1093983341	 0.131555
H	-1.861536121	-0.4629920769	-0.9301725791	 0.125168
H	-0.9233856515	-1.819211047	-0.2825033476	 0.125163
H	-1.7912373998	-0.7394522614	 0.821382848	 0.135121
H	 0.4615592308	-0.2605489522	-2.1312881499	 0.116561
H	 1.5812235835	 0.8683588042	-1.3432663909	 0.123226
H	 1.462598457	-2.1402404729	-0.9288044623	 0.098434
H	 3.7946986175	-1.3819468522	-0.5185496691	 0.296207
101.4252	107.9365	213.5129	241.9883	254.4863	310.9045	328.4667	335.4588	393.4065	418.3273	463.1007	536.4051	569.8953	614.4049	713.0262	803.7455	828.0738	929.7891	934.6673	961.6056	993.6849	1009.9634	1044.7807	1125.4587	1134.0324	1177.6956	1216.5953	1259.8909	1285.1156	1296.831	1312.8116	1383.3367	1405.2855	1420.7985	1427.0049	1474.5124	1484.4587	1494.2553	1498.3988	1506.7639	1864.7089	2956.5876	3041.2843	3045.6986	3066.0748	3114.5945	3117.863	3121.4952	3125.7621	3127.165	3740.3297
CC1(C)CC(O)C(=O)O1	CC1(C)C[C@@H](O)C(=O)O1	
InChI=1S/C6H10O3/c1-6(2)3-4(7)5(8)9-6/h4,7H,3H2,1-2H3	InChI=1S/C6H10O3/c1-6(2)3-4(7)5(8)9-6/h4,7H,3H2,1-2H3/t4-/m1/s1
