16
gdb 34946	3.64557	1.53942	1.33351	1.634	73.43	-0.2302	0.0484	0.2786	956.7845	0.12562	-400.642331	-400.635679	-400.634735	-400.673246	27.407	
C	-0.0363105205	-1.2033798286	-0.0618170804	-0.454453
C	 0.0043930916	-0.006743382	 0.0431655905	 0.336302
C	 0.0451089189	 1.440583889	 0.0919128683	-0.161222
C	-0.3287935342	 2.0897723615	 1.4494356476	-0.087175
N	 0.682819554	 1.4349473827	 2.3464099126	-0.31414
C	 1.6501581576	 2.3217659769	 1.6552856902	-0.054977
C	 0.6083558137	 3.3937959141	 1.3134144441	 0.073616
O	 1.0548649865	 3.5217760304	-0.0390768771	-0.284396
C	 1.4462284221	 2.125577123	 0.094337956	 0.057065
H	-0.0703314514	-2.2620647013	-0.1328653553	 0.190403
H	-0.5270054781	 1.871942693	-0.7345429867	 0.112875
H	-1.3703733836	 2.0968221866	 1.7630304955	 0.085233
H	 0.561031051	 1.794864687	 3.2927975026	 0.221003
H	 2.6499638159	 2.4795133193	 2.0547849222	 0.089397
H	 0.3774315045	 4.3203059893	 1.8385296428	 0.091847
H	 2.212421432	 1.798621099	-0.6043438228	 0.098622
138.7785	149.0859	360.6775	431.766	479.1914	513.3479	565.0072	626.5756	633.3028	713.6027	752.3559	770.1357	841.6277	845.2485	869.3962	903.1884	929.3172	953.4479	975.1142	1004.4995	1022.7635	1053.5984	1084.9428	1124.4309	1151.2858	1161.3966	1171.4953	1209.0312	1243.9909	1260.249	1304.1767	1324.3461	1351.774	1359.8217	2239.9536	3073.1774	3124.7658	3143.4483	3149.5402	3160.8406	3464.4518	3505.4936
C#CC1C2NC3C2OC13	C#C[C@H]1[C@H]2N[C@@H]3[C@H]2O[C@H]13	
InChI=1S/C7H7NO/c1-2-3-4-7-5(8-4)6(3)9-7/h1,3-8H	InChI=1S/C7H7NO/c1-2-3-4-7-5(8-4)6(3)9-7/h1,3-8H/t3-,4+,5-,6+,7-/m0/s1
