16
gdb 19422	4.18043	2.0034	1.62785	1.9209	70.18	-0.2375	0.0028	0.2402	810.4823	0.131718	-346.577786	-346.571504	-346.57056	-346.607913	25.512	
C	 0.053455212	 1.5199971677	-0.0064416663	-0.250355
O	 1.2070737356	 0.6791287075	 0.0035351353	-0.287174
C	-0.0906973384	 0.0561647885	 0.0022191853	 0.443649
C	-0.491009635	-0.7510118278	 1.1897596879	-0.171968
C	-0.9795587136	-1.9379506038	 0.812001673	-0.081498
C	-1.0286916758	-2.0732924131	-0.673583643	-0.087772
C	-1.9430950319	-1.0877270799	-1.3813883974	-0.285019
C	-0.4812938689	-0.7613843007	-1.2066617132	-0.132328
H	-0.119824227	 2.0893449216	 0.9067801195	 0.109974
H	-0.1247538957	 2.0672350241	-0.9318212862	 0.112239
H	-0.3990565301	-0.3817488658	 2.2035394096	 0.102382
H	-1.3437071693	-2.7077003925	 1.4824687549	 0.103462
H	-0.8213581201	-3.0275854994	-1.1440277025	 0.09331
H	-2.2709204935	-1.3385125037	-2.3851576955	 0.113436
H	-2.6750480364	-0.5578589691	-0.7806502097	 0.116
H	 0.163451868	-0.7150845034	-2.0755187717	 0.101663
147.6054	250.9396	332.2789	378.7377	417.558	526.1511	613.5554	730.4693	777.8105	779.4161	807.772	841.4773	862.0058	892.3409	938.8937	961.4426	983.1885	997.9258	1036.2331	1072.0358	1078.208	1096.2506	1120.0874	1129.2138	1160.9447	1190.1588	1236.9619	1316.2614	1332.7749	1365.5771	1431.1936	1478.5304	1527.9816	1650.0034	3072.5891	3124.8193	3158.0601	3173.6607	3192.715	3196.129	3215.944	3221.6386
C1OC11C=CC2CC12	C1O[C@]21C=C[C@H]1C[C@@H]21	
InChI=1S/C7H8O/c1-2-7(4-8-7)6-3-5(1)6/h1-2,5-6H,3-4H2	InChI=1S/C7H8O/c1-2-7(4-8-7)6-3-5(1)6/h1-2,5-6H,3-4H2/t5-,6+,7-/m0/s1
