17
gdb 127856	3.71218	1.18474	0.90832	4.0962	83.91	-0.2171	-0.0443	0.1728	1275.0689	0.136229	-414.19586	-414.186955	-414.186011	-414.230183	31.652	
C	 0.0144706338	 1.439689807	 0.0278052195	-0.323727
N	 0.0245908264	-0.0121631138	 0.0359578469	-0.278369
C	-1.0887443938	-0.6416854972	 0.0217036685	 0.30591
C	-2.4330384612	-0.0344834078	-0.0030314467	-0.047767
N	-3.5354938305	-0.7042583667	-0.0169531832	-0.17303
N	-3.3963210451	-2.0515510924	-0.0073773369	-0.274679
C	-2.177696659	-2.6833321279	 0.0156093782	 0.414361
C	-2.2180522266	-4.1855981616	 0.0234948692	-0.485438
N	-1.0593997647	-2.0470962648	 0.0299744413	-0.338194
H	 1.0466958855	 1.7994048864	 0.042386989	 0.123215
H	-0.4649961538	 1.8604832103	-0.8692943885	 0.111075
H	-0.4934633239	 1.8702798438	 0.9043542481	 0.11107
H	-2.5506104989	 1.0430860082	-0.0108428518	 0.127566
H	-4.2632137521	-2.5633172359	-0.0183013103	 0.2742
H	-2.7278944436	-4.5698880226	-0.8670144992	 0.142006
H	-1.195994008	-4.5611034867	 0.0409502044	 0.169727
H	-2.7543452246	-4.5598331983	 0.9026853812	 0.142074
56.3496	91.5673	108.99	157.0127	223.878	296.0123	334.4251	394.4998	494.5441	521.2142	553.0105	587.9878	616.411	721.3471	774.7717	909.1437	932.8909	986.7226	1007.3969	1059.7925	1097.4307	1099.1353	1126.3745	1156.6126	1254.6658	1325.206	1374.7874	1404.3603	1434.1267	1457.3257	1482.2721	1485.0667	1495.9955	1510.2647	1643.0392	1681.423	1707.858	2971.3758	3019.7834	3038.2273	3093.767	3094.7901	3168.9574	3198.3639	3648.4521
CN=C1C=NNC(C)=N1	C[N]C1=N[C@H](NN=C1)C	
InChI=1S/C5H8N4/c1-4-8-5(6-2)3-7-9-4/h3H,1-2H3,(H,6,8,9)	InChI=1S/C5H9N4/c1-4-8-5(6-2)3-7-9-4/h3-4,9H,1-2H3/t4-/m1/s1
