14
gdb 31204	2.39361	1.54035	0.94564	6.2034	73.37	-0.2185	-0.0095	0.2089	1162.4368	0.102082	-432.907915	-432.899669	-432.898724	-432.941491	28.838	
C	-0.0355403748	 1.4940492501	-0.1040071761	-0.337335
N	 0.193573501	 0.0643396643	 0.0448443491	-0.404519
C	 0.6499956332	-0.7032171725	-0.9697731951	 0.391434
C	 0.6825439354	-2.0651304809	-1.1908734282	 0.058228
N	 1.344829568	-2.2999028783	-2.400812546	-0.289629
C	 1.6568146741	-1.1364165379	-2.8333100338	 0.051414
O	 1.262394477	-0.0979341524	-2.0107152524	-0.18106
C	 0.1408145403	-3.0584839761	-0.3513558283	 0.195611
N	-0.3313171396	-3.8213664447	 0.3844138494	-0.362442
H	 0.8670411368	 1.9737801838	-0.4878812251	 0.158618
H	-0.8676449259	 1.7240540155	-0.7825951784	 0.137307
H	-0.2558334578	 1.912062304	 0.8794570028	 0.144953
H	-0.3780156052	-0.4286416629	 0.7136760232	 0.276035
H	 2.1718470775	-0.853849612	-3.736143171	 0.161387
71.2777	114.966	128.3582	173.9703	228.5594	296.5079	411.2887	482.1441	539.951	559.8599	632.9975	650.9833	742.6209	757.5697	783.5917	936.9567	1045.7949	1065.9418	1102.0731	1150.8238	1191.2851	1259.2613	1304.6535	1441.9793	1452.3024	1487.6661	1492.8005	1517.0674	1585.8347	1677.4126	2329.6466	3017.1518	3106.0756	3147.1272	3294.2163	3628.1906
CNC1=C(N=CO1)C#N	CNc1c(nco1)C#N	
InChI=1S/C5H5N3O/c1-7-5-4(2-6)8-3-9-5/h3,7H,1H3	InChI=1S/C5H5N3O/c1-7-5-4(2-6)8-3-9-5/h3,7H,1H3
