13
gdb 24990	4.97424	1.32578	1.06597	2.8859	60.6	-0.1892	0.0063	0.1955	1021.5862	0.091897	-489.891084	-489.884433	-489.883489	-489.92207	25.614	
O	 0.0045729789	 0.020021697	 0.2030513929	-0.379839
C	-0.0125013861	 1.2250961692	 0.1608479046	 0.408308
N	-1.1474525758	 2.0642495658	 0.1025201091	-0.412243
C	-0.7192590157	 3.3314826974	-0.2570098384	 0.243709
C	 0.6246849468	 3.3499001009	-0.2752208736	 0.243762
N	 1.097047933	 2.0949718294	 0.0719233685	-0.412264
O	 1.0996132622	 4.5907920211	 0.081951416	-0.252147
C	-0.0736044457	 5.3952412084	-0.1316017888	 0.007259
O	-1.2181414164	 4.5590700759	 0.1133072162	-0.25215
H	-2.0334161054	 1.6454297622	-0.1354286158	 0.274632
H	 1.9873635851	 1.7004998865	-0.1901735035	 0.274637
H	-0.0757862789	 6.2373314107	 0.5594036013	 0.14451
H	-0.0922306422	 5.7169143854	-1.1839886485	 0.111827
141.9133	259.0963	266.0749	337.639	389.6244	461.8028	520.8015	566.5928	601.5945	627.193	748.0091	757.1538	768.1533	905.7676	906.4472	952.3931	1057.2131	1076.7425	1137.7944	1214.7685	1255.5615	1304.2468	1306.9616	1403.0882	1432.661	1478.5016	1516.9622	1681.4956	1860.6151	2990.1699	3146.4858	3632.2589	3632.278
O=C1NC2=C(N1)OCO2	O=C1N[C]2[C](N1)OCO2	
InChI=1S/C4H4N2O3/c7-4-5-2-3(6-4)9-1-8-2/h1H2,(H2,5,6,7)	InChI=1S/C4H4N2O3/c7-4-5-2-3(6-4)9-1-8-2/h1H2,(H2,5,6,7)
