20
gdb 81968	2.55855	1.61673	1.27757	3.3605	73.53	-0.2401	0.0645	0.3047	1058.3512	0.17298	-440.274133	-440.265988	-440.265044	-440.306306	32.803	
C	 0.004127888	 1.5728886777	 0.0105803649	-0.395217
C	 0.0706427104	 0.0458274155	 0.0100333743	-0.008387
C	 0.8284930949	-0.5708990392	-1.1611539654	-0.040291
N	 2.2987091943	-0.544220367	-0.9515197636	-0.364119
C	 1.5294821154	-1.7916530712	-0.701467458	-0.073748
C	 1.2131499586	-2.0012604763	 0.7755171545	 0.141909
O	 2.2600661987	-2.5234892225	 1.5532216086	-0.445864
C	 0.7720427679	-0.5807773452	 1.2469370572	 0.03451
O	 1.9180304407	 0.1437673882	 1.6783158664	-0.4447
H	 1.0049395743	 2.0108077325	 0.0208388902	 0.126533
H	-0.5202494807	 1.9381918501	-0.8787845756	 0.106995
H	-0.5292909036	 1.9425587027	 0.8916248995	 0.119809
H	-0.9522401315	-0.3549222027	-0.0208300359	 0.080333
H	 0.4497261247	-0.4667385407	-2.1732664533	 0.088387
H	 2.7824855412	-0.6107475157	-1.8422146493	 0.238976
H	 1.7075438076	-2.6442020114	-1.34794785	 0.092637
H	 0.3661803296	-2.6973657879	 0.8428423804	 0.079752
H	 2.7056093745	-1.745534347	 1.9212621533	 0.284339
H	 0.1062724225	-0.6299837117	 2.1119246834	 0.083687
H	 2.4586727926	 0.2429350218	 0.8731924684	 0.29446
137.9616	184.7264	210.603	238.6288	291.4643	308.3029	435.0503	461.8761	481.7573	510.9535	575.9274	660.6333	765.4777	796.1936	814.3058	837.5592	869.5947	887.5327	906.2403	929.3583	1002.3838	1016.1306	1058.178	1080.31	1119.5174	1125.5134	1136.1342	1140.2281	1173.7575	1241.1602	1252.9691	1266.2946	1290.4635	1327.6856	1347.9454	1369.4154	1384.7498	1408.0558	1420.6054	1447.222	1475.4223	1495.0676	1496.893	3011.8523	3021.61	3039.5688	3083.9588	3102.8019	3124.9085	3157.3213	3175.1329	3517.4728	3601.8448	3712.8035
CC1C2NC2C(O)C1O	C[C@H]1[C@H]2N[C@H]2[C@@H](O)[C@H]1O	
InChI=1S/C6H11NO2/c1-2-3-4(7-3)6(9)5(2)8/h2-9H,1H3	InChI=1S/C6H11NO2/c1-2-3-4(7-3)6(9)5(2)8/h2-9H,1H3/t2-,3+,4+,5-,6+/m0/s1
