18
gdb 28102	4.8964	1.21005	0.98205	1.5589	89.85	-0.1693	0.0053	0.1746	1202.15	0.149747	-364.864234	-364.856479	-364.855535	-364.896255	30.421	
C	-0.016731747	 1.4912839118	 0.0762817103	-0.503447
C	-0.0008179011	 0.0035878258	-0.0437370437	 0.324805
C	-0.0334662908	-0.8101934868	-1.1655690406	-0.424186
C	 0.0049870914	-2.1509195051	-0.7091885259	 0.305923
C	 0.0593293522	-2.118685177	 0.6694665996	 0.29431
N	 0.0557384202	-0.8118299512	 1.0763924835	-0.441616
C	 0.1011347077	-3.4572036264	 1.2252701015	-0.200195
C	 0.0728938193	-4.3275759405	 0.1916204573	-0.087633
C	 0.0090767506	-3.591183223	-1.1405736568	-0.415848
H	 0.8862490024	 1.8815207887	 0.5642451718	 0.123134
H	-0.0723623257	 1.9413219918	-0.9176063035	 0.136634
H	-0.8786078799	 1.8551750698	 0.6510841379	 0.122854
H	-0.0795007639	-0.447938486	-2.1822550571	 0.086488
H	 0.0882797201	-0.4779749112	 2.0239555829	 0.252389
H	 0.1466589881	-3.7129838713	 2.2762664722	 0.08992
H	 0.0919578542	-5.4064621152	 0.2692618075	 0.091641
H	-0.8874479945	-3.8776735078	-1.7071916955	 0.122419
H	 0.8657792166	-3.8518611465	-1.7769692814	 0.122407
106.8117	136.1101	260.6062	266.1788	266.4226	422.2618	445.5531	470.6784	544.1623	629.2202	670.0291	721.0157	722.5099	766.055	795.9553	877.1628	918.691	928.238	933.0532	988.3628	1007.5461	1059.3361	1081.7563	1130.1455	1146.7221	1161.7728	1224.8339	1259.9759	1328.6431	1385.8059	1412.1637	1429.518	1453.9734	1478.3082	1478.5737	1505.7327	1533.2301	1584.4191	1613.7319	3008.0086	3020.4867	3045.1074	3048.3987	3120.4182	3204.7838	3230.1948	3234.9401	3673.9067
CC1=CC2=C(N1)C=CC2	Cc1cc2c([nH]1)C=CC2	
InChI=1S/C8H9N/c1-6-5-7-3-2-4-8(7)9-6/h2,4-5,9H,3H2,1H3	InChI=1S/C8H9N/c1-6-5-7-3-2-4-8(7)9-6/h2,4-5,9H,3H2,1H3
