17
gdb 109372	2.56571	1.37299	0.92074	2.3242	72.39	-0.235	-0.0519	0.183	1221.8255	0.135497	-458.976921	-458.968295	-458.967351	-459.010571	31.273	
O	 0.0163081908	 1.4123916861	-0.0331470483	-0.423764
C	-0.0052612505	-0.001933197	-0.0886541309	-0.157871
C	-1.4293003547	-0.4804147676	-0.028294764	 0.163359
C	-2.4900186788	 0.3327456442	 0.0676556507	-0.147747
C	-3.8966358969	-0.1852273159	 0.0791792544	-0.132441
O	-4.0123354337	-1.4950086079	-0.4351034977	-0.240686
C	-3.0908107355	-2.3981202639	 0.138623945	-0.185433
C	-1.6395426634	-1.9421396226	-0.0010840269	 0.304886
O	-0.7214884983	-2.7394074943	-0.0149132752	-0.324932
H	 0.9326113893	 1.6982162901	-0.0765580146	 0.294387
H	 0.4562636044	-0.3832584582	-1.0131288807	 0.115498
H	 0.5575244063	-0.454914434	 0.7420787348	 0.115227
H	-2.3448180316	 1.4062226381	 0.1430503887	 0.133229
H	-4.302496776	-0.1276402371	 1.1084634232	 0.107584
H	-4.5377130546	 0.446276615	-0.5455957112	 0.129796
H	-3.2945918488	-2.5538183732	 1.2146307866	 0.109985
H	-3.213229928	-3.3583675219	-0.3667686538	 0.138923
78.6809	102.8559	191.427	200.6622	224.6314	285.5418	322.9292	341.1054	475.0013	498.6173	542.9425	639.6623	742.5316	768.7662	833.7701	916.3619	993.6318	1016.0667	1029.9664	1052.3116	1079.3424	1134.5617	1174.0791	1208.4397	1232.1889	1244.7629	1265.8371	1296.2775	1353.6418	1380.7905	1404.9251	1461.6167	1466.66	1480.7893	1502.1444	1709.7245	1773.9211	2916.9542	2938.8547	2980.8676	3001.7095	3064.9442	3113.5621	3186.1409	3846.0379
OCC1=CCOCC1=O	OCC1=CCOCC1=O	
InChI=1S/C6H8O3/c7-3-5-1-2-9-4-6(5)8/h1,7H,2-4H2	InChI=1S/C6H8O3/c7-3-5-1-2-9-4-6(5)8/h1,7H,2-4H2
