17
gdb 36080	3.71075	1.24593	1.15339	4.6494	75.6	-0.2385	0.0318	0.2704	1093.5309	0.137561	-380.80654	-380.799115	-380.798171	-380.838986	28.396	
N	-0.0446187703	-1.196364816	 0.2401159561	-0.308277
C	-0.0151940041	-0.0675453875	-0.0030502551	 0.270711
C	 0.0345820563	 1.3689603325	-0.2960578921	-0.491978
C	 1.4027055212	 1.9479060566	-0.1187586085	 0.400667
C	 2.3329245202	 2.1653074203	 1.0367631134	-0.128843
C	 3.3897099572	 1.3667223633	 0.2936131095	-0.17891
N	 2.6378176436	 1.631998463	-0.9997293625	-0.197412
C	 2.8166237682	 3.1321567714	-1.1469817975	-0.175415
C	 1.9534715473	 3.328021356	 0.0865106432	-0.158707
H	-0.3190473411	 1.5299705175	-1.3215890522	 0.163951
H	-0.6697748054	 1.8836175784	 0.3682378086	 0.159986
H	 2.0907761523	 2.203804796	 2.09180261	 0.100466
H	 4.4302094182	 1.7087740876	 0.2902444286	 0.101843
H	 3.3487662038	 0.2994735247	 0.5215031317	 0.129734
H	 3.8596191415	 3.4665817018	-1.1400898602	 0.104445
H	 2.3292505964	 3.4683916327	-2.0656643956	 0.111583
H	 1.4402989047	 4.2078025116	 0.4560128826	 0.096155
64.4375	95.4689	234.0664	276.4609	385.042	437.1861	463.8858	502.5731	669.5631	715.9751	786.4188	811.9595	845.3053	893.7649	911.3409	934.8004	955.8331	962.8124	980.0805	1015.9421	1048.8586	1087.6314	1098.1664	1099.9322	1157.9815	1186.8725	1222.4101	1254.3763	1258.0576	1295.2597	1302.4314	1332.6329	1444.6963	1458.2266	1503.5004	1523.9925	2365.566	3036.2263	3039.6394	3048.7928	3075.7785	3102.9144	3115.211	3184.9472	3195.2452
N#CCC12C3CN1CC23	N#CC[C@@]12[C@H]3CN1C[C@@H]23	
InChI=1S/C7H8N2/c8-2-1-7-5-3-9(7)4-6(5)7/h5-6H,1,3-4H2	InChI=1S/C7H8N2/c8-2-1-7-5-3-9(7)4-6(5)7/h5-6H,1,3-4H2/t5-,6+,7-
