21
gdb 78590	2.55759	1.56469	1.20344	1.9317	82.22	-0.2418	0.0728	0.3146	1127.1822	0.182268	-387.047015	-387.038169	-387.037225	-387.079961	34.523	
C	-0.033910571	 1.6324312116	 0.0302982278	-0.439375
C	 0.1140223348	 0.1097346011	 0.023520647	 0.036713
C	 0.8239775478	-0.6315807223	-1.1095505437	-0.146069
C	 2.3137797473	-0.7890903973	-0.7332823499	-0.198773
C	 2.5276273961	-0.2061918295	 0.657755967	 0.174232
O	 2.9692968538	 1.1093071034	 0.8854545494	-0.445728
C	 1.0760748879	-0.6648008004	 0.9790171833	-0.195552
C	 1.2639137911	-1.7346971549	-0.18310364	 0.366382
C	 1.1370801259	-3.2219055686	-0.2229770331	-0.529645
H	 0.8224738487	 2.1483544654	-0.417336927	 0.10313
H	-0.9069408944	 1.9313511482	-0.5600521673	 0.116234
H	-0.1722888814	 2.0209027399	 1.0445727349	 0.126038
H	-0.8798606605	-0.3363372178	 0.14729752	 0.074795
H	 0.5127084937	-0.7277529714	-2.1433603686	 0.079571
H	 3.0584679245	-1.0090635375	-1.488840292	 0.081923
H	 3.2284405731	-0.8403683662	 1.2099259125	 0.087581
H	 2.4686047567	 1.7018075895	 0.3191110023	 0.276732
H	 0.7793718192	-0.8699997411	 2.0066289302	 0.064179
H	 0.1226388521	-3.5487019742	 0.0338300661	 0.121336
H	 1.3634545356	-3.602036532	-1.2251392227	 0.12305
H	 1.8274522292	-3.7059168259	 0.4775428736	 0.123248
125.2043	148.7955	199.3904	207.8538	219.5113	269.3043	298.153	342.9078	409.1946	535.66	572.8143	663.4976	694.4568	728.3708	766.2184	847.7001	888.4416	908.3121	921.995	959.3263	983.636	1016.3913	1031.4152	1052.9386	1076.155	1087.8854	1103.2023	1122.5223	1144.2707	1166.3291	1184.0209	1220.0577	1248.5022	1273.5578	1299.6358	1339.1239	1392.9244	1407.2246	1412.5602	1443.4457	1464.8989	1484.9373	1485.2016	1498.4801	1512.6227	3020.1669	3028.0766	3032.0825	3064.9077	3077.7963	3085.8335	3090.4808	3101.1021	3126.255	3177.9798	3191.0387	3851.6435
CC1C2C3C(O)C1C23C	C[C@H]1[C@H]2[C@H]3[C@@H](O)[C@@H]1[C@@]23C	
InChI=1S/C8H12O/c1-3-4-6-7(9)5(3)8(4,6)2/h3-7,9H,1-2H3	InChI=1S/C8H12O/c1-3-4-6-7(9)5(3)8(4,6)2/h3-7,9H,1-2H3/t3-,4-,5+,6-,7-,8+/m0/s1
