21
gdb 58655	1.85143	1.46288	1.12572	1.7531	85.23	-0.2571	0.0276	0.2847	1252.6633	0.178166	-387.049481	-387.038842	-387.037898	-387.084759	39.211	
C	 0.4995683711	 1.0935552475	-0.52290409	-0.399724
C	 1.3713723927	-0.1641860805	-0.3970293232	-0.049455
C	 2.782052932	 0.0547305772	-0.9604926361	-0.401972
C	 1.4213547247	-0.635192807	 1.0553971627	 0.17943
O	 0.220689041	-1.2717035592	 1.5457374316	-0.297789
C	 1.400645265	-2.0698981533	 1.4452404471	 0.031936
C	 1.3894296637	-3.2384889874	 0.4934578381	-0.431329
C	 2.0303009855	 0.2906106055	 1.9894788454	 0.319798
C	 2.5487894387	 1.0634174351	 2.75115827	-0.442572
H	 0.9357511238	 1.9309465858	 0.0310268284	 0.126881
H	 0.4070968909	 1.3917424323	-1.5718589877	 0.109366
H	-0.5039394651	 0.9105927082	-0.1281529765	 0.13061
H	 0.8862817411	-0.9628073953	-0.9660732795	 0.081292
H	 3.3108228327	 0.8324088395	-0.4005954607	 0.130755
H	 3.3809662144	-0.8605573585	-0.9117640017	 0.112844
H	 2.7295336939	 0.3687135483	-2.0075122066	 0.114463
H	 1.8500663009	-2.2926911308	 2.4150903018	 0.09439
H	 0.9496995589	-2.9867950088	-0.4726690285	 0.132337
H	 2.4084655186	-3.6063069452	 0.3333609714	 0.127325
H	 0.8044215422	-4.0570070168	 0.9263255591	 0.133983
H	 2.9994451434	 1.7435550733	 3.4312018249	 0.197432
59.3064	134.3995	139.7571	152.0315	182.895	220.5526	229.7445	249.2169	317.4413	350.9167	370.6525	462.501	502.6506	557.737	599.0437	618.4725	648.3967	660.7415	791.3236	880.5602	921.7727	933.5214	972.2887	976.1718	994.5802	1065.2948	1115.7464	1143.112	1171.8052	1193.7081	1256.7207	1299.1607	1333.3242	1368.6905	1397.4609	1407.0967	1418.9428	1449.7201	1484.358	1488.6261	1492.5907	1499.3104	1501.7781	1513.8316	2231.2942	3034.9144	3039.0416	3040.5518	3059.4012	3088.7901	3100.637	3104.3313	3107.1655	3113.325	3116.999	3140.5399	3500.7012
CC(C)C1(OC1C)C#C	CC(C)[C@]1(O[C@H]1C)C#C	
InChI=1S/C8H12O/c1-5-8(6(2)3)7(4)9-8/h1,6-7H,2-4H3	InChI=1S/C8H12O/c1-5-8(6(2)3)7(4)9-8/h1,6-7H,2-4H3/t7-,8+/m0/s1
