18
gdb 69458	3.84261	1.11891	0.9748	3.9851	72.94	-0.2294	-0.0227	0.2067	1226.4015	0.146524	-439.076368	-439.06774	-439.066796	-439.11007	31.852	
C	 0.115859968	 1.5139548425	 0.0920801488	-0.488998
C	-0.0366365505	 0.0192915398	 0.1022247859	 0.419832
C	-1.2837706262	-0.6370836808	-0.465329783	-0.221607
N	-1.1976701481	-2.0306801242	-0.0083166624	-0.327152
C	-0.4012590175	-2.109469297	 1.2196385906	-0.088432
C	 0.399958328	-3.4064465263	 1.2327966913	 0.164772
O	 0.5271113664	-4.1143230184	 2.1979486096	-0.251316
C	 0.5021430014	-0.8875514739	 1.1246335458	-0.048007
O	 1.149773817	-0.753864538	-0.1472681245	-0.284711
H	 1.0492086766	 1.8049262376	 0.5794776695	 0.136589
H	 0.1376987098	 1.8924340701	-0.93560886	 0.134503
H	-0.7190052403	 1.9963751574	 0.6105905173	 0.126137
H	-2.1644605726	-0.0956137689	-0.0818498932	 0.092564
H	-1.3145114141	-0.5935513604	-1.5608820352	 0.115695
H	-2.1011137395	-2.4738500607	 0.0849375139	 0.232198
H	-0.9707515754	-2.0497542359	 2.1605674881	 0.080654
H	 0.8615517052	-3.6406737883	 0.2507155959	 0.098774
H	 1.0705983519	-0.5639278645	 1.9918418017	 0.108504
57.6378	98.8332	176.1042	197.7941	238.6444	333.1415	357.6886	394.9875	440.5631	505.9344	559.1826	611.6345	706.0587	853.5921	863.3197	917.1997	921.0546	976.6637	991.1269	1005.5769	1048.3669	1073.2057	1099.4642	1119.0794	1130.369	1223.7149	1232.9647	1268.7895	1282.5892	1307.1546	1361.4043	1400.045	1409.701	1437.2211	1463.6184	1486.2551	1496.5724	1510.3515	1830.3507	2923.2818	2966.2264	2983.916	3038.3177	3043.9077	3100.835	3128.2237	3160.3117	3583.471
CC12CNC(C=O)C1O2	C[C@]12CN[C@@H](C=O)[C@H]1O2	
InChI=1S/C6H9NO2/c1-6-3-7-4(2-8)5(6)9-6/h2,4-5,7H,3H2,1H3	InChI=1S/C6H9NO2/c1-6-3-7-4(2-8)5(6)9-6/h2,4-5,7H,3H2,1H3/t4-,5+,6-/m0/s1
