19
gdb 7147	5.54711	0.9029	0.86171	1.805	69.16	-0.2235	0.0168	0.2403	1414.9575	0.163942	-402.226687	-402.216925	-402.215981	-402.26246	33.251	
C	 0.3115847439	 1.367383853	-0.0089331351	-0.390926
C	 0.3183100952	-0.1485279336	 0.0190302454	-0.041711
O	 0.5496167201	-0.6105829379	-1.3288301767	-0.239545
C	 0.6049103382	-1.9434219416	-1.4953788124	 0.431503
O	 0.4889820929	-2.7443071219	-0.6001763696	-0.364452
C	 0.7907681641	-2.3130148634	-2.9685149748	-0.286643
N	 1.165195398	-3.6911860054	-3.2009143934	-0.25957
C	 2.5426751849	-3.9933377197	-2.8150206771	-0.317735
H	 1.2685276641	 1.7554585586	-0.3689954026	 0.130443
H	-0.4798933032	 1.7431178636	-0.6634716535	 0.130395
H	 0.139085748	 1.7565085301	 0.9989677233	 0.124034
H	 1.1062874575	-0.5446679677	 0.6670098036	 0.123488
H	-0.6330507045	-0.5574315068	 0.3739810506	 0.121912
H	-0.1609615588	-2.0929908483	-3.4711995735	 0.131085
H	 1.5310506894	-1.6398255184	-3.4135542704	 0.130296
H	 0.5396646151	-4.2835380662	-2.6634390395	 0.227868
H	 3.2296089479	-3.4308413541	-3.4578007821	 0.117664
H	 2.7814615454	-3.7585092769	-1.7658049917	 0.111585
H	 2.7349606919	-5.0575138834	-2.9784382107	 0.120307
34.5008	67.1195	101.6689	141.1393	156.2463	210.5286	261.2242	293.8678	342.3572	387.0877	471.886	580.5505	698.5234	786.8143	806.1478	881.9032	929.6305	956.5949	1005.0824	1053.0368	1135.0613	1145.0343	1159.2965	1182.3398	1201.5349	1227.866	1289.871	1309.9769	1365.1119	1398.7937	1423.0606	1447.5767	1464.4599	1486.3383	1489.8853	1496.1946	1504.669	1518.9472	1527.8776	1811.5014	2982.1005	3023.3865	3046.4927	3051.7594	3060.6404	3082.6946	3089.9824	3105.3809	3120.647	3126.7038	3521.2248
CCOC(=O)CNC	CCOC(=O)CNC	
InChI=1S/C5H11NO2/c1-3-8-5(7)4-6-2/h6H,3-4H2,1-2H3	InChI=1S/C5H11NO2/c1-3-8-5(7)4-6-2/h6H,3-4H2,1-2H3
