17
gdb 43009	2.33602	1.98771	1.37905	3.3958	72.24	-0.243	-0.0261	0.2169	959.6032	0.137935	-421.827568	-421.820596	-421.819652	-421.858805	27.99	
O	 0.0213409113	 0.0466820069	 0.3255859876	-0.335911
C	-0.0116231577	 1.2386871748	 0.0974415201	 0.412781
C	-1.2871354506	 1.9867805557	-0.0412563368	-0.14376
C	-1.4800654207	 3.3772993582	 0.5655063955	-0.301284
C	-1.3121761152	 3.2418449584	-0.9129136791	-0.037893
C	-0.0490454777	 3.6817559893	-1.6373842778	-0.269782
C	 1.2484459207	 3.1696844158	-1.0521942438	 0.052603
O	 1.4381698078	 3.3007535503	 0.3515714062	-0.242354
C	 1.274055581	 1.973552631	-0.1793340583	-0.078188
H	-2.1503485984	 1.3312760272	-0.0539886816	 0.108025
H	-2.4743951941	 3.5849974863	 0.9453069057	 0.119631
H	-0.6662954078	 3.7885086033	 1.1448190415	 0.155433
H	-2.2138366344	 3.3631778198	-1.5056864894	 0.100741
H	-0.0920357941	 3.3362103901	-2.6785092685	 0.118242
H	-0.0081584234	 4.7782262822	-1.6799981262	 0.123128
H	 2.1423050216	 3.3799362661	-1.6405377171	 0.105522
H	 2.1591401818	 1.3430730647	-0.1314072379	 0.113065
117.9296	240.1311	256.6699	345.8996	370.2618	433.4961	461.6417	541.0191	631.5882	743.2521	751.824	796.6188	813.9476	861.8331	889.6785	912.626	954.8696	974.0183	1027.368	1040.5303	1085.9951	1097.9241	1121.9982	1136.4215	1148.4517	1218.9791	1248.4168	1275.0428	1281.1408	1354.1603	1367.937	1374.1027	1403.1912	1454.956	1474.5429	1482.5515	1783.3081	3019.6889	3052.6441	3107.3622	3148.2759	3149.1162	3153.2947	3181.9793	3259.702
O=C1C2CC2CC2OC12	O=C1[C@H]2C[C@H]2C[C@H]2O[C@@H]12	
InChI=1S/C7H8O2/c8-6-4-1-3(4)2-5-7(6)9-5/h3-5,7H,1-2H2	InChI=1S/C7H8O2/c8-6-4-1-3(4)2-5-7(6)9-5/h3-5,7H,1-2H2/t3-,4-,5+,7+/m0/s1
