15
gdb 25987	5.04142	1.06753	0.88115	2.6942	69.89	-0.1908	0.029	0.2198	1240.9136	0.1139	-454.020582	-454.01248	-454.011535	-454.05401	30.101	
N	-0.1645580147	 1.3418665436	-0.0507779354	-0.560792
C	 0.1290523846	 0.0149543098	-0.0381448861	 0.497882
O	 1.2470957774	-0.4492920165	 0.0276078158	-0.404528
O	-1.025284345	-0.6962438159	-0.1377057959	-0.279899
C	-1.0330407206	-2.069831249	-0.1888476765	 0.416607
C	-2.1487223987	-2.8627830918	-0.2809240376	-0.283636
C	-1.6732958358	-4.2068732641	-0.3056808933	-0.136522
C	-0.3023530023	-4.171006921	-0.2283977728	-0.101969
N	 0.0849446113	-2.852004172	-0.1571095155	-0.29273
H	 0.5807272201	 1.9764242349	 0.1751922141	 0.276444
H	-1.1165223589	 1.6450894558	 0.0579389415	 0.274318
H	-3.1685025409	-2.517214295	-0.3260467909	 0.095817
H	-2.280040296	-5.0963255036	-0.3738393583	 0.093858
H	 0.4324215522	-4.9589111588	-0.2170012168	 0.116508
H	 1.0113333775	-2.4632770264	-0.0861007623	 0.288641
44.1607	82.3331	202.6935	253.6536	299.1508	373.6097	399.0499	519.1371	568.7424	621.6306	630.0963	654.1437	704.6858	759.4657	762.4157	778.1462	836.3464	894.6695	942.625	1034.8003	1047.4127	1098.3582	1114.0623	1150.3334	1278.179	1281.5667	1368.1272	1421.2108	1487.9386	1512.4468	1608.0825	1618.6049	1820.0834	3249.0406	3267.0038	3277.8869	3624.72	3651.5987	3758.211
NC(=O)OC1=CC=CN1	NC(=O)Oc1ccc[nH]1	
InChI=1S/C5H6N2O2/c6-5(8)9-4-2-1-3-7-4/h1-3,7H,(H2,6,8)	InChI=1S/C5H6N2O2/c6-5(8)9-4-2-1-3-7-4/h1-3,7H,(H2,6,8)
