20
gdb 113872	5.51359	0.56622	0.55436	2.3125	85.1	-0.2419	0.058	0.2999	2040.0129	0.169508	-403.092283	-403.081706	-403.080761	-403.130388	36.482	
C	-0.1775178715	 1.3869597744	-0.4943182521	-0.496726
C	-0.0595198596	-0.0222728026	-0.1468075007	 0.089688
C	 0.0503874609	-1.1876126438	 0.1347874436	 0.042273
C	 0.15085487	-2.6031446869	 0.4807769275	-0.361711
C	-1.2124116112	-3.2809102051	 0.5214776639	-0.005136
N	-1.7148017511	-3.8639651628	-0.7297152682	-0.341062
C	-1.4335096585	-4.7490504385	 0.420852949	-0.047425
C	-0.3574024503	-5.7807421076	 0.1669624694	-0.062512
O	-0.7929116073	-6.7337970721	-0.7874419409	-0.422884
H	 0.799657292	 1.8825210916	-0.4814544379	 0.147509
H	-0.6000866013	 1.5166969336	-1.4968738235	 0.147299
H	-0.826384124	 1.9199951912	 0.2096003116	 0.144809
H	 0.7895110449	-3.1163628722	-0.2452761195	 0.135662
H	 0.6346964468	-2.7123080835	 1.4610572835	 0.126089
H	-1.933459655	-2.7431306289	 1.1350112405	 0.093957
H	-2.7123130838	-3.7014942573	-0.8298452886	 0.235721
H	-2.2958350262	-5.1395213805	 0.9595417379	 0.088942
H	 0.5743051016	-5.2954643576	-0.1559529134	 0.088168
H	-0.1405083278	-6.3372480657	 1.0849628598	 0.108351
H	-1.0606696985	-6.2219523359	-1.5603850222	 0.288988
21.7115	37.2009	67.615	85.9657	162.7007	206.8232	243.6527	276.2889	376.9337	383.9567	432.7629	458.2984	493.8977	564.91	768.7302	806.7563	845.106	883.498	956.6588	976.3179	1012.8497	1028.5291	1053.24	1053.9532	1071.0098	1136.6496	1166.8452	1177.8146	1215.428	1263.1319	1271.2232	1277.6718	1322.5592	1364.1121	1402.8127	1415.418	1440.8098	1460.0421	1478.1996	1478.956	1479.951	1501.264	2375.0715	3004.7489	3017.9763	3025.8247	3071.012	3075.5691	3085.4028	3086.3182	3113.6828	3125.5106	3514.9461	3786.9074
CC#CCC1NC1CO	CC#CC[C@H]1N[C@H]1CO	
InChI=1S/C7H11NO/c1-2-3-4-6-7(5-9)8-6/h6-9H,4-5H2,1H3	InChI=1S/C7H11NO/c1-2-3-4-6-7(5-9)8-6/h6-9H,4-5H2,1H3/t6-,7+/m1/s1
