20
gdb 9625	3.34245	1.24261	1.09458	3.4055	77.34	-0.2423	-0.0161	0.2263	1175.0779	0.175001	-349.013819	-349.004617	-349.003673	-349.04758	33.714	
C	 0.1956397513	 1.5531511408	 0.2128904794	-0.384017
C	-0.1680407351	 0.1020227527	-0.1298511772	-0.251478
C	 0.6359899275	-0.4703803707	-1.293310969	 0.349584
C	 0.4488393217	 0.2471647363	-2.6197735248	-0.456223
C	 1.9739165635	-1.0731414658	-1.0139811512	-0.332893
C	 0.8227638217	-1.9928629079	-1.4161551545	-0.14479
C	 0.2829768372	-2.9568154703	-0.4340930819	 0.154546
O	-0.1943502204	-4.0267443614	-0.7282930185	-0.273082
H	 1.2639347538	 1.6496522529	 0.4339254475	 0.119052
H	-0.0393780752	 2.2393066988	-0.60585109	 0.121861
H	-0.3607150907	 1.8897295839	 1.0927436536	 0.117201
H	-0.0179583653	-0.5124588996	 0.7630034046	 0.099942
H	-1.2377819378	 0.0382390201	-0.3679759276	 0.104955
H	 0.7884518228	 1.2862311276	-2.561779311	 0.124777
H	 1.0175707672	-0.2404137908	-3.4168186249	 0.119326
H	-0.6060807845	 0.254785097	-2.9161019512	 0.123505
H	 2.7786523642	-0.9520347029	-1.731040365	 0.122079
H	 2.3031266145	-1.130641488	 0.0197905926	 0.118847
H	 0.8279460958	-2.3853584748	-2.4278570582	 0.101646
H	 0.3595704379	-2.645463348	 0.6326247476	 0.065163
80.1763	98.7738	145.6791	214.2274	228.3507	248.9859	287.7186	365.9031	382.0758	400.1017	435.3346	557.8116	676.3918	791.5545	834.8241	868.3351	905.6483	929.8074	1013.3993	1016.0145	1027.576	1052.0371	1074.3481	1086.5767	1110.3766	1132.4973	1190.7046	1245.4256	1309.2918	1315.9597	1369.0213	1385.0675	1411.6855	1419.7148	1453.0315	1479.8653	1483.3676	1496.6422	1499.9292	1506.5493	1511.6744	1809.341	2866.719	3026.3479	3032.2454	3039.3725	3074.6982	3096.7021	3106.3358	3107.2908	3114.9034	3122.9438	3167.864	3209.3145
CCC1(C)CC1C=O	CC[C@@]1(C)C[C@H]1C=O	
InChI=1S/C7H12O/c1-3-7(2)4-6(7)5-8/h5-6H,3-4H2,1-2H3	InChI=1S/C7H12O/c1-3-7(2)4-6(7)5-8/h5-6H,3-4H2,1-2H3/t6-,7-/m0/s1
