18
gdb 107862	2.68105	1.49274	1.14827	3.7194	76.29	-0.2472	-0.0159	0.2312	1108.9164	0.146995	-401.866938	-401.85896	-401.858016	-401.899793	30.44	
C	 0.029029552	 1.5281934654	-0.0793547945	-0.382518
C	-0.0011003268	 0.0013201355	 0.059904204	-0.320986
C	 0.7046645387	-0.4906853177	 1.2995990522	 0.344075
C	 0.4498991693	-0.2122218283	 2.7804117595	-0.231367
N	 1.648411967	-1.1550582274	 2.8746656971	-0.15549
C	 1.0694080817	-1.9787114251	 1.6792250632	-0.22694
C	 2.3953278002	-1.8433588076	 0.9466410424	 0.496755
O	 3.1063740146	-2.443690183	 0.2025811024	-0.324736
C	 2.2576059639	-0.4794587735	 1.6047342851	-0.214289
H	 1.0568093917	 1.8997020766	-0.1462227635	 0.123561
H	-0.5015863855	 1.8489276715	-0.9800723169	 0.122928
H	-0.4466048102	 2.0149123523	 0.7786032657	 0.121878
H	-1.0408438011	-0.3498059313	 0.0850756369	 0.10825
H	 0.461329743	-0.4661651275	-0.8189069088	 0.115873
H	 0.655290401	 0.791005117	 3.1665640474	 0.109975
H	-0.4602791036	-0.6173955313	 3.2344452434	 0.10837
H	 0.3887056551	-2.8112380764	 1.8503827939	 0.101932
H	 2.9199991789	 0.3800127708	 1.6932578804	 0.102728
69.3223	120.1608	181.9501	211.7722	319.9812	341.2629	400.268	537.9313	581.7073	642.5654	694.6993	765.6272	786.4578	802.3823	838.4346	844.8784	924.92	977.6124	982.8212	1014.9628	1041.4968	1060.4279	1086.3899	1092.2988	1113.5371	1129.4373	1189.5172	1201.6189	1217.6999	1257.9782	1306.7003	1317.2188	1373.701	1412.7899	1477.3371	1500.0334	1505.4626	1529.8587	1921.3032	3020.2928	3036.9809	3040.5262	3054.5698	3098.4576	3104.6411	3113.5136	3137.6425	3142.0662
CCC12CN3C1C(=O)C23	CC[C@@]12CN3[C@@H]1C(=O)[C@@H]23	
InChI=1S/C7H9NO/c1-2-7-3-8-5(7)4(9)6(7)8/h5-6H,2-3H2,1H3	InChI=1S/C7H9NO/c1-2-7-3-8-5(7)4(9)6(7)8/h5-6H,2-3H2,1H3/t5-,6+,7-
