21
gdb 58334	3.50923	0.66824	0.58794	3.2513	76.88	-0.2462	-0.0173	0.2289	1866.8029	0.178394	-461.370595	-461.359498	-461.358554	-461.407821	39.087	
C	 0.0025696962	 1.5815194187	-0.078689227	-0.406754
C	 0.0176575968	 0.059056904	 0.0281961105	 0.106122
O	 0.7714398266	-0.3845921045	 1.152333735	-0.423861
C	-1.4056260818	-0.5395689131	 0.0477019899	 0.104734
O	-2.1530105566	-0.1166755758	-1.0899425285	-0.425719
C	-1.3910289327	-2.0666975493	 0.1786269357	-0.217436
C	-2.8026999008	-2.6568834384	 0.3230578062	-0.275461
C	-2.8050564361	-4.1613948539	 0.2064870321	 0.159744
O	-3.2686511587	-4.9223253762	 1.016074387	-0.239251
H	 1.022714879	 1.9692856662	-0.1404720455	 0.123532
H	-0.5616014034	 1.9044137165	-0.9560924868	 0.133326
H	-0.4806637804	 2.0218055889	 0.8034876369	 0.107576
H	 0.5452090801	-0.3607885455	-0.841209014	 0.078258
H	 0.4750407394	 0.1171741994	 1.9199275223	 0.281655
H	-1.9445137526	-0.1106371444	 0.9047430283	 0.081824
H	-1.7263136962	-0.4843262953	-1.8729703921	 0.280822
H	-0.9013334403	-2.4873970151	-0.7134618977	 0.087112
H	-0.764313025	-2.341213914	 1.0313995018	 0.131164
H	-3.2619485496	-2.3782020337	 1.2761526474	 0.11856
H	-3.427481785	-2.2548119776	-0.4868938689	 0.129689
H	-2.3240739191	-4.544972887	-0.7260428627	 0.064364
49.2569	60.9799	93.6045	106.9377	144.5491	232.9056	242.5664	277.1741	284.625	323.7175	349.9146	386.9031	454.5649	481.8672	532.2967	559.9278	766.3787	835.0513	867.6386	919.9649	981.2513	1004.7682	1043.8014	1073.1333	1087.9086	1098.308	1130.1266	1159.5044	1184.828	1228.962	1253.1138	1300.9085	1316.1316	1332.6173	1379.6777	1392.7714	1397.5549	1411.5118	1417.6031	1431.1236	1466.0414	1490.1288	1493.5249	1496.5842	1836.6342	2837.4087	2994.0626	2998.559	3018.6626	3022.3748	3028.6408	3091.3275	3102.5302	3106.0966	3138.6181	3788.4449	3800.0156
CC(O)C(O)CCC=O	C[C@@H](O)[C@@H](O)CCC=O	
InChI=1S/C6H12O3/c1-5(8)6(9)3-2-4-7/h4-6,8-9H,2-3H2,1H3	InChI=1S/C6H12O3/c1-5(8)6(9)3-2-4-7/h4-6,8-9H,2-3H2,1H3/t5-,6+/m1/s1
