19
gdb 12266	3.35411	1.39398	1.11642	2.5105	72.89	-0.2397	-0.022	0.2177	1135.6709	0.164101	-365.068298	-365.059357	-365.058413	-365.102182	32.161	
C	 0.1435426006	 1.4848190015	 0.1815248175	-0.387098
C	-0.0417634201	-0.0263137241	 0.0221097353	-0.165381
C	 0.5750115604	-0.5597099746	-1.266386086	-0.077765
N	 2.0669488223	-0.5442811963	-1.3334602834	-0.341338
C	 2.1493310487	-1.9643151452	-1.7877686341	-0.064745
C	 3.1274066883	-2.8562444584	-1.038414681	-0.385382
C	 0.6507325735	-2.0841960005	-1.456784009	 0.373764
O	-0.1162618701	-2.9916666159	-1.3287518665	-0.298373
H	 1.207092702	 1.7439119366	 0.182219912	 0.126948
H	-0.3381414829	 2.0336526141	-0.63588799	 0.110334
H	-0.2890863443	 1.839156665	 1.1219105243	 0.116735
H	 0.4167137102	-0.5483574442	 0.8695108227	 0.103482
H	-1.1069823241	-0.2869892119	 0.0234977981	 0.109914
H	 0.0885028247	-0.0921672588	-2.1382701137	 0.088521
H	 2.4446932076	 0.1217139388	-1.996971213	 0.221209
H	 2.2944932318	-2.0701419027	-2.8748003476	 0.092685
H	 2.9872911851	-2.7553039881	 0.0410439313	 0.126473
H	 2.9711469039	-3.9031102027	-1.317104903	 0.13005
H	 4.1613441826	-2.5870131225	-1.2756474739	 0.119965
65.2746	89.5293	138.6341	193.0183	204.719	237.0056	295.7631	382.034	402.1015	542.4061	579.4708	650.8009	749.5768	785.864	847.2271	869.559	948.6586	971.1854	1014.2168	1024.6015	1068.9695	1079.9104	1107.4214	1128.9556	1175.8308	1186.789	1273.5553	1284.3121	1321.4837	1356.7513	1366.4942	1390.988	1403.8954	1407.6117	1476.1793	1484.1033	1495.6729	1497.7176	1508.6289	1907.6267	2970.4011	2978.6676	3030.7962	3035.2562	3039.94	3072.6924	3100.9692	3109.8424	3111.0926	3123.5812	3544.4211
CCC1NC(C)C1=O	CC[C@H]1N[C@@H](C)C1=O	
InChI=1S/C6H11NO/c1-3-5-6(8)4(2)7-5/h4-5,7H,3H2,1-2H3	InChI=1S/C6H11NO/c1-3-5-6(8)4(2)7-5/h4-5,7H,3H2,1-2H3/t4-,5+/m0/s1
