21
gdb 75348	3.2463	1.31918	1.03166	1.1319	84.93	-0.2289	0.0241	0.2531	1217.8991	0.183548	-387.080967	-387.072632	-387.071687	-387.113522	33.049	
C	 0.2301952951	 1.5680808859	 0.0428810709	-0.466602
C	-0.0109661418	 0.0812401154	-0.0435603684	 0.299557
C	 0.01321192	-0.564044993	-1.2135693522	-0.157196
C	-0.2252726843	-2.0425061103	-1.4442517664	-0.278026
C	-1.4764207594	-2.5664713423	-0.752364433	-0.035085
C	-1.3966916345	-3.8093301218	 0.1147687831	-0.338035
C	-1.5040996116	-2.4554234222	 0.7456464638	 0.121973
O	-0.3522839674	-1.9618032176	 1.3608034775	-0.244793
C	-0.2677858931	-0.5484479978	 1.3112750428	-0.157693
H	 1.0976401834	 1.7971857643	 0.6759203689	 0.12157
H	 0.4064290482	 2.0025641962	-0.9439477551	 0.12331
H	-0.6266556851	 2.0872920883	 0.492530643	 0.121245
H	 0.2377015789	 0.0261734157	-2.1002951864	 0.07489
H	-0.2964606603	-2.2346776744	-2.5200109575	 0.097304
H	 0.6445538614	-2.6117545545	-1.0965471022	 0.117989
H	-2.4100710898	-2.3843368472	-1.2770012104	 0.083556
H	-2.2545779367	-4.4699919889	 0.1719983556	 0.110753
H	-0.4347308317	-4.3054414231	 0.1863273622	 0.122426
H	-2.4330547253	-2.1782195397	 1.2466694148	 0.077934
H	 0.554557757	-0.2800955411	 1.9876310687	 0.112338
H	-1.1799432128	-0.0992033619	 1.7463774004	 0.092586
96.7904	166.8745	223.5736	255.0011	293.2722	313.9644	349.9953	417.4586	444.7522	459.3912	632.9056	663.5325	777.0163	798.3573	817.2139	839.8134	872.5503	919.2998	959.7796	995.5995	1016.5344	1047.6918	1070.7484	1080.0037	1091.7667	1104.4215	1127.4028	1130.9578	1166.6506	1181.1527	1231.9337	1259.5003	1310.03	1337.6766	1358.2275	1387.7968	1402.9385	1412.2765	1426.5204	1474.0361	1477.342	1479.383	1489.865	1494.9475	1738.0522	2933.6089	3011.1075	3033.2342	3033.512	3054.6006	3067.5192	3084.0517	3115.7247	3134.5988	3135.8694	3146.1051	3223.3957
CC1=CCC2CC2OC1	CC1=CC[C@H]2C[C@H]2OC1	
InChI=1S/C8H12O/c1-6-2-3-7-4-8(7)9-5-6/h2,7-8H,3-5H2,1H3	InChI=1S/C8H12O/c1-6-2-3-7-4-8(7)9-5-6/h2,7-8H,3-5H2,1H3/t7-,8+/m0/s1
