16
gdb 13029	2.57896	2.5135	1.63199	1.9921	59.55	-0.2309	0.0588	0.2896	815.1089	0.130182	-420.84639	-420.838964	-420.83802	-420.877678	28.698	
O	-0.0744977857	 1.4480129423	 0.0990857011	-0.436366
C	-0.0171063118	 0.032013923	-0.0002103527	 0.007485
C	 0.6431576857	-0.6475068799	 1.2268147658	-0.126365
O	-0.0577812479	-1.8652681944	 1.4673570095	-0.254812
C	-1.3463246651	-1.726821712	 0.9229085626	 0.062832
C	-2.1736532842	-0.5133941482	 1.2977831579	-0.383902
C	-1.408976404	-0.5684773681	-0.0145299627	 0.374378
O	-2.0813575674	-0.6523461363	-1.2290947249	-0.47452
H	 0.8039353215	 1.8003828053	-0.0744109812	 0.287646
H	 0.4760952009	-0.2699551388	-0.9349114181	 0.082694
H	 1.6987370278	-0.8926877713	 1.0781747677	 0.107841
H	 0.562097603	 0.0365768086	 2.0837947145	 0.104499
H	-1.8257041569	-2.6775630856	 0.7252087768	 0.114452
H	-3.247925618	-0.6368818153	 1.2142027972	 0.118629
H	-1.8434825282	 0.1544217481	 2.0851001006	 0.126294
H	-2.4004856196	 0.2321716025	-1.442286234	 0.289217
121.6228	232.7528	235.8708	267.0525	315.5507	373.73	399.8856	464.4989	534.7013	591.2132	687.4401	696.3971	836.5252	882.307	943.519	984.8402	999.2426	1013.186	1022.0724	1064.4512	1080.8295	1105.8117	1161.5375	1201.2011	1226.1641	1265.2949	1276.4462	1322.8737	1333.0336	1366.9949	1407.4665	1439.5563	1495.2868	1521.5008	3000.9095	3009.1967	3084.8607	3138.6066	3196.95	3231.8496	3789.4458	3820.6166
OC1COC2CC12O	O[C@H]1CO[C@H]2C[C@@]12O	
InChI=1S/C5H8O3/c6-3-2-8-4-1-5(3,4)7/h3-4,6-7H,1-2H2	InChI=1S/C5H8O3/c6-3-2-8-4-1-5(3,4)7/h3-4,6-7H,1-2H2/t3-,4-,5+/m0/s1
