16
gdb 27263	3.33482	1.48471	1.04364	1.9184	72.38	-0.1877	0.0289	0.2166	1086.7109	0.126392	-437.896808	-437.889131	-437.888187	-437.929157	28.787	
N	 0.1070743702	 1.3919099967	 0.1766192577	-0.594865
C	-0.063612165	 0.0191863985	 0.0509838386	 0.203036
C	-1.1390803759	-0.8087595983	-0.0156278583	 0.151538
C	-2.6322111315	-0.8693217576	-0.0559306405	-0.203323
O	-2.9221754154	-2.2531326512	-0.3121223844	-0.279198
C	-1.7739893922	-3.089317281	-0.1005967479	-0.19068
C	-0.6203094594	-2.1390639172	-0.0413681484	 0.220143
C	 0.7259007433	-2.0535147192	 0.0098071904	-0.211276
O	 1.0804869391	-0.715042716	 0.0659688941	-0.182236
H	 1.0034594392	 1.7000088035	-0.1788305838	 0.256965
H	-0.6433014204	 1.9209416175	-0.2465798031	 0.255882
H	-3.0978946424	-0.5574769966	 0.8929182011	 0.104866
H	-3.0909263138	-0.2775033559	-0.8592969408	 0.107249
H	-1.8883235333	-3.6612099574	 0.8333928599	 0.108863
H	-1.720908952	-3.8073474469	-0.9275863615	 0.118067
H	 1.5481564195	-2.7467031688	 0.0133833269	 0.134969
96.3633	152.9096	172.5446	241.2562	273.9851	336.4989	522.2359	591.4149	605.677	620.5841	643.954	666.1378	735.9201	809.5957	835.4019	902.0362	998.0405	1026.1655	1052.29	1055.3433	1091.5035	1119.3513	1188.5541	1212.1951	1223.7199	1280.6642	1313.0302	1344.7639	1398.3467	1444.2531	1515.6333	1528.5716	1629.0692	1648.4871	1717.0501	2966.1008	2980.0391	3017.9491	3043.1094	3293.3123	3543.3898	3642.3206
NC1=C2COCC2=CO1	Nc1c2COCc2co1	
InChI=1S/C6H7NO2/c7-6-5-3-8-1-4(5)2-9-6/h2H,1,3,7H2	InChI=1S/C6H7NO2/c7-6-5-3-8-1-4(5)2-9-6/h2H,1,3,7H2
