14
gdb 49807	3.19168	1.51128	1.04405	6.358	67.08	-0.253	-0.0251	0.228	1061.3155	0.101205	-473.878921	-473.871211	-473.870266	-473.912108	27.396	
O	-0.2680242308	 0.0010677468	 0.0469830787	-0.25701
C	-0.0822681414	 1.1810091472	 0.0765383922	 0.173531
N	 1.1519062699	 1.8538425474	-0.0359508325	-0.220062
C	 1.1313687232	 3.262540571	-0.0235049836	 0.036769
C	 2.2045575325	 3.9807312487	-0.3218548453	-0.167463
C	 3.4609585478	 3.2734797656	-0.7058269181	-0.127432
O	 3.4889843706	 1.9176887637	-0.2283052711	-0.250574
C	 2.3900704977	 1.1508054629	-0.0680669668	 0.497285
O	 2.4863362427	-0.0270067956	 0.0891376013	-0.313932
H	-0.8966952879	 1.9239810211	 0.1886055217	 0.091915
H	 0.1761863748	 3.6954664016	 0.249504734	 0.136381
H	 2.1818357922	 5.0621988171	-0.3028125492	 0.122765
H	 3.6008183997	 3.2569851929	-1.7968228227	 0.135282
H	 4.3458126191	 3.7475042898	-0.2711598584	 0.142547
44.2898	117.4222	165.1878	240.0261	250.8918	434.2768	451.378	488.4569	565.8903	639.7131	717.7832	740.8774	772.6868	886.6059	946.7529	961.9544	1022.1899	1037.5764	1064.7711	1138.2703	1196.3256	1227.6923	1252.8297	1297.4617	1422.8274	1428.9847	1475.1602	1508.3592	1752.2394	1828.9809	1905.177	2934.4983	2998.1961	3080.9368	3199.6864	3227.4373
O=CN1C=CCOC1=O	O=CN1C=CCOC1=O	
InChI=1S/C5H5NO3/c7-4-6-2-1-3-9-5(6)8/h1-2,4H,3H2	InChI=1S/C5H5NO3/c7-4-6-2-1-3-9-5(6)8/h1-2,4H,3H2
