22
gdb 118503	2.28088	0.95448	0.71201	2.9376	79.2	-0.2458	0.075	0.3208	1613.2495	0.192509	-441.435114	-441.424452	-441.423508	-441.471572	37.638	
C	-0.7105051102	 0.0608360552	 0.6579634073	-0.236331
O	 0.1796568629	-0.8699302826	 0.0828613716	-0.24372
C	 0.64342486	-0.5427899841	-1.2193749601	 0.079238
C	 1.7946885815	-1.5000495402	-1.5267824142	-0.179855
C	 2.953807831	-1.3797836022	-0.545171337	-0.082686
O	 3.9861837788	-2.2463390773	-0.9943267447	-0.422161
C	-0.457251627	-0.6443951331	-2.2614673454	 0.012118
C	-1.2431304565	 0.5481983032	-2.6681364443	-0.251034
N	-0.2600516386	-0.0437752042	-3.5898515654	-0.319938
H	-0.2857657283	 1.0772648299	 0.6651569348	 0.099861
H	-1.6770435646	 0.0950612892	 0.1383728495	 0.116398
H	-0.8776860493	-0.2560651683	 1.6904849575	 0.126811
H	 1.0214018746	 0.4987970191	-1.2223050659	 0.050763
H	 1.4192535605	-2.5294195672	-1.5157556344	 0.114887
H	 2.1649700388	-1.3045320776	-2.539058044	 0.111175
H	 3.3020472182	-0.3329725439	-0.5093399907	 0.075214
H	 2.6105410177	-1.64614377	 0.4629179944	 0.105302
H	 4.6786470996	-2.2569508687	-0.3275680852	 0.284911
H	-0.940739019	-1.6193896262	-2.2915644894	 0.098812
H	-2.2801427726	 0.4416314335	-2.9737816952	 0.121395
H	-1.0055256855	 1.4987400276	-2.1962621976	 0.109287
H	 0.5901009078	 0.5174895877	-3.5900041217	 0.229553
75.5125	84.7742	93.2402	114.8401	136.3148	200.4112	243.9408	254.1535	270.8356	334.1412	373.6544	403.727	486.0535	587.7187	785.5552	818.3752	881.8018	901.4003	951.5913	971.01	999.2734	1050.9037	1055.9993	1087.004	1123.9536	1130.1496	1153.9723	1161.7117	1180.1051	1201.2491	1208.975	1241.6334	1245.2574	1263.4015	1289.5672	1308.4468	1318.5245	1349.0264	1378.4757	1430.181	1458.6561	1477.7116	1481.7847	1490.8184	1509.0287	1513.1831	1530.045	2908.2544	2952.9895	2978.9022	3031.3863	3042.4452	3046.2665	3092.1236	3104.7328	3112.3804	3125.2087	3190.2155	3475.947	3832.8215
COC(CCO)C1CN1	CO[C@@H](CCO)[C@H]1CN1	
InChI=1S/C6H13NO2/c1-9-6(2-3-8)5-4-7-5/h5-8H,2-4H2,1H3	InChI=1S/C6H13NO2/c1-9-6(2-3-8)5-4-7-5/h5-8H,2-4H2,1H3/t5-,6+/m1/s1
