25
gdb 114247	4.26239	0.82019	0.79787	0.0815	93.59	-0.2631	0.0874	0.3505	1611.7736	0.229256	-352.345336	-352.335803	-352.334859	-352.379945	36.87	
C	 0.0716145567	 1.5345909485	-0.1531107892	-0.377867
C	 0.0401408557	 0.0253663325	 0.1092969125	-0.195114
C	-1.3627691056	-0.5653696714	 0.0589601384	 0.071562
C	-2.1039936935	-0.6401070971	-1.3077811012	-0.294255
C	-2.6419423867	-2.0396700139	-0.899680648	 0.391298
C	-4.1445212185	-2.1030329962	-0.5023385686	-0.270211
C	-4.4363547729	-2.7970340839	-1.859945252	-0.206209
C	-2.9213012785	-3.1193013674	-1.9724265417	-0.29344
C	-1.5372642829	-2.1054293594	 0.1792509181	-0.335095
H	 1.0932970722	 1.9256994602	-0.1188441076	 0.109616
H	-0.3433062572	 1.7740873425	-1.138279073	 0.117733
H	-0.5181875387	 2.0779003757	 0.5937857535	 0.111999
H	 0.6705402178	-0.4897259268	-0.6286806072	 0.087769
H	 0.485787038	-0.1867589046	 1.0906493168	 0.091996
H	-1.9987524767	-0.0610766898	 0.7967875481	 0.065162
H	-2.8372428588	 0.1370435528	-1.5431200145	 0.091167
H	-1.3926893986	-0.7117380536	-2.1395133028	 0.089341
H	-4.3073254021	-2.7810329257	 0.3422499149	 0.094334
H	-4.6525406114	-1.1574008002	-0.2908555374	 0.091496
H	-5.1347481146	-3.6370910415	-1.8570579332	 0.093345
H	-4.7587782011	-2.0829166009	-2.6227483972	 0.101372
H	-2.4402723485	-2.9905367183	-2.9467417331	 0.089348
H	-2.6901153073	-4.1239099418	-1.6018771641	 0.095537
H	-0.6495565067	-2.6360469738	-0.1857546509	 0.090826
H	-1.8116720399	-2.518338746	 1.1549916594	 0.088289
62.3588	87.778	114.4124	181.285	232.4022	265.0485	313.0369	343.8116	394.8077	430.5319	505.2356	657.4988	711.7691	776.4924	781.9756	842.8667	849.0951	875.4302	901.6627	924.1764	936.2341	948.6801	962.6907	979.3043	1011.6283	1023.4781	1081.0919	1085.0886	1131.1091	1181.4171	1184.7523	1190.0026	1209.8833	1229.6487	1243.901	1254.9441	1257.147	1273.894	1281.186	1287.3568	1307.7546	1312.489	1345.2022	1393.483	1410.9457	1469.281	1473.4107	1481.8409	1484.5858	1495.6878	1499.6082	1505.5991	1507.5429	3006.0223	3021.5084	3024.5249	3028.9192	3031.0211	3035.985	3041.4452	3042.4083	3058.2394	3081.3036	3084.3484	3085.3954	3089.5128	3095.	3100.3312	3113.3507
CCC1CC2(CCC2)C1	CCC1CC2(CCC2)C1	
InChI=1S/C9H16/c1-2-8-6-9(7-8)4-3-5-9/h8H,2-7H2,1H3	InChI=1S/C9H16/c1-2-8-6-9(7-8)4-3-5-9/h8H,2-7H2,1H3
