18
gdb 91502	2.64028	1.82826	1.50627	2.3743	72.11	-0.2381	0.0336	0.2717	933.0044	0.149231	-438.943911	-438.93695	-438.936006	-438.974872	29.152	
O	-0.131631478	 1.379183313	 0.011449669	-0.449191
C	 0.0009161958	-0.0227494244	 0.0174340173	 0.169016
C	 0.5778103415	-0.6177275712	 1.336316149	-0.238708
C	-0.6656695825	-1.378203237	 1.7678859978	-0.083138
N	-1.7802719539	-0.3179991246	 1.476657915	-0.436097
C	-1.3958641723	-0.7054847279	 0.0144942936	 0.215054
C	-1.7230600997	-1.34074628	-1.3638023757	-0.211644
O	-0.8588666021	-2.4773368553	-0.93862382	-0.323224
C	-1.2114496004	-2.0847797301	 0.4555454248	 0.118086
H	-0.7487134881	 1.5799545806	 0.7289778765	 0.286055
H	 0.5926355163	-0.2879211061	-0.8585987987	 0.096621
H	 1.4337075856	-1.2783515649	 1.1778118925	 0.112412
H	 0.857080967	 0.1711586654	 2.0374737938	 0.1097
H	-0.703633621	-1.8550370352	 2.7484843326	 0.083125
H	-2.6794113437	-0.7453722864	 1.7032512935	 0.226642
H	-2.7552261451	-1.6773599335	-1.5079373176	 0.113892
H	-1.3356428378	-0.8490736106	-2.2592535464	 0.130152
H	-2.1365792216	-2.6179055317	 0.7087715432	 0.081247
155.4545	250.362	278.4684	329.5923	422.9896	456.047	526.6219	539.9618	594.0603	644.7331	742.3236	757.0353	813.4088	821.407	868.0328	869.5005	923.1327	933.1054	972.602	1011.262	1035.1906	1065.6708	1078.5232	1109.765	1116.8416	1132.7616	1159.2614	1209.3042	1250.0416	1255.1964	1275.7099	1291.8279	1304.0637	1323.3703	1347.7518	1399.7819	1442.1715	1483.9251	1503.3586	3017.392	3042.4061	3070.8218	3111.8559	3115.6186	3119.993	3128.5387	3458.1275	3745.6816
OC1CC2NC11COC21	O[C@H]1C[C@H]2N[C@]31CO[C@@H]23	
InChI=1S/C6H9NO2/c8-4-1-3-5-6(4,7-3)2-9-5/h3-5,7-8H,1-2H2	InChI=1S/C6H9NO2/c8-4-1-3-5-6(4,7-3)2-9-5/h3-5,7-8H,1-2H2/t3-,4+,5+,6+/m1/s1
