17
gdb 69407	3.12496	1.25481	1.19935	5.0239	77.9	-0.2469	-0.0157	0.2312	1110.279	0.136309	-380.865009	-380.857043	-380.856098	-380.897454	30.514	
C	 0.0950991263	 1.5153521369	 0.0543897595	-0.479495
C	-0.0155046626	 0.0125235027	-0.0090214378	 0.29811
C	-0.8669958619	-0.7712909019	 0.9370966731	-0.276673
N	 0.5952101168	-0.8037974327	 1.0757132666	-0.130985
C	 1.2320864031	-1.9745762962	 0.4293045016	-0.173195
C	 0.9526544633	-1.829997832	-1.0623034381	-0.097469
C	 0.2713335047	-0.7091326288	-1.2858403934	-0.125978
C	 2.6774546166	-1.9984654024	 0.7166604442	 0.29595
N	 3.8150429981	-2.0384481674	 0.9131946663	-0.322566
H	 1.0786819748	 1.8507589882	-0.2894213425	 0.134842
H	-0.6662240575	 1.9845002594	-0.5784032085	 0.122465
H	-0.0461944775	 1.8670728815	 1.0789864292	 0.135838
H	-1.3739568965	-0.2694507498	 1.7574127486	 0.122948
H	-1.3764676055	-1.6505372894	 0.5487001432	 0.117304
H	 0.8066974898	-2.9007615958	 0.8381503788	 0.135996
H	 1.2649958971	-2.5675446158	-1.7901501218	 0.126382
H	-0.0542678288	-0.3455912166	-2.252891979	 0.116527
94.3351	149.8435	174.2844	257.4155	289.4077	353.1831	436.2383	451.5266	525.5113	580.5677	612.9777	749.8201	755.2218	786.1791	804.1691	897.1673	932.1057	956.2541	964.7152	985.1508	1011.802	1058.3777	1106.6743	1120.0729	1132.9284	1162.6049	1228.3304	1274.7394	1327.4744	1342.2925	1369.3205	1416.9601	1483.8154	1494.0376	1499.6292	1672.6544	2361.2901	3026.097	3037.6688	3098.0515	3102.2486	3126.8232	3187.8173	3204.6736	3230.3652
CC12CN1C(C=C2)C#N	C[C@]12CN1[C@@H](C=C2)C#N	
InChI=1S/C7H8N2/c1-7-3-2-6(4-8)9(7)5-7/h2-3,6H,5H2,1H3	InChI=1S/C7H8N2/c1-7-3-2-6(4-8)9(7)5-7/h2-3,6H,5H2,1H3/t6-,7-,9?/m0/s1
