18
gdb 125967	3.66867	1.17889	1.04195	2.4053	78.43	-0.1981	0.0246	0.2227	1183.5853	0.149475	-398.115615	-398.10751	-398.106566	-398.148774	30.63	
C	-0.5687716705	 1.4391286526	-0.01153999	-0.40901
C	-0.2239139208	-0.0284498115	 0.0694183816	 0.014931
C	 1.0963883626	-0.5276473684	-0.4088284113	-0.257397
N	 0.7843168497	-0.5352526179	 1.0161215401	-0.174738
C	 1.473169615	 0.3335888076	 1.8784825028	 0.223117
C	 0.9825324892	 0.9249661209	 3.0307385873	-0.128384
N	 2.0282538372	 1.5949926082	 3.5827036946	-0.174161
N	 3.1669038397	 1.4792562035	 2.8840104192	-0.225466
C	 2.8371685235	 0.7145787434	 1.8441885965	-0.076257
H	 0.3249488609	 2.0654228391	 0.0411744789	 0.132476
H	-1.0838367414	 1.6505333764	-0.954393499	 0.122396
H	-1.2347441273	 1.735908726	 0.8064957912	 0.119995
H	-1.0764983884	-0.6995703084	-0.0203302472	 0.092226
H	 1.192932839	-1.5046466662	-0.8747234186	 0.116038
H	 1.7986297091	 0.221987146	-0.7702874221	 0.116104
H	 0.0041412542	 0.9092574846	 3.4820952793	 0.128296
H	 2.0272444169	 2.1434875647	 4.4252413137	 0.273481
H	 3.5844002313	 0.4468687093	 1.112087923	 0.106354
53.5958	118.232	169.8948	212.7104	299.075	372.4399	435.2759	489.1992	526.3165	571.4251	672.3059	698.9782	767.4822	797.955	862.1706	866.6785	912.3578	945.7552	986.5289	1023.8223	1041.7875	1070.6451	1124.1631	1131.4132	1159.0935	1167.5134	1191.1504	1236.3921	1278.5751	1357.5213	1387.9491	1400.9938	1407.1715	1424.1345	1484.3403	1493.9694	1503.3343	1510.1104	1614.6199	3035.051	3094.3627	3095.2203	3111.2942	3130.7456	3180.9935	3248.1786	3269.3853	3679.6842
CC1CN1C1=CNN=C1	C[C@H]1CN1c1c[nH]nc1	
InChI=1S/C6H9N3/c1-5-4-9(5)6-2-7-8-3-6/h2-3,5H,4H2,1H3,(H,7,8)	InChI=1S/C6H9N3/c1-5-4-9(5)6-2-7-8-3-6/h2-3,5H,4H2,1H3,(H,7,8)/t5-,9?/m0/s1
