18
gdb 50827	4.79464	0.81053	0.75628	1.3343	76.59	-0.2727	-0.0253	0.2474	1526.0907	0.147466	-439.109075	-439.100135	-439.099191	-439.144242	31.493	
N	-0.211001192	 1.2957850061	 0.5306214922	-0.419363
C	-0.0402335197	 0.1119641142	 0.1410010397	 0.114762
O	-1.1031327377	-0.7520833754	 0.2279489892	-0.208914
C	-0.9212121779	-2.0501630932	-0.1972329062	 0.455502
O	 0.1223723365	-2.4710450894	-0.6202631604	-0.347584
C	-2.2056211078	-2.8172092506	-0.0971185917	-0.099555
C	-2.9930522033	-3.0046285859	-1.4418723659	-0.222249
C	-3.2707451812	-4.4726699724	-1.0253649015	-0.21393
C	-2.1131807323	-4.3624349966	 0.0020276734	-0.228462
H	 0.6520544003	 1.8244370667	 0.4105231198	 0.239101
H	 0.8544301163	-0.3551102774	-0.2711278116	 0.142171
H	-2.8436408442	-2.3734593714	 0.6683318134	 0.102542
H	-3.8427486307	-2.3405807541	-1.6088565861	 0.114261
H	-2.3183151108	-2.9465552231	-2.299840281	 0.121464
H	-4.2431190662	-4.5768044026	-0.5363030726	 0.108518
H	-3.1871402061	-5.2376043043	-1.7997612154	 0.106322
H	-1.1623078243	-4.7074817306	-0.4101460838	 0.129651
H	-2.2580854087	-4.8035111899	 0.9902077785	 0.105763
33.4871	101.4763	108.6654	117.1183	186.382	246.5625	313.6621	364.6189	518.0707	613.8462	709.8794	745.4698	800.3459	828.6231	855.8336	900.3383	939.29	952.9655	957.7473	998.1519	1033.804	1073.5695	1077.0758	1132.3356	1157.1761	1210.9159	1241.5189	1256.2489	1262.2327	1266.4045	1282.8418	1286.5878	1378.7177	1395.1292	1477.0604	1488.6168	1509.3325	1745.4826	1831.5731	3064.3151	3068.3519	3073.9331	3101.256	3113.2223	3128.1073	3137.9442	3138.8468	3504.9276
N=COC(=O)C1CCC1	[NH][CH]OC(=O)C1CCC1	
InChI=1S/C6H9NO2/c7-4-9-6(8)5-2-1-3-5/h4-5,7H,1-3H2	InChI=1S/C6H9NO2/c7-4-9-6(8)5-2-1-3-5/h4-5,7H,1-3H2
