19
gdb 72767	2.68345	1.76766	1.47978	1.616	80.51	-0.2351	0.0006	0.2357	976.1989	0.160047	-385.852528	-385.845077	-385.844132	-385.883899	30.447	
C	-0.1907302608	 1.6114730037	-0.1573143291	-0.463486
C	 0.0104747559	 0.1003719713	-0.0603186499	 0.26826
C	-1.1733150968	-0.6442058808	 0.6685498506	-0.275716
C	-0.3456699454	-0.6159893038	 2.0091447963	-0.312879
C	 0.8426631642	-0.4167208609	 1.0983044722	 0.223779
C	 1.9515814267	-1.0633250317	 0.7241864397	-0.239135
C	 2.0134491518	-1.0557364828	-0.7707027166	 0.011459
O	 0.9332620777	-1.8547896548	-1.3329505676	-0.261764
C	 0.752960283	-0.4471701307	-1.272532378	-0.047499
H	 0.7425182193	 2.115641721	-0.4298578886	 0.12241
H	-0.9414166302	 1.8515852048	-0.9194014684	 0.117453
H	-0.5317668714	 2.0336558308	 0.7927638395	 0.118666
H	-2.1362347365	-0.1275875432	 0.6762699478	 0.100539
H	-1.2867985736	-1.6624432923	 0.2944325925	 0.129996
H	-0.6005803357	 0.257435037	 2.6168284671	 0.112865
H	-0.3555497806	-1.5071327259	 2.6393998519	 0.113882
H	 2.5765570976	-1.6991426891	 1.3397414708	 0.099787
H	 2.9348331543	-1.0901137901	-1.3440996212	 0.096429
H	 0.6931298809	 0.0587411076	-2.2340632089	 0.084954
167.5613	210.22	228.6177	246.5663	314.4358	415.501	448.716	527.5679	592.0656	680.2917	707.3095	773.8653	802.6426	817.905	841.8842	866.0816	879.2709	896.303	934.5613	964.7978	990.628	1018.5975	1060.8299	1104.8921	1111.2258	1131.102	1172.3041	1212.8026	1226.2943	1243.0304	1244.6175	1262.5352	1297.7359	1331.1431	1385.2816	1409.7178	1469.2633	1484.2115	1492.4311	1497.4983	1686.3587	3026.7596	3056.4097	3067.0051	3092.2072	3105.7581	3115.619	3130.958	3143.7175	3162.2127	3203.108
CC12CCC1=CC1OC21	C[C@]12CC[C]1[CH][C@H]1O[C@@H]21	
InChI=1S/C8H10O/c1-8-3-2-5(8)4-6-7(8)9-6/h4,6-7H,2-3H2,1H3	InChI=1S/C8H10O/c1-8-3-2-5(8)4-6-7(8)9-6/h4,6-7H,2-3H2,1H3/t6-,7-,8+/m1/s1
