17
gdb 30583	6.55656	0.66343	0.60699	3.4902	89.06	-0.2054	0.0138	0.2191	1814.7629	0.137285	-380.891836	-380.883084	-380.882139	-380.927043	31.279	
C	-0.0469345626	 1.5378764011	 0.078590097	-0.364517
C	 0.0081577064	 0.0022517592	-0.0186527294	-0.327068
C	 0.6914112421	-0.4705662775	-1.2166114087	 0.249011
C	 1.2589745789	-0.8501395315	-2.2115215244	-0.132144
C	 1.9245753141	-1.2998886081	-3.3777202254	 0.155245
C	 2.4773178655	-0.5264115223	-4.3761682626	-0.20231
N	 3.0017680855	-1.4147717958	-5.2817651388	-0.225105
C	 2.7528372036	-2.6709886978	-4.8079242454	-0.007856
N	 2.1092071839	-2.6451752938	-3.6686986572	-0.304878
H	 0.9605229116	 1.9625350452	 0.0978273218	 0.126615
H	-0.5756462667	 1.9628871362	-0.7790205759	 0.126524
H	-0.5676357411	 1.8437441586	 0.990921607	 0.113398
H	 0.5092331322	-0.4026576066	 0.8705494202	 0.12979
H	-1.0124922781	-0.4022078474	 0.0026522474	 0.129673
H	 2.5375117216	 0.5399935748	-4.510516207	 0.133801
H	 3.4800835438	-1.1786925975	-6.1348321202	 0.269815
H	 3.0655168593	-3.558136977	-5.3383457286	 0.130005
22.4813	72.2178	103.2756	187.5454	218.4407	311.4015	416.1447	476.0694	510.175	523.9271	572.1684	657.504	707.1579	758.8035	786.7022	821.5106	877.4509	947.5513	968.6174	1048.5818	1086.5608	1102.9679	1106.2994	1126.6127	1236.3539	1283.4415	1291.2364	1346.0108	1358.8117	1408.9398	1447.5672	1475.9925	1494.9818	1505.8471	1530.6759	1574.0157	2357.8979	3014.65	3040.2829	3043.5756	3116.6889	3121.9153	3251.6996	3284.0165	3666.5599
CCC#CC1=CNC=N1	CCC#Cc1c[nH]cn1	
InChI=1S/C7H8N2/c1-2-3-4-7-5-8-6-9-7/h5-6H,2H2,1H3,(H,8,9)	InChI=1S/C7H8N2/c1-2-3-4-7-5-8-6-9-7/h5-6H,2H2,1H3,(H,8,9)
