18
gdb 122785	3.1553	0.93266	0.81381	2.7583	78.03	-0.2193	-0.072	0.1473	1432.0457	0.144787	-439.042438	-439.032274	-439.031329	-439.078856	35.811	
O	-1.5568704237	 1.5362040083	-0.5415355735	-0.429114
C	-0.6337879908	 0.5238191604	-0.2007906834	-0.067693
C	-1.2825887662	-0.8345361257	 0.0939775902	-0.160038
N	-1.9515381495	-1.5048488689	-1.0201886806	-0.280476
C	-3.3337512201	-1.2156073774	-1.2926211984	-0.260024
C	-3.6202284127	-0.1598209348	-2.3613866152	 0.227302
O	-2.7471587483	 0.4741094373	-2.9240071038	-0.315331
C	-5.0186764321	 0.001579658	-2.7041510597	 0.259178
C	-6.1928542541	 0.1151954734	-2.944744283	-0.389276
H	-1.8077172206	 1.3941827679	-1.4630185095	 0.303733
H	 0.1322371628	 0.3978812614	-0.9841085991	 0.082777
H	-0.1100291889	 0.8578820629	 0.7040595395	 0.100712
H	-0.4988147763	-1.5037337912	 0.4781962058	 0.094925
H	-2.0150301665	-0.7118460843	 0.9001270814	 0.108723
H	-1.397191359	-1.4632826794	-1.8676120936	 0.223286
H	-3.8672629821	-2.1204019505	-1.6317078885	 0.130513
H	-3.8484143384	-0.9089650726	-0.373913191	 0.148941
H	-7.2251543835	 0.2314038052	-3.1719065177	 0.22186
34.5357	55.221	93.5061	138.1117	169.32	227.9132	256.7279	301.1233	348.6575	484.0332	495.8155	538.2484	563.5154	588.556	636.8581	652.9855	716.8179	819.9236	848.2103	884.2182	973.9946	1018.8879	1084.2036	1099.3981	1134.6821	1185.6532	1225.11	1283.0173	1319.8879	1364.5847	1385.5383	1411.4186	1426.7478	1433.8561	1478.7829	1490.2648	1517.0973	1747.7215	2209.2321	2964.251	2967.0846	3000.2279	3046.2677	3062.5342	3070.2213	3492.8873	3544.8259	3761.2546
OCCNCC(=O)C#C	OCCNCC(=O)C#C	
InChI=1S/C6H9NO2/c1-2-6(9)5-7-3-4-8/h1,7-8H,3-5H2	InChI=1S/C6H9NO2/c1-2-6(9)5-7-3-4-8/h1,7-8H,3-5H2
