12
gdb 8788	4.6615	1.37459	1.06871	1.3946	59.07	-0.2677	-0.0972	0.1704	1028.6738	0.080471	-418.469552	-418.461077	-418.460133	-418.503575	28.038	
C	-0.0313130781	 1.3806513912	 0.040939733	-0.243426
O	 0.0242792496	-0.0530064783	-0.031483817	-0.212225
C	 0.636385862	-0.5430346216	-1.1055712215	 0.386256
O	 1.1326797848	 0.1006229752	-1.9941537113	-0.349155
C	 0.6394408461	-2.0862413873	-1.0826500927	 0.093934
O	 0.1403634432	-2.7207525415	-0.1860078402	-0.251025
C	 1.2892832903	-2.68985403	-2.2233347685	 0.31446
C	 1.81849089	-3.243819309	-3.1512291765	-0.405032
H	 0.977782831	 1.7993139508	 0.0629199823	 0.148395
H	-0.5641455894	 1.7845046811	-0.82329358	 0.148586
H	-0.5634771084	 1.6078207505	 0.9636260259	 0.146155
H	 2.289517289	-3.7231916311	-3.9751403137	 0.223077
34.7975	114.308	128.7478	146.0119	226.8502	246.5399	327.8126	424.9822	496.2054	521.7572	662.2763	676.6855	727.2312	836.749	839.1071	975.2445	1116.3293	1177.6645	1211.8023	1317.4605	1473.2986	1482.3039	1492.746	1779.549	1815.5209	2217.7785	3055.628	3132.2749	3170.9882	3493.9996
COC(=O)C(=O)C#C	COC(=O)C(=O)C#C	
InChI=1S/C5H4O3/c1-3-4(6)5(7)8-2/h1H,2H3	InChI=1S/C5H4O3/c1-3-4(6)5(7)8-2/h1H,2H3
