19
gdb 39690	4.44784	0.97083	0.84467	1.5803	70.85	-0.2485	0.075	0.3235	1345.2529	0.160311	-460.130073	-460.121656	-460.120712	-460.16518	29.528	
C	 0.0250135635	 1.4300909324	-0.1978956154	-0.088433
O	 1.3392207017	 1.5739492782	 0.3705541581	-0.27109
C	 1.4604819673	 0.1489986019	 0.5722616112	-0.083882
C	 0.0358731389	-0.1005593768	 0.0302540992	-0.04953
C	-0.9737050953	-0.6364125678	 1.0272381167	 0.103153
C	-2.4179522535	-0.7463014519	 0.5030052125	-0.132271
O	-2.9124129232	-1.9043010785	 1.1558359113	-0.232764
C	-1.814614088	-2.7776813651	 1.2034577643	 0.025856
O	-0.652755163	-1.9872637455	 1.3816401549	-0.278027
H	-0.7311054921	 1.99248202	 0.3672260902	 0.098624
H	-0.0102799277	 1.7501952976	-1.2466534651	 0.102078
H	 2.2735722434	-0.2819185145	-0.0239945723	 0.102905
H	 1.6171188516	-0.1083944029	 1.626573859	 0.112607
H	 0.0029850718	-0.6981308293	-0.884146491	 0.080739
H	-0.9459031866	-0.0246583828	 1.9412325297	 0.086519
H	-3.0525981514	 0.1002195722	 0.7707835655	 0.124188
H	-2.4290034175	-0.8746119221	-0.591757685	 0.094157
H	-1.9410962022	-3.4566766483	 2.0529662777	 0.119165
H	-1.7293057278	-3.3566387666	 0.2661108886	 0.086009
40.6734	53.2837	68.464	157.5357	244.1461	311.7015	363.3536	433.452	657.6718	742.3343	821.4032	856.232	887.7139	936.0897	972.6382	974.6831	985.5911	1014.3972	1045.2102	1072.2842	1076.2126	1118.0058	1128.3293	1152.5934	1164.9451	1175.3342	1206.0487	1209.2031	1250.6654	1267.3967	1305.8212	1312.3526	1339.5533	1369.685	1383.9335	1419.5553	1436.5375	1509.7724	1512.9476	1538.4309	1549.5221	2938.6384	2972.9474	2993.4205	3001.5917	3021.3305	3043.0999	3060.8697	3072.1955	3082.8156	3115.8263
C1OCC1C1COCO1	C1OCC1[C@H]1COCO1	
InChI=1S/C6H10O3/c1-5(2-7-1)6-3-8-4-9-6/h5-6H,1-4H2	InChI=1S/C6H10O3/c1-5(2-7-1)6-3-8-4-9-6/h5-6H,1-4H2/t6-/m1/s1
