21
gdb 86631	3.01081	1.06272	0.86453	3.4976	87.8	-0.2462	-0.0529	0.1933	1392.2423	0.182075	-387.128951	-387.119662	-387.118717	-387.162962	34.849	
C	-0.1542881567	 1.5481238779	-0.0733393404	-0.41287
C	 0.0763710436	 0.0395663409	-0.0164245879	 0.020504
C	 0.895140029	-0.5347131944	-1.2019872795	-0.32615
C	 1.5338824564	-1.7665737033	-0.6033582212	 0.240203
C	 2.1824504832	-2.8196021486	-1.385974155	 0.06577
O	 2.2774259987	-2.8135960583	-2.5942875895	-0.27298
C	 1.4563040528	-1.7573562963	 0.7361091836	-0.15028
C	 0.7907917066	-0.5100728715	 1.2642624356	-0.046068
C	 1.8316752757	 0.4317865171	 1.9024606763	-0.392067
H	 0.7886892703	 2.1041921047	-0.0761451124	 0.118479
H	-0.696903443	 1.8184087828	-0.9851559322	 0.11784
H	-0.7476258514	 1.8975928227	 0.7786066543	 0.112973
H	-0.9033999926	-0.4534978753	-0.045681495	 0.081291
H	 0.2782906133	-0.7631437648	-2.0758317244	 0.120821
H	 1.6670859102	 0.1666962625	-1.5475568834	 0.112233
H	 2.5957910119	-3.658239345	-0.7807370012	 0.063739
H	 1.8740321684	-2.5241048831	 1.3827408508	 0.104726
H	 0.0511058164	-0.7543703414	 2.0372998098	 0.080452
H	 2.598458555	 0.7298112733	 1.1803461008	 0.12331
H	 1.3571157267	 1.3376289915	 2.2908495117	 0.122198
H	 2.3377457855	-0.0639785913	 2.7371212492	 0.115878
90.4897	99.6107	162.7554	209.746	238.4712	245.8653	272.1954	342.4195	382.9105	453.8384	482.8927	511.6367	642.0321	727.1593	748.139	872.1591	879.3633	900.3099	926.0641	951.0138	995.8881	1025.214	1038.8963	1083.4824	1088.2449	1127.6523	1155.2576	1189.1105	1226.8289	1269.071	1305.1335	1327.5448	1353.5345	1367.1789	1373.4822	1404.0316	1413.9587	1420.6187	1488.3279	1489.4962	1493.9249	1504.0056	1507.0427	1678.1543	1782.7907	2871.4055	3009.866	3019.5163	3029.1578	3031.5318	3036.1147	3085.6443	3095.8941	3101.3871	3105.9114	3112.0497	3175.0619
CC1CC(C=O)=CC1C	C[C@H]1CC(=C[C@H]1C)C=O	
InChI=1S/C8H12O/c1-6-3-8(5-9)4-7(6)2/h3,5-7H,4H2,1-2H3	InChI=1S/C8H12O/c1-6-3-8(5-9)4-7(6)2/h3,5-7H,4H2,1-2H3/t6-,7+/m1/s1
