18
gdb 94756	4.08076	1.16083	1.02791	2.3253	80.13	-0.2368	0.029	0.2659	1190.5749	0.147194	-401.896834	-401.888427	-401.887483	-401.929536	32.449	
C	 0.190050823	 1.5795322434	-0.0552999647	-0.403741
C	 0.067276355	 0.066120471	 0.0206316682	 0.149142
O	 0.7432718506	-0.4974552086	-1.1073190494	-0.275353
C	 1.2458886841	-1.7836712781	-0.7859202187	-0.142526
C	 1.460949034	-1.7770719062	 0.7239236952	 0.190994
N	 2.1899870587	-0.5518116218	 1.1612717104	-0.363775
C	 0.7217693106	-0.5852747911	 1.2283894803	-0.141817
C	 1.5935239605	-3.0015648061	 1.4480433135	 0.161795
C	 1.7278008269	-4.0439265284	 2.0338951404	-0.379801
H	 1.2401023602	 1.8692686476	 0.0284781131	 0.141985
H	-0.2004731163	 1.9408313419	-1.0103337956	 0.127242
H	-0.3792415329	 2.0533218737	 0.7507717665	 0.109651
H	-0.9956428264	-0.230697723	 0.012327103	 0.069935
H	 0.5320283306	-2.5813212483	-1.0429957221	 0.0995
H	 2.1700086377	-1.9355783352	-1.3512955304	 0.120226
H	 2.5689992092	-0.7247337244	 2.0902488982	 0.239768
H	 0.2159728659	-0.5929714467	 2.1876802698	 0.104253
H	 1.8412990787	-4.9616587096	 2.5560950723	 0.192522
110.6017	137.0911	168.244	230.3651	257.573	327.6633	397.6504	448.1633	515.9064	549.775	572.8826	597.2641	657.4439	667.4709	765.8227	827.3274	852.3688	894.6639	958.645	994.9081	1042.0061	1059.7857	1071.3962	1088.2662	1114.0014	1148.7433	1174.2795	1234.134	1275.9604	1292.7486	1348.138	1364.3987	1389.2576	1406.8249	1434.4116	1485.2672	1499.329	1507.5883	2236.2004	2955.4464	2989.9754	3045.4482	3084.4044	3116.733	3135.525	3178.7581	3498.0846	3501.6818
CC1OCC2(NC12)C#C	C[C@H]1OC[C@]2(N[C@@H]12)C#C	
InChI=1S/C7H9NO/c1-3-7-4-9-5(2)6(7)8-7/h1,5-6,8H,4H2,2H3	InChI=1S/C7H9NO/c1-3-7-4-9-5(2)6(7)8-7/h1,5-6,8H,4H2,2H3/t5-,6+,7-/m1/s1
