20
gdb 23265	2.47706	1.4784	1.05915	0.7458	81.46	-0.2403	0.0113	0.2516	1178.4601	0.171327	-403.117277	-403.108733	-403.107789	-403.150238	33.476	
C	 0.100583252	 1.6201668622	 0.005586493	-0.389613
C	 0.0987147522	 0.0905643326	 0.0333155276	-0.069489
C	 0.7307820405	-0.596863976	-1.1741424335	-0.033341
C	 2.2356361471	-0.5692468632	-1.2850969356	-0.291031
C	 1.550731238	-1.7803317194	-0.7014410782	-0.046535
C	 1.4800852697	-1.8465256611	 0.8169353288	-0.313003
C	 0.8437707617	-0.528468712	 1.2091891864	 0.369917
N	 0.9010271663	 0.0653452426	 2.3324112536	-0.225819
O	 1.6159040629	-0.6881821271	 3.2823720931	-0.393885
H	 1.1188007156	 2.0058723961	-0.1018760096	 0.117382
H	-0.4950208944	 1.9910829229	-0.8345048849	 0.105842
H	-0.3147803374	 2.0233770172	 0.932279993	 0.131106
H	-0.9460441782	-0.2519282935	 0.0957092548	 0.091493
H	 0.1498966997	-0.6504003634	-2.0880987049	 0.081443
H	 2.6643694464	-0.6624446894	-2.2766636705	 0.110847
H	 2.8002074944	 0.076852083	-0.6181046928	 0.116638
H	 1.5692549072	-2.7079550079	-1.2614867509	 0.083193
H	 0.8458929378	-2.6796577307	 1.1480437542	 0.12045
H	 2.4485110313	-1.974919398	 1.3094958395	 0.129826
H	 1.6106239473	-0.1037637849	 4.0477362371	 0.304579
76.3981	186.4352	202.0891	215.524	255.834	311.7073	357.7545	394.5845	495.4994	517.2216	533.4357	616.3041	688.2641	782.1905	793.7217	826.26	877.5296	895.6885	963.2506	974.4877	992.0052	1029.5561	1038.5181	1071.0811	1090.1276	1107.186	1110.3218	1138.8695	1184.2326	1205.0662	1222.2341	1293.2956	1299.606	1330.1802	1356.1689	1391.5278	1399.3469	1414.3263	1470.6443	1488.5355	1493.3984	1497.9764	1752.8172	2981.5988	3026.7714	3041.6307	3083.77	3109.0138	3121.1518	3125.4917	3167.6859	3177.3881	3209.81	3818.5346
CC1C2CC2CC1=NO	C[C@H]1[C@H]2C[C@H]2CC1=NO	
InChI=1S/C7H11NO/c1-4-6-2-5(6)3-7(4)8-9/h4-6,9H,2-3H2,1H3	InChI=1S/C7H11NO/c1-4-6-2-5(6)3-7(4)8-9/h4-6,9H,2-3H2,1H3/t4-,5-,6+/m0/s1
