13
gdb 129961	3.32852	1.16812	0.87548	4.2113	62.85	-0.2311	-0.0283	0.2028	1209.9626	0.088819	-489.88047	-489.872457	-489.871513	-489.913773	28.282	
N	 0.1617272823	 1.359694921	 0.2315256852	-0.61683
C	 0.022708468	-0.0091000422	 0.0175941134	 0.041796
C	-1.0581942863	-0.8360869554	 0.0487693059	 0.024799
O	-0.6760419725	-2.1233853165	-0.1403109418	-0.173804
N	 0.692097942	-2.1733399203	-0.3113728623	-0.223299
C	 1.087572639	-0.9299142367	-0.2068499751	 0.451408
O	 2.3843502985	-0.5423807996	-0.3391121236	-0.236454
C	 3.3725910355	-1.3972910681	 0.1028892009	 0.165583
O	 4.5187057562	-1.1458173314	-0.0768788328	-0.244952
H	 1.0190361836	 1.7261647614	-0.1608383946	 0.264848
H	-0.6293145162	 1.9087675732	-0.074994567	 0.257269
H	-2.1142735599	-0.6746421043	 0.1904366578	 0.151367
H	 2.9580453799	-2.276319861	 0.6170950941	 0.138268
69.9068	118.3051	163.1815	197.458	267.4487	291.7787	416.1957	484.0355	531.5838	586.8097	671.7671	711.1467	741.0325	787.3812	858.5124	934.18	994.4987	1038.5977	1080.9959	1119.3015	1142.6514	1279.2411	1320.6923	1404.0869	1474.2161	1543.8768	1649.821	1696.7602	1885.1779	3052.4828	3277.2237	3551.5781	3644.9042
NC1=CON=C1OC=O	Nc1conc1OC=O	
InChI=1S/C4H4N2O3/c5-3-1-9-6-4(3)8-2-7/h1-2H,5H2	InChI=1S/C4H4N2O3/c5-3-1-9-6-4(3)8-2-7/h1-2H,5H2
