22
gdb 115840	2.2793	1.55513	1.26123	1.0935	81.25	-0.2216	0.0663	0.2879	1126.2568	0.195476	-404.325078	-404.316045	-404.315101	-404.358654	34.77	
C	-0.3774459124	 1.3458653929	 0.112384404	-0.429911
C	-0.0609796581	-0.1350740332	 0.0654256527	 0.007707
C	 0.5109128893	-0.8475877232	-1.1060084955	-0.040102
C	 1.2862011677	-0.0503877326	-2.15510355	-0.234522
C	 2.4114662174	 0.6639031062	-1.3701862706	-0.255823
C	 2.5295925536	-0.153835832	-0.0635961814	 0.056914
C	 3.0811890609	 0.5933162059	 1.1499939083	-0.09544
O	 2.3855922281	 1.7817291585	 1.4920751677	-0.41511
N	 1.2428930558	-0.8427405035	 0.17759903	-0.143925
H	 0.3234387378	 1.9791721736	-0.4267542483	 0.140408
H	-1.3741702241	 1.4959447077	-0.3199088254	 0.120642
H	-0.4320127368	 1.7094786978	 1.1451965418	 0.110485
H	-0.8067312218	-0.704530718	 0.6210065119	 0.091268
H	 0.0801234746	-1.7953813605	-1.4218394593	 0.082085
H	 1.7074392858	-0.7462155347	-2.88787708	 0.104944
H	 0.6510473748	 0.6475995032	-2.7104696983	 0.103601
H	 3.3548906012	 0.6738469984	-1.9235216175	 0.09755
H	 2.1646250658	 1.703101381	-1.1454238916	 0.124404
H	 3.2354367166	-0.9799986099	-0.2369800707	 0.080059
H	 3.1242816036	-0.1003186633	 2.0018270806	 0.098634
H	 4.1081490604	 0.9036453955	 0.9267074119	 0.107312
H	 1.5504829499	 1.5248776902	 1.8926211494	 0.288819
71.2331	132.2217	180.283	209.1704	228.504	257.0622	294.3584	347.1616	421.7964	486.2163	612.6544	662.8037	682.8805	723.8272	749.5989	836.687	846.2821	883.9174	932.3136	971.9251	987.5823	988.4039	1039.9473	1056.187	1102.4716	1113.8606	1132.3964	1141.235	1164.4926	1183.78	1226.6815	1244.8396	1286.4353	1313.4707	1324.4188	1350.5198	1363.2849	1379.2053	1409.8094	1415.0654	1419.5871	1437.6284	1476.3868	1489.5158	1494.3649	1505.4969	1520.6292	2987.184	3007.2985	3029.0743	3044.8806	3066.456	3070.5708	3072.8893	3078.3434	3092.1545	3116.7238	3124.6467	3173.4804	3841.6824
CC1C2CCC(CO)N12	C[C@H]1[C@H]2CC[C@@H](CO)N12	
InChI=1S/C7H13NO/c1-5-7-3-2-6(4-9)8(5)7/h5-7,9H,2-4H2,1H3	InChI=1S/C7H13NO/c1-5-7-3-2-6(4-9)8(5)7/h5-7,9H,2-4H2,1H3/t5-,6-,7+,8?/m0/s1
