21
gdb 118262	2.15856	0.81591	0.62011	1.6937	81.97	-0.2516	0.0315	0.283	1797.0406	0.178313	-424.175466	-424.164227	-424.163282	-424.213229	39.345	
C	-0.0771755751	 1.5199446388	-0.0164034089	-0.406665
C	-0.034553647	-0.0102157217	-0.006569461	 0.149445
C	 0.6741379854	-0.57569881	-1.2369774562	-0.208515
C	 0.6216877095	-2.1028786591	-1.3217618512	-0.07012
O	 1.2546489083	-2.6033704886	-2.4907596457	-0.419871
O	 0.6702223865	-0.5164405342	 1.1283570711	-0.260026
C	-0.0440288563	-0.4487040986	 2.3473192286	-0.216584
C	 0.6822787263	-1.1749405748	 3.3818544144	 0.284892
C	 1.2615522932	-1.7648618452	 4.2526594622	-0.416811
H	 0.9384642068	 1.9277182557	-0.0282368456	 0.126792
H	-0.6060524059	 1.8793615394	-0.904566005	 0.119695
H	-0.5967042682	 1.9189921888	 0.8596076656	 0.11744
H	-1.0690053025	-0.3969512722	 0.0202362102	 0.066106
H	 0.224088288	-0.1522549578	-2.1416555901	 0.103686
H	 1.7217298386	-0.2456501634	-1.2122286934	 0.096204
H	 1.0483318541	-2.5388948309	-0.409230232	 0.110147
H	-0.4207824009	-2.436093821	-1.3868930309	 0.103879
H	 2.1977637571	-2.430995788	-2.4074457857	 0.280602
H	-0.1889727574	 0.5937260495	 2.6721785239	 0.121523
H	-1.0506154765	-0.8851301467	 2.2279749941	 0.117608
H	 1.7771305258	-2.28947836	 5.0185934657	 0.200574
35.809	64.8696	83.3784	107.6179	143.7554	177.0362	228.8265	274.7476	297.9648	329.8364	345.4785	363.3541	463.2523	529.9047	547.3298	608.6243	674.9871	782.8853	864.8426	933.9278	968.8139	975.5626	1009.0148	1031.1398	1075.3194	1099.1717	1106.7841	1122.9977	1155.205	1217.3586	1251.5274	1292.491	1318.1808	1363.2518	1372.8492	1403.6951	1407.2312	1419.9304	1425.9354	1473.9695	1490.0329	1495.2948	1505.6472	1517.6914	2247.6511	2943.42	2957.6446	2986.7423	3018.1059	3023.3679	3040.0436	3060.2835	3084.8725	3110.7665	3115.4394	3506.6844	3817.908
CC(CCO)OCC#C	C[C@@H](CCO)OCC#C	
InChI=1S/C7H12O2/c1-3-6-9-7(2)4-5-8/h1,7-8H,4-6H2,2H3	InChI=1S/C7H12O2/c1-3-6-9-7(2)4-5-8/h1,7-8H,4-6H2,2H3/t7-/m0/s1
