18
gdb 49755	3.6767	1.34796	1.16127	3.8477	80.16	-0.2129	-0.0078	0.2051	1077.3189	0.150782	-401.969322	-401.962328	-401.961384	-402.000693	28.341	
O	-0.0785227423	-0.0398390074	 0.0419266099	-0.331672
C	-0.0127980781	 1.169836885	 0.0362524052	 0.142364
N	 1.1501473202	 1.8947322068	-0.0093043675	-0.044706
C	 2.4083563357	 1.2711609503	-0.0549113786	 0.007409
C	 3.4961366998	 2.0472629543	-0.0978161655	-0.148605
C	 3.2811834001	 3.5456142532	-0.0937021229	-0.072054
C	 2.2241925793	 3.8690935483	 1.0128389309	-0.228765
C	 1.1711405613	 3.3585666441	-0.0139600098	-0.005553
C	 2.1441063668	 3.8634610655	-1.1195339086	-0.228764
H	-0.9023075836	 1.8278568965	 0.0679449846	 0.077197
H	 2.3793852193	 0.1908899775	-0.0509698528	 0.147357
H	 4.4893740315	 1.6195277204	-0.1339862457	 0.102102
H	 4.2053279427	 4.1218482428	-0.1299329687	 0.068589
H	 2.3042087175	 3.3475070608	 1.968111753	 0.110059
H	 2.1113512831	 4.94368322	 1.1711318586	 0.1071
H	 0.1467771843	 3.7318233267	 0.0235275641	 0.080783
H	 2.0194964606	 4.9372231312	-1.2745828116	 0.1071
H	 2.1523470218	 3.336826864	-2.0753527946	 0.110058
95.755	250.8294	265.604	355.8257	403.9025	405.5303	452.6037	609.7535	611.0586	707.7419	744.8923	805.6795	851.0904	864.0475	876.7337	936.3018	948.0192	953.9789	1008.5952	1018.1765	1020.439	1080.0776	1102.0683	1115.0132	1121.9616	1173.927	1235.5488	1250.9246	1255.9731	1276.9599	1316.5941	1324.2552	1363.8794	1437.6811	1448.8288	1472.9545	1503.9431	1689.6342	1792.4625	2947.3448	3067.8822	3072.6606	3102.5086	3112.6045	3133.5854	3136.1153	3213.9932	3249.7549
O=CN1C=CC2CC1C2	O=CN1C=C[C@@H]2C[C@H]1C2	
InChI=1S/C7H9NO/c9-5-8-2-1-6-3-7(8)4-6/h1-2,5-7H,3-4H2	InChI=1S/C7H9NO/c9-5-8-2-1-6-3-7(8)4-6/h1-2,5-7H,3-4H2/t6-,7+
