21
gdb 76790	1.94279	1.87786	1.20258	2.0282	77.88	-0.2535	0.0633	0.3168	1122.9586	0.18094	-424.198428	-424.18897	-424.188026	-424.232205	35.99	
C	-0.2386823383	 1.4595443815	 0.1760362317	-0.400149
C	-0.0882309789	-0.0478480909	 0.0006367205	-0.064511
C	 0.7539303813	-0.5174339231	-1.2457848418	-0.072668
C	 0.9089448879	 0.3745733368	-2.4685507435	-0.409227
C	 1.9438363716	-0.6775092175	-0.2957023906	 0.362367
C	 3.3359524292	-1.0851089831	-0.4469221821	-0.271708
O	 2.9878334047	 0.3050455095	-0.2760171185	-0.281084
C	 1.0198024205	-0.6797233122	 0.9251582851	 0.079596
O	 1.4830969773	 0.0117508637	 2.0485226312	-0.435314
H	 0.7186234175	 1.9822240993	 0.0862711286	 0.122589
H	-0.9184459926	 1.8782545619	-0.5726207294	 0.111862
H	-0.6413649672	 1.6844476859	 1.1677447065	 0.1268
H	-1.0661455191	-0.5304995999	 0.0841483894	 0.065068
H	 0.4124306042	-1.5126963952	-1.5543928017	 0.080834
H	 1.3129302905	 1.3540107981	-2.2027460709	 0.132542
H	 1.5922487773	-0.078102233	-3.1952355645	 0.114778
H	-0.0537675296	 0.5218115796	-2.9684554211	 0.116833
H	 3.8613105549	-1.5349869702	 0.3942880398	 0.122872
H	 3.7294356787	-1.336461786	-1.4307103263	 0.119996
H	 0.7414536051	-1.6923151341	 1.237191383	 0.086163
H	 2.1703951949	 0.610833579	 1.7246714244	 0.29236
73.8562	175.8611	193.3142	210.982	214.2396	232.528	248.3207	265.189	402.1936	445.6632	496.0101	518.5484	597.2473	620.8224	751.5976	780.7106	802.6913	849.4894	879.5304	959.964	991.9905	1019.8251	1035.4436	1082.3598	1104.4207	1124.0378	1159.3951	1165.4079	1167.9106	1187.2862	1193.9467	1265.8592	1281.6168	1318.0084	1354.6622	1372.2817	1407.779	1413.689	1424.0587	1456.1731	1486.5352	1493.1875	1499.8622	1506.754	1529.4828	3031.8815	3037.5609	3040.7224	3045.3725	3064.0579	3084.8386	3096.7851	3106.7419	3113.3405	3127.5124	3172.3613	3741.647
CC1C(C)C2(CO2)C1O	C[C@H]1[C@@H](C)[C@]2(CO2)[C@H]1O	
InChI=1S/C7H12O2/c1-4-5(2)7(3-9-7)6(4)8/h4-6,8H,3H2,1-2H3	InChI=1S/C7H12O2/c1-4-5(2)7(3-9-7)6(4)8/h4-6,8H,3H2,1-2H3/t4-,5+,6-,7+/m0/s1
