17
gdb 48718	3.76303	1.34764	1.15702	4.0921	72.35	-0.2404	-0.0221	0.2184	1053.4582	0.138012	-417.976347	-417.969204	-417.96826	-418.00791	28.3	
O	-0.4965550574	 0.7127056177	 0.7416149664	-0.272892
C	 0.2062451738	 0.9876644285	-0.2009288219	 0.121098
C	 1.3781736451	 1.8967935359	-0.1379611604	 0.202736
C	 1.8602187082	 2.4076619412	 1.2175866487	-0.31351
C	 2.4067505995	 3.8085182745	 0.9706388144	-0.033591
N	 3.5534110967	 3.8552446996	 0.0419587216	-0.347983
C	 2.1980270288	 4.1695241691	-0.4580548326	-0.048399
C	 1.5542813913	 2.9949371362	-1.1725380677	-0.067781
N	 2.3144984933	 1.76482228	-1.2745871617	-0.367205
H	 0.0201182221	 0.580955714	-1.2189692276	 0.084133
H	 0.9993268428	 2.4420044734	 1.892138468	 0.134739
H	 2.6067039262	 1.7468815739	 1.670381984	 0.12112
H	 2.3586453748	 4.5475380435	 1.764155907	 0.097569
H	 4.0822638578	 4.7124774278	 0.1781906565	 0.239759
H	 1.9682949667	 5.1770115065	-0.7844152913	 0.094571
H	 0.831690191	 3.1892871587	-1.9587760064	 0.101246
H	 3.2660255592	 1.9489665296	-0.9520305669	 0.254389
106.3364	195.6913	225.7494	325.7006	332.7557	422.9838	502.975	596.3686	671.2904	685.8349	737.0449	783.9393	836.4072	848.2848	886.3221	899.1526	961.2304	976.204	1024.8689	1035.704	1058.3883	1078.551	1123.5907	1129.9646	1145.7615	1183.9745	1202.3003	1241.5135	1298.9699	1305.7064	1337.0581	1365.4392	1393.0334	1419.1187	1427.9257	1478.9923	1811.1706	2900.9575	3055.4889	3100.9505	3159.4991	3160.8304	3187.3323	3447.6188	3511.1328
O=CC12CC3NC3C1N2	O=C[C@]12C[C@H]3N[C@H]3[C@H]1N2	
InChI=1S/C6H8N2O/c9-2-6-1-3-4(7-3)5(6)8-6/h2-5,7-8H,1H2	InChI=1S/C6H8N2O/c9-2-6-1-3-4(7-3)5(6)8-6/h2-5,7-8H,1H2/t3-,4-,5-,6-/m1/s1
