13
gdb 130231	3.11382	1.49818	1.01515	5.3349	65.87	-0.2421	-0.0558	0.1863	1068.181	0.090089	-486.06375	-486.056067	-486.055123	-486.096343	28.588	
N	 0.0475988596	 1.3408670973	 0.3874034676	-0.567102
C	-0.032993859	 0.0002924859	 0.0393895763	 0.49003
N	-1.1873450049	-0.5365334421	-0.1389768188	-0.198484
O	-1.1892969309	-1.943197179	-0.3302970509	-0.287516
C	-0.0585338718	-2.6622557226	-0.6202145043	 0.304004
N	-0.1136329914	-3.8675073272	-0.9916227039	-0.469437
C	 1.2814979543	-1.9977735402	-0.4130897958	 0.387332
O	 2.3452131914	-2.5488677681	-0.5204258049	-0.313039
N	 1.1710896275	-0.6659733534	-0.0476448428	-0.397304
H	 0.6741123772	 1.8823100132	-0.197007486	 0.263133
H	-0.8729949849	 1.7611628354	 0.4219184932	 0.276401
H	-1.0870134099	-4.1717426063	-1.0682429012	 0.239228
H	 2.0282991028	-0.195670693	 0.2095642017	 0.272753
64.1194	112.3169	284.8059	328.7966	347.7886	360.0394	416.2824	468.7604	519.2231	580.4853	611.8188	651.0229	681.1613	770.0465	794.5331	823.3604	907.9169	926.6351	1047.2625	1076.4818	1174.8427	1234.9629	1317.4456	1354.8095	1525.8229	1633.2767	1714.5453	1741.4333	1842.3649	3468.9358	3529.6809	3602.8851	3630.5169
NC1=NOC(=N)C(=O)N1	NC1=NO[C]([NH])C(=O)N1	
InChI=1S/C3H4N4O2/c4-1-2(8)6-3(5)7-9-1/h4H,(H3,5,6,7,8)	InChI=1S/C3H4N4O2/c4-1-2(8)6-3(5)7-9-1/h4H,(H3,5,6,7,8)
