18
gdb 70371	2.41522	1.52533	1.33917	4.7986	75.82	-0.2708	0.0383	0.3091	1050.7076	0.146496	-401.932231	-401.923451	-401.922507	-401.96512	33.602	
C	-0.1100084756	 1.5745914533	 0.0256123568	-0.456518
C	 0.0185802251	 0.0465585076	 0.0161569284	 0.042896
C	 1.1360932971	-0.6076480758	-0.8968451927	-0.27527
C	 1.7305618162	-1.3036969637	 0.3307991267	-0.086406
C	 2.1522815923	-0.2612919947	 1.3410537322	-0.360884
C	 0.7024910131	-0.6468133655	 1.2322604331	 0.387248
O	 0.0056506389	-1.2263599855	 2.2682366256	-0.447921
C	-1.2842214306	-0.5568464497	-0.2581223904	 0.27074
N	-2.3228717376	-1.0084823166	-0.4898765788	-0.346625
H	 0.8581835051	 2.0407816608	 0.2246716693	 0.123043
H	-0.4723999287	 1.9388310925	-0.9399407274	 0.140106
H	-0.8168497097	 1.902381603	 0.7939635706	 0.1332
H	 0.7191614006	-1.2885789389	-1.6387751309	 0.135309
H	 1.7871611859	 0.1167080692	-1.3958823256	 0.107429
H	 2.1109860755	-2.316125426	 0.3566789302	 0.106682
H	 2.6278475544	-0.6616114624	 2.230600945	 0.124714
H	 2.5324156076	 0.7054041086	 1.0199854296	 0.109522
H	-0.1115216295	-0.5764278163	 2.9702859582	 0.292734
117.6023	138.1601	206.5729	217.4386	248.2865	268.0563	339.7661	367.8755	433.0586	459.0122	534.4449	563.0931	634.6187	663.4428	799.4158	839.3506	867.896	906.5957	912.3573	964.8636	993.8779	1028.4361	1036.8307	1086.0733	1115.098	1136.6335	1186.6044	1212.9286	1240.6028	1260.8982	1290.3421	1312.7872	1400.3624	1411.81	1478.4775	1488.9237	1493.4405	1507.1293	2353.0232	3043.5218	3057.1093	3109.8101	3114.7757	3123.9825	3134.8	3202.057	3209.8106	3792.3025
CC1(CC2CC12O)C#N	C[C@]1(C[C@H]2C[C@@]12O)C#N	
InChI=1S/C7H9NO/c1-6(4-8)2-5-3-7(5,6)9/h5,9H,2-3H2,1H3	InChI=1S/C7H9NO/c1-6(4-8)2-5-3-7(5,6)9/h5,9H,2-3H2,1H3/t5-,6-,7-/m0/s1
