17
gdb 69076	2.72775	1.67136	1.2616	3.1815	75.11	-0.2321	-0.0294	0.2026	1007.5573	0.135674	-418.021647	-418.01352	-418.012576	-418.053849	31.266	
C	-0.0537426439	 1.4762204468	 0.1563595795	-0.471532
C	 0.032216356	-0.0215561347	 0.0537832932	 0.313586
C	-0.7796923878	-0.9127252345	 0.9381545768	-0.354827
C	 0.7197856901	-0.9491669728	 1.1591071168	 0.170854
N	 1.498028638	-1.8419280307	 0.3437643706	-0.360304
C	 1.1666227091	-1.6003213013	-0.9757801455	 0.039648
N	 0.4364648415	-0.5739301767	-1.21163169	-0.278513
C	 1.3359530391	-0.4001752704	 2.3737660247	 0.093487
O	 0.7616672075	 0.3006007903	 3.1777724521	-0.282134
H	 0.8447104477	 1.9459703827	-0.253465996	 0.127524
H	-0.9145406883	 1.8355342732	-0.4170465913	 0.133719
H	-0.1740645779	 1.7855526752	 1.1971400441	 0.147042
H	-1.3228925931	-0.4248024812	 1.7400030934	 0.145087
H	-1.247917318	-1.7925268423	 0.5083517337	 0.115387
H	 1.7066840308	-2.7796422297	 0.6531491025	 0.253499
H	 1.5608256594	-2.2499819414	-1.7506346141	 0.133877
H	 2.4118899998	-0.6616693426	 2.4880851496	 0.073602
129.3357	178.3141	203.2846	240.9697	278.8656	332.23	389.0241	427.0858	434.1775	526.1358	587.2475	613.7122	665.018	761.6178	788.8867	920.5285	940.5374	960.6758	974.8991	987.1907	1043.8646	1059.5349	1097.3698	1119.937	1183.9024	1253.0987	1292.4801	1343.239	1353.6724	1402.3389	1419.3885	1424.0304	1457.0155	1489.0591	1495.8889	1654.9966	1789.9997	2881.4523	3043.6367	3109.4655	3126.9113	3135.6694	3196.3478	3226.9364	3613.8664
CC12CC1(NC=N2)C=O	C[C@]12C[C@]1(NC=N2)C=O	
InChI=1S/C6H8N2O/c1-5-2-6(5,3-9)8-4-7-5/h3-4H,2H2,1H3,(H,7,8)	InChI=1S/C6H8N2O/c1-5-2-6(5,3-9)8-4-7-5/h3-4H,2H2,1H3,(H,7,8)/t5-,6-/m0/s1
