21
gdb 105063	2.58097	1.33823	1.04107	2.3277	78.51	-0.24	0.0672	0.3072	1214.3889	0.180903	-424.183439	-424.173893	-424.172949	-424.217643	37.003	
O	-0.1134108486	 1.4357949568	 0.0410474732	-0.421464
C	-0.0354647723	 0.0241536444	 0.1762526256	-0.175936
C	-1.4230119056	-0.5764568912	 0.0123195654	 0.304856
C	-2.5685852699	 0.1880445705	 0.6376251102	-0.317059
C	-2.412456929	 0.1517963339	-0.8642754438	-0.288855
C	-1.4805343172	-2.0923085328	 0.0005765313	 0.322981
O	-2.7810083784	-2.6221735376	 0.0943265424	-0.457706
C	-0.6069894121	-2.9005968569	-0.9132516972	-0.295054
C	-0.3841768022	-2.9535378515	 0.5873674904	-0.337493
H	 0.7626810809	 1.7976260585	 0.1983837625	 0.290074
H	 0.6486040751	-0.395521505	-0.5790934915	 0.089649
H	 0.3625909624	-0.2446822042	 1.1673533307	 0.090425
H	-3.3954748037	-0.3635775391	 1.0688931274	 0.090903
H	-2.3195471615	 1.11289328	 1.1436459339	 0.122031
H	-2.0781068064	 1.056045289	-1.3566830588	 0.123763
H	-3.1129860937	-0.4605097676	-1.4199448432	 0.117872
H	-3.0669312797	-2.5322178312	 1.0098644838	 0.282252
H	-1.074913368	-3.7589230034	-1.380573038	 0.122828
H	 0.1265854145	-2.3901525283	-1.5267503681	 0.114281
H	 0.5089981288	-2.4924545044	 0.992879924	 0.110423
H	-0.7017211433	-3.8523038997	 1.1045601798	 0.111228
47.199	113.9473	211.6317	215.2675	254.1444	291.839	317.2149	343.2655	368.2806	388.6124	425.7464	489.0873	542.8612	636.9431	770.2841	791.8715	823.758	864.0895	888.5304	919.0793	920.9661	972.4798	982.3421	1004.0636	1050.4383	1063.5575	1073.9245	1080.5936	1087.2041	1108.5563	1185.4468	1188.7705	1199.3479	1226.373	1253.8302	1283.5271	1327.7044	1346.0743	1385.3547	1444.7453	1453.4557	1461.0734	1488.5443	1504.4108	1523.7324	2960.8466	2988.8816	3135.3575	3141.7554	3143.2625	3147.7982	3218.4632	3228.574	3234.2775	3244.6795	3799.6047	3843.5824
OCC1(CC1)C1(O)CC1	OCC1(CC1)C1(O)CC1	
InChI=1S/C7H12O2/c8-5-6(1-2-6)7(9)3-4-7/h8-9H,1-5H2	InChI=1S/C7H12O2/c8-5-6(1-2-6)7(9)3-4-7/h8-9H,1-5H2
