16
gdb 20829	4.98492	1.373	1.13917	2.1197	67.17	-0.2075	0.0255	0.233	1050.4178	0.132988	-376.143461	-376.135589	-376.134645	-376.176237	28.748	
C	-0.1936442022	 1.5199270214	 0.0473792476	-0.367965
C	 0.0421708792	 0.0021317414	 0.0188350858	-0.303363
C	 0.7943137352	-0.4833847152	 1.2161467319	 0.37986
N	 1.9783363168	-0.0534000432	 1.6275350292	-0.360146
C	 2.2090602142	-0.8044848902	 2.743936719	 0.38533
N	 3.3354764143	-0.6192722242	 3.5220466549	-0.583075
N	 1.256299414	-1.6748568005	 3.0521148599	-0.302627
N	 0.3527088494	-1.4398637655	 2.052102503	-0.247441
H	 0.7591164498	 2.047344283	 0.1327066824	 0.148811
H	-0.6965228344	 1.8486108943	-0.8666179708	 0.1136
H	-0.81398164	 1.8053814103	 0.9022391448	 0.123041
H	-0.9122363055	-0.5327023874	-0.0488066417	 0.101044
H	 0.612064645	-0.2601170357	-0.8805984637	 0.131354
H	 4.1212727484	-0.266678821	 2.9957079948	 0.255848
H	 3.5708374384	-1.4209663116	 4.0887673042	 0.254768
H	-0.5032196326	-1.9672332359	 2.0200751687	 0.27096
37.3577	139.2188	202.1257	267.0076	312.2039	330.5723	399.7572	458.9021	497.0292	617.5859	640.8363	715.8021	777.7137	786.9718	804.6461	977.7296	1022.5733	1065.9079	1079.1623	1092.6759	1108.3736	1181.6617	1255.4977	1305.6302	1366.5634	1406.1914	1420.804	1474.825	1490.9143	1497.8737	1507.9943	1570.4377	1594.9319	1647.7938	3032.4692	3045.8628	3068.2827	3115.5996	3134.2301	3572.1968	3673.0239	3677.9127
CCC1=NC(N)=NN1	CCc1nc(N)n[nH]1	
InChI=1S/C4H8N4/c1-2-3-6-4(5)8-7-3/h2H2,1H3,(H3,5,6,7,8)	InChI=1S/C4H8N4/c1-2-3-6-4(5)8-7-3/h2H2,1H3,(H3,5,6,7,8)
