18
gdb 15273	2.77759	1.7631	1.37615	1.7001	64.93	-0.2234	0.0629	0.2863	981.1805	0.151456	-422.019546	-422.010488	-422.009544	-422.05305	32.173	
C	-0.012928067	 0.9320685274	 0.1703431629	-0.237109
O	-0.479846027	-0.1667165517	-0.6013676207	-0.240338
C	 0.4836593322	-0.6665611567	-1.4649056116	 0.025563
C	 1.5783227841	-1.5595942698	-0.8909596367	 0.054346
O	 1.5867195676	-1.8165258624	 0.4764311926	-0.426215
C	 0.4619152884	-2.1682373441	-1.70427554	-0.002434
O	-0.3936770783	-2.954056708	-0.9407424966	-0.250974
C	-1.7536874094	-2.8989458641	-1.354340876	-0.23641
H	 0.8392650938	 0.6395369263	 0.7928651323	 0.13729
H	 0.2785626034	 1.7750125095	-0.4735182162	 0.103427
H	-0.8436193926	 1.2460007595	 0.8068925986	 0.12407
H	 0.7345851157	-0.0222868498	-2.31100384	 0.080065
H	 2.5783617107	-1.5078336999	-1.3109074251	 0.101813
H	 0.7900250773	-2.3367217867	 0.6529515613	 0.2988
H	 0.6489801737	-2.5369654416	-2.713405355	 0.090965
H	-2.1449739048	-1.8794071755	-1.2829614628	 0.141219
H	-1.8639132417	-3.2625324166	-2.385639225	 0.108446
H	-2.3121971659	-3.5579092656	-0.685672352	 0.127476
115.6391	124.9071	141.9849	166.6445	189.9114	214.8965	284.2411	312.2377	366.7398	395.4336	609.4121	661.1014	699.8065	750.604	786.7347	916.5442	1021.7444	1061.5354	1074.7462	1090.3944	1116.7001	1158.579	1166.5544	1179.9698	1187.0252	1216.9717	1243.4368	1265.7886	1331.8144	1350.2567	1389.945	1459.2365	1479.3846	1482.5768	1487.8719	1488.6179	1508.6141	1509.6743	2994.9901	3004.878	3067.3519	3076.7312	3085.4064	3093.5751	3124.2809	3129.3668	3154.2677	3742.2955
COC1C(O)C1OC	CO[C@H]1[C@@H](O)[C@H]1OC	
InChI=1S/C5H10O3/c1-7-4-3(6)5(4)8-2/h3-6H,1-2H3	InChI=1S/C5H10O3/c1-7-4-3(6)5(4)8-2/h3-6H,1-2H3/t3-,4+,5-
