16
gdb 105865	2.21321	1.5577	1.2689	2.8208	65.21	-0.2537	-0.0021	0.2517	1046.0467	0.123837	-474.998978	-474.990452	-474.989508	-475.03245	31.418	
O	-0.0282945103	 1.4794438193	 0.2922425036	-0.417729
C	 0.0754928873	 0.0934413985	 0.0027222989	-0.184164
C	-1.2894010709	-0.5331043755	-0.0033681899	 0.079021
C	-1.9977731633	-1.1889126583	 1.1842718895	 0.059818
O	-3.2590021385	-0.8122675968	 1.6296009324	-0.413985
C	-1.8742368676	-1.9530857529	-0.0910920563	-0.114121
N	-2.8355446863	-1.485800876	-1.097935011	-0.341124
C	-2.3749245047	-0.1631679078	-0.9967999328	 0.396818
O	-2.7143964344	 0.862413833	-1.523094391	-0.35944
H	-0.6311088474	 1.8579610326	-0.3602457936	 0.300218
H	 0.5745593844	-0.0777645294	-0.9637122263	 0.103437
H	 0.7097421628	-0.3445025779	 0.7806401463	 0.111295
H	-1.2988344925	-1.4915627611	 1.9682374391	 0.102921
H	-3.1943756612	 0.0676947499	 2.0169052612	 0.301799
H	-1.3651291987	-2.9001993104	-0.2147894653	 0.122337
H	-3.8233018886	-1.7092136871	-1.0438231348	 0.252899
67.5231	113.1774	142.1539	233.5441	257.8473	317.466	370.8386	426.1231	444.1231	479.5777	578.7765	658.0935	715.7985	759.12	820.361	840.7302	889.326	939.0763	1007.8529	1025.0709	1057.9629	1064.8064	1110.3581	1168.7211	1192.7896	1262.4135	1272.3703	1313.9067	1331.7622	1357.4093	1376.9663	1434.0009	1467.6251	1507.6658	1879.9064	2983.8712	3069.0083	3080.2245	3203.8597	3549.3119	3779.0046	3807.4538
OCC12C(O)C1NC2=O	OC[C@]12[C@@H](O)[C@H]1NC2=O	
InChI=1S/C5H7NO3/c7-1-5-2(3(5)8)6-4(5)9/h2-3,7-8H,1H2,(H,6,9)	InChI=1S/C5H7NO3/c7-1-5-2(3(5)8)6-4(5)9/h2-3,7-8H,1H2,(H,6,9)/t2-,3+,5-/m1/s1
