18
gdb 79414	2.70759	1.67539	1.30464	2.6667	78.84	-0.2158	-0.0247	0.1911	1020.8127	0.146874	-401.825223	-401.817504	-401.81656	-401.857263	30.401	
C	-0.1687933166	 1.6286408039	 0.1267424912	-0.422411
C	 0.0000968523	 0.1146099734	 0.0122557876	-0.081289
N	 0.5233430567	-0.6516057654	-1.1928504458	-0.169846
C	 1.6622924628	-0.380690913	-2.1840392435	-0.023104
C	 2.5355965365	 0.2961493065	-1.1179038396	-0.245643
C	 1.808906719	-0.9498261466	-0.4623611241	 0.135361
C	 2.2481631456	-1.7765531076	-1.7092441098	-0.280444
C	 1.113246384	-0.6012177326	 0.8731809209	 0.325067
O	 1.3069237462	-0.7481882798	 2.0372477847	-0.290096
H	 0.7635290829	 2.192978228	 0.0834210586	 0.129729
H	-0.8258907883	 1.9904729924	-0.670539113	 0.133165
H	-0.6491378045	 1.8579014233	 1.0838591015	 0.138037
H	-0.9771943411	-0.3332033359	 0.2288669117	 0.119832
H	 1.4750509148	-0.0755652471	-3.21595394	 0.091206
H	 3.6206970026	 0.2224493362	-1.2284018281	 0.103435
H	 2.2408708545	 1.2879210142	-0.7884477995	 0.10823
H	 1.6240949938	-2.6432070453	-1.9219982473	 0.121766
H	 3.3127431387	-1.9435115644	-1.8800713156	 0.107006
113.332	164.2777	176.6434	254.1068	295.7446	367.4752	519.7678	540.9147	557.2936	645.0926	663.7932	738.6016	786.0511	796.0752	851.4684	876.9457	914.6327	932.1991	972.6077	996.686	1044.4724	1074.9417	1082.0666	1100.0216	1112.4954	1117.317	1142.6108	1178.193	1202.8315	1216.3628	1231.3135	1246.5671	1348.7437	1404.0335	1470.2249	1490.6932	1493.5168	1526.3343	1904.6369	3032.1697	3043.2109	3069.0553	3080.0369	3092.6538	3104.6484	3135.2305	3174.0136	3187.912
CC1N2C3CC2(C3)C1=O	C[C@H]1N2[C@H]3C[C@@]2(C3)C1=O	
InChI=1S/C7H9NO/c1-4-6(9)7-2-5(3-7)8(4)7/h4-5H,2-3H2,1H3	InChI=1S/C7H9NO/c1-4-6(9)7-2-5(3-7)8(4)7/h4-5H,2-3H2,1H3/t4-,5-,7+/m1/s1
