14
gdb 124029	4.6891	1.17147	0.99956	3.2492	70.29	-0.2417	-0.0767	0.165	1121.8453	0.102403	-432.846247	-432.839298	-432.838354	-432.87829	25.354	
C	 0.8934205328	 0.8726770902	-0.2482314915	-0.17369
O	-0.240860729	 0.2652251051	-0.8552350463	-0.218616
C	-0.3771084652	 0.7191380242	 0.4904581058	-0.014063
C	-0.5368619196	-0.3259796181	 1.5339616874	 0.314895
C	-0.2726651537	-1.6817209196	 1.2894264518	-0.024351
N	-0.3977111233	-2.6007569794	 2.2385119772	-0.172884
N	-0.7915332328	-2.2136587068	 3.4530316792	-0.180278
C	-1.0522092102	-0.9217280996	 3.6371349758	 0.09872
N	-0.9514132559	 0.0609919513	 2.7350559851	-0.305195
H	 1.7232430412	 0.2038703471	-0.0261022937	 0.130342
H	 1.164420256	 1.8549993213	-0.6307276845	 0.137275
H	-1.0008679736	 1.5990280561	 0.6367514536	 0.123081
H	 0.0305977652	-2.0287318615	 0.3078909679	 0.145367
H	-1.3855202519	-0.6460193803	 4.6335702222	 0.139398
74.2917	135.3346	191.7106	303.2054	374.2276	420.3754	577.5585	588.3485	687.7916	812.6236	827.5883	876.1926	913.544	948.916	995.7967	1003.896	1033.3449	1073.5397	1091.4297	1154.4308	1165.8503	1166.9829	1243.6202	1264.7853	1324.116	1326.4109	1414.2362	1478.1337	1521.4364	1566.7218	1593.9558	3090.6205	3138.5043	3183.4672	3185.0367	3201.6533
C1OC1C1=CN=NC=N1	C1O[C@H]1c1cnncn1	
InChI=1S/C5H5N3O/c1-4(5-2-9-5)6-3-8-7-1/h1,3,5H,2H2	InChI=1S/C5H5N3O/c1-4(5-2-9-5)6-3-8-7-1/h1,3,5H,2H2/t5-/m1/s1
