21
gdb 65096	2.96934	1.28806	1.24562	1.0554	82.03	-0.2402	0.0818	0.322	1149.6663	0.183503	-383.205928	-383.197348	-383.196404	-383.239206	33.463	
C	 0.622258463	 0.2140154841	 1.3848555207	-0.479859
C	-0.0009630547	 0.0753285063	 0.0101653807	 0.21666
C	 0.5090337083	 0.9143806916	-1.102170641	-0.270334
N	 0.7912907466	-0.5352891345	-1.0778329286	-0.352467
C	-1.4308161536	-0.3514046462	 0.0195227903	 0.341162
C	-1.9321496432	-1.8000311625	 0.1851712096	-0.303522
C	-3.1387273306	-1.4548218163	-0.7500741208	-0.235526
C	-2.5949764024	-0.0251406413	-0.8730437372	-0.095762
N	-2.452990017	 0.6059409161	 0.4378031386	-0.365414
H	 1.6643152758	 0.5437407883	 1.3157295751	 0.108476
H	 0.0704697709	 0.9470469498	 1.981784544	 0.138755
H	 0.6044379626	-0.7407003333	 1.9236876267	 0.119599
H	-0.1602532958	 1.2352198424	-1.8944221019	 0.117141
H	 1.3175118329	 1.6077208466	-0.8841797705	 0.106911
H	 1.7449122883	-0.6901673827	-0.7581502404	 0.22443
H	-1.2564734772	-2.5275193522	-0.2685002262	 0.123051
H	-2.1620322004	-2.1131360084	 1.2095087768	 0.088348
H	-3.1054189549	-2.0123125437	-1.6887174051	 0.111995
H	-4.1450218094	-1.5410924185	-0.3259047317	 0.094529
H	-2.6568897948	 0.6217403477	-1.7412358558	 0.092908
H	-3.0983579043	 0.2217578468	 1.1269068066	 0.218916
53.7802	143.201	178.8941	228.3904	265.3243	300.0768	348.4396	441.5282	482.7354	518.3752	545.2468	750.0407	783.8399	809.3092	845.1094	858.0878	919.2151	932.9959	938.8812	948.5582	976.3845	990.1292	1039.3011	1047.733	1064.9839	1091.491	1102.9468	1122.3408	1150.001	1186.4725	1203.0668	1223.9414	1236.6626	1263.2755	1274.3768	1292.3498	1319.0765	1364.9862	1410.8385	1466.3013	1475.1824	1483.267	1497.1106	1506.4946	1518.9385	3024.7506	3038.7605	3047.7909	3089.1554	3103.405	3105.1446	3110.448	3121.961	3172.4081	3196.7367	3448.7833	3489.2617
CC1(CN1)C12CCC1N2	C[C@]1(CN1)[C@]12CC[C@H]1N2	
InChI=1S/C7H12N2/c1-6(4-8-6)7-3-2-5(7)9-7/h5,8-9H,2-4H2,1H3	InChI=1S/C7H12N2/c1-6(4-8-6)7-3-2-5(7)9-7/h5,8-9H,2-4H2,1H3/t5-,6+,7+/m1/s1
