14
gdb 132440	3.21075	1.40184	0.98165	0.8031	70.82	-0.2301	-0.0634	0.1667	1106.819	0.100052	-477.998247	-477.990606	-477.989662	-478.030603	28.434	
C	 0.0825309892	 1.4756212079	 0.0285742952	-0.457296
C	 0.0024945973	-0.0191097201	-0.0165163241	 0.277409
N	-0.1251543848	-0.6372500918	-1.142187888	-0.280641
C	-0.196847019	-2.0201451054	-1.1560897138	-0.257757
C	-0.1335087184	-2.7043996881	-0.0058210972	 0.347857
F	-0.1904122251	-4.0102136009	 0.1072872248	-0.032662
O	-0.0018965203	-2.1270262532	 1.1902071729	-0.227881
C	 0.0765619541	-0.730156064	 1.274480729	 0.338663
N	 0.2013997366	-0.1542772408	 2.3934309893	-0.510551
H	 1.0186392819	 1.7966515793	 0.4971660856	 0.147998
H	 0.0160683069	 1.8738623737	-0.9842195688	 0.137711
H	-0.7232261219	 1.885430408	 0.6464242772	 0.148007
H	-0.3036562206	-2.5233915585	-2.1063631736	 0.13418
H	 0.2328679141	-0.8243456962	 3.1620407217	 0.234964
98.1114	151.0809	169.2122	299.9051	345.8652	356.5562	438.8288	484.5868	515.7357	562.7101	659.7959	723.2392	754.8856	760.8534	833.047	864.7155	976.9359	990.0505	1053.2736	1054.9248	1186.2927	1207.0521	1271.1569	1335.856	1401.9965	1411.8296	1466.1204	1466.8728	1619.8336	1692.2663	1738.8575	3044.8586	3098.9957	3155.0787	3231.4749	3494.6892
CC1=NC=C(F)OC1=N	CC1=C(OC(=C[N]1)F)[NH]	
InChI=1S/C5H5FN2O/c1-3-5(7)9-4(6)2-8-3/h2,7H,1H3	InChI=1S/C5H5FN2O/c1-3-5(7)9-4(6)2-8-3/h2,7H,1H3
