25
gdb 117673	3.06136	0.85559	0.81007	1.2993	89.13	-0.2559	0.0733	0.3292	1612.9225	0.226621	-389.485532	-389.474489	-389.473545	-389.521748	41.443	
C	-0.1168699155	 1.627238321	 0.0881887681	-0.382872
C	 0.0051871915	 0.1041462778	-0.0152469653	-0.178956
C	-1.3561514826	-0.5889933429	-0.1365167341	-0.183537
C	-1.3276312599	-2.1331471423	-0.040262892	 0.340534
C	-0.422358695	-2.7457442085	-1.1116794991	-0.424816
O	-0.7307313097	-2.5282242031	 1.2078505454	-0.46167
C	-2.7675059045	-2.64460747	-0.0903056806	-0.013388
C	-3.43665631	-3.1811253322	-1.3323822488	-0.27216
C	-3.1117291717	-4.1077204922	-0.1884369868	-0.282503
H	 0.8665567007	 2.10123761	 0.1682460186	 0.10998
H	-0.617971858	 2.04862962	-0.7908651936	 0.110542
H	-0.6995051584	 1.9201193865	 0.969129228	 0.109914
H	 0.6316028412	-0.1475716197	-0.8791965677	 0.094164
H	 0.5197930816	-0.2927634553	 0.8664088016	 0.109982
H	-2.0110958132	-0.2202068003	 0.6670482364	 0.07506
H	-1.8453773821	-0.3028988377	-1.0771131874	 0.093447
H	 0.616693786	-2.4815050536	-0.9052316637	 0.12991
H	-0.486575013	-3.8368175705	-1.1087716714	 0.118745
H	-0.6803253138	-2.3795284121	-2.1087777994	 0.113942
H	-1.3643806544	-2.3370708607	 1.9076054552	 0.272227
H	-3.424006685	-2.0666636038	 0.5594371738	 0.070919
H	-4.4729441638	-2.9150765433	-1.5099136859	 0.108432
H	-2.8446393825	-3.2743626116	-2.2355695966	 0.113803
H	-2.3020944713	-4.8158613676	-0.3219411164	 0.12051
H	-3.9255542665	-4.4811625377	 0.4234776014	 0.107789
45.783	90.9691	101.1883	142.1762	234.1772	245.554	250.6471	273.6224	282.8401	314.8981	350.0398	367.1242	430.6944	486.6385	574.0328	731.4308	749.2963	786.6128	829.8845	850.299	873.019	920.5888	942.3467	948.5315	962.0524	1008.2439	1049.3855	1057.6965	1078.6595	1093.0214	1105.3414	1143.8336	1169.6202	1176.2889	1193.6001	1204.3335	1240.865	1264.7389	1309.011	1328.0789	1376.3381	1392.1795	1395.306	1412.9872	1433.1283	1465.9287	1474.683	1493.2146	1495.4601	1499.3975	1501.7144	1511.8421	1512.9149	2993.6761	3025.9028	3034.888	3039.818	3054.0493	3072.1668	3096.9898	3098.9912	3104.1049	3123.9201	3133.3564	3136.8362	3140.6539	3213.3972	3227.6074	3806.5968
CCCC(C)(O)C1CC1	CCC[C@@](C)(O)C1CC1	
InChI=1S/C8H16O/c1-3-6-8(2,9)7-4-5-7/h7,9H,3-6H2,1-2H3	InChI=1S/C8H16O/c1-3-6-8(2,9)7-4-5-7/h7,9H,3-6H2,1-2H3/t8-/m1/s1
