18
gdb 22586	4.06124	1.02316	0.87172	1.3983	81.69	-0.2307	-0.0357	0.1949	1328.8711	0.147414	-439.055323	-439.04681	-439.045866	-439.08844	32.442	
C	-0.004396843	 1.5168426119	-0.0507338023	-0.399992
C	-0.003464662	-0.0093617582	 0.0028703115	 0.092878
O	 0.6179958203	-0.4634014204	-1.1900447125	-0.259354
C	 0.8850715912	-1.8547556592	-1.192047003	-0.167686
C	 1.8298008794	-2.2155258838	-0.0694303668	 0.345007
C	 1.5796816976	-1.5316516185	 1.1935506594	-0.14432
C	 0.6859524418	-0.5360060695	 1.2363739233	-0.083839
N	 2.7193548477	-3.1057131156	-0.3142169713	-0.210122
O	 3.5116588614	-3.3883498505	 0.8067386723	-0.391803
H	 1.0212265488	 1.8959574228	-0.0463507818	 0.132083
H	-0.4971695979	 1.8548048432	-0.9657540495	 0.129791
H	-0.5381755734	 1.9320214003	 0.8090778592	 0.115798
H	-1.0546229909	-0.3604528187	 0.0210239234	 0.079458
H	-0.0540717834	-2.4246057104	-1.0815236217	 0.100005
H	 1.3241573285	-2.101830259	-2.1599870561	 0.129029
H	 2.106653917	-1.8702739087	 2.0764760046	 0.119853
H	 0.4306936478	-0.0557352115	 2.1775175887	 0.104645
H	 4.1049243992	-4.0669052442	 0.4684406127	 0.308567
64.0783	182.5261	224.5667	229.4185	272.6287	317.1413	349.2584	371.5755	411.1303	487.1315	535.0932	613.7129	633.9804	778.2183	786.0717	818.6729	874.9783	926.912	982.2445	1003.3301	1026.2277	1050.9637	1099.4947	1126.6957	1146.5884	1198.2975	1273.882	1292.2705	1332.2024	1346.7892	1383.5356	1400.3364	1405.9324	1424.0245	1483.7059	1485.6779	1499.9671	1676.5007	1713.308	2901.3036	2953.7796	3046.4211	3118.8149	3123.0643	3129.4993	3163.5777	3217.7877	3823.7748
CC1OCC(C=C1)=NO	C[C@H]1OCC(=NO)C=C1	
InChI=1S/C6H9NO2/c1-5-2-3-6(7-8)4-9-5/h2-3,5,8H,4H2,1H3	InChI=1S/C6H9NO2/c1-5-2-3-6(7-8)4-9-5/h2-3,5,8H,4H2,1H3/t5-/m1/s1
