16
gdb 124671	3.35633	1.06801	0.93784	2.4156	70.95	-0.2501	-0.0295	0.2206	1246.7791	0.124874	-434.080769	-434.072265	-434.071321	-434.115926	29.569	
C	 0.0429787918	 1.5201870679	 0.36542259	-0.416233
C	-0.0570300941	 0.0296708963	-0.016565766	-0.166091
C	 0.8077779969	-0.7767864669	 0.9525197978	 0.166644
O	 1.8640948472	-1.2751308922	 0.6734423468	-0.240086
C	-1.468476637	-0.4786233997	 0.0164817115	 0.28801
N	-1.9095694181	-1.3700687418	-0.8789195652	-0.265354
N	-3.1604045872	-1.589571067	-0.5029052833	-0.068706
N	-3.5903481306	-0.9268800836	 0.5598302311	-0.190793
C	-2.5229279239	-0.2093637877	 0.912878204	-0.127254
H	 1.0737489156	 1.870619592	 0.2664823641	 0.138229
H	-0.5955875409	 2.1237228102	-0.2848939602	 0.13727
H	-0.2723215733	 1.6906163823	 1.4005244739	 0.12569
H	 0.3532087684	-0.1312486485	-1.0165301313	 0.118275
H	 0.3811489516	-0.8513078692	 1.9807060406	 0.076226
H	-3.7600018673	-2.2207643275	-1.0101623614	 0.297295
H	-2.5628418793	 0.4527150155	 1.7627602076	 0.126877
20.7975	54.9222	146.7672	192.3652	221.8579	296.6782	391.7467	426.9336	464.1073	545.8932	724.8532	725.6452	753.3527	876.6884	892.1876	942.4803	998.0083	1019.2264	1055.0108	1087.2814	1143.181	1168.9722	1210.277	1241.9255	1274.9568	1306.7541	1366.0003	1402.0188	1411.875	1422.499	1472.8129	1496.5821	1499.5982	1558.9076	1840.4433	2855.4766	3039.2006	3088.6684	3111.6177	3126.374	3273.0224	3665.1813
CC(C=O)C1=NNN=C1	C[C@@H](C=O)c1n[nH]nc1	
InChI=1S/C5H7N3O/c1-4(3-9)5-2-6-8-7-5/h2-4H,1H3,(H,6,7,8)	InChI=1S/C5H7N3O/c1-4(3-9)5-2-6-8-7-5/h2-4H,1H3,(H,6,7,8)/t4-/m0/s1
