17
gdb 126549	4.83357	0.90583	0.8192	3.2304	76.59	-0.251	-0.0888	0.1622	1415.4765	0.136059	-414.175712	-414.167214	-414.16627	-414.210345	29.8	
C	-0.0611665925	 1.5295856968	 0.0261597501	-0.383238
C	-0.0077349737	 0.001790889	-0.0278222221	-0.171754
C	 0.7600449933	-0.5133355211	-1.264939393	-0.26096
C	 0.8024672559	-2.009398156	-1.2917343571	 0.391529
N	 1.7771041063	-2.6425939543	-0.6341431916	-0.252896
C	 1.6908992092	-3.963879274	-0.7070147376	 0.110027
N	 0.7457128646	-4.6526023014	-1.353175979	-0.171687
N	-0.1940993898	-3.9595121052	-1.9760519228	-0.052863
N	-0.1822596743	-2.6426306373	-1.9582442182	-0.209917
H	 0.944965808	 1.9607648632	 0.0648358323	 0.120483
H	-0.5662971006	 1.9401336798	-0.8545958724	 0.122624
H	-0.6050125803	 1.8701485029	 0.9122109273	 0.120948
H	 0.4749507241	-0.3898000832	 0.8753492316	 0.115559
H	-1.0237518594	-0.4093270147	-0.0466197155	 0.119575
H	 0.2692671629	-0.1602822292	-2.1762476132	 0.130126
H	 1.7866154853	-0.1352712985	-1.2422291269	 0.124494
H	 2.4512114311	-4.554587367	-0.2018541517	 0.14795
32.6174	88.6522	89.979	217.9156	241.1652	304.9028	309.2343	364.9612	538.3665	653.8199	709.4199	752.8537	841.2907	884.1253	892.8257	909.4771	953.7791	1005.5356	1033.5184	1044.3157	1098.0101	1105.6813	1160.8552	1242.7074	1287.6305	1302.8842	1331.0863	1340.4406	1377.554	1413.1293	1422.1302	1475.3564	1492.8439	1497.5551	1507.7941	1534.0668	1568.5427	3032.6841	3034.7308	3058.3988	3068.0997	3102.1899	3109.1202	3117.683	3172.9473
CCCC1=NC=NN=N1	CCCc1ncnnn1	
InChI=1S/C5H8N4/c1-2-3-5-6-4-7-9-8-5/h4H,2-3H2,1H3	InChI=1S/C5H8N4/c1-2-3-5-6-4-7-9-8-5/h4H,2-3H2,1H3
