19
gdb 109480	2.06273	1.76544	1.03812	2.7511	78.8	-0.2476	-0.0013	0.2463	1175.4776	0.160736	-419.282381	-419.273444	-419.2725	-419.317086	32.42	
C	-0.1116991497	 1.5552162694	 0.0046426896	-0.384798
C	 0.0439375871	 0.0336533378	-0.0052569332	-0.151456
N	 0.7041273817	-0.4546353137	-1.2111893935	-0.097916
C	 0.0368593282	-0.6762344351	-2.4099782812	 0.363228
N	-1.2093607929	-0.4568433806	-2.5318932997	-0.535014
C	 1.0551958028	-1.1928191323	-3.4215394868	-0.328471
C	 2.3909255933	-1.2306685694	-2.6618035129	-0.343872
C	 2.0597475596	-0.7450144536	-1.2528087891	 0.410802
O	 2.8200240315	-0.6274229415	-0.32100232	-0.371124
H	 0.8647372862	 2.0458953324	-0.0430808102	 0.12855
H	-0.7190037453	 1.8852411494	-0.8415719369	 0.141836
H	-0.6071174176	 1.8715852231	 0.9275769984	 0.119676
H	 0.6579039135	-0.2983046592	 0.8349479158	 0.135043
H	-0.9346400709	-0.4497116175	 0.0457635517	 0.134935
H	-1.5216484627	-0.686371848	-3.4744851504	 0.219372
H	 0.7441828045	-2.1780499323	-3.7798034982	 0.136819
H	 1.0785447239	-0.528090094	-4.2893578207	 0.136265
H	 2.8286244298	-2.2299135144	-2.5965431823	 0.1432
H	 3.1544838567	-0.5760651203	-3.0897234204	 0.142924
50.0521	63.3239	108.4098	148.2435	220.8862	317.8763	349.6633	426.4842	548.1823	561.092	584.0507	609.8995	671.0405	701.2374	785.7299	823.8592	856.5848	942.3088	976.0792	1013.8806	1029.2993	1055.9639	1105.8293	1130.497	1160.9583	1222.1306	1248.5029	1269.6685	1285.3073	1313.8158	1391.2264	1394.394	1408.3734	1446.6533	1464.4084	1475.0337	1485.2364	1493.9903	1505.904	1729.3296	1833.438	3045.7452	3064.5357	3073.0002	3076.5569	3099.392	3114.6023	3119.5908	3121.701	3140.497	3490.5285
CCN1C(=N)CCC1=O	CCN1[C]([NH])CCC1=O	
InChI=1S/C6H10N2O/c1-2-8-5(7)3-4-6(8)9/h7H,2-4H2,1H3	InChI=1S/C6H10N2O/c1-2-8-5(7)3-4-6(8)9/h7H,2-4H2,1H3
