16
gdb 35226	3.61461	1.17757	1.0114	4.2596	76.45	-0.2618	-0.0174	0.2444	1166.092	0.124634	-400.754148	-400.746328	-400.745384	-400.78721	29.054	
N	 0.0417829717	-1.1621657503	-0.1519875811	-0.337007
C	 0.0284165466	-0.006472312	-0.1183986701	 0.315276
C	 0.0275564473	 1.4396057931	-0.1134431682	-0.206922
O	 0.3675904309	 2.0826578176	 1.1147459126	-0.273975
C	 1.3034480227	 2.1925200632	 0.0326308124	 0.433979
C	 2.6798682516	 1.5393240364	 0.1814090209	-0.321688
C	 3.6560162983	 2.4888056941	-0.5631680123	-0.271455
C	 2.8038619981	 3.6816967984	-0.9230806202	-0.064933
C	 1.5208950345	 3.5165088261	-0.6020687409	-0.146058
H	-0.7996417974	 1.8884608592	-0.661366505	 0.13427
H	 2.9164814698	 1.4769734989	 1.2468323107	 0.136058
H	 2.6961898721	 0.5213454672	-0.2136072054	 0.135948
H	 4.5160644569	 2.773915057	 0.0530369858	 0.120835
H	 4.0699543682	 2.0207086706	-1.4646759694	 0.123889
H	 3.2146142613	 4.5618056509	-1.4051818175	 0.110993
H	 0.7136761276	 4.2201444795	-0.7637828723	 0.11079
51.8607	120.5034	137.7766	273.3555	329.4743	366.6542	445.1615	519.3044	575.454	598.4022	735.8659	757.5404	807.75	822.9857	848.8019	922.2241	946.0942	977.2926	995.3831	1017.8983	1055.0696	1063.4167	1121.8234	1179.4823	1223.6641	1249.129	1275.8417	1308.6606	1333.1796	1372.5204	1439.6836	1476.1768	1496.2093	1678.6951	2355.5246	3033.8128	3061.5122	3074.7944	3118.8177	3125.9421	3193.8502	3220.4893
N#CC1OC11CCC=C1	N#C[C@H]1O[C@]21CCC=C2	
InChI=1S/C7H7NO/c8-5-6-7(9-6)3-1-2-4-7/h1,3,6H,2,4H2	InChI=1S/C7H7NO/c8-5-6-7(9-6)3-1-2-4-7/h1,3,6H,2,4H2/t6-,7+/m1/s1
