16
gdb 85086	2.56845	1.34769	0.93163	3.8901	75.83	-0.2584	-0.0797	0.1787	1222.2499	0.123809	-437.925711	-437.917386	-437.916442	-437.958945	30.273	
C	-0.1556673077	 1.4143190082	 0.2032459546	-0.395885
C	 0.0455534714	-0.0846195009	-0.014540603	 0.060922
O	 0.8331708735	-0.3098281453	-1.201216131	-0.256896
C	 1.9483123477	-1.0469241505	-0.8945551422	 0.342864
N	 2.8417697824	-1.4156794478	-1.710580232	-0.545943
C	 1.9185695777	-1.331350534	 0.5524847843	 0.151123
C	 2.9588050095	-2.1020906869	 1.268259678	 0.077421
O	 2.9199486869	-2.3218562795	 2.4571103891	-0.262669
C	 0.8133404685	-0.7806940042	 1.0690690707	-0.191283
H	 0.8051835565	 1.9113203112	 0.3606969031	 0.136999
H	-0.6417783665	 1.8550431974	-0.6705212523	 0.141447
H	-0.7896871987	 1.587014259	 1.0780869514	 0.129602
H	-0.9315925086	-0.5652762461	-0.1690581687	 0.117038
H	 2.6345258533	-1.0916958151	-2.655780112	 0.228382
H	 3.7830650828	-2.4664165944	 0.6266077843	 0.116462
H	 0.5045831412	-0.8153854713	 2.1056395357	 0.150418
107.7884	121.4632	156.2756	179.8668	238.0652	310.7996	343.9814	389.2114	491.2911	558.2342	659.5697	720.1093	754.3808	850.7361	866.7643	895.5826	900.9332	940.0684	1026.8486	1046.3582	1054.8161	1099.072	1131.225	1174.4367	1238.4212	1321.2355	1343.2343	1376.4264	1403.4572	1432.9005	1485.7758	1495.4807	1673.097	1762.7359	1795.8606	2966.1579	3003.3752	3047.3672	3124.672	3133.96	3234.0869	3489.708
CC1OC(=N)C(C=O)=C1	C[C@H]1OC(=C(C=O)[CH]1)[NH]	
InChI=1S/C6H7NO2/c1-4-2-5(3-8)6(7)9-4/h2-4,7H,1H3	InChI=1S/C6H7NO2/c1-4-2-5(3-8)6(7)9-4/h2-4,7H,1H3/t4-/m1/s1
