18
gdb 99656	2.31171	1.18707	0.92486	4.6057	73.3	-0.275	0.0226	0.2977	1312.068	0.145537	-439.059414	-439.049645	-439.0487	-439.09477	34.559	
C	-0.2299625861	 1.3920371197	-0.0033525966	-0.249443
O	-0.2407270023	 0.0217606602	 0.3573633493	-0.236362
C	-1.3913794663	-0.6744223054	-0.0705363596	-0.022369
C	-1.4439993374	-0.7514445786	-1.5519266459	 0.273324
N	-1.4647747696	-0.7960002598	-2.7063781061	-0.333214
C	-1.3652915327	-2.0633091653	 0.5271175236	-0.035823
C	-1.7012757253	-2.2290290487	 1.9945798113	-0.340567
C	-2.6533782642	-2.7209631005	 0.9365713334	 0.098875
O	-3.8267900185	-2.0035343271	 0.6847893652	-0.414388
H	 0.6796068657	 1.8202697674	 0.4219351864	 0.136319
H	-0.2162093739	 1.5271678038	-1.0931202266	 0.135215
H	-1.103500232	 1.9210028072	 0.4065686726	 0.11003
H	-2.3059586101	-0.1585465167	 0.2567370035	 0.122535
H	-0.594267248	-2.706298874	 0.117121019	 0.114673
H	-1.1318511975	-2.945593948	 2.5753384522	 0.122535
H	-1.9901724102	-1.3318793576	 2.5319118401	 0.123845
H	-2.7304755011	-3.794735209	 0.7716544138	 0.100294
H	-4.4367355405	-2.1620498977	 1.4126507445	 0.294518
44.9307	95.0417	125.0377	157.6146	174.5187	238.8995	276.3936	307.6223	322.9731	407.3583	474.9083	505.5221	568.1332	629.7355	791.3744	843.3893	873.1266	936.2554	989.6551	1013.9081	1034.9283	1059.7079	1126.3043	1134.9807	1173.5628	1177.2886	1184.6294	1225.3755	1237.9795	1286.1053	1304.7484	1359.6806	1407.4117	1431.8502	1478.6083	1487.4869	1491.544	1509.0425	2353.0536	2989.1756	3010.1913	3050.4998	3111.7301	3130.4155	3137.4226	3174.2872	3227.0285	3811.917
COC(C#N)C1CC1O	CO[C@@H](C#N)[C@H]1C[C@H]1O	
InChI=1S/C6H9NO2/c1-9-6(3-7)4-2-5(4)8/h4-6,8H,2H2,1H3	InChI=1S/C6H9NO2/c1-9-6(3-7)4-2-5(4)8/h4-6,8H,2H2,1H3/t4-,5+,6-/m0/s1
