18
gdb 92285	3.65316	1.27988	1.08303	2.746	70.71	-0.2466	0.0238	0.2705	1111.9242	0.150442	-439.111149	-439.10372	-439.102776	-439.143306	28.973	
O	 0.4741649683	 1.0006768609	-0.838769398	-0.430079
C	 0.0562196805	-0.1227882508	-0.0869639969	 0.126836
C	 0.7288156206	-0.2535280762	 1.2958639842	-0.27485
C	-0.2373808899	-1.1345536898	 2.0958446834	 0.083364
O	-0.4274024197	-0.6690775218	 3.4557668517	-0.23099
C	-1.7211947781	-0.2672555809	 3.5225043647	 0.109671
N	-2.4804525805	-0.3756653555	 2.5136728222	-0.267627
C	-1.6480379126	-0.9478673473	 1.4414131181	-0.012007
C	-1.435112124	 0.0036572572	 0.2460602991	-0.221586
H	 1.3950254872	 0.8730512839	-1.0869197941	 0.283828
H	 0.2241060045	-1.0502030276	-0.6603460033	 0.066748
H	 1.7464099851	-0.6519114491	 1.2507073288	 0.095933
H	 0.7725002323	 0.7408840234	 1.7527141015	 0.122505
H	 0.0880422133	-2.1754775136	 2.1576645546	 0.092194
H	-2.0109127378	 0.1368216785	 4.4865215009	 0.140024
H	-2.087287348	-1.896296253	 1.1181490368	 0.086614
H	-1.6324967842	 1.0348151461	 0.556788476	 0.121779
H	-2.0805639668	-0.2182945644	-0.6058778996	 0.107641
91.0973	111.6634	271.7886	309.0091	327.629	440.6497	457.5203	496.8204	572.224	604.6992	729.2814	812.938	864.9904	891.232	892.2399	955.717	960.6394	970.9506	1032.2029	1049.3715	1063.8799	1092.6529	1114.9408	1127.8383	1171.6377	1198.4742	1252.5306	1255.0445	1292.6675	1301.1022	1323.3685	1331.3135	1337.9602	1368.3908	1385.7698	1437.4573	1485.0911	1500.	1697.0789	2954.6709	3050.4143	3053.0793	3062.2125	3078.067	3104.4026	3119.5275	3213.1746	3821.0556
OC1CC2OC=NC2C1	O[C@H]1C[C@H]2OC=N[C@H]2C1	
InChI=1S/C6H9NO2/c8-4-1-5-6(2-4)9-3-7-5/h3-6,8H,1-2H2	InChI=1S/C6H9NO2/c8-4-1-5-6(2-4)9-3-7-5/h3-6,8H,1-2H2/t4-,5+,6-/m1/s1
