13
gdb 132827	2.95668	1.5252	1.00617	0.8601	77.52	-0.2498	-0.0474	0.2024	1071.8566	0.089565	-423.600559	-423.593427	-423.592483	-423.632226	27.114	
F	-0.0111025307	 0.0316776794	 0.0042687448	-0.04682
C	-0.026395481	 1.3578804654	 0.0109316734	 0.239401
C	-1.234026011	 2.0329886063	 0.0300634633	-0.250372
C	-1.1947180367	 3.4238494488	 0.036321852	 0.016363
N	-0.0638607101	 4.1369472797	 0.0249606689	-0.269129
C	 1.0820225555	 3.4627735626	 0.0066447795	-0.047857
C	 1.1839673425	 2.0601072389	-0.0015277269	-0.049546
C	 2.439192548	 1.398045564	-0.0212262533	 0.232988
C	 3.5146634522	 0.8581113678	-0.0379424392	-0.401331
H	-2.167226946	 1.4837975042	 0.0396326734	 0.123838
H	-2.1218341654	 3.990638993	 0.0512488423	 0.123278
H	 1.9970201148	 4.0485834593	-0.0025085533	 0.127744
H	 4.4600319478	 0.3743382204	-0.052620855	 0.201441
130.509	137.2714	240.9232	365.377	367.1181	454.6704	495.0211	580.4046	584.1895	585.6332	613.5092	659.1637	763.2726	780.364	858.3602	867.4705	961.3717	992.8116	1062.5368	1197.324	1211.6366	1290.2161	1308.7055	1323.9753	1434.0437	1527.1996	1595.7592	1636.3639	2232.9108	3166.7278	3172.6439	3216.0789	3500.7971
FC1=CC=NC=C1C#C	Fc1ccncc1C#C	
InChI=1S/C7H4FN/c1-2-6-5-9-4-3-7(6)8/h1,3-5H	InChI=1S/C7H4FN/c1-2-6-5-9-4-3-7(6)8/h1,3-5H
