17
gdb 117014	4.92419	0.56377	0.51069	3.5921	78.14	-0.2703	-0.031	0.2394	2113.9487	0.13263	-458.953917	-458.94332	-458.942376	-458.992065	34.937	
C	 0.0758902963	 1.5089153207	-0.177494615	-0.393621
C	 0.0263929615	-0.0010226799	-0.0490153951	-0.043998
O	 0.6885397821	-0.5558044066	-1.2059832949	-0.232481
C	 0.7345705334	-1.8997624608	-1.2550777018	 0.259867
O	 0.2705299527	-2.6338394141	-0.4171963741	-0.356336
C	 1.4151284917	-2.3475716201	-2.4471480542	-0.077788
C	 1.9723633304	-2.7849975178	-3.4211525334	 0.281201
C	 2.6542904981	-3.2663578904	-4.6137207128	-0.228614
O	 2.6700527241	-4.6841291804	-4.6222180296	-0.402458
H	 1.1095673985	 1.8636848971	-0.213955011	 0.131915
H	-0.4343826992	 1.8400352044	-1.0861564343	 0.131921
H	-0.4175047175	 1.9695541109	 0.6834027517	 0.124425
H	 0.5357031052	-0.3552446767	 0.8526136309	 0.126078
H	-1.0002000942	-0.3787911132	-0.0150352268	 0.126165
H	 2.1364109854	-2.8587121484	-5.4975977388	 0.129382
H	 3.6738988956	-2.8468713621	-4.6230264872	 0.129398
H	 3.1256645961	-4.9634493326	-5.4229542337	 0.294943
20.5409	60.9592	64.0339	91.0772	160.9024	183.5722	226.5337	254.5104	262.8816	374.9272	394.6935	423.7891	541.0477	632.1985	771.2658	809.3892	847.6674	885.1418	1015.8238	1022.1683	1059.3271	1104.8954	1135.5243	1181.3381	1243.5543	1245.8363	1281.2177	1291.9852	1397.0538	1422.6055	1457.881	1485.8709	1491.9948	1496.1221	1518.5936	1788.9477	2357.4623	2964.6992	2983.9874	3047.7892	3053.3308	3091.955	3122.3529	3128.7303	3821.6014
CCOC(=O)C#CCO	CCOC(=O)C#CCO	
InChI=1S/C6H8O3/c1-2-9-6(8)4-3-5-7/h7H,2,5H2,1H3	InChI=1S/C6H8O3/c1-2-9-6(8)4-3-5-7/h7H,2,5H2,1H3
