18
gdb 75295	2.26657	1.88635	1.17316	3.3758	78.14	-0.2282	0.0142	0.2425	1064.5549	0.148864	-401.994234	-401.986262	-401.985318	-402.02674	30.566	
C	-0.0034880305	 1.4946511343	 0.0620106988	-0.497798
C	-0.0373480492	 0.001030526	-0.008400459	 0.331839
C	-0.0093482434	-0.7714992657	-1.0997450974	-0.164719
C	-0.0368217499	-2.2514619239	-0.7989343635	-0.274795
C	 0.0575727271	-2.3093487476	 0.7397596432	 0.023859
N	 1.4102927917	-2.3457386258	 1.310873812	-0.327074
C	 1.4114336536	-1.0605539208	 1.7984721468	 0.430861
O	 2.2314834831	-0.4013702384	 2.3777494164	-0.365868
C	-0.0304352595	-0.8331184496	 1.2478895807	-0.287097
H	 0.8650504521	 1.8312960464	 0.6406410494	 0.152074
H	 0.0451805178	 1.9438439107	-0.9333321148	 0.122659
H	-0.8918477223	 1.8876733282	 0.5725753518	 0.12516
H	 0.035869461	-0.3886206164	-2.1143273453	 0.089207
H	-0.9599114278	-2.7249069754	-1.1585288868	 0.109449
H	 0.7917756222	-2.7960505966	-1.2706922377	 0.105869
H	-0.6181816128	-3.0359019849	 1.1971793596	 0.085452
H	 2.156894874	-3.0204456231	 1.2232765172	 0.246228
H	-0.7787111874	-0.5666974475	 1.9979648486	 0.094694
98.2539	124.4125	187.8948	243.5135	298.6402	365.5308	399.0117	452.9522	526.1907	574.2542	701.0626	713.973	776.1692	829.4986	841.6628	890.8249	930.7095	955.5954	988.8706	1021.2572	1036.2489	1043.5599	1068.6182	1154.3476	1171.0122	1176.7493	1183.0499	1246.3937	1264.7443	1317.6617	1336.3167	1368.9662	1378.3292	1413.867	1476.8769	1477.4787	1491.3032	1712.2505	1888.4888	3014.9637	3021.627	3042.1183	3072.8308	3076.624	3092.2069	3115.6732	3182.6534	3598.413
CC1=CCC2NC(=O)C12	CC1=CC[C@H]2NC(=O)[C@@H]12	
InChI=1S/C7H9NO/c1-4-2-3-5-6(4)7(9)8-5/h2,5-6H,3H2,1H3,(H,8,9)	InChI=1S/C7H9NO/c1-4-2-3-5-6(4)7(9)8-5/h2,5-6H,3H2,1H3,(H,8,9)/t5-,6+/m1/s1
