17
gdb 121494	5.28482	0.59105	0.54825	3.3102	71.53	-0.2542	-0.0046	0.2496	1943.0432	0.134193	-492.319996	-492.309835	-492.308891	-492.356795	34.565	
N	-0.2325222407	 1.2740212081	 0.0848969222	-0.563676
C	 0.0339701223	-0.0447095984	-0.0485426156	 0.523477
O	 1.1031728316	-0.5417350869	-0.2942909033	-0.3799
O	-1.1430666362	-0.7497647832	 0.1357289013	-0.239112
C	-1.0730010552	-2.110287168	 0.0161100853	 0.124216
N	-2.1175053632	-2.7838550252	 0.1871706472	-0.234294
C	-2.023605672	-4.2317543061	 0.0756559014	-0.160008
C	-2.6896256489	-4.8541426211	 1.3069185535	-0.039594
O	-4.027282906	-4.4251519481	 1.4376746217	-0.421542
H	 0.5336260976	 1.9211312269	 0.0382095961	 0.279884
H	-1.1482572076	 1.5898308524	 0.350390183	 0.278951
H	-0.0742138372	-2.4767471522	-0.2289522225	 0.141334
H	-2.5874840476	-4.5402050126	-0.813268892	 0.119896
H	-0.9881554852	-4.5932820214	-0.0285232335	 0.089879
H	-2.7041416027	-5.9450727824	 1.2104664959	 0.104663
H	-2.0938623448	-4.6048929226	 2.2011211721	 0.083899
H	-4.0069816042	-3.469543459	 1.297694117	 0.291928
38.9133	70.2246	92.4325	104.0561	138.2985	168.4939	242.3562	332.3682	366.6816	406.5242	473.9845	548.8587	558.3584	571.8479	669.1145	775.0222	871.1361	895.2071	966.6713	1001.6615	1081.5679	1092.7109	1112.5626	1123.5948	1194.265	1226.5685	1264.5975	1333.2832	1369.8489	1383.1374	1390.732	1441.2937	1480.8696	1508.9983	1606.795	1779.1527	1862.7293	2963.7356	2979.9576	3053.877	3072.5894	3120.1268	3631.1227	3768.5658	3769.0609
NC(=O)OC=NCCO	NC(=O)OC=NCCO	
InChI=1S/C4H8N2O3/c5-4(8)9-3-6-1-2-7/h3,7H,1-2H2,(H2,5,8)	InChI=1S/C4H8N2O3/c5-4(8)9-3-6-1-2-7/h3,7H,1-2H2,(H2,5,8)
