23
gdb 91902	2.28164	1.50379	0.99548	0.295	92.47	-0.2203	0.0274	0.2477	1287.4093	0.206816	-351.170848	-351.161878	-351.160934	-351.204078	35.469	
C	 0.0542063778	 1.5821227263	-0.0155361438	-0.397894
C	-0.0190677598	 0.0500320798	 0.0051838549	-0.015195
C	 0.5850437769	-0.5543134379	-1.2792979979	-0.224389
C	 0.7159918929	-2.0739381069	-1.2138134818	-0.041272
C	 2.065908361	-2.7041407232	-0.9623333232	-0.292669
C	 1.0165697689	-2.6826607936	 0.1330307014	-0.102455
C	 1.1468669189	-1.7656940932	 1.3007783475	 0.292165
C	 1.8155778003	-2.3199437458	 2.529206633	-0.477198
C	 0.6596424555	-0.5227590728	 1.2318716583	-0.142082
H	 1.0954321774	 1.9236078563	-0.0453347316	 0.113902
H	-0.4576376728	 1.9902474249	-0.8935115122	 0.107533
H	-0.4125623038	 2.0139712144	 0.8761500762	 0.109907
H	-1.0844100519	-0.2291942577	 0.0415015154	 0.080086
H	-0.024741517	-0.2685267534	-2.1439565484	 0.091295
H	 1.5713329203	-0.0997783726	-1.4360581207	 0.094726
H	 0.038919574	-2.6319509552	-1.8528036587	 0.079962
H	 2.2960767315	-3.6541233617	-1.4334079888	 0.104997
H	 2.9139227335	-2.0344756041	-0.8567241016	 0.109261
H	 0.5617971709	-3.6451681454	 0.3585238642	 0.082104
H	 2.8384810277	-2.649639811	 2.3071276308	 0.123246
H	 1.8595245749	-1.5808272982	 3.3339611006	 0.116069
H	 1.2816842959	-3.2019914499	 2.9066352475	 0.11863
H	 0.7443184871	 0.132250731	 2.0978248386	 0.06927
93.4919	152.6723	193.5787	206.1294	243.5588	266.3614	354.2625	389.5149	425.8617	444.7467	512.646	593.0458	626.2053	753.1198	824.3351	836.9332	849.5558	881.5751	903.7993	938.6604	968.2798	1002.6913	1027.6534	1037.5105	1059.4449	1069.9785	1092.342	1116.4832	1126.9898	1142.4201	1162.9991	1199.6326	1223.5954	1244.7738	1308.5442	1312.2027	1346.3446	1377.5683	1389.6289	1407.1706	1411.6698	1422.3566	1477.058	1478.0069	1488.6127	1493.4481	1497.4405	1499.8121	1724.2296	2968.1739	3013.6585	3020.2188	3025.6002	3059.9526	3061.089	3092.736	3096.9632	3107.4738	3119.5571	3122.1778	3133.3518	3151.8614	3209.9546
CC1CC2CC2C(C)=C1	C[C@H]1C[C@H]2C[C@H]2C(=C1)C	
InChI=1S/C9H14/c1-6-3-7(2)9-5-8(9)4-6/h3,6,8-9H,4-5H2,1-2H3	InChI=1S/C9H14/c1-6-3-7(2)9-5-8(9)4-6/h3,6,8-9H,4-5H2,1-2H3/t6-,8+,9+/m1/s1
