16
gdb 66785	3.446	2.05956	1.77522	1.1918	68.69	-0.2248	0.0658	0.2905	798.7098	0.126486	-400.65705	-400.651279	-400.650335	-400.686727	25.372	
O	 0.2824527325	 1.3035848729	 0.236952398	-0.479924
C	 0.1563638795	-0.0690721646	 0.1005715245	 0.393567
C	-1.191209057	-0.7885784193	 0.2114299332	-0.164084
C	-0.9821093762	-2.152766739	 0.8455799112	-0.099359
C	-1.1132204452	-2.02323058	-0.6509628872	-0.041019
N	 0.3612457912	-2.2189593434	-0.8652639969	-0.157906
C	 1.0254561166	-0.884923661	-0.8366180216	-0.121641
C	 1.2489740206	-0.9545604667	 0.6633788895	-0.138267
C	 0.5392461187	-2.3162305022	 0.6496199721	-0.026409
H	-0.0205812102	 1.7167967553	-0.579055997	 0.287668
H	-2.1127687736	-0.2407810576	 0.3559068205	 0.09151
H	-1.6305006319	-2.617146808	 1.5771122049	 0.091895
H	-1.8575855172	-2.3780677806	-1.3530465392	 0.091537
H	 1.6380220128	-0.499807464	-1.6440466456	 0.091638
H	 2.0724623483	-0.6001673086	 1.2697177334	 0.098466
H	 1.047954911	-3.2068752234	 1.0167748202	 0.082326
267.9143	324.0751	347.4924	569.758	578.1949	586.367	708.9213	721.618	767.9329	794.6732	804.3341	819.7629	859.2565	883.7264	903.1394	930.0371	943.0266	971.2209	991.3487	1007.9164	1019.9876	1040.6351	1055.5105	1058.6429	1072.2798	1156.9968	1171.3709	1198.5966	1202.0424	1250.157	1263.619	1295.6965	1313.3103	1337.4784	1430.0684	3117.1709	3171.9133	3182.3891	3195.7655	3200.4678	3213.234	3792.721
OC12C3C4C3N3C1C2C43	O[C@@]12[C@@H]3[C@H]4[C@@H]3N3[C@@H]1[C@@H]2[C@@H]43	
InChI=1S/C7H7NO/c9-7-2-1-4(2)8-5(1)3(7)6(7)8/h1-6,9H	InChI=1S/C7H7NO/c9-7-2-1-4(2)8-5(1)3(7)6(7)8/h1-6,9H/t1-,2+,3-,4-,5+,6+,7+/m0/s1
