16
gdb 20261	4.03793	2.77969	2.43617	1.8822	65.13	-0.2365	0.0919	0.3284	645.3265	0.134664	-346.576507	-346.571639	-346.570695	-346.605114	21.669	
C	-0.0538713144	 1.6285733716	 0.0120542704	-0.250459
C	 1.4497199534	 1.8667482383	-0.0013704818	-0.066875
C	 2.1258773634	 0.7364505736	 0.7460347809	-0.076446
C	 2.1110012583	 0.7446397933	-0.7739986306	-0.076447
C	 1.0866707354	-0.3921016495	-0.9828929122	 0.06487
O	 1.4692815901	-1.416775211	-0.019242154	-0.298704
C	 1.1057042812	-0.4025752876	 0.9626834554	 0.064869
C	-0.0125988905	 0.1131150496	 0.003490166	-0.060996
H	-0.5375449998	 2.0345133911	 0.9077856365	 0.101196
H	-0.5549361757	 2.0440874773	-0.8696168569	 0.101196
H	 1.8737178377	 2.8642691084	-0.0001442054	 0.083966
H	 3.0226406988	 0.8551145956	 1.3375119309	 0.09033
H	 2.9960284725	 0.8697651467	-1.3816014576	 0.090329
H	 0.8996979295	-0.7740714689	-1.9854227515	 0.076369
H	 0.9383406885	-0.7953348039	 1.9645093612	 0.076369
H	-0.9371352186	-0.4587514046	 0.0094552388	 0.080434
375.3189	495.1487	525.2158	669.5139	719.1649	725.6003	801.0885	801.9296	831.7001	841.8845	861.9431	891.6899	917.9896	935.264	965.8037	974.9248	981.625	1021.9398	1047.9237	1052.3782	1072.4702	1082.5173	1121.5047	1190.8449	1222.8349	1236.262	1243.8731	1253.7207	1286.2309	1286.3271	1300.5746	1353.6554	1386.1234	1488.6448	3036.7803	3078.9001	3131.3568	3132.5628	3157.0765	3179.4924	3210.4939	3220.1587
C1C2C3C2C2OC3C12	C1[C@H]2[C@@H]3[C@H]2[C@H]2O[C@@H]3[C@@H]12	
InChI=1S/C7H8O/c1-2-4-5(2)7-3(1)6(4)8-7/h2-7H,1H2	InChI=1S/C7H8O/c1-2-4-5(2)7-3(1)6(4)8-7/h2-7H,1H2/t2-,3+,4+,5-,6+,7-
