21
gdb 72470	2.52749	1.83227	1.47712	1.2762	82.23	-0.2367	0.0223	0.259	1007.8772	0.184986	-387.121152	-387.1135	-387.112556	-387.152669	31.706	
C	-0.0644698199	 1.4928893068	 0.0649695357	-0.46639
C	 0.0476506459	-0.0201438314	-0.0262476394	 0.342792
C	 0.7077709194	-0.5520106329	-1.3230953428	-0.232705
C	 0.0811887557	-1.9642211117	-1.451197338	-0.238157
C	-1.0605436793	-1.9508425334	-0.3930100501	 0.087479
C	-0.6656770023	-2.6486675224	 0.9190226071	-0.265755
C	 0.3961094	-1.8382685914	 1.621872899	-0.074558
C	 0.7398273359	-0.62839678	 1.1842697151	-0.077021
O	-1.2770952329	-0.565486893	-0.1210101179	-0.288989
H	 0.9296170913	 1.9508997888	 0.0731692891	 0.11378
H	-0.6212136119	 1.8816296458	-0.7921094275	 0.121217
H	-0.5867027557	 1.7866131491	 0.9799754676	 0.126435
H	 0.4246062877	 0.0859838552	-2.166276341	 0.096317
H	 1.7987873729	-0.5735837564	-1.26403105	 0.097702
H	-0.3168193219	-2.131530839	-2.4546183929	 0.103562
H	 0.8053970327	-2.7574353317	-1.2494954628	 0.102235
H	-1.9979665544	-2.3563117327	-0.7822011606	 0.072
H	-1.5450671913	-2.7645437152	 1.5675208417	 0.109333
H	-0.3020768306	-3.6640036236	 0.7123909632	 0.101172
H	 0.8706420666	-2.2698189721	 2.4995676133	 0.087398
H	 1.5235008721	-0.0492904487	 1.6655323612	 0.082154
140.4744	212.7488	246.783	272.5933	331.8344	373.5562	449.3406	490.1532	531.1488	603.7817	676.9013	719.9429	763.7538	819.6399	837.2199	879.7894	895.2941	902.7876	925.0201	965.8962	986.2823	992.8886	1029.1091	1050.8655	1063.7406	1127.4281	1128.5923	1183.079	1197.571	1213.1761	1234.1306	1267.8368	1295.4139	1319.4118	1333.5756	1349.1631	1374.6048	1406.4388	1413.4555	1468.4036	1479.1258	1484.8271	1496.5424	1505.2655	1710.4611	3009.852	3039.9237	3040.5153	3049.7276	3065.722	3076.7101	3097.6071	3113.6184	3115.6291	3120.752	3147.5417	3171.7322
CC12CCC(CC=C1)O2	C[C@@]12CC[C@@H](CC=C1)O2	
InChI=1S/C8H12O/c1-8-5-2-3-7(9-8)4-6-8/h2,5,7H,3-4,6H2,1H3	InChI=1S/C8H12O/c1-8-5-2-3-7(9-8)4-6-8/h2,5,7H,3-4,6H2,1H3/t7-,8+/m1/s1
