19
gdb 94329	2.67652	1.23473	1.09835	1.7466	82.21	-0.2566	0.019	0.2756	1208.8943	0.156783	-385.829419	-385.820273	-385.819329	-385.863604	34.345	
C	-0.2768087503	 1.413571478	 0.1424617124	-0.391537
C	 0.0364273745	-0.0667205092	-0.0579098338	-0.091274
C	 1.3178561845	-0.375243446	-0.9012417736	-0.229972
C	 2.0907837902	-0.7504400701	 0.4011556218	-0.323245
C	 0.7488992977	-0.7229467713	 1.1327385984	 0.472393
O	 0.5651250178	-0.3603425218	 2.4852859362	-0.277733
C	 0.2037493782	-1.7037940381	 2.0931460261	-0.279583
C	-1.1919451304	-2.0443802826	 2.1096580285	 0.351119
C	-2.3546735201	-2.351096494	 2.1061160556	-0.431982
H	 0.6135293286	 1.9727365584	 0.4504150633	 0.115959
H	-0.6498852889	 1.858387128	-0.7857290806	 0.11285
H	-1.0354356278	 1.5466160331	 0.9190173367	 0.13235
H	-0.8640264517	-0.5987232722	-0.3794471157	 0.084308
H	 1.1891463852	-1.2225534386	-1.5778029017	 0.107063
H	 1.7210222315	 0.4670866231	-1.4674048638	 0.103346
H	 2.6430006656	-1.693063682	 0.4072325693	 0.107823
H	 2.7543296084	 0.0458452743	 0.749861314	 0.119988
H	 0.8773094181	-2.4685262929	 2.4794426292	 0.115118
H	-3.382845141	-2.6171692661	 2.1132826179	 0.203007
48.9486	102.0321	146.487	201.6909	221.6913	278.1764	319.0171	376.3477	455.2632	537.8975	563.7177	588.56	619.8935	669.5661	726.0024	781.072	834.0454	877.6699	896.7369	937.9903	948.0917	1000.6183	1045.3845	1056.0717	1075.4057	1135.5918	1167.3125	1177.2394	1220.7459	1240.8139	1255.3962	1276.9803	1331.0239	1356.4101	1408.2112	1453.2862	1471.3492	1493.9577	1497.0742	1500.924	2237.3431	3033.1723	3057.3946	3061.1468	3072.2818	3100.5632	3108.2167	3110.8415	3113.811	3127.9525	3502.4805
CC1CCC11OC1C#C	C[C@H]1CC[C@]21O[C@H]2C#C	
InChI=1S/C8H10O/c1-3-7-8(9-7)5-4-6(8)2/h1,6-7H,4-5H2,2H3	InChI=1S/C8H10O/c1-3-7-8(9-7)5-4-6(8)2/h1,6-7H,4-5H2,2H3/t6-,7-,8+/m0/s1
