15
gdb 14044	5.09948	1.61541	1.50787	2.0396	61.1	-0.2525	0.0105	0.263	844.4262	0.120425	-399.785028	-399.778372	-399.777428	-399.816618	24.138	
C	 0.0041236521	 1.4704468394	-0.1403403572	-0.10839
O	 1.333256641	 1.6078798991	 0.3948865191	-0.269895
C	 1.5001901129	 0.1800932016	 0.4690984157	-0.108389
C	 0.0525788498	-0.0720484088	-0.018157665	 0.240414
C	-0.9417644272	-0.7736414351	 0.9372998254	-0.177681
O	-1.5252375871	-1.8282694632	 0.136894805	-0.216529
C	-0.9355885154	-1.7164879043	-1.073994077	 0.111385
N	-0.0713944261	-0.8105722272	-1.2774600831	-0.294659
H	-0.7475404998	 1.9748738495	 0.4817131393	 0.096584
H	-0.0718769259	 1.8261251849	-1.1740517108	 0.115913
H	 2.2660008412	-0.1902898587	-0.2216926125	 0.115912
H	 1.7259154012	-0.1584759666	 1.4893019899	 0.096584
H	-0.4583896154	-1.2307303808	 1.8056341412	 0.12593
H	-1.747904836	-0.1185864901	 1.2802704077	 0.125928
H	-1.2675755753	-2.4462587199	-1.8040488078	 0.146893
73.0454	80.5235	273.6704	349.7294	375.3594	462.0344	578.9017	786.2726	840.4621	864.7122	901.0969	937.9297	959.2232	970.6718	985.6837	990.9301	1044.431	1119.3365	1146.5536	1154.0558	1160.7005	1202.5279	1223.9913	1240.301	1308.1329	1322.302	1375.744	1382.3101	1498.8233	1511.019	1526.681	1694.7555	3002.5215	3013.3698	3050.2511	3067.063	3068.8011	3098.5087	3218.19
C1OCC11COC=N1	C1OCC21COC=N2	
InChI=1S/C5H7NO2/c1-5(2-7-1)3-8-4-6-5/h4H,1-3H2	InChI=1S/C5H7NO2/c1-5(2-7-1)3-8-4-6-5/h4H,1-3H2
