17
gdb 5779	5.8584	1.35679	1.20711	1.6766	74.94	-0.1932	0.0459	0.2392	1014.5104	0.144536	-326.747922	-326.740796	-326.739852	-326.78034	27.469	
C	-0.125681572	 1.4406976633	-0.1852389389	-0.262646
C	 1.2822835153	 0.9763347873	 0.0661888646	-0.262776
C	 0.1494463559	-0.0303748388	 0.0543923551	-0.095288
C	-0.2959969663	-0.7095685861	 1.2933772261	 0.309436
C	-0.3523439856	-0.1957879347	 2.574419134	-0.201394
N	-0.8272316141	-1.1789721248	 3.4081979285	-0.234773
C	-1.0784763597	-2.3170927394	 2.6895884986	-0.071381
C	-0.7591194472	-2.0569342112	 1.3775099928	-0.26353
H	-0.6383467795	 1.9798061258	 0.6043293576	 0.109535
H	-0.3932704951	 1.7571217696	-1.1878112131	 0.107726
H	 1.9807261871	 0.9740815941	-0.7639001721	 0.107732
H	 1.7332273265	 1.1978820238	 1.0276773924	 0.109514
H	 0.0978418272	-0.663435146	-0.8259922229	 0.074941
H	-0.0968575277	 0.7781091986	 2.9606110238	 0.111152
H	-0.9682616456	-1.0754883557	 4.3971535315	 0.258889
H	-1.4587222809	-3.2055822007	 3.1672050839	 0.115285
H	-0.8439311884	-2.7508387752	 0.554501458	 0.087579
21.7538	175.7721	180.2013	390.7605	408.6703	462.5168	614.3212	636.8827	658.3687	687.0575	760.4454	788.8158	814.7955	823.5881	895.8304	905.8573	915.9947	970.726	1056.0592	1067.6932	1071.0566	1092.8572	1101.0177	1132.1165	1167.4411	1202.4765	1207.5054	1247.6315	1303.7277	1384.2601	1429.1252	1470.8244	1471.2488	1499.1269	1528.4086	1607.3294	3126.3844	3130.8228	3151.3014	3205.7061	3222.7959	3239.5085	3256.7615	3268.8952	3689.411
C1CC1C1=CNC=C1	C1CC1c1c[nH]cc1	
InChI=1S/C7H9N/c1-2-6(1)7-3-4-8-5-7/h3-6,8H,1-2H2	InChI=1S/C7H9N/c1-2-6(1)7-3-4-8-5-7/h3-6,8H,1-2H2
