19
gdb 69114	2.65941	1.55308	1.18996	1.4582	76.46	-0.2508	-0.0299	0.2209	1077.5971	0.158907	-423.037115	-423.028691	-423.027747	-423.069733	32.132	
C	-0.0780867946	 1.4744829914	 0.2381335743	-0.493519
C	 0.0465794459	-0.0189341595	 0.078577316	 0.270099
C	-0.7590543602	-0.9617412955	 0.9075413986	-0.36294
C	 0.7439448365	-0.9355719179	 1.1194465743	 0.181796
C	 1.5357372	-1.9400692734	 0.2995993929	-0.162452
O	 0.9776703824	-1.9003643918	-1.008630646	-0.251285
C	 0.5245486442	-0.5769842911	-1.2565990072	-0.133154
C	 1.3059095743	-0.3633816457	 2.3565144669	 0.063945
O	 0.6966669763	 0.3330070432	 3.13805173	-0.273495
H	 0.8199780415	 1.9902524471	-0.1198397167	 0.118272
H	-0.9305164487	 1.8494304464	-0.339589857	 0.12488
H	-0.233335742	 1.7428132206	 1.2854801943	 0.156932
H	-1.3423414841	-0.5314996434	 1.7141804603	 0.138485
H	-1.1677421858	-1.8550167626	 0.4454160487	 0.128615
H	 2.6043061465	-1.6647818482	 0.2929480566	 0.095187
H	 1.4497731505	-2.9730315681	 0.6524901509	 0.116845
H	-0.2644314601	-0.6387371241	-2.0140371206	 0.115853
H	 1.3340359969	 0.0599327325	-1.6508866617	 0.093263
H	 2.3798658705	-0.6018199	 2.5315243653	 0.072675
130.1988	176.7901	202.3149	213.307	231.9693	277.9218	330.4072	395.0788	431.9538	462.1515	594.5073	691.8749	702.8498	739.5824	876.6023	935.0175	940.982	957.4715	986.7957	1023.7732	1041.3653	1066.4385	1078.516	1107.5413	1128.7783	1186.5841	1221.1317	1242.9442	1259.8882	1288.1102	1354.9934	1377.8668	1409.8166	1421.6476	1439.3917	1473.5158	1496.4646	1499.5166	1510.1283	1521.3955	1792.0238	2867.3175	2960.1019	2968.0939	3030.3443	3065.6685	3069.1669	3087.7545	3126.8762	3130.02	3227.2119
CC12CC1(COC2)C=O	C[C@]12C[C@]1(COC2)C=O	
InChI=1S/C7H10O2/c1-6-2-7(6,3-8)5-9-4-6/h3H,2,4-5H2,1H3	InChI=1S/C7H10O2/c1-6-2-7(6,3-8)5-9-4-6/h3H,2,4-5H2,1H3/t6-,7-/m1/s1
