21
gdb 115728	2.83308	1.15159	0.95116	2.7536	78.46	-0.2426	0.0781	0.3207	1322.5166	0.181819	-424.185202	-424.175919	-424.174974	-424.220029	33.717	
C	 0.1969863314	 1.502576856	 0.1948860606	-0.387913
C	-0.2366353627	 0.0795815556	-0.1708342208	-0.194462
C	 0.6578639905	-0.5221587723	-1.2438596312	 0.145543
O	 2.0314216427	-0.6615392163	-0.8026475237	-0.291492
C	 2.0117730164	-2.0887623432	-0.9921415573	-0.092151
C	 0.5699594341	-2.0502194644	-1.5396951441	-0.108313
C	-0.4824061649	-2.8698215655	-0.8405049976	 0.070236
C	-0.221030667	-4.2267913918	-0.3425404833	-0.189735
O	-0.318002214	-3.1212949857	 0.5579149755	-0.224101
H	 1.2355774135	 1.5060909626	 0.5371206653	 0.138561
H	 0.1247795754	 2.1751507549	-0.6673655853	 0.109363
H	-0.4283538202	 1.9128853623	 0.9931138855	 0.110747
H	-0.2145295355	-0.562003274	 0.7157478557	 0.127012
H	-1.2712936268	 0.0827598434	-0.5401592001	 0.088614
H	 0.6153876344	 0.0978828042	-2.1514395994	 0.068069
H	 2.7832862667	-2.4214344478	-1.6963450175	 0.097184
H	 2.1245531519	-2.6248761175	-0.0427326827	 0.114594
H	 0.507133899	-2.2578185825	-2.6122257351	 0.08553
H	-1.5105788176	-2.6343813158	-1.1219545083	 0.096425
H	-1.0328316307	-4.9499455758	-0.284445184	 0.119491
H	 0.7750762533	-4.6553698866	-0.4470044122	 0.116795
62.1758	88.6942	110.5404	138.7177	211.9464	228.7844	254.1961	333.4503	441.3123	503.602	580.8076	721.3315	761.8184	827.3001	842.9844	888.3084	915.5418	951.2627	964.3181	987.3235	1029.6525	1038.1211	1078.1218	1104.6272	1109.3163	1130.0019	1161.4321	1164.6397	1172.4678	1182.4986	1244.276	1272.7055	1288.1158	1305.5143	1334.2039	1356.9847	1387.0437	1406.0717	1413.8858	1430.7046	1479.7353	1497.1488	1509.2133	1517.6437	1529.8925	2989.2749	3019.9145	3021.8312	3035.0808	3057.5813	3072.1315	3082.2108	3084.023	3093.1481	3104.617	3120.1273	3171.0298
CCC1OCC1C1CO1	CC[C@H]1OC[C@H]1[C@H]1CO1	
InChI=1S/C7H12O2/c1-2-6-5(3-8-6)7-4-9-7/h5-7H,2-4H2,1H3	InChI=1S/C7H12O2/c1-2-6-5(3-8-6)7-4-9-7/h5-7H,2-4H2,1H3/t5-,6-,7-/m1/s1
