19
gdb 59720	3.10461	1.29591	1.02917	2.6935	71.26	-0.2528	0.0695	0.3223	1185.6966	0.158379	-460.142899	-460.134244	-460.1333	-460.176307	32.599	
C	 0.0256368557	 1.4810554721	-0.1269961913	-0.414842
C	-0.0247584946	-0.0371493921	-0.0047210093	 0.119125
O	 0.7119909139	-0.5132063664	 1.1193073164	-0.437872
C	-1.4589171271	-0.5763042697	 0.0735198923	 0.089112
O	-2.1961564963	-0.1177889797	-1.0609776709	-0.276676
C	-3.1243478493	-1.1105764709	-1.4879004564	-0.106757
C	-2.59242165	-2.4207099343	-0.9527091869	 0.023612
O	-1.2085207553	-2.6202583976	-1.2578808719	-0.250219
C	-1.5575852742	-2.088616921	 0.0268260786	 0.011686
H	 1.0629509617	 1.8210101329	-0.1908585174	 0.121828
H	-0.5167121495	 1.8127262061	-1.0151335112	 0.143131
H	-0.4398051876	 1.9563743836	 0.7470566578	 0.100447
H	 0.4467067439	-0.4979924958	-0.8786509465	 0.111597
H	 0.4611005209	 0.0206683873	 1.8813142114	 0.277782
H	-1.9266959802	-0.2222932217	 1.011586874	 0.056934
H	-4.1313630409	-0.9251510352	-1.0803807103	 0.09623
H	-3.1772359525	-1.0728271036	-2.5810065632	 0.120817
H	-3.2161637168	-3.3090548264	-0.9072928038	 0.103733
H	-1.3048950618	-2.6944311475	 0.8901604385	 0.110331
80.3251	111.3265	162.4405	240.9784	265.6558	292.9194	336.0067	376.6058	411.9054	468.9766	533.7341	696.4207	786.3557	840.0492	861.1147	882.7196	913.5773	947.2419	954.5003	991.5712	1039.7707	1053.4264	1073.3624	1110.175	1119.3932	1126.4453	1172.4061	1226.798	1257.8388	1263.7386	1301.085	1320.4433	1327.5692	1372.4862	1397.0247	1401.5108	1420.7013	1441.1103	1491.5826	1495.4935	1506.0314	2927.6775	2979.6395	3020.0446	3070.804	3072.2392	3100.8762	3136.5509	3157.4289	3183.4482	3798.777
CC(O)C1OCC2OC12	C[C@@H](O)[C@H]1OC[C@H]2O[C@@H]12	
InChI=1S/C6H10O3/c1-3(7)5-6-4(9-6)2-8-5/h3-7H,2H2,1H3	InChI=1S/C6H10O3/c1-3(7)5-6-4(9-6)2-8-5/h3-7H,2H2,1H3/t3-,4-,5-,6-/m1/s1
