17
gdb 20996	3.66324	1.75107	1.20469	1.745	73.1	-0.1913	0.0386	0.2299	1004.6071	0.143092	-360.071531	-360.062899	-360.061955	-360.105233	30.553	
C	-0.0333508195	 1.3969078302	 0.1132100441	-0.312427
N	-0.0073936433	-0.0399892052	-0.0032347025	 0.053486
C	 0.1144338145	-0.7913711249	-1.1221949628	-0.113368
C	 0.070121024	-2.1197563267	-0.7475911429	 0.140193
C	 0.1435745139	-3.3436432444	-1.6048744762	-0.518121
C	-0.0817134246	-2.0571059279	 0.6628162527	 0.30143
N	-0.2520613721	-3.1407749736	 1.528610609	-0.589306
N	-0.1219242218	-0.8056853158	 1.112121976	-0.357396
H	 0.0936263819	 1.8337063282	-0.8791439816	 0.132321
H	-0.9863600898	 1.7334781578	 0.533618909	 0.141776
H	 0.7752447997	 1.7446519547	 0.763647239	 0.140895
H	 0.216251433	-0.3369059712	-2.0963663502	 0.120925
H	 1.0467218625	-3.9370927013	-1.4085480039	 0.116602
H	-0.7147094092	-4.0048756851	-1.4358298891	 0.132058
H	 0.1563569161	-3.0823836818	-2.6668170995	 0.121512
H	 0.3723603296	-3.9112654091	 1.3276544175	 0.242092
H	-0.1542872749	-2.856376594	 2.4953589213	 0.247326
37.2486	100.8107	157.9756	228.2564	230.5961	268.1571	297.0721	336.9634	503.2189	607.564	609.6069	649.2755	695.0378	784.1237	790.5564	817.9564	997.5389	1027.7138	1065.3667	1069.9699	1144.0789	1151.8924	1203.5346	1247.8385	1341.5598	1417.6531	1428.9771	1458.1385	1470.5523	1478.7797	1483.134	1502.1167	1533.5956	1543.0512	1624.8407	1651.6477	3011.124	3037.4984	3058.3534	3096.1998	3104.5393	3137.9796	3245.2774	3533.7916	3628.7453
CN1C=C(C)C(N)=N1	Cn1cc(C)c(N)n1	
InChI=1S/C5H9N3/c1-4-3-8(2)7-5(4)6/h3H,1-2H3,(H2,6,7)	InChI=1S/C5H9N3/c1-4-3-8(2)7-5(4)6/h3H,1-2H3,(H2,6,7)
