15
gdb 46238	2.74872	1.38264	1.10806	7.0307	71.8	-0.265	0.0033	0.2683	1090.9734	0.112918	-416.823763	-416.815573	-416.814628	-416.857011	29.511	
O	-0.0234485687	 0.0140536097	 0.1660039386	-0.353206
C	-0.0122057343	 1.2091675444	 0.0776376266	 0.413567
N	-0.9950110075	 2.1727506072	 0.0000386296	-0.345827
C	-0.0886768697	 3.3288944947	 0.0001165234	-0.234314
C	 1.056993718	 2.3021178468	 0.0379257154	 0.165917
C	 2.3582223743	 2.3034910355	 0.7646303405	-0.338814
C	 2.3474040717	 2.3052170626	-0.7550694437	-0.240431
C	 2.765678326	 1.1451107354	-1.4946992887	 0.311313
N	 3.1288795371	 0.235550692	-2.1092389134	-0.330275
H	-1.9977938589	 2.1086335196	 0.0832978296	 0.260962
H	-0.1449996028	 3.9437809929	-0.9036141819	 0.125528
H	-0.1671010481	 3.9631207607	 0.8894983454	 0.124438
H	 2.6879434883	 3.2136883173	 1.2529259321	 0.137162
H	 2.6399718881	 1.3789147998	 1.2564007684	 0.163715
H	 2.6010570963	 3.2449670313	-1.2364619417	 0.140265
86.2817	94.4304	149.0371	199.884	249.6443	290.0564	428.3893	473.0768	516.428	541.4403	670.6108	748.2666	786.1185	794.5124	875.2898	880.4459	965.0214	994.058	1063.5315	1075.6404	1094.4459	1122.3189	1144.0135	1153.1816	1186.6406	1284.2681	1327.1855	1380.9077	1427.2049	1484.44	1524.6384	1905.8442	2360.5286	3038.2146	3086.3948	3139.4594	3158.946	3234.3181	3630.3618
O=C1NCC11CC1C#N	O=C1NC[C@]21C[C@H]2C#N	
InChI=1S/C6H6N2O/c7-2-4-1-6(4)3-8-5(6)9/h4H,1,3H2,(H,8,9)	InChI=1S/C6H6N2O/c7-2-4-1-6(4)3-8-5(6)9/h4H,1,3H2,(H,8,9)/t4-,6+/m0/s1
