22
gdb 15713	3.2566	1.49107	1.20237	1.3491	77.53	-0.2604	0.0689	0.3293	1110.1347	0.201154	-350.226139	-350.217142	-350.216198	-350.260141	33.463	
C	-0.0231263415	 1.5854800584	 0.1269471295	-0.386616
C	 0.0302720671	 0.0546617693	 0.0892650723	-0.189155
C	-1.3466291249	-0.6022610627	-0.0405141688	 0.052062
C	-2.1205801235	-0.2822462439	-1.3415187288	-0.203266
C	-3.1197926369	-1.4572645262	-1.5410683928	-0.201466
C	-2.7534553547	-2.508093002	-0.4600125762	-0.235392
C	-1.3305315701	-2.1394106336	-0.0182407337	 0.109277
O	-0.3570936148	-2.5692846067	-0.969769721	-0.442453
H	 0.9774014237	 2.0122203966	 0.2494429551	 0.108706
H	-0.4460585574	 1.9952081392	-0.7960724933	 0.116691
H	-0.6402347482	 1.9426082834	 0.9598299834	 0.107491
H	 0.6588995006	-0.2791093777	-0.742815737	 0.113611
H	 0.5145173214	-0.3124029815	 1.0038034694	 0.085602
H	-1.9629671613	-0.2904293988	 0.8156138637	 0.061594
H	-2.6245350019	 0.6863733756	-1.2927407607	 0.091544
H	-1.4170758953	-0.2377505304	-2.1787330467	 0.106539
H	-4.1589183612	-1.1331167073	-1.4367177435	 0.094666
H	-3.0229049103	-1.8782435375	-2.5449707269	 0.102203
H	-3.4271135596	-2.4324793019	 0.4014683332	 0.095763
H	-2.8178210185	-3.54025065	-0.8219283638	 0.081088
H	-1.0858653991	-2.533933577	 0.9796188721	 0.051234
H	-0.4251841433	-3.5253318152	-1.0503491655	 0.280276
43.1205	100.8507	139.8998	180.1477	232.6105	287.1997	304.3815	350.191	419.2513	493.3101	633.7249	710.2216	767.9963	793.3845	847.4498	859.659	898.4281	929.6067	947.6716	1001.0686	1013.7338	1031.5262	1051.0751	1070.0655	1127.8522	1147.0267	1194.8444	1208.6959	1225.5697	1262.9458	1278.5837	1300.9615	1311.9432	1323.5509	1331.5649	1358.6844	1369.1558	1394.6297	1412.6242	1422.5316	1481.2358	1486.1088	1490.3835	1501.4973	1508.1527	1512.0632	2981.4665	2997.4833	3021.7072	3028.5855	3034.5149	3050.7879	3063.2938	3067.7215	3072.0094	3088.4743	3096.795	3103.775	3108.7762	3823.8349
CCC1CCCC1O	CC[C@H]1CCC[C@H]1O	
InChI=1S/C7H14O/c1-2-6-4-3-5-7(6)8/h6-8H,2-5H2,1H3	InChI=1S/C7H14O/c1-2-6-4-3-5-7(6)8/h6-8H,2-5H2,1H3/t6-,7+/m0/s1
