19
gdb 102368	1.80575	1.54624	1.06431	2.6374	72.09	-0.2482	-0.0488	0.1994	1207.7048	0.154728	-460.170627	-460.159833	-460.158888	-460.207061	37.097	
C	-0.0986446099	 1.6621260344	 0.1458692982	-0.414079
C	 0.0009675669	 0.139259425	 0.0034096119	-0.208708
C	 0.7228464509	-0.345006057	-1.266593482	 0.030877
C	 0.7434569237	-1.9010826187	-1.2680784687	-0.103725
O	 1.4103019854	-2.3381601165	-2.4414822025	-0.43225
C	 0.0020200417	 0.0647353348	-2.5519639816	 0.155416
O	-1.1689178613	 0.3404510347	-2.6025811776	-0.260601
C	 2.1876034762	 0.0924162869	-1.32017742	 0.155436
O	 2.831858854	 0.3905673349	-0.3477023369	-0.260608
H	 0.8915962124	 2.1223876304	 0.1901869547	 0.133794
H	-0.6581092241	 2.1027064949	-0.68314518	 0.133817
H	-0.6234881916	 1.9160804617	 1.0714928234	 0.116933
H	 0.5333650461	-0.2718093807	 0.866837533	 0.112887
H	-1.0052718369	-0.2913243966	-0.0002976081	 0.11288
H	 1.2583599986	-2.2385582498	-0.3568812123	 0.115149
H	-0.2959718467	-2.2583604889	-1.2328303535	 0.115135
H	 1.4258584225	-3.2996985592	-2.4466970504	 0.299332
H	 0.62920158	 0.0626599137	-3.4683653137	 0.099172
H	 2.646638212	 0.0890688363	-2.3313317939	 0.099144
54.4235	67.6922	106.6174	125.1531	169.5875	213.0041	237.6444	249.4414	284.7084	292.3199	316.6238	393.9052	427.1257	538.0853	657.1623	760.2352	791.8797	899.8517	903.0066	960.0453	993.6734	1052.6967	1084.5416	1090.2765	1143.0641	1186.6782	1189.1364	1260.0026	1287.2149	1334.2291	1369.4686	1409.3425	1422.3402	1436.4489	1450.7615	1468.3172	1506.5737	1510.5943	1521.8685	1802.53	1843.8872	2897.4396	2915.5678	2985.3169	3028.2458	3050.5909	3051.5015	3092.1375	3116.7162	3134.5138	3833.3725
CCC(CO)(C=O)C=O	CCC(CO)(C=O)C=O	
InChI=1S/C6H10O3/c1-2-6(3-7,4-8)5-9/h3-4,9H,2,5H2,1H3	InChI=1S/C6H10O3/c1-2-6(3-7,4-8)5-9/h3-4,9H,2,5H2,1H3
