20
gdb 126504	3.03503	0.99076	0.79653	4.7342	81.96	-0.2365	0.0069	0.2434	1484.4626	0.171122	-399.349776	-399.340062	-399.339118	-399.38625	34.052	
C	-0.0657836448	 1.6617424957	-0.1694027871	-0.381804
C	-0.0073286086	 0.1330802908	-0.1497935981	-0.156734
C	-1.390590567	-0.5094094873	 0.0829222195	-0.315659
C	-1.3628990826	-2.0026559012	 0.120668813	 0.263778
C	-1.3216471455	-2.9205019744	 1.1525311484	 0.224556
C	-1.3096831535	-2.6996052086	 2.630207976	-0.499153
N	-1.284596066	-4.1764547206	 0.6139692671	-0.247453
N	-1.2978951711	-4.0964366853	-0.684666973	-0.127529
N	-1.3412264494	-2.7865241692	-0.9894488903	-0.230682
H	 0.9255729223	 2.0934532334	-0.3354368535	 0.119636
H	-0.7252095164	 2.0246370447	-0.9657574512	 0.116216
H	-0.446421083	 2.0557547712	 0.7793735644	 0.119293
H	 0.4073989723	-0.2368622392	-1.0957152538	 0.09901
H	 0.6780835426	-0.2076515497	 0.6348228549	 0.111636
H	-1.8004127962	-0.1458999898	 1.0320353763	 0.120103
H	-2.0836585592	-0.1675350438	-0.6973921433	 0.108161
H	-1.8869200269	-1.8130002245	 2.9104610762	 0.122086
H	-1.7416851321	-3.5663456009	 3.1359220216	 0.147794
H	-0.2923999569	-2.5659266485	 3.0164622065	 0.133264
H	-1.3764522482	-2.5084069029	-1.9574604536	 0.273482
30.0954	47.8941	79.3393	114.8793	231.8956	248.5102	259.9799	309.1337	365.2604	422.704	569.5651	663.7199	700.6027	731.9845	742.955	777.0166	868.9175	897.3105	984.4056	1033.0863	1042.5241	1063.595	1072.677	1093.1064	1110.3188	1205.0071	1229.6627	1277.959	1311.5042	1316.9322	1329.8819	1373.6663	1386.2812	1412.8088	1415.5911	1477.6664	1480.812	1490.929	1493.5382	1497.7086	1504.3118	1509.1463	1623.9371	3017.2379	3028.9903	3032.0043	3033.1407	3056.0308	3074.8019	3088.3445	3099.215	3107.898	3126.614	3650.9175
CCCC1=C(C)N=NN1	CCCc1c(C)nn[nH]1	
InChI=1S/C6H11N3/c1-3-4-6-5(2)7-9-8-6/h3-4H2,1-2H3,(H,7,8,9)	InChI=1S/C6H11N3/c1-3-4-6-5(2)7-9-8-6/h3-4H2,1-2H3,(H,7,8,9)
