17
gdb 32475	4.67892	0.96573	0.82323	4.0674	75.18	-0.1917	0.0417	0.2334	1401.3449	0.134994	-455.145365	-455.136015	-455.13507	-455.180689	32.48	
C	-0.1428357631	 1.4173531856	 0.2559322585	-0.339035
N	-0.1696686809	 0.1529445908	-0.4853906859	-0.392311
C	-1.2081710563	-0.7152700582	-0.2459271885	 0.369199
C	-1.3112967421	-2.0328667369	-0.0527709362	-0.182091
O	-2.669594426	-2.3690435217	-0.0167660772	-0.23132
C	-3.3673978906	-1.1980842128	-0.1207177795	 0.531848
O	-2.4737446886	-0.1673375928	-0.2891356465	-0.236907
N	-4.6035844671	-1.0111612332	-0.0773109357	-0.364341
C	-5.476880641	-2.1560053125	 0.1118146207	-0.32691
H	 0.6650230677	 2.0355479359	-0.1410282934	 0.131975
H	-1.0864639707	 1.9413417523	 0.0977347532	 0.166471
H	 0.0060616968	 1.2845478778	 1.3373100044	 0.119618
H	 0.7202400629	-0.3257917244	-0.4910793591	 0.246966
H	-0.5997309146	-2.8313772636	 0.0422518713	 0.142793
H	-4.9869330243	-3.0155512384	 0.5867281405	 0.117894
H	-6.3281608188	-1.854829351	 0.7299666023	 0.123015
H	-5.8811281034	-2.4889548868	-0.8528189989	 0.123136
37.4401	79.6078	100.9874	161.2002	176.5403	229.271	263.5458	342.8417	421.6021	533.4086	601.558	620.738	656.769	711.7598	725.9637	751.256	889.0775	966.6669	1054.5572	1077.8258	1107.0341	1122.0859	1136.091	1149.3227	1161.8215	1201.1014	1301.3418	1369.7296	1447.1655	1458.5586	1475.0841	1493.0696	1493.5771	1503.3921	1517.2033	1754.3306	1842.6077	3000.0908	3006.3667	3061.0153	3088.8543	3104.5896	3150.0064	3314.0483	3594.5302
CNC1=COC(O1)=NC	CNc1coc(=NC)o1	
InChI=1S/C5H8N2O2/c1-6-4-3-8-5(7-2)9-4/h3,6H,1-2H3	InChI=1S/C5H8N2O2/c1-6-4-3-8-5(7-2)9-4/h3,6H,1-2H3
