19
gdb 65048	2.28986	1.51255	1.21507	3.7059	79.58	-0.2606	0.0343	0.2949	1114.2633	0.159179	-382.053141	-382.044232	-382.043288	-382.086641	33.848	
C	 0.0041397829	 1.357811739	-0.7226495091	-0.480012
C	-0.0051686175	-0.0063090921	-0.0634531708	 0.22222
C	 1.2117723508	-0.8553844435	-0.1285822572	-0.266709
N	 0.8071920129	-0.2197924889	 1.1418166551	-0.354768
C	-1.3703523148	-0.6709689369	-0.0073050701	 0.157314
C	-1.6816690068	-1.6868483157	 1.079889043	-0.303537
C	-2.306819456	-0.3281423503	 1.1457570341	-0.292498
C	-1.9722015972	-0.8912803368	-1.2988547308	 0.240332
N	-2.4408327901	-1.0588751804	-2.343757368	-0.355686
H	 1.0200331824	 1.7621518215	-0.769130358	 0.114947
H	-0.3853291412	 1.303009323	-1.7439467558	 0.153141
H	-0.6222108877	 2.0631774237	-0.1650193436	 0.127545
H	 1.1183242368	-1.9373313294	-0.1427676172	 0.125952
H	 2.0795135251	-0.4654323396	-0.6532724647	 0.119677
H	 1.3774910221	 0.6020397276	 1.3235144753	 0.234013
H	-2.3046404683	-2.5292164528	 0.8047512351	 0.133751
H	-0.8677443323	-1.8946363053	 1.7633692185	 0.154056
H	-1.9102310553	 0.3696413672	 1.8744800859	 0.133251
H	-3.3625575458	-0.2240083302	 0.926912378	 0.13701
60.6354	141.133	190.3499	220.3568	233.2535	263.3044	335.1688	375.6735	420.9675	476.156	549.433	590.7363	603.0544	784.4887	808.5144	860.0708	899.4189	907.6817	934.6214	962.9233	968.5662	998.7232	1005.0402	1056.2532	1075.3423	1105.5592	1120.2309	1152.6988	1202.8818	1227.628	1265.364	1296.96	1346.7556	1384.0032	1419.5007	1451.4361	1483.9185	1485.7981	1501.8701	1514.2824	2346.308	3031.7743	3099.0997	3110.8137	3113.8057	3145.1897	3151.1417	3200.8004	3235.6891	3251.5852	3504.4435
CC1(CN1)C1(CC1)C#N	C[C@]1(CN1)C1(CC1)C#N	
InChI=1S/C7H10N2/c1-6(5-9-6)7(4-8)2-3-7/h9H,2-3,5H2,1H3	InChI=1S/C7H10N2/c1-6(5-9-6)7(4-8)2-3-7/h9H,2-3,5H2,1H3/t6-/m0/s1
