17
gdb 11900	4.67811	1.60372	1.34395	1.3577	69.73	-0.2297	0.031	0.2607	952.0884	0.14226	-363.875341	-363.867825	-363.86688	-363.907355	28.174	
C	-0.1478187239	 1.4362002957	 0.1112310239	-0.476352
C	 0.0178205402	-0.036046788	-0.0454737245	 0.398773
N	-0.1827155035	-0.7123471367	-1.1031516587	-0.307601
C	 0.1113830202	-2.1110468117	-0.766159607	-0.260089
C	 0.5201677353	-2.0693940259	 0.7106842493	 0.415744
C	 0.1581467187	-3.0778373362	 1.751260359	-0.327412
C	 1.6103614754	-2.8706078567	 1.3434276634	-0.327406
O	 0.4272079481	-0.6897757751	 1.0807230557	-0.276234
H	 0.7983980424	 1.8944290042	 0.4158746275	 0.14411
H	-0.477475227	 1.8692375918	-0.8324964946	 0.152139
H	-0.881948931	 1.6546398418	 0.89313795	 0.14406
H	-0.7741346986	-2.7345397468	-0.9391140423	 0.114789
H	 0.9104995904	-2.4942983599	-1.4121692972	 0.114789
H	-0.1425870428	-2.7053411989	 2.7241355831	 0.126951
H	-0.3514006812	-3.9807191349	 1.4295125508	 0.118396
H	 2.0979269258	-3.6312016637	 0.7416521171	 0.118394
H	 2.2571923114	-2.362895579	 2.0501938645	 0.126949
60.5206	144.6423	222.3241	242.8063	301.6029	386.7287	458.5445	503.939	613.845	673.9282	762.3909	821.5287	868.5261	903.0095	937.038	949.0851	979.8905	998.998	1053.6096	1059.5907	1074.4409	1078.6985	1084.7797	1187.3702	1206.997	1222.5827	1279.9709	1324.905	1380.1264	1418.1325	1451.5703	1475.8843	1476.7737	1498.8567	1504.0645	1741.4258	3022.4571	3050.3441	3050.7978	3107.4999	3127.7047	3130.2278	3165.8856	3213.3407	3227.3306
CC1=NCC2(CC2)O1	CC1=NCC2(CC2)O1	
InChI=1S/C6H9NO/c1-5-7-4-6(8-5)2-3-6/h2-4H2,1H3	InChI=1S/C6H9NO/c1-5-7-4-6(8-5)2-3-6/h2-4H2,1H3
