21
gdb 85310	2.30261	1.65579	1.1129	2.9553	81.61	-0.2312	-0.0148	0.2164	1151.6082	0.183578	-387.119237	-387.110899	-387.109954	-387.152265	32.58	
C	-0.0173222373	 1.5846668322	-0.0436548327	-0.404432
C	 0.0515803795	 0.0588315739	-0.0188399087	 0.011518
C	 0.7786670977	-0.5830072382	-1.2157284806	-0.33645
C	 1.221292609	-1.967406011	-0.7244512167	 0.39673
O	 1.4792363641	-2.9143408387	-1.4233071124	-0.321659
C	 1.2766760024	-1.9536239874	 0.803895144	-0.133494
C	 2.6852243097	-1.5909636233	 1.3699054029	-0.225344
C	 2.2274869662	-0.1132105394	 1.5163063412	-0.234086
C	 0.7567754281	-0.5460787045	 1.2154468032	-0.012397
H	 0.9836147466	 2.0300588989	-0.0521658848	 0.116525
H	-0.5445453207	 1.9427269421	-0.933926643	 0.116967
H	-0.5465364002	 1.9699489854	 0.834652021	 0.113873
H	-0.9767215981	-0.3301771564	-0.0129909771	 0.079058
H	 0.182215485	-0.6630087032	-2.1273687368	 0.123181
H	 1.6839875682	-0.0161780635	-1.4771687901	 0.123775
H	 0.8099068111	-2.855403904	 1.2049867825	 0.090189
H	 2.8672226711	-2.0753075036	 2.3317784557	 0.110846
H	 3.5386677515	-1.7927342505	 0.7176260873	 0.111745
H	 2.3993930272	 0.3482796742	 2.4907868338	 0.103173
H	 2.652896531	 0.5463618538	 0.7550291167	 0.102088
H	 0.1206456778	-0.518166587	 2.1028238247	 0.068193
68.4613	131.3917	207.7294	224.5652	236.3795	298.6309	455.1816	469.4578	506.6113	552.2863	641.9779	705.7694	739.853	779.2746	847.5168	882.4205	889.5575	921.4503	955.4398	961.4882	978.1071	1006.3108	1037.4011	1082.8485	1127.7683	1153.7771	1164.0538	1179.1051	1200.945	1234.5795	1238.904	1261.0068	1261.7649	1269.4061	1302.1051	1323.6452	1353.7186	1374.7178	1414.4934	1453.3925	1482.098	1496.2269	1498.4678	1501.9191	1837.6058	2997.8673	3018.4507	3028.6366	3060.6382	3065.4723	3077.4089	3094.2439	3095.4542	3098.0829	3105.0236	3107.169	3123.1431
CC1CC(=O)C2CCC12	C[C@H]1CC(=O)[C@H]2CC[C@@H]12	
InChI=1S/C8H12O/c1-5-4-8(9)7-3-2-6(5)7/h5-7H,2-4H2,1H3	InChI=1S/C8H12O/c1-5-4-8(9)7-3-2-6(5)7/h5-7H,2-4H2,1H3/t5-,6-,7-/m0/s1
