21
gdb 93914	2.71831	1.26456	0.97097	0.5322	80.96	-0.2413	0.0236	0.2649	1271.3874	0.182852	-424.223664	-424.214592	-424.213648	-424.257357	34.88	
C	-0.6437335802	 1.3719403398	-0.1137134469	-0.394632
C	 0.0143080448	-0.0192510248	-0.0403183659	 0.071643
O	 0.669112224	-0.3537892154	-1.2545577034	-0.254387
C	 1.8950056724	 0.2836380444	-1.5500463327	-0.112951
C	 3.0807401464	-0.4707360209	-0.9365957016	 0.097498
O	 4.2974035197	-0.121680652	-1.5915055864	-0.433277
C	 3.3039183186	-0.1470888832	 0.5357489166	-0.244096
C	 2.123920196	-0.2257354394	 1.4654243638	-0.092481
C	 0.8120496824	-0.1674490749	 1.2328476996	-0.047334
H	 0.1038256598	 2.1697183388	-0.1466912629	 0.121851
H	-1.270116251	 1.4370246748	-1.0077014906	 0.121581
H	-1.2715291016	 1.5446031089	 0.7657937016	 0.116496
H	-0.79828595	-0.7566813961	 0.0081884913	 0.093056
H	 1.9896946651	 0.2615837784	-2.6431462226	 0.089701
H	 1.9098040461	 1.3393823293	-1.2444838748	 0.097569
H	 2.8651730917	-1.5444957008	-1.0480087719	 0.076453
H	 4.2492293917	-0.4398204605	-2.4985421867	 0.283183
H	 4.101904319	-0.7973465454	 0.9128201636	 0.111881
H	 3.7199930477	 0.8714218943	 0.5833459003	 0.121768
H	 2.4154667198	-0.3013468757	 2.5119388371	 0.088986
H	 0.1625907474	-0.1968931195	 2.1076965725	 0.08749
67.7552	106.6441	227.2459	252.2651	270.1718	290.3545	308.2488	341.1631	401.1912	429.1675	455.2095	532.0739	590.8246	713.8131	772.9235	797.3665	877.7212	906.0995	913.307	985.4431	1001.5196	1021.6877	1069.9226	1080.7541	1092.7015	1103.1604	1116.9834	1181.687	1214.3478	1260.0592	1287.7517	1306.8924	1329.9976	1341.5275	1366.646	1392.3838	1405.1328	1413.0662	1427.2248	1448.2212	1474.109	1486.2506	1495.5623	1502.3923	1739.671	2984.6188	2998.4482	3005.9606	3014.5545	3041.0173	3050.3152	3055.4556	3112.3063	3117.9223	3122.0861	3142.4268	3818.9205
CC1OCC(O)CC=C1	C[C@H]1OC[C@@H](O)CC=C1	
InChI=1S/C7H12O2/c1-6-3-2-4-7(8)5-9-6/h2-3,6-8H,4-5H2,1H3	InChI=1S/C7H12O2/c1-6-3-2-4-7(8)5-9-6/h2-3,6-8H,4-5H2,1H3/t6-,7+/m1/s1
