21
gdb 94844	3.12704	1.29222	1.16646	2.6049	78.07	-0.2334	0.075	0.3084	1164.3448	0.182812	-424.220456	-424.211728	-424.210783	-424.254669	32.752	
C	 0.7492233366	 1.406420664	-0.0124836758	-0.394274
C	-0.0669848098	 0.1167770933	 0.0287927774	 0.136615
C	 0.1382230379	-0.790565531	-1.1984503699	-0.301318
C	 1.2565648737	-1.7306577446	-0.7476813537	 0.41849
C	 1.6091066567	-2.9807787411	-1.5790128505	-0.365836
C	 2.9746940902	-2.2973569815	-1.7841248408	-0.067527
O	 2.5815627901	-1.1688797205	-0.9780637841	-0.317118
C	 0.9384197842	-1.88794424	 0.7375380364	-0.107902
O	 0.3404308262	-0.6737984262	 1.1624933645	-0.278672
H	 1.801457116	 1.1853593023	-0.2109834365	 0.142426
H	 0.3764472959	 2.0733726492	-0.7978302855	 0.103431
H	 0.6733575148	 1.9274653428	 0.9460403717	 0.119514
H	-1.1283613103	 0.3598999116	 0.1650721173	 0.07043
H	-0.7637565583	-1.3784717727	-1.4022705053	 0.10262
H	 0.4067831688	-0.2411515032	-2.1030615208	 0.11037
H	 1.6332889291	-3.9153959485	-1.0144059402	 0.113003
H	 1.0090725531	-3.1226962491	-2.4796175537	 0.112732
H	 3.8401050016	-2.8210382301	-1.3609260398	 0.105129
H	 3.2086182802	-2.0033184551	-2.8144613325	 0.103714
H	 0.2465494617	-2.7342906356	 0.8848400381	 0.084219
H	 1.8452128815	-2.0738955839	 1.3225905936	 0.109955
43.3037	79.182	111.0036	226.3212	255.7057	341.2713	381.0037	404.2583	417.8263	476.9086	718.5712	767.216	781.5655	814.8826	866.2009	873.545	898.3782	918.7308	956.395	980.3648	1010.7186	1026.0719	1051.78	1080.4795	1122.0346	1160.856	1165.9638	1183.1809	1199.2657	1211.604	1251.2322	1256.6694	1277.3617	1305.2473	1335.3709	1354.0778	1382.8667	1398.251	1407.299	1472.3313	1489.8857	1490.3693	1499.3803	1507.4023	1532.9191	2961.4821	3015.5498	3018.5413	3036.2405	3049.4904	3057.2292	3068.2368	3073.0989	3107.2129	3115.9737	3127.2462	3129.4982
CC1CC2(CCO2)CO1	C[C@H]1C[C@]2(CCO2)CO1	
InChI=1S/C7H12O2/c1-6-4-7(5-8-6)2-3-9-7/h6H,2-5H2,1H3	InChI=1S/C7H12O2/c1-6-4-7(5-8-6)2-3-9-7/h6H,2-5H2,1H3/t6-,7+/m0/s1
