18
gdb 76848	2.50073	1.53751	1.16681	4.5457	72.56	-0.2275	0.004	0.2315	1105.2406	0.146817	-439.077549	-439.069126	-439.068182	-439.110596	31.32	
C	 0.3912215179	 1.549013579	 0.0183204718	-0.402327
C	 0.1172373407	 0.0580882995	-0.0361027492	 0.031834
C	 0.6163260319	-0.7726481821	-1.2394514134	 0.076655
O	 1.9531010636	-0.4179011587	-1.709347441	-0.264334
C	 2.559736562	-1.3582772002	-0.8900123075	 0.49011
O	 3.7129027152	-1.6258965938	-0.8295775084	-0.322452
C	 1.2314638561	-1.7530375241	-0.2232810366	-0.20823
N	 0.9380609148	-0.793363172	 0.8688278915	-0.09198
C	 0.3361308117	-1.2955800266	 2.084359986	-0.334663
H	 1.4388460243	 1.7528639188	-0.2137705539	 0.143688
H	-0.2396087607	 2.0849937211	-0.6986678248	 0.119387
H	 0.1748435899	 1.9421131175	 1.0167217741	 0.122487
H	-0.9583343754	-0.1488903254	 0.0963090791	 0.071542
H	-0.0452284033	-1.0102992695	-2.0687971482	 0.105493
H	 0.9737549095	-2.8024332721	-0.0758720857	 0.104117
H	 1.0365497706	-1.9621374454	 2.5969009651	 0.134099
H	 0.1235392381	-0.4583627763	 2.7567754951	 0.130782
H	-0.6082858868	-1.8470718397	 1.9164982461	 0.093793
93.1706	141.885	206.9962	214.0483	219.5615	240.3133	323.3787	394.0174	454.8499	578.7863	639.0054	705.1792	795.6967	807.4215	844.3608	883.6267	923.3149	952.8881	981.9503	1049.1815	1087.606	1103.6577	1136.0756	1156.5664	1177.226	1188.3166	1202.3677	1243.2692	1291.5807	1321.1397	1330.6316	1372.592	1409.0057	1456.1653	1486.9269	1491.2419	1495.5659	1499.8671	1946.8097	2927.6274	2959.1463	3040.7183	3064.7122	3105.4223	3106.7906	3111.8906	3133.7297	3149.0938
CC1C2OC(=O)C2N1C	C[C@H]1[C@H]2OC(=O)[C@H]2N1C	
InChI=1S/C6H9NO2/c1-3-5-4(7(3)2)6(8)9-5/h3-5H,1-2H3	InChI=1S/C6H9NO2/c1-3-5-4(7(3)2)6(8)9-5/h3-5H,1-2H3/t3-,4-,5+/m0/s1
