19
gdb 108068	2.52331	1.65708	1.27363	2.4537	74.84	-0.2212	0.0664	0.2876	1061.9395	0.15815	-422.960468	-422.952131	-422.951187	-422.993223	32.619	
C	 0.2391893477	 1.4639172996	 0.1090234509	-0.380763
C	-0.0430486574	-0.0221201704	-0.1537366066	-0.308629
C	 0.7220491136	-0.541619121	-1.3249490965	 0.462326
O	 0.507613805	 0.0261975531	-2.6259110545	-0.329799
C	 1.2786886919	-1.0938164783	-3.145139792	 0.062728
C	 2.7298391534	-0.7830379951	-2.6876825764	-0.298896
C	 2.1742741488	-1.0432098856	-1.287608839	 0.293407
O	 2.8390541622	-1.1142872343	-0.0848383443	-0.459342
C	 1.0346843149	-1.9208290278	-1.8329628133	-0.309966
H	 1.2927154141	 1.6205186052	 0.3591400608	 0.129025
H	 0.0086753495	 2.0628134181	-0.7764694039	 0.134443
H	-0.3681558713	 1.8338267595	 0.9401979723	 0.108086
H	 0.2334073628	-0.6211300607	 0.7207893465	 0.115286
H	-1.1143407207	-0.1783053568	-0.3282698632	 0.106374
H	 1.0284798346	-1.3695946425	-4.1666320588	 0.089018
H	 3.4278710869	-1.5667719264	-2.9984481826	 0.093617
H	 3.1197421961	 0.2091233953	-2.9354590551	 0.103887
H	 3.4381238165	-1.8691689452	-0.1067901624	 0.28922
H	 0.6584234311	-2.9090495968	-1.6064484317	 0.099978
78.6012	140.5496	186.716	255.6977	280.229	343.0984	402.5819	430.0185	456.2934	526.0502	646.9388	664.3241	731.4873	789.2125	803.8144	816.4229	877.9403	906.3106	923.7302	967.9917	979.1362	1014.0672	1040.4682	1063.7771	1097.7894	1107.6959	1127.4314	1163.0862	1223.7509	1238.8831	1268.9074	1285.9332	1321.0419	1334.0099	1392.8048	1410.0336	1462.4541	1472.9315	1495.763	1498.0054	1510.5517	3034.4985	3042.9092	3043.6371	3077.8864	3103.6994	3114.4154	3122.1601	3150.8688	3207.8774	3785.2523
CCC12OC3CC1(O)C23	CC[C@@]12O[C@H]3C[C@]1(O)[C@@H]23	
InChI=1S/C7H10O2/c1-2-7-5-4(9-7)3-6(5,7)8/h4-5,8H,2-3H2,1H3	InChI=1S/C7H10O2/c1-2-7-5-4(9-7)3-6(5,7)8/h4-5,8H,2-3H2,1H3/t4-,5-,6-,7-/m0/s1
