23
gdb 123026	4.84591	0.54422	0.51716	2.0292	84.3	-0.2456	0.0812	0.3267	2198.3299	0.203505	-425.40113	-425.390294	-425.389349	-425.438367	38.483	
C	-0.0652066592	 1.4887522188	-0.0026662742	-0.38392
C	-0.0821926678	-0.0091587135	 0.2524035772	-0.02573
O	-1.3398051095	-0.5192443654	-0.1339151181	-0.242606
C	-1.4620832874	-1.9112880153	 0.0599537774	-0.041481
C	-2.8526489865	-2.3455447399	-0.3886652215	-0.223103
C	-3.0625969494	-3.8370664455	-0.2405444242	-0.016055
C	-3.4264717061	-4.4325629642	 1.1102825678	-0.326075
C	-4.4335931756	-4.4045579916	-0.0122641618	 0.088058
O	-5.4968839395	-3.4970587385	 0.0338247242	-0.415322
H	 0.8998202042	 1.9154913914	 0.2870002462	 0.111584
H	-0.2344449674	 1.6988872235	-1.0626174992	 0.125634
H	-0.8518394312	 1.9846481143	 0.5732280952	 0.125477
H	 0.7225691552	-0.5070438307	-0.3162706838	 0.081364
H	 0.1047602306	-0.2216602168	 1.3195193115	 0.081201
H	-0.6859138719	-2.4477149236	-0.5150787404	 0.076682
H	-1.3051162561	-2.169251559	 1.1215786357	 0.08278
H	-3.605788023	-1.8033479297	 0.1893105803	 0.117184
H	-2.9910191377	-2.049155621	-1.4352650741	 0.106354
H	-2.4118930395	-4.4484474512	-0.8615318235	 0.08455
H	-2.9948342718	-5.3811179694	 1.4110207247	 0.108301
H	-3.5921286034	-3.7296129346	 1.9209513656	 0.113193
H	-4.6684248334	-5.3499422575	-0.5018903841	 0.084032
H	-6.1052048636	-3.7881317004	 0.7206499493	 0.287896
50.06	53.9765	87.4928	113.428	139.598	189.6629	238.1353	247.7833	292.479	341.6155	391.5024	452.0918	493.0254	588.9	765.5676	797.6678	821.6709	839.4876	875.9219	915.8792	954.2247	993.0756	1035.16	1048.6158	1076.3385	1088.1687	1134.6836	1150.1607	1167.9182	1177.7383	1180.1662	1197.9933	1240.1579	1245.6994	1293.1273	1296.4131	1304.9798	1312.5216	1386.8279	1400.5005	1410.4883	1427.7492	1453.4537	1483.3394	1488.5261	1496.7539	1500.0246	1517.8216	1539.2189	2936.8034	2951.1409	2967.8374	2969.3454	3043.6479	3044.0367	3092.673	3101.0009	3117.9163	3120.2845	3126.1087	3134.7292	3214.9556	3810.0527
CCOCCC1CC1O	CCOCC[C@H]1C[C@H]1O	
InChI=1S/C7H14O2/c1-2-9-4-3-6-5-7(6)8/h6-8H,2-5H2,1H3	InChI=1S/C7H14O2/c1-2-9-4-3-6-5-7(6)8/h6-8H,2-5H2,1H3/t6-,7+/m0/s1
