18
gdb 11025	4.01576	1.67353	1.40639	1.2023	73.63	-0.2191	0.0275	0.2466	940.2284	0.15358	-347.805815	-347.798155	-347.797211	-347.837146	30.164	
C	-0.0075370382	 1.4882315424	 0.0828110043	-0.496845
C	-0.0105935917	-0.0057178678	 0.0021838179	 0.344817
C	 0.0186782215	-0.7629126085	-1.1017729171	-0.182495
C	-0.0241420986	-2.2436067029	-0.7960483234	-0.334748
C	 0.0158707352	-2.2921731988	 0.7344282736	 0.402863
O	-0.7513338885	-3.2597249185	 1.3866538436	-0.47007
C	 1.2266977036	-1.7291504395	 1.4295038627	-0.341121
C	-0.0176561473	-0.8661592019	 1.2275186803	-0.179943
H	 0.8624478922	 1.8545566934	 0.6423625365	 0.126387
H	 0.0065325483	 1.9447182135	-0.9106475813	 0.121641
H	-0.8951000753	 1.8565271245	 0.613009673	 0.12584
H	 0.0719495734	-0.377673269	-2.1144490712	 0.084254
H	-0.9536356425	-2.7084059077	-1.1524257235	 0.112204
H	 0.8043948038	-2.7960648014	-1.2585329911	 0.099583
H	-0.2489301342	-4.0816262322	 1.3941001295	 0.280728
H	 1.3986596435	-2.0932265939	 2.4374360927	 0.108523
H	 2.1186195854	-1.4904429806	 0.8581363029	 0.107539
H	-0.5902560206	-0.5833673811	 2.1042951408	 0.090844
152.2334	184.4188	257.1334	265.7443	279.7522	351.5075	403.0453	426.3549	542.7586	582.4359	638.1321	747.3142	805.346	821.2405	885.0418	918.3137	956.7532	976.6698	1001.334	1013.3688	1026.1288	1053.7837	1067.4158	1094.4772	1150.6989	1181.8426	1239.9553	1246.9784	1296.0457	1320.2677	1362.4153	1401.0654	1413.7565	1464.7358	1478.3944	1484.3733	1489.7149	1704.5813	3011.5418	3017.1882	3041.1983	3063.1544	3109.8929	3117.3128	3171.8643	3187.4745	3212.4764	3796.3791
CC1=CCC2(O)CC12	CC1=CC[C@@]2(O)C[C@@H]12	
InChI=1S/C7H10O/c1-5-2-3-7(8)4-6(5)7/h2,6,8H,3-4H2,1H3	InChI=1S/C7H10O/c1-5-2-3-7(8)4-6(5)7/h2,6,8H,3-4H2,1H3/t6-,7+/m0/s1
