21
gdb 84651	2.26618	1.77575	1.31703	1.1504	83.5	-0.2301	0.0077	0.2379	1068.2989	0.183918	-387.092035	-387.083537	-387.082593	-387.124477	33.931	
C	 0.0143566618	 1.5711800076	-0.1317894343	-0.393781
C	 0.0663904832	 0.038892473	-0.0604994668	 0.003656
C	 0.6891418397	-0.5650060064	-1.3111634575	-0.020694
C	 2.167518787	-0.7622783662	-1.4703988059	-0.285581
C	 1.2613836306	-1.9672653537	-1.2177041492	-0.095439
C	 1.2447263527	-2.605302429	 0.115225214	-0.0283
C	 0.9824174023	-1.9349916156	 1.2411252027	-0.145405
C	 0.7171295963	-0.450689874	 1.2503011219	 0.062047
O	 1.9308292039	 0.2987658841	 1.4585820994	-0.42981
H	 1.0214695937	 1.9915252522	-0.1689600348	 0.136581
H	-0.529753142	 1.8952349995	-1.0249413633	 0.102524
H	-0.4944177552	 1.9904966163	 0.7426686545	 0.106259
H	-0.9669646262	-0.3341861736	-0.017550563	 0.074633
H	 0.1383458001	-0.3395794491	-2.220647486	 0.080611
H	 2.5910561987	-0.6643027608	-2.4645131382	 0.103707
H	 2.8096318308	-0.4517188583	-0.6564365648	 0.133611
H	 1.1098647853	-2.6336663223	-2.0606170341	 0.080369
H	 1.4495033623	-3.6725917432	 0.1569742284	 0.089798
H	 0.9861317051	-2.4490169128	 2.1991729791	 0.082434
H	 0.0233548399	-0.2125806946	 2.0721474733	 0.064778
H	 2.4555515498	-0.1807045131	 2.1074274847	 0.278003
129.0181	171.0309	217.4065	236.4292	263.7312	274.7897	342.0792	392.1327	458.9828	498.2575	612.8721	676.1848	703.0844	754.9915	783.6333	827.437	862.6854	900.2064	943.7427	953.6593	982.4625	995.8984	1010.1917	1053.0241	1067.6746	1093.9391	1112.5418	1126.4047	1130.3021	1181.8123	1196.0491	1235.8862	1241.2465	1327.4583	1350.8425	1364.6561	1372.3118	1396.4566	1405.6527	1428.8776	1440.1262	1485.1397	1494.2619	1501.5149	1702.0832	2965.2538	3002.5759	3036.4156	3097.0739	3130.8536	3133.2374	3137.9783	3141.4079	3156.2931	3168.3391	3242.0909	3819.9391
CC1C2CC2C=CC1O	C[C@H]1[C@H]2C[C@H]2C=C[C@H]1O	
InChI=1S/C8H12O/c1-5-7-4-6(7)2-3-8(5)9/h2-3,5-9H,4H2,1H3	InChI=1S/C8H12O/c1-5-7-4-6(7)2-3-8(5)9/h2-3,5-9H,4H2,1H3/t5-,6+,7+,8+/m0/s1
