17
gdb 83499	3.01548	1.53511	1.49176	2.1516	68.63	-0.2432	0.0192	0.2624	950.4396	0.139863	-455.150332	-455.143422	-455.142478	-455.181408	28.184	
O	 0.1565215885	 1.354426666	-0.0340771175	-0.455738
C	 0.0760394965	-0.0385593508	 0.0437113478	 0.165264
C	 0.307505075	-0.6533230082	 1.4508891875	 0.045516
C	-0.8545584237	-0.0498592849	 2.2509988819	-0.19638
N	-1.911682347	 0.0717721681	 1.2026148425	-0.334785
C	-1.3547865191	-0.614346025	 0.0052204259	-0.14672
C	-1.0713242807	-2.0610701003	 0.3361436965	 0.436978
N	-1.6825551343	-3.0867119132	-0.068322816	-0.564163
O	-0.0115917319	-2.0459427895	 1.2213609487	-0.257229
H	-0.6795903651	 1.6935758924	 0.3169119138	 0.2986
H	 0.7428835396	-0.4757608438	-0.7023494793	 0.106242
H	 1.2993489675	-0.5833584568	 1.891829852	 0.098281
H	-1.1369599717	-0.7132395194	 3.0738472266	 0.119796
H	-0.5997304018	 0.9327061354	 2.6625779908	 0.11662
H	-2.7889051325	-0.3447476953	 1.4909802029	 0.240937
H	-1.9573698843	-0.4557923663	-0.8857858193	 0.103853
H	-1.2880289948	-3.9318535483	 0.3505264653	 0.222931
145.253	235.5046	273.5003	308.7939	408.2109	449.8071	533.3641	551.0405	600.4671	676.449	740.3165	824.2512	832.7781	870.6723	887.319	899.8462	944.9361	945.1997	961.2698	1032.0329	1043.963	1062.5545	1082.5466	1130.9429	1195.0803	1200.0201	1233.1523	1259.2429	1272.4786	1292.5355	1329.1214	1356.0221	1368.5133	1403.3438	1444.7784	1509.1694	1789.8633	3041.1166	3088.022	3103.8389	3153.2334	3159.4301	3460.7549	3555.9508	3736.0879
OC1C2CNC1C(=N)O2	O[C@H]1[C@H]2CN[C@@H]1[C]([NH])O2	
InChI=1S/C5H8N2O2/c6-5-3-4(8)2(9-5)1-7-3/h2-4,6-8H,1H2	InChI=1S/C5H8N2O2/c6-5-3-4(8)2(9-5)1-7-3/h2-4,6-8H,1H2/t2-,3+,4+/m1/s1
