23
gdb 65503	3.34614	1.1565	1.12046	0.2374	89.09	-0.2474	0.0905	0.3379	1241.7822	0.206161	-351.112543	-351.103803	-351.102858	-351.145871	35.116	
C	 0.0609190347	 1.6357755717	-0.0812960822	-0.477276
C	 0.0572986701	 0.1093242872	-0.0414604377	 0.326343
C	 1.1678412956	-0.6142747015	-0.9006178932	-0.290047
C	 1.6876454627	-1.3043262621	 0.3656324628	-0.027962
C	 2.1368872358	-0.2780066995	 1.3645923177	-0.305815
C	 0.6660380153	-0.5519640101	 1.2197711941	-0.063234
C	-1.2999621857	-0.5183532003	-0.3248157446	 0.002141
C	-2.6137325285	 0.071275547	 0.1253313254	-0.287165
C	-2.2764880655	 0.0070452775	-1.3463953495	-0.292304
H	 1.0595923346	 2.0283227566	 0.1277406686	 0.113475
H	-0.2331667943	 2.0152278932	-1.065775088	 0.115101
H	-0.6177439202	 2.062531082	 0.664396872	 0.116009
H	 0.7370962322	-1.2960669424	-1.6372279175	 0.100512
H	 1.8863813879	 0.038147958	-1.4095150548	 0.086523
H	 1.9979962032	-2.3400853369	 0.4322033701	 0.079488
H	 2.5851214551	-0.6728567944	 2.2712264845	 0.108073
H	 2.5752836567	 0.6599045479	 1.0321892217	 0.101829
H	 0.0736776425	-0.9151172865	 2.0525928535	 0.077735
H	-1.256740637	-1.6039504008	-0.2637198028	 0.079123
H	-3.3704264966	-0.6016358587	 0.5140865044	 0.107374
H	-2.6141278578	 1.0489712183	 0.593686055	 0.111559
H	-2.0531082928	 0.9417095417	-1.8482702377	 0.110967
H	-2.8018159181	-0.7097491579	-1.9682161918	 0.107551
49.6437	156.4939	184.9943	220.9797	287.3489	311.4911	348.4079	404.9964	465.7087	474.3915	629.392	728.3837	780.9067	788.5295	814.5888	835.0364	847.2135	876.6248	934.3262	938.3432	955.9359	967.9871	991.2034	1000.2064	1043.2516	1055.7288	1067.3588	1074.0635	1077.5416	1084.4731	1144.5668	1152.8378	1161.2579	1164.2815	1201.3395	1201.8995	1235.2506	1246.2415	1299.5785	1305.1286	1357.2221	1398.177	1418.3521	1466.9604	1481.1311	1490.4572	1500.9987	1504.9892	1510.7198	3033.78	3037.9927	3098.3981	3100.7225	3106.4527	3111.7584	3120.744	3134.1322	3138.7517	3164.7092	3179.1025	3196.3303	3209.9681	3224.644
CC1(CC2CC12)C1CC1	C[C@]1(C[C@H]2C[C@@H]12)C1CC1	
InChI=1S/C9H14/c1-9(7-2-3-7)5-6-4-8(6)9/h6-8H,2-5H2,1H3	InChI=1S/C9H14/c1-9(7-2-3-7)5-6-4-8(6)9/h6-8H,2-5H2,1H3/t6-,8-,9+/m1/s1
