22
gdb 59940	2.62054	0.96197	0.87324	3.4956	82.88	-0.2926	0.0208	0.3134	1466.2194	0.191038	-404.372393	-404.361397	-404.360453	-404.408275	40.451	
C	 0.4084703401	-0.0134284184	 1.51668037	-0.393388
C	-0.0452080589	 0.0710662032	 0.0507096268	 0.019745
C	 1.0518855256	-0.467775499	-0.8796841061	-0.393482
C	-1.3937445164	-0.6611761833	-0.1010280937	-0.203814
C	-2.1683692845	-0.4843417475	-1.433825887	 0.177905
C	-2.446488699	 0.9816069434	-1.7883332438	-0.399509
O	-1.4825593022	-1.0307625934	-2.5558003183	-0.430967
C	-3.4669700524	-1.195503298	-1.2811709006	 0.256284
N	-4.4583250019	-1.7768461583	-1.1573766893	-0.337035
H	 1.3554659396	 0.5159579616	 1.6613899395	 0.115116
H	-0.3303820209	 0.4255202086	 2.1951325322	 0.11318
H	 0.562403104	-1.0558308674	 1.8201786054	 0.11587
H	-0.2009006661	 1.1322709118	-0.1820281956	 0.080999
H	 1.2394851643	-1.5305600055	-0.6799634005	 0.104753
H	 0.7800945849	-0.3673952885	-1.9313665593	 0.135931
H	 1.9927700166	 0.066385194	-0.7111668444	 0.110786
H	-1.2403802689	-1.7382695907	 0.0571185264	 0.101025
H	-2.0667148576	-0.337624737	 0.7022929641	 0.116979
H	-1.5031939721	 1.4961376055	-1.9804985274	 0.139231
H	-3.0585696664	 1.033912374	-2.6908270914	 0.145537
H	-2.9722564513	 1.4848683114	-0.9736672861	 0.133268
H	-1.2886208465	-1.9573243365	-2.3730192412	 0.291588
45.3981	109.9914	125.9342	181.0789	220.3887	233.7732	243.1921	270.4895	303.8617	338.9004	348.6962	363.9106	406.6105	428.5246	478.6454	590.1054	599.6425	749.9789	819.4136	877.6773	905.89	933.0428	953.8141	969.735	984.3666	1042.1408	1103.9334	1145.5778	1184.6494	1191.36	1200.202	1275.6592	1328.417	1360.4582	1377.6125	1392.4682	1401.4902	1412.7005	1425.5363	1471.1707	1480.1425	1490.3976	1493.877	1497.8981	1505.4695	1516.9193	2348.4112	3009.4527	3021.3327	3025.1279	3031.5227	3058.6907	3062.2899	3087.0477	3095.5543	3103.8817	3140.6031	3142.3227	3145.4642	3803.1211
CC(C)CC(C)(O)C#N	CC(C)C[C@@](C)(O)C#N	
InChI=1S/C7H13NO/c1-6(2)4-7(3,9)5-8/h6,9H,4H2,1-3H3	InChI=1S/C7H13NO/c1-6(2)4-7(3,9)5-8/h6,9H,4H2,1-3H3/t7-/m1/s1
