15
gdb 128080	4.482	1.12971	0.90746	1.4993	69.78	-0.2669	-0.0396	0.2273	1224.0511	0.11415	-450.162339	-450.154196	-450.153252	-450.196001	28.4	
C	 0.0835932183	 1.4136479521	 0.0516007856	-0.335554
N	-0.0897815907	-0.0249258554	 0.0930618304	-0.357478
C	-1.2874237028	-0.6058759083	-0.1005298346	 0.546816
O	-2.3492736666	-0.071673002	-0.3260312265	-0.384928
N	-1.2141820505	-2.0430893251	-0.0131045928	-0.040553
C	-2.2414871086	-2.9179752507	-0.1598531247	-0.063167
C	-1.6584560086	-4.1450651948	 0.0118963632	-0.077359
N	-0.3224373922	-3.9706783515	 0.2521919351	-0.181155
N	-0.054682982	-2.7040054289	 0.2371319898	-0.151827
H	 0.7844227698	 1.7009299981	-0.7389744324	 0.138622
H	-0.8882991197	 1.8632781798	-0.1529862029	 0.173728
H	 0.4580010069	 1.7906794076	 1.0088760533	 0.138622
H	 0.6929575648	-0.6383152246	 0.2705627953	 0.280866
H	-3.2417498639	-2.5795999273	-0.3638270365	 0.176719
H	-2.1015864344	-5.1266013691	-0.0203961021	 0.136649
76.7558	87.53	109.6779	175.4818	204.8661	317.2825	413.6141	506.124	588.7043	634.9798	714.1008	763.4143	816.3309	822.6486	884.915	960.3362	1003.8362	1038.8769	1082.3699	1128.9127	1156.6741	1178.0418	1211.5986	1235.3152	1306.9651	1347.5679	1448.3484	1464.3946	1497.4372	1498.9028	1525.6859	1581.6291	1838.349	3037.2148	3093.0444	3158.1127	3278.6718	3313.0522	3604.2575
CNC(=O)N1C=CN=N1	CNC(=O)n1ccnn1	
InChI=1S/C4H6N4O/c1-5-4(9)8-3-2-6-7-8/h2-3H,1H3,(H,5,9)	InChI=1S/C4H6N4O/c1-5-4(9)8-3-2-6-7-8/h2-3H,1H3,(H,5,9)
