17
gdb 79376	2.37975	1.91041	1.21991	3.3313	78.53	-0.2318	0.0104	0.2422	1018.971	0.136289	-380.784811	-380.777286	-380.776342	-380.81661	29.362	
C	 0.0498265219	 1.4872436082	-0.3403691608	-0.351035
N	 0.0418566712	 0.0489694081	-0.0840852337	-0.102995
C	-1.0221914167	-0.4791009842	 0.8084641412	-0.052939
C	-0.1356292463	-1.6923790249	 1.2235279265	-0.071272
C	-0.3933268444	-1.4921232764	 2.7258077553	-0.308455
C	-0.3374550598	-0.0465421221	 2.1838440935	 0.225904
C	-0.4942170312	 1.1630969066	 2.9397174844	 0.155751
N	-0.6231432	 2.1290744353	 3.5655600326	-0.362935
C	 0.7792330836	-0.4350747269	 1.1116079151	-0.052941
H	 1.0135841431	 1.7629078998	-0.7797186737	 0.127252
H	-0.7292230197	 1.7203202009	-1.0729024104	 0.127252
H	-0.1153367153	 2.1110074283	 0.5508158465	 0.130856
H	-2.0866939866	-0.455920325	 0.5716283238	 0.100858
H	-0.0159673962	-2.6050634031	 0.6449938397	 0.099568
H	-1.3620799042	-1.8213532294	 3.1095401616	 0.117136
H	 0.4110976786	-1.7780173075	 3.4079302988	 0.117136
H	 1.8602726818	-0.3594590977	 1.2358241093	 0.100858
138.8828	159.4025	208.4134	251.0825	286.5399	427.9439	456.7195	526.1551	540.0791	621.4961	730.1414	733.64	829.379	841.4707	875.4237	898.6286	925.7472	1007.1668	1014.6522	1061.2122	1079.824	1100.7253	1117.3886	1132.406	1157.7067	1173.2471	1173.3336	1208.119	1238.2867	1264.5721	1280.3115	1319.5768	1450.8104	1493.0741	1499.1477	1514.992	2333.3403	2997.8679	3062.0282	3076.9177	3107.0294	3113.0721	3116.2426	3122.417	3157.2619
CN1C2C3CC2(C#N)C13	CN1[C@H]2[C@@H]3C[C@@]2(C#N)[C@H]13	
InChI=1S/C7H8N2/c1-9-5-4-2-7(5,3-8)6(4)9/h4-6H,2H2,1H3	InChI=1S/C7H8N2/c1-9-5-4-2-7(5,3-8)6(4)9/h4-6H,2H2,1H3/t4-,5-,6+,7-
