16
gdb 9860	5.5988	0.9368	0.86143	1.4655	89.52	-0.228	-0.0095	0.2185	1335.2425	0.128242	-309.409039	-309.400482	-309.399537	-309.441979	31.771	
C	-0.0414207138	 1.5096199587	 0.0051970484	-0.455723
C	 0.0065532366	-0.0124890616	-0.0020620047	 0.11908
C	 1.3541146636	-0.6919542141	-0.2242271709	-0.28423
C	 0.7311937036	-0.7181310824	 1.1398294685	-0.28423
C	-1.153426738	-0.6583724761	-0.5441204607	 0.421591
C	-2.1466697732	-1.1762142783	-1.0076038712	-0.300096
C	-3.2551155186	-1.7695407926	-1.5254162848	 0.299978
C	-4.2406084428	-2.2949056024	-1.986549912	-0.585194
H	 0.879331188	 1.916822673	 0.4338342433	 0.115884
H	-0.1491527717	 1.9023039283	-1.0103856357	 0.1317
H	-0.8853223637	 1.8714397614	 0.6002832184	 0.131702
H	 1.3640596575	-1.6088254954	-0.8009474255	 0.130324
H	 2.2027140209	-0.0381189069	-0.3943093786	 0.120794
H	 1.1490292655	-0.0824244293	 1.9130309613	 0.120792
H	 0.3152660881	-1.6528960092	 1.4956060025	 0.130321
H	-5.1057125518	-2.7585543731	-2.3905556784	 0.187306
81.331	100.7675	213.8359	226.5685	254.8642	301.7775	335.6671	487.5623	488.6749	531.3396	535.5227	561.903	593.6872	601.6323	786.1388	826.5953	832.224	940.688	953.1634	1046.6455	1071.223	1079.9546	1090.0273	1116.7589	1194.5066	1287.8025	1355.4203	1411.8038	1464.06	1486.0817	1494.9313	1502.4295	2178.7405	2351.4529	3036.8066	3109.8536	3111.193	3137.5139	3141.687	3224.133	3238.4395	3506.3382
CC1(CC1)C#CC#C	CC1(CC1)C#CC#C	
InChI=1S/C8H8/c1-3-4-5-8(2)6-7-8/h1H,6-7H2,2H3	InChI=1S/C8H8/c1-3-4-5-8(2)6-7-8/h1H,6-7H2,2H3
