18
gdb 32094	2.84582	1.28834	0.94274	1.9991	84.04	-0.2189	-0.0323	0.1866	1261.6823	0.149584	-398.196251	-398.187789	-398.186845	-398.22976	31.954	
C	 0.1521319996	 1.5085102729	 0.166015003	-0.369125
C	-0.0838150721	 0.0072324893	-0.0646428335	-0.271076
C	 0.6729041781	-0.5168036876	-1.2589587807	 0.31595
C	 1.7254881206	-1.4208817053	-1.1319994238	-0.096155
N	 2.400093016	-1.877121977	-2.1952065036	-0.226024
C	 2.0305331292	-1.426834272	-3.3818012507	-0.06652
C	 0.9676622478	-0.5096320771	-3.5258725413	 0.351758
N	 0.6140034167	-0.0024692851	-4.7573315022	-0.568169
N	 0.2936449813	-0.0673736758	-2.4639416326	-0.363927
H	 1.2053763182	 1.7122632187	 0.3842735005	 0.117964
H	-0.1240682277	 2.0763553852	-0.7263935806	 0.135045
H	-0.4456813274	 1.8715132955	 1.007347796	 0.111949
H	 0.2038981886	-0.5615730282	 0.8257881172	 0.102555
H	-1.1535963984	-0.1670930786	-0.2288533109	 0.115056
H	 2.0301032551	-1.7913220508	-0.1576378786	 0.100973
H	 2.5748697029	-1.7886472956	-4.2519896859	 0.098196
H	 0.8321290118	-0.5617556733	-5.5664498383	 0.255082
H	-0.2932223005	 0.4385040447	-4.780663674	 0.256466
43.9118	134.8527	201.4098	213.1332	290.9073	332.2587	381.2732	437.5835	476.4996	516.789	566.8901	584.8657	684.0979	724.5335	783.3243	799.0499	882.67	929.7566	946.0935	1007.5409	1019.5949	1071.2298	1085.0095	1127.246	1198.4254	1255.4488	1267.5324	1304.216	1348.614	1376.9104	1403.242	1469.746	1477.8687	1493.5338	1496.3924	1509.8931	1588.5675	1612.6162	1642.7207	3036.3694	3039.7102	3077.7496	3109.2591	3124.4192	3140.5502	3168.4569	3580.6674	3696.431
CCC1=CN=CC(N)=N1	CCc1cncc(N)n1	
InChI=1S/C6H9N3/c1-2-5-3-8-4-6(7)9-5/h3-4H,2H2,1H3,(H2,7,9)	InChI=1S/C6H9N3/c1-2-5-3-8-4-6(7)9-5/h3-4H,2H2,1H3,(H2,7,9)
