17
gdb 70968	3.84659	1.29115	1.13867	4.4317	77.84	-0.2358	0.0078	0.2436	1093.375	0.136783	-380.817768	-380.81014	-380.809196	-380.849609	29.971	
C	-0.0481041081	 1.4326944718	-0.0515885314	-0.511218
C	-0.008675207	-0.0594131231	-0.004747007	 0.367743
N	 0.9746136611	-0.8558617874	-0.7882537067	-0.384433
C	 0.1101280452	-2.0471508555	-0.4398900615	 0.215688
C	 0.4253717568	-2.2257965266	 1.0729695837	-0.242042
C	-0.3099572227	-0.9001577496	 1.2448860327	-0.123217
C	-1.0997564854	-1.0919950178	-0.0429251704	-0.204388
C	 0.0752109409	-3.1510895279	-1.3610977178	 0.148941
N	 0.0252477079	-4.0341316408	-2.1062639087	-0.338171
H	 0.8992287335	 1.8544088862	 0.3004619159	 0.140475
H	-0.2253319096	 1.7956684479	-1.0700797328	 0.125875
H	-0.850357261	 1.8179577529	 0.5850705794	 0.130514
H	 0.805637524	-0.644304748	-1.7734018123	 0.223266
H	-0.1352751556	-3.0572081473	 1.5049164837	 0.121193
H	 1.4866931204	-2.2908378122	 1.3240468959	 0.119152
H	-0.6532340827	-0.4413634002	 2.1627638406	 0.100941
H	-2.1579662778	-1.0924792422	-0.2674903031	 0.109682
133.1541	152.9594	209.0124	260.8857	299.6449	431.5425	494.8919	501.9185	542.7224	570.1648	625.7101	741.8695	755.1608	814.6992	883.3093	895.5332	924.9456	946.5467	974.4418	982.0419	1038.2142	1059.9717	1078.0019	1123.0536	1137.0961	1158.4886	1208.7705	1229.9436	1255.3736	1282.727	1351.1053	1410.8955	1453.0164	1481.0524	1489.3471	1501.1751	2353.3627	3031.6076	3067.5742	3094.9564	3110.3553	3132.8916	3200.231	3210.9842	3439.2976
CC12NC3(CC1C23)C#N	C[C@@]12N[C@]3(C[C@@H]1[C@@H]23)C#N	
InChI=1S/C7H8N2/c1-6-4-2-7(3-8,9-6)5(4)6/h4-5,9H,2H2,1H3	InChI=1S/C7H8N2/c1-6-4-2-7(3-8,9-6)5(4)6/h4-5,9H,2H2,1H3/t4-,5+,6-,7-/m1/s1
