17
gdb 54158	2.18376	1.46293	1.11269	4.4476	74.05	-0.2555	-0.0357	0.2198	1143.599	0.133557	-418.016545	-418.007006	-418.006061	-418.051368	33.983	
C	 0.4198485776	 0.8757711963	-0.8319947495	-0.500672
C	-0.1178623053	 0.1674868685	 0.3884122195	 0.352862
O	 0.3606247492	 0.3075702327	 1.491005941	-0.294195
C	-1.3388417457	-0.736466755	 0.238095749	 0.178707
C	-2.1233377075	-0.9327247517	 1.5185860424	-0.464543
N	-2.0380834941	-0.6689722908	-1.0500273506	-0.338171
C	-1.3127310144	-1.9034716059	-0.7276547601	-0.216794
C	-0.1841134439	-2.2549649548	-1.5557409429	 0.342297
N	 0.7190312546	-2.5692033955	-2.2056383111	-0.336503
H	 1.2250403879	 1.5422095336	-0.5219885921	 0.141714
H	 0.8009262978	 0.15775882	-1.5649285369	 0.175072
H	-0.3780738954	 1.433822734	-1.3295781895	 0.154222
H	-2.552561998	 0.01821448	 1.8490790615	 0.140546
H	-2.9370119451	-1.6502206509	 1.375016997	 0.112781
H	-1.4668121262	-1.2891109021	 2.3140322269	 0.16299
H	-3.0381230166	-0.8127150651	-0.928890151	 0.24974
H	-1.8815064748	-2.7710954232	-0.4015123835	 0.139945
44.1763	109.4585	142.8648	145.189	193.6134	256.0412	284.9445	322.7712	368.8682	458.7897	491.3203	527.8369	587.2086	642.4995	660.3334	796.2804	864.6219	924.9907	952.7404	979.5801	1026.4649	1055.1016	1072.8699	1119.5354	1176.0709	1205.7866	1285.4723	1360.2308	1392.7643	1412.526	1427.2107	1456.0271	1471.856	1476.167	1498.4148	1800.3489	2358.1091	3044.4986	3054.6271	3111.2549	3120.4514	3140.4875	3142.9056	3161.1661	3500.3977
CC(=O)C1(C)NC1C#N	CC(=O)[C@@]1(C)N[C@H]1C#N	
InChI=1S/C6H8N2O/c1-4(9)6(2)5(3-7)8-6/h5,8H,1-2H3	InChI=1S/C6H8N2O/c1-4(9)6(2)5(3-7)8-6/h5,8H,1-2H3/t5-,6+/m0/s1
