17
gdb 28942	3.01523	1.29176	1.0355	1.6564	80.8	-0.179	0.0324	0.2113	1168.3868	0.136336	-380.859046	-380.850317	-380.849373	-380.892805	32.931	
N	 0.1966041379	 1.3664480123	 0.0712106835	-0.615189
C	 0.0038176825	-0.0267702318	 0.0432283319	 0.290823
C	-1.124334462	-0.8144705984	-0.0171778253	-0.23138
C	-0.6885461817	-2.1690543122	-0.1137096735	-0.155483
C	 0.6820106098	-2.1673842267	-0.0977792971	-0.117848
N	 1.1041238638	-0.8529282508	-0.0211896068	 0.00153
C	 2.4784961896	-0.3900528635	-0.0020052932	-0.325383
C	 2.9273561782	 0.0575677383	 1.3192603838	 0.318427
C	 3.2763936295	 0.4498217071	 2.4001497692	-0.458616
H	 0.6272775226	 1.6813022278	 0.9365611047	 0.250291
H	-0.6834615534	 1.8520290026	-0.0451482039	 0.247255
H	-2.1427098004	-0.4576281836	 0.0109574418	 0.080809
H	-1.3170808294	-3.0439220902	-0.1786270032	 0.090655
H	 1.4006636234	-2.9704042726	-0.1255692542	 0.111528
H	 3.1139171298	-1.2063832552	-0.3588990052	 0.145997
H	 2.5776940986	 0.4382835106	-0.7134392691	 0.161185
H	 3.5947097211	 0.7793754264	 3.3583854366	 0.2054
45.4471	86.1112	219.6265	237.0287	270.8027	280.2105	327.8287	431.8287	477.7663	611.7163	626.4921	636.0288	664.7258	679.6562	691.3244	739.8875	773.9346	812.5576	829.139	902.2269	942.5306	965.4516	1043.9404	1091.0099	1134.5631	1198.7785	1245.9411	1295.4006	1330.8401	1378.6168	1413.5868	1453.9012	1497.8133	1529.8248	1602.7834	1652.3095	2237.8906	3040.0878	3086.9971	3238.1874	3250.6927	3269.9046	3488.3755	3503.332	3607.5353
NC1=CC=CN1CC#C	Nc1cccn1CC#C	
InChI=1S/C7H8N2/c1-2-5-9-6-3-4-7(9)8/h1,3-4,6H,5,8H2	InChI=1S/C7H8N2/c1-2-5-9-6-3-4-7(9)8/h1,3-4,6H,5,8H2
