18
gdb 19876	3.25104	2.17973	1.94587	1.8108	70.09	-0.2511	0.0791	0.3302	798.3547	0.155389	-347.778239	-347.771417	-347.770473	-347.808943	27.195	
C	-0.2083812044	 1.5982331031	 0.0306142892	-0.417719
C	 0.0447077736	 0.1048116748	 0.0795070101	 0.001682
C	 1.3435285351	-0.5979397902	-0.2363420281	-0.076097
C	 2.7022390801	 0.1123626043	-0.1305730108	-0.264549
C	 2.9226418126	 0.4046305407	 1.3509138359	 0.042339
O	 2.0089595848	 1.3473664334	 1.9235211047	-0.251534
C	 1.7452992562	-0.0534053125	 2.108645701	 0.032626
C	 0.7488729256	-0.6880633149	 1.1684625177	-0.084617
H	 0.6714668044	 2.1827943245	 0.2867624966	 0.144677
H	-0.5423253545	 1.878155939	-0.97539906	 0.104023
H	-1.0040357766	 1.8775269145	 0.7301434171	 0.114421
H	-0.8061659337	-0.4547126132	-0.3080241188	 0.08371
H	 1.2958912161	-1.4467223424	-0.9108766212	 0.082613
H	 3.4920964961	-0.5598741983	-0.4832170541	 0.105458
H	 2.7667332475	 1.0259172478	-0.7323988215	 0.116224
H	 3.9313544266	 0.4436452051	 1.7571618681	 0.092829
H	 1.7967538567	-0.3935690286	 3.1395238204	 0.094049
H	 0.2739654939	-1.595667667	 1.5253779536	 0.079867
139.4136	164.0198	254.345	312.5676	380.3754	466.2467	608.6079	678.7027	712.0263	722.6924	759.7409	838.8818	860.1402	863.96	920.6167	940.639	971.6159	1021.3869	1028.1498	1041.1708	1076.4884	1097.1294	1119.3523	1127.9342	1149.6927	1207.0751	1244.8668	1266.4533	1300.0086	1316.1773	1357.896	1374.5486	1411.6802	1425.7839	1446.7886	1475.2284	1493.7394	1509.3042	3032.6496	3041.6809	3078.6636	3083.6992	3103.5848	3131.3583	3148.0412	3152.7123	3169.3676	3180.7328
CC1C2CC3OC3C12	C[C@H]1[C@H]2C[C@H]3O[C@H]3[C@@H]12	
InChI=1S/C7H10O/c1-3-4-2-5-7(8-5)6(3)4/h3-7H,2H2,1H3	InChI=1S/C7H10O/c1-3-4-2-5-7(8-5)6(3)4/h3-7H,2H2,1H3/t3-,4+,5+,6-,7+/m0/s1
