15
gdb 17232	5.27081	1.70616	1.53209	3.211	66.06	-0.2503	-0.0316	0.2187	828.8011	0.119767	-362.612681	-362.60631	-362.605366	-362.643254	24.354	
O	-0.1506909114	 0.105648892	 0.3369408089	-0.260762
C	 0.0370825405	 1.2401944887	-0.0305169355	 0.061651
C	 1.3657672224	 1.8713110319	-0.096300676	 0.249696
C	 2.6539409193	 1.4296310186	 0.5679356934	-0.296106
C	 3.0607658391	 2.9059048699	 0.4052315887	-0.00315
C	 3.1923755324	 3.1480637732	-1.1133003058	-0.23766
C	 1.6880913064	 2.9506459967	-1.1065607094	-0.071514
N	 1.5485955969	 3.3275316339	 0.3232763614	-0.190514
H	-0.8005914201	 1.9028329315	-0.3448393619	 0.079272
H	 2.4737032255	 1.1622835172	 1.6110863555	 0.128701
H	 3.2717313218	 0.6658887051	 0.0874594547	 0.1093
H	 3.7056365085	 3.405613924	 1.1242430075	 0.095016
H	 3.4415851739	 4.1880242489	-1.3368576402	 0.122282
H	 3.8269723887	 2.4745210525	-1.6971307764	 0.10802
H	 0.9590948261	 3.2638478858	-1.8461701549	 0.105769
107.7932	180.831	263.8926	410.3195	429.872	454.0714	688.5977	725.2087	769.6562	801.2639	842.0253	891.8127	935.6862	944.1295	992.7164	1008.8059	1029.8643	1033.2611	1078.1806	1128.4997	1147.9707	1192.1027	1205.9362	1237.0669	1267.7468	1291.0962	1332.3076	1383.6603	1430.3839	1489.5553	1505.0627	1810.5714	2880.4046	3053.117	3062.1803	3115.0911	3124.11	3149.2992	3177.5494
O=CC12CC3CC1N23	O=C[C@@]12C[C@H]3C[C@@H]1N23	
InChI=1S/C6H7NO/c8-3-6-2-4-1-5(6)7(4)6/h3-5H,1-2H2	InChI=1S/C6H7NO/c8-3-6-2-4-1-5(6)7(4)6/h3-5H,1-2H2/t4-,5+,6+,7?/m1/s1
