14
gdb 52632	2.18597	1.04952	0.95666	5.9263	72.83	-0.2736	-0.058	0.2157	1329.9062	0.095962	-436.6607	-436.650371	-436.649427	-436.697705	34.05	
C	 0.0592676884	 1.4024326978	-0.1104005595	-0.501779
C	 0.0385675314	-0.0495791064	-0.0498693833	 0.046852
C	 0.0275980772	-1.2521977888	 0.0165016571	 0.083449
C	 0.0016897568	-2.7149251284	 0.0341889182	-0.058971
O	-1.2952939053	-3.244764801	-0.1816813688	-0.421124
C	 0.8264848797	-3.1947203394	-1.2013168709	 0.168863
O	 1.9504472307	-3.5915933433	-1.1553485683	-0.213136
C	 0.5907104492	-3.232254774	 1.2888628063	 0.301622
N	 1.01160819	-3.6412116736	 2.2829849758	-0.329003
H	 0.9835444566	 1.757996917	-0.5775270694	 0.168448
H	-0.7829979312	 1.7833093151	-0.6971248814	 0.162976
H	-0.0005525723	 1.8373550177	 0.8925271202	 0.167136
H	-1.910126745	-2.7793766945	 0.3976675856	 0.303584
H	 0.2297210638	-3.0990467883	-2.1301164016	 0.121086
26.8322	63.2807	83.9745	121.958	149.458	210.7934	258.4507	282.3275	318.5175	336.1691	429.3463	469.1757	500.5512	537.9182	641.7845	714.1752	871.3185	982.4996	1037.1779	1049.9147	1051.7176	1108.921	1207.3314	1344.5272	1382.8448	1411.8452	1471.5196	1472.5164	1861.7744	2362.0551	2365.6788	2948.0554	3036.5423	3103.0449	3103.9623	3804.3423
CC#CC(O)(C=O)C#N	CC#C[C@@](O)(C=O)C#N	
InChI=1S/C6H5NO2/c1-2-3-6(9,4-7)5-8/h5,9H,1H3	InChI=1S/C6H5NO2/c1-2-3-6(9,4-7)5-8/h5,9H,1H3/t6-/m0/s1
