19
gdb 77105	3.31547	1.10536	0.92873	0.6694	83.58	-0.2436	0.0473	0.2909	1290.8522	0.157557	-385.828857	-385.819821	-385.818877	-385.862473	34.792	
O	 0.320976341	 0.7566761531	-0.615261813	-0.42769
C	-0.0627010201	-0.5210219393	-0.1837061975	 0.055461
C	-0.0184145485	-0.8401968752	 1.3573039237	-0.195099
C	-1.4344575336	-1.4962080252	 1.2021798032	-0.32478
C	-1.5687370966	-0.7615183373	-0.1350746807	 0.345268
C	-2.5838228851	 0.2966510155	-0.45582414	-0.307323
C	-2.5165405973	-0.9747483957	-1.2723665438	-0.347924
C	 1.0785677675	-1.6272952012	 1.8739176117	 0.293841
C	 1.9985563341	-2.2962147365	 2.2671853758	-0.451147
H	 1.2764868952	 0.7678110886	-0.7292396634	 0.290615
H	 0.4575578871	-1.3102519907	-0.7445887664	 0.077742
H	-0.1091267092	 0.1093372867	 1.8939833278	 0.109405
H	-1.3643968194	-2.5817402168	 1.0915858571	 0.112475
H	-2.1607586218	-1.2615210881	 1.9830203332	 0.110795
H	-3.4186593983	 0.4237347552	 0.2261308026	 0.108836
H	-2.2197663941	 1.2122451621	-0.9077854178	 0.132061
H	-2.1224322547	-0.9102426346	-2.2819323287	 0.114435
H	-3.306474609	-1.7085137923	-1.1466556761	 0.110904
H	 2.8059763729	-2.8838968783	 2.6274863722	 0.192124
64.0822	129.7315	189.9059	219.0974	244.3072	274.662	334.4088	364.8595	450.1934	499.8955	539.0919	574.3502	617.9281	624.0209	735.08	783.3229	825.9192	877.9876	901.4948	928.6483	976.2247	989.1459	1050.9787	1055.4266	1064.7189	1079.887	1123.3612	1137.1835	1191.3769	1197.4936	1222.1438	1240.8942	1256.284	1270.4012	1351.5118	1385.1221	1444.0338	1463.1258	1494.2982	1506.1471	2229.0742	3001.2173	3060.443	3063.8699	3117.2257	3122.3607	3131.6821	3203.3579	3224.5247	3504.6645	3822.1746
OC1C(CC11CC1)C#C	O[C@H]1[C@@H](CC21CC2)C#C	
InChI=1S/C8H10O/c1-2-6-5-8(3-4-8)7(6)9/h1,6-7,9H,3-5H2	InChI=1S/C8H10O/c1-2-6-5-8(3-4-8)7(6)9/h1,6-7,9H,3-5H2/t6-,7+/m1/s1
