14
gdb 11317	4.85706	1.52606	1.16976	1.6441	70.5	-0.2589	-0.0773	0.1816	969.1284	0.107885	-378.775626	-378.768234	-378.767289	-378.807989	26.375	
C	 0.0385988035	 1.4225746582	 0.0077872108	-0.343054
N	 0.0444898035	-0.0316911293	 0.0030376986	-0.300261
C	-1.075347097	-0.6340063142	 0.0088576507	 0.409216
N	-2.3719524124	-0.117443092	 0.0194719902	-0.409461
C	-3.3318484932	-1.1347920842	 0.0233614453	 0.408882
O	-4.5288096338	-0.974786344	 0.0318402151	-0.35166
C	-2.5428304714	-2.4051227624	 0.0130694341	-0.210584
C	-1.2391856598	-2.1039876254	 0.0051927053	-0.131223
H	 1.0672783265	 1.7888546632	-0.0006454776	 0.135974
H	-0.4732888678	 1.8353126018	-0.8740953243	 0.123887
H	-0.4564525452	 1.829178332	 0.9020300965	 0.124064
H	-2.620498585	 0.8568251087	 0.0247292608	 0.267503
H	-3.0186113927	-3.3744818891	 0.0128901012	 0.137249
H	-0.3844762054	-2.7646176034	-0.0030801568	 0.139467
49.1804	127.0436	188.7052	199.437	385.7228	442.2026	460.7257	525.748	639.3051	662.5205	708.7451	770.0704	848.0771	910.703	931.4791	972.9634	1033.2746	1083.7784	1095.8259	1159.6877	1169.58	1317.7996	1344.9359	1361.2686	1430.8201	1491.7215	1506.0002	1631.108	1751.2051	1835.2599	2984.2016	3035.478	3113.2076	3242.7851	3264.458	3680.9577
CN=C1NC(=O)C=C1	C[N]C1=C[CH]C(=O)N1	
InChI=1S/C5H6N2O/c1-6-4-2-3-5(8)7-4/h2-3H,1H3,(H,6,7,8)	InChI=1S/C5H6N2O/c1-6-4-2-3-5(8)7-4/h2-3H,1H3,(H,6,7,8)
