14
gdb 85807	2.61012	1.22305	1.15811	4.0433	63.75	-0.2549	-0.0651	0.1898	1104.9078	0.098032	-473.81721	-473.808166	-473.807222	-473.851323	31.866	
O	 0.6005952592	 0.7504289423	 0.8825741561	-0.417907
C	 0.0406986348	-0.2490414214	 0.0823749328	 0.022067
C	-1.4936364831	-0.1239565132	-0.1248518238	-0.27797
C	-1.3424027518	-0.4227323263	-1.642248785	 0.145161
O	-1.5205815554	-1.8124783238	-1.8536049029	-0.45264
C	-2.0948184053	 0.3947778577	-2.5889874187	 0.236641
N	-2.6576777719	 1.0461149765	-3.3606160158	-0.322378
C	 0.1901735644	-0.1023121507	-1.4512589722	 0.323733
O	 1.065676795	 0.2292605881	-2.1869799147	-0.274632
H	 1.5603623175	 0.6734249812	 0.8455780222	 0.302174
H	 0.3224352915	-1.263323251	 0.4016626409	 0.115576
H	-2.1286706061	-0.8323881743	 0.40484851	 0.142098
H	-1.8203039439	 0.9015407885	 0.0545569674	 0.153228
H	-1.2262075349	-2.0236653236	-2.7485174562	 0.30485
61.2152	113.7938	157.978	184.797	211.9615	258.9758	308.9677	351.7885	386.4916	424.3253	509.4439	585.7854	607.5397	723.9276	761.9964	859.2891	931.0677	941.4293	978.5217	1066.1781	1113.2603	1169.3006	1188.9821	1237.2521	1249.0139	1298.0473	1357.3913	1409.0228	1461.4698	1904.6824	2349.5489	2998.4785	3097.6947	3169.216	3788.9143	3813.4132
OC1CC(O)(C#N)C1=O	O[C@H]1C[C@@](O)(C#N)C1=O	
InChI=1S/C5H5NO3/c6-2-5(9)1-3(7)4(5)8/h3,7,9H,1H2	InChI=1S/C5H5NO3/c6-2-5(9)1-3(7)4(5)8/h3,7,9H,1H2/t3-,5+/m0/s1
