18
gdb 55768	3.8823	0.96299	0.93488	2.8158	71.76	-0.2344	0.0287	0.2632	1288.7597	0.14686	-439.071323	-439.062489	-439.061545	-439.105901	32.622	
N	 0.5176394847	 0.0767806333	-0.7594036325	-0.517488
C	-0.1961257841	 0.276581473	 0.3861942492	 0.40243
O	-0.0200154861	 1.2325153349	 1.1136471463	-0.361058
C	-1.2591412532	-0.7880621568	 0.696873261	-0.433146
C	-1.0315544946	-2.1514532901	 0.1112318673	 0.264909
C	-1.479692083	-2.5870769667	-1.2827174968	-0.352983
C	-1.940749855	-3.3451067257	-0.0769718815	 0.036572
O	-0.9481822318	-4.2797284263	 0.3430555685	-0.283747
C	-0.0314567832	-3.1882088967	 0.6288997831	-0.123301
H	 1.1603615117	 0.7968504819	-1.045888879	 0.260258
H	 0.2955575843	-0.6663356742	-1.3984296698	 0.26739
H	-1.3281786352	-0.8330503172	 1.7880823308	 0.136089
H	-2.2180044658	-0.3856266718	 0.3460044449	 0.130371
H	-2.2217800163	-1.9381539887	-1.7392628805	 0.120647
H	-0.7924564226	-3.0678179126	-1.9752866177	 0.116968
H	-2.9730662904	-3.5355786125	 0.1939277777	 0.112841
H	 0.924031307	-3.2926413439	 0.1017767945	 0.107162
H	 0.1472163937	-3.1103039101	 1.7076378046	 0.116086
37.1802	65.9129	126.8326	239.1721	262.0687	310.2979	357.6623	382.8929	459.3815	505.7396	560.1325	662.9215	731.7723	757.2525	825.7152	880.237	908.1249	926.9402	934.1601	988.4567	999.6364	1022.701	1061.0293	1073.0767	1082.1049	1113.037	1154.2545	1177.8649	1261.6295	1281.1078	1313.5815	1333.9023	1351.5287	1409.4549	1457.8753	1479.4722	1515.4742	1605.3585	1804.8162	3023.312	3036.0476	3074.1539	3089.2485	3103.8383	3179.3178	3199.9685	3600.152	3737.4477
NC(=O)CC12CC1OC2	NC(=O)C[C@]12C[C@H]1OC2	
InChI=1S/C6H9NO2/c7-5(8)2-6-1-4(6)9-3-6/h4H,1-3H2,(H2,7,8)	InChI=1S/C6H9NO2/c7-5(8)2-6-1-4(6)9-3-6/h4H,1-3H2,(H2,7,8)/t4-,6+/m1/s1
