21
gdb 85981	2.66719	1.23947	1.02317	1.4308	78.23	-0.2599	0.0713	0.3311	1262.668	0.18066	-424.193958	-424.184586	-424.183641	-424.228034	35.663	
C	-0.7181116169	 0.886327396	-0.7770013518	-0.408689
C	 0.3491816088	-0.0893687307	-0.3068302462	 0.066957
C	 1.6670978614	-0.1996258066	-1.1250342328	-0.30784
C	 2.4582030785	-0.2759360002	 0.2148480392	 0.361601
O	 3.6698426113	 0.44642541	 0.3085215357	-0.483155
C	 1.1980531509	 0.2789316594	 0.9411413142	-0.306485
C	 2.8362886027	-1.6962017545	 0.5848563849	 0.080161
C	 2.855263463	-2.1812196795	 1.9663387459	-0.183639
O	 1.8054162292	-2.5570032674	 1.0660683403	-0.236493
H	-0.3005899121	 1.890242487	-0.9201053455	 0.103602
H	-1.1562352752	 0.5699496648	-1.7302696575	 0.115432
H	-1.5323892789	 0.9665408806	-0.0482095963	 0.116387
H	-0.0804137784	-1.0846099303	-0.1671072142	 0.095817
H	 1.7787921341	-1.0306525084	-1.8271619263	 0.102438
H	 1.8906511396	 0.7352601384	-1.6542202673	 0.082915
H	 3.5237511111	 1.3210409574	-0.0656355766	 0.27686
H	 1.2882163835	 1.3640049672	 1.0659393444	 0.084585
H	 0.9141590282	-0.165340863	 1.8970760687	 0.107238
H	 3.5181156018	-2.1629661493	-0.1280481198	 0.096367
H	 3.5374060787	-2.9825512939	 2.2441352859	 0.117903
H	 2.5600681488	-1.5170881568	 2.7761258249	 0.118038
75.5861	89.0175	195.7101	215.8724	222.3617	261.2404	304.2587	330.0117	395.5129	405.0302	477.282	522.091	588.7027	719.7458	816.2288	833.4709	881.8451	894.7325	913.4202	948.7931	958.1059	983.0526	1042.9887	1067.1676	1084.9097	1100.1304	1137.3963	1151.5011	1173.079	1174.5195	1190.942	1223.2687	1225.3839	1273.8129	1292.2457	1301.5169	1369.9124	1384.9662	1410.947	1450.4895	1462.1748	1490.6314	1494.3861	1497.2231	1529.4093	3019.4772	3025.5403	3044.4599	3069.4355	3086.7048	3091.0916	3091.8924	3097.7148	3099.543	3116.1459	3180.8737	3816.5598
CC1CC(O)(C1)C1CO1	C[C@H]1C[C@@](O)(C1)[C@H]1CO1	
InChI=1S/C7H12O2/c1-5-2-7(8,3-5)6-4-9-6/h5-6,8H,2-4H2,1H3	InChI=1S/C7H12O2/c1-5-2-7(8,3-5)6-4-9-6/h5-6,8H,2-4H2,1H3/t5-,6-,7+/m1/s1
