18
gdb 30198	2.60738	1.66384	1.06574	1.0497	80.24	-0.1744	0.0572	0.2316	1122.8597	0.148358	-401.952755	-401.944469	-401.943525	-401.985606	31.622	
C	-0.2204585179	 1.6767847726	-0.6362428967	-0.399978
C	 0.0985702866	 0.2794280789	-0.1402635923	 0.060295
C	 1.1841183601	-0.5702022437	-0.9122480719	-0.392807
C	 1.9095791812	-0.6325687643	 0.4201938666	 0.298519
C	 2.7018857348	-1.210298149	 1.374924331	-0.300695
C	 2.2413175191	-0.6733522743	 2.6322192568	-0.283495
C	 1.1635288786	 0.1584875029	 2.3835720381	 0.307454
O	 0.3600719457	 0.9055359802	 3.1862705516	-0.436768
N	 1.0075805766	 0.2115465629	 1.0326210017	-0.044337
H	 0.6981100315	 2.2435164909	-0.8150864396	 0.128237
H	-0.7859929847	 1.6239842739	-1.5725203192	 0.120929
H	-0.824053461	 2.2217521498	 0.0961569956	 0.133848
H	-0.8180261314	-0.293523524	 0.0356386278	 0.100493
H	 0.816001951	-1.5205356244	-1.307779066	 0.118596
H	 1.6865999634	-0.0231064968	-1.7164144649	 0.112628
H	 3.5050587068	-1.9182044905	 1.2421493861	 0.09151
H	 2.6887726179	-0.8426960509	 3.6011732369	 0.081571
H	 0.6325436318	 0.7621299456	 4.0976150187	 0.304
74.2163	149.8572	198.5365	233.5802	254.3904	310.0288	368.1182	415.6946	547.9517	621.378	643.2924	652.0922	717.4939	721.9396	754.6258	779.5499	841.1847	914.746	1006.9206	1035.1702	1058.1869	1065.7485	1100.3091	1120.6544	1178.4288	1219.5804	1233.6198	1251.41	1261.0082	1296.6527	1363.1837	1385.1496	1410.8408	1485.76	1489.56	1496.8749	1510.1822	1573.2983	1601.9919	3036.0375	3046.5697	3050.6051	3096.3199	3108.6653	3117.0704	3226.4258	3253.0512	3843.8061
CC1CC2=CC=C(O)N12	C[C@H]1Cc2ccc(O)n12	
InChI=1S/C7H9NO/c1-5-4-6-2-3-7(9)8(5)6/h2-3,5,9H,4H2,1H3	InChI=1S/C7H9NO/c1-5-4-6-2-3-7(9)8(5)6/h2-3,5,9H,4H2,1H3/t5-/m0/s1
