19
gdb 60300	5.91949	0.48952	0.46853	1.7985	95.34	-0.2379	-0.0076	0.2302	2286.1401	0.155693	-385.843476	-385.832856	-385.831911	-385.879873	38.167	
C	 0.0506152309	 1.5600107101	 0.0560876025	-0.41129
C	 0.0103961553	 0.0327522307	 0.0297604761	 0.139068
O	 0.7166987001	-0.5253919423	 1.1370013288	-0.42726
C	-1.423286407	-0.5079618359	-0.0473043984	-0.18525
C	-1.4603965894	-2.0487453173	-0.1127943059	-0.397853
C	-2.8097175401	-2.5884693778	-0.1076914664	 0.34096
C	-3.9419204403	-3.0173331581	-0.0998747043	-0.198763
C	-5.2139500372	-3.5006247511	-0.0925265666	 0.288326
C	-6.3432305479	-3.9290647852	-0.0856768316	-0.559973
H	 1.0838308502	 1.9104695741	 0.125227946	 0.127581
H	-0.4024525502	 1.9853715875	-0.8450115977	 0.12056
H	-0.502273633	 1.9483344182	 0.9208821647	 0.109518
H	 0.5672437035	-0.3231034647	-0.8469409571	 0.090928
H	 0.3295476849	-0.1639558095	 1.9426859034	 0.278517
H	-1.9870218331	-0.1691338781	 0.8319493415	 0.101624
H	-1.9297403682	-0.0877962531	-0.9233644223	 0.111623
H	-0.9349437009	-2.388131649	-1.0160454517	 0.134246
H	-0.890879961	-2.4474765668	 0.7348352717	 0.150008
H	-7.3353671664	-4.3062252615	-0.0802494425	 0.18743
42.6538	60.0621	120.6991	155.6894	179.3114	236.9802	245.2244	302.9914	338.3274	353.6422	441.7379	471.4782	492.255	527.7201	533.2338	587.3058	592.1267	733.941	770.4177	856.5906	934.8136	957.0901	1021.0766	1074.3261	1098.9383	1148.1054	1178.6639	1182.8566	1270.4404	1288.7117	1338.2092	1353.003	1387.8816	1405.4837	1420.9849	1467.9003	1484.1545	1493.9447	1496.4274	2181.2565	2363.3401	3014.7972	3021.8575	3024.3528	3035.645	3058.224	3080.3247	3096.644	3120.6184	3507.1348	3791.755
CC(O)CCC#CC#C	C[C@@H](O)CCC#CC#C	
InChI=1S/C8H10O/c1-3-4-5-6-7-8(2)9/h1,8-9H,6-7H2,2H3	InChI=1S/C8H10O/c1-3-4-5-6-7-8(2)9/h1,8-9H,6-7H2,2H3/t8-/m1/s1
