16
gdb 28823	3.25831	1.38514	1.07822	3.2836	82.72	-0.2449	-0.0778	0.1671	1117.6605	0.12554	-396.951377	-396.943513	-396.942568	-396.983945	29.391	
C	-0.5055745235	 1.3615080688	 0.1026570951	-0.469646
C	-0.0232151891	-0.0591420298	-0.0364991325	 0.311048
N	-0.1256154967	-0.6115085335	-1.2008304332	-0.291127
C	 0.3198096639	-1.8912400825	-1.4801439873	 0.066115
N	 0.3324497888	-2.9662498142	-0.7841448419	-0.258516
C	-0.0372017765	-3.0178193759	 0.5677745855	 0.288765
N	-0.7156052883	-3.965870434	 1.0839725153	-0.500614
C	 0.5263518039	-1.9783061981	 1.4534800735	-0.068173
C	 0.5398959541	-0.6644894839	 1.1695440025	-0.111662
H	 0.3281583239	 2.0209375486	 0.3729971791	 0.142188
H	-0.9432239263	 1.7021151629	-0.8353685222	 0.14969
H	-1.2450236477	 1.4412401381	 0.9075725859	 0.145471
H	 0.6555246563	-1.9859251673	-2.5145572673	 0.126195
H	-1.0013216706	-4.6160915355	 0.3467794026	 0.223086
H	 0.8834716593	-2.3261791455	 2.4187519696	 0.13639
H	 0.8964623086	 0.0283213418	 1.9277002254	 0.110789
73.8984	139.3961	190.3767	270.7383	323.2983	347.3166	374.5781	455.977	503.5795	612.3282	660.003	732.0897	774.3873	815.3951	852.8403	912.3374	929.1655	971.9533	999.555	1015.9456	1049.5344	1065.8689	1169.0117	1223.9756	1245.7025	1344.8794	1398.3535	1427.2403	1446.6225	1468.5504	1477.4713	1598.4877	1668.6905	1672.4802	1715.0007	3032.9092	3087.3666	3116.9592	3156.6842	3159.0187	3182.377	3443.4409
CC1=NC=NC(=N)C=C1	CC1=NC=N[C]([NH])C=C1	
InChI=1S/C6H7N3/c1-5-2-3-6(7)9-4-8-5/h2-4,7H,1H3	InChI=1S/C6H7N3/c1-5-2-3-6(7)9-4-8-5/h2-4,7H,1H3
