20
gdb 119698	4.48283	0.90953	0.89029	2.0841	78.34	-0.2211	0.0764	0.2975	1370.9075	0.171539	-403.061429	-403.053073	-403.052128	-403.094945	31.891	
O	-0.1709985194	 1.457892943	 0.0926487622	-0.418973
C	-0.0211700114	 0.0535952465	 0.2286199271	-0.065283
C	-1.3381849958	-0.5955171011	-0.1911575993	-0.320758
C	-1.3028695266	-2.0938548425	-0.1142871993	 0.340239
C	-0.5997135949	-3.0970826154	-1.0193715994	-0.22782
N	-1.4849400236	-4.1936045804	-0.4613276842	-0.171132
C	-0.9955789245	-4.2659742901	 0.973891125	-0.176851
C	-1.5540711457	-2.8732988705	 1.2030394502	-0.129707
C	-2.4388027187	-3.0682442137	 0.0054106677	-0.097272
H	 0.657424285	 1.8759044504	 0.3444708744	 0.28593
H	 0.7975034085	-0.3244533316	-0.4050868599	 0.087696
H	 0.2146486496	-0.228354677	 1.267029387	 0.088436
H	-2.1380128457	-0.201796204	 0.4476553304	 0.107898
H	-1.5711257284	-0.2748316068	-1.2143046594	 0.109959
H	-0.839767863	-2.9406229597	-2.0754166801	 0.105603
H	 0.4760765105	-3.2818085988	-0.9111699154	 0.092333
H	-1.5548681404	-5.0396629613	 1.5068723884	 0.108801
H	 0.080092354	-4.4506768296	 1.0796469219	 0.094705
H	-1.7797553581	-2.3514992133	 2.1253629571	 0.088483
H	-3.5038366116	-3.0217394939	-0.1740311646	 0.097714
73.5567	91.7272	113.7107	262.6658	300.2489	321.785	342.4132	454.9638	476.1899	682.7706	721.5156	779.8739	797.7955	835.9138	843.348	879.0663	908.9347	943.2801	971.2723	993.9834	1008.512	1022.1784	1057.4468	1081.0557	1088.9698	1118.549	1135.4011	1159.1196	1189.6254	1204.9666	1232.3794	1244.7582	1254.0325	1288.96	1303.7206	1326.1314	1342.3663	1427.68	1461.0844	1486.4305	1502.2745	1521.2589	1527.5373	2964.7004	2992.254	3021.0587	3027.0851	3033.3029	3068.1691	3086.2057	3094.9252	3183.6683	3214.6945	3831.4634
OCCC12CN3CC1C23	OCC[C@@]12CN3C[C@@H]1[C@@H]23	
InChI=1S/C7H11NO/c9-2-1-7-4-8-3-5(7)6(7)8/h5-6,9H,1-4H2	InChI=1S/C7H11NO/c9-2-1-7-4-8-3-5(7)6(7)8/h5-6,9H,1-4H2/t5-,6+,7-/m1/s1
