23
gdb 68079	2.40385	1.63835	1.18935	1.4185	84.75	-0.249	0.0759	0.3249	1142.1279	0.207052	-388.304147	-388.29555	-388.294606	-388.336362	35.558	
C	-0.0325005507	 1.5441473633	 0.0138364319	-0.473816
C	 0.0322330387	 0.0267060081	-0.0169534211	 0.340853
C	 1.1464058338	-0.6560822053	-0.876219079	-0.302003
C	 1.154495574	-1.7724194707	 0.1927185636	 0.428153
O	 2.4088599905	-2.3780474013	 0.398972245	-0.488978
C	 0.6556826541	-0.7078974812	 1.2080876044	-0.306922
C	 0.0314982453	-2.7890331321	-0.0682832821	-0.269454
C	-1.1916295971	-2.1046375032	-0.7231204663	-0.21657
C	-1.3377986303	-0.6208414368	-0.3134140415	-0.237481
H	 0.9391986737	 1.9767875951	 0.2744253783	 0.108929
H	-0.3303801272	 1.9487850327	-0.9607800963	 0.111062
H	-0.7633990017	 1.894015802	 0.7530058797	 0.110863
H	 0.9368780999	-0.9212134009	-1.9161400807	 0.087678
H	 2.0794144342	-0.0882213297	-0.8278582363	 0.099861
H	 2.3001411548	-3.0795383565	 1.0506034642	 0.270783
H	 1.500274595	-0.1516643147	 1.6248317372	 0.092731
H	-0.014495007	-1.02814604	 2.0133875324	 0.076639
H	 0.411720601	-3.580911692	-0.7232669166	 0.098382
H	-0.2435495368	-3.2631426549	 0.8842369931	 0.08574
H	-1.0642085794	-2.1502857508	-1.8092114025	 0.107255
H	-2.109825447	-2.6593138834	-0.5071558856	 0.09376
H	-1.9685054541	-0.5194531703	 0.579217628	 0.093234
H	-1.849717694	-0.0744460475	-1.1149076698	 0.089298
185.5263	213.7541	222.7433	245.1585	265.6174	299.1259	383.962	409.3466	421.2224	461.775	465.3532	551.5282	597.6276	703.459	773.6699	826.0614	874.914	890.533	912.8323	913.6217	941.799	974.7571	996.91	1015.6006	1043.2755	1067.6994	1080.3195	1085.6925	1161.5181	1204.5337	1208.5809	1212.1936	1235.939	1245.3042	1281.0809	1291.7783	1298.0247	1347.6104	1368.9688	1370.8539	1395.2242	1413.0422	1473.2273	1488.9495	1492.9603	1494.2249	1495.9804	1499.9395	1524.766	3007.1719	3014.5763	3019.1777	3033.9989	3040.9068	3053.5697	3056.7691	3063.3708	3080.2635	3086.578	3091.9986	3098.8498	3111.1215	3798.283
CC12CC(O)(C1)CCC2	C[C@@]12C[C@@](O)(C1)CCC2	
InChI=1S/C8H14O/c1-7-3-2-4-8(9,5-7)6-7/h9H,2-6H2,1H3	InChI=1S/C8H14O/c1-7-3-2-4-8(9,5-7)6-7/h9H,2-6H2,1H3/t7-,8-
