19
gdb 52306	5.66637	0.69856	0.64838	3.2171	78.96	-0.2532	-0.0261	0.2271	1696.0105	0.157719	-423.032603	-423.023414	-423.02247	-423.068438	32.162	
O	-0.2815141757	 0.2636175146	 0.5972989746	-0.238759
C	 0.1467059308	 0.9897092997	-0.2595474958	 0.14094
C	 1.2793587607	 1.978849824	-0.0400864396	-0.153623
O	 1.4007817732	 2.7649722211	-1.1951638948	-0.262082
C	 2.5470566303	 3.6149238847	-1.2262737994	 0.115753
C	 2.7062144316	 4.1734017044	-2.6574131392	-0.244717
C	 3.0754726716	 5.6690081429	-2.4979613622	-0.257376
C	 2.7129642999	 5.9619008677	-1.0626326424	-0.058824
C	 2.4300014893	 4.8594302636	-0.372781852	-0.090506
H	-0.2483219164	 0.9925127673	-1.2994423298	 0.095299
H	 1.0608994254	 2.5677947836	 0.8645711243	 0.122937
H	 2.2015956765	 1.405995025	 0.1654186666	 0.118551
H	 3.4202062996	 3.0136737306	-0.9179679424	 0.069243
H	 3.433716068	 3.6119725235	-3.2471489303	 0.10261
H	 1.7336679957	 4.0708927169	-3.1465911226	 0.124176
H	 4.1463236699	 5.8430080565	-2.6688654903	 0.111709
H	 2.5461449731	 6.3148637241	-3.207592216	 0.109542
H	 2.7213739416	 6.9674278766	-0.6551289356	 0.098549
H	 2.1791467248	 4.8238857132	 0.6812343469	 0.096579
46.7449	58.5608	74.5092	97.237	161.4898	279.074	335.2796	347.9129	516.7547	574.8146	645.103	741.4881	756.6867	781.2452	846.551	895.6901	927.5917	971.5334	984.7048	1017.5289	1040.6974	1063.1586	1095.8973	1115.7516	1129.5699	1162.7267	1189.4533	1235.7927	1241.2849	1291.1434	1308.653	1332.2685	1336.6244	1371.4376	1394.6207	1413.3389	1481.2614	1484.0638	1499.4428	1688.6288	1844.7808	2898.5883	2942.9478	2952.8485	3000.7591	3019.6494	3054.9872	3071.6023	3118.202	3181.3308	3208.4193
O=CCOC1CCC=C1	O=CCO[C@H]1CCC=C1	
InChI=1S/C7H10O2/c8-5-6-9-7-3-1-2-4-7/h1,3,5,7H,2,4,6H2	InChI=1S/C7H10O2/c8-5-6-9-7-3-1-2-4-7/h1,3,5,7H,2,4,6H2/t7-/m1/s1
