19
gdb 106843	2.6357	1.25615	1.01923	4.4564	81.99	-0.2448	0.0158	0.2606	1237.3002	0.159822	-382.052463	-382.043625	-382.042681	-382.08625	33.036	
C	-0.1658083487	 1.5014544595	-0.0279850175	-0.383664
C	 0.0795363771	-0.0127583889	 0.034128248	-0.261372
C	 0.7507169061	-0.5253466411	-1.2069174127	 0.32071
C	 0.0303130932	-0.970812763	-2.4444457181	-0.36534
C	 0.942331562	-1.9636573975	-1.7389380639	 0.108262
C	 2.4029470793	-1.5890685668	-2.0173274959	-0.22359
N	 2.1661457807	-0.2237593689	-1.4648132987	-0.354273
C	 0.4791229625	-3.1989437252	-1.206715803	 0.199281
N	 0.1103975836	-4.206762736	-0.7709811877	-0.354387
H	 0.7774871565	 2.0437981907	-0.1489247746	 0.127345
H	-0.818811565	 1.7637860367	-0.8669006945	 0.118052
H	-0.6383913091	 1.8563225483	 0.8920860951	 0.121621
H	 0.7112855065	-0.2496795261	 0.8970794593	 0.118407
H	-0.8690605782	-0.5440559556	 0.1718757323	 0.111875
H	-1.0292895027	-1.1741854216	-2.3282684918	 0.13797
H	 0.3210932266	-0.6048104744	-3.42692672	 0.113905
H	 3.1187596422	-2.1472098024	-1.4083372105	 0.133238
H	 2.7067603354	-1.6375564324	-3.0693420985	 0.110478
H	 2.3046908821	 0.5246529045	-2.1391189374	 0.221481
71.0496	94.2688	164.829	197.792	219.7248	285.9372	358.3977	402.634	429.061	532.423	564.1691	623.6214	713.2327	734.9667	780.5217	824.3059	879.6636	928.9186	961.6743	983.5701	993.13	1034.685	1058.871	1077.0819	1098.2806	1150.7386	1173.5535	1230.1683	1266.7194	1311.6436	1328.1401	1347.3556	1372.5038	1404.7895	1414.8703	1475.9703	1486.5585	1500.0269	1508.8376	1515.1891	2342.4236	3033.9129	3036.4899	3040.3194	3077.7548	3094.7361	3106.4366	3109.2815	3113.8066	3208.5308	3490.3727
CCC12CC1(CN2)C#N	CC[C@]12C[C@]1(CN2)C#N	
InChI=1S/C7H10N2/c1-2-7-3-6(7,4-8)5-9-7/h9H,2-3,5H2,1H3	InChI=1S/C7H10N2/c1-2-7-3-6(7,4-8)5-9-7/h9H,2-3,5H2,1H3/t6-,7+/m1/s1
