18
gdb 82681	2.90173	1.61548	1.26086	1.1353	83.64	-0.2103	0.0302	0.2405	1036.8543	0.146853	-364.706226	-364.698304	-364.697359	-364.73826	31.577	
C	-0.0506513982	 1.5411301539	-0.0248080305	-0.340524
N	 0.0886707525	 0.0919859704	 0.0147176462	-0.136074
C	 1.1142997929	-0.5842700074	-0.8252877239	-0.044472
C	 2.5055661169	 0.0220652186	-0.4535167909	-0.253518
C	 2.2803210629	-0.6053610916	 0.9175091611	-0.135154
C	 1.328814037	-1.6265129038	 0.3388925151	-0.166995
C	 0.730110758	-0.5289714296	 1.1748725437	 0.274223
C	 0.1700582663	-0.5568342079	 2.48077462	 0.164371
C	-0.3035234358	-0.5620452672	 3.5872421867	-0.390368
H	 0.8726389784	 2.1021731428	 0.1860794442	 0.10306
H	-0.4189077853	 1.8355554954	-1.0130262912	 0.118782
H	-0.7997057547	 1.8364403969	 0.7162853387	 0.132497
H	 0.8389068649	-0.789604255	-1.858228275	 0.081001
H	 3.2998696524	-0.5030087953	-0.9908115166	 0.107704
H	 2.6514362354	 1.1025067427	-0.5462288668	 0.097506
H	 2.9721175968	-0.7265090394	 1.7406625038	 0.096985
H	 1.2424749647	-2.700147434	 0.4139547493	 0.108142
H	-0.7255453953	-0.5749266996	 4.5613496759	 0.182835
127.1311	151.3471	175.6637	243.0555	309.6961	429.4821	484.4615	502.5841	561.0798	565.4525	617.7986	667.9094	675.6512	760.7756	803.7376	841.253	852.4486	895.6559	940.2011	951.1357	978.6593	1010.806	1061.2558	1089.544	1129.9056	1140.289	1146.4169	1171.3614	1191.3832	1222.4655	1256.0542	1263.2956	1300.7551	1382.4274	1440.3562	1480.5219	1495.9314	1515.9221	2233.914	2984.4293	3051.8429	3070.1874	3105.5007	3107.2767	3132.1131	3206.4735	3232.657	3502.7134
CN1C2CC3C2C13C#C	CN1[C@H]2C[C@@H]3[C@H]2[C@]13C#C	
InChI=1S/C8H9N/c1-3-8-5-4-6(7(5)8)9(8)2/h1,5-7H,4H2,2H3	InChI=1S/C8H9N/c1-3-8-5-4-6(7(5)8)9(8)2/h1,5-7H,4H2,2H3/t5-,6+,7-,8-/m1/s1
