16
gdb 83122	2.31475	1.77579	1.48729	1.8866	64.21	-0.2399	0.0251	0.265	944.1827	0.124088	-474.996552	-474.98845	-474.987506	-475.029012	30.596	
O	-0.2353765839	 1.4317816937	 0.1591686206	-0.416175
C	-0.1222870391	 0.0522950019	 0.0192421462	-0.001538
C	-0.5337626519	-0.8394786223	 1.178836392	-0.000029
O	-0.9415624485	-0.2158069982	 2.3698433107	-0.233232
C	-2.1950048197	 0.3296703896	 2.3924657009	 0.124524
N	-3.044045223	 0.4397610635	 1.4715069283	-0.252781
C	-2.7429325979	-0.0562065387	 0.134220149	-0.227707
C	-1.4037188495	-0.7582618607	-0.0365526275	 0.281032
O	-1.3957849788	-1.9156610857	-0.8248021411	-0.460032
H	 0.171031598	 1.6847629538	 0.9961451293	 0.299058
H	 0.7056704622	-0.3001422852	-0.595480577	 0.097774
H	 0.0209454791	-1.7500235569	 1.3718066707	 0.12504
H	-2.3974153802	 0.7052949465	 3.3929334228	 0.127545
H	-3.5161319103	-0.7843327484	-0.1349063603	 0.126223
H	-2.8398896445	 0.7883780995	-0.5592610758	 0.12282
H	-1.4444880118	-1.6448393625	-1.7490398887	 0.28748
105.6845	147.4927	187.8512	255.7042	272.1132	324.9169	379.4046	476.9633	498.4352	505.9659	536.1705	637.8263	708.3156	820.8306	894.8082	923.445	944.9488	982.2908	987.9459	1005.5188	1054.8602	1090.3489	1159.2012	1167.2945	1228.7984	1274.5662	1283.8207	1318.7119	1335.1564	1342.0415	1366.3151	1410.8371	1459.9724	1483.7796	1757.2593	3027.4502	3067.6511	3108.4763	3169.0184	3187.308	3788.5201	3790.3396
OC1C2OC=NCC12O	O[C@H]1[C@H]2OC=NC[C@@]12O	
InChI=1S/C5H7NO3/c7-3-4-5(3,8)1-6-2-9-4/h2-4,7-8H,1H2	InChI=1S/C5H7NO3/c7-3-4-5(3,8)1-6-2-9-4/h2-4,7-8H,1H2/t3-,4+,5+/m0/s1
