19
gdb 73839	2.61996	1.79017	1.28789	1.4931	81.	-0.2128	0.0135	0.2263	1039.8159	0.158895	-385.856873	-385.848863	-385.847919	-385.889118	31.386	
C	 0.0749376788	 1.4929610459	 0.1286689309	-0.50411
C	-0.0741993585	 0.0097533331	 0.0044228821	 0.247517
C	-0.1336183657	-0.7443377269	-1.1123264756	 0.205758
C	-0.0547502727	-0.337256671	-2.5490138544	-0.507161
C	-0.0277768433	-2.1882758236	-0.6816024717	-0.009818
O	 1.3768790378	-2.3513765759	-0.1869714137	-0.300849
C	 0.9031059062	-2.1284091614	 1.1204078222	 0.099399
C	-0.5377064322	-2.2546053868	 0.7850365297	-0.160514
C	-0.056966083	-0.8843079397	 1.197078926	-0.187793
H	 1.0488509546	 1.7544631265	 0.5620767992	 0.132868
H	-0.0051480552	 1.9974503696	-0.8372773528	 0.124056
H	-0.6878872241	 1.915757167	 0.7944773728	 0.123064
H	-0.1032743261	 0.7477833743	-2.6721491191	 0.122357
H	 0.881236279	-0.6810404074	-3.0081379109	 0.135399
H	-0.872569245	-0.7764097597	-3.134770522	 0.120181
H	-0.2687568012	-2.9719920118	-1.3994464682	 0.074785
H	 1.522471921	-2.4489212299	 1.9495322216	 0.107781
H	-1.3634414895	-2.8165075321	 1.2020884652	 0.096406
H	-0.274504171	-0.5128832502	 2.1924651786	 0.080673
136.0959	160.4755	167.2228	183.4042	270.9777	340.5183	457.2855	494.2582	585.7696	607.7126	669.8771	711.9943	789.9517	801.7406	809.8522	840.9997	892.6465	930.5186	964.26	990.7946	1036.2668	1039.7456	1049.3557	1067.0329	1073.0688	1088.6682	1147.7246	1193.813	1204.4161	1221.582	1242.2228	1317.9843	1349.8175	1381.8525	1410.3554	1418.69	1477.9594	1480.4093	1487.5207	1493.1971	1702.9118	3014.1827	3018.297	3057.5083	3062.4991	3109.4968	3115.4963	3120.6132	3176.1838	3183.1553	3198.5837
CC1=C(C)C2OC3C2C13	CC1=C(C)[C@H]2O[C@@H]3[C@H]2[C@H]13	
InChI=1S/C8H10O/c1-3-4(2)7-6-5(3)8(6)9-7/h5-8H,1-2H3	InChI=1S/C8H10O/c1-3-4(2)7-6-5(3)8(6)9-7/h5-8H,1-2H3/t5-,6-,7+,8-/m0/s1
