16
gdb 24718	4.2059	1.51676	1.30482	2.8808	74.53	-0.2184	0.0235	0.2419	958.1857	0.128782	-396.894229	-396.887851	-396.886907	-396.925199	25.169	
C	 0.1534767432	 1.5715628414	-0.0935937306	-0.178022
N	 1.5450664995	 1.4714380428	 0.418420052	-0.303851
C	 1.4875600529	-0.0149870037	 0.4767028002	-0.173112
C	-0.0328204008	 0.0405424205	 0.0594556047	-0.022019
N	 0.3516569152	-0.7269393042	-1.1433018211	 0.008614
C	 0.1932807636	-1.1529841389	-2.4269033147	-0.034068
N	 1.368473661	-1.5011415953	-2.923426287	-0.258301
C	 2.323632295	-1.2400482913	-1.960674302	-0.220478
C	 1.6890408384	-0.760370774	-0.8401019918	 0.265357
H	-0.4841404225	 2.1658285344	 0.5691878523	 0.118493
H	 0.0344447238	 1.9315198035	-1.120696937	 0.117458
H	 2.2577187084	 1.8310288406	-0.2070888598	 0.22866
H	 1.8720114927	-0.4517597188	 1.3984236486	 0.097773
H	-0.8695902871	-0.3563282135	 0.6305099563	 0.10909
H	-0.7566804232	-1.2430521403	-2.9298928657	 0.133557
H	 3.36795389	-1.4366305933	-2.1438654844	 0.11085
103.6693	159.0426	284.8915	435.0569	467.6202	657.863	661.3331	687.0383	723.7087	789.1951	810.0326	833.2109	837.5275	893.6207	931.0515	969.3528	997.6147	1033.0696	1045.8408	1108.5408	1119.1228	1154.7267	1184.6501	1193.3273	1229.1801	1260.2269	1271.45	1290.9239	1319.8971	1362.6231	1373.5699	1399.869	1459.0478	1503.5438	1548.2916	3036.5359	3083.607	3110.6375	3141.0821	3258.4857	3262.2548	3536.2515
C1NC2C1N1C=NC=C21	C1N[C@H]2[C@@H]1n1cncc21	
InChI=1S/C6H7N3/c1-4-6-5(2-8-6)9(4)3-7-1/h1,3,5-6,8H,2H2	InChI=1S/C6H7N3/c1-4-6-5(2-8-6)9(4)3-7-1/h1,3,5-6,8H,2H2/t5-,6-/m1/s1
