21
gdb 53143	2.64959	1.10744	0.93623	0.1239	91.85	-0.2265	0.0563	0.2828	1379.8518	0.181625	-349.907052	-349.897404	-349.89646	-349.942869	35.344	
C	 0.2734496548	 1.5473033822	 0.0247426047	-0.502062
C	 0.1327528158	 0.0979161722	 0.0096966954	 0.084304
C	 0.0036096359	-1.10099569	-0.0072132282	 0.077488
C	-0.0766552639	-2.5370811826	-0.0320424294	-0.200773
C	-0.401948397	-3.3894780296	 1.1768215187	-0.065679
C	-1.4701719099	-2.7067054191	 2.0407799434	-0.266316
C	-2.4761601283	-2.8126162744	 0.8392192273	 0.037158
C	-3.2712102705	-1.5984979374	 0.3755989126	-0.416364
C	-1.3405640724	-3.3832757015	-0.0259516214	-0.09048
H	 0.9832428278	 1.8752095569	 0.7927156287	 0.145453
H	 0.6347929607	 1.9213373246	-0.9398620493	 0.146731
H	-0.6845514909	 2.0386394212	 0.229429247	 0.146575
H	 0.6884401033	-2.9966218412	-0.6557961095	 0.105668
H	 0.2822566453	-4.1611984356	 1.5089737268	 0.086495
H	-1.7789427932	-3.2921292701	 2.9089487956	 0.098187
H	-1.2165863464	-1.6934962047	 2.3664877682	 0.106504
H	-3.1707257932	-3.6318001127	 1.0558973257	 0.074755
H	-2.6178288069	-0.7536545781	 0.1490185856	 0.136028
H	-3.847011613	-1.8336751149	-0.5269150981	 0.108356
H	-3.9823796665	-1.2846000172	 1.1483573634	 0.106271
H	-1.4693519515	-4.1395064977	-0.7929909473	 0.081701
20.1775	84.9726	95.6328	190.4147	208.7911	240.5439	284.7152	325.9876	393.6917	437.2974	530.6803	559.2398	683.752	741.7181	776.6381	814.5304	855.4824	868.4816	949.1815	964.2599	993.5231	1006.4175	1052.8094	1053.7136	1065.3114	1078.7703	1096.109	1125.1866	1128.998	1191.5211	1226.3393	1247.351	1268.4908	1301.6595	1340.1305	1375.7763	1407.6802	1413.6744	1424.5451	1477.6076	1479.9894	1486.6728	1492.6904	1504.2975	2360.1785	3022.5458	3027.6879	3037.1946	3056.6495	3081.1479	3083.0344	3085.3619	3113.3298	3117.5673	3132.3086	3161.1205	3180.7374
CC#CC1C2CC(C)C12	CC#C[C@H]1[C@H]2C[C@@H](C)[C@@H]12	
InChI=1S/C9H12/c1-3-4-7-8-5-6(2)9(7)8/h6-9H,5H2,1-2H3	InChI=1S/C9H12/c1-3-4-7-8-5-6(2)9(7)8/h6-9H,5H2,1-2H3/t6-,7+,8-,9+/m1/s1
