13
gdb 28186	5.44367	1.36045	1.08988	4.8666	66.12	-0.1913	0.0265	0.2178	1010.073	0.092742	-448.955185	-448.948352	-448.947408	-448.986321	26.156	
N	 0.0819322445	 1.3123353073	 0.1476159484	-0.586753
C	-0.0496551751	-0.0492935297	 0.0415139313	 0.417068
N	-1.1328812257	-0.757492918	 0.0134143828	-0.401599
C	-0.6409935461	-2.0673546087	 0.0258849901	 0.260273
C	 0.7136891279	-2.0279970051	 0.0535163306	 0.371247
N	 1.179605571	-3.3048949963	-0.0270767964	-0.410262
C	 0.016076314	-4.0734685687	-0.0653497799	-0.016704
N	-1.0921189781	-3.3591983092	-0.0445018577	-0.334608
O	 1.1660701078	-0.7467382575	 0.0554863811	-0.247934
H	 0.8839803274	 1.6965434956	-0.3320359725	 0.264607
H	-0.7786659697	 1.7946414355	-0.0688170645	 0.274884
H	 2.124592346	-3.6448121638	 0.0156533879	 0.277023
H	 0.0717773062	-5.1505175413	-0.0950123411	 0.132758
110.5048	231.9347	287.9334	337.0926	349.1135	407.4495	551.9446	594.1885	631.4633	645.938	720.9974	739.2917	775.6034	776.982	847.5396	876.4894	973.1952	1050.8453	1126.2021	1167.0763	1261.2904	1351.5224	1359.8058	1410.3921	1475.9984	1568.4453	1598.9924	1607.0059	1693.8541	3262.8411	3564.8805	3673.0231	3679.0766
NC1=NC2=C(NC=N2)O1	Nc1nc2c([nH]cn2)o1	
InChI=1S/C4H4N4O/c5-4-8-2-3(9-4)7-1-6-2/h1H,(H2,5,8)(H,6,7)	InChI=1S/C4H4N4O/c5-4-8-2-3(9-4)7-1-6-2/h1H,(H2,5,8)(H,6,7)
