19
gdb 9926	2.86055	1.50174	1.38985	4.508	76.85	-0.2716	0.0402	0.3118	1031.8054	0.164141	-327.943066	-327.933745	-327.932801	-327.976543	33.68	
C	-0.2272119713	 1.0053789659	-1.8006559702	-0.419065
C	-0.0149242913	-0.201728746	-0.9130190235	-0.047478
C	 1.3266530843	-0.6275139946	-0.3758324996	-0.047464
C	 2.6223577225	 0.1008940314	-0.6598613972	-0.419082
C	 0.2718555911	-0.0686004617	 0.5887315383	 0.126743
C	 0.4317070271	 1.2867850747	 1.263611163	-0.459232
C	-0.3756504437	-1.0452816161	 1.4308780356	 0.241977
N	-0.8948732207	-1.8254724237	 2.1105934414	-0.354325
H	 0.455857536	 1.8280060785	-1.5799281636	 0.120648
H	-0.0778180485	 0.7293506039	-2.8500159119	 0.128809
H	-1.2491080138	 1.3857039542	-1.7012162343	 0.130707
H	-0.6816802249	-1.0252179104	-1.1533013171	 0.108743
H	 1.4553958692	-1.7034871961	-0.2974979202	 0.108746
H	 2.4959703677	 1.1803518576	-0.7638741218	 0.12066
H	 3.3493348023	-0.0733982387	 0.1400955995	 0.130714
H	 3.0624408121	-0.2678132611	-1.5926303729	 0.128824
H	 0.9231695987	 2.0098915289	 0.6124413123	 0.123267
H	-0.5445999251	 1.6938122324	 1.542849982	 0.138392
H	 1.0294655483	 1.193378031	 2.1750796102	 0.138417
122.1225	136.1965	161.4409	163.6291	169.5913	229.2533	242.9567	302.1212	400.9102	413.9912	527.6253	568.6871	570.2668	660.1266	777.8102	791.1641	939.8274	952.8528	1023.5831	1034.2703	1038.3692	1097.4167	1116.9039	1139.1753	1156.26	1190.7937	1259.7272	1307.8178	1378.3208	1412.7714	1421.4253	1430.15	1447.197	1479.5673	1492.2664	1493.6984	1502.1395	1503.5904	1520.979	2342.3709	3039.0972	3041.4153	3050.8208	3096.5212	3097.9012	3110.6824	3119.7856	3126.5607	3143.797	3147.9518	3155.6546
CC1C(C)C1(C)C#N	C[C@H]1[C@@H](C)[C@]1(C)C#N	
InChI=1S/C7H11N/c1-5-6(2)7(5,3)4-8/h5-6H,1-3H3	InChI=1S/C7H11N/c1-5-6(2)7(5,3)4-8/h5-6H,1-3H3/t5-,6+,7+
