21
gdb 103504	2.98231	1.31234	1.18487	1.4843	83.1	-0.2246	0.0242	0.2488	1148.7985	0.182564	-387.082591	-387.073734	-387.07279	-387.115569	34.752	
C	-0.1178291494	 1.6096368954	 0.0149289024	-0.42484
C	 0.0007177192	 0.0753636968	-0.0054253496	 0.242069
C	-1.4068285997	-0.5481216998	-0.0320370342	-0.099054
O	-2.0748669957	-0.1162990129	-1.2085705224	-0.429469
C	 0.8183653048	-0.4375598561	-1.1846723647	-0.103507
C	 1.7907557025	-1.2727620132	-0.8132200464	-0.096001
C	 1.8638951911	-1.4120104765	 0.6705747095	-0.078742
C	 2.2110400599	-0.1329454702	 1.4079824641	-0.302097
C	 0.7659604738	-0.5025286426	 1.1971656861	-0.076994
H	 0.8675731812	 2.082543571	 0.0131907903	 0.110226
H	-0.6736971239	 1.9621215156	-0.8573274431	 0.131192
H	-0.6519933869	 1.9427454385	 0.9118725359	 0.105701
H	-1.313129293	-1.64418301	-0.0069262514	 0.088288
H	-1.9561924659	-0.2350470834	 0.8726284277	 0.077814
H	-2.932965641	-0.5476934992	-1.2437825872	 0.287588
H	 0.5986101503	-0.1303797815	-2.2000376906	 0.099013
H	 2.4828857897	-1.7694265266	-1.484576706	 0.091213
H	 2.1057448793	-2.3663415798	 1.1255306443	 0.082777
H	 2.5902647909	-0.223884623	 2.4209715561	 0.106298
H	 2.6477129685	 0.6770171068	 0.833321281	 0.112664
H	 0.1908341543	-0.7790261195	 2.0750881982	 0.07586
110.5901	162.2652	178.1279	215.1776	225.9522	279.3723	343.0074	369.8345	395.6464	452.6234	581.3494	647.5035	718.9438	778.656	782.2637	803.6268	852.6814	902.4482	936.4749	944.5963	969.8982	995.0318	999.5155	1037.7489	1070.7424	1072.2667	1080.2929	1100.0869	1120.5351	1165.5798	1187.6065	1196.6959	1207.4317	1280.4874	1285.5096	1312.0623	1365.2554	1385.6113	1403.9345	1451.6413	1478.1254	1488.8639	1501.4355	1517.5216	1665.9685	2950.7862	3003.2116	3036.4143	3104.6629	3123.8132	3126.7203	3153.6058	3166.655	3185.1182	3211.9655	3215.062	3837.4028
CC1(CO)C=CC2CC12	C[C@@]1(CO)C=C[C@H]2C[C@@H]12	
InChI=1S/C8H12O/c1-8(5-9)3-2-6-4-7(6)8/h2-3,6-7,9H,4-5H2,1H3	InChI=1S/C8H12O/c1-8(5-9)3-2-6-4-7(6)8/h2-3,6-7,9H,4-5H2,1H3/t6-,7+,8-/m0/s1
