21
gdb 103131	1.8258	1.37106	1.12723	3.1387	81.41	-0.2376	-0.016	0.2216	1260.1911	0.178902	-424.219381	-424.208873	-424.207929	-424.2546	37.842	
C	 0.9866895651	-1.1641859186	-0.5067833224	-0.259265
O	 0.0369923307	-2.2077003141	-0.37032271	-0.275778
C	-1.283709809	-1.798393201	-0.1752088376	 0.401732
C	-1.9062836511	-1.0296008257	-1.3215446645	-0.459858
C	-2.1062475429	-2.7528976735	 0.6177178487	-0.091082
C	-1.569755001	-4.0850371725	 1.0975987798	-0.415961
C	-1.6965962678	-1.4106585222	 1.261602585	-0.194324
C	-0.7029147077	-1.3592905235	 2.3532062659	 0.155099
O	-0.7581703502	-0.5744471672	 3.2730785566	-0.284482
H	 1.9691377162	-1.6402348633	-0.5360500484	 0.133684
H	 0.8445910129	-0.5935079378	-1.4333507179	 0.118167
H	 0.9500242095	-0.4692187101	 0.3435414531	 0.122892
H	-1.8083493492	-1.6003045744	-2.2512115947	 0.130494
H	-2.9689422946	-0.856353649	-1.1339173868	 0.126039
H	-1.4335518584	-0.0532238457	-1.4656293644	 0.127299
H	-3.1585915108	-2.7752146686	 0.3465835857	 0.097664
H	-0.48429638	-4.0738827305	 1.1997291668	 0.140594
H	-2.011124203	-4.3641489479	 2.059505886	 0.12463
H	-1.822394054	-4.8670492957	 0.3740631306	 0.123587
H	-2.4734432219	-0.6592868413	 1.3615961785	 0.09892
H	 0.1241094672	-2.0959984475	 2.2844005898	 0.07995
82.7699	121.3897	136.4113	178.2822	182.7776	210.8784	217.7957	239.1276	261.0252	309.6714	383.1329	451.4673	483.0544	501.1904	614.7714	662.2967	775.5503	894.9557	920.9272	964.0507	1017.6866	1035.1337	1059.0772	1098.9896	1113.3329	1114.4629	1134.143	1177.1829	1181.3864	1210.1632	1245.0351	1298.4355	1333.9214	1409.9792	1413.2573	1427.5417	1452.4667	1476.0661	1481.2204	1488.7378	1494.9017	1504.437	1508.6601	1511.4946	1796.5688	2912.6361	3001.9962	3037.4597	3043.2457	3059.9617	3099.8242	3104.4883	3118.8375	3124.4364	3133.0245	3150.1437	3166.941
COC1(C)C(C)C1C=O	CO[C@@]1(C)[C@@H](C)[C@H]1C=O	
InChI=1S/C7H12O2/c1-5-6(4-8)7(5,2)9-3/h4-6H,1-3H3	InChI=1S/C7H12O2/c1-5-6(4-8)7(5,2)9-3/h4-6H,1-3H3/t5-,6+,7-/m0/s1
