19
gdb 39552	2.65647	2.09626	1.65432	0.284	83.38	-0.2151	0.0176	0.2327	899.3718	0.163393	-348.764675	-348.758262	-348.757318	-348.794969	27.773	
C	-0.0232694284	 1.5657966227	 0.0909569104	-0.263973
C	 1.3569625026	 2.1581869756	-0.0846126826	-0.062178
C	 2.3210197957	 1.5474430105	-0.7773441536	-0.053514
C	 2.0914852926	 0.2674309745	-1.4856760971	-0.069373
C	 2.0409980847	-1.123576277	-0.8066173127	-0.099093
C	 1.9391916689	-1.1820021648	 0.6748979216	-0.07651
C	 0.8376351732	-0.5693121479	 1.1111233063	-0.071224
C	 0.0158576253	 0.0238630985	-0.0241815958	-0.078632
C	 0.7785719651	-0.4342767328	-1.2831760516	-0.092302
H	-0.427287865	 1.8488106268	 1.070326035	 0.099471
H	-0.7180742719	 1.9882110628	-0.650270551	 0.104784
H	 1.5500199136	 3.1232989919	 0.3765847975	 0.083538
H	 3.3038127941	 2.0036174536	-0.8665344578	 0.07986
H	 2.503958644	 0.2231034911	-2.4909395553	 0.087419
H	 2.4889891298	-1.9425925738	-1.3587139103	 0.082567
H	 2.6967699241	-1.639099218	 1.3011588272	 0.090836
H	 0.5698140712	-0.4182718215	 2.1515733452	 0.087965
H	-1.0111807207	-0.3619486464	-0.0232873019	 0.070836
H	 0.2201610911	-0.791568926	-2.1402135535	 0.079522
195.8652	232.8158	340.5582	420.8561	495.4414	533.6585	596.7984	675.2108	720.1973	752.9246	774.329	789.7432	812.9538	851.3668	884.1884	923.4307	936.0035	954.4456	962.6865	989.9936	1006.6027	1023.1235	1035.1383	1056.9685	1062.0641	1104.4928	1135.3991	1168.8321	1189.6517	1200.6831	1269.2778	1300.1675	1309.7456	1339.8766	1362.5508	1387.1872	1408.125	1425.4272	1479.929	1670.5917	1706.0531	2995.8232	3022.064	3046.6609	3129.0279	3146.23	3164.3449	3169.0446	3176.3123	3179.7928	3206.4749
C1C=CC2C3C=CC1C23	C1C=C[C@H]2[C@H]3C=C[C@@H]1[C@@H]23	
InChI=1S/C9H10/c1-2-6-4-5-8-7(3-1)9(6)8/h1,3-9H,2H2	InChI=1S/C9H10/c1-2-6-4-5-8-7(3-1)9(6)8/h1,3-9H,2H2/t6-,7+,8-,9+/m1/s1
