14
gdb 132642	3.15466	1.38514	0.96314	1.5004	69.6	-0.2033	-0.0116	0.1917	1107.9444	0.102218	-478.045543	-478.03817	-478.037226	-478.0771	29.142	
N	-0.0795195126	 1.3515267531	 0.1309946095	-0.569535
C	-0.0226041988	-0.0201242013	 0.0361635069	 0.271984
N	-1.1699140502	-0.7021565387	-0.0230958058	-0.432692
C	-1.1218841816	-2.0318410449	-0.057893129	 0.431048
O	-2.3060216672	-2.6824420077	-0.1146535143	-0.423305
C	 0.0563279137	-2.7758631319	-0.0453269674	-0.235131
C	 1.2525420801	-2.0635406834	 0.0039885584	-0.183226
C	 1.2094871756	-0.6870961635	 0.0460777262	 0.195876
F	 2.3355521492	 0.0534805103	 0.0856845712	-0.097779
H	 0.7531135309	 1.8491620834	-0.1415014787	 0.261029
H	-0.9492084407	 1.7598583499	-0.1744691169	 0.257697
H	-2.9870678156	-1.9967124806	-0.1092572072	 0.295198
H	 0.0268431546	-3.856168887	-0.079030766	 0.109777
H	 2.2131943825	-2.5661057776	 0.0096554829	 0.119061
142.0323	237.9463	286.0407	347.5815	368.7959	418.9564	453.4857	477.0191	502.3635	522.4928	532.5923	602.6481	696.5206	754.8092	778.2551	789.1723	820.9175	948.4181	986.0456	1077.9744	1150.076	1215.7	1241.3941	1287.7727	1355.2104	1409.4792	1497.712	1524.2542	1622.3972	1647.3074	1671.7669	3200.3245	3228.1957	3587.0354	3705.6905	3780.063
NC1=NC(O)=CC=C1F	Nc1nc(O)ccc1F	
InChI=1S/C5H5FN2O/c6-3-1-2-4(9)8-5(3)7/h1-2H,(H3,7,8,9)	InChI=1S/C5H5FN2O/c6-3-1-2-4(9)8-5(3)7/h1-2H,(H3,7,8,9)
