13
gdb 132104	3.05242	1.46284	0.99502	2.8123	66.58	-0.2471	-0.0848	0.1623	1085.2886	0.087677	-497.897428	-497.889803	-497.888859	-497.929975	27.587	
C	 0.013000263	 1.5579674703	 0.0446163581	-0.478023
C	-0.0067224653	 0.0587412019	 0.0097625659	 0.067947
C	-1.1243018838	-0.6757174653	-0.2004630922	 0.355541
F	-2.3180993045	-0.1641320024	-0.3978661132	-0.025604
O	-1.157414329	-1.9984470814	-0.2339554017	-0.216087
C	 0.0279002814	-2.758396557	-0.0432332066	 0.397321
O	-0.0483136753	-3.9493786242	-0.0814777215	-0.309034
C	 1.1980041894	-1.9130717677	 0.1784743407	-0.133441
N	 1.1742206043	-0.6220556059	 0.2013807488	-0.238183
H	 0.6849336819	 1.9500930455	-0.7254063318	 0.146376
H	-0.9839988543	 1.9697447528	-0.1206328162	 0.138184
H	 0.3819515255	 1.9136960187	 1.0118424917	 0.146375
H	 2.1380479967	-2.4348830153	 0.3314232479	 0.148629
100.1847	104.1727	202.0046	280.3614	300.2824	355.7343	460.7854	466.8278	524.2347	580.0139	688.572	708.7391	759.1552	788.307	877.7451	912.2378	996.0048	1066.9224	1079.1608	1213.8858	1273.4318	1360.693	1402.3474	1423.701	1480.44	1490.7012	1558.9542	1695.2384	1867.2937	3044.1348	3100.783	3142.4538	3180.1664
CC1=C(F)OC(=O)C=N1	Cc1c(F)oc(=O)cn1	
InChI=1S/C5H4FNO2/c1-3-5(6)9-4(8)2-7-3/h2H,1H3	InChI=1S/C5H4FNO2/c1-3-5(6)9-4(8)2-7-3/h2H,1H3
