19
gdb 98904	3.90759	0.95065	0.88298	3.3213	71.96	-0.2478	-0.0271	0.2206	1363.4311	0.159109	-460.178682	-460.169695	-460.168751	-460.213808	32.293	
O	-0.0527275775	 1.4160744338	 0.0347379303	-0.418945
C	 0.0001758616	 0.0383506874	-0.1746100205	-0.138554
C	-1.3720199648	-0.6005499138	-0.0230115275	 0.343686
O	-2.3422061404	 0.1038624002	 0.1545246167	-0.325333
C	-1.4613895614	-2.1228847834	-0.0735575229	 0.02588
C	-1.4008522997	-2.7107762556	 1.3746709316	-0.263588
C	-2.6576478484	-3.6015545286	 1.4361311076	-0.210324
C	-3.5684120127	-2.9428924483	 0.3986277824	-0.078618
O	-2.6843816627	-2.5446199853	-0.6470759497	-0.245046
H	-0.998087548	 1.6173060858	 0.1302586419	 0.294702
H	 0.3688651243	-0.2099915014	-1.1861549835	 0.119077
H	 0.6978724054	-0.4453077761	 0.5294528305	 0.116374
H	-0.6478260669	-2.5109898994	-0.6986569328	 0.091287
H	-0.4754689971	-3.2619557347	 1.5502482152	 0.117368
H	-1.46042874	-1.9113523204	 2.1189276213	 0.123009
H	-2.4186012127	-4.6237353925	 1.1280878008	 0.113528
H	-3.099225597	-3.6376871719	 2.434731261	 0.110229
H	-4.3091828375	-3.6188629539	-0.0358608133	 0.111402
H	-4.0857003443	-2.0686241921	 0.816341841	 0.113867
36.7472	58.1847	107.7518	190.0065	228.7625	257.3052	339.5103	366.4277	443.3358	560.2776	595.4322	704.8073	706.6969	834.6768	866.0463	906.9401	923.9113	940.693	952.1669	1000.0804	1032.3008	1059.3335	1109.2107	1141.2162	1155.9259	1204.8151	1213.7612	1239.0961	1253.7682	1296.2266	1314.3582	1326.4676	1331.907	1374.7121	1397.1665	1451.8526	1484.8202	1488.6693	1498.4995	1523.0673	1801.5406	2954.6925	2982.6411	3018.4313	3032.1989	3059.8295	3063.0251	3099.7153	3110.6993	3123.9915	3676.9083
OCC(=O)C1CCCO1	OCC(=O)[C@H]1CCCO1	
InChI=1S/C6H10O3/c7-4-5(8)6-2-1-3-9-6/h6-7H,1-4H2	InChI=1S/C6H10O3/c7-4-5(8)6-2-1-3-9-6/h6-7H,1-4H2/t6-/m1/s1
