19
gdb 36407	3.96636	1.07775	1.00563	1.4721	80.35	-0.2414	0.052	0.2934	1232.9511	0.159932	-385.835085	-385.827268	-385.826324	-385.867698	31.131	
C	-0.2802295379	-0.4650302311	 1.1908050161	-0.455237
C	-0.0203717607	 0.1654042649	 0.2007462644	 0.298811
C	 0.3306777276	 0.9481181696	-0.9775846672	-0.38435
C	 1.6077213478	 1.774436618	-0.7645429324	 0.140606
O	 1.9756904373	 2.4475852055	-1.9915989108	-0.296215
C	 2.0868348181	 3.8174175056	-1.5583255159	 0.114591
C	 2.8505325437	 3.7066434927	-0.2163309946	-0.235392
C	 1.524701927	 2.9811505753	 0.1859432964	-0.070046
C	 0.8052727065	 4.033043965	-0.7208488719	-0.238616
H	-0.5226643519	-1.0292048141	 2.0569126713	 0.195611
H	 0.4965823228	 0.285257467	-1.8354622542	 0.141304
H	-0.4994959349	 1.6069739655	-1.2548510165	 0.13109
H	 2.41456983	 1.0922864812	-0.4679322733	 0.085527
H	 2.3915903451	 4.4416767282	-2.3965480654	 0.080346
H	 3.7782268465	 3.129029624	-0.2157262639	 0.100862
H	 2.9828517104	 4.6632459428	 0.2913781889	 0.101752
H	 1.2397446619	 2.7865207982	 1.2179783287	 0.086346
H	 0.7562139161	 5.0165499324	-0.2510749076	 0.103124
H	-0.1503133152	 3.7803446594	-1.184373342	 0.099885
63.4759	115.965	220.5675	287.3259	353.2747	423.3801	478.4704	522.8607	553.8848	625.3013	648.4266	666.491	802.4181	832.7953	842.8038	867.2043	898.1213	929.3137	961.6035	970.8481	988.0505	1016.9629	1038.1332	1057.9675	1081.6723	1102.7128	1110.808	1143.3208	1200.5684	1215.9241	1246.9244	1252.8372	1284.0594	1287.5967	1311.757	1355.2534	1403.3649	1467.6637	1479.8207	1514.7595	2237.9183	3020.2602	3036.6617	3067.7018	3072.7567	3078.226	3134.5333	3138.416	3139.4921	3143.8786	3507.3372
C#CCC1OC2CC1C2	C#CC[C@H]1O[C@@H]2C[C@H]1C2	
InChI=1S/C8H10O/c1-2-3-8-6-4-7(5-6)9-8/h1,6-8H,3-5H2	InChI=1S/C8H10O/c1-2-3-8-6-4-7(5-6)9-8/h1,6-8H,3-5H2/t6-,7+,8-/m1/s1
