18
gdb 56929	2.13466	1.30047	0.96846	4.1598	82.28	-0.2562	0.0324	0.2887	1270.8328	0.145879	-364.785724	-364.776241	-364.775297	-364.82037	34.792	
C	-0.3065113718	 1.3947381561	 0.0809471551	-0.393127
C	 0.1353341677	-0.065992138	-0.1389653833	-0.167245
C	 0.9856409012	-0.1680944016	-1.3331554679	 0.275932
N	 1.6638142505	-0.22467115	-2.2671644389	-0.324213
C	 0.8619023226	-0.6317693951	 1.0738366124	 0.014262
C	 0.0821500545	-1.0995556987	 2.2672090575	-0.31439
C	 0.8081050046	-2.1191992684	 1.3994968088	-0.194399
C	 0.0563622035	-3.0245809504	 0.5803714162	 0.322635
C	-0.5720093648	-3.7846070486	-0.1087363878	-0.454885
H	 0.5573878147	 2.0394823488	 0.2653103301	 0.136443
H	-0.8372121079	 1.77774224	-0.7940351672	 0.138212
H	-0.9708392995	 1.4507031702	 0.9471526106	 0.128328
H	-0.7503958305	-0.6840666228	-0.3276133948	 0.136368
H	 1.8175556128	-0.1563251447	 1.2741693063	 0.111297
H	 0.477630898	-0.9050671807	 3.2573890266	 0.127102
H	-1.0003873093	-1.0934709531	 2.2018383055	 0.13119
H	 1.7211137739	-2.5353665993	 1.8145344751	 0.123402
H	-1.1173942102	-4.4602869139	-0.7199068142	 0.203087
47.8274	100.8045	142.064	204.3996	219.3059	234.638	257.0619	345.7475	384.9797	513.098	534.4751	555.7044	593.9864	639.5472	662.1316	772.7046	788.3183	838.3806	879.9598	949.4996	986.322	1009.3962	1072.7289	1085.5339	1107.9948	1127.6902	1135.6677	1183.9508	1231.903	1289.5634	1326.0529	1375.115	1407.0034	1421.9275	1486.0359	1492.3598	1499.6493	2236.9517	2358.0683	3047.5093	3050.4804	3125.4628	3130.8184	3139.1738	3149.6085	3158.55	3229.2157	3504.1259
CC(C#N)C1CC1C#C	C[C@@H](C#N)[C@H]1C[C@H]1C#C	
InChI=1S/C8H9N/c1-3-7-4-8(7)6(2)5-9/h1,6-8H,4H2,2H3	InChI=1S/C8H9N/c1-3-7-4-8(7)6(2)5-9/h1,6-8H,4H2,2H3/t6-,7+,8+/m0/s1
