18
gdb 82721	2.6644	1.86809	1.37012	2.5018	74.57	-0.2427	-0.0216	0.2211	971.6571	0.149191	-401.94014	-401.932817	-401.931873	-401.971751	29.005	
C	-0.1621694798	 1.5919696419	 0.0367948588	-0.413559
C	 0.0519534135	 0.0834726677	-0.0229576041	-0.088136
C	 0.8574049839	-0.4934448501	-1.1857056609	-0.02261
C	 2.3519945725	-0.0682303919	-1.1771326521	-0.267256
C	 2.5999528928	-1.3754720953	-0.4458381933	-0.019381
C	 1.6117741758	-1.6416941358	 0.6508004	-0.156772
N	 1.2467116393	-1.9254769135	-0.7642164921	-0.150091
C	 0.8049738469	-0.4976414878	 1.1813000345	 0.406741
O	 0.7266737024	-0.1315751064	 2.3272776216	-0.334532
H	 0.7820091829	 2.1367649624	-0.0604112323	 0.123009
H	-0.8328002952	 1.9321137922	-0.7574260646	 0.117402
H	-0.6001239826	 1.859501013	 1.0021747823	 0.14437
H	-0.9243389995	-0.4263016781	-0.0212109829	 0.115315
H	 0.3486776782	-0.4770588593	-2.1480976164	 0.0902
H	 2.7833748289	-0.0933300462	-2.1797681864	 0.120809
H	 2.6332022446	 0.8696567764	-0.6903923807	 0.113127
H	 3.4952281699	-1.9866528032	-0.5109270602	 0.105467
H	 1.7915178758	-2.501384716	 1.2860802586	 0.115896
115.2066	183.1589	229.3497	234.0679	344.018	443.2467	495.7173	559.0214	627.0143	675.2492	756.9038	776.3769	808.9942	840.2586	851.3608	903.3157	944.8739	989.1134	1009.1068	1028.2679	1057.8862	1081.8533	1109.8403	1130.8843	1138.8392	1162.6387	1181.4603	1224.9236	1261.8263	1280.5911	1313.2158	1336.0402	1360.7535	1370.202	1410.1699	1489.8662	1498.7307	1500.5169	1838.1529	2994.1438	3044.2388	3061.2628	3111.8968	3115.3175	3122.6063	3128.1765	3156.6101	3189.9206
CC1C2CC3C(N23)C1=O	C[C@H]1[C@H]2C[C@H]3[C@H](N23)C1=O	
InChI=1S/C7H9NO/c1-3-4-2-5-6(7(3)9)8(4)5/h3-6H,2H2,1H3	InChI=1S/C7H9NO/c1-3-4-2-5-6(7(3)9)8(4)5/h3-6H,2H2,1H3/t3-,4+,5-,6-,8?/m0/s1
