23
gdb 120478	2.93221	0.85796	0.77045	1.0244	82.33	-0.2405	0.0823	0.3228	1599.9797	0.203942	-425.413032	-425.402387	-425.401443	-425.4497	38.329	
C	 0.3310472514	 1.4879005058	-0.3178266722	-0.403258
C	 0.1382846793	 0.0233921836	 0.0211020419	 0.163407
O	 0.9744131331	-0.8429982622	-0.7817405035	-0.318121
C	 1.3871397281	-1.6043205849	 0.3790566417	 0.142666
C	 2.8856148128	-1.8417634003	 0.4170698226	-0.194168
C	 3.3556629064	-2.6880010218	-0.7606443597	-0.075971
O	 4.7601690244	-2.8629575622	-0.6357415488	-0.424684
C	 0.7117586041	-0.5818551159	 1.3362053478	-0.089346
C	 1.605247438	 0.2961767408	 2.2045213993	-0.407272
H	 1.3713394882	 1.7982107093	-0.1915376873	 0.120178
H	 0.050437127	 1.6630472601	-1.3614104007	 0.126332
H	-0.3042423552	 2.1186945689	 0.3134353253	 0.114106
H	-0.9206665548	-0.2437459612	-0.1160136642	 0.067029
H	 0.8666759846	-2.5755586972	 0.3939589979	 0.063897
H	 3.4258975978	-0.8902856732	 0.3985137451	 0.106273
H	 3.1508104492	-2.3529619346	 1.3511069714	 0.102963
H	 2.8316033962	-3.6584164357	-0.753905047	 0.080198
H	 3.0933074949	-2.1784374911	-1.6988395586	 0.108542
H	 5.0727473965	-3.3310195606	-1.4152370997	 0.284542
H	-0.0593444773	-1.036576231	 1.9641120433	 0.071695
H	 2.3997061814	 0.7839179881	 1.6340126892	 0.126251
H	 1.0172131489	 1.0809991389	 2.6918693447	 0.11526
H	 2.0805906049	-0.2957155536	 2.9935751214	 0.11948
29.7039	86.119	102.9907	122.5312	201.8557	214.2064	259.7285	267.1969	273.5403	346.691	372.0019	431.8366	495.235	531.7405	746.0263	770.3329	806.4857	854.5103	894.6276	938.3208	997.6995	1006.8322	1044.3252	1048.656	1070.8448	1077.7062	1116.2077	1159.3636	1167.4197	1183.6391	1223.2683	1237.7075	1264.7569	1283.7775	1308.1975	1321.3279	1345.7532	1377.6311	1380.9735	1401.6717	1412.6988	1432.9337	1459.7207	1477.7515	1478.5644	1491.3195	1500.1141	1510.0574	1529.64	2958.5107	2967.1053	2978.922	3015.7167	3034.8562	3037.5291	3040.3871	3063.8779	3092.7816	3097.4696	3104.9612	3115.5794	3125.1581	3831.1218
CC1OC(CCO)C1C	C[C@H]1O[C@@H](CCO)[C@H]1C	
InChI=1S/C7H14O2/c1-5-6(2)9-7(5)3-4-8/h5-8H,3-4H2,1-2H3	InChI=1S/C7H14O2/c1-5-6(2)9-7(5)3-4-8/h5-8H,3-4H2,1-2H3/t5-,6+,7-/m0/s1
