20
gdb 88765	3.49148	1.13582	1.11846	2.4047	78.22	-0.225	0.0676	0.2926	1195.1399	0.170557	-403.059809	-403.051496	-403.050552	-403.092967	32.082	
C	 3.1039697642	-1.2010700381	 1.1719173685	-0.317531
N	 1.8266085074	-1.1702361118	 0.4722144647	-0.09134
C	 0.6866212273	-1.7960350532	 1.1362749862	-0.25278
C	 0.7594684445	-0.3149191126	 0.9943192944	-0.023793
C	 0.9582240768	 0.6235830565	 2.1669808251	 0.10985
O	-0.2160404602	 1.4694469404	 2.3698689867	-0.303589
C	-0.2069603705	 1.1664804022	 3.7669135722	 0.101687
C	-0.4769902256	-0.2828445512	 4.0000419539	-0.294076
C	 0.9225689165	 0.1741334646	 3.6317838293	-0.151302
H	 3.0274649957	-1.1518691895	 2.2700419376	 0.103508
H	 3.6217216368	-2.1301776231	 0.9138440423	 0.124993
H	 3.7254953001	-0.3659602791	 0.8325984422	 0.124106
H	 0.0290916172	-2.3846763102	 0.5015438686	 0.114398
H	 0.8422675244	-2.2021559543	 2.134661566	 0.113529
H	 0.1671143228	 0.1605544358	 0.2133869089	 0.10593
H	 1.8238273615	 1.2748939094	 1.9834541337	 0.090667
H	-0.3983598346	 1.9743923237	 4.4629669914	 0.106056
H	-0.5883127885	-0.5772720022	 5.0391288724	 0.11539
H	-1.0885640565	-0.8331978679	 3.2915943593	 0.123569
H	 1.7875355408	 0.0036760407	 4.2578416465	 0.100728
59.1474	146.6327	164.0411	219.9857	264.3516	308.2951	395.0483	448.0184	475.6137	609.1238	725.1636	753.8869	772.7749	802.564	880.3421	933.4502	934.3346	956.6756	979.0148	999.9903	1028.3332	1037.4143	1050.7135	1051.7137	1084.1704	1093.1777	1116.8017	1136.3415	1157.0592	1175.2716	1198.0733	1207.5749	1260.1638	1295.3082	1324.1256	1358.5711	1374.6793	1404.0763	1450.3447	1471.4223	1493.4138	1500.231	1511.0245	2975.7482	3007.8241	3066.9137	3091.315	3100.6192	3113.8743	3121.4495	3177.0237	3183.5996	3203.8909	3215.0905
CN1CC1C1OC2CC12	CN1C[C@H]1[C@H]1O[C@H]2C[C@@H]12	
InChI=1S/C7H11NO/c1-8-3-5(8)7-4-2-6(4)9-7/h4-7H,2-3H2,1H3	InChI=1S/C7H11NO/c1-8-3-5(8)7-4-2-6(4)9-7/h4-7H,2-3H2,1H3/t4-,5+,6+,7+,8?/m1/s1
