22
gdb 114519	2.92495	1.20104	1.0009	1.9872	83.45	-0.2112	0.0788	0.29	1307.5249	0.193521	-404.303007	-404.293788	-404.292844	-404.337102	34.571	
C	 0.3185838809	 1.4388908367	 0.1939986451	-0.379297
C	-0.0243545655	-0.0394407621	-0.0168357719	-0.19511
C	 0.5286287165	-0.5798178673	-1.3188031112	 0.158327
O	 1.9840585959	-0.4679859892	-1.4250333549	-0.323678
C	 2.1128321464	-1.8368746676	-1.8467435344	 0.111053
C	 2.4372057891	-2.829139551	-0.7145408049	-0.192393
N	 1.0013673433	-2.8601505626	-0.3402161406	-0.062631
C	 0.3893754274	-4.1476051843	-0.105757954	-0.326658
C	 0.6189861282	-2.1051435986	-1.554397525	-0.087069
H	 1.4024814138	 1.5834878135	 0.1838307195	 0.135908
H	-0.1102911797	 2.0671351958	-0.5949146887	 0.108542
H	-0.0655865355	 1.7985513449	 1.1532819266	 0.108399
H	 0.3700283094	-0.6506043114	 0.8002638303	 0.113379
H	-1.1141695838	-0.1787855448	-0.0262977046	 0.087903
H	 0.0685839095	-0.0691144856	-2.1791157837	 0.066044
H	 2.623890051	-1.9410986994	-2.8058535929	 0.081056
H	 2.799701625	-3.7916871726	-1.1098486173	 0.086434
H	 3.1130994949	-2.4786731423	 0.0722907396	 0.109901
H	 0.8175238781	-4.5997941545	 0.7952764398	 0.123378
H	-0.6854918414	-4.024449257	 0.0633940372	 0.121611
H	 0.5255397053	-4.8637627625	-0.9395039378	 0.087793
H	-0.0942114188	-2.5901296281	-2.2253442663	 0.067109
84.8125	97.979	133.082	200.1485	210.9204	246.8206	291.9711	332.8315	391.9011	451.0021	520.8727	685.2219	732.4428	784.8833	821.7708	844.7699	899.1137	936.3489	959.7623	978.2062	995.8916	1021.8333	1053.9785	1072.0755	1111.7936	1139.6893	1155.2482	1175.6283	1188.2897	1200.0245	1219.0004	1249.2429	1276.4175	1294.9871	1300.5856	1318.5186	1345.5721	1359.5527	1403.5563	1411.3948	1452.8376	1482.0073	1484.0932	1497.3121	1498.6593	1502.3053	1509.1744	2915.2405	2974.6024	2980.3489	3020.8565	3034.1711	3054.2202	3070.8513	3075.3061	3084.3395	3090.8477	3097.8718	3103.8531	3118.7933
CCC1OC2CN(C)C12	CC[C@H]1O[C@H]2CN(C)[C@@H]12	
InChI=1S/C7H13NO/c1-3-5-7-6(9-5)4-8(7)2/h5-7H,3-4H2,1-2H3	InChI=1S/C7H13NO/c1-3-5-7-6(9-5)4-8(7)2/h5-7H,3-4H2,1-2H3/t5-,6+,7+/m1/s1
