17
gdb 67956	2.42601	1.75503	1.30912	2.4019	67.65	-0.2361	-0.0428	0.1932	1003.0348	0.134841	-458.967477	-458.959523	-458.958579	-459.000182	30.128	
C	-0.1944250548	 1.5570060166	 0.1850989528	-0.461172
C	 0.0728311546	 0.0770238479	 0.0246629548	 0.376983
C	-1.1388479023	-0.9048195944	 0.1306730712	-0.410618
C	-0.3366433202	-1.7438896825	 1.1415049312	 0.374842
O	-0.5241882533	-2.7848747345	 1.6965224411	-0.284916
C	 0.8472668461	-0.7198404899	 1.1359387295	-0.065629
O	 2.0496590312	-1.1432654002	 0.5401301026	-0.242188
C	 1.7742423065	-1.1902647688	-0.8466569394	-0.002699
O	 0.8823133439	-0.1343561041	-1.1304532978	-0.289442
H	 0.7476128047	 2.106452473	 0.2647634451	 0.133591
H	-0.7433850355	 1.9423470314	-0.6795940575	 0.135318
H	-0.7918491113	 1.7497015758	 1.0814495027	 0.118417
H	-2.0444220941	-0.4651705773	 0.5608900472	 0.136254
H	-1.4064500336	-1.4226357348	-0.7946096819	 0.14116
H	 1.0631059643	-0.2391896827	 2.0928564103	 0.111515
H	 2.7045001298	-1.0372658849	-1.3992209872	 0.129595
H	 1.3281067741	-2.1637907008	-1.1157420148	 0.09899
57.6439	170.2303	217.8708	249.3066	279.3042	329.7145	395.538	426.0709	551.1935	597.835	623.4044	724.0252	759.2665	814.4227	871.9237	907.8197	937.5457	966.5243	1013.3519	1067.3777	1076.8895	1124.0068	1144.6853	1154.9927	1183.9045	1193.664	1216.026	1237.2618	1303.0556	1325.858	1414.2165	1419.7508	1424.4169	1482.5802	1495.5708	1543.6058	1897.1342	2949.1397	3041.0571	3057.1257	3094.5932	3101.2703	3111.7705	3114.5715	3120.8177
CC12CC(=O)C1OCO2	C[C@]12CC(=O)[C@H]1OCO2	
InChI=1S/C6H8O3/c1-6-2-4(7)5(6)8-3-9-6/h5H,2-3H2,1H3	InChI=1S/C6H8O3/c1-6-2-4(7)5(6)8-3-9-6/h5H,2-3H2,1H3/t5-,6+/m1/s1
