17
gdb 28238	4.59128	1.24069	0.99751	1.6508	76.07	-0.1918	0.0351	0.2269	1165.0967	0.139454	-418.051588	-418.044071	-418.043127	-418.083585	28.947	
N	 0.0798063946	 1.3075529398	 0.0993653378	-0.58878
C	-0.0479539396	-0.0587985475	 0.0391085793	 0.408852
N	-1.145606606	-0.7578383877	 0.031983313	-0.418993
C	-0.6657285875	-2.065472942	 0.0776600414	 0.24947
C	 0.6730443176	-2.0734297249	 0.0972094191	 0.284779
C	 1.333150132	-3.4008667029	 0.043673178	-0.351888
C	 0.0652298287	-4.3141942534	 0.2536653726	-0.195638
C	-1.2301514322	-3.4490915742	 0.0272447734	-0.347151
O	 1.1192723763	-0.7686014311	 0.067623091	-0.236096
H	 0.9074643441	 1.6719055005	-0.3502808659	 0.262614
H	-0.7663665002	 1.7859507907	-0.1731664054	 0.269847
H	 1.8236723611	-3.5939198261	-0.9202343498	 0.109938
H	 2.0858398807	-3.5712690667	 0.8215427837	 0.111727
H	 0.0909226631	-5.1853705261	-0.404713423	 0.104158
H	 0.0696135526	-4.6888862909	 1.2803288747	 0.11473
H	-1.986478262	-3.6500945537	 0.7931363	 0.11215
H	-1.6995116032	-3.6626855437	-0.94157363	 0.11028
99.7742	150.2181	239.2974	273.5218	312.0204	328.2973	513.2067	524.7995	616.9231	656.6471	698.3336	719.8385	755.5185	790.6359	850.239	892.2643	919.4329	960.4127	985.3657	1063.6224	1096.2557	1124.2167	1154.6874	1204.0187	1219.7595	1261.5274	1278.2264	1303.0303	1355.2093	1385.817	1431.3165	1484.7042	1501.2932	1515.7154	1595.7591	1668.7081	1707.837	3007.8299	3023.407	3047.8097	3060.8276	3072.0653	3113.4635	3570.4833	3679.0183
NC1=NC2=C(CCC2)O1	Nc1nc2c(CCC2)o1	
InChI=1S/C6H8N2O/c7-6-8-4-2-1-3-5(4)9-6/h1-3H2,(H2,7,8)	InChI=1S/C6H8N2O/c7-6-8-4-2-1-3-5(4)9-6/h1-3H2,(H2,7,8)
