15
gdb 27462	2.35906	1.76822	1.02927	2.9557	81.24	-0.2291	-0.0792	0.1499	1091.4991	0.115378	-416.844987	-416.8377	-416.836756	-416.877376	27.977	
O	-0.0608751323	 1.3125205683	-0.2456475498	-0.387922
C	 0.0416971673	-0.0246224559	-0.0690590554	 0.388793
N	 1.2142860299	-0.5345947482	-0.1517241941	-0.414
C	 1.5935767877	-1.8685898183	 0.0239133004	 0.292935
N	 2.8032324658	-2.1800267149	 0.3187007772	-0.49976
C	 0.6741688143	-2.9971367869	-0.1991589111	-0.053386
C	-0.6703913245	-3.0224483038	-0.1337692983	-0.104624
C	-1.5641191438	-1.9205985511	 0.1378788778	-0.069952
C	-1.2680294843	-0.608061412	 0.1892411826	-0.139583
H	 0.8424287809	 1.625873337	-0.4029263886	 0.299929
H	 3.3448770097	-1.3202144844	 0.4343093243	 0.212555
H	 1.2015908015	-3.9291304621	-0.3776970324	 0.128202
H	-1.153585228	-3.9857974513	-0.2721408753	 0.108405
H	-2.6048980106	-2.192961156	 0.294577903	 0.116083
H	-2.0578624135	 0.1133427998	 0.3662249797	 0.122327
42.138	185.9303	266.6518	332.2988	395.734	434.4121	457.0447	514.9943	586.4331	634.1459	657.0211	733.3461	808.5325	824.6181	840.7513	877.6691	924.8319	974.1442	990.0616	1017.7521	1031.0773	1129.1396	1215.805	1243.4053	1269.4406	1345.5895	1397.5256	1437.3366	1484.0084	1625.3408	1656.9649	1694.5957	1707.1062	3154.1195	3168.231	3189.3638	3197.6791	3453.6235	3746.1581
OC1=NC(=N)C=CC=C1	OC1=N[C]([NH])C=CC=C1	
InChI=1S/C6H6N2O/c7-5-3-1-2-4-6(9)8-5/h1-4H,(H2,7,8,9)	InChI=1S/C6H6N2O/c7-5-3-1-2-4-6(9)8-5/h1-4H,(H2,7,8,9)
