16
gdb 55495	5.43521	0.55654	0.5283	3.3288	79.61	-0.2448	0.0256	0.2704	2017.5911	0.120815	-400.715678	-400.705162	-400.704218	-400.754812	35.744	
N	-0.2232709258	 1.3214908131	 0.4332319418	-0.526275
C	 0.0988756557	 0.0266764168	 0.1346665679	 0.424638
O	 1.20644896	-0.4313883155	 0.2981290197	-0.335581
C	-1.0680763224	-0.7635851236	-0.4941351427	-0.491717
C	-0.9021287083	-2.2048685814	-0.4173575765	 0.091134
C	-0.7787852817	-3.3982041552	-0.3533115019	 0.117593
C	-0.6035729654	-4.8489857816	-0.270383865	-0.491405
C	-1.7916089312	-5.5583070473	 0.2095526194	 0.317171
C	-2.7595038793	-6.1512046587	 0.6006658511	-0.447657
H	 0.4794715775	 1.8858042699	 0.8824709268	 0.263922
H	-1.1721976216	 1.6520051588	 0.4346769881	 0.258838
H	-2.0145679893	-0.464615297	-0.0253049293	 0.134539
H	-1.1389659291	-0.4433322391	-1.5431012855	 0.159155
H	-0.3211117411	-5.2433851743	-1.256297828	 0.160186
H	 0.244642346	-5.0739684604	 0.3908132641	 0.166758
H	-3.616767694	-6.6723292046	 0.9481137298	 0.198702
9.5005	18.016	71.7644	103.2057	190.9142	208.8819	276.6076	321.1946	355.3238	366.4072	429.2787	496.4752	543.7135	610.0995	619.662	645.6793	663.2866	810.4072	842.0134	933.3822	947.8246	951.3941	1089.2549	1169.6113	1220.728	1229.5296	1274.6198	1334.6485	1376.1938	1449.179	1453.0437	1618.8791	1820.3605	2246.7847	2389.078	3008.7797	3013.0104	3033.3613	3044.6592	3507.5808	3601.7062	3735.5874	9.5068	18.0193	71.765	103.206	190.9156	208.8824	276.6081	321.196	355.324	366.4075	429.2786	496.4754	543.7134	610.0994	619.663	645.6806	663.2866	810.407	842.0133	933.3822	947.8244	951.3941	1089.2547	1169.6112	1220.7269	1229.5292	1274.6194	1334.6483	1376.1935	1449.1777	1453.0433	1618.8788	1820.3607	2246.7841	2389.0778	3008.7797	3013.0104	3033.3613	3044.6593	3507.5816	3601.7064	3735.5874
NC(=O)CC#CCC#C	NC(=O)CC#CCC#C	
InChI=1S/C7H7NO/c1-2-3-4-5-6-7(8)9/h1H,3,6H2,(H2,8,9)	InChI=1S/C7H7NO/c1-2-3-4-5-6-7(8)9/h1H,3,6H2,(H2,8,9)
