16
gdb 23246	2.65052	1.38805	1.22233	2.803	68.89	-0.2361	0.0043	0.2404	1061.6174	0.123304	-474.934893	-474.926563	-474.925619	-474.96767	31.896	
O	-0.1075589035	 1.313343134	 0.0517331863	-0.38518
N	 0.0277557379	-0.0845307015	-0.0136484065	-0.271709
C	-1.0993354889	-0.659559565	 0.0553065346	 0.387088
C	-1.4194247432	-2.1076080332	-0.0427786703	-0.220977
C	-2.3152290846	-2.4874652949	 1.112879923	 0.095925
O	-2.2089980609	-1.8752378273	 2.3759940993	-0.428288
C	-2.9438958541	-1.7421232564	-0.0068312718	-0.138627
C	-2.5838977081	-0.240500527	 0.0768012336	 0.054639
O	-3.1130702352	 0.5210164483	 1.1172147428	-0.428886
H	 0.8048712721	 1.6081682192	-0.0383043311	 0.306169
H	-0.8906535719	-2.844246817	-0.6336258469	 0.109702
H	-2.5602546788	-3.5480836014	 1.1583045474	 0.107245
H	-1.3181611794	-2.0239803021	 2.7116556564	 0.298815
H	-3.7495252042	-2.1595115418	-0.597267494	 0.104182
H	-2.8203437793	 0.2803043539	-0.8567078844	 0.116177
H	-2.9081116477	 0.0409699721	 1.9309172817	 0.293726
82.5391	163.9804	205.5534	247.0679	289.2257	308.6293	378.2882	405.0888	482.0307	503.8862	562.7999	649.4782	663.6469	718.055	768.9827	837.8896	870.3408	933.8013	973.7873	980.9962	993.8921	1039.0023	1076.5538	1135.1991	1173.516	1193.9257	1208.7499	1281.1595	1298.7933	1302.2009	1333.3607	1416.5836	1435.679	1458.9546	1780.0542	3069.7536	3114.4393	3196.7533	3206.6562	3757.5351	3807.2041	3818.1214
ON=C1C2C(O)C2C1O	ON=C1[C@H]2[C@@H](O)[C@H]2[C@H]1O	
InChI=1S/C5H7NO3/c7-4-1-2(4)5(8)3(1)6-9/h1-2,4-5,7-9H	InChI=1S/C5H7NO3/c7-4-1-2(4)5(8)3(1)6-9/h1-2,4-5,7-9H/t1-,2-,4+,5+/m0/s1
