21
gdb 38158	2.40731	2.09407	1.41467	0.3734	87.71	-0.234	0.0193	0.2533	991.2455	0.185718	-349.920628	-349.913543	-349.912599	-349.951516	30.479	
C	-0.0536741626	 1.5403309221	 0.0654416333	-0.438623
C	 1.2380178915	 0.7470639684	-0.0584493402	-0.051388
C	 2.292562632	 0.3627199464	 0.9129574114	-0.11441
C	 2.536176445	-0.9392002886	 1.1063604027	-0.037598
C	 1.7750298415	-2.112379322	 0.4950805013	-0.262473
C	 0.2309350012	-1.9979066097	 0.3132642062	 0.005049
C	-0.3524838559	-0.8820503496	 1.21947418	-0.271086
C	-0.0875783836	 0.0422688599	 0.0302124234	 0.360573
C	-0.2653044751	-1.1513962816	-0.9135180291	-0.309398
H	-0.320332431	 1.9868706763	 1.0195153685	 0.111469
H	-0.3417569333	 2.1345542602	-0.7963334876	 0.110863
H	 1.6174238956	 0.7814701742	-1.0818877355	 0.093219
H	 2.9103182721	 1.1143128544	 1.400218891	 0.081708
H	 3.3617192161	-1.22256536	 1.7569591102	 0.08292
H	 2.2339384484	-2.3774987482	-0.4697826944	 0.11006
H	 1.958412428	-2.9792838891	 1.1408043088	 0.103462
H	-0.2097636412	-2.9948554715	 0.397085583	 0.060146
H	-1.4278220022	-1.0112460091	 1.3818740169	 0.088615
H	 0.140470625	-0.6765476742	 2.1710936219	 0.097618
H	 0.3312545434	-1.1623722311	-1.8308644999	 0.088414
H	-1.307136585	-1.3942701871	-1.1512914321	 0.09086
149.9869	284.2215	315.6651	356.7946	374.8421	401.2095	477.8339	516.9655	586.1333	717.4245	731.5413	776.9398	809.7142	841.1568	848.0962	871.0745	901.9344	925.8542	931.4779	984.2636	992.3382	1025.8309	1030.3336	1068.1244	1090.1406	1104.5924	1108.8755	1149.0102	1160.0804	1183.9018	1216.3671	1224.176	1239.8287	1262.0614	1291.6833	1320.1404	1341.2635	1374.856	1396.6338	1436.1252	1471.6081	1482.4022	1490.0871	1510.4249	1685.858	2994.2701	3031.3494	3042.8679	3047.9923	3069.5845	3071.4317	3088.666	3115.1611	3116.7372	3129.6922	3153.7111	3199.5767
C1C2C=CCC3CC12C3	C1[C@H]2C=CC[C@H]3C[C@@]12C3	
InChI=1S/C9H12/c1-2-7-4-9(5-7)6-8(9)3-1/h1,3,7-8H,2,4-6H2	InChI=1S/C9H12/c1-2-7-4-9(5-7)6-8(9)3-1/h1,3,7-8H,2,4-6H2/t7-,8-,9+/m1/s1
