18
gdb 106726	2.65448	1.50028	1.14835	0.4517	71.54	-0.245	0.0126	0.2576	1098.6889	0.147156	-439.081641	-439.073084	-439.07214	-439.114887	32.257	
C	-0.039032563	 1.511899374	-0.102148968	-0.471398
C	 0.0158643079	 0.0180788669	 0.0747021781	 0.266052
C	 1.2883038308	-0.7816244366	-0.1476361683	-0.375469
C	 0.6647791954	-0.7593496936	 1.2195895895	 0.343662
C	 1.3481099616	-0.2691383093	 2.4609706725	-0.158206
O	 2.3225234075	-1.175165596	 2.9530140519	-0.410136
O	-0.2366432862	-1.8417593803	 1.4825097766	-0.259184
C	-1.2346861777	-1.7007553614	 0.5710195835	 0.081686
N	-1.2033850145	-0.7137175734	-0.2279167834	-0.296386
H	 0.9001163926	 1.9809250476	 0.2050343192	 0.117159
H	-0.2122211252	 1.7581689328	-1.1544298068	 0.136639
H	-0.8532495545	 1.9484790945	 0.4843239706	 0.127138
H	 1.2355098423	-1.6888985188	-0.7401717546	 0.122597
H	 2.2081633418	-0.2151488743	-0.2498137891	 0.12458
H	 1.8802684825	 0.6598548605	 2.2351008939	 0.115895
H	 0.5892074697	-0.0432239052	 3.225461166	 0.100303
H	 1.8701626806	-2.0039059104	 3.143615234	 0.291484
H	-1.9990143115	-2.4672239871	 0.6105329845	 0.143582
66.6142	134.2805	188.1566	209.8913	275.7744	306.5672	361.9072	389.8089	432.9126	463.5305	600.2816	622.5208	746.0328	770.6048	845.8882	911.2734	919.4684	927.3768	943.8042	971.5145	984.6398	1043.8281	1052.9568	1105.9262	1122.2668	1141.6866	1204.6881	1256.0861	1297.0992	1339.3808	1377.4647	1386.6668	1417.1517	1435.2989	1471.6109	1480.5038	1487.4979	1499.4415	1670.2335	2992.7019	3039.2619	3086.4537	3107.6491	3115.1493	3127.9329	3220.2808	3228.7825	3813.2926
CC12CC1(CO)OC=N2	C[C@@]12C[C@]1(CO)OC=N2	
InChI=1S/C6H9NO2/c1-5-2-6(5,3-8)9-4-7-5/h4,8H,2-3H2,1H3	InChI=1S/C6H9NO2/c1-5-2-6(5,3-8)9-4-7-5/h4,8H,2-3H2,1H3/t5-,6-/m1/s1
