20
gdb 113843	4.02918	0.80758	0.73082	3.0099	76.38	-0.2407	0.0745	0.3152	1558.6754	0.170589	-440.226532	-440.217057	-440.216113	-440.261881	35.07	
O	 0.0199339532	 1.3560677161	-0.5182183526	-0.423871
C	 0.0024299744	 0.2107925395	 0.3176701436	-0.062481
C	-1.3344844799	-0.4903729405	 0.2400367008	-0.04543
N	-1.627454397	-1.0815928038	-1.083178196	-0.35953
C	-1.5102365995	-1.9622219152	 0.0945436435	-0.029062
C	-0.3889453317	-2.951511956	 0.0901339826	-0.01619
C	-0.0759136856	-3.7486018894	 1.345571976	-0.338392
C	-0.6920352559	-4.4240294282	 0.1478726245	 0.087943
O	-2.0427022083	-4.787103391	 0.1868788048	-0.416894
H	-0.2505756232	 1.0397325114	-1.3889608827	 0.28816
H	 0.8123753609	-0.4844699017	 0.0552647924	 0.085885
H	 0.1884482877	 0.5655062335	 1.3369989533	 0.105026
H	-2.1473219009	 0.0480230485	 0.7254304663	 0.085086
H	-2.6034290725	-0.9478355374	-1.3311042224	 0.234591
H	-2.4364914769	-2.3660631391	 0.4950840485	 0.097409
H	 0.4522970452	-2.6721785152	-0.5339448178	 0.099835
H	 0.9595955308	-3.9495019921	 1.5976194264	 0.113942
H	-0.7304211882	-3.5908605043	 2.1972292647	 0.114222
H	-0.0614006669	-5.0851436753	-0.4459091723	 0.08969
H	-2.1310670057	-5.5372408097	 0.7836780964	 0.290062
37.5657	63.8816	124.8864	183.2415	196.3207	290.6636	310.3044	380.4479	430.7682	448.8978	481.5838	525.2944	626.7104	768.2252	809.1678	830.5527	848.6311	900.1717	949.6459	966.0639	989.7652	1010.946	1024.405	1056.3288	1070.1004	1085.6267	1132.1542	1158.0665	1171.7273	1184.3863	1232.6022	1240.5044	1270.9734	1275.893	1296.6799	1326.6068	1362.1479	1408.8799	1417.8088	1447.3827	1474.2977	1500.1058	1501.8757	3004.7487	3072.2564	3102.4592	3117.2464	3128.0679	3145.4776	3174.6869	3217.8018	3511.6318	3783.3147	3810.079
OCC1NC1C1CC1O	OC[C@H]1N[C@H]1[C@H]1C[C@H]1O	
InChI=1S/C6H11NO2/c8-2-4-6(7-4)3-1-5(3)9/h3-9H,1-2H2	InChI=1S/C6H11NO2/c8-2-4-6(7-4)3-1-5(3)9/h3-9H,1-2H2/t3-,4+,5+,6-/m0/s1
