21
gdb 94850	3.62832	1.13551	1.05223	2.6697	77.97	-0.2432	0.0663	0.3095	1236.3723	0.182969	-424.219413	-424.210827	-424.209883	-424.253208	32.651	
C	 0.4050311026	 1.521174902	-0.245696799	-0.388643
C	-0.0049791332	 0.0775330934	 0.0299247685	 0.136214
C	 0.3061470356	-0.9005761283	-1.1220220876	-0.252361
C	 1.6627953744	-1.4827767749	-0.7040950346	-0.286139
C	 1.5283387267	-1.530161525	 0.817405464	 0.375337
C	 1.1274397903	-2.8896773941	 1.4536113382	-0.124342
O	 2.4493523638	-3.0519289954	 2.0057522728	-0.273649
C	 2.8069695312	-1.6979830867	 1.6611883914	-0.132563
O	 0.7302029548	-0.4176421067	 1.1649162439	-0.315298
H	 1.4462235905	 1.5783101257	-0.5802641108	 0.114279
H	-0.2318714952	 1.9617085143	-1.0200857306	 0.111875
H	 0.3073374289	 2.1208963792	 0.6633615341	 0.127341
H	-1.070561389	 0.0514394469	 0.2898800526	 0.077621
H	-0.4501717153	-1.6911309673	-1.1664469089	 0.106656
H	 0.327098042	-0.4053747719	-2.095684234	 0.105486
H	 1.8798012015	-2.4588083225	-1.1434418866	 0.112157
H	 2.4783066728	-0.8036555022	-0.9780116205	 0.107371
H	 0.3618250243	-2.7802263617	 2.2326352686	 0.100914
H	 0.8569805612	-3.7113413815	 0.7789772345	 0.094013
H	 3.7660272719	-1.6435297354	 1.1320128489	 0.097748
H	 2.8277372	-1.0347465581	 2.5353328751	 0.105982
46.9315	94.3824	149.3933	245.9406	277.5225	309.5051	384.4048	398.1293	437.9683	486.5545	665.4977	743.1562	791.2444	831.4227	892.6511	910.7453	921.1102	941.8492	960.8244	985.4582	1002.8126	1027.0408	1031.5376	1064.928	1120.2408	1148.8325	1154.8941	1163.1203	1169.7019	1221.9392	1237.4543	1259.7629	1297.7131	1327.5324	1337.2092	1355.5772	1379.7359	1390.4328	1409.3363	1484.1195	1490.6083	1497.2121	1499.2727	1506.5001	1527.1234	3003.4675	3016.331	3019.4791	3034.074	3044.7928	3053.8752	3059.1585	3063.1555	3103.6553	3106.1165	3112.0569	3118.4931
CC1CCC2(COC2)O1	C[C@H]1CCC2(COC2)O1	
InChI=1S/C7H12O2/c1-6-2-3-7(9-6)4-8-5-7/h6H,2-5H2,1H3	InChI=1S/C7H12O2/c1-6-2-3-7(9-6)4-8-5-7/h6H,2-5H2,1H3/t6-/m0/s1
