21
gdb 63941	2.2705	1.63708	1.40372	1.6024	77.81	-0.2399	0.066	0.3059	1062.8636	0.180628	-424.19697	-424.187777	-424.186833	-424.230457	35.792	
C	-0.4559228999	 1.4986855507	 0.048652851	-0.462388
C	-0.018828725	 0.0414131577	-0.0261445838	 0.358201
O	-1.1268469093	-0.7893041105	-0.3464433175	-0.473211
C	 1.2446143503	-0.2593555954	-0.9061227072	-0.297045
C	 1.9903854152	-0.7572427533	 0.3423905848	 0.079581
O	 2.662549469	 0.3123376836	 1.0465626579	-0.300174
C	 1.5883161873	 0.4137524389	 2.0086940414	-0.122934
C	 0.7155261498	-0.5841794788	 1.225486931	 0.244445
C	 0.0083859408	-1.6774228999	 1.9932223937	-0.491046
H	 0.3859495937	 2.1674849079	 0.2435288778	 0.133002
H	-0.8933353019	 1.8037830902	-0.9107154193	 0.104273
H	-1.2134413433	 1.6415241205	 0.8259570236	 0.122239
H	-1.5075741754	-0.4650193424	-1.1698762871	 0.274769
H	 1.0339995247	-1.0594926	-1.6212464945	 0.099857
H	 1.715212937	 0.5846769397	-1.4162826974	 0.101865
H	 2.5985175635	-1.6642497616	 0.28070658	 0.071537
H	 1.8971570923	 0.0278721208	 2.9902388178	 0.093545
H	 1.228556655	 1.4408652983	 2.1329909921	 0.098282
H	-0.8208980434	-1.2690091442	 2.582527338	 0.118929
H	-0.4094251499	-2.4299466343	 1.3223040512	 0.136383
H	 0.7015167195	-2.1679182978	 2.6851703365	 0.109889
52.2045	189.1012	205.9861	238.2909	267.8588	285.1723	318.0833	353.7412	369.6262	410.4843	432.9956	473.4379	622.3095	646.9393	726.427	830.091	865.7684	869.6184	926.7159	947.9181	958.877	981.5878	1009.6619	1016.4848	1085.2845	1105.2788	1145.1171	1174.08	1175.458	1191.3218	1222.5619	1243.1231	1259.6066	1278.0382	1316.928	1350.6057	1387.1237	1404.597	1411.0415	1448.7181	1485.7777	1487.3979	1494.3369	1496.3689	1531.3903	3000.7882	3022.7159	3031.5887	3052.6335	3062.1509	3068.1494	3088.1228	3089.5501	3118.4483	3123.7185	3133.2546	3801.8927
CC1(O)CC2OCC12C	C[C@@]1(O)C[C@H]2OC[C@@]12C	
InChI=1S/C7H12O2/c1-6-4-9-5(6)3-7(6,2)8/h5,8H,3-4H2,1-2H3	InChI=1S/C7H12O2/c1-6-4-9-5(6)3-7(6,2)8/h5,8H,3-4H2,1-2H3/t5-,6-,7-/m1/s1
