16
gdb 54668	3.44861	1.38755	1.05834	3.448	70.33	-0.2455	-0.0435	0.202	1100.1596	0.126014	-434.081683	-434.073848	-434.072903	-434.114483	29.412	
N	 0.0258713256	 1.1345152387	 0.3426734812	-0.527814
C	 0.0937532082	-0.2203208208	 0.299824221	 0.346388
O	 1.1178648727	-0.8713501614	 0.3245558794	-0.344359
C	-1.2684242576	-0.8705523018	 0.2020743491	 0.249073
N	-2.3399727449	-0.2032489019	 0.0111304652	-0.281767
C	-3.4511449296	-1.1661379813	-0.0826038072	-0.197443
C	-2.7823828644	-2.5379847972	 0.0100994486	-0.036261
C	-1.7397752838	-2.8914342838	-0.9833879645	-0.24585
N	-1.3524208988	-2.2870181149	 0.318175472	-0.127465
H	 0.8807985075	 1.664014943	 0.3363718878	 0.264227
H	-0.8657493869	 1.5903499023	 0.2381482788	 0.27503
H	-4.1459728877	-1.002529704	 0.7495283542	 0.127122
H	-4.0128122759	-0.9962455528	-1.0079593059	 0.125325
H	-3.2585605138	-3.3249953122	 0.5849259743	 0.109256
H	-1.4342099657	-3.9251846969	-1.1059679141	 0.133967
H	-1.633419865	-2.268436235	-1.8677350399	 0.13057
51.7522	140.4184	209.7701	271.7476	293.6819	365.461	386.9734	475.7089	558.5811	647.6389	654.0928	728.8752	773.1351	831.2284	838.4602	883.7426	930.1275	991.7983	997.8443	1079.3197	1087.432	1098.8936	1111.497	1147.3559	1184.0238	1205.6706	1267.4601	1320.7936	1372.7342	1399.9799	1484.0871	1502.6406	1596.102	1676.9527	1807.0976	3037.1666	3068.775	3116.1622	3170.6929	3210.9184	3596.7304	3740.1744
NC(=O)C1=NCC2CN12	NC(=O)C1=NC[C@H]2CN12	
InChI=1S/C5H7N3O/c6-4(9)5-7-1-3-2-8(3)5/h3H,1-2H2,(H2,6,9)	InChI=1S/C5H7N3O/c6-4(9)5-7-1-3-2-8(3)5/h3H,1-2H2,(H2,6,9)/t3-,8?/m0/s1
