18
gdb 35952	3.32947	1.14097	0.89665	3.9287	78.55	-0.2673	-0.0072	0.2602	1265.3944	0.149215	-401.958839	-401.950639	-401.949695	-401.992315	30.646	
N	 0.4692361354	-1.2086899049	 0.7081542769	-0.321078
C	 0.2414111694	-0.1146549858	 0.4141394307	 0.25911
C	-0.0550214415	 1.2776524628	 0.0490935169	-0.198444
C	-0.8808806909	 1.9373133107	 1.17636677	-0.198
C	-1.302895704	 3.3763180851	 0.8832095624	-0.095756
O	-0.2527221384	 4.3006686274	 1.0729035726	-0.229686
C	 0.6253580231	 4.4670534381	-0.0158510308	-0.13581
C	 1.4807161557	 3.2883991557	-0.4105609535	-0.08223
C	 1.2241169188	 1.982047003	-0.3752890743	-0.044315
H	-0.7028685407	 1.2217362049	-0.8411025506	 0.140261
H	-1.7765277013	 1.3282826202	 1.3419409909	 0.117961
H	-0.3038474731	 1.931026623	 2.1060066425	 0.133828
H	-1.7252388549	 3.464690115	-0.1322908657	 0.088245
H	-2.0864559448	 3.6657932439	 1.590882501	 0.115839
H	 0.0663645798	 4.8088317711	-0.9079971852	 0.104827
H	 1.2823243195	 5.294129506	 0.2723194052	 0.124029
H	 2.4417034414	 3.5807856007	-0.8310764209	 0.104011
H	 1.9907442264	 1.3103766229	-0.751689048	 0.117208
40.1113	151.5772	160.1579	221.9706	311.2082	360.2352	387.5803	430.9569	507.7377	549.9961	560.7324	686.784	734.3673	831.587	863.5025	912.186	938.9491	1000.3445	1019.2967	1033.4156	1049.8019	1066.8099	1134.6308	1176.0122	1208.9297	1272.8058	1279.5546	1309.4948	1323.7911	1335.3476	1376.6932	1401.0272	1423.9661	1429.0086	1473.2478	1477.0142	1495.8985	1734.7986	2359.4344	2925.8515	2965.6457	2975.5724	3046.2649	3070.7258	3075.441	3100.8318	3137.0308	3169.6091
N#CC1CCOCC=C1	N#C[C@H]1CCOCC=C1	
InChI=1S/C7H9NO/c8-6-7-2-1-4-9-5-3-7/h1-2,7H,3-5H2	InChI=1S/C7H9NO/c8-6-7-2-1-4-9-5-3-7/h1-2,7H,3-5H2/t7-/m1/s1
