23
gdb 64255	3.00831	1.15386	1.1138	1.3731	84.89	-0.2566	0.071	0.3276	1251.0883	0.205528	-388.297773	-388.288505	-388.287561	-388.331756	36.856	
C	 0.4003756885	 1.4084949656	 0.2737517918	-0.432827
C	-0.0518996016	-0.023346061	-0.0342484438	 0.390389
O	-1.4743786314	-0.0814629471	-0.1062120239	-0.481672
C	 0.6304319838	-0.5877284583	-1.3033819777	-0.25685
C	 2.0199300097	-1.0621621726	-0.8347709911	-0.298847
C	 1.8375951279	-1.3963351094	 0.6599477808	 0.397948
C	 2.5115037385	-2.5882120798	 1.2862106942	-0.323025
C	 2.9821064242	-1.1944493841	 1.6237122593	-0.312239
C	 0.40662412	-1.0192560799	 1.0469399009	-0.3108
H	 1.4855745611	 1.4699037391	 0.3992818302	 0.124666
H	 0.1225655002	 2.088057651	-0.5417048078	 0.100326
H	-0.0736033616	 1.7637860203	 1.1934015839	 0.121299
H	-1.7661263292	 0.5876978801	-0.7343023534	 0.271203
H	 0.027283233	-1.4348218251	-1.6467242311	 0.104696
H	 0.6775927025	 0.1393215569	-2.1212097406	 0.081923
H	 2.3739018271	-1.9210048242	-1.4133725821	 0.098904
H	 2.7641899782	-0.2678758742	-0.9621538312	 0.098959
H	 1.9684601642	-3.1423015569	 2.0457911144	 0.108467
H	 3.1482268214	-3.2043359258	 0.6585735318	 0.106174
H	 3.9356619906	-0.867633052	 1.2196291518	 0.104693
H	 2.7610155385	-0.8050216736	 2.6126793003	 0.107537
H	 0.3270783038	-0.6073473576	 2.0575177447	 0.092426
H	-0.2573910494	-1.8897432614	 0.9930084685	 0.106652
33.7124	146.1314	227.373	266.0782	273.1674	283.2253	339.1792	342.5485	395.9345	433.905	444.8508	494.4763	577.7382	734.4839	765.2138	781.1716	836.4939	855.948	909.9716	935.5465	939.3826	952.7969	981.627	988.9764	1005.837	1023.2573	1053.9404	1079.0224	1093.6344	1130.2196	1162.2162	1190.439	1197.0364	1220.063	1271.6614	1280.9034	1287.6299	1311.5421	1330.3298	1376.3223	1391.0836	1404.8812	1466.4846	1483.0034	1485.1476	1492.0427	1500.8443	1502.2174	1510.2212	3022.8161	3032.3014	3035.3158	3042.4068	3069.8129	3082.6133	3089.8409	3092.1462	3115.1129	3115.5822	3119.7936	3192.8946	3208.797	3806.9476
CC1(O)CCC2(CC2)C1	C[C@@]1(O)CCC2(CC2)C1	
InChI=1S/C8H14O/c1-7(9)2-3-8(6-7)4-5-8/h9H,2-6H2,1H3	InChI=1S/C8H14O/c1-7(9)2-3-8(6-7)4-5-8/h9H,2-6H2,1H3/t7-/m1/s1
