20
gdb 56187	4.4789	0.73638	0.67913	2.6074	77.	-0.2457	0.0297	0.2753	1682.3836	0.169945	-440.271356	-440.261569	-440.260625	-440.308049	33.778	
C	 0.1824233211	 1.3949297866	-0.1503501734	-0.460194
C	-0.0153278128	-0.0828557114	 0.071807285	 0.398121
N	-0.1879921703	-0.708456333	 1.162904724	-0.519015
O	 0.0115241139	-0.7364486795	-1.1094913984	-0.245694
C	-0.1555528544	-2.159685932	-1.0631725949	-0.068028
C	-0.0893417902	-2.6640369605	-2.4882585591	-0.051066
C	 1.3038943612	-2.6496320159	-3.1544467581	-0.070641
O	 1.3495339601	-4.0918123882	-3.1977947481	-0.271213
C	 0.0251102711	-4.1975735745	-2.639620695	-0.090526
H	 1.1429082756	 1.5767165984	-0.6422244194	 0.14674
H	-0.5975502199	 1.784533224	-0.8115553176	 0.146351
H	 0.1558925753	 1.9396663709	 0.7945348686	 0.127423
H	-0.181199024	-0.06401341	 1.9499635041	 0.220222
H	 0.634302303	-2.5994875455	-0.4430501163	 0.122345
H	-1.1130729375	-2.4010496876	-0.5880759549	 0.119805
H	-0.8792386988	-2.2036904722	-3.0855699837	 0.086143
H	 1.3451263789	-2.208052106	-4.1576725211	 0.100336
H	 2.1131500919	-2.2272811727	-2.5459111071	 0.104291
H	 0.0161308288	-4.7708929531	-1.7030143064	 0.103417
H	-0.682970353	-4.6560429777	-3.3410722384	 0.101182
43.6899	53.4514	68.3553	107.8156	128.2064	182.792	274.0857	309.9286	419.6845	473.3869	574.5203	609.9125	784.5149	854.2563	874.139	887.1316	914.6177	923.7674	970.3982	989.8059	1038.6167	1059.8794	1068.0685	1083.2175	1115.0805	1120.0561	1152.4024	1162.8612	1198.3081	1245.2934	1275.7792	1309.8121	1335.8652	1368.9089	1389.354	1403.2885	1436.094	1471.4448	1482.2495	1506.5528	1513.8743	1538.5886	1728.2626	3003.9852	3016.6773	3035.4072	3047.465	3048.7866	3055.2053	3072.7742	3095.2041	3111.9234	3144.5268	3517.0875
CC(=N)OCC1COC1	C[C]([NH])OCC1COC1	
InChI=1S/C6H11NO2/c1-5(7)9-4-6-2-8-3-6/h6-7H,2-4H2,1H3	InChI=1S/C6H11NO2/c1-5(7)9-4-6-2-8-3-6/h6-7H,2-4H2,1H3
