16
gdb 13553	3.79671	1.40647	1.12971	2.8073	66.31	-0.2475	0.0062	0.2537	1039.4634	0.129248	-379.887539	-379.878992	-379.878048	-379.920781	30.377	
C	-0.8092879966	 1.2188702252	 0.3844365785	-0.318228
N	-0.1700138967	-0.0805310467	 0.2188861213	-0.08066
C	 1.1091808037	-0.1450009635	-0.471365189	-0.24836
C	 1.0140472697	-0.422076967	 0.9919930536	-0.010829
C	 1.6235730416	 0.5390053002	 2.0010498554	-0.041204
O	 0.8740996617	 0.6205225394	 3.2008775286	-0.410655
C	 3.0252984816	 0.1492809525	 2.2687009169	 0.264077
N	 4.1084759801	-0.1879871969	 2.4886369687	-0.313208
H	-0.1156019954	 2.0743335429	 0.3789883376	 0.102901
H	-1.5151934685	 1.3615132011	-0.4387890831	 0.12993
H	-1.3625573375	 1.2305806991	 1.3269896149	 0.141846
H	 1.242482992	-0.9593513164	-1.1776289187	 0.129226
H	 1.5793534952	 0.7940381718	-0.765437273	 0.114821
H	 1.0371510122	-1.4583783799	 1.3309317847	 0.104984
H	 1.6343546907	 1.555827178	 1.5991603798	 0.139653
H	 0.8196982961	-0.2629206999	 3.5845943839	 0.295707
62.5269	119.7474	179.7155	202.437	243.0986	264.4838	327.9389	365.2454	422.4108	513.1938	538.2539	610.5076	754.1742	873.5802	901.8333	948.3069	1030.8522	1061.1161	1079.8101	1117.883	1127.539	1153.5408	1173.7589	1202.5184	1250.3277	1294.7365	1341.0938	1415.5463	1418.6856	1451.1529	1485.9344	1504.8164	1515.3899	2353.8605	2977.8191	3077.6365	3082.9901	3086.2891	3102.9334	3123.0854	3181.2654	3795.4611
CN1CC1C(O)C#N	CN1C[C@H]1[C@@H](O)C#N	
InChI=1S/C5H8N2O/c1-7-3-4(7)5(8)2-6/h4-5,8H,3H2,1H3	InChI=1S/C5H8N2O/c1-7-3-4(7)5(8)2-6/h4-5,8H,3H2,1H3/t4-,5-,7?/m0/s1
