18
gdb 42913	2.86899	1.42335	1.07158	2.9796	77.48	-0.231	-0.0112	0.2198	1139.7142	0.147679	-401.89963	-401.891749	-401.890805	-401.932607	30.009	
O	 0.4265104114	 0.0999908395	-0.2741328581	-0.322257
C	 0.1260125506	 1.2381589419	-0.0484151225	 0.418358
C	-1.1588509381	 1.9992178374	-0.0123862496	-0.184851
C	-1.1723939162	 2.8865189578	 1.2311786919	-0.276641
C	-0.3422506006	 3.3208975699	 0.0813111722	-0.067521
C	 0.9818505636	 2.5403653437	 0.079843044	-0.098493
N	 1.8316616662	 2.6631045956	 1.2423873333	-0.069898
C	 3.1340271666	 2.0061421875	 1.1409272908	-0.211802
C	 3.0314039935	 3.4892963298	 1.0980776958	-0.229576
H	-2.0686535244	 1.7716650014	-0.5532588083	 0.111695
H	-2.110954704	 3.4108197908	 1.3767424486	 0.12485
H	-0.6898566631	 2.5530449564	 2.1432002497	 0.143663
H	-0.5282179153	 4.2264216152	-0.4804501602	 0.104224
H	 1.5277210098	 2.6718017079	-0.8720635235	 0.080548
H	 3.4737538357	 1.5014346721	 2.0401615121	 0.121914
H	 3.3695035415	 1.4893406502	 0.2132134036	 0.125213
H	 3.1992148494	 3.9765802107	 0.1388458285	 0.110413
H	 3.2953490234	 4.0871732523	 1.9651886816	 0.120161
62.6902	114.9737	159.6331	213.8208	307.9996	356.3392	500.3289	515.4498	602.4412	677.9413	762.523	792.6275	839.0469	853.822	895.6452	899.7858	921.0191	964.1584	985.9138	1014.032	1044.9911	1059.8817	1082.3788	1095.762	1112.9447	1120.3257	1122.8986	1162.7252	1177.5458	1194.2609	1218.3008	1291.6466	1317.6157	1335.2711	1361.4961	1490.3475	1493.474	1521.5112	1881.4758	2938.9843	3097.6634	3110.7664	3135.9561	3184.3984	3198.3959	3200.2767	3207.6416	3224.6342
O=C1C2CC2C1N1CC1	O=C1[C@H]2C[C@H]2[C@H]1N1CC1	
InChI=1S/C7H9NO/c9-7-5-3-4(5)6(7)8-1-2-8/h4-6H,1-3H2	InChI=1S/C7H9NO/c9-7-5-3-4(5)6(7)8-1-2-8/h4-6H,1-3H2/t4-,5+,6-/m1/s1
