17
gdb 86288	1.86929	1.65341	1.15891	3.2152	69.55	-0.2491	0.0056	0.2547	1112.2609	0.135206	-455.133556	-455.124121	-455.123176	-455.167879	34.536	
N	 0.1660283228	 1.439861851	 0.1202183773	-0.505704
C	 0.0340963462	 0.0124399839	 0.0405504289	 0.011612
C	 0.3224196888	-0.8019521122	 1.3272284382	-0.293126
C	-0.8485567067	-1.7529506894	 0.974823319	 0.109322
O	-1.7237347033	-2.1783151813	 1.978807797	-0.429842
C	-1.4016318013	-0.6556380671	-0.0083283877	 0.19195
O	-2.3082586285	 0.1991830259	 0.6607727848	-0.471733
C	-1.9136369133	-1.0861433791	-1.3055782074	 0.210226
N	-2.2930088662	-1.4439786508	-2.3384745793	-0.336113
H	 0.0082350083	 1.8703976407	-0.7856472287	 0.239965
H	-0.5353857343	 1.8162694282	 0.7513689611	 0.242917
H	 0.6258596056	-0.3604487675	-0.7988166943	 0.105419
H	 1.3162498824	-1.2363908809	 1.4403005466	 0.120158
H	 0.0944245084	-0.2079464368	 2.218187208	 0.108071
H	-0.5243656806	-2.6445024401	 0.4340507361	 0.115376
H	-1.9071628037	-1.4174170841	 2.5415904263	 0.284214
H	-3.1136027247	-0.3059849905	 0.8284362842	 0.297288
71.8379	106.0515	121.2995	171.6245	244.3504	250.5355	308.5057	343.5613	407.9068	486.9754	504.8767	514.8364	548.1709	596.8685	635.805	736.1992	864.5655	873.8391	906.6849	917.6551	1004.1422	1075.5819	1099.3352	1118.6794	1151.6448	1182.8315	1215.1318	1248.9335	1281.5596	1300.3047	1323.0654	1344.0312	1415.3978	1443.2577	1482.1043	1669.3532	2338.2968	3061.9188	3086.6501	3099.1697	3133.7842	3498.7694	3577.2832	3787.2364	3798.1687
NC1CC(O)C1(O)C#N	N[C@H]1C[C@@H](O)[C@]1(O)C#N	
InChI=1S/C5H8N2O2/c6-2-5(9)3(7)1-4(5)8/h3-4,8-9H,1,7H2	InChI=1S/C5H8N2O2/c6-2-5(9)3(7)1-4(5)8/h3-4,8-9H,1,7H2/t3-,4+,5-/m0/s1
