18
gdb 10407	2.53162	1.89738	1.34691	1.49	73.18	-0.2518	0.0404	0.2922	983.5362	0.15206	-347.750542	-347.741927	-347.740982	-347.7836	31.605	
C	 0.0824992373	 1.5079973941	 0.1790385623	-0.39264
C	-0.0202461678	 0.0039395665	-0.0804963312	-0.241303
C	 0.6908266392	-0.4643004174	-1.3652791988	 0.095631
C	 2.2452925267	-0.5147537324	-1.2332796986	-0.106766
O	 2.2289596086	-1.9439460336	-1.0748821002	-0.269348
C	 0.8389769912	-2.0149105337	-1.4369078771	-0.116594
C	 0.1650071189	 0.1803753406	-2.5551930772	 0.282115
C	-0.273232997	 0.7068378373	-3.5440327128	-0.457884
H	 1.1255152082	 1.8290451189	 0.2737460964	 0.116941
H	-0.3701411143	 2.0783628583	-0.6369157074	 0.133999
H	-0.4304896744	 1.7749792811	 1.1075711735	 0.117031
H	 0.4133971526	-0.5540109909	 0.7582930414	 0.108713
H	-1.0745569218	-0.290670898	-0.1447027103	 0.107125
H	 2.7808978502	-0.2032273403	-2.1378490264	 0.107751
H	 2.6701349435	-0.006023804	-0.3603722522	 0.106595
H	 0.24684776	-2.5816537725	-0.7089339931	 0.105622
H	 0.6914504165	-2.4331572171	-2.4397446511	 0.107045
H	-0.6566858575	 1.1711468731	-4.4188289572	 0.195966
88.9584	114.8039	156.4877	182.3416	213.0656	264.9869	358.6586	398.7146	525.2068	536.3482	614.3546	628.7542	632.84	790.0168	828.5233	886.5507	968.5949	973.3863	985.0989	1018.7545	1043.2427	1054.9582	1131.9407	1160.21	1164.6162	1197.1075	1257.3815	1305.2624	1322.991	1360.3101	1376.1852	1412.5727	1481.966	1497.6963	1506.0166	1509.1116	1533.0194	2230.6143	3013.5674	3022.9736	3028.1669	3039.4689	3064.8763	3069.2774	3071.2003	3105.6461	3119.1703	3500.7771
CCC1(COC1)C#C	CCC1(COC1)C#C	
InChI=1S/C7H10O/c1-3-7(4-2)5-8-6-7/h1H,4-6H2,2H3	InChI=1S/C7H10O/c1-3-7(4-2)5-8-6-7/h1H,4-6H2,2H3
