22
gdb 60848	2.59627	1.10194	0.98116	3.9224	83.77	-0.2365	0.0297	0.2661	1350.194	0.192097	-404.367127	-404.356621	-404.355677	-404.402468	38.188	
C	-0.0224712249	 1.4017483587	-0.2985501813	-0.41654
C	 0.2890765674	-0.0664110026	-0.1080993814	-0.025443
C	 1.6952009577	-0.5655664696	 0.1185035839	-0.332967
C	 0.6728933731	-0.6708857877	 1.2307883373	 0.289821
C	 0.8288043579	 0.2006310981	 2.4656967243	-0.443299
N	 0.1621991939	-1.9955401017	 1.5086029517	-0.077502
C	 1.0688763375	-3.0095107492	 2.025712017	-0.350956
C	-1.1824886158	-2.2411614176	 1.5018819394	 0.146756
O	-1.7143737058	-3.2835828335	 1.8244234501	-0.346801
H	 0.6396649859	 2.044712531	 0.2873887935	 0.118985
H	 0.1001575751	 1.6809536622	-1.3504512646	 0.125293
H	-1.0539976602	 1.6341179085	-0.0118565342	 0.123458
H	-0.3165118206	-0.7241733627	-0.7246195586	 0.099332
H	 2.0024402577	-1.4743157833	-0.3863106813	 0.118806
H	 2.4846709266	 0.1685962448	 0.2441998306	 0.113052
H	 1.2898572847	 1.1620574522	 2.2291406784	 0.120481
H	-0.1425378137	 0.3936042876	 2.9338919314	 0.125164
H	 1.4653077303	-0.2919614892	 3.2083102541	 0.124571
H	 1.5087969316	-2.705915775	 2.9831614243	 0.123189
H	 0.4921571763	-3.922086219	 2.1755357497	 0.166511
H	 1.8820651648	-3.1977336506	 1.3176820447	 0.123087
H	-1.7527173394	-1.3625051716	 1.146428431	 0.075
74.6093	103.1567	137.7382	150.5234	178.2796	184.4071	270.2431	276.2118	321.1629	337.4406	374.6856	427.4933	437.6035	515.8241	582.7214	776.6749	798.743	873.2896	888.458	935.3746	955.3723	1020.2397	1038.4025	1053.4054	1063.7723	1108.9635	1128.1644	1138.4171	1159.9667	1190.3095	1197.1112	1302.9196	1312.4806	1377.0468	1403.2835	1418.1631	1423.997	1438.6177	1439.6117	1483.1978	1486.2085	1490.2399	1496.9897	1503.1551	1511.4417	1515.0223	1791.4538	2956.5815	3028.0773	3033.6811	3038.0292	3083.1364	3093.1714	3096.5652	3110.5237	3124.9095	3132.1428	3153.9373	3158.0695	3219.6084
CC1CC1(C)N(C)C=O	C[C@H]1C[C@]1(C)N(C)C=O	
InChI=1S/C7H13NO/c1-6-4-7(6,2)8(3)5-9/h5-6H,4H2,1-3H3	InChI=1S/C7H13NO/c1-6-4-7(6,2)8(3)5-9/h5-6H,4H2,1-3H3/t6-,7-/m0/s1
