20
gdb 116677	2.51971	0.93539	0.85518	1.283	75.49	-0.2392	0.0144	0.2536	1475.9101	0.169306	-477.402107	-477.391649	-477.390705	-477.438416	36.598	
C	-0.4948031111	 0.6636981796	 0.10018071	-0.252093
O	 0.7606418069	 0.1056885766	-0.274172117	-0.193232
C	 0.698410642	-0.9362181748	-1.127371421	 0.106847
N	 1.7664392615	-1.5111651087	-1.4769927396	-0.264146
C	 1.7395840604	-2.6307599639	-2.4100323785	 0.006895
C	 2.3444812391	-3.8430371516	-1.6795310929	-0.074476
O	 1.5406876184	-4.2451485691	-0.568230674	-0.424485
C	 0.3979853507	-2.9879826546	-3.0760565238	-0.087521
O	-0.6153784279	-3.3879754466	-2.1686503815	-0.431439
H	-1.0639999227	 0.9964375727	-0.7759039113	 0.129894
H	-1.0982848384	-0.0523143413	 0.6707297154	 0.130557
H	-0.2717984279	 1.5257286465	 0.7298720417	 0.145559
H	-0.312780041	-1.2113307386	-1.4447129194	 0.118376
H	 2.4370521312	-2.3832313647	-3.2247137503	 0.08895
H	 2.3903993999	-4.7073075113	-2.3489005575	 0.113156
H	 3.3623441783	-3.600446378	-1.3504599253	 0.112278
H	 1.5508728041	-3.5040151854	 0.0504348873	 0.295044
H	 0.0113200136	-2.1189590305	-3.6226039081	 0.101324
H	 0.5931957865	-3.7733061245	-3.8257225303	 0.088966
H	-0.1808667035	-3.943963102	-1.5040147839	 0.289547
48.8996	75.1356	126.9428	132.9791	159.9327	183.3629	222.4502	277.6194	313.9634	340.563	414.8504	433.7045	530.989	546.056	657.9452	794.3059	834.3276	906.4648	961.3198	977.1111	1004.4498	1056.6588	1070.7225	1109.4292	1118.1769	1176.5823	1178.5048	1218.3222	1247.4622	1275.2885	1314.9167	1336.6443	1386.7267	1395.0994	1416.0476	1428.7444	1475.5005	1485.8893	1494.7187	1494.8698	1500.9388	1513.8325	1751.9603	2961.0601	2995.6135	3016.7748	3030.4726	3045.362	3078.0433	3081.693	3094.4361	3145.3717	3695.0699	3782.557
COC=NC(CO)CO	COC=NC(CO)CO	
InChI=1S/C5H11NO3/c1-9-4-6-5(2-7)3-8/h4-5,7-8H,2-3H2,1H3	InChI=1S/C5H11NO3/c1-9-4-6-5(2-7)3-8/h4-5,7-8H,2-3H2,1H3
