21
gdb 115846	2.76433	1.26252	1.13344	1.0496	77.09	-0.2346	0.0753	0.3099	1201.2296	0.182997	-424.208459	-424.199521	-424.198577	-424.242141	33.941	
C	 0.0407180013	 1.5690142875	-0.0035137749	-0.387076
C	 0.019507096	 0.0371229622	-0.0169932623	-0.190685
C	-1.3982355968	-0.5529050558	 0.016815115	 0.006872
C	-2.2408766547	-0.23735558	-1.2452979217	-0.098518
O	-2.9899546497	-1.4145667921	-1.5952776609	-0.27689
C	-2.5389935384	-2.5124798329	-0.8412683597	 0.023733
C	-1.1142063933	-2.9185993152	-1.1074585463	 0.079812
O	-0.4505792533	-2.3717023461	-2.2092150016	-0.426004
C	-1.462047568	-2.0725620648	 0.110733232	-0.152544
H	 1.0668978505	 1.9491046564	-0.0017590332	 0.114639
H	-0.4621078214	 1.9892159556	-0.8816806355	 0.117274
H	-0.4621379651	 1.9658922018	 0.8860979959	 0.111404
H	 0.5344318972	-0.345800571	-0.9041243228	 0.124038
H	 0.5743413502	-0.3383929699	 0.8516904951	 0.092805
H	-1.9180828054	-0.1552302152	 0.8987200362	 0.073897
H	-2.9558132721	 0.57710917	-1.0903960283	 0.107262
H	-1.5860124954	 0.0343267803	-2.0815851884	 0.099177
H	-3.3275391422	-3.224201712	-0.6231514094	 0.099373
H	-0.8343690207	-3.9499252601	-0.8991614983	 0.094541
H	-1.1260392049	-2.1803851976	-2.8715221729	 0.297153
H	-1.3464279439	-2.529238831	 1.0874905021	 0.089736
96.2394	106.7403	139.4179	177.5732	237.7913	249.1545	345.4462	373.3119	408.4788	530.7366	613.4661	709.2182	734.2933	766.8156	778.144	799.5675	865.9007	934.4473	957.5152	970.2077	1001.0891	1028.6039	1054.9158	1078.6676	1080.7064	1098.0008	1130.3071	1155.0804	1177.381	1214.1337	1241.3282	1282.9763	1303.3076	1304.0538	1337.3474	1348.2882	1365.6539	1377.9388	1404.0305	1413.5824	1430.064	1491.6308	1502.4986	1507.5613	1525.8811	3007.3166	3026.2564	3029.0819	3031.5125	3071.3801	3076.5939	3098.8837	3102.5458	3116.524	3165.2519	3175.703	3775.652
CCC1COC2C(O)C12	CC[C@H]1CO[C@H]2[C@@H](O)[C@@H]12	
InChI=1S/C7H12O2/c1-2-4-3-9-7-5(4)6(7)8/h4-8H,2-3H2,1H3	InChI=1S/C7H12O2/c1-2-4-3-9-7-5(4)6(7)8/h4-8H,2-3H2,1H3/t4-,5+,6-,7+/m0/s1
