17
gdb 11315	5.66958	1.23105	1.03505	5.7696	79.62	-0.1986	-0.0252	0.1734	1116.1787	0.142738	-363.889539	-363.881502	-363.880558	-363.922231	28.473	
C	-0.0393547647	 1.4128324182	 0.0943668309	-0.331671
N	 0.0113270033	-0.0009936782	-0.1868871995	-0.026586
C	-1.1745564947	-0.846144146	 0.0384816291	-0.171841
C	-0.6394483933	-2.2949359322	-0.1035586329	-0.329168
C	 0.8644728298	-2.1021762561	-0.0112030842	 0.136002
C	 1.8403891061	-3.152329655	 0.0553618849	 0.058536
O	 1.5844220784	-4.3449274994	 0.0828681667	-0.317198
C	 1.1278422382	-0.7715903931	-0.0733429461	-0.059129
H	 0.9302055689	 1.8676189697	-0.1228614603	 0.13809
H	-0.7926438405	 1.8980821833	-0.5355350115	 0.135424
H	-0.2933659751	 1.6191483612	 1.1465301558	 0.122865
H	-1.5685994209	-0.65572515	 1.0487849388	 0.106757
H	-1.9640846787	-0.5977389595	-0.6774097093	 0.116756
H	-1.0297547759	-2.9621793614	 0.6684662692	 0.128988
H	-0.91736449	-2.7327021213	-1.0694504281	 0.122833
H	 2.8970632198	-2.7951268915	 0.090197874	 0.038799
H	 2.1021666592	-0.2959827287	-0.0684295374	 0.130542
88.8084	134.6978	157.6693	168.2797	208.2131	330.9049	351.6872	469.511	491.7817	604.8373	735.57	810.9557	895.8182	923.6725	936.116	974.5771	1021.6867	1070.4509	1084.5858	1145.9574	1172.4459	1199.253	1230.4697	1288.6757	1301.8743	1312.7855	1375.5097	1411.3618	1453.8671	1472.4131	1481.3388	1493.2521	1511.8651	1538.2374	1656.3838	1753.1251	2840.6846	2976.5833	2983.3938	3037.549	3063.8509	3071.1358	3097.3091	3120.6429	3204.7481
CN1CCC(C=O)=C1	CN1CCC(=C1)C=O	
InChI=1S/C6H9NO/c1-7-3-2-6(4-7)5-8/h4-5H,2-3H2,1H3	InChI=1S/C6H9NO/c1-7-3-2-6(4-7)5-8/h4-5H,2-3H2,1H3
