18
gdb 85325	2.35487	1.89114	1.22117	5.1005	71.26	-0.2524	0.0381	0.2905	1038.4893	0.149626	-439.119408	-439.111713	-439.110769	-439.151854	29.283	
C	 0.0123758934	 1.5644230065	-0.171651001	-0.404432
C	 0.0304081437	 0.0563695466	 0.0056388728	 0.104883
O	 0.7057754581	-0.5623634562	-1.1077614273	-0.249914
C	 1.6478677184	-1.4609164613	-0.686930269	 0.441166
O	 2.4310412415	-1.9847457675	-1.4265460968	-0.376054
N	 1.5490624633	-1.6334307961	 0.6980186098	-0.1608
C	 2.7536562725	-1.2418392572	 1.4919409439	-0.176938
C	 2.0748395439	 0.1187099953	 1.8253128281	-0.263041
C	 0.7705910685	-0.4977107752	 1.2415936159	-0.003993
H	 1.0259671565	 1.9707259072	-0.2225205963	 0.131397
H	-0.5074336439	 1.8294821441	-1.0956755273	 0.140933
H	-0.5119101045	 2.0365634159	 0.6655874749	 0.123853
H	-0.9975163543	-0.3256160413	 0.0093919146	 0.099527
H	 2.8876696377	-1.8979827002	 2.3550550969	 0.122347
H	 3.6703267735	-1.2261822358	 0.8993520395	 0.141798
H	 2.0447381629	 0.4189746996	 2.8740027974	 0.113286
H	 2.4743630525	 0.9416613509	 1.2283808086	 0.122207
H	 0.0658840062	-0.8032759254	 2.0199150752	 0.093774
80.853	136.0743	211.9307	244.6111	261.9455	343.1492	480.8802	520.8899	639.0827	687.7006	698.7196	765.4135	787.034	797.405	903.352	916.7079	956.6833	976.3718	1036.3524	1067.8101	1077.2483	1102.6749	1129.3784	1166.2906	1187.6001	1202.0358	1235.5653	1259.1032	1281.7155	1317.7011	1354.223	1384.2279	1389.8926	1416.0141	1481.4264	1487.553	1501.7	1516.0391	1875.7416	3029.295	3046.241	3065.0766	3071.1231	3076.2413	3118.8353	3123.2629	3129.8439	3139.3773
CC1OC(=O)N2CCC12	C[C@H]1OC(=O)N2CC[C@@H]12	
InChI=1S/C6H9NO2/c1-4-5-2-3-7(5)6(8)9-4/h4-5H,2-3H2,1H3	InChI=1S/C6H9NO2/c1-4-5-2-3-7(5)6(8)9-4/h4-5H,2-3H2,1H3/t4-,5+/m1/s1
