18
gdb 59901	5.03162	0.71129	0.6424	5.1437	73.86	-0.2702	-0.0484	0.2217	1693.7269	0.144699	-439.120401	-439.110369	-439.109425	-439.156612	35.23	
C	-0.0255138082	 1.6323480906	-0.1245048055	-0.386178
C	 0.037169791	 0.1180073843	 0.0292711643	 0.135798
O	-1.2765952752	-0.336598326	 0.2890298159	-0.438081
C	 0.6133499618	-0.5558053312	-1.230267889	-0.315406
C	 0.7218054407	-2.0641835266	-1.1081121389	 0.385276
O	 0.1407958598	-2.7076491168	-0.2669390579	-0.284797
C	 1.6365104106	-2.7410441369	-2.1454040803	-0.453336
C	 1.5788326536	-4.1968565574	-2.1251871175	 0.288323
N	 1.5440914062	-5.3505860591	-2.1270380821	-0.289603
H	 0.9691137647	 2.0557526375	-0.2940972061	 0.109892
H	-0.6715013901	 1.9036664819	-0.9656848477	 0.123658
H	-0.4446367053	 2.0770285646	 0.7813948912	 0.132896
H	 0.7018798828	-0.1276186056	 0.8743569685	 0.074619
H	-1.2086235848	-1.2893580212	 0.4348146427	 0.297383
H	-0.04640115	-0.3456787144	-2.0850815451	 0.144927
H	 1.5955375827	-0.1409825519	-1.490752394	 0.117543
H	 1.3824896946	-2.3699053199	-3.1456539084	 0.176396
H	 2.6661121652	-2.4104364915	-1.9569851602	 0.180692
36.3785	54.6771	108.099	122.7031	209.7964	227.1159	283.2779	338.7714	369.3399	413.5781	443.8625	458.0946	500.0958	569.9046	710.7424	794.3468	843.7737	885.3647	933.7085	954.3946	968.9742	1052.7705	1078.1333	1093.6121	1166.3915	1196.3868	1252.1123	1306.686	1316.366	1350.7028	1385.6605	1404.7771	1426.1063	1436.8586	1455.1123	1482.9355	1500.5011	1809.8047	2377.035	2961.5075	3014.2004	3039.4256	3041.7374	3058.7031	3075.5029	3113.5729	3126.7207	3765.0567
CC(O)CC(=O)CC#N	C[C@@H](O)CC(=O)CC#N	
InChI=1S/C6H9NO2/c1-5(8)4-6(9)2-3-7/h5,8H,2,4H2,1H3	InChI=1S/C6H9NO2/c1-5(8)4-6(9)2-3-7/h5,8H,2,4H2,1H3/t5-/m1/s1
