16
gdb 125859	3.18915	1.64083	1.14985	3.1131	77.25	-0.2279	-0.0237	0.2042	1030.9231	0.126355	-400.751341	-400.744378	-400.743434	-400.782649	27.397	
C	-0.0839812504	 1.5804814142	 0.0223298282	-0.389778
C	 0.008741313	 0.0446796095	 0.0146108437	-0.193772
C	 0.8075706633	-0.5235862103	-1.158279725	-0.077909
C	 1.8537640202	-1.2784611351	-0.7699361022	-0.232798
C	 1.8819754835	-1.3179364763	 0.685922735	 0.158195
C	 2.4751665737	-1.7544654645	 1.8232727789	-0.088063
O	 1.8010133425	-1.2747553319	 2.8970498525	-0.179725
N	 0.7156100629	-0.4901046872	 2.4643578525	-0.250056
C	 0.7894667413	-0.5365744621	 1.1665916065	 0.380506
H	 0.9133865604	 2.0287189154	 0.0382182545	 0.129144
H	-0.6075329147	 1.938755696	-0.8691211291	 0.118352
H	-0.6291285667	 1.9255800722	 0.9047564746	 0.139377
H	-1.0102673	-0.3658309489	 0.0028640459	 0.116832
H	 0.5357550915	-0.3124185412	-2.1856809304	 0.106598
H	 2.5552387681	-1.7753573207	-1.4268861797	 0.111998
H	 3.3268914514	-2.3736154391	 2.0558326042	 0.151099
133.2489	180.0714	244.0841	307.1815	357.0133	486.2426	554.0568	587.759	658.0099	686.7591	725.6447	784.7314	806.5723	819.9386	872.7363	907.5807	955.235	958.2874	1020.2017	1081.2767	1095.435	1099.9871	1104.2855	1175.9867	1262.0317	1271.1287	1310.2112	1343.8891	1400.6179	1417.0168	1496.2291	1497.7142	1572.5827	1604.8853	1678.186	3020.4669	3043.0115	3116.3884	3124.9468	3203.1969	3229.4324	3269.0602
CC1C=CC2=CON=C12	C[C@H]1C=Cc2conc12	
InChI=1S/C7H7NO/c1-5-2-3-6-4-9-8-7(5)6/h2-5H,1H3	InChI=1S/C7H7NO/c1-5-2-3-6-4-9-8-7(5)6/h2-5H,1H3/t5-/m0/s1
