15
gdb 131456	3.27929	1.42498	1.07674	2.0575	67.78	-0.248	-0.0022	0.2457	1072.0991	0.113339	-453.896309	-453.888867	-453.887923	-453.92869	28.149	
O	 1.4301743138	 0.5290055218	 0.6100413186	-0.426645
C	 0.5421037435	-0.4074724334	 0.2268549705	 0.392582
N	 0.2454687463	-0.6017256709	-1.0322219552	-0.243549
O	-0.6944477037	-1.6357880592	-1.0290403975	-0.175355
C	-0.9170637799	-2.0133847614	 0.2382133177	 0.036657
C	-0.1717461908	-1.2851438732	 1.1111424525	 0.084905
N	-0.1719650519	-1.4320325064	 2.5111086952	-0.197778
C	 1.0859854326	-1.2326812604	 3.2465481034	-0.230584
C	-0.0101285919	-0.2356279501	 3.3510261513	-0.230585
H	 1.7547040783	 0.9695099099	-0.187600385	 0.313916
H	-1.6277981499	-2.8107049094	 0.3878942393	 0.158017
H	 1.2586580063	-1.9476958577	 4.0454833211	 0.123147
H	 1.9669275565	-0.9430568594	 2.6816172782	 0.136057
H	 0.1397072618	 0.7190370806	 2.855800868	 0.136067
H	-0.6508638411	-0.2107580007	 4.2274964718	 0.123146
58.0218	178.7532	185.4758	308.1081	336.9411	424.7427	466.1773	503.9944	597.9766	606.4875	727.6133	748.5496	818.7555	842.869	873.4303	903.2516	914.9829	959.9652	1044.3402	1109.1064	1131.9678	1149.7564	1157.6509	1181.7185	1213.3143	1229.8811	1294.7981	1358.4444	1481.6068	1490.7905	1513.1931	1563.5483	1677.928	3116.1999	3119.5153	3201.9964	3216.0042	3271.6606	3770.567
OC1=NOC=C1N1CC1	Oc1nocc1N1CC1	
InChI=1S/C5H6N2O2/c8-5-4(3-9-6-5)7-1-2-7/h3H,1-2H2,(H,6,8)	InChI=1S/C5H6N2O2/c8-5-4(3-9-6-5)7-1-2-7/h3H,1-2H2,(H,6,8)
