24
gdb 119967	3.1414	0.89561	0.79594	1.9562	86.41	-0.2194	0.0783	0.2977	1566.8729	0.216029	-405.517821	-405.506979	-405.506034	-405.554225	39.573	
C	 0.5915446079	 1.6237640504	-0.061140012	-0.382869
C	-0.3280258059	 0.5458004888	-0.6486965348	-0.200975
C	 0.3891067747	-0.3018766216	-1.68076041	-0.003826
C	 1.0970483875	-1.5797293985	-1.3598705702	-0.001218
C	 1.1728119865	-2.1919499684	 0.0227189763	-0.423243
N	-0.1340734208	-1.5806120919	-2.1726435917	-0.143859
C	-1.3730673247	-2.1350824742	-1.6293662922	-0.137219
C	-1.6352096407	-3.4840972781	-2.3006224988	-0.061849
O	-0.551981491	-4.383774796	-2.1238383214	-0.420361
H	 1.4353637085	 1.1753592918	 0.4731982175	 0.121223
H	 1.0020480609	 2.2636323338	-0.8498022702	 0.118528
H	 0.0502362001	 2.2655795776	 0.6403590053	 0.114147
H	-0.7364611832	-0.0701693358	 0.1573428778	 0.100357
H	-1.1907777409	 1.0263896211	-1.1290461823	 0.10272
H	 0.8178145023	 0.3041186742	-2.4815353478	 0.08131
H	 1.977643014	-1.8072373634	-1.9620067906	 0.082402
H	 0.4477347288	-1.7783514002	 0.7264541211	 0.121785
H	 1.0012290221	-3.272353542	-0.0356918515	 0.139754
H	 2.1702328201	-2.0267022268	 0.4423999052	 0.118307
H	-1.3602050978	-2.275881507	-0.5400620271	 0.093184
H	-2.198431085	-1.4511905861	-1.8636560948	 0.097064
H	-2.5134794426	-3.961314132	-1.8529129972	 0.100831
H	-1.8415283721	-3.3233988148	-3.3691650429	 0.091409
H	 0.1974748013	-3.9838400105	-2.5788533077	 0.292397
50.7986	72.2535	93.7284	136.7577	189.2084	206.7891	232.5012	270.1304	280.6088	317.976	423.1464	458.0849	481.9561	539.4937	582.4814	715.5971	770.5014	786.2973	835.4066	897.1694	926.5829	980.3494	1000.4454	1043.4877	1050.3533	1070.6076	1081.0379	1109.9461	1140.7268	1160.9276	1177.3063	1202.4028	1229.0226	1269.4516	1286.8121	1340.7227	1342.6772	1378.627	1394.4889	1401.7138	1408.8355	1414.8528	1421.9694	1448.4797	1478.7332	1491.0922	1494.3989	1498.1836	1499.4785	1507.2248	1512.3647	2994.5651	3006.4723	3022.6734	3033.8873	3039.4608	3056.5168	3069.5895	3076.9057	3083.4763	3087.7433	3101.8416	3106.4631	3108.1086	3126.7068	3807.056
CCC1C(C)N1CCO	CC[C@H]1[C@@H](C)N1CCO	
InChI=1S/C7H15NO/c1-3-7-6(2)8(7)4-5-9/h6-7,9H,3-5H2,1-2H3	InChI=1S/C7H15NO/c1-3-7-6(2)8(7)4-5-9/h6-7,9H,3-5H2,1-2H3/t6-,7+,8?/m1/s1
