17
gdb 32127	3.11292	1.27722	0.91135	3.7043	81.09	-0.2138	0.0084	0.2222	1246.58	0.138681	-414.262469	-414.253844	-414.2529	-414.296403	31.789	
C	-0.0621115913	 1.4384395784	-0.1103620838	-0.32153
N	-0.0009767015	 0.0084701701	 0.0591845672	-0.349875
C	 0.6413994836	-0.6302135017	 1.0725248016	 0.440108
N	 0.6165211069	-1.9817603441	 1.0092734684	-0.355133
C	 1.2353579951	-2.6116803556	 1.9972592581	 0.069674
N	 1.8748759504	-2.0907149258	 3.0421477871	-0.34215
C	 1.8957183619	-0.745800047	 3.0893959768	 0.406613
N	 2.5936249469	-0.1954445976	 4.1352189854	-0.567872
C	 1.2830633926	 0.0464021055	 2.1145324382	-0.310098
H	 0.9354599221	 1.8866921884	-0.2165408606	 0.129039
H	-0.631000142	 1.6629493648	-1.0143403872	 0.132358
H	-0.5648980094	 1.9281707368	 0.734137926	 0.129058
H	-0.3888629174	-0.5996655749	-0.6422284456	 0.250082
H	 1.2159090918	-3.6995954073	 1.9508094736	 0.104395
H	 2.7909204748	-0.8349233003	 4.8892896523	 0.25699
H	 2.3758048192	 0.7488853157	 4.4071596738	 0.250411
H	 1.3153676463	 1.1272566546	 2.1676733185	 0.077929
33.4131	132.4551	195.5251	198.0131	223.0017	379.8276	400.9735	415.923	461.7578	497.5553	507.1347	564.2939	591.3324	718.6789	779.0662	824.8727	835.3276	981.0091	989.3239	1008.2793	1079.0858	1108.618	1162.4478	1183.5809	1263.2255	1280.9446	1341.8413	1372.3816	1441.4164	1462.9418	1482.5781	1506.8667	1524.6957	1569.4051	1598.5639	1632.6851	1650.7747	3000.3265	3042.3908	3128.9508	3143.4707	3200.7354	3590.118	3657.3807	3710.7085
CNC1=NC=NC(N)=C1	CNc1ncnc(N)c1	
InChI=1S/C5H8N4/c1-7-5-2-4(6)8-3-9-5/h2-3H,1H3,(H3,6,7,8,9)	InChI=1S/C5H8N4/c1-7-5-2-4(6)8-3-9-5/h2-3H,1H3,(H3,6,7,8,9)
