20
gdb 76657	2.72666	1.0978	0.98921	2.3452	75.68	-0.2548	0.0559	0.3107	1312.281	0.169335	-440.320905	-440.310671	-440.309727	-440.356804	36.762	
C	 0.2308860428	 1.4138426276	 0.3768651994	-0.414706
C	 0.2078846242	-0.0576687252	 0.0259807359	-0.039298
C	 0.7103737753	-0.6020635994	-1.3066012141	-0.076961
C	 1.2619953641	 0.2833230861	-2.4036815517	-0.403758
C	 1.475890797	-0.8673952705	-0.0412386293	 0.116397
O	 2.7163343069	-0.1970723182	 0.0737444691	-0.265209
C	 3.2155584014	-0.1171033893	 1.3388105415	 0.497843
N	 4.3854087465	 0.5917933509	 1.3223413966	-0.566146
O	 2.690617882	-0.5823763743	 2.320611329	-0.393491
H	 1.1200802604	 1.9162107071	-0.0093773604	 0.123876
H	-0.6477491916	 1.9284574701	-0.0263747904	 0.113828
H	 0.2278192614	 1.542416927	 1.4641068387	 0.13217
H	-0.63795898	-0.5930837535	 0.4499638401	 0.088041
H	 0.1618913862	-1.4627666151	-1.6816541879	 0.0867
H	 1.883706091	 1.0892998017	-2.01035529	 0.126287
H	 1.8821115209	-0.3002646997	-3.0927825075	 0.117317
H	 0.4506159681	 0.7326818939	-2.9860635399	 0.116827
H	 1.4968963179	-1.8609214401	 0.3920357256	 0.108739
H	 4.8542513586	 0.7255565362	 0.4424129184	 0.263428
H	 4.9526183669	 0.5216444546	 2.149696977	 0.268117
38.0019	81.1631	123.3877	146.0101	160.1625	217.2995	232.5186	278.2443	369.7844	420.5252	448.2471	506.8309	550.5858	584.4171	677.5377	757.6125	777.1369	785.3509	869.2262	949.1177	956.1239	976.6063	1052.0782	1062.0906	1104.3266	1121.2663	1141.4228	1156.26	1180.8733	1185.729	1263.4819	1332.2912	1371.9994	1391.0872	1414.8186	1421.3931	1456.1838	1487.9129	1494.3837	1501.8654	1515.0758	1611.2723	1840.9777	3036.4627	3040.1533	3091.5421	3097.2511	3118.7391	3127.6315	3135.4011	3144.1644	3172.416	3612.2363	3740.7352
CC1C(C)C1OC(N)=O	C[C@H]1[C@@H](C)[C@H]1OC(=O)N	
InChI=1S/C6H11NO2/c1-3-4(2)5(3)9-6(7)8/h3-5H,1-2H3,(H2,7,8)	InChI=1S/C6H11NO2/c1-3-4(2)5(3)9-6(7)8/h3-5H,1-2H3,(H2,7,8)/t3-,4+,5-
