19
gdb 64565	3.19775	1.41227	1.23169	2.8393	75.09	-0.2389	-0.021	0.2179	1065.4777	0.159351	-423.017472	-423.009409	-423.008464	-423.050004	31.285	
C	-0.1660224845	 1.6369271671	 0.0176656662	-0.489441
C	-0.0057919538	 0.1265606746	 0.0373773808	 0.211344
C	-1.3248884098	-0.566648607	-0.2396697186	 0.119252
O	-2.3570537479	 0.0242033359	-0.4463214302	-0.26971
C	 1.1554163879	-0.6056607595	-0.7257963023	 0.032529
C	 2.4421844756	 0.1030595319	-0.2566017428	-0.227139
C	 2.127873329	 0.0896969632	 1.2725494586	-0.227148
C	 0.7628758658	-0.6224157722	 1.1842789672	 0.032551
O	 1.0507188423	-1.6960527999	 0.2385536548	-0.297482
H	 0.7683611449	 2.1637024167	 0.2142707378	 0.114768
H	-0.5494038514	 1.9628978446	-0.9533276389	 0.1357
H	-0.9023302951	 1.9478861664	 0.7641347221	 0.13571
H	-1.2806956588	-1.6727910104	-0.2404574357	 0.102906
H	 1.0690697796	-0.9197776541	-1.7665256714	 0.088725
H	 3.318807254	-0.4957258713	-0.5110847037	 0.115686
H	 2.5691417162	 1.1028068499	-0.6774358345	 0.10866
H	 2.8351967902	-0.5161732875	 1.8421008047	 0.115684
H	 2.0750113742	 1.081818354	 1.7260077754	 0.108666
H	 0.2741118616	-0.9537124523	 2.1011137804	 0.088739
88.7837	128.7406	228.3266	233.7057	317.3169	318.5509	383.5973	406.7079	532.3955	567.3432	722.5126	739.5878	787.6019	836.1578	867.3288	884.9071	913.2609	925.8402	947.1252	973.9159	1008.5409	1030.5772	1040.3532	1094.0307	1147.9917	1181.1376	1191.9694	1218.0204	1242.8234	1250.0156	1270.6986	1295.5809	1323.0585	1338.1957	1405.7602	1422.4131	1470.7597	1486.7467	1497.2739	1503.1434	1812.556	2950.7607	3056.9739	3073.0589	3079.5759	3116.0237	3116.8103	3118.9504	3121.8475	3131.52	3146.1193
CC1(C=O)C2CCC1O2	C[C@@]1(C=O)[C@H]2CC[C@@H]1O2	
InChI=1S/C7H10O2/c1-7(4-8)5-2-3-6(7)9-5/h4-6H,2-3H2,1H3	InChI=1S/C7H10O2/c1-7(4-8)5-2-3-6(7)9-5/h4-6H,2-3H2,1H3/t5-,6+,7-
