19
gdb 110271	3.00018	1.18135	1.05501	4.095	76.34	-0.2464	-0.0195	0.2268	1218.0385	0.158909	-423.015227	-423.006522	-423.005578	-423.048576	32.945	
C	-0.0055636474	 1.5759180319	-0.0565069169	-0.420447
C	 0.1217622239	 0.0656081906	-0.0470797057	-0.018936
C	 0.652580392	-0.7800602121	-1.1487863795	-0.082869
C	 1.4206826326	-0.6929619833	 0.2203934111	-0.191095
C	 2.5628485773	-0.1105168571	-0.5361836086	 0.419542
O	 3.7392948973	 0.012145918	-0.2943894038	-0.354488
C	 1.8132369652	-0.0935581202	-1.8893031317	-0.154649
C	 2.5992257243	-0.9469654374	-2.8940142636	-0.076962
O	 3.8188097043	-0.3257955653	-3.2326772675	-0.425057
H	 0.8316216691	 2.0668262492	-0.5568538291	 0.134141
H	-0.9267656122	 1.8799132088	-0.565090942	 0.125512
H	-0.0474610618	 1.9583883015	 0.9681356853	 0.129202
H	-0.6969467306	-0.4201746452	 0.4817244268	 0.103624
H	 0.133467724	-1.6573647194	-1.5146810481	 0.108002
H	 1.5006270528	-1.4051468573	 1.032829628	 0.110751
H	 1.6005029926	 0.8822318544	-2.3337089543	 0.099875
H	 2.7523676773	-1.9570835587	-2.4770803396	 0.087255
H	 2.0288286041	-1.0615623048	-3.822199205	 0.109148
H	 4.2823866752	-0.1605347935	-2.399471546	 0.297453
97.489	130.4773	159.4068	180.5162	216.0437	302.4955	353.5531	404.8542	452.1178	534.8228	556.269	641.736	695.8358	772.7022	803.9908	877.7233	900.7808	914.8101	935.8249	995.7505	1036.3971	1048.8934	1065.356	1086.204	1105.0687	1126.5512	1145.7912	1181.2561	1205.6121	1233.8121	1284.9814	1303.729	1346.9944	1385.8132	1417.2743	1436.1785	1452.9332	1493.3424	1502.2757	1513.3959	1835.1912	2959.3776	3041.4443	3060.8689	3078.5617	3101.7037	3117.694	3136.0421	3188.4762	3196.8329	3737.9364
CC1C2C1C(=O)C2CO	C[C@H]1[C@@H]2[C@H]1C(=O)[C@H]2CO	
InChI=1S/C7H10O2/c1-3-5-4(2-8)7(9)6(3)5/h3-6,8H,2H2,1H3	InChI=1S/C7H10O2/c1-3-5-4(2-8)7(9)6(3)5/h3-6,8H,2H2,1H3/t3-,4-,5-,6-/m0/s1
