20
gdb 82524	2.27319	1.61528	1.36456	2.5534	78.96	-0.2251	0.0676	0.2928	1065.9409	0.170384	-403.087424	-403.078596	-403.077651	-403.120374	34.238	
C	-0.0645127209	 1.5200865121	-0.0292438291	-0.513861
C	 0.0412261086	 0.0216667813	 0.0023738785	 0.193539
C	-0.8237936111	-0.8641492354	 0.8645880516	 0.057862
O	-1.5161488254	-1.9810152616	 0.3830331712	-0.419212
C	 0.6539966983	-0.9425179065	 1.0567953625	-0.148082
C	 1.2940454342	-1.7860178744	-0.058576273	-0.301023
C	 0.6691462225	-0.8341008211	-1.0901950869	 0.333932
C	 0.1746346538	-1.0697591091	-2.4624918665	-0.314861
N	 1.432207354	-0.3214406173	-2.2235618521	-0.378751
H	 0.8988737371	 1.9884121653	-0.2628736562	 0.124848
H	-0.7913901471	 1.8607310249	-0.7782812091	 0.116489
H	-0.3915167975	 1.9102622154	 0.9396431606	 0.125019
H	-1.3474025028	-0.3217437502	 1.6546501445	 0.081495
H	-2.1946230872	-1.6739182869	-0.2268322553	 0.285381
H	 1.1199226376	-0.7070267921	 2.0065408142	 0.08743
H	 2.3835493923	-1.7151054208	-0.0734568006	 0.112389
H	 0.9861426456	-2.8332097312	-0.0988028802	 0.112184
H	 0.3065682672	-2.0403053332	-2.9331374167	 0.119371
H	-0.7010116663	-0.5190811913	-2.8007675552	 0.098687
H	 1.2675012172	 0.6765103923	-2.3396980222	 0.227164
103.4327	182.5976	194.4072	219.8033	233.9171	238.2541	299.0633	379.8038	395.9708	521.8661	542.5145	605.586	653.4718	769.3926	813.7765	844.5885	886.2835	908.4822	931.7672	956.3499	980.4159	1011.3403	1029.0552	1043.3874	1083.9538	1108.3796	1115.7141	1148.824	1169.5827	1207.2305	1247.0757	1256.9587	1266.0352	1286.6593	1318.9176	1349.3305	1412.9796	1416.4858	1457.3991	1487.1167	1488.0205	1498.9837	1514.4364	3014.1361	3068.6368	3069.7643	3081.133	3095.839	3098.1139	3126.0842	3178.5365	3181.4526	3484.4937	3812.1701
CC12C(O)C1CC21CN1	C[C@]12[C@@H](O)[C@H]1C[C@]12CN1	
InChI=1S/C7H11NO/c1-6-4(5(6)9)2-7(6)3-8-7/h4-5,8-9H,2-3H2,1H3	InChI=1S/C7H11NO/c1-6-4(5(6)9)2-7(6)3-8-7/h4-5,8-9H,2-3H2,1H3/t4-,5+,6-,7-/m1/s1
