22
gdb 118193	2.29255	0.97397	0.71853	6.4126	79.95	-0.2444	0.0331	0.2774	1608.4552	0.193224	-441.529545	-441.519148	-441.518204	-441.56568	37.479	
C	 0.0748873435	 1.5320240867	 0.1306056085	-0.396095
C	 0.052649707	 0.0065642808	 0.1203027891	-0.123315
N	 0.5683560982	-0.5148511157	-1.1515874783	-0.305808
H	 0.02725875	-0.1244902936	-1.9206619196	 0.222754
H	 2.2836466729	-0.3678131516	-1.5010327048	 0.303149
C	 0.6009576949	-1.9883081954	-1.2832900423	 0.033879
C	-0.7844775724	-2.6267173405	-1.4448934888	-0.400445
C	 1.5251743169	-2.363992485	-2.4570946968	-0.345359
C	 2.9894350052	-1.9266607332	-2.3189132037	 0.393199
O	 3.1759714957	-0.720583069	-1.7680113364	-0.374934
O	 3.9049349583	-2.6080185172	-2.7006479466	-0.334685
H	 1.0885647195	 1.9106360756	-0.0290496754	 0.137263
H	-0.5686282074	 1.9425559699	-0.6559306082	 0.11805
H	-0.2902542843	 1.9133014877	 1.0883012171	 0.127001
H	 0.6965131084	-0.3828693229	 0.9174239785	 0.120941
H	-0.9671866875	-0.3494234023	 0.334005539	 0.098644
H	 1.0535549369	-2.3615134164	-0.3554492232	 0.103139
H	-0.7061089468	-3.7172797188	-1.4875736495	 0.130548
H	-1.4464279932	-2.3738549536	-0.6118718535	 0.123449
H	-1.2606556364	-2.2901876083	-2.3736261197	 0.115756
H	 1.5288142013	-3.4448132367	-2.6096624714	 0.133383
H	 1.1287873493	-1.9166765505	-3.3801995742	 0.119487
62.0015	69.6802	107.3928	122.8201	189.9964	223.7611	245.6427	275.5955	330.7206	363.6096	404.9459	455.2296	512.7157	603.1464	701.4773	776.2173	815.7091	872.2871	884.7388	907.6063	935.5935	965.4251	1013.3936	1049.1913	1079.6872	1107.396	1135.0379	1155.3714	1177.605	1246.3911	1284.9208	1299.7033	1301.4057	1355.1984	1366.5594	1401.5459	1411.4346	1420.0011	1456.2873	1477.3884	1492.6776	1494.542	1497.3823	1505.076	1510.2501	1524.6363	1858.2469	2981.6734	3013.8875	3028.7018	3035.5764	3036.3634	3056.1649	3100.4925	3105.1679	3113.5142	3120.1106	3122.8152	3174.0301	3479.586
CC[NH2+]C(C)CC([O-])=O	CCN[C@@H](C)CC(=O)O	
InChI=1S/C6H13NO2/c1-3-7-5(2)4-6(8)9/h5,7H,3-4H2,1-2H3,(H,8,9)	InChI=1S/C6H13NO2/c1-3-7-5(2)4-6(8)9/h5,7H,3-4H2,1-2H3,(H,8,9)/t5-/m0/s1
