19
gdb 8292	5.26009	1.0344	0.97112	2.3733	76.11	-0.2444	0.0334	0.2778	1293.3985	0.164435	-365.072124	-365.063291	-365.062347	-365.106519	31.568	
C	-0.5737640667	 1.4222786329	-0.0141931013	-0.358498
C	 0.0216160702	 0.0220479022	 0.1404667072	-0.148329
N	 0.6294957548	-0.411106977	-1.1154818104	-0.331486
C	 1.8062799463	-0.8322901503	-1.1157605725	 0.46132
C	 2.7575650522	-1.3486039243	-2.1721451587	-0.39872
C	 3.7341600283	-1.5154406047	-0.9850278984	 0.151169
C	 4.9933647304	-0.678260025	-0.9656580742	-0.398019
O	 2.7096787041	-0.9897421936	-0.0728083032	-0.278735
H	 0.209900917	 2.1574183142	-0.2227760823	 0.114889
H	-1.2866634248	 1.4461207961	-0.843370814	 0.123327
H	-1.0916076755	 1.7252203902	 0.9015355006	 0.106328
H	 0.7299838908	 0.0011986452	 0.9790296148	 0.107526
H	-0.7829454083	-0.6855166167	 0.3797081566	 0.10525
H	 2.4393380469	-2.2660799529	-2.6698867452	 0.133821
H	 3.0529913446	-0.6115469872	-2.9220860891	 0.131248
H	 3.9438555356	-2.5574339424	-0.7232134739	 0.09304
H	 4.7734307396	 0.3609478059	-1.2288439758	 0.12763
H	 5.4515523868	-0.6934702293	 0.0276501044	 0.133901
H	 5.7199713277	-1.0731799534	-1.6836979146	 0.124338
29.9618	84.2951	152.8486	168.4133	236.2771	264.1748	334.5099	365.3564	444.8182	506.2135	577.1693	712.5813	797.1338	824.4427	888.7839	906.1555	906.9303	970.1324	1042.8292	1063.8356	1080.3305	1106.077	1121.4204	1134.1955	1181.3158	1200.1324	1241.7906	1302.2341	1319.1012	1380.9258	1383.1938	1406.102	1413.2976	1467.6397	1484.4034	1488.502	1493.3019	1495.3074	1510.5999	1842.4881	3008.5199	3036.7173	3037.0156	3043.7606	3056.6432	3080.0843	3107.2888	3110.276	3116.738	3117.5365	3134.9873
CCN=C1CC(C)O1	CCN=C1C[C@@H](C)O1	
InChI=1S/C6H11NO/c1-3-7-6-4-5(2)8-6/h5H,3-4H2,1-2H3	InChI=1S/C6H11NO/c1-3-7-6-4-5(2)8-6/h5H,3-4H2,1-2H3/t5-/m1/s1
