20
gdb 79759	2.65503	1.96328	1.82377	1.5211	79.79	-0.2192	0.0856	0.3048	901.5002	0.174973	-366.003673	-365.997034	-365.99609	-366.034218	28.448	
C	-0.1832627231	 1.5367888516	 0.0329774237	-0.399399
C	-0.014089808	 0.0189588509	-0.0235542538	 0.045567
C	 0.5251930611	-0.5604120693	-1.3275750657	-0.074071
C	 2.015777483	-0.4799244947	-1.5509807522	-0.070755
C	 2.8437522505	 0.2020371248	-0.4730475951	-0.246658
C	 2.319242967	-0.3889491214	 0.8259531301	-0.047142
C	 1.5953975848	-1.6650680712	 0.5322921264	-0.058721
C	 1.3994554916	-1.7444613084	-0.9725657167	-0.082044
N	 0.8641706748	-0.4935773505	 1.0509402833	-0.124537
H	 0.7529970563	 2.0639717962	-0.1648821307	 0.119171
H	-0.9160345475	 1.8652000468	-0.7110709725	 0.112188
H	-0.5416253588	 1.8392412725	 1.0211013981	 0.125176
H	-0.9976210743	-0.4348943952	 0.1620215004	 0.078111
H	-0.1237329248	-0.5896207531	-2.1971139506	 0.079965
H	 2.3715315347	-0.4625123151	-2.5754758146	 0.081417
H	 3.9032533042	-0.0621244908	-0.5825507588	 0.102192
H	 2.7819752735	 1.2948974451	-0.503719286	 0.106517
H	 2.8934525118	-0.2350893636	 1.7358078879	 0.085386
H	 1.6388330477	-2.5589529176	 1.1442419229	 0.084658
H	 1.3716595554	-2.6915071071	-1.4942313361	 0.08298
193.6134	209.8159	259.1832	363.6145	492.7148	530.0256	636.101	652.3602	706.3363	740.7892	772.9715	778.0253	805.6238	836.8227	874.8551	918.3527	934.6376	963.5562	992.4431	1006.9784	1012.6768	1042.9774	1064.7985	1081.6017	1092.9415	1106.7304	1108.9521	1134.8963	1157.5567	1208.8657	1253.8093	1280.4661	1300.2374	1308.4711	1330.9828	1337.7802	1368.5989	1397.3237	1409.4871	1422.9483	1486.3871	1497.702	1504.0893	3001.8376	3028.582	3045.6461	3069.6035	3110.957	3129.7645	3138.3278	3155.1363	3167.7493	3171.5109	3206.1887
CC1C2C3CC4C(C23)N14	C[C@H]1[C@H]2[C@H]3C[C@@H]4[C@H]([C@@H]23)N14	
InChI=1S/C8H11N/c1-3-6-4-2-5-8(7(4)6)9(3)5/h3-8H,2H2,1H3	InChI=1S/C8H11N/c1-3-6-4-2-5-8(7(4)6)9(3)5/h3-8H,2H2,1H3/t3-,4+,5+,6-,7+,8+,9?/m0/s1
