20
gdb 8173	2.83692	2.36903	1.63917	0.3836	80.1	-0.2104	0.0262	0.2366	885.5336	0.177419	-311.85156	-311.843903	-311.842959	-311.882829	30.665	
C	 0.0213983353	 1.4559657874	 0.038933076	-0.518441
C	 0.0064929806	-0.0329469845	-0.0055797378	 0.315928
C	-0.0126692473	-0.8870770821	-1.0341609798	-0.199238
C	-0.0189003458	-2.2655908545	-0.3619038075	-0.067025
C	 1.0609788924	-2.0391131292	 0.7480537541	-0.238408
C	 0.0106935206	-0.9728872642	 1.2306940473	 0.253838
C	 0.0313509639	-0.3762685053	 2.6201026438	-0.509287
C	-1.0701512399	-2.0184397944	 0.7709054978	-0.238401
H	 0.9096580211	 1.8380687632	 0.5588332589	 0.124297
H	 0.0137417044	 1.880137459	-0.9693167065	 0.123127
H	-0.8468908154	 1.8550577895	 0.5793785422	 0.124282
H	-0.0220627284	-0.6851638046	-2.0966714298	 0.089502
H	-0.034265595	-3.1563466581	-0.9891043961	 0.055411
H	 1.164023383	-2.8823855482	 1.4405075035	 0.084198
H	 2.0412125269	-1.6736092839	 0.4308172448	 0.085849
H	 0.9231483788	 0.2410052092	 2.7787001233	 0.115379
H	-0.8452887541	 0.257249013	 2.7979910027	 0.115384
H	 0.0324684201	-1.1606807947	 3.3839660363	 0.113558
H	-2.0496859296	-1.6339204725	 0.4746847615	 0.085848
H	-1.1746628714	-2.8596912954	 1.4655938153	 0.084199
156.2061	185.2266	204.6013	227.1217	302.9491	365.7361	492.8479	507.1336	574.9062	590.2883	641.7187	768.9667	781.3461	830.3299	843.8057	877.3427	906.5237	949.4102	989.3986	994.7554	1037.2382	1056.0162	1060.8746	1076.9352	1114.0983	1174.8467	1189.2419	1193.6055	1228.5237	1239.321	1258.757	1282.527	1331.6894	1407.8732	1416.0174	1474.7397	1476.5762	1481.0259	1494.4504	1495.0427	1514.3905	1692.1899	3011.0328	3023.6818	3028.6504	3040.691	3053.7699	3085.8727	3093.9229	3102.4915	3103.4992	3108.0725	3119.1016	3220.6873
CC1=CC2CC1(C)C2	CC1=C[C@H]2C[C@]1(C)C2	
InChI=1S/C8H12/c1-6-3-7-4-8(6,2)5-7/h3,7H,4-5H2,1-2H3	InChI=1S/C8H12/c1-6-3-7-4-8(6,2)5-7/h3,7H,4-5H2,1-2H3/t7-,8+
