15
gdb 85126	1.8824	1.65326	1.37295	3.0142	62.21	-0.271	-0.0599	0.2111	1033.5182	0.109057	-494.927718	-494.918492	-494.917547	-494.962054	31.922	
C	-0.3351787184	 1.3120909886	 0.0007250284	-0.40116
C	 0.1350395676	-0.1191903848	 0.0294890234	 0.102357
O	 1.4106148145	-0.3037531048	-0.7164475597	-0.248891
C	 2.0885425734	-0.6244376453	 0.4070617541	 0.400161
O	 3.2578659102	-0.7609588028	 0.5806701946	-0.326744
C	 0.8372849257	-0.6232255686	 1.3197241053	 0.087848
O	 0.8993221889	 0.2143331179	 2.4400843864	-0.464579
C	 0.4061097403	-2.0242393814	 1.7526759314	 0.127226
O	-0.1363414077	-2.8165278851	 1.0308667985	-0.235579
H	 0.4121843786	 1.9857800534	 0.4261272187	 0.129651
H	-0.5461042508	 1.6179898052	-1.0274347576	 0.141601
H	-1.254116511	 1.4082485633	 0.5866700855	 0.14166
H	-0.5954113386	-0.829005957	-0.3600902328	 0.129284
H	 1.8049337064	 0.526994116	 2.5465818743	 0.310561
H	 0.645775191	-2.2353684845	 2.8158313093	 0.106604
84.6761	93.3377	149.8069	183.578	190.2654	199.7044	247.2292	269.2805	387.167	465.7114	588.5118	601.1159	677.3591	725.9709	773.4711	847.4827	869.5098	1009.0009	1045.7347	1079.8146	1082.7966	1156.3779	1190.6142	1229.0307	1316.3816	1338.1552	1373.1735	1396.5214	1416.2709	1481.4845	1487.1482	1829.4035	1924.7409	2924.6677	3051.1731	3116.2509	3125.1326	3138.9824	3803.4469
CC1OC(=O)C1(O)C=O	C[C@H]1OC(=O)[C@]1(O)C=O	
InChI=1S/C5H6O4/c1-3-5(8,2-6)4(7)9-3/h2-3,8H,1H3	InChI=1S/C5H6O4/c1-3-5(8,2-6)4(7)9-3/h2-3,8H,1H3/t3-,5+/m1/s1
