20
gdb 128292	2.19162	1.46138	0.89299	1.5168	85.37	-0.1823	0.0412	0.2235	1339.4105	0.171141	-399.353067	-399.342991	-399.342047	-399.388958	35.359	
C	-0.0072672034	 1.4237270668	-0.1271184158	-0.309879
N	-0.1401471728	-0.0247057453	-0.1331807991	-0.37645
C	 0.5599244307	-0.7385786837	-1.0963155939	 0.354747
N	 1.1152273837	-0.1368264789	-2.1466534384	-0.369531
N	 1.641114808	-1.1525977859	-2.8809641474	 0.045751
C	 2.3026009958	-0.8589407105	-4.1273902922	-0.313442
C	 1.4312295705	-2.3578485264	-2.3018373034	-0.111396
C	 0.7291957486	-2.1512239161	-1.1326458281	 0.102755
C	 0.2408248897	-3.1541128492	-0.1361370517	-0.522266
H	 1.0306113532	 1.7676295098	-0.0035865673	 0.111689
H	-0.3719064246	 1.8236344478	-1.0764625694	 0.14437
H	-0.6186765468	 1.831789643	 0.6817447911	 0.109672
H	-0.0737876239	-0.4407919206	 0.7844441308	 0.231966
H	 2.7098593835	-1.784732752	-4.5384931668	 0.131283
H	 1.6017644996	-0.4252668952	-4.8485773908	 0.139255
H	 3.1193826907	-0.1484270434	-3.9676128656	 0.141044
H	 1.7864366454	-3.2700350245	-2.7576568617	 0.122811
H	 0.7088501983	-3.0253589616	 0.8494700344	 0.116434
H	-0.8433025716	-3.0806511509	 0.0143084056	 0.129035
H	 0.4598046554	-4.1745110631	-0.4631499003	 0.122152
32.4711	94.8427	129.9502	149.8569	173.621	183.4858	239.7285	244.2306	340.6658	364.6711	520.279	563.7818	604.2499	609.3282	669.8917	738.0724	787.3741	849.6486	994.8737	1026.562	1064.6022	1075.1907	1079.5952	1148.933	1152.1854	1172.4967	1203.5485	1239.6067	1339.3917	1384.5047	1417.2587	1449.1995	1456.0461	1469.1304	1470.3513	1479.6543	1483.1787	1490.966	1504.5819	1516.65	1533.7353	1572.8093	1635.2528	2992.4376	3007.7178	3035.0679	3053.0989	3083.7338	3093.5982	3103.9388	3126.249	3136.147	3243.5001	3590.4156
CNC1=NN(C)C=C1C	CNc1nn(C)cc1C	
InChI=1S/C6H11N3/c1-5-4-9(3)8-6(5)7-2/h4H,1-3H3,(H,7,8)	InChI=1S/C6H11N3/c1-5-4-9(3)8-6(5)7-2/h4H,1-3H3,(H,7,8)
