20
gdb 94382	2.84666	1.4701	1.20882	1.5396	77.97	-0.226	0.0645	0.2904	1092.642	0.171702	-403.083894	-403.075835	-403.074891	-403.116338	32.001	
O	 0.5660016352	 0.6876530827	-0.7929177784	-0.428385
C	 0.1557958807	-0.3278635378	 0.0889188337	 0.08925
C	-0.0039910914	-0.0473513863	 1.6046936562	-0.266955
C	-1.2080686855	-1.0299573756	 1.5966983026	-0.306959
C	-1.3114691451	-0.8436161697	 0.0629923027	 0.334028
C	-2.4619813903	 0.0502028931	-0.479047361	-0.240894
N	-3.0000715829	-1.0565826898	-1.3469548034	-0.125276
C	-1.8996752234	-1.4028975259	-2.2660122985	-0.245783
C	-1.8352262069	-1.914209371	-0.8808098559	-0.132764
H	 0.0449069664	 1.4753813345	-0.6042560166	 0.279175
H	 0.8450665174	-1.1616175615	-0.0836107082	 0.093076
H	 0.8421225732	-0.2578722845	 2.2618107794	 0.104743
H	-0.3338268203	 0.9834882952	 1.7773563174	 0.095966
H	-0.9038085043	-2.0478676809	 1.8593801468	 0.107061
H	-2.0852197717	-0.7649831615	 2.1917935038	 0.10572
H	-3.1980425784	 0.3216112008	 0.2818167826	 0.111316
H	-2.1851648058	 0.946510644	-1.0473883065	 0.090601
H	-2.2053865502	-2.0955867086	-3.0440116827	 0.119117
H	-1.2062054926	-0.6272974753	-2.583183974	 0.126988
H	-1.9640447041	-2.964236522	-0.6335487901	 0.089974
104.9866	121.8967	197.4634	271.9067	306.1363	346.4685	423.847	446.0625	510.1226	565.3718	664.7058	747.6818	785.41	793.5221	852.1858	870.5736	906.2189	939.3493	969.4865	974.6295	986.8756	1052.5555	1066.6252	1110.0914	1117.5394	1123.6291	1150.7858	1161.5303	1183.4554	1205.4039	1224.1594	1233.9165	1255.1035	1264.2358	1286.4811	1297.879	1316.5534	1376.0241	1430.0447	1478.8478	1484.5821	1498.2666	1506.1386	3023.7976	3042.1012	3052.9606	3058.3532	3095.686	3104.3104	3108.8957	3116.3706	3149.2956	3202.4027	3805.6191
OC1CCC11CN2CC12	O[C@H]1CC[C@]21CN1C[C@@H]21	
InChI=1S/C7H11NO/c9-6-1-2-7(6)4-8-3-5(7)8/h5-6,9H,1-4H2	InChI=1S/C7H11NO/c9-6-1-2-7(6)4-8-3-5(7)8/h5-6,9H,1-4H2/t5-,6-,7-,8?/m0/s1
