23
gdb 58741	3.51454	1.05049	0.96589	1.5395	86.57	-0.2553	0.074	0.3293	1352.9239	0.204623	-388.253872	-388.24425	-388.243306	-388.287957	37.386	
C	 0.0207352555	 1.5230682288	-0.0027353101	-0.406822
C	-0.0553125094	-0.0046256093	 0.0295140923	-0.01506
O	 0.6667219042	-0.5383869366	 1.1394059136	-0.428685
C	-1.4759648274	-0.5216701463	 0.0195763782	 0.363578
C	-2.5866656267	-0.2683057201	-1.0440795289	-0.305818
C	-3.2443644244	-1.1927408412	 0.0274854233	 0.331197
C	-4.6525618608	-1.7244882707	 0.0348283067	-0.507316
C	-1.9184643436	-2.0134758131	 0.0154629917	-0.294876
C	-2.5764577875	-0.2823878909	 1.1052959104	-0.309412
H	 1.0645487534	 1.846803844	 0.0225644645	 0.122169
H	-0.4487485611	 1.9250610966	-0.9060951364	 0.118557
H	-0.4937920954	 1.9560824271	 0.8636318928	 0.107755
H	 0.4638785923	-0.4065200127	-0.8502887038	 0.085874
H	 0.2264041222	-0.2316101105	 1.9400938687	 0.276492
H	-2.9779672227	 0.7512231459	-1.117792217	 0.084776
H	-2.4237163656	-0.7057419208	-2.0341916061	 0.085479
H	-4.846763901	-2.3369103697	-0.8526861208	 0.117938
H	-4.8335680079	-2.3479224556	 0.917498351	 0.117558
H	-5.3834780652	-0.9082506396	 0.0451580955	 0.116327
H	-1.7033645553	-2.5832290599	-0.8941080561	 0.083259
H	-1.68736046	-2.5928923471	 0.913393834	 0.089381
H	-2.4094013833	-0.737902365	 2.0871222669	 0.082281
H	-2.9702446503	 0.7346353166	 1.1980230099	 0.085367
62.442	139.2523	156.611	205.9766	243.5718	275.7002	289.2558	307.279	352.7239	441.3614	484.4275	544.5597	554.9762	616.722	651.8697	781.2333	792.7489	891.9608	924.7402	944.4968	959.387	964.7666	994.3918	1015.2334	1054.9076	1075.676	1077.4616	1101.4932	1121.2529	1141.4281	1146.6942	1159.3394	1174.9975	1206.9933	1212.5759	1293.0941	1304.9428	1334.6262	1370.9978	1399.9435	1411.9278	1419.333	1489.4955	1489.8194	1491.8146	1493.2011	1495.0581	1498.0278	1559.5893	3024.4367	3025.8373	3029.9283	3031.4765	3035.8824	3046.8586	3091.6314	3092.7212	3094.402	3098.5921	3101.0332	3109.1365	3120.3923	3796.3483
CC(O)C12CC(C)(C1)C2	C[C@@H](O)[C@@]12C[C@@](C)(C1)C2	
InChI=1S/C8H14O/c1-6(9)8-3-7(2,4-8)5-8/h6,9H,3-5H2,1-2H3	InChI=1S/C8H14O/c1-6(9)8-3-7(2,4-8)5-8/h6,9H,3-5H2,1-2H3/t6-,7-,8-/m1/s1
