17
gdb 83373	2.20334	2.03128	1.59038	1.0436	61.8	-0.2505	0.0578	0.3083	905.3916	0.137329	-496.091425	-496.084063	-496.083119	-496.122738	29.729	
O	-0.0388695658	 1.360008851	-0.159651073	-0.463467
C	-0.0302091114	-0.0416929769	-0.0345494221	 0.055769
C	 0.3284447508	-0.6057779486	 1.3412868327	 0.165892
O	-0.6529024206	 0.0046746903	 2.1795886869	-0.288818
C	-1.8893229071	-0.0989428284	 1.4340865603	-0.147253
C	-1.4421034018	-0.6812598477	 0.0666313674	 0.310117
O	-2.3267481676	-0.5117607752	-0.9953073338	-0.496023
C	-1.033437181	-2.1355816141	 0.3139987325	-0.104245
O	 0.0983040608	-1.9912978854	 1.2088787849	-0.270247
H	-0.1741640168	 1.7199420357	 0.7264604617	 0.297258
H	 0.5633403704	-0.4579880265	-0.8512101741	 0.102141
H	 1.3121405945	-0.4371209381	 1.7755164037	 0.102265
H	-2.5941514081	-0.7507379891	 1.960102176	 0.117413
H	-2.339274052	 0.8942106332	 1.3229965066	 0.100623
H	-2.2627566354	 0.412177315	-1.2692006713	 0.290712
H	-1.8097268807	-2.7327365464	 0.8028400941	 0.115172
H	-0.7263315281	-2.6330301487	-0.6135093325	 0.112689
190.1319	208.8677	237.1393	338.1727	364.5409	373.1686	438.3782	474.6999	495.0409	582.5411	617.6487	652.0467	781.0659	826.2356	892.196	927.528	950.6813	964.4934	992.6862	1028.216	1065.5926	1107.1487	1136.5239	1156.6523	1186.3831	1212.8948	1230.6734	1247.9686	1295.313	1299.5967	1321.4644	1363.8792	1385.097	1419.4973	1435.1614	1517.591	1534.2183	3030.3069	3033.3817	3078.655	3083.9226	3101.5723	3151.2652	3773.6546	3776.4775
OC1C2OCC1(O)CO2	O[C@H]1[C@H]2OC[C@]1(O)CO2	
InChI=1S/C5H8O4/c6-3-4-8-1-5(3,7)2-9-4/h3-4,6-7H,1-2H2	InChI=1S/C5H8O4/c6-3-4-8-1-5(3,7)2-9-4/h3-4,6-7H,1-2H2/t3-,4-,5-/m0/s1
