15
gdb 124916	2.01706	1.8842	0.98015	2.7574	77.47	-0.2133	0.0049	0.2182	1140.1534	0.112082	-416.811098	-416.802296	-416.801352	-416.84478	32.272	
C	-0.0412006058	 1.493527718	 0.1042277991	-0.516982
C	 0.0277365154	 0.0116685573	-0.0425721417	 0.282969
C	 0.0164704697	-0.7804382651	-1.1902258974	-0.051629
C	-0.0646098992	-0.3514921652	-2.5303050302	 0.228239
C	-0.1340808803	 0.0240382188	-3.6732470527	-0.444626
C	 0.1062450181	-2.1101998204	-0.6860039315	 0.320821
O	 0.1288006264	-3.2196570052	-1.4438691271	-0.420444
N	 0.1672775155	-2.1540178152	 0.6310767801	-0.33017
N	 0.1177550261	-0.8415736388	 0.9988270374	-0.268563
H	 0.8470401448	 1.8924417685	 0.6067875564	 0.14009
H	-0.1068018056	 1.9512693194	-0.8845655637	 0.160219
H	-0.9193424339	 1.8027519459	 0.6821540653	 0.140153
H	-0.1945975924	 0.3416475246	-4.6841191914	 0.182244
H	 0.1941487753	-3.9733443026	-0.8435116844	 0.30387
H	 0.1488603758	-0.6133839099	 1.9772434216	 0.273809
56.1358	126.8479	139.6887	208.2498	273.2258	352.6398	393.7652	414.484	430.4101	481.0428	531.6966	548.186	579.7442	651.2504	662.2704	673.196	749.7033	804.8267	1000.203	1055.5492	1059.8175	1143.3008	1225.216	1277.3607	1327.5922	1413.6413	1445.0297	1485.1617	1491.5495	1541.0872	1567.7451	1621.1408	2231.2999	3032.9771	3085.6104	3136.9062	3505.1321	3682.3531	3792.1911
CC1=C(C#C)C(O)=NN1	Cc1c(C#C)c(O)n[nH]1	
InChI=1S/C6H6N2O/c1-3-5-4(2)7-8-6(5)9/h1H,2H3,(H2,7,8,9)	InChI=1S/C6H6N2O/c1-3-5-4(2)7-8-6(5)9/h1H,2H3,(H2,7,8,9)
