13
gdb 132639	3.21663	1.42486	0.9885	2.8446	64.8	-0.2171	-0.0351	0.1821	1076.7193	0.090678	-494.096989	-494.089706	-494.088762	-494.128645	27.836	
N	 0.015030857	 1.4199465836	 0.1986439903	-0.603282
C	-0.0227100383	 0.0314111926	 0.0582826017	 0.11658
C	-1.1871218206	-0.7354710061	 0.0482602179	-0.042322
N	-1.1991973535	-2.0693669066	-0.0204652806	-0.292173
C	-0.0144093731	-2.655287386	-0.0797278237	 0.447283
O	-0.0115760539	-3.9972884148	-0.1429486268	-0.395981
N	 1.1772276424	-2.0422196462	-0.0870417214	-0.400512
C	 1.1432076564	-0.7371633243	-0.0196507134	 0.305382
F	 2.3113755971	-0.0961271883	-0.0357324765	-0.071506
H	 0.8693953212	 1.8346309274	-0.1461884936	 0.258558
H	-0.7967956368	 1.8946261868	-0.1712532945	 0.254019
H	-2.1574165021	-0.2447122505	 0.0979397587	 0.116667
H	 0.9140031143	-4.2703690675	-0.1811668879	 0.307286
130.1227	240.6594	246.4575	285.431	363.2731	383.5731	465.502	503.2156	519.8266	569.293	593.6672	656.3171	721.4829	779.9445	805.3203	822.5688	956.1435	1015.2229	1099.7544	1215.6418	1256.1043	1308.685	1350.3519	1420.4624	1475.3689	1520.9352	1613.3682	1644.7142	1681.5916	3147.7326	3556.3044	3654.5545	3799.3795
NC1=CN=C(O)N=C1F	Nc1cnc(O)nc1F	
InChI=1S/C4H4FN3O/c5-3-2(6)1-7-4(9)8-3/h1H,6H2,(H,7,8,9)	InChI=1S/C4H4FN3O/c5-3-2(6)1-7-4(9)8-3/h1H,6H2,(H,7,8,9)
