17
gdb 42682	3.06156	1.7173	1.71342	1.3082	69.84	-0.2384	-0.0222	0.2162	874.8612	0.139345	-421.840733	-421.834576	-421.833632	-421.871082	25.864	
O	 0.090959708	 0.0085041062	 0.0068604158	-0.328626
C	 0.0236595126	 1.2058990178	 0.0095687363	 0.436371
C	-1.1824651432	 2.134096436	 0.0195412012	-0.192133
C	-0.8086406408	 3.2657999938	 1.028005221	 0.098238
C	 0.7098676432	 3.0703406926	 1.2670965292	-0.240686
C	 1.132049673	 2.2750877971	 0.0042378125	-0.150778
C	 0.692932487	 3.075306922	-1.2496695662	-0.240686
C	-0.8222207605	 3.269776399	-0.9893931026	 0.098235
O	-0.9999670134	 4.2889900003	 0.0225607261	-0.297388
H	-2.1843265195	 1.7173852509	 0.0254721834	 0.094522
H	-1.4117213226	 3.4365045328	 1.9211318722	 0.089534
H	 1.2079257674	 4.0381726517	 1.3651530171	 0.117523
H	 0.8972412748	 2.4837580508	 2.1737548988	 0.111443
H	 2.1497996312	 1.8896788792	-0.0033653039	 0.085937
H	 1.1896489025	 4.0435327849	-1.3505998546	 0.117521
H	 0.8680676265	 2.4923157541	-2.1610792398	 0.11144
H	-1.4372614264	 3.4439851107	-1.8736426566	 0.089533
147.5642	297.7672	360.6203	436.3599	469.972	556.3311	583.4966	690.4017	777.7656	804.4406	838.3364	850.764	868.6813	876.8527	893.1073	921.2084	932.0926	989.3766	1017.4751	1023.3196	1078.4854	1108.4085	1119.4166	1140.9378	1151.4226	1214.9924	1221.3831	1252.8555	1259.7609	1299.6467	1305.7416	1331.6225	1343.7722	1355.4654	1467.543	1482.4413	1877.9577	3043.7952	3043.8919	3099.6848	3101.9144	3105.5212	3107.1605	3137.151	3178.2888
O=C1C2C3CC1CC2O3	O=C1[C@H]2[C@H]3C[C@@H]1C[C@@H]2O3	
InChI=1S/C7H8O2/c8-7-3-1-4-6(7)5(2-3)9-4/h3-6H,1-2H2	InChI=1S/C7H8O2/c8-7-3-1-4-6(7)5(2-3)9-4/h3-6H,1-2H2/t3-,4-,5+,6+
