21
gdb 100887	1.93315	1.16764	0.87731	3.5721	79.5	-0.2388	0.0251	0.2639	1442.2385	0.180928	-420.410396	-420.399522	-420.398577	-420.446636	38.523	
C	-0.1261631567	 1.4724699297	-0.2312185504	-0.383685
C	 0.0163977911	-0.0389737219	-0.0317413272	-0.20865
C	 0.6986917228	-0.7316558129	-1.2141409112	 0.117942
O	 2.0030092459	-0.2287393788	-1.471539948	-0.435136
C	 0.7637009322	-2.2833719687	-1.0786622358	-0.139873
N	 1.3261493882	-2.960156888	-2.2419176693	-0.277304
C	 0.3962051636	-3.1170270222	-3.3549319372	-0.326421
C	 1.5734875679	-2.6183052676	 0.1097190462	 0.284174
N	 2.231903087	-2.8117909958	 1.0398685419	-0.332311
H	 0.8488142638	 1.9336699709	-0.4088040922	 0.130904
H	-0.7621982875	 1.6992101083	-1.093858397	 0.116494
H	-0.5743302182	 1.9429647371	 0.6483843665	 0.117765
H	 0.5899157062	-0.246162677	 0.8814549306	 0.118731
H	-0.9712427048	-0.4940111115	 0.1181487829	 0.101584
H	 0.1331732791	-0.5216249823	-2.1295867083	 0.097157
H	 2.5209579365	-0.3210476993	-0.6611883174	 0.294847
H	-0.2492052876	-2.6701176065	-0.9115097882	 0.122742
H	 2.1480138094	-2.4394867815	-2.5338947636	 0.235143
H	-0.4239701552	-3.7780942849	-3.0538053283	 0.128386
H	-0.0455417323	-2.1805343045	-3.7345187472	 0.104839
H	 0.9207398088	-3.5986783824	-4.1842434167	 0.132672
79.1332	85.8513	95.085	140.1498	160.3616	176.0994	219.9396	234.8312	293.1533	344.1698	408.144	414.9304	421.4735	497.995	567.7592	706.9434	762.9973	789.924	858.9535	921.7787	982.4537	1000.4886	1007.7485	1067.0271	1109.8648	1131.5887	1136.6061	1166.4355	1203.2835	1241.1794	1273.5563	1302.0692	1351.3947	1357.0562	1390.0218	1410.2561	1426.2274	1459.3381	1483.8789	1491.83	1495.8428	1497.3063	1508.1589	1520.3983	2352.6384	2965.3007	3019.5047	3039.6641	3043.4308	3044.9134	3061.9512	3063.4371	3106.7452	3113.3983	3123.9593	3519.2979	3770.4382
CCC(O)C(NC)C#N	CC[C@@H](O)[C@@H](NC)C#N	
InChI=1S/C6H12N2O/c1-3-6(9)5(4-7)8-2/h5-6,8-9H,3H2,1-2H3	InChI=1S/C6H12N2O/c1-3-6(9)5(4-7)8-2/h5-6,8-9H,3H2,1-2H3/t5-,6+/m0/s1
