16
gdb 94141	1.93012	1.52944	1.3183	5.7556	73.96	-0.2637	-0.0077	0.256	1077.0484	0.124742	-396.934574	-396.925746	-396.924801	-396.968055	32.202	
N	 0.3174658309	 1.001202935	-0.769676631	-0.513039
C	 0.0615986372	-0.1091813879	 0.0919717301	 0.030807
C	-0.0580907045	-0.0139444796	 1.6436086382	-0.25936
C	-1.2143220106	-1.0400329732	 1.5960385266	-0.252309
C	-1.4186730202	-0.7069344005	 0.0694010415	-0.012511
C	-2.4039034588	 0.354787244	-0.1195698038	 0.280903
N	-3.1466214357	 1.2339096932	-0.2233549635	-0.333017
C	-1.6537048074	-1.8250625626	-0.8339851434	 0.245305
N	-1.7850490835	-2.7429931566	-1.5234551472	-0.328216
H	-0.1250621876	 1.8538217475	-0.4451340876	 0.248203
H	 1.3080934815	 1.1715474566	-0.8893603123	 0.245393
H	 0.7310271218	-0.9289064569	-0.1811749809	 0.121168
H	 0.8253008842	-0.2726954354	 2.2292689318	 0.117543
H	-0.4117277816	 0.9753456727	 1.9485413534	 0.12596
H	-0.8722682247	-2.0702751204	 1.7051227818	 0.140595
H	-2.0825606511	-0.8734565661	 2.2320394863	 0.142577
108.8535	128.7471	140.2128	160.4036	212.6223	246.2538	347.5234	419.6335	488.3172	510.3444	533.6137	592.2276	617.656	677.1253	751.4368	802.6651	895.8028	920.3203	960.6218	983.1834	1049.2715	1108.745	1148.3075	1176.2015	1216.0974	1248.0673	1259.7352	1295.437	1303.8274	1425.0201	1481.0357	1495.2684	1659.7612	2357.1869	2361.3685	3065.5216	3085.8418	3093.5748	3128.5507	3159.8263	3524.7519	3614.2291
NC1CCC1(C#N)C#N	N[C@H]1CCC1(C#N)C#N	
InChI=1S/C6H7N3/c7-3-6(4-8)2-1-5(6)9/h5H,1-2,9H2	InChI=1S/C6H7N3/c7-3-6(4-8)2-1-5(6)9/h5H,1-2,9H2/t5-/m0/s1
