12
gdb 123316	6.72808	0.90767	0.79977	1.8518	79.56	-0.2567	-0.0541	0.2026	1299.2777	0.078914	-394.531079	-394.523646	-394.522702	-394.56319	27.294	
C	-0.03077607	-1.1911019781	-0.0020039215	-0.382666
C	-0.0326823204	 0.0113568429	 0.0039413662	 0.258795
C	 0.0078136925	 1.4277264256	 0.0103125554	 0.20577
N	-1.1166961929	 2.1656234108	 0.0298027433	-0.261181
N	-0.6971525422	 3.427111369	 0.0300610192	-0.262185
C	 0.6644181043	 3.5435425351	 0.0113861032	 0.306078
C	 1.1576485403	 2.2521093838	-0.0019174388	-0.398758
C	 1.3166569177	 4.7983155092	 0.0083095197	 0.21562
N	 1.8348482953	 5.8337795177	 0.0060546045	-0.327296
H	-0.0399410081	-2.2531267046	-0.0071127111	 0.200541
H	-1.3720032659	 4.1755685205	 0.0432690075	 0.298572
H	 2.1906575496	 1.9498608082	-0.0180074973	 0.14671
108.5145	118.1707	201.7992	215.4047	449.1968	477.8619	508.2074	524.472	576.9309	587.8101	608.6485	677.4435	678.7084	696.7244	727.3184	858.3941	1000.8774	1042.596	1158.0942	1226.9556	1276.9084	1388.7224	1432.7581	1467.0961	1581.5981	2246.8806	2350.6721	3291.4549	3502.4624	3656.6741
C#CC1=NNC(=C1)C#N	C#Cc1n[nH]c(c1)C#N	
InChI=1S/C6H3N3/c1-2-5-3-6(4-7)9-8-5/h1,3H,(H,8,9)	InChI=1S/C6H3N3/c1-2-5-3-6(4-7)9-8-5/h1,3H,(H,8,9)
