21
gdb 89751	2.46127	1.58184	1.16255	1.9103	83.78	-0.1993	0.0774	0.2767	1144.4654	0.182179	-383.19539	-383.186618	-383.185674	-383.228636	34.158	
C	-0.1440217184	 1.5593277422	 0.1176010602	-0.330906
N	 0.0023218783	 0.1205191431	 0.113574897	-0.13166
C	-1.2080144711	-0.6919128999	 0.3813663618	-0.257483
C	-0.3868913957	-1.5493475702	 1.3510081757	 0.256932
C	-0.8474389335	-2.3568493859	 2.4955308557	-0.309434
N	-0.1969976617	-2.9934931915	 1.3287550863	-0.358772
C	 0.7331303819	-0.5422798881	 1.2051608149	 0.338524
C	 2.2035930762	-0.777584271	 1.2751192518	-0.312021
C	 1.523673051	 0.1087682869	 2.3056104543	-0.344698
H	 0.8336921551	 2.0367363675	-0.0064063402	 0.120718
H	-0.7659225139	 1.8626279659	-0.7312193918	 0.119859
H	-0.6056785109	 1.956513305	 1.0408537697	 0.093149
H	-2.0172148423	-0.1328520648	 0.8767395165	 0.092606
H	-1.613660044	-1.1937402599	-0.505866315	 0.1013
H	-0.2677358562	-2.3941256752	 3.41458705	 0.118619
H	-1.9195131105	-2.478332091	 2.6353447009	 0.110575
H	-0.8917769869	-3.4356010085	 0.73097597	 0.230361
H	 2.5326080588	-1.7678562533	 1.5720482167	 0.126032
H	 2.8259885904	-0.2943321097	 0.5288188411	 0.112802
H	 1.7039058945	 1.1771902433	 2.2449023008	 0.112125
H	 1.402695429	-0.2627657749	 3.3186604136	 0.111371
61.6561	189.3404	198.823	209.0844	235.1805	260.091	324.1945	385.1394	450.686	514.0283	564.5147	589.3927	730.5309	783.8857	840.3066	865.7796	895.9119	929.357	937.2291	964.4206	976.7872	987.8756	1012.4449	1047.428	1063.5343	1073.9924	1123.0703	1142.4949	1153.1552	1174.0186	1188.4286	1218.1558	1238.6926	1258.8799	1274.4559	1322.7205	1365.8289	1449.0114	1452.8003	1457.1026	1487.4695	1491.2015	1500.7119	1511.7333	1528.2845	2931.213	2975.3727	3037.6549	3057.4288	3096.5112	3096.9911	3121.9108	3128.2867	3179.4336	3202.3019	3220.1295	3490.4902
CN1CC2(CN2)C11CC1	CN1C[C@]2(CN2)C21CC2	
InChI=1S/C7H12N2/c1-9-5-6(4-8-6)7(9)2-3-7/h8H,2-5H2,1H3	InChI=1S/C7H12N2/c1-9-5-6(4-8-6)7(9)2-3-7/h8H,2-5H2,1H3/t6-/m1/s1
