19
gdb 55135	3.45568	1.28668	1.12699	3.8906	74.62	-0.2412	-0.0107	0.2306	1137.3973	0.159212	-423.023777	-423.015547	-423.014602	-423.058024	30.896	
C	 0.0177566772	 1.2996417958	-0.5072713079	-0.477774
C	 0.072054876	-0.0561697834	 0.1761122667	 0.375818
O	 1.0543132183	-0.4275079219	 0.7755525731	-0.293512
C	-1.1920148703	-0.9064021566	 0.1143103207	-0.100727
C	-1.711513205	-1.2773714145	-1.3214456519	-0.252635
C	-1.6559527606	-2.8112784748	-1.1471229145	 0.088622
C	-2.2980328748	-3.0628898291	 0.2338566886	-0.243182
C	-0.9848966602	-2.3503180099	 0.6245972396	 0.082341
O	-0.3471721602	-2.9890731095	-0.5268280181	-0.295333
H	-0.1003503261	 1.1809649242	-1.5896304987	 0.143542
H	-0.8481387618	 1.872471313	-0.1563625842	 0.132643
H	 0.935853473	 1.8513303681	-0.302126084	 0.143139
H	-1.9667701896	-0.3759937804	 0.6826753381	 0.092626
H	-2.7127504843	-0.8950547212	-1.5353061501	 0.102976
H	-1.0354165685	-0.955325382	-2.1165592071	 0.114359
H	-1.8288689508	-3.4409492188	-2.0197611967	 0.082021
H	-3.2586680764	-2.5991546461	 0.4753580966	 0.091591
H	-2.2819488007	-4.1190720627	 0.5030920865	 0.115449
H	-0.4576369352	-2.4923132702	 1.5645228134	 0.098036
20.2564	105.8998	127.4253	191.527	326.0749	364.2941	413.3286	522.6337	559.8195	613.0648	718.4422	778.6841	831.4065	846.813	872.2204	878.1109	936.7735	944.6762	958.2888	978.8123	992.5679	1027.2435	1047.3581	1094.5039	1099.6803	1148.2123	1182.3767	1203.7566	1227.6817	1233.8133	1261.0397	1283.5073	1309.992	1325.9472	1353.9861	1383.0255	1462.185	1476.1737	1482.121	1495.739	1808.8907	3028.457	3038.8786	3061.4426	3068.112	3098.9699	3118.1027	3123.9606	3144.5621	3152.1543	3163.0684
CC(=O)C1CC2CC1O2	CC(=O)[C@H]1C[C@@H]2C[C@H]1O2	
InChI=1S/C7H10O2/c1-4(8)6-2-5-3-7(6)9-5/h5-7H,2-3H2,1H3	InChI=1S/C7H10O2/c1-4(8)6-2-5-3-7(6)9-5/h5-7H,2-3H2,1H3/t5-,6-,7-/m1/s1
