17
gdb 69711	3.99888	1.35919	1.24848	4.3189	73.6	-0.2361	0.0294	0.2655	1040.1082	0.136482	-417.946193	-417.938747	-417.937803	-417.97786	29.434	
C	-0.0979526854	 1.499369666	 0.0061650946	-0.52182
C	 0.1114216838	 0.0178370858	 0.0176332032	 0.326011
N	-0.7705896783	-0.9095179176	 0.7576473982	-0.359621
C	 0.6821613725	-0.9249437153	 1.0314105673	-0.112241
C	 1.3436286698	-1.7919054956	-0.0721612412	-0.182384
C	 0.7619956902	-0.824971744	-1.1205089796	 0.062365
O	-0.0457102944	-1.8938399358	-1.6889385685	-0.264783
C	 0.4493304675	-2.8096248322	-0.7645865643	 0.458196
N	 0.2353915586	-4.0364743319	-0.6432368923	-0.558705
H	 0.7848190425	 2.0214504182	-0.3782345175	 0.129134
H	-0.9501961587	 1.7709678081	-0.6276226379	 0.139195
H	-0.2954706553	 1.8758934937	 1.0156502947	 0.12329
H	-1.214562183	-0.3684544417	 1.4992971328	 0.231462
H	 1.0709573707	-0.7427042242	 2.0252849983	 0.102659
H	 2.4045848964	-2.0075726916	 0.0257558023	 0.105647
H	 1.3464972488	-0.2930061718	-1.8705840646	 0.093708
H	-0.4428059156	-4.3657910999	-1.3325227555	 0.227887
122.4814	182.056	203.0357	292.7229	305.0669	404.6525	443.5361	530.8817	622.4618	685.2754	716.1944	785.7491	816.9493	863.1801	880.4701	891.9859	912.3838	935.5054	954.4452	990.6008	1000.6973	1021.9881	1060.9405	1105.2796	1114.9631	1176.5267	1187.118	1224.5067	1243.5388	1287.6249	1304.3962	1344.0787	1410.9998	1441.6081	1482.4324	1497.3339	1827.5461	3025.2255	3089.3936	3097.9489	3122.8038	3155.0194	3196.6017	3474.7991	3475.4901
CC12NC1C1C2OC1=N	C[C@]12N[C@H]1[C@@H]1[C@H]2O[C]1[NH]	
InChI=1S/C6H8N2O/c1-6-3(8-6)2-4(6)9-5(2)7/h2-4,7-8H,1H3	InChI=1S/C6H8N2O/c1-6-3(8-6)2-4(6)9-5(2)7/h2-4,7-8H,1H3/t2-,3+,4-,6+/m1/s1
