15
gdb 12257	3.47312	1.54307	1.20878	2.7163	58.	-0.2506	0.0185	0.2691	972.1512	0.117956	-436.940304	-436.931896	-436.930951	-436.973552	29.515	
O	-0.0924404021	 1.3512430704	-0.3390492199	-0.431967
C	 0.018515837	-0.004812674	 0.073257368	-0.071989
C	-1.3936554841	-0.5552278581	 0.1237810864	 0.019944
N	-2.0603313579	-0.6321100685	-1.1874889703	-0.323296
C	-2.0493702467	-1.9983580165	-1.2702150468	 0.389739
O	-2.2857495995	-2.7929882264	-2.1428607266	-0.369496
C	-1.5233532384	-2.1116784677	 0.1856296311	-0.035879
O	-0.3240621817	-2.8279662503	 0.3383205734	-0.430515
H	 0.7941206449	 1.7111753145	-0.4334693014	 0.292722
H	 0.6192220863	-0.597462961	-0.6288199739	 0.099302
H	 0.4780708497	-0.0956488809	 1.0689404643	 0.101961
H	-1.9826310423	-0.0099838125	 0.8678258663	 0.094143
H	-2.1780500648	 0.0802059874	-1.8938339659	 0.260167
H	-2.2874467019	-2.4454955152	 0.8992008738	 0.101343
H	-0.3412527684	-3.5465213411	-0.3049536085	 0.303821
68.0164	115.7671	169.1456	175.9685	237.5903	266.2892	307.776	432.3386	488.0571	514.9251	562.0204	723.0328	779.411	847.7601	899.7793	939.3791	1059.7766	1073.2305	1104.0037	1146.1958	1182.4259	1203.3574	1226.0504	1255.0332	1280.7933	1349.6687	1363.9879	1386.5368	1391.7523	1463.9928	1512.006	1889.4147	2993.6785	3025.6659	3038.8903	3068.6113	3606.6483	3793.4811	3834.26
OCC1NC(=O)C1O	OC[C@H]1NC(=O)[C@H]1O	
InChI=1S/C4H7NO3/c6-1-2-3(7)4(8)5-2/h2-3,6-7H,1H2,(H,5,8)	InChI=1S/C4H7NO3/c6-1-2-3(7)4(8)5-2/h2-3,6-7H,1H2,(H,5,8)/t2-,3+/m1/s1
