17
gdb 19295	3.52068	1.86885	1.50042	2.427	64.23	-0.2288	0.0704	0.2992	882.8332	0.142376	-400.933087	-400.925484	-400.92454	-400.964855	28.665	
C	-0.1881322031	 1.3478208927	-0.1158329308	-0.243185
O	 0.3121552741	 0.0422917869	 0.109107005	-0.240377
C	 0.7819366047	-0.5712191057	-1.0509304416	 0.124826
C	 1.3121741267	-1.9835713809	-0.8653836585	-0.106782
N	 0.1577314083	-2.8315473912	-0.4752595419	-0.348507
C	 0.3848069757	-2.5215000414	-1.9059360396	-0.074032
C	-0.2916410345	-1.1526414237	-2.0821407302	 0.094511
O	-1.6316630894	-1.0695843677	-1.6992344885	-0.43355
H	 0.5883230683	 2.0082490883	-0.5338329108	 0.098312
H	-1.0499895646	 1.336196315	-0.7936030193	 0.130793
H	-0.4987151349	 1.7424937853	 0.8544903553	 0.125043
H	 1.5129519501	 0.0634221324	-1.5767125831	 0.061387
H	 2.3230041411	-2.2838162727	-0.6199409782	 0.097438
H	 0.513188137	-3.7690149713	-0.2975702606	 0.236139
H	 0.5400898149	-3.3069704914	-2.6347407529	 0.095268
H	-0.1991310126	-0.7270853651	-3.0830799727	 0.085658
H	-1.6762746818	-1.5306615094	-0.8487810016	 0.297059
130.9648	137.016	181.6519	235.6889	263.0769	341.6156	483.6815	508.7698	590.896	650.3166	721.4677	799.5097	840.6327	854.3923	904.1256	953.1797	1009.6946	1024.3639	1047.3421	1089.202	1108.7083	1132.1539	1168.3461	1170.5557	1183.5771	1231.3328	1249.9767	1264.8417	1322.3675	1331.0212	1370.5681	1396.6774	1454.3954	1482.6014	1488.1329	1513.5011	2974.9909	2981.846	3060.0873	3099.2635	3119.2342	3189.3815	3202.2537	3494.4395	3738.0738
COC1C2NC2C1O	CO[C@H]1[C@H]2N[C@H]2[C@H]1O	
InChI=1S/C5H9NO2/c1-8-5-3-2(6-3)4(5)7/h2-7H,1H3	InChI=1S/C5H9NO2/c1-8-5-3-2(6-3)4(5)7/h2-7H,1H3/t2-,3+,4-,5+/m1/s1
