15
gdb 132763	2.35443	1.80047	1.02671	0.2604	71.26	-0.2364	-0.0144	0.222	1071.4919	0.113104	-461.991696	-461.983965	-461.983021	-462.024147	29.046	
C	-0.0301829376	 1.5594798882	-0.0321330066	-0.502251
C	 0.0068116727	 0.0573233105	-0.0307929947	 0.020722
C	-0.114675427	-0.7133943588	-1.175531024	 0.275539
F	-0.2739578716	-0.1035749793	-2.3526151695	-0.073638
C	-0.0767208369	-2.1055772112	-1.1441623172	-0.269583
C	 0.0898076622	-2.6984274902	 0.0954001124	-0.002891
N	 0.2126071462	-2.0062632097	 1.2351026119	-0.37358
C	 0.1701477269	-0.6835016963	 1.1531374778	 0.385013
O	 0.2943923489	 0.0108764572	 2.3050635035	-0.410264
H	 0.8958171233	 1.9735233125	 0.3799703895	 0.142612
H	-0.1641519337	 1.9431757366	-1.0441036966	 0.13646
H	-0.8475537637	 1.9307857619	 0.5945783727	 0.142617
H	-0.1743339223	-2.6809601736	-2.055146479	 0.11229
H	 0.1275270274	-3.7801529202	 0.1868701172	 0.118069
H	 0.3960780352	-0.6526473776	 3.0017749426	 0.298885
80.9707	142.9555	246.6542	274.6389	281.608	342.8243	496.3477	531.9725	539.2338	551.2087	555.4176	666.1919	704.8075	787.3888	829.1972	847.863	948.0041	969.8008	1063.7505	1083.7369	1112.0248	1197.7643	1253.5269	1308.0679	1331.5369	1369.7432	1415.5147	1470.7913	1486.1427	1498.0201	1526.4286	1639.171	1652.7461	3043.138	3093.89	3145.6781	3169.2499	3223.1654	3765.8612
CC1=C(F)C=CN=C1O	Cc1c(F)ccnc1O	
InChI=1S/C6H6FNO/c1-4-5(7)2-3-8-6(4)9/h2-3H,1H3,(H,8,9)	InChI=1S/C6H6FNO/c1-4-5(7)2-3-8-6(4)9/h2-3H,1H3,(H,8,9)
