20
gdb 61014	2.71076	1.20666	0.93706	2.1939	79.03	-0.2363	-0.0252	0.2111	1282.7152	0.169935	-403.107888	-403.098847	-403.097902	-403.142601	33.136	
C	 0.0496994088	 1.4920676705	-0.0834866186	-0.415026
C	 0.0991509619	-0.0390064897	 0.0554040852	-0.092456
C	 0.7514972314	-0.4158723349	 1.371131078	 0.168769
O	 1.7027880022	-1.142334834	 1.4958354708	-0.250422
C	-1.3142516905	-0.6439500361	 0.0133954087	 0.005988
C	-2.1593395898	-0.5718857803	-1.2926193904	-0.198833
N	-2.4331037273	-2.0527663362	-1.2696231976	-0.124932
C	-1.1130423129	-2.6912362832	-1.4023605938	-0.233033
C	-1.4900772491	-2.1604743049	-0.0784114766	-0.050829
H	 1.0551070799	 1.9216480174	-0.1161886147	 0.130973
H	-0.4707594836	 1.7787027343	-1.0021221663	 0.130325
H	-0.4854148424	 1.9474373799	 0.7577572402	 0.122908
H	 0.7124539392	-0.4701390131	-0.7421145434	 0.093194
H	 0.2566741037	 0.0395398363	 2.2641674827	 0.067391
H	-1.8971822084	-0.2451239293	 0.8506834781	 0.085654
H	-3.0889479343	-0.0092293203	-1.1926279439	 0.115941
H	-1.6375226761	-0.2420819312	-2.1982591015	 0.104292
H	-1.1746533572	-3.7664407101	-1.5382486312	 0.12594
H	-0.346432022	-2.2043711777	-2.0016725897	 0.113559
H	-1.7094544935	-2.8141156974	 0.759880394	 0.100597
47.9447	62.7017	151.0274	172.705	207.9906	287.4363	319.2294	372.9815	426.7316	512.3641	537.6868	722.1257	756.8386	783.9353	850.6481	893.9485	945.3773	958.5111	965.5503	993.7392	1015.2158	1057.6744	1063.2652	1103.6114	1109.6854	1121.2047	1154.5818	1171.9419	1204.6756	1225.2296	1264.5794	1273.2915	1297.878	1318.2625	1377.8972	1387.4235	1405.4424	1428.7597	1492.0367	1496.0377	1499.459	1510.4632	1833.407	2830.6332	3033.0543	3038.713	3045.1196	3067.0093	3102.2191	3106.0577	3113.554	3114.9265	3160.98	3199.0036
CC(C=O)C1CN2CC12	C[C@@H](C=O)[C@H]1CN2C[C@@H]12	
InChI=1S/C7H11NO/c1-5(4-9)6-2-8-3-7(6)8/h4-7H,2-3H2,1H3	InChI=1S/C7H11NO/c1-5(4-9)6-2-8-3-7(6)8/h4-7H,2-3H2,1H3/t5-,6+,7-,8?/m0/s1
