17
gdb 35882	2.08526	1.66022	1.00699	0.5373	78.77	-0.2568	0.0366	0.2934	1160.7112	0.134796	-384.61906	-384.610284	-384.609339	-384.653617	32.706	
C	-0.2740712795	-1.2476626143	-0.0936123391	-0.47155
C	-0.1300080496	-0.0554186635	-0.050101987	 0.354844
C	-0.0007464755	 1.3877039988	 0.0239092415	-0.21495
C	-0.6103200211	 1.989211072	 1.3240195067	-0.09499
O	 0.1299305908	 3.1659207429	 1.5771835115	-0.233706
C	 1.4799081252	 2.8147088382	 1.351556579	-0.094996
C	 1.4755016566	 1.9710290531	 0.0432090177	-0.214911
C	 2.5578150653	 1.0066961355	-0.0154444865	 0.354808
C	 3.4787755376	 0.2353176342	-0.0454381816	-0.471512
H	-0.3886473107	-2.3022613976	-0.1389701899	 0.197746
H	-0.5120484026	 1.8303528829	-0.8364355015	 0.117428
H	-1.6629365795	 2.2576069701	 1.217162396	 0.121641
H	-0.5049892386	 1.2679745623	 2.1482268596	 0.106668
H	 2.0673102986	 3.7307758633	 1.2664911929	 0.121646
H	 1.8769429587	 2.2085145987	 2.1795006171	 0.106665
H	 1.5653454521	 2.6515737126	-0.8090532495	 0.117426
H	 4.2841861721	-0.455726789	-0.0791255071	 0.197743
19.4135	113.8748	176.1811	176.3001	255.7459	309.236	425.4915	466.2988	510.959	536.2793	606.8159	623.4455	631.44	638.9571	643.2824	681.4461	760.2815	925.3012	962.0392	1011.7241	1022.3502	1056.9161	1078.536	1086.4301	1124.7658	1217.8837	1253.9229	1290.0503	1299.3899	1317.8783	1335.1766	1369.2152	1394.1777	1503.2635	1519.6928	2240.1519	2240.2042	2994.2851	2999.3853	3045.9064	3062.9794	3114.0191	3116.9273	3505.0578	3505.6753
C#CC1COCC1C#C	C#C[C@H]1COC[C@H]1C#C	
InChI=1S/C8H8O/c1-3-7-5-9-6-8(7)4-2/h1-2,7-8H,5-6H2	InChI=1S/C8H8O/c1-3-7-5-9-6-8(7)4-2/h1-2,7-8H,5-6H2/t7-,8+
