19
gdb 62451	3.51365	1.18767	1.16256	5.4212	79.84	-0.2473	0.0282	0.2754	1145.4521	0.160543	-382.070736	-382.062231	-382.061287	-382.103802	31.952	
C	-0.0506411977	 1.5847141262	-0.0232034358	-0.481012
C	 0.0189277184	 0.0664751887	-0.0641595457	 0.138017
C	-1.091123718	-0.5483661389	 0.6445661191	 0.27265
N	-1.9983553006	-1.0136413894	 1.1898052701	-0.344947
C	 0.5954252214	-0.7236096239	-1.2073858126	-0.060198
C	 1.4390750918	-0.0143805548	-2.2577107957	-0.245303
C	 2.6249912581	 0.6140443966	-1.4782779953	-0.234916
C	 2.5291433667	 0.0310760685	-0.0404272254	-0.160774
N	 1.2677692486	-0.7236968496	 0.0943872991	-0.124137
H	 0.653490625	 2.05967437	-0.7046122662	 0.13257
H	-1.0573588315	 1.9090644563	-0.3011808144	 0.148354
H	 0.1455851434	 1.9499354069	 0.9898431755	 0.145005
H	 0.0956807778	-1.6452503677	-1.4925385464	 0.111013
H	 1.7883706458	-0.756724199	-2.9808953291	 0.11969
H	 0.8691362587	 0.7309201371	-2.8204133523	 0.117736
H	 3.58179455	 0.360885617	-1.941453137	 0.112375
H	 2.5641486303	 1.7046528101	-1.4707497901	 0.115402
H	 3.3350623514	-0.6838132865	 0.1479515537	 0.122147
H	 2.5953744805	 0.8016234625	 0.7333499586	 0.116326
114.7005	130.0613	156.9948	163.6127	205.7792	274.6777	394.0617	403.5487	545.2462	563.3142	664.1371	698.0031	714.1674	785.1425	801.1834	871.2508	894.3749	900.936	946.1025	983.8746	1031.4523	1057.0559	1087.0826	1121.8577	1141.8497	1189.4618	1229.0855	1242.0787	1263.7305	1293.4862	1310.9553	1329.6574	1341.6691	1398.2808	1420.8474	1480.1216	1489.6594	1496.6625	1505.8929	1521.6967	2353.9038	3052.0665	3056.2072	3057.0349	3072.0921	3084.9134	3094.0605	3112.0505	3115.3982	3148.7152	3160.0652
CC1(C#N)C2CCCN12	C[C@@]1(C#N)[C@H]2CCCN12	
InChI=1S/C7H10N2/c1-7(5-8)6-3-2-4-9(6)7/h6H,2-4H2,1H3	InChI=1S/C7H10N2/c1-7(5-8)6-3-2-4-9(6)7/h6H,2-4H2,1H3/t6-,7-,9?/m1/s1
