19
gdb 49554	3.36667	1.18503	1.1292	3.5409	76.18	-0.2399	-0.024	0.2159	1150.8042	0.160795	-423.017431	-423.009731	-423.008787	-423.049958	29.805	
O	 0.0158057592	-0.0187424534	 0.3229017793	-0.258654
C	 0.029799463	 1.1493867812	 0.0216191142	 0.138889
C	 1.2671493116	 1.9944870631	-0.0160793268	-0.082404
C	 1.3175761691	 3.0470925589	-1.1779195809	-0.043183
C	 0.5637477399	 4.0377191727	-0.2444006622	-0.275781
C	 1.2396712982	 3.2667344152	 0.9167628985	 0.120727
O	 2.5683583665	 3.684370947	 1.154006418	-0.269514
C	 3.2344017918	 4.1824007824	-0.0099530915	-0.067767
C	 2.7813503275	 3.4943899257	-1.3187735284	-0.239995
H	-0.9178252014	 1.6697361961	-0.2527114663	 0.067412
H	 2.1409126437	 1.3543047527	 0.1230885868	 0.090026
H	 0.8688215902	 2.7760268791	-2.1363057371	 0.075242
H	 0.7575709933	 5.1084472114	-0.3387095361	 0.106499
H	-0.5156201901	 3.8725855864	-0.2482162374	 0.112739
H	 0.7517513944	 3.1980060526	 1.890583236	 0.090536
H	 3.0541852144	 5.2631667224	-0.0869066368	 0.102735
H	 4.303954074	 4.0451237838	 0.1682684096	 0.115495
H	 3.40595286	 2.6245731827	-1.5494930397	 0.112451
H	 2.8944495347	 4.2042951698	-2.1458017395	 0.104546
65.2512	154.9954	230.2712	241.3493	313.9959	379.8597	441.3125	492.761	512.0121	618.3661	796.4233	819.0117	843.6651	857.5088	911.4982	933.6193	935.2674	947.4022	1028.7204	1035.762	1054.1691	1082.2993	1122.5914	1133.4204	1144.5286	1169.5512	1214.7854	1236.3002	1243.8839	1269.7276	1274.7898	1292.6589	1326.2651	1352.1569	1380.6449	1413.7147	1444.0469	1489.8226	1497.3987	1527.9462	1817.2277	2851.3781	3006.4494	3035.7897	3070.9722	3074.873	3081.6377	3093.3885	3095.1021	3099.1455	3125.1472
O=CC1C2CC1OCC2	O=C[C@H]1[C@H]2C[C@@H]1OCC2	
InChI=1S/C7H10O2/c8-4-6-5-1-2-9-7(6)3-5/h4-7H,1-3H2	InChI=1S/C7H10O2/c8-4-6-5-1-2-9-7(6)3-5/h4-7H,1-3H2/t5-,6+,7+/m1/s1
