16
gdb 85108	1.98423	1.59653	1.23867	4.9769	69.42	-0.291	-0.0202	0.2708	1086.639	0.12279	-437.930476	-437.9215	-437.920556	-437.964219	32.051	
C	-0.3468383087	 1.472581213	-0.0341496281	-0.418144
C	 0.1136645066	 0.0348375927	-0.0398533641	 0.126743
O	 1.3859102173	-0.1387731977	-0.761395733	-0.253636
C	 1.9992198018	-0.7261716665	 0.301992514	 0.468226
O	 3.1085378018	-1.1317781056	 0.3943949537	-0.313083
C	 0.7658651248	-0.5912845862	 1.2398523257	-0.102424
C	 1.0190642367	 0.3009791983	 2.4624615914	-0.448037
C	 0.1789127575	-1.8659797339	 1.6293799305	 0.257556
N	-0.3044112181	-2.8693155576	 1.9387984591	-0.326143
H	 0.417346152	 2.1440506551	 0.3631909381	 0.137461
H	-0.5784977393	 1.7859661088	-1.055913851	 0.15029
H	-1.2557250045	 1.5746574073	 0.5667584712	 0.141032
H	-0.6347960839	-0.6237494156	-0.4859829044	 0.126292
H	 1.4962611429	 1.2383101343	 2.1700045675	 0.141661
H	 0.0828250074	 0.5235824867	 2.9802687396	 0.146912
H	 1.6845486455	-0.2170960531	 3.1565676396	 0.165293
86.9909	126.495	162.8258	193.429	208.5833	226.7637	283.1336	314.8455	427.714	472.7951	549.2242	597.7211	645.7056	723.8921	755.7758	841.2192	876.9893	961.4976	1024.341	1056.2959	1095.9413	1149.0327	1158.4043	1192.7724	1225.6498	1322.3148	1386.0302	1412.8285	1418.1506	1476.4942	1485.912	1493.916	1504.1554	1948.7266	2356.6117	3049.6189	3057.8159	3091.0344	3121.5431	3134.3437	3137.3253	3143.8937
CC1OC(=O)C1(C)C#N	C[C@H]1OC(=O)[C@]1(C)C#N	
InChI=1S/C6H7NO2/c1-4-6(2,3-7)5(8)9-4/h4H,1-2H3	InChI=1S/C6H7NO2/c1-4-6(2,3-7)5(8)9-4/h4H,1-2H3/t4-,6-/m1/s1
