12
gdb 24825	3.14395	1.52838	1.02843	4.5913	71.52	-0.255	-0.0601	0.1949	1044.8363	0.077555	-435.494008	-435.486746	-435.485802	-435.526104	26.744	
O	-0.0227630273	-0.0321220197	 0.0041027441	-0.311524
C	-0.0125471251	 1.1730328519	 0.0097479638	 0.342298
N	-1.2206372995	 1.9207631997	 0.0292762191	-0.293182
C	-1.1763515986	 3.1873572898	 0.0348700841	 0.133424
O	-0.0666522349	 3.9721985244	 0.024178315	-0.169635
C	 1.1265807575	 3.3333356679	 0.0054384477	 0.00926
C	 1.2343097968	 1.9872691089	-0.0025509009	-0.11813
C	 2.5011121029	 1.3531500862	-0.0221933379	 0.252353
C	 3.5738276535	 0.8085997034	-0.0388947382	-0.371971
H	-2.0697620515	 3.8049629508	 0.0496473431	 0.159835
H	 1.9595441956	 4.0238767641	-0.0020727024	 0.1622
H	 4.5145777706	 0.3156018427	-0.0536946174	 0.205073
79.6033	138.9603	189.0379	373.1026	403.525	447.278	458.1763	546.0922	561.1439	608.0336	614.193	661.0403	726.0457	822.679	898.0664	918.4453	969.4627	982.2705	1088.6245	1183.5205	1315.1562	1364.8743	1412.8777	1615.7198	1699.344	1807.1731	2234.8624	3190.8805	3231.4603	3501.2487
O=C1N=COC=C1C#C	O=c1ncocc1C#C	
InChI=1S/C6H3NO2/c1-2-5-3-9-4-7-6(5)8/h1,3-4H	InChI=1S/C6H3NO2/c1-2-5-3-9-4-7-6(5)8/h1,3-4H
