13
gdb 27506	2.08907	2.01984	1.02706	4.323	65.08	-0.2474	-0.0142	0.2332	1054.2808	0.09153	-486.154156	-486.146513	-486.145569	-486.186549	28.173	
N	 0.054865191	 1.3000140387	 0.0773731671	-0.557407
C	-0.0655860292	-0.0399161244	 0.0262399655	 0.503676
N	-1.2045351642	-0.6335649002	 0.0148716347	-0.390161
C	-1.2152409387	-2.0175087686	-0.0028792431	 0.417281
N	-2.2371533147	-2.7728059281	-0.0111263985	-0.553961
N	 0.0492095141	-2.6425949459	-0.0151003849	-0.389915
C	 1.2558608556	-2.0213871015	-0.0140988073	 0.489363
O	 2.3340783291	-2.5357758974	-0.0307890579	-0.35758
O	 1.1646729816	-0.6292997168	 0.0097572845	-0.246523
H	 0.9558314236	 1.7235530442	-0.0583058191	 0.284605
H	-0.7795648691	 1.8519749856	-0.0175187351	 0.286294
H	-3.075829722	-2.1950676301	-0.0001514193	 0.228358
H	 0.0572999428	-3.6521064155	-0.0312198667	 0.285971
114.0047	136.4164	175.1767	211.2622	343.1345	387.713	510.5533	517.3828	556.934	598.3389	636.3938	676.7815	719.5324	752.0902	760.3072	866.6161	910.9925	962.6409	1016.1189	1101.3942	1196.4524	1257.6025	1395.1382	1416.9274	1432.7524	1607.5056	1723.8052	1749.8498	1906.5858	3517.3655	3626.7069	3631.7136	3760.7468
NC1=NC(=N)NC(=O)O1	N[C]1N=C([NH])NC(=O)O1	
InChI=1S/C3H4N4O2/c4-1-6-2(5)9-3(8)7-1/h(H4,4,5,6,7,8)	InChI=1S/C3H4N4O2/c4-1-6-2(5)9-3(8)7-1/h(H4,4,5,6,7,8)
