18
gdb 55840	4.85334	0.77669	0.71362	5.4464	72.96	-0.2369	-0.0146	0.2223	1538.8407	0.145379	-439.131635	-439.121953	-439.121009	-439.1684	34.115	
N	-0.1547336954	 1.3125255038	 0.3055018748	-0.524418
C	 0.0472962992	-0.0366469541	 0.2646153299	 0.416974
O	 1.1385000766	-0.5377441485	 0.4568549743	-0.352725
C	-1.2067048322	-0.8631400364	-0.0284847266	-0.349992
C	-0.9129248201	-2.3537718035	-0.0931217897	 0.048121
C	-0.5463725823	-3.0747070188	 1.2416027733	-0.339348
C	-1.5994177665	-4.1385236732	 0.9007099129	 0.398779
O	-1.8680994633	-5.2187431339	 1.3393142773	-0.289711
C	-2.1330766679	-3.3099641888	-0.2832322674	-0.382938
H	 0.6398930152	 1.9105088886	 0.461488463	 0.262452
H	-1.0417107502	 1.7323320502	 0.0903527354	 0.258364
H	-1.9558070349	-0.6529396473	 0.7477988296	 0.117914
H	-1.6458292553	-0.5165312234	-0.9737167738	 0.12029
H	-0.1429877901	-2.5388023333	-0.8445432464	 0.098375
H	 0.4811179056	-3.4211348984	 1.3652282891	 0.143405
H	-0.8228436721	-2.5049123198	 2.1366388131	 0.124197
H	-3.0971312211	-2.845317584	-0.0437874167	 0.122117
H	-2.2323907752	-3.8368502193	-1.2357867021	 0.128143
19.9375	49.3363	81.4883	109.6809	153.8412	297.5628	309.6093	413.1884	429.6875	478.7643	509.7082	590.2621	642.654	656.3265	687.2319	779.938	845.3877	886.1509	928.474	942.4227	1003.8404	1057.4548	1084.05	1103.1705	1137.6752	1162.1905	1191.7086	1234.4204	1238.02	1259.4866	1288.7196	1368.8723	1404.2638	1427.2605	1447.59	1463.249	1618.0641	1795.1085	1893.9061	3011.7079	3042.4884	3045.9446	3050.3561	3091.4692	3109.9465	3126.9163	3604.2049	3740.431
NC(=O)CC1CC(=O)C1	NC(=O)CC1CC(=O)C1	
InChI=1S/C6H9NO2/c7-6(9)3-4-1-5(8)2-4/h4H,1-3H2,(H2,7,9)	InChI=1S/C6H9NO2/c7-6(9)3-4-1-5(8)2-4/h4H,1-3H2,(H2,7,9)
