21
gdb 58771	3.04142	1.25938	1.21162	2.9103	77.6	-0.2323	0.0642	0.2965	1146.9529	0.182826	-424.202887	-424.194319	-424.193375	-424.235975	33.76	
C	 0.0796874584	 1.5016187859	-0.1401930664	-0.416564
C	 0.0054564309	-0.0171841569	 0.0399891676	-0.002919
O	 0.5631924418	-0.422386801	 1.2904464421	-0.442306
C	-1.4072676175	-0.557465662	 0.0154938659	 0.342185
C	-2.3445489898	-0.4509565408	-1.2336715111	-0.292017
C	-3.0993000394	-1.554875622	-0.4528617901	 0.098209
C	-1.7163375495	-2.0926052996	-0.0188205325	-0.275548
O	-3.5724271096	-0.8708539964	 0.7178845835	-0.283231
C	-2.3952797234	-0.1310115953	 1.118011539	-0.111848
H	 1.1237267948	 1.8352631252	-0.1452526813	 0.105632
H	-0.3690160037	 1.8080465919	-1.0903360606	 0.124035
H	-0.4365550906	 2.0179515814	 0.6740956351	 0.129052
H	 0.5605766889	-0.4924719728	-0.7867705387	 0.061835
H	 1.4617016829	-0.0813453621	 1.3404783466	 0.282552
H	-2.8752756535	 0.488345286	-1.4090294867	 0.097733
H	-1.869732625	-0.8108718642	-2.1489131078	 0.097254
H	-3.8976595268	-2.1654184128	-0.8712254497	 0.076901
H	-1.1749348167	-2.6082360642	-0.8147120437	 0.094256
H	-1.6659258703	-2.6505258409	 0.9181182691	 0.106689
H	-2.0712998735	-0.4348420871	 2.117690259	 0.114567
H	-2.6162885883	 0.9426552977	 1.1205984106	 0.093533
60.4842	162.5386	199.4988	247.1165	272.4203	321.0759	335.1716	430.1242	481.9045	496.0916	517.8291	611.9236	696.1577	825.3498	856.3151	885.5176	902.2304	915.4525	948.2549	959.2831	984.0125	998.7607	1022.6826	1041.7109	1084.9332	1106.6374	1126.4076	1132.6631	1169.462	1186.8254	1198.9321	1218.8125	1239.7308	1252.6015	1287.4998	1322.6214	1369.5779	1373.5991	1404.2447	1431.555	1473.2687	1493.2221	1500.0983	1507.5306	1533.3959	2949.8312	3028.6797	3032.8907	3060.3599	3071.7986	3083.8373	3097.3055	3120.1139	3126.5356	3137.0654	3138.922	3818.6034
CC(O)C12CC(C1)OC2	C[C@@H](O)[C@@]12C[C@@H](C1)OC2	
InChI=1S/C7H12O2/c1-5(8)7-2-6(3-7)9-4-7/h5-6,8H,2-4H2,1H3	InChI=1S/C7H12O2/c1-5(8)7-2-6(3-7)9-4-7/h5-6,8H,2-4H2,1H3/t5-,6-,7-/m1/s1
