18
gdb 50848	3.93977	0.8669	0.77729	4.8648	75.98	-0.248	-0.0187	0.2293	1471.1008	0.148218	-435.265049	-435.256137	-435.255193	-435.299703	31.943	
N	 0.4395228783	-0.0375955568	-1.9352181139	-0.503038
C	-0.0197659201	-0.249847831	-0.7730906794	 0.354667
C	-1.368631964	-0.9271738629	-0.5899506007	-0.219948
N	-2.0479582508	-0.4466250258	 0.6107000328	-0.091171
C	-3.0014600532	 0.6484903912	 0.4267941859	-0.221382
C	-3.4743949859	-0.7342298831	 0.7105863857	-0.218459
N	 0.5996807367	 0.0355466491	 0.4585551603	-0.324182
C	 1.8385098146	 0.5868528525	 0.6465775763	 0.163071
O	 2.623822428	 0.8823020499	-0.2275942511	-0.302729
H	 1.372688389	 0.3730550317	-1.8809653089	 0.251
H	-1.9413762139	-0.7818226074	-1.5158715823	 0.124485
H	-1.2010333769	-2.0052874361	-0.4676265986	 0.130397
H	-3.0105093893	 1.4026157584	 1.2077276808	 0.124313
H	-3.1403386711	 1.0305958191	-0.5821776648	 0.130816
H	-3.9374399438	-1.2814164709	-0.1079104264	 0.122067
H	-3.8333239695	-1.0019187693	 1.6998997149	 0.125187
H	 0.0072058431	-0.1187150253	 1.2664568536	 0.263647
H	 2.0567509188	 0.7359074065	 1.7217671958	 0.091258
59.3598	73.1175	114.7508	154.2936	246.9837	262.3442	316.1086	383.4842	449.1942	511.1843	598.7218	720.6723	776.1635	790.4643	842.3429	903.6819	929.8426	968.7342	1010.5316	1028.5513	1030.8695	1060.5076	1093.4154	1120.6308	1125.3939	1174.066	1183.6573	1198.5849	1262.5674	1320.1249	1343.0773	1366.4607	1438.0185	1477.1784	1493.7952	1511.712	1523.7436	1735.9486	1809.871	2947.33	3009.7914	3054.2593	3104.6283	3109.9684	3188.5178	3203.2617	3482.8589	3549.4437
N=C(CN1CC1)NC=O	N=C(CN1CC1)NC=O	
InChI=1S/C5H9N3O/c6-5(7-4-9)3-8-1-2-8/h4H,1-3H2,(H2,6,7,9)	InChI=1S/C5H9N3O/c6-5(7-4-9)3-8-1-2-8/h4H,1-3H2,(H2,6,7,9)
