23
gdb 36516	3.52403	0.92414	0.7802	0.7706	91.39	-0.2574	0.0562	0.3136	1516.5725	0.207094	-351.153957	-351.144853	-351.143908	-351.187734	35.816	
C	-0.1127971089	-1.241965814	 0.0208910067	-0.445169
C	-0.0801201296	-0.0399499737	 0.0142704756	 0.301732
C	-0.0165970028	 1.4169073249	 0.0193103526	-0.378262
C	 1.4215643375	 1.9817569233	-0.0275662629	 0.046214
C	 2.1549452911	 1.5972249112	-1.3232237568	-0.184477
C	 3.5730320891	 2.1826551915	-1.3707513026	-0.198492
C	 3.5590977676	 3.7062702495	-1.1834878664	-0.177086
C	 2.825132597	 4.1011049983	 0.1061086932	-0.204292
C	 1.4095919337	 3.5086955698	 0.1519854105	-0.192065
H	-0.1533917979	-2.3027612901	 0.025801972	 0.191485
H	-0.5855977906	 1.8106346597	-0.8344060874	 0.124544
H	-0.5210064512	 1.7941405831	 0.9188034617	 0.123805
H	 1.9730793481	 1.5438555364	 0.8168117859	 0.07879
H	 2.1837164004	 0.5072978715	-1.4227857716	 0.105314
H	 1.5784238007	 1.9747560997	-2.1811314982	 0.086517
H	 4.1796778065	 1.7254582718	-0.5766625649	 0.092786
H	 4.0556538078	 1.9195573389	-2.3188322875	 0.089581
H	 4.5821096039	 4.0991635454	-1.1741034749	 0.088704
H	 3.0548886352	 4.1708439056	-2.0426248342	 0.090563
H	 3.3955682019	 3.7372661482	 0.9720323129	 0.092872
H	 2.7794383579	 5.1919296408	 0.2011862335	 0.08973
H	 0.8016098517	 3.957616539	-0.6473893593	 0.089725
H	 0.9199643508	 3.771539639	 1.0979078321	 0.08748
71.5419	103.7053	165.1839	230.7393	287.7218	324.4807	349.7349	367.2654	432.4371	443.876	500.0593	577.2973	612.0942	634.008	784.164	797.7218	848.286	849.8116	895.312	922.1341	943.6187	952.4509	991.1777	1041.5248	1064.8853	1082.9405	1091.3553	1102.5725	1153.6111	1193.9584	1225.6805	1279.4957	1288.501	1296.656	1308.2691	1341.628	1358.7208	1370.5618	1378.7377	1382.6253	1384.7074	1400.5875	1469.1879	1483.2037	1485.6997	1487.4304	1492.8629	1506.9247	2235.3011	2995.6745	2998.2434	3005.2393	3008.1312	3012.2465	3013.4641	3017.1248	3041.508	3051.2109	3059.9719	3060.2959	3066.1937	3075.4456	3506.7274
C#CCC1CCCCC1	C#CCC1CCCCC1	
InChI=1S/C9H14/c1-2-6-9-7-4-3-5-8-9/h1,9H,3-8H2	InChI=1S/C9H14/c1-2-6-9-7-4-3-5-8-9/h1,9H,3-8H2
