20
gdb 90081	3.22919	1.53884	1.39741	1.434	78.28	-0.2351	0.0765	0.3116	1014.2449	0.173361	-403.057563	-403.050355	-403.04941	-403.088758	30.033	
C	-0.239744485	 1.5276799801	-0.1380613813	-0.400987
C	-0.0186452385	 0.0343641736	-0.0005111383	 0.053225
O	 0.9034014038	-0.5133934691	-1.019549318	-0.366232
C	 1.9064445452	-0.6528002874	-0.0049611609	 0.413724
C	 2.9581826722	-1.6217618368	 0.5945863243	-0.254215
N	 3.2185106511	-0.4306935945	 1.5382109235	-0.131156
C	 2.9567047166	 0.431026477	 0.3269651136	-0.238448
C	 1.8909686564	-0.2007920833	 2.2504159208	-0.222501
C	 0.8987446938	-0.5792708161	 1.1185307051	-0.060236
H	 0.6866285798	 2.099134363	-0.0559068586	 0.123365
H	-0.6878066573	 1.7484616891	-1.1118852521	 0.13184
H	-0.9293190381	 1.8735272818	 0.6398761494	 0.119494
H	-0.9763521757	-0.4901490828	-0.0738098097	 0.085465
H	 2.6076394989	-2.5405017762	 1.0709068487	 0.106496
H	 3.8652636666	-1.7970857082	 0.0141402968	 0.116041
H	 3.8166499619	 0.4255994088	-0.3462592668	 0.108633
H	 2.6531614455	 1.4557944442	 0.5480415698	 0.102291
H	 1.8065212263	-0.8644446732	 3.1133990559	 0.108972
H	 1.8712177536	 0.8323379721	 2.6033820203	 0.11604
H	 0.4861322528	-1.571519862	 1.3217740776	 0.08819
176.4299	193.3777	213.4324	338.5471	418.3214	438.9539	457.9746	549.3066	585.7037	635.2365	741.22	758.8045	800.9188	815.9626	830.386	893.4826	949.9122	963.8522	984.8746	993.3671	1028.8095	1043.8208	1062.2502	1073.4723	1125.4241	1147.5098	1174.082	1189.5114	1204.2719	1227.9522	1231.1033	1257.2725	1277.8538	1290.4815	1324.8966	1378.5305	1394.7356	1418.6196	1483.543	1490.9901	1496.1823	1501.1974	1533.3356	3040.5821	3046.1528	3062.7758	3065.3817	3069.8256	3077.4842	3106.0827	3123.4295	3129.8187	3138.2971	3141.0987
CC1OC23CN(C2)CC13	C[C@H]1O[C@@]23CN(C2)C[C@@H]13	
InChI=1S/C7H11NO/c1-5-6-2-8-3-7(6,4-8)9-5/h5-6H,2-4H2,1H3	InChI=1S/C7H11NO/c1-5-6-2-8-3-7(6,4-8)9-5/h5-6H,2-4H2,1H3/t5-,6+/m1/s1
