14
gdb 124046	3.88348	1.75697	1.23131	3.7782	69.31	-0.2308	-0.0309	0.1999	930.2579	0.104929	-432.89127	-432.884959	-432.884015	-432.922166	24.174	
C	 0.015844763	 1.471540469	 0.0872898242	-0.146493
O	 1.3452144142	 2.0427381916	-0.0141120259	-0.266316
C	 2.1757397894	 1.4185599566	-0.8483454335	 0.496351
N	 3.2782208841	 1.8896426814	-1.3738347337	-0.367878
C	 3.7542879565	 0.7926908438	-2.0484678243	 0.039843
N	 3.0296086592	-0.3059301143	-1.9691267153	-0.265869
N	 1.9878961255	 0.1142417178	-1.1841191649	-0.061892
C	 0.9775805803	-0.6681944716	-0.6311811859	 0.036044
C	 0.0147492549	-0.035182049	 0.0384151123	-0.147519
H	-0.3763412592	 1.8457296772	 1.0348992614	 0.143106
H	-0.5984603905	 1.8955340718	-0.7222690914	 0.132848
H	 4.6674850207	 0.8223472652	-2.6237515412	 0.134025
H	 1.0817321183	-1.736209502	-0.7617191596	 0.149245
H	-0.7830584764	-0.5765816174	 0.528781058	 0.124506
129.2722	140.7895	322.7676	426.5641	454.8373	544.6665	627.541	664.4497	702.8491	731.8131	762.9596	875.63	906.1794	929.1953	953.3208	972.8443	1029.2302	1034.1141	1154.3707	1193.7378	1233.8221	1256.9497	1281.9021	1294.2763	1381.4178	1408.0214	1456.6244	1495.8528	1531.4814	1616.5446	1717.4319	2983.7331	3108.4888	3223.4713	3248.7109	3262.7161
C1OC2=NC=NN2C=C1	C1Oc2ncnn2C=C1	
InChI=1S/C5H5N3O/c1-2-8-5(9-3-1)6-4-7-8/h1-2,4H,3H2	InChI=1S/C5H5N3O/c1-2-8-5(9-3-1)6-4-7-8/h1-2,4H,3H2
