22
gdb 111546	2.62777	1.444	1.12529	1.6538	85.32	-0.2304	0.0833	0.3137	1197.0059	0.1944	-367.156593	-367.147853	-367.146909	-367.189883	34.051	
C	 0.1671563213	 1.5462486085	 0.1740301482	-0.378333
C	-0.0928268293	 0.0479037776	-0.0200231267	-0.220812
C	 0.6689721454	-0.5369979475	-1.2065654476	-0.011403
C	 2.2262726399	-0.6516495722	-1.2139952862	-0.108548
C	 2.5223567135	-1.5933043215	-0.0377744875	-0.152467
N	 1.8173745882	-2.7033133848	-0.7590504638	-0.1899
C	 2.0495783185	-1.9786750015	-2.0462267609	-0.109966
C	 0.6726557717	-2.0436423656	-1.5021050172	 0.331958
C	-0.4849251132	-2.9136996725	-1.8791510434	-0.505618
H	 1.2247977105	 1.7433384166	 0.3803588468	 0.11747
H	-0.1044877067	 2.1139510694	-0.72302673	 0.113756
H	-0.4137683348	 1.9466748196	 1.0104240577	 0.113059
H	 0.1555841397	-0.4929133804	 0.8998701449	 0.101538
H	-1.1660814131	-0.1181915656	-0.181897332	 0.097281
H	 0.3617863759	-0.020968488	-2.1258008542	 0.069733
H	 2.8509781757	 0.2069270304	-1.454784765	 0.068407
H	 3.580620401	-1.8583962934	 0.0376022432	 0.105115
H	 2.1373504159	-1.3498235497	 0.9588854716	 0.094417
H	 2.5329814021	-2.409806065	-2.9136603549	 0.092145
H	-0.1389487876	-3.9144065107	-2.1514933532	 0.133285
H	-1.1871868943	-3.0191154672	-1.0445847515	 0.123677
H	-1.0315313301	-2.4909141964	-2.7293263781	 0.115205
70.2361	148.0904	181.3283	203.8875	243.0148	264.7574	315.1634	390.0416	503.3483	550.703	604.771	684.2693	752.509	782.0145	816.1612	843.6105	857.8147	922.3266	945.3372	961.1244	982.8061	1010.5586	1014.9372	1027.8796	1058.4434	1097.6648	1106.9753	1147.3694	1149.4942	1163.1215	1176.9975	1210.6139	1241.3013	1287.1869	1294.2945	1308.61	1344.6836	1384.4958	1406.6707	1413.0021	1441.2266	1483.6717	1486.8495	1492.3035	1500.5048	1504.2664	1522.8671	3019.9322	3024.4177	3030.4347	3030.5564	3037.1715	3066.0983	3090.0996	3093.8988	3098.4072	3103.5788	3115.94	3126.6803	3195.1099
CCC1C2CN3C2C13C	CC[C@H]1[C@H]2CN3[C@H]2[C@]13C	
InChI=1S/C8H13N/c1-3-6-5-4-9-7(5)8(6,9)2/h5-7H,3-4H2,1-2H3	InChI=1S/C8H13N/c1-3-6-5-4-9-7(5)8(6,9)2/h5-7H,3-4H2,1-2H3/t5-,6+,7-,8+,9?/m1/s1
