15
gdb 42622	2.78343	1.90112	1.37076	5.2295	69.04	-0.2262	-0.077	0.1492	916.8038	0.114022	-420.62832	-420.621695	-420.62075	-420.65941	26.206	
O	-0.0144092195	 0.0037881737	-0.2803192274	-0.30122
C	-0.0422225303	 1.1839620762	-0.04950883	 0.316418
C	-1.221469469	 2.0768936869	 0.1078000896	-0.163726
C	-1.293958056	 3.0869601815	 1.2671280056	-0.059528
C	 0.0700783347	 3.3094602553	 1.9160283155	-0.254846
C	 0.6804261316	 3.4642455409	 0.4700906896	-0.16942
C	-0.7808666888	 3.5251971691	-0.0731366313	-0.097948
C	 1.2143682929	 2.1114603315	 0.0475502858	 0.329654
O	 2.3453876628	 1.7746109309	-0.1688238789	-0.29395
H	-2.1771158429	 1.747872978	-0.2798292702	 0.120533
H	-2.2614978742	 3.2672497547	 1.7193179973	 0.108228
H	 0.1081551224	 4.2650686744	 2.4429879434	 0.126634
H	 0.4800575905	 2.5261449709	 2.5612836823	 0.121167
H	 1.3602718344	 4.2954964399	 0.3041109149	 0.105466
H	-1.1849646287	 4.1930894263	-0.8210738163	 0.112541
103.3721	190.5676	310.6886	340.3964	466.8237	479.5664	610.5686	623.9802	688.7082	708.5531	786.3393	815.6288	846.7611	903.1871	920.6805	942.0726	962.5592	981.6295	1029.5155	1040.1228	1063.103	1111.786	1139.2956	1183.9552	1214.962	1228.0428	1246.286	1290.2798	1315.96	1367.9737	1497.8017	1840.0015	1861.2386	3053.8844	3116.6618	3156.7331	3188.1647	3205.1083	3216.9256
O=C1C2C3CC(C23)C1=O	O=C1[C@H]2[C@H]3C[C@H]([C@@H]23)C1=O	
InChI=1S/C7H6O2/c8-6-3-1-2-4(3)5(2)7(6)9/h2-5H,1H2	InChI=1S/C7H6O2/c8-6-3-1-2-4(3)5(2)7(6)9/h2-5H,1H2/t2-,3+,4-,5-/m0/s1
