15
gdb 37699	3.75605	2.09178	1.60262	1.4084	67.2	-0.2507	0.0022	0.2528	803.9605	0.115693	-416.703903	-416.698359	-416.697414	-416.733503	23.612	
C	-0.0844970783	 1.5316914939	 0.0098474153	-0.258539
N	 1.4415719818	 1.2598012197	 0.0022650359	-0.175748
C	 1.2250209834	 0.0443695102	 0.9298000573	-0.065336
C	 1.8794494466	-0.9881283245	-0.0000751705	-0.015853
N	 1.1448939522	-2.2621023262	 0.0034519345	-0.282726
C	-0.1232035921	-2.2041539016	 0.0096574895	 0.099532
O	-0.9007216736	-1.0677836825	 0.0136489998	-0.274095
C	-0.0140478061	 0.0199784949	 0.0093606427	 0.383854
C	 1.2158627822	 0.0445174028	-0.9232777349	-0.065342
H	-0.4306609636	 2.0373486262	 0.9152681364	 0.118946
H	-0.439608934	 2.0375106942	-0.8920100359	 0.118944
H	 1.252063702	 0.1384973554	 2.0144814641	 0.09511
H	 2.9572834797	-1.1451381805	-0.0054065723	 0.090058
H	-0.7416768301	-3.0969722451	 0.0127726589	 0.136084
H	 1.2321862298	 0.1388197031	-2.0081581408	 0.095111
260.509	374.036	413.6343	451.2086	545.997	621.1397	627.6896	781.6043	787.5646	827.6137	852.8948	892.4556	893.3719	931.806	939.7386	952.5267	993.9571	1027.2975	1044.5453	1087.4985	1091.3529	1121.8332	1146.348	1180.4245	1195.5903	1222.875	1246.244	1287.209	1308.7115	1339.0194	1388.9725	1520.0481	1674.997	3057.3222	3119.3272	3124.4661	3128.2729	3135.7882	3187.5737
C1N2C3C4N=COC13C24	C1N2[C@@H]3[C@H]4N=CO[C@@]13[C@@H]24	
InChI=1S/C6H6N2O/c1-6-4-3(7-2-9-6)5(6)8(1)4/h2-5H,1H2	InChI=1S/C6H6N2O/c1-6-4-3(7-2-9-6)5(6)8(1)4/h2-5H,1H2/t3-,4-,5+,6+
