24
gdb 122821	5.24795	0.52257	0.51366	3.3445	88.45	-0.2399	0.0382	0.2782	2304.974	0.215746	-405.600575	-405.588917	-405.587972	-405.640189	40.303	
C	-0.1764693141	 1.4530931257	-0.4807736909	-0.380418
C	-0.0601803036	 0.0242383837	 0.0565215111	-0.159491
C	-1.4079076384	-0.7007293316	 0.1297231886	-0.164616
C	-1.2809390505	-2.1305466067	 0.669159361	-0.166748
N	-2.5528808245	-2.8283361698	 0.7579059455	-0.321185
C	-2.9382513027	-3.7858481867	-0.1374437936	 0.419505
O	-2.2122149996	-4.1848952838	-1.0319136077	-0.378349
C	-4.3618987072	-4.309187319	 0.0561732705	-0.296986
C	-4.5069430177	-5.7616979028	-0.3993117982	-0.366381
H	 0.8004874353	 1.9444915255	-0.5225157205	 0.113064
H	-0.5973558179	 1.4618191204	-1.4921516888	 0.117462
H	-0.829321854	 2.0631847336	 0.1535288083	 0.112387
H	 0.6247285043	-0.5523946204	-0.5785834643	 0.104236
H	 0.3969227469	 0.043997642	 1.055036631	 0.093945
H	-2.0979557905	-0.1288167529	 0.7664220359	 0.083343
H	-1.8659291232	-0.7405292816	-0.8663807487	 0.109852
H	-0.6521888134	-2.7308101975	 0.0071675676	 0.147405
H	-0.8082098313	-2.1174237306	 1.6597378818	 0.099421
H	-3.2218171586	-2.5177175029	 1.4435862979	 0.238678
H	-4.6748375812	-4.1893237457	 1.1002165432	 0.095522
H	-5.0223061613	-3.6647481353	-0.5395935666	 0.12656
H	-5.554200722	-6.0755784733	-0.3742762532	 0.106409
H	-4.1255244086	-5.8719489245	-1.4162662161	 0.145474
H	-3.9331074962	-6.435508556	 0.2440943862	 0.120913
17.6535	34.3416	64.5225	76.3154	112.0895	191.4072	206.4874	230.8516	252.2737	305.8732	324.2861	421.1249	454.6751	514.3953	593.5789	684.683	738.0874	786.7058	810.3371	876.0251	909.747	960.5971	998.5928	1014.6149	1055.3774	1064.5465	1096.2437	1114.8201	1134.2079	1183.5098	1225.5761	1257.7515	1287.4608	1294.6534	1326.8215	1335.2838	1371.8588	1386.6296	1406.7641	1406.9356	1415.4007	1465.8395	1477.7473	1485.6935	1493.0928	1497.5267	1500.3041	1505.3429	1511.4318	1540.918	1775.2261	3005.5501	3014.4115	3021.0605	3021.7547	3029.6187	3040.5792	3047.3835	3058.2528	3062.5284	3096.3924	3102.4988	3113.295	3114.8332	3138.9926	3638.3385
CCCCNC(=O)CC	CCCCNC(=O)CC	
InChI=1S/C7H15NO/c1-3-5-6-8-7(9)4-2/h3-6H2,1-2H3,(H,8,9)	InChI=1S/C7H15NO/c1-3-5-6-8-7(9)4-2/h3-6H2,1-2H3,(H,8,9)
