15
gdb 9607	5.22643	1.21583	1.1197	2.9132	62.42	-0.2846	-0.0069	0.2777	1042.4034	0.116834	-399.786872	-399.778416	-399.777472	-399.819973	29.901	
C	-0.2104757591	 1.6233262839	 0.125185571	-0.465192
C	-0.1716820484	 0.1155764513	 0.1072582514	 0.353539
C	-1.3805701872	-0.5872470754	-0.4876121567	-0.115388
O	-1.5455055206	-0.2487717214	-1.8506698713	-0.40877
O	 1.0739867007	-0.4776099554	-0.3112268419	-0.272307
C	 0.6751422212	-0.6534687195	 1.049939555	-0.16511
C	 1.4787183474	 0.0092814692	 2.0549773681	 0.307932
N	 2.1055303599	 0.5230728737	 2.8789276461	-0.325541
H	 0.7425689228	 2.0393878204	 0.4553657234	 0.150875
H	-0.4350846114	 1.9882713278	-0.8802026048	 0.148463
H	-1.0000385836	 1.974588795	 0.7972689868	 0.135202
H	-1.2785226914	-1.6733252818	-0.3482367104	 0.098812
H	-2.2924621953	-0.2627193848	 0.0243255653	 0.123993
H	-0.7640520172	-0.5641902043	-2.3191710874	 0.297599
H	 0.3848502922	-1.6680203388	 1.3191507954	 0.135893
67.4579	125.7434	148.7731	185.6971	255.3408	322.6013	343.5844	398.042	430.6955	448.0986	578.6721	644.7402	723.7331	828.8632	917.5517	937.8384	972.2892	1050.4745	1065.5517	1101.6605	1113.924	1203.7738	1268.6309	1322.6475	1387.8115	1414.4803	1422.6725	1441.5681	1477.6803	1491.9399	1501.482	2361.1825	2999.5971	3051.3714	3082.6135	3121.2762	3125.2143	3148.4861	3800.635
CC1(CO)OC1C#N	C[C@@]1(CO)O[C@H]1C#N	
InChI=1S/C5H7NO2/c1-5(3-7)4(2-6)8-5/h4,7H,3H2,1H3	InChI=1S/C5H7NO2/c1-5(3-7)4(2-6)8-5/h4,7H,3H2,1H3/t4-,5-/m0/s1
