21
gdb 89541	4.32489	1.05326	1.03063	1.4	83.	-0.219	0.0801	0.2991	1279.5589	0.182429	-387.045688	-387.037295	-387.036351	-387.078902	32.773	
C	-0.7179864806	 1.2646782571	 0.2156588278	-0.396995
C	 0.1100432448	 0.0177890511	-0.0153751248	 0.153519
C	 0.9166338362	-0.0928468432	-1.3316452936	-0.390807
C	 2.123107853	-0.1702596638	-0.3997267812	 0.482928
O	 1.3311430674	 0.0144654223	 0.7756487171	-0.340373
C	 3.2813368447	-1.1088720415	-0.3217182109	-0.140502
C	 3.9130049179	-1.2962078594	-1.7042200263	-0.23305
C	 4.116643406	 0.2529062606	-1.8143220153	-0.232529
C	 3.4871683105	 0.4284899081	-0.4289723369	-0.140012
H	-0.141067812	 2.1632269119	-0.0241305217	 0.120458
H	-1.6169024773	 1.2480990497	-0.4107015224	 0.11441
H	-1.0318486553	 1.3268825812	 1.2624013031	 0.126744
H	-0.480489015	-0.8808483408	 0.2069899939	 0.076592
H	 0.7211558176	-0.9769755444	-1.9412587031	 0.109573
H	 0.8748388808	 0.8003672108	-1.9603006773	 0.107577
H	 3.3984270703	-1.7584222566	 0.5378982415	 0.090898
H	 4.8627874569	-1.8340533295	-1.6701474526	 0.106816
H	 3.2784816665	-1.7663824867	-2.4638768309	 0.093313
H	 5.1729014378	 0.5285102276	-1.8418164768	 0.1068
H	 3.6072702836	 0.7602013994	-2.6414077574	 0.093918
H	 3.7883393961	 1.1368743959	 0.3340046178	 0.090721
50.7599	145.1526	170.4273	233.98	270.6396	339.9963	360.3221	428.8245	492.6395	556.5707	695.5036	763.0648	778.8936	832.5723	871.1383	895.7004	911.3192	920.8873	924.704	970.2774	976.8386	981.0368	1020.5856	1074.0037	1088.4848	1092.2074	1108.5603	1142.2142	1171.8394	1200.3592	1222.2227	1226.2087	1246.277	1246.4648	1273.4123	1286.5957	1320.3717	1378.631	1405.359	1453.4625	1481.6786	1482.3603	1492.3742	1494.441	1505.7507	3011.6926	3032.1353	3034.9889	3043.4385	3064.0451	3093.7313	3104.2575	3111.8797	3112.2189	3120.5201	3176.7188	3186.4231
CC1CC2(O1)C1CCC21	C[C@H]1C[C@@]2(O1)[C@H]1CC[C@@H]21	
InChI=1S/C8H12O/c1-5-4-8(9-5)6-2-3-7(6)8/h5-7H,2-4H2,1H3	InChI=1S/C8H12O/c1-5-4-8(9-5)6-2-3-7(6)8/h5-7H,2-4H2,1H3/t5-,6-,7+,8+/m0/s1
