16
gdb 20828	5.9115	1.28099	1.14343	1.6247	66.99	-0.2747	-0.0132	0.2615	1078.1557	0.130414	-379.948007	-379.939994	-379.93905	-379.981389	28.008	
C	 0.3017040248	 0.7744304092	 0.8998996137	-0.382596
C	-0.18312142	 0.4066512328	-0.5134639953	-0.297132
C	-1.5830585547	-0.1048436537	-0.5274345761	 0.417472
N	-2.0104118609	-1.2935361855	-0.8322174381	-0.348345
C	-3.3738365848	-1.1746482683	-0.648571485	 0.351569
C	-4.3287000164	-2.2944060203	-0.8772245019	-0.488155
N	-3.7639246723	 0.0091853425	-0.2549509769	-0.17212
O	-2.5651995139	 0.7349350703	-0.1712306879	-0.202307
H	 1.3269736023	 1.1515141882	 0.8595937814	 0.12514
H	-0.3319057224	 1.5477785129	 1.3415781305	 0.141689
H	 0.2842328554	-0.0985906828	 1.558477039	 0.134215
H	-0.1258849086	 1.287599608	-1.1630384567	 0.134475
H	 0.4477049939	-0.3696317048	-0.9518976836	 0.140517
H	-4.0806719858	-3.1416885082	-0.2309192496	 0.147988
H	-5.3497657306	-1.9709323826	-0.6703517855	 0.149264
H	-4.2631928758	-2.6425050477	-1.9124138281	 0.148327
30.0277	130.2887	144.2171	200.1578	258.1163	287.4834	382.7926	436.8287	609.2079	687.1159	733.3351	757.2511	801.5331	928.996	969.9984	995.3039	1031.3724	1057.5925	1071.8033	1080.2108	1105.1573	1258.7947	1323.3364	1348.0622	1376.3717	1410.8633	1424.0114	1474.5749	1475.1907	1475.9214	1497.7055	1506.0688	1570.2262	1629.8721	3047.0788	3050.0027	3051.2608	3109.4693	3111.0695	3122.9575	3133.0116	3150.463
CCC1=NC(C)=NO1	CCc1nc(C)no1	
InChI=1S/C5H8N2O/c1-3-5-6-4(2)7-8-5/h3H2,1-2H3	InChI=1S/C5H8N2O/c1-3-5-6-4(2)7-8-5/h3H2,1-2H3
