16
gdb 125700	5.91442	0.94368	0.86433	3.41	73.85	-0.2542	-0.0198	0.2344	1330.8142	0.123865	-437.863047	-437.854973	-437.854029	-437.896467	29.086	
C	 0.2157435518	 1.5003644908	-0.1282072246	-0.494608
C	-0.0285344987	 0.0365979849	 0.0508645718	 0.397239
N	-0.5540819834	-0.669017219	-0.9236195298	-0.194033
O	-0.6486826161	-1.9748108586	-0.4449411092	-0.218462
C	-0.1698885843	-2.0185371293	 0.8102828528	 0.476593
C	 0.2393696787	-0.7789408031	 1.1899754856	-0.440279
C	-0.1850022692	-3.3112361755	 1.5138587803	-0.052048
C	-1.0703359678	-4.4159481763	 1.1068134218	-0.173904
O	 0.3208990644	-4.4506326177	 0.8059488356	-0.221431
H	 1.2780844373	 1.7366555681	-0.0092447792	 0.140283
H	-0.1027565646	 1.8140523035	-1.123913145	 0.152627
H	-0.3359028337	 2.0830875237	 0.6166402033	 0.138563
H	 0.672573477	-0.4857507554	 2.1321585633	 0.119371
H	 0.1306562436	-3.2478816163	 2.5537336852	 0.108213
H	-1.4096867265	-5.12520356	 1.8604926863	 0.121973
H	-1.7286636583	-4.2743937997	 0.2527001617	 0.139902
52.4	127.9929	140.5108	161.9825	280.5305	304.4299	432.6141	446.157	622.4303	664.8315	712.4877	735.5302	815.7848	848.1367	897.0903	943.4986	983.1851	996.8566	1032.6201	1047.9097	1067.211	1095.4929	1145.3935	1164.4861	1171.5279	1270.2701	1322.5538	1386.5897	1410.3525	1451.3679	1481.8977	1482.3768	1516.3359	1540.8419	1650.1787	3043.64	3090.7978	3100.0998	3131.4785	3141.6664	3187.8132	3270.9775
CC1=NOC(=C1)C1CO1	Cc1noc(c1)[C@H]1CO1	
InChI=1S/C6H7NO2/c1-4-2-5(9-7-4)6-3-8-6/h2,6H,3H2,1H3	InChI=1S/C6H7NO2/c1-4-2-5(9-7-4)6-3-8-6/h2,6H,3H2,1H3/t6-/m1/s1
