18
gdb 109117	3.13074	1.21385	0.88926	4.1625	75.26	-0.2026	0.0075	0.2101	1267.3789	0.146636	-439.125461	-439.116097	-439.115153	-439.159907	33.39	
C	-0.0190242426	 1.4465398392	 0.0388032595	-0.35694
N	-0.0031828661	 0.0012092915	 0.0551552558	-0.145611
C	-0.0139041029	-0.7551143405	-1.1094538663	 0.399051
O	-0.0389468511	-0.3056570303	-2.2346828236	-0.38594
C	 0.0122221888	-2.2203610814	-0.6600814935	-0.393023
C	 0.037991177	-2.1296012837	 0.8402578053	-0.214941
C	 0.0280131738	-0.8392399578	 1.1909042827	 0.350496
C	 0.0440852315	-0.2354511011	 2.5586870748	-0.183728
O	 0.0783720985	-1.2808796564	 3.5069308494	-0.407025
H	 0.8781248947	 1.8692198044	 0.5057086732	 0.127961
H	-0.0465843722	 1.7467635119	-1.0104001461	 0.170375
H	-0.902350015	 1.8497262774	 0.5472696116	 0.127851
H	-0.8670002996	-2.7388060221	-1.0607528144	 0.14299
H	 0.8887749365	-2.7173262023	-1.0925148357	 0.143
H	 0.0606508584	-2.9576891115	 1.5290047604	 0.119728
H	 0.9190655187	 0.4307312723	 2.6560148492	 0.105411
H	-0.8475553852	 0.40247623	 2.6888583316	 0.105526
H	 0.0852040669	-0.8884861295	 4.384239926	 0.294819
74.9036	107.9956	141.677	170.2399	188.8435	219.192	239.716	301.6915	388.1475	513.4264	520.1819	603.6936	620.5545	709.8086	733.0086	759.22	939.4404	950.6269	985.9348	1046.7532	1079.3801	1098.7018	1145.0965	1153.6808	1160.3469	1211.7733	1253.6001	1263.3146	1271.041	1334.9723	1386.9278	1437.3332	1452.1489	1482.8368	1496.4868	1506.3823	1515.9153	1713.0431	1815.8546	2946.4562	2961.624	3020.7988	3041.2986	3071.0499	3072.4166	3139.3333	3275.3029	3843.8109
CN1C(=O)CC=C1CO	CN1C(=O)CC=C1CO	
InChI=1S/C6H9NO2/c1-7-5(4-8)2-3-6(7)9/h2,8H,3-4H2,1H3	InChI=1S/C6H9NO2/c1-7-5(4-8)2-3-6(7)9/h2,8H,3-4H2,1H3
