13
gdb 19642	6.01501	1.79887	1.70287	4.2732	62.13	-0.2313	-0.0418	0.1895	752.2059	0.094605	-361.337156	-361.331047	-361.330103	-361.367593	22.926	
O	-0.037001439	 0.1404740883	-0.6047523022	-0.254704
C	 0.1387287983	 1.0213674789	 0.2024611133	 0.018967
C	 1.2756326839	 1.9531437674	 0.151760461	 0.278805
C	 1.8048441936	 3.1265036197	 1.01159629	-0.18929
C	 2.5419116642	 3.6759119806	-0.2185954896	-0.108724
C	 3.1982692409	 2.665533197	 0.6855075109	-0.00334
N	 2.7007869548	 1.4906533835	-0.1630285464	-0.187403
C	 2.0250168224	 2.4737177131	-1.0450702962	-0.082032
H	-0.5725976153	 1.1980740636	 1.0402624246	 0.074717
H	 1.4131792309	 3.653284594	 1.8696129943	 0.109009
H	 2.803417309	 4.6944682968	-0.4639987674	 0.109434
H	 4.1227877368	 2.6641970014	 1.2471009107	 0.113962
H	 1.8356945594	 2.2843380357	-2.0945796429	 0.120599
94.0272	173.9033	214.3433	450.4571	643.458	692.5857	735.3212	751.8019	793.3579	815.9399	838.9814	859.7626	913.9941	940.5068	997.7212	1005.8963	1008.7481	1034.5132	1043.2779	1055.6398	1119.4866	1179.3723	1241.554	1256.8269	1341.4947	1357.0448	1434.4158	1800.1338	2876.7055	3195.0597	3203.6458	3221.9276	3234.6806
O=CC12C3C4C3N1C24	O=C[C@@]12[C@@H]3[C@H]4[C@@H]3N1[C@@H]24	
InChI=1S/C6H5NO/c8-1-6-3-2-4(3)7(6)5(2)6/h1-5H	InChI=1S/C6H5NO/c8-1-6-3-2-4(3)7(6)5(2)6/h1-5H/t2-,3+,4-,5+,6-,7?/m0/s1
