19
gdb 72224	3.21337	1.67198	1.3594	1.1567	73.87	-0.234	0.0704	0.3044	974.657	0.16067	-423.004863	-422.997509	-422.996565	-423.03639	29.842	
O	-0.0321632955	 1.4342350594	 0.0024593174	-0.48509
C	 0.0198581064	 0.0367201058	 0.0061224237	 0.41579
C	 0.4637976035	-0.6665135348	-1.3113326314	-0.308789
C	-0.8307971066	-1.5437212928	-1.29458312	-0.033234
C	-0.6574977674	-2.985823437	-0.8377721987	-0.08339
O	-0.2941966344	-2.9276642129	 0.540594816	-0.275016
C	-0.7159151443	-1.6931278001	 1.1105547699	 0.112426
C	 0.45339938	-0.6842677801	 1.3068361084	-0.31245
C	-1.3030321883	-0.7978455717	-0.0191195256	-0.123761
H	 0.871442818	 1.7694160744	 0.0263176461	 0.276732
H	 0.4621594573	 0.0461999564	-2.1392694857	 0.10529
H	 1.4186279762	-1.2013478619	-1.2940646716	 0.094443
H	-1.4528451853	-1.4535247437	-2.1859339986	 0.076524
H	-1.5972824861	-3.5471995363	-0.9643472376	 0.088813
H	 0.1337613087	-3.5222333912	-1.3738617212	 0.104308
H	-1.3353128132	-1.8898297985	 1.9894806717	 0.079247
H	 1.4562135193	-1.115925749	 1.3669476468	 0.095006
H	 0.2731337568	-0.0307478946	 2.1654373133	 0.102409
H	-2.303712835	-0.3814193516	 0.0716378071	 0.070741
110.5449	204.8788	228.9952	300.158	360.864	390.0461	436.4581	572.2595	600.6307	709.459	716.604	810.0555	817.3169	852.0616	899.8829	905.7246	925.3199	946.924	965.0022	972.6132	1014.2905	1054.2494	1089.5079	1106.2349	1146.5809	1149.0547	1180.9042	1200.4197	1214.9171	1228.9938	1247.6696	1258.7986	1265.701	1304.8045	1323.1961	1343.0691	1370.1475	1392.9529	1459.2209	1474.2729	1519.4002	2973.1176	3047.6093	3050.1656	3058.0654	3067.3789	3098.4149	3112.6833	3116.1947	3141.0486	3791.2386
OC12CC3COC(C1)C23	O[C@@]12C[C@H]3CO[C@@H](C1)[C@@H]23	
InChI=1S/C7H10O2/c8-7-1-4-3-9-5(2-7)6(4)7/h4-6,8H,1-3H2	InChI=1S/C7H10O2/c8-7-1-4-3-9-5(2-7)6(4)7/h4-6,8H,1-3H2/t4-,5-,6-,7-/m0/s1
