20
gdb 88634	3.39973	1.06612	0.97167	2.6855	80.99	-0.2622	0.0285	0.2908	1300.5322	0.171017	-403.140649	-403.131874	-403.13093	-403.174591	33.164	
C	 0.3071430956	 1.6298785716	-0.1919316202	-0.42061
C	-0.1051763323	 0.1956685266	 0.0654034897	-0.000861
C	 0.861877036	-0.9492763754	-0.1353743188	-0.301119
C	 0.3822488992	-0.6021913765	 1.2536473482	-0.028669
C	 1.3156455069	-0.0671238767	 2.3065411033	 0.0955
C	 2.2087121853	-1.0888429171	 3.0516042716	-0.372785
C	 3.3502102489	-0.2986503945	 2.4530926816	 0.442094
N	 4.6002442816	-0.3581032139	 2.5138788297	-0.538787
O	 2.5273642794	 0.5817735294	 1.7760322861	-0.259623
H	 1.3461597481	 1.8072568765	 0.0925084672	 0.145485
H	 0.1990771241	 1.8741823313	-1.2544139396	 0.115586
H	-0.3207412979	 2.3294583108	 0.371756741	 0.112472
H	-1.1333388145	-0.020177762	-0.215840601	 0.084335
H	 0.5105283696	-1.8664468351	-0.5948610069	 0.109779
H	 1.8856769492	-0.685491286	-0.3774708728	 0.128383
H	-0.3494580591	-1.2764378159	 1.6948730098	 0.091253
H	 0.8057970669	 0.6370324994	 2.9725214504	 0.096078
H	 2.1598779521	-1.079361824	 4.1412913235	 0.135454
H	 2.1352227374	-2.1149386884	 2.6863079171	 0.138985
H	 5.0342611835	 0.3797977499	 1.9566254601	 0.227051
61.9593	82.5089	148.1832	206.7736	246.4712	269.1933	362.7762	449.1226	479.659	497.8	591.5167	701.2606	767.3407	785.0768	849.6103	866.707	890.9177	910.3741	942.0207	970.1984	978.8307	1021.1485	1042.2913	1068.7045	1086.7031	1113.2282	1130.1078	1147.1091	1153.5069	1200.3939	1224.3369	1237.3825	1243.9879	1314.8985	1371.6291	1392.6754	1418.2376	1428.0123	1460.8563	1490.9805	1504.2907	1507.926	1826.858	3031.7315	3051.4151	3085.1892	3086.6652	3119.498	3127.5264	3136.4856	3142.8568	3143.4569	3223.4718	3475.7789
CC1CC1C1CC(=N)O1	C[C@H]1C[C@H]1[C@H]1C[C]([NH])O1	
InChI=1S/C7H11NO/c1-4-2-5(4)6-3-7(8)9-6/h4-6,8H,2-3H2,1H3	InChI=1S/C7H11NO/c1-4-2-5(4)6-3-7(8)9-6/h4-6,8H,2-3H2,1H3/t4-,5+,6+/m0/s1
