16
gdb 33993	3.38088	1.39822	1.18514	1.8819	76.12	-0.2429	0.02	0.2628	1051.2194	0.124453	-400.706355	-400.698671	-400.697727	-400.738566	29.683	
C	 0.1713907812	-1.236460667	-0.1445197863	-0.407117
C	 0.1028610627	-0.0431229288	-0.0196714633	 0.267038
C	 0.0387698919	 1.38303747	 0.1109766868	 0.219466
C	 0.1979664976	 2.2800387905	-1.1012209644	-0.330693
C	 1.2795936611	 2.2359077639	-0.0517975329	-0.114041
C	 1.4655292689	 3.3823748242	 0.927123847	-0.179646
N	 0.3358532759	 3.6654873261	 1.8003438268	-0.2665
C	-0.6600596075	 2.892703372	 1.8121623392	 0.117125
O	-0.9203809877	 1.7792320721	 1.0762973198	-0.2569
H	 0.2263549333	-2.2919183811	-0.2494469102	 0.199362
H	 0.3758592026	 1.8061783847	-2.0589348887	 0.132684
H	-0.4496636391	 3.150870706	-1.1256535365	 0.135424
H	 2.1817302203	 1.6929804678	-0.3127914997	 0.111989
H	 2.3255704341	 3.1606512843	 1.5711318371	 0.125826
H	 1.7209898833	 4.3072285997	 0.3934817097	 0.118353
H	-1.4997397888	 3.0762030356	 2.4791963956	 0.127629
89.1696	138.4925	165.4945	295.7135	386.3155	423.2973	492.9383	519.1475	558.9551	582.1166	600.923	664.6512	687.8686	779.1888	880.8252	887.5111	919.1443	932.8437	958.988	978.6713	1055.3275	1059.843	1093.8172	1126.5998	1173.9308	1228.9266	1264.5874	1279.3586	1366.3168	1403.7902	1416.2723	1473.7075	1488.1135	1744.9685	2243.8214	3017.4004	3045.1768	3135.9489	3166.3723	3167.4663	3233.0221	3501.5841
C#CC12CC1CN=CO2	C#C[C@]12C[C@H]1CN=CO2	
InChI=1S/C7H7NO/c1-2-7-3-6(7)4-8-5-9-7/h1,5-6H,3-4H2	InChI=1S/C7H7NO/c1-2-7-3-6(7)4-8-5-9-7/h1,5-6H,3-4H2/t6-,7-/m0/s1
