25
gdb 100296	1.82098	1.3939	1.08509	2.1895	84.65	-0.2502	0.0715	0.3217	1328.4894	0.22553	-426.626254	-426.614598	-426.613653	-426.662622	43.185	
C	 0.0775582566	 1.4340704472	 0.4355226867	-0.394925
C	 0.0250171397	-0.0738553096	 0.1658922014	-0.212363
C	 0.6089631927	-0.5329575889	-1.1872792211	 0.333493
C	 0.4224573558	-2.0445210487	-1.3635726341	-0.436478
O	-0.0038861714	 0.1989898594	-2.2769492658	-0.299724
C	-1.3626361028	-0.0386516651	-2.5736447386	-0.247997
C	 2.0990601327	-0.1279583849	-1.3736902735	 0.135264
C	 3.0804175047	-0.7521459366	-0.3905174206	-0.405671
O	 2.5313340441	-0.48131255	-2.6800227227	-0.450211
H	 1.1013373597	 1.7912738572	 0.5804999952	 0.121632
H	-0.3534116146	 1.9955564934	-0.3977570287	 0.12858
H	-0.4854121897	 1.6801139616	 1.3410261088	 0.108723
H	 0.5427096546	-0.6175733021	 0.9640775691	 0.10193
H	-1.0167280679	-0.4132534185	 0.2188971915	 0.094094
H	-0.634473586	-2.3237574809	-1.3429643708	 0.108953
H	 0.8630998702	-2.3738826102	-2.3068997131	 0.129759
H	 0.9125346825	-2.5853804675	-0.5497392884	 0.119313
H	-1.5404962985	-1.0489868622	-2.9647791702	 0.113396
H	-2.0183452978	 0.1192922423	-1.7067221544	 0.110132
H	-1.6394027598	 0.6833718961	-3.3467294629	 0.127262
H	 2.1364843587	 0.966128605	-1.2629925067	 0.067945
H	 4.0886075873	-0.3997121971	-0.6239892938	 0.127368
H	 2.8521378861	-0.4715352993	 0.641240447	 0.113991
H	 3.0843025413	-1.8427959799	-0.4679293364	 0.123217
H	 1.8382403018	-0.1539545108	-3.2673485382	 0.282317
56.1011	83.3694	118.3633	177.4555	203.9154	209.537	226.5097	247.7225	265.456	298.5086	337.661	367.8736	374.3926	435.7827	480.9378	498.1327	519.9171	595.2802	704.8584	759.8345	856.7875	889.525	924.3256	984.3412	1008.6711	1041.7295	1052.906	1082.5124	1119.623	1156.677	1170.8746	1179.8386	1196.6792	1203.3612	1259.8426	1304.7764	1316.7759	1371.9538	1383.685	1400.7499	1405.9738	1413.142	1443.1443	1471.5856	1477.6449	1485.8228	1493.6011	1496.0942	1500.9403	1503.5118	1511.0211	1512.1249	1518.2173	2985.4205	2999.725	3030.2978	3043.6111	3049.5732	3052.7165	3056.1187	3064.3443	3105.8365	3107.0989	3116.8078	3120.5459	3122.5331	3126.6016	3137.8702	3777.1686
CCC(C)(OC)C(C)O	CC[C@@](C)(OC)[C@@H](C)O	
InChI=1S/C7H16O2/c1-5-7(3,9-4)6(2)8/h6,8H,5H2,1-4H3	InChI=1S/C7H16O2/c1-5-7(3,9-4)6(2)8/h6,8H,5H2,1-4H3/t6-,7-/m1/s1
