23
gdb 114243	3.89098	0.84725	0.78729	0.9762	87.82	-0.241	0.0842	0.3252	1577.1991	0.204226	-388.26086	-388.250989	-388.250045	-388.295897	36.887	
C	 0.3197852625	 1.7487916053	-0.7615206301	-0.239445
O	-0.3595779273	 0.5186423588	-0.6561239687	-0.240149
C	 0.4302641712	-0.5825905869	-1.0145334271	 0.165585
C	 1.5180784032	-1.082684497	-0.0109685185	-0.337302
C	 0.9818405755	-2.5026971973	-0.2514521619	 0.368441
C	 1.784846692	-3.6568367224	-0.7871745536	-0.350842
C	 1.1524940313	-3.7337231148	 0.587103464	-0.059201
C	 2.0104054084	-3.7153041442	 1.8328031302	-0.404334
C	-0.2962413752	-1.938920108	-0.8875631131	-0.340812
H	 1.1881573989	 1.8006298596	-0.0873149466	 0.107041
H	 0.6724395451	 1.9316617785	-1.7892033005	 0.102401
H	-0.3856632547	 2.536348529	-0.485479233	 0.12524
H	 0.8586824336	-0.4371610576	-2.0183155648	 0.063629
H	 2.5654605409	-0.8834052154	-0.2520269116	 0.094076
H	 1.3025599095	-0.7189126423	 0.9997942352	 0.103542
H	 1.3601785499	-4.254259788	-1.5884111251	 0.105906
H	 2.8646497109	-3.5452222128	-0.8400567912	 0.10448
H	 0.2717615586	-4.3693796371	 0.6578929056	 0.079201
H	 2.8749180599	-3.0551811149	 1.7073655293	 0.114384
H	 1.4463016181	-3.3588431123	 2.7023471475	 0.115454
H	 2.3892461389	-4.7158348426	 2.0695386821	 0.115509
H	-1.1202991325	-1.8566869072	-0.1714920546	 0.109396
H	-0.6624261587	-2.4020392004	-1.8073390337	 0.097801
49.808	96.592	157.09	177.742	190.1334	209.958	271.9885	326.1621	346.5872	416.2348	454.2209	486.1496	551.1615	714.9131	778.292	832.6915	865.9766	902.7326	916.0947	928.0712	987.1279	1003.0498	1029.4365	1048.3149	1076.871	1089.7957	1128.1043	1132.5654	1161.3656	1180.9542	1184.2818	1205.3886	1214.3603	1225.5917	1240.624	1261.5248	1295.1305	1336.2751	1388.843	1409.7183	1430.2824	1467.8545	1480.5448	1487.3455	1489.1119	1492.5045	1495.7722	1506.3088	1510.5742	2969.8205	2980.8092	3018.9989	3024.738	3040.4885	3050.3642	3084.8786	3093.9671	3099.0545	3105.2856	3111.5134	3113.0064	3123.8268	3195.7729
COC1CC2(CC2C)C1	CO[C@H]1C[C@]2(C[C@H]2C)C1	
InChI=1S/C8H14O/c1-6-3-8(6)4-7(5-8)9-2/h6-7H,3-5H2,1-2H3	InChI=1S/C8H14O/c1-6-3-8(6)4-7(5-8)9-2/h6-7H,3-5H2,1-2H3/t6-,7-,8+/m1/s1
