15
gdb 30525	3.52389	1.09559	0.837	3.8832	82.26	-0.171	-0.0094	0.1616	1300.8574	0.114268	-450.164022	-450.155709	-450.154765	-450.19698	30.895	
N	 0.0336006009	 1.3732575822	 0.108717062	-0.503315
C	-0.0022349614	 0.0045490231	 0.032371526	 0.074722
N	-1.1082362517	-0.6415784605	 0.0319330448	-0.353385
C	-1.1495254911	-1.9980513262	 0.0316530698	 0.351904
C	-2.2103091121	-2.8625573444	 0.0597172352	 0.178059
N	-3.5630323954	-2.5779043411	 0.1797427858	-0.595644
N	-1.74970055	-4.1679311003	 0.0212333562	-0.301062
C	-0.460621804	-4.0512015936	-0.0197502343	 0.063621
O	 0.0014915419	-2.7873985733	-0.0112480312	-0.195162
H	 0.8518175404	 1.8376377151	-0.2501264004	 0.257982
H	-0.8415659809	 1.8457401177	-0.0650807336	 0.258655
H	 0.9807810789	-0.4729407597	 0.0255515652	 0.118579
H	-3.7881495613	-1.6337619836	-0.1035774697	 0.252033
H	-4.1441485002	-3.2599116312	-0.2890900531	 0.251282
H	 0.2734837461	-4.8408706141	-0.0609479527	 0.141731
113.3067	127.1858	158.3474	244.8938	285.8998	325.8716	396.8992	404.6999	429.8316	546.7834	565.7268	646.3016	664.3522	699.8862	761.09	803.4415	808.7812	950.9656	971.6157	1027.3208	1081.2588	1123.4988	1184.4779	1293.7793	1304.1904	1321.7434	1393.4561	1448.2853	1552.4203	1619.8132	1629.0337	1700.8998	1733.9047	3097.5199	3268.4942	3546.1659	3576.3739	3649.6412	3699.9093
NC=NC1=C(N)N=CO1	NC=Nc1c(N)nco1	
InChI=1S/C4H6N4O/c5-1-7-4-3(6)8-2-9-4/h1-2H,6H2,(H2,5,7)	InChI=1S/C4H6N4O/c5-1-7-4-3(6)8-2-9-4/h1-2H,6H2,(H2,5,7)
