19
gdb 97273	2.1883	1.50441	0.97662	3.8029	72.75	-0.2324	0.0142	0.2466	1233.6693	0.159306	-456.36994	-456.360733	-456.359789	-456.404156	33.258	
C	 0.91431039	 0.9315644471	 0.2756619385	-0.32489
N	 0.6169283251	-0.4942760373	 0.1503369462	-0.271763
H	 1.2226932566	-1.045460336	 0.750167704	 0.223756
C	 0.6270193437	-1.0031609423	-1.1829744712	 0.143399
N	 0.2270264888	-2.3920453281	-1.3065021165	-0.086999
C	-0.8855662236	-2.8512229461	-0.5016135519	-0.318068
C	 1.422360725	-3.2028014121	-1.3459556666	-0.327594
C	 2.4725728905	-2.2272630704	-1.8578002087	 0.425329
O	 1.9491988291	-0.9767399371	-1.7924187515	-0.230039
O	 3.578035519	-2.4592617203	-2.2485762916	-0.334802
H	 1.9209101328	 1.2072242036	-0.0681733083	 0.128495
H	 0.1869847575	 1.5007459671	-0.3129494324	 0.130619
H	 0.8044500606	 1.2320435772	 1.3208149601	 0.125955
H	 0.0008331487	-0.3443586439	-1.79675492	 0.102824
H	-1.7139557003	-2.1429304258	-0.5836239253	 0.132506
H	-1.2261465577	-3.8201489995	-0.8812111184	 0.124432
H	-0.6456453906	-2.9649802916	 0.5682698188	 0.103547
H	 1.7494010519	-3.5960719371	-0.3646643971	 0.112162
H	 1.3326193629	-4.0575559075	-2.0244318781	 0.14113
84.7463	116.5893	133.8019	172.108	211.5733	218.8822	279.3905	298.7076	442.3272	505.225	534.1842	571.5408	600.669	693.1163	757.9805	863.3968	940.6416	965.4785	1002.4264	1034.1516	1065.4364	1136.435	1149.8173	1155.0534	1170.498	1202.1897	1226.6094	1229.7112	1299.4387	1356.0702	1373.1314	1393.9851	1457.8976	1460.4444	1486.1851	1488.4028	1503.1369	1503.7793	1517.9067	1523.9281	1892.6896	2927.0323	2971.0866	3006.4135	3039.6539	3064.4574	3066.2973	3077.4481	3114.5485	3116.8303	3523.8883
C[NH+]=CN(C)CC([O-])=O	CN[C@@H]1N(C)CC(=O)O1	
InChI=1S/C5H10N2O2/c1-6-4-7(2)3-5(8)9/h4H,3H2,1-2H3,(H,8,9)	InChI=1S/C5H10N2O2/c1-6-5-7(2)3-4(8)9-5/h5-6H,3H2,1-2H3/t5-/m1/s1
