20
gdb 56678	2.03452	1.64729	1.14207	3.3708	77.95	-0.2917	0.0132	0.3049	1146.128	0.169737	-403.150232	-403.140633	-403.139689	-403.184557	35.691	
C	-0.2631751923	 1.629645891	 0.0808970643	-0.458587
C	 0.0265233621	 0.1331086059	-0.0040654234	 0.318193
C	 1.2232490365	-0.2739930577	-0.9294314771	-0.278058
C	 1.884436849	-1.0288054101	 0.257031219	-0.203128
C	 0.7963062119	-0.4707739682	 1.2158548158	-0.276433
C	-1.2862859858	-0.6113186051	-0.3355499353	-0.065083
O	-1.870012983	-0.1888549069	-1.5552511333	-0.410061
C	-1.1175266613	-2.0822637674	-0.3370352737	 0.262274
N	-0.9759380136	-3.228922086	-0.3709539038	-0.333235
H	 0.6584586583	 2.1850264517	 0.2785205394	 0.114782
H	-0.6999174177	 2.0021217455	-0.8497224743	 0.130505
H	-0.9656511269	 1.8489444621	 0.8939482186	 0.116287
H	 0.9775873212	-0.8905300364	-1.8007773882	 0.095992
H	 1.7914037173	 0.5904865604	-1.281009395	 0.105116
H	 1.8438127022	-2.1137911862	 0.1496710477	 0.130887
H	 2.9122288657	-0.7416515592	 0.4869364828	 0.102406
H	 1.1595867237	 0.3039017962	 1.8957524061	 0.101699
H	 0.2539553063	-1.2136384811	 1.8068418385	 0.113979
H	-2.0265174876	-0.3699965205	 0.4368799686	 0.136888
H	-1.2554093561	-0.4003216979	-2.2681183963	 0.295577
73.1092	89.9015	144.2136	200.4403	237.1284	249.2399	297.75	325.784	358.7096	363.6024	444.2255	543.6634	605.0508	665.9675	737.467	783.9206	834.5699	865.5684	918.6135	957.945	962.9705	967.2182	1007.4783	1059.4936	1078.0992	1156.1879	1190.0856	1201.1	1232.3704	1258.4905	1263.1724	1282.0989	1287.3267	1303.0968	1337.4624	1405.8055	1414.5778	1473.6854	1479.8509	1491.4792	1496.6863	1504.6105	2350.4468	3029.28	3042.7886	3047.8263	3058.8972	3078.2286	3093.8816	3098.6205	3105.6708	3119.0453	3135.1491	3795.7297
CC1(CCC1)C(O)C#N	CC1(CCC1)[C@@H](O)C#N	
InChI=1S/C7H11NO/c1-7(3-2-4-7)6(9)5-8/h6,9H,2-4H2,1H3	InChI=1S/C7H11NO/c1-7(3-2-4-7)6(9)5-8/h6,9H,2-4H2,1H3/t6-/m0/s1
