16
gdb 23213	2.58623	1.30075	0.94663	2.3224	70.39	-0.2497	-0.0202	0.2296	1203.1911	0.121887	-474.933071	-474.924407	-474.923463	-474.966569	32.131	
O	-0.1072639726	 1.34624769	 0.4720135069	-0.384952
N	-0.010054014	-0.0507709128	 0.519708859	-0.241781
C	-1.0423025636	-0.5978922453	 0.0300732252	 0.341111
C	-2.3785538534	-0.1476903879	-0.5339370014	-0.387644
C	-2.8663156898	-1.637318628	-0.424191372	 0.058531
O	-3.5129153382	-2.2371125765	-1.5124154668	-0.425803
C	-1.4110996005	-2.0423187852	-0.0983005787	 0.334461
C	-0.6383101743	-3.1671024684	-0.6495092403	-0.262977
O	-1.0055286609	-3.1082362192	 0.7309250193	-0.263418
H	 0.7107709108	 1.6236645503	 0.8994698673	 0.310871
H	-2.921895335	 0.5955852261	 0.0529592521	 0.139478
H	-2.3138780777	 0.2058855129	-1.5689864815	 0.122941
H	-3.5178240872	-1.7872982018	 0.440364758	 0.11913
H	-2.9564734718	-2.1300585655	-2.2917916763	 0.281771
H	-1.1567568181	-3.9239569848	-1.2367994474	 0.126714
H	 0.4211341064	-3.031285874	-0.8588903634	 0.131566
71.0133	152.1025	159.7338	202.9809	257.6704	315.528	362.4263	379.8753	428.6326	478.1533	518.987	573.38	628.7981	751.8871	805.3611	863.4554	931.7781	945.9144	970.8594	1017.0783	1074.1574	1098.7259	1127.3163	1131.9257	1158.9104	1164.8313	1231.1609	1244.9053	1308.607	1389.3716	1428.3803	1434.6327	1459.5081	1517.2947	1778.8771	3051.6192	3084.0623	3090.2529	3118.4207	3181.1162	3802.1718	3810.1792
ON=C1CC(O)C11CO1	ON=C1C[C@@H](O)[C@]21CO2	
InChI=1S/C5H7NO3/c7-4-1-3(6-8)5(4)2-9-5/h4,7-8H,1-2H2	InChI=1S/C5H7NO3/c7-4-1-3(6-8)5(4)2-9-5/h4,7-8H,1-2H2/t4-,5-/m1/s1
