18
gdb 49422	3.4575	1.49044	1.44431	1.0357	73.94	-0.2409	-0.0278	0.2131	962.2917	0.150467	-401.950672	-401.94388	-401.942936	-401.982073	27.184	
O	-0.6926083048	 0.8079780825	 0.5501261599	-0.242945
C	 0.1411877781	 1.018044323	-0.2948137503	 0.132009
C	 1.3038802924	 1.9726748354	-0.1688648919	-0.093438
C	 1.2114281422	 3.1813223278	-1.116781857	-0.056576
C	 0.559945645	 4.2883930025	-0.3610322848	-0.027197
C	 0.2406132811	 3.7734535696	 1.0373048856	-0.241208
C	 1.4332050658	 2.7939147684	 1.1324925129	-0.070981
C	 2.5806143784	 3.7349064722	 0.7182253005	-0.166093
N	 2.035591631	 4.2787664744	-0.5542794682	-0.125578
H	 0.104392138	 0.4809950203	-1.2716587871	 0.07902
H	 2.2139401572	 1.3946622402	-0.3874562398	 0.095044
H	 1.1857891837	 3.0768466519	-2.1945150443	 0.096962
H	 0.0086918631	 5.0885643032	-0.8390957457	 0.09446
H	 0.2906925677	 4.560318134	 1.7965307642	 0.102049
H	-0.7277134784	 3.2762803425	 1.1028727904	 0.13155
H	 1.5390028534	 2.2315091151	 2.057248723	 0.082318
H	 2.7549618267	 4.5498420099	 1.426710951	 0.106928
H	 3.5288660995	 3.2234533471	 0.5275549816	 0.103679
80.813	187.5906	223.9986	377.0768	442.3327	464.7971	655.9188	685.5059	713.898	785.9063	793.5285	849.744	858.0778	912.6139	928.2988	942.716	952.3821	955.7598	1002.3492	1028.2269	1054.8871	1061.1594	1088.1333	1098.4959	1151.9363	1189.305	1202.8033	1213.0116	1228.3758	1258.8878	1284.3786	1302.289	1325.9389	1345.2652	1384.8242	1432.6331	1494.5485	1514.7099	1823.1829	2856.6863	3006.0983	3054.4546	3063.5497	3103.1701	3134.8463	3151.0344	3185.2934	3195.9941
O=CC1C2C3CC1CN23	O=C[C@H]1[C@H]2[C@H]3C[C@@H]1CN23	
InChI=1S/C7H9NO/c9-3-5-4-1-6-7(5)8(6)2-4/h3-7H,1-2H2	InChI=1S/C7H9NO/c9-3-5-4-1-6-7(5)8(6)2-4/h3-7H,1-2H2/t4-,5-,6-,7+,8?/m1/s1
