14
gdb 48449	1.88862	1.69793	1.27909	2.0618	70.02	-0.2658	-0.0498	0.216	1040.8628	0.098396	-436.64619	-436.637646	-436.636701	-436.679865	30.458	
N	 0.1011972061	 1.2140926261	-0.6443876413	-0.534039
C	 0.071410639	 0.0736371581	-0.1362674964	 0.417022
O	 0.9784301275	-0.6387157224	 0.6013837429	-0.250013
C	 0.0891546469	-1.7993167675	 0.6879376289	-0.119925
C	-1.0087178351	-1.0263974449	-0.0815114282	-0.108857
C	-2.1860993423	-0.560771132	 0.7952083876	 0.125991
O	-2.2905061018	-0.8240793795	 1.9604385955	-0.234682
C	-1.4872293	-1.548647839	-1.3415380909	 0.250274
C	-1.9312925078	-1.9871542743	-2.3681982387	-0.411667
H	 0.9891030106	 1.6879922276	-0.4720350765	 0.240849
H	 0.5095125706	-2.6561188976	 0.1614302396	 0.137602
H	-0.1621803613	-2.0296311419	 1.7231538441	 0.154363
H	-2.9249060236	 0.0563229391	 0.2485262282	 0.123121
H	-2.3036711688	-2.3694056218	-3.2870087149	 0.209958
75.4117	110.986	123.1692	165.6041	212.7041	295.8845	373.8421	489.3959	496.1228	575.731	636.971	644.5324	663.7223	672.2695	794.9132	855.8025	913.83	935.2924	965.9238	1011.7031	1061.2356	1147.4326	1174.2004	1217.1273	1227.0501	1344.6451	1408.1603	1503.3815	1814.6917	1840.2454	2240.9114	2955.1408	3092.066	3166.5753	3485.8172	3498.4156
N=C1OCC1(C=O)C#C	[NH][C]1OC[C@]1(C=O)C#C	
InChI=1S/C6H5NO2/c1-2-6(3-8)4-9-5(6)7/h1,3,7H,4H2	InChI=1S/C6H5NO2/c1-2-6(3-8)4-9-5(6)7/h1,3,7H,4H2/t6-/m1/s1
