16
gdb 71926	2.7101	1.97937	1.39616	3.1552	68.27	-0.2264	-0.0244	0.202	913.6914	0.125226	-437.835958	-437.828946	-437.828001	-437.867133	28.258	
O	 0.4033263317	 1.3627276623	-0.1490368503	-0.472109
C	 0.1285439376	 0.0162103382	-0.1111810479	 0.307159
C	 0.389912087	-0.7873615975	-1.4004319514	-0.262549
C	-0.7695386519	-1.7486368832	-1.0629161983	-0.019207
N	-0.3381204807	-2.7321857208	-0.0172006182	-0.321772
C	-0.6698572018	-1.7420505912	 1.0509956787	-0.14921
C	-1.3094460246	-0.7520713184	 0.0124745482	-0.145208
C	 0.4431931112	-0.6963644959	 1.2003011359	 0.370951
O	 1.0168376794	-0.2464703354	 2.1580681429	-0.335432
H	 0.6749642673	 1.621473974	 0.7436781392	 0.2964
H	 0.1216871817	-0.1491543635	-2.248313615	 0.120182
H	 1.3825864495	-1.2159170471	-1.5553939238	 0.116495
H	-1.3486664983	-2.1636306209	-1.8875468105	 0.081802
H	-1.0168154974	-3.4870232733	 0.0285207205	 0.225777
H	-1.1253717312	-2.1198245543	 1.9657780562	 0.094517
H	-2.2769543597	-0.2645022329	 0.0879422435	 0.092204
120.5443	234.2845	256.5433	347.3826	388.0241	420.6197	468.2058	536.515	659.9149	696.439	767.2154	782.3539	809.3096	829.3548	860.2033	878.876	926.5592	959.8171	1001.2909	1022.8991	1032.6884	1054.6254	1113.0526	1124.2423	1165.2576	1184.3895	1211.5935	1216.8953	1268.9043	1343.4147	1357.336	1389.266	1405.7129	1475.214	1843.825	3055.9614	3110.7323	3120.041	3123.6956	3164.9996	3506.599	3733.2746
OC12CC3NC(C13)C2=O	O[C@]12C[C@H]3N[C@H]([C@@H]13)C2=O	
InChI=1S/C6H7NO2/c8-5-4-3-2(7-4)1-6(3,5)9/h2-4,7,9H,1H2	InChI=1S/C6H7NO2/c8-5-4-3-2(7-4)1-6(3,5)9/h2-4,7,9H,1H2/t2-,3+,4-,6-/m1/s1
