23
gdb 92485	2.36376	1.56955	1.54603	1.3378	82.98	-0.2554	0.0709	0.3262	1054.1026	0.210377	-388.32313	-388.315159	-388.314215	-388.355552	32.67	
O	-0.0141994981	 1.4161357521	-0.1409677616	-0.448567
C	 0.0115222811	-0.0014776635	 0.0008760911	 0.150127
C	 0.7266069903	-0.463928029	 1.3043803801	-0.249497
C	-0.1944721863	-1.3989025666	 2.1111902727	 0.013677
C	-1.4446327069	-0.6145424936	 2.5520340005	-0.203181
C	-2.1350567042	 0.0084544036	 1.3038762923	-0.208649
C	-1.4420117132	-0.4943863221	 0.0235471954	 0.004623
C	-1.4360811043	-2.034297897	 0.0019934522	-0.220214
C	-0.6265200024	-2.5763012791	 1.2169252218	-0.201994
H	 0.8913769671	 1.7363315947	-0.0840898434	 0.277583
H	 0.5136241864	-0.4449052035	-0.8737287395	 0.053869
H	 1.6733466397	-0.9651369795	 1.0731370129	 0.086694
H	 0.9649319683	 0.4239953927	 1.9023197902	 0.089229
H	 0.3397547709	-1.7759132114	 2.989856518	 0.053295
H	-2.1274441639	-1.2880259115	 3.0822745755	 0.087181
H	-1.1613729732	 0.1663601434	 3.266134247	 0.090646
H	-3.1977314915	-0.2538205342	 1.2741354441	 0.085357
H	-2.0751266123	 1.0989739561	 1.3317193813	 0.112455
H	-1.9555485544	-0.1027964148	-0.8601230284	 0.062795
H	-2.4693507203	-2.3958376357	 0.0322163833	 0.093512
H	-1.0097388619	-2.3950094732	-0.9406921801	 0.091428
H	 0.2584173452	-3.1271125605	 0.8786309541	 0.088039
H	-1.227582946	-3.2823987474	 1.7997378204	 0.09159
53.6966	207.8205	263.4826	284.529	314.1555	360.6586	403.1847	445.5399	504.4883	580.0317	636.24	777.9782	804.7993	816.4584	821.3333	857.3659	875.0881	919.8981	946.6381	963.7078	989.1051	1027.6432	1055.0098	1055.689	1077.2062	1115.0071	1125.8301	1150.1831	1167.1563	1175.1524	1230.8898	1258.8471	1263.6499	1287.8827	1302.8864	1337.1545	1339.5694	1348.1673	1354.8336	1360.8567	1370.8003	1384.7686	1398.4306	1431.3768	1480.5398	1483.4576	1493.7718	1502.2191	1518.6224	2959.2838	3022.3381	3025.3811	3027.7189	3037.0192	3045.1925	3049.6888	3057.5978	3061.7243	3064.2403	3068.3239	3081.6191	3102.3101	3818.5205
OC1CC2CCC1CC2	O[C@H]1C[C@H]2CC[C@@H]1CC2	
InChI=1S/C8H14O/c9-8-5-6-1-3-7(8)4-2-6/h6-9H,1-5H2	InChI=1S/C8H14O/c9-8-5-6-1-3-7(8)4-2-6/h6-9H,1-5H2/t6-,7+,8-/m0/s1
