14
gdb 20158	3.75694	3.16573	2.81686	2.1776	57.26	-0.2651	0.0856	0.3507	583.3254	0.110798	-382.505989	-382.501479	-382.500534	-382.534347	19.868	
O	-0.0503361715	 1.4642336054	-0.0023807432	-0.233287
C	 1.3438005825	 1.7314902624	 0.0470766762	 0.028244
C	 1.8787371391	 0.9928890031	 1.2874641974	-0.097293
C	 2.4565445186	-0.1174074669	 0.4358336523	-0.097294
C	 1.0977805999	-0.2857390081	 1.0789974386	-0.086394
C	 0.0686445291	 0.0470661032	-0.053125172	 0.127354
O	 0.7994918085	-0.1687708833	-1.2549447666	-0.233286
C	 1.9583147777	 0.5506562476	-0.8586599544	 0.028245
H	 1.5690388681	 2.7752949307	-0.1504411301	 0.088644
H	 2.1814862603	 1.3958888575	 2.2444896951	 0.095581
H	 3.3076601506	-0.7681215378	 0.5846187367	 0.095581
H	 0.9058815753	-0.9935250396	 1.871567967	 0.099416
H	-0.900269696	-0.4429160313	-0.0717003325	 0.095845
H	 2.6174700178	 0.7606605671	-1.6957300045	 0.088644
506.9896	581.8667	646.709	690.3204	724.3951	780.828	797.3534	806.413	836.0745	845.3985	886.4314	888.9627	912.5422	954.4078	981.8262	986.4587	1002.2336	1031.9903	1048.8893	1083.785	1120.7212	1150.0306	1181.5114	1227.9615	1232.5708	1277.3549	1279.5862	1305.1463	1334.266	1359.8833	3168.6186	3174.0019	3182.8761	3200.3816	3210.472	3235.4506
O1C2C3C4C3C1OC24	O1[C@H]2[C@@H]3[C@H]4[C@@H]3[C@@H]1O[C@@H]24	
InChI=1S/C6H6O2/c7-4-1-2-3(1)6(7)8-5(2)4/h1-6H	InChI=1S/C6H6O2/c7-4-1-2-3(1)6(7)8-5(2)4/h1-6H/t1-,2+,3-,4+,5-,6+
