13
gdb 25990	5.08121	1.02848	0.98939	4.0555	60.2	-0.2399	0.0047	0.2445	1164.7839	0.089364	-489.944302	-489.936081	-489.935137	-489.980128	27.717	
N	-0.0685430313	 1.2817389071	 0.1716935075	-0.561979
C	-0.060191561	 0.0132679071	-0.2944134472	 0.482268
O	 0.5642247421	-0.427533533	-1.2170965242	-0.357898
O	-0.9244605295	-0.7481167086	 0.501451402	-0.299941
C	-1.0041230015	-2.0618238173	 0.2158690659	 0.425788
C	-1.9555549342	-2.8351542907	-0.3516547649	-0.20306
N	-1.5365341545	-4.1603949759	-0.293536513	-0.255535
C	-0.3856696994	-4.1068619086	 0.2894959092	 0.088429
O	 0.0146203528	-2.8596050669	 0.6423492556	-0.165374
H	 0.4547043251	 1.9755005246	-0.3308134325	 0.28172
H	-0.6796256356	 1.5536896018	 0.9205921544	 0.278232
H	-2.8933186982	-2.5403085291	-0.7915574257	 0.132798
H	 0.2881219152	-4.9143302805	 0.527234843	 0.154551
13.2028	50.3455	75.2784	115.153	328.9578	391.4316	435.6556	543.5907	610.0932	655.6296	670.1245	766.6599	786.2224	825.2326	852.5374	905.5219	939.675	1009.4407	1108.3809	1121.08	1130.4207	1245.0372	1273.6483	1329.0142	1364.1833	1554.0429	1606.7175	1666.4455	1889.2721	3277.5869	3281.6378	3633.8051	3770.1179
NC(=O)OC1=CN=CO1	NC(=O)Oc1cnco1	
InChI=1S/C4H4N2O3/c5-4(7)9-3-1-6-2-8-3/h1-2H,(H2,5,7)	InChI=1S/C4H4N2O3/c5-4(7)9-3-1-6-2-8-3/h1-2H,(H2,5,7)
