20
gdb 63834	2.75026	1.47465	1.22085	2.6996	79.89	-0.2572	0.0256	0.2828	1106.1002	0.170533	-403.142957	-403.134411	-403.133467	-403.175826	33.388	
C	-0.4394457866	 1.567981155	 0.1317699944	-0.441331
C	-0.0620150781	 0.0928363922	 0.0448085175	 0.322976
C	-1.2634369032	-0.7575981412	-0.3713536178	-0.442567
C	 1.2175128774	-0.2473555872	-0.8032871118	-0.298653
C	 1.8712382389	-0.8833619205	 0.4350703347	 0.111675
O	 2.6770850434	 0.0796282515	 1.1883465409	-0.273226
C	 1.6117228382	 0.3727270401	 2.0253857096	 0.431337
N	 1.5502927742	 1.1325105907	 3.0216625933	-0.552522
C	 0.64071859	-0.5352224295	 1.3125099855	-0.206044
H	 0.4092642764	 2.1887540874	 0.4303691863	 0.128717
H	-0.7961018843	 1.9262255136	-0.8407799046	 0.111298
H	-1.2386643301	 1.7275758887	 0.8634191544	 0.124034
H	-1.6202885663	-0.4613095256	-1.3641591917	 0.117129
H	-1.0101337988	-1.8227623665	-0.4118080819	 0.112064
H	-2.0918630641	-0.636768089	 0.3354628691	 0.120453
H	 1.026812365	-0.9508494413	-1.6180395831	 0.105594
H	 1.7747657791	 0.6067198552	-1.1944764535	 0.114691
H	 2.3657273831	-1.8521714684	 0.377750388	 0.093914
H	 2.4496329592	 1.5842997389	 3.1983776088	 0.226107
H	 0.0650061865	-1.2337774742	 1.916977122	 0.094351
80.1897	144.548	217.0312	238.652	277.0584	315.068	354.5994	392.1665	420.4542	458.2207	602.7175	634.0103	751.1528	817.3408	842.5351	855.1626	868.3393	896.5286	935.6852	964.6466	967.7652	991.3707	1012.9169	1016.0353	1043.4616	1108.3684	1161.676	1182.8743	1197.368	1210.5017	1250.4993	1277.6453	1281.2868	1303.6335	1341.6491	1405.1463	1424.3202	1465.485	1481.7851	1485.499	1501.4672	1504.9051	1815.6059	3021.651	3030.9297	3062.5317	3091.1366	3092.1705	3097.1488	3114.6855	3117.6536	3124.0293	3135.3461	3470.8329
CC1(C)CC2OC(=N)C12	CC1(C)C[C@H]2O[C]([NH])[C@@H]12	
InChI=1S/C7H11NO/c1-7(2)3-4-5(7)6(8)9-4/h4-5,8H,3H2,1-2H3	InChI=1S/C7H11NO/c1-7(2)3-4-5(7)6(8)9-4/h4-5,8H,3H2,1-2H3/t4-,5+/m1/s1
