14
gdb 24748	3.59714	1.21658	0.90911	5.5103	78.49	-0.2305	-0.0516	0.1788	1189.4296	0.101525	-399.567778	-399.559982	-399.559038	-399.600469	29.036	
O	 0.0160171623	-0.0560202035	 0.0030086353	-0.321995
C	-0.0449410472	 1.161679728	 0.0075694853	 0.166748
C	 1.1772109988	 1.9644264071	 0.0003451789	 0.255882
C	 2.1973290882	 2.6036345055	-0.0056340015	-0.447458
C	-1.3025458795	 1.9033555366	 0.0175144425	 0.192559
C	-1.4588335778	 3.2812436851	 0.0219472027	-0.174275
N	-2.791521674	 3.5436796454	 0.031304466	-0.246075
C	-3.5085755553	 2.36188061	 0.0329361471	-0.064171
C	-2.6131018749	 1.329074434	 0.0244778475	-0.243442
H	 3.1095568061	 3.1487360437	-0.0105978834	 0.206506
H	-0.7212906215	 4.0668535526	 0.0191542343	 0.146717
H	-3.1967812293	 4.463982994	 0.0362965113	 0.270418
H	-4.586374146	 2.3715469446	 0.0399590025	 0.132295
H	-2.8324961399	 0.2740015469	 0.0232149915	 0.126291
76.675	122.5718	172.5622	236.5732	282.907	448.3353	491.9889	529.8679	625.1501	644.8799	647.0074	670.9043	678.5593	718.168	768.9835	822.0605	879.9176	901.8081	926.4812	1024.1561	1099.2027	1100.1026	1157.8451	1268.4403	1349.6767	1415.9763	1454.1668	1533.5854	1585.3634	1725.3831	2210.8045	3263.6496	3274.6162	3283.5092	3495.7785	3676.5177
O=C(C#C)C1=CNC=C1	O=C(C#C)c1c[nH]cc1	
InChI=1S/C7H5NO/c1-2-7(9)6-3-4-8-5-6/h1,3-5,8H	InChI=1S/C7H5NO/c1-2-7(9)6-3-4-8-5-6/h1,3-5,8H
