21
gdb 90499	2.04953	1.34799	1.18837	3.5415	84.54	-0.2338	-0.018	0.2158	1214.056	0.181057	-387.078671	-387.069284	-387.06834	-387.112629	35.272	
C	 0.1950607386	 1.1744507554	-0.924593036	-0.421741
C	 0.5873759994	-0.279290703	-0.6874842514	-0.015327
C	 1.9127039466	-0.8799615765	-1.272876552	-0.269893
C	 2.2490249892	-1.4273903	 0.1225104321	-0.12954
C	 2.3967460798	-0.313932909	 1.1440229749	-0.139847
C	 3.046139908	 0.995231054	 0.8949794139	 0.136064
O	 3.5829212649	 1.6431268874	 1.7640910965	-0.275032
C	 1.0026688836	-0.7829292041	 0.709020583	 0.308599
C	 0.028811647	-1.285960002	 1.7384073004	-0.493664
H	 0.9778333986	 1.8779275687	-0.6292469386	 0.121943
H	-0.0219343029	 1.346390489	-1.9847167221	 0.118216
H	-0.7077328881	 1.4302118286	-0.3589176466	 0.120116
H	-0.2424569198	-0.9142094632	-1.0197673761	 0.08045
H	 1.7266572707	-1.6695711116	-2.0036961398	 0.108317
H	 2.626751786	-0.1771329776	-1.7106918027	 0.106372
H	 2.6738166906	-2.4035384576	 0.3279702175	 0.094866
H	 2.6295766666	-0.6713882054	 2.1441749397	 0.103505
H	 3.0458081609	 1.3586743719	-0.1530829584	 0.07313
H	-0.5301866483	-0.4607646356	 2.1948881293	 0.1291
H	-0.6983911136	-1.9694649287	 1.2847072239	 0.119465
H	 0.538718382	-1.8235743005	 2.5438916925	 0.124901
79.2198	139.582	176.6452	186.3982	198.4967	255.0551	267.9906	308.4292	367.2744	449.5982	479.0261	552.5198	624.5657	668.0826	801.1334	827.0056	860.1963	902.4906	933.9116	983.3931	997.6204	1024.5515	1052.3678	1078.7695	1091.7052	1111.7693	1126.3798	1162.569	1180.5485	1233.2634	1237.4419	1256.0329	1298.1041	1315.8714	1371.1766	1409.4031	1412.9669	1419.8798	1465.9854	1484.817	1496.1289	1496.2688	1497.9978	1505.7675	1799.4167	2912.2068	3022.7028	3028.8328	3034.732	3063.0143	3082.129	3092.6335	3100.9413	3110.8258	3117.8488	3146.727	3174.5914
CC1CC2C(C=O)C12C	C[C@H]1C[C@H]2[C@@H](C=O)[C@@]12C	
InChI=1S/C8H12O/c1-5-3-6-7(4-9)8(5,6)2/h4-7H,3H2,1-2H3	InChI=1S/C8H12O/c1-5-3-6-7(4-9)8(5,6)2/h4-7H,3H2,1-2H3/t5-,6-,7+,8-/m0/s1
