18
gdb 83678	2.35408	1.72738	1.35931	1.2538	76.56	-0.2189	0.0149	0.2338	1010.8009	0.147238	-401.859274	-401.850965	-401.85002	-401.892424	31.982	
O	 0.4828943593	 1.0915982132	 0.5690679485	-0.428893
C	 0.0627600815	-0.1726849802	 0.1472834263	 0.111276
C	-1.4516146734	-0.4354183703	-0.0595499945	 0.007315
C	-2.3146632234	 0.7494759726	-0.5366080542	-0.257141
C	-2.1015779114	 0.213329612	-1.9780698309	-0.169601
N	-1.2245042739	-0.9039982457	-1.4905202582	-0.14978
C	 0.2447387246	-0.5563429537	-1.3743574323	-0.209504
C	 0.7713934345	 0.5096145286	-2.200086393	 0.306037
C	 1.212556529	 1.4472873919	-2.8149489226	-0.432779
H	 0.6163997103	 1.6431650273	-0.2131937054	 0.287265
H	 0.5252365534	-0.9102022532	 0.8097724087	 0.095303
H	-1.9156731383	-1.1477212255	 0.6275552128	 0.074988
H	-3.3464896749	 0.7452317202	-0.1812309315	 0.107385
H	-1.8763546598	 1.7273325308	-0.3232497517	 0.108651
H	-3.0025973192	-0.1955185632	-2.4441463673	 0.108375
H	-1.6207255181	 0.8904504925	-2.6883311066	 0.116903
H	 0.8481749323	-1.4585895097	-1.5171804902	 0.114892
H	 1.6157138377	 2.2419705023	-3.3938836078	 0.209307
46.0542	137.6063	181.1807	214.5292	301.6408	354.1878	372.2277	507.1001	549.5549	583.1575	640.6122	660.1211	684.515	755.1533	761.3495	795.0862	856.9747	890.2362	914.4242	982.6747	1019.1855	1050.3811	1056.9734	1094.7174	1156.2616	1177.4456	1188.9132	1219.1138	1226.5122	1253.585	1263.0938	1308.1228	1322.4886	1328.3173	1363.2809	1430.1038	1486.942	1505.0991	2213.4069	3045.889	3053.498	3059.7594	3069.8219	3077.1755	3101.1693	3126.8527	3496.837	3746.7796
OC1C2CCN2C1C#C	O[C@H]1[C@H]2CCN2[C@H]1C#C	
InChI=1S/C7H9NO/c1-2-5-7(9)6-3-4-8(5)6/h1,5-7,9H,3-4H2	InChI=1S/C7H9NO/c1-2-5-7(9)6-3-4-8(5)6/h1,5-7,9H,3-4H2/t5-,6+,7+/m0/s1
