21
gdb 59143	3.00111	1.21078	1.17725	1.787	81.46	-0.2272	0.0567	0.284	1197.9766	0.180988	-387.007887	-386.999091	-386.998146	-387.041994	34.16	
C	 0.055598419	 1.4145428011	-0.2250718381	-0.380441
C	 0.1790029065	-0.064180901	 0.1692263837	-0.020613
C	 0.7128056257	-0.214487431	 1.600934014	-0.380447
C	-1.1873566359	-0.7382442989	 0.0596665066	 0.038074
C	-1.9685767248	-1.2057208925	-1.1444595532	-0.149399
C	-1.1790638817	-2.0893403509	-2.1601387814	 0.018479
O	 0.1911595714	-2.2177556855	-1.7570108574	-0.23619
C	-0.8009932976	-3.0263088026	-1.1101766613	 0.018476
C	-1.5691486742	-2.1956357462	-0.0351639542	-0.149397
H	 1.0250586824	 1.9193117018	-0.1585554249	 0.107269
H	-0.3114237565	 1.5212590856	-1.2508450773	 0.112759
H	-0.6405611581	 1.9460238509	 0.436175768	 0.10263
H	 0.8759091263	-0.5471397961	-0.5124694576	 0.110523
H	 0.0404180886	 0.2582713189	 2.3280877633	 0.102631
H	 0.8141615399	-1.2689684243	 1.8768016424	 0.112756
H	 1.6953474638	 0.2578765034	 1.7036516825	 0.10727
H	-1.8901056739	-0.2541598816	 0.7446885919	 0.086695
H	-2.9640479461	-0.8423853339	-1.3679034809	 0.09095
H	-1.4092791873	-2.2311540395	-3.2091091096	 0.108512
H	-0.6553053701	-4.0997137749	-1.1152097766	 0.108512
H	-2.2258120572	-2.6719874228	 0.6823213502	 0.09095
24.2308	138.7954	191.9379	229.979	248.6266	315.7124	316.6355	367.1789	444.2486	569.128	643.119	708.9472	722.0309	767.3789	830.557	845.855	870.8002	876.23	925.6124	930.8265	948.8435	961.7589	970.2192	999.7342	1040.3361	1046.849	1088.4449	1095.6328	1137.5163	1183.1175	1220.2818	1237.6382	1254.7223	1280.6792	1302.358	1326.6948	1360.222	1395.2033	1397.9391	1413.2197	1451.5678	1487.3755	1490.8781	1502.591	1509.2773	3018.2412	3022.295	3061.4803	3082.3773	3082.4707	3100.7356	3102.5723	3148.0901	3177.7577	3187.4285	3189.0486	3201.0995
CC(C)C1C2C3OC3C12	CC(C)[C@H]1[C@H]2[C@H]3O[C@H]3[C@@H]12	
InChI=1S/C8H12O/c1-3(2)4-5-6(4)8-7(5)9-8/h3-8H,1-2H3	InChI=1S/C8H12O/c1-3(2)4-5-6(4)8-7(5)9-8/h3-8H,1-2H3/t4-,5+,6-,7+,8-
