21
gdb 113147	3.60235	0.72701	0.68134	1.4236	90.74	-0.2253	0.044	0.2693	1786.4044	0.179199	-387.056738	-387.045736	-387.044792	-387.094281	38.908	
C	 0.2079149423	 1.4345280427	 0.3049610051	-0.374825
C	-0.2229568976	 0.0272305684	-0.1244893243	-0.196899
C	 0.5585436499	-0.4734004325	-1.3217538852	-0.026093
C	 1.9198209855	-1.1086954431	-1.1546728323	-0.345278
C	 0.7264539572	-1.9549624401	-1.580448878	 0.174208
O	 0.1492334168	-2.7899877953	-0.6063819335	-0.450769
C	 0.6676308401	-2.4583806693	-2.9294023674	 0.056048
C	 0.625179417	-2.9124075197	-4.0453613634	 0.059069
C	 0.561710775	-3.4499345713	-5.3965971266	-0.500748
H	 1.2673550286	 1.4555582142	 0.5815914042	 0.11584
H	 0.0636522874	 2.1595253028	-0.503841894	 0.111842
H	-0.3724445192	 1.7779430737	 1.1670347933	 0.11062
H	-0.101545947	-0.6754541434	 0.7046267959	 0.113563
H	-1.2925536751	 0.028016315	-0.3691775469	 0.100991
H	 0.4328577826	 0.1209756417	-2.2229578511	 0.093838
H	 2.697079706	-0.9058970303	-1.8823075721	 0.115447
H	 2.264146841	-1.2778996806	-0.1391476323	 0.114269
H	 0.628511684	-3.6256741276	-0.6247443935	 0.283584
H	-0.3816823329	-3.9799521886	-5.5688435458	 0.150083
H	 0.6294235892	-2.6493525441	-6.1417266249	 0.149597
H	 1.3792413592	-4.1530663425	-5.5920071369	 0.145611
22.3962	62.614	90.5165	102.5109	177.9741	204.9925	255.2467	283.7807	291.2953	326.0927	358.9579	400.4124	461.9496	556.1604	573.5333	662.6458	773.3665	800.5792	865.9082	902.4315	948.4398	971.286	1012.8473	1045.67	1051.5587	1054.0393	1059.1516	1122.2543	1127.5924	1195.8574	1238.4839	1272.7028	1300.7875	1331.7419	1365.2788	1408.6361	1414.4613	1425.1742	1476.4416	1477.8217	1480.007	1491.097	1497.6131	1508.949	2361.4789	3024.968	3030.4026	3032.4353	3081.5343	3083.8279	3087.1107	3103.3095	3104.0085	3128.9821	3144.6514	3224.092	3801.346
CCC1CC1(O)C#CC	CC[C@H]1C[C@]1(O)C#CC	
InChI=1S/C8H12O/c1-3-5-8(9)6-7(8)4-2/h7,9H,4,6H2,1-2H3	InChI=1S/C8H12O/c1-3-5-8(9)6-7(8)4-2/h7,9H,4,6H2,1-2H3/t7-,8+/m0/s1
