19
gdb 8544	3.88047	2.23759	1.84491	1.6211	73.89	-0.2185	0.078	0.2964	802.1846	0.167382	-327.882546	-327.875881	-327.874937	-327.912779	27.427	
C	 0.0169684811	 1.5125587662	 0.0235446504	-0.48419
C	 0.0194384325	 0.0039310281	 0.009759395	 0.381362
C	 0.4752591981	-0.7238236295	-1.2773022963	-0.292853
C	-0.7184867659	-1.6764676535	-1.0845056084	 0.01732
C	-0.500045276	-2.7757848396	-0.0279485379	-0.238474
C	-0.7673449307	-1.6961212412	 1.0376015847	 0.017323
C	 0.4158530029	-0.7477215568	 1.3027401222	-0.292872
N	-1.3321483642	-0.7446649982	-0.0282973272	-0.193977
H	 1.0436374484	 1.8987209974	 0.0498090995	 0.113588
H	-0.4742287954	 1.9114284621	-0.8699248482	 0.118817
H	-0.5135003397	 1.8953299887	 0.9014660532	 0.118781
H	 0.3471632784	-0.0884579657	-2.1584965197	 0.10292
H	 1.4812478968	-1.1544684409	-1.2991202922	 0.094103
H	-1.3148056511	-1.9267330574	-1.9644845495	 0.06974
H	-1.3010807459	-3.5192635991	-0.0532673453	 0.107776
H	 0.4633771982	-3.2951277963	-0.0105798499	 0.093869
H	-1.4034220367	-1.9623784654	 1.8844221861	 0.06974
H	 1.4199551955	-1.1791248432	 1.3628686872	 0.094103
H	 0.2470542236	-0.1287335356	 2.1887197863	 0.102921
196.3201	223.9182	251.153	349.7818	381.1473	413.9994	566.1576	658.5259	727.9379	754.1085	828.8424	859.5391	896.9663	904.1315	919.999	932.7149	948.1944	953.9066	987.7104	1037.1478	1052.5038	1067.2072	1112.5968	1137.9122	1174.3138	1202.9777	1242.1264	1245.2908	1246.2514	1270.1201	1285.781	1317.3878	1334.1833	1364.2434	1406.9977	1475.2802	1475.642	1481.6986	1489.1638	1498.8343	3021.9951	3041.6569	3043.8762	3045.9494	3076.0998	3078.833	3089.891	3094.5577	3097.4016	3104.4032	3104.841
CC12CC3CC(C1)N23	C[C@@]12C[C@H]3C[C@@H](C1)N23	
InChI=1S/C7H11N/c1-7-3-5-2-6(4-7)8(5)7/h5-6H,2-4H2,1H3	InChI=1S/C7H11N/c1-7-3-5-2-6(4-7)8(5)7/h5-6H,2-4H2,1H3/t5-,6+,7-
