14
gdb 30528	3.60227	1.08768	0.83582	3.0299	77.61	-0.1815	-0.0136	0.1679	1285.1975	0.101746	-470.04016	-470.032078	-470.031134	-470.072985	29.775	
N	 0.0937546719	 1.3767167783	-0.0781868705	-0.501505
C	 0.0281502365	 0.0128585794	 0.0040404409	 0.081506
N	-1.0910849836	-0.6078035475	-0.0429028497	-0.343905
C	-1.1566488997	-1.9615787607	-0.0411748398	 0.327019
C	-2.2110302938	-2.8317577808	-0.0737735337	 0.228454
O	-3.5231561575	-2.5324258852	-0.1213284536	-0.422824
N	-1.7642975384	-4.1348012181	-0.0502749679	-0.334716
C	-0.472948419	-4.0269546127	-0.0050747307	 0.066442
O	-0.0131046301	-2.764078745	 0.0041832908	-0.191009
H	 0.9105421439	 1.8335264681	 0.2919706692	 0.259443
H	-0.7786133681	 1.8708297902	 0.0397900364	 0.263944
H	 1.001147957	-0.482357484	 0.0628016137	 0.117426
H	-3.9942054212	-3.3740996839	-0.1367665002	 0.303348
H	 0.258228752	-4.8194096181	 0.024412355	 0.146375
107.3375	133.0174	154.1025	280.6008	312.0676	344.7407	390.9192	414.5623	428.4701	559.3867	571.9195	652.4168	685.3589	725.8195	794.5726	806.2963	951.5817	980.7841	1045.604	1079.9776	1154.6248	1201.4967	1298.1118	1317.4866	1329.4151	1394.2594	1449.7409	1549.3298	1624.6558	1719.3378	1743.1379	3091.9926	3271.6822	3580.4688	3707.215	3808.9359
NC=NC1=C(O)N=CO1	NC=Nc1c(O)nco1	
InChI=1S/C4H5N3O2/c5-1-6-4-3(8)7-2-9-4/h1-2,8H,(H2,5,6)	InChI=1S/C4H5N3O2/c5-1-6-4-3(8)7-2-9-4/h1-2,8H,(H2,5,6)
