18
gdb 77542	2.84476	1.33794	1.07856	5.0304	78.18	-0.2582	-0.002	0.2561	1162.189	0.145794	-401.905155	-401.896343	-401.895399	-401.938305	33.242	
C	-0.1774267259	 1.6652045328	 0.0418882348	-0.449278
C	 0.0164481781	 0.1609223651	 0.0018603848	-0.030838
C	 0.8954625967	-0.575346957	-1.0627727491	 0.367215
C	 0.6270220682	-0.8360192854	-2.5086115922	-0.515515
C	 2.1889725743	-0.0662653868	-0.3666484013	-0.305271
C	 1.199232651	-0.5707438823	 0.7116128945	 0.313348
O	 0.9277766875	-1.7493110558	-0.130730364	-0.355857
C	 1.4204354782	-0.7569003479	 2.1251414036	 0.171692
N	 1.5934124961	-0.859228865	 3.2633591708	-0.345537
H	 0.7407450416	 2.2281301583	-0.1420853861	 0.125051
H	-0.911437373	 1.9680874855	-0.7123421323	 0.130892
H	-0.5673725327	 1.9712505999	 1.0180027025	 0.141004
H	-0.9181057753	-0.3788247524	 0.1754848922	 0.099686
H	 0.6248130865	 0.1048734784	-3.067896301	 0.133863
H	 1.3968423845	-1.4878973969	-2.9317153901	 0.142169
H	-0.3470075316	-1.3175227629	-2.6359773813	 0.141431
H	 3.0614168763	-0.7053991102	-0.5025861445	 0.124715
H	 2.4309149493	 0.9964038725	-0.3990232613	 0.11123
122.297	142.0344	174.5094	181.1592	196.3863	306.3286	331.7953	358.3279	519.6163	523.7103	529.6191	589.1655	601.5589	639.4718	706.477	790.1905	827.4586	936.3445	958.1596	1007.8244	1058.8354	1092.775	1096.5928	1106.4301	1136.1708	1156.996	1181.0343	1208.9674	1248.5927	1338.5618	1391.117	1411.3902	1426.5964	1475.7707	1487.239	1493.5323	1496.2689	1508.654	2357.2263	3041.359	3042.1813	3083.6642	3087.2994	3102.4011	3115.9328	3119.9149	3124.2058	3164.1007
CC1C2(C)CC1(O2)C#N	C[C@H]1[C@@]2(C)C[C@@]1(O2)C#N	
InChI=1S/C7H9NO/c1-5-6(2)3-7(5,4-8)9-6/h5H,3H2,1-2H3	InChI=1S/C7H9NO/c1-5-6(2)3-7(5,4-8)9-6/h5H,3H2,1-2H3/t5-,6+,7+/m0/s1
