20
gdb 15634	3.06355	1.6663	1.2176	1.2721	77.49	-0.2295	0.0281	0.2575	1061.4645	0.177344	-349.023997	-349.01536	-349.014416	-349.05727	32.123	
C	 0.0244329445	 1.473891515	 0.3201080416	-0.377771
C	-0.0390685288	 0.0016613489	-0.1220562787	-0.288477
C	-1.4260499478	-0.5674330824	-0.1058157785	 0.355871
C	-2.12378354	-1.0639485117	-1.1290260736	-0.189423
C	-3.5016775085	-1.5358073718	-0.731495346	-0.25342
C	-3.4187135235	-1.5520491159	 0.8141223207	-0.243667
C	-2.2494733248	-0.6035691461	 1.1678570777	 0.037443
O	-1.4399274756	-1.0520456661	 2.2525764533	-0.439439
H	 1.0524405788	 1.8464351862	 0.276987763	 0.110508
H	-0.5931170726	 2.1086625429	-0.3238063799	 0.11308
H	-0.3275083452	 1.5874151154	 1.3497558421	 0.124835
H	 0.3841675126	-0.1041612705	-1.1272161902	 0.094731
H	 0.5899993806	-0.5902059343	 0.5543248421	 0.12099
H	-1.7664036272	-1.1038360621	-2.153296077	 0.083139
H	-4.2740422829	-0.8388237599	-1.0865395038	 0.103747
H	-3.7587779849	-2.5145484161	-1.1526647932	 0.102142
H	-4.3594893917	-1.280511888	 1.3018408695	 0.086027
H	-3.1331196975	-2.5503820673	 1.1613570025	 0.111446
H	-2.623279677	 0.4101913331	 1.3943799907	 0.066581
H	-1.9497227487	-0.9555667694	 3.0626386776	 0.281657
61.4825	108.8669	166.5971	207.236	257.1683	279.7851	303.5512	409.504	430.567	553.0753	636.0467	649.3505	791.2252	806.258	844.6451	886.6056	930.8254	935.5415	973.6197	1011.7523	1055.24	1080.8379	1085.6279	1105.0738	1163.4612	1188.6112	1221.7024	1247.5533	1270.7954	1291.9635	1310.2738	1337.2386	1357.4149	1362.085	1402.8152	1428.9559	1478.4488	1484.6834	1499.5015	1501.7095	1508.5461	1721.8906	2939.2393	3006.7115	3028.5282	3036.5892	3044.9155	3054.5254	3066.5877	3098.1824	3105.4276	3113.3973	3179.2902	3823.4093
CCC1=CCCC1O	CCC1=CCC[C@H]1O	
InChI=1S/C7H12O/c1-2-6-4-3-5-7(6)8/h4,7-8H,2-3,5H2,1H3	InChI=1S/C7H12O/c1-2-6-4-3-5-7(6)8/h4,7-8H,2-3,5H2,1H3/t7-/m1/s1
