13
gdb 23976	5.92711	0.94804	0.81731	3.9772	87.59	-0.2177	-0.0233	0.1944	1305.0166	0.088882	-378.446192	-378.438356	-378.437412	-378.478469	29.669	
C	 0.0839692648	-1.1749140062	-0.00511114	-0.388323
C	-0.0131223531	 0.0245736071	 0.0029444588	 0.243768
C	-0.0832376059	 1.435966928	 0.0118303102	 0.195631
N	-1.1732265585	 2.1798890247	 0.0308292683	-0.344548
C	-0.732909207	 3.4862478036	 0.0321835335	 0.134935
C	 0.6495081728	 3.5222312376	 0.0135943511	-0.170689
N	 1.0484872226	 2.2183789561	 0.0008330631	-0.287741
C	-1.6126816896	 4.5956255647	 0.0503776679	 0.184191
C	-2.3457124392	 5.5499243827	 0.0657062828	-0.379688
H	 0.1492259045	-2.2349974127	-0.0119489393	 0.199557
H	 1.3455563607	 4.3437115007	 0.0087419784	 0.148797
H	 1.9960308535	 1.8783331661	-0.0139375296	 0.278139
H	-3.0012349556	 6.3848557376	 0.079310605	 0.185972
115.124	116.4246	196.7528	206.6632	438.359	469.4819	480.3246	526.9106	563.1102	569.7112	579.4917	582.9439	664.7832	679.9664	690.4772	691.0765	739.6635	774.7491	995.979	1018.8452	1119.475	1220.959	1278.8908	1364.9868	1415.7693	1522.5417	1560.8197	2238.3501	2240.5242	3283.9921	3500.7078	3505.2874	3661.5666
C#CC1=NC(=CN1)C#C	C#Cc1nc(c[nH]1)C#C	
InChI=1S/C7H4N2/c1-3-6-5-8-7(4-2)9-6/h1-2,5H,(H,8,9)	InChI=1S/C7H4N2/c1-3-6-5-8-7(4-2)9-6/h1-2,5H,(H,8,9)
