14
gdb 42968	3.28369	1.40349	1.06875	6.6022	75.47	-0.2648	-0.0856	0.1792	1069.2611	0.102267	-399.582629	-399.575492	-399.574548	-399.614385	27.023	
O	-0.0239267574	-0.0021871564	-0.1216323171	-0.302543
C	-0.0375193103	 1.1973469786	-0.0420032209	 0.346094
C	-1.2470765308	 2.1023935607	 0.005405388	-0.151955
C	-1.3731029199	 2.9732146087	 1.24182093	-0.275746
C	-0.7263002978	 3.5170950528	-0.0201921783	-0.085441
C	 0.7550462437	 3.4014330537	-0.0380322899	-0.150505
C	 1.162557386	 2.116442564	-0.0025650897	 0.045962
C	 2.4983224437	 1.6446105198	 0.069411973	 0.227712
N	 3.5835974516	 1.2459698519	 0.1285942892	-0.329717
H	-2.1449303166	 1.7886004427	-0.509917052	 0.128185
H	-2.3709519861	 3.3227011586	 1.4840016029	 0.139583
H	-0.7351212167	 2.7718663852	 2.0952236966	 0.142865
H	-1.2163114688	 4.3136806395	-0.5655985074	 0.119955
H	 1.4142447494	 4.2613178802	-0.0349013444	 0.145553
114.8867	144.7843	194.6773	315.8746	387.8555	418.5543	526.387	557.5935	585.7896	671.4457	746.1724	795.7209	829.1823	836.2538	908.3982	925.1209	952.6472	978.1084	1051.8428	1073.0825	1096.4409	1121.2009	1181.4471	1211.1487	1299.6018	1323.4103	1346.6822	1480.6776	1642.8794	1835.3353	2346.6312	3136.566	3195.4823	3212.1476	3214.4336	3231.37
O=C1C2CC2C=C1C#N	O=C1[C@H]2C[C@H]2C=C1C#N	
InChI=1S/C7H5NO/c8-3-5-1-4-2-6(4)7(5)9/h1,4,6H,2H2	InChI=1S/C7H5NO/c8-3-5-1-4-2-6(4)7(5)9/h1,4,6H,2H2/t4-,6+/m1/s1
