22
gdb 59522	3.66878	1.00133	0.88265	2.5944	83.03	-0.2194	0.0743	0.2937	1407.3377	0.193013	-404.310232	-404.300528	-404.299583	-404.344459	37.036	
C	 0.1054657276	 1.4903634728	-0.0579078132	-0.406365
C	 0.0397696532	-0.0291450158	 0.0934731081	 0.126802
O	 0.6569115072	-0.4549249069	 1.310468016	-0.437577
C	-1.3839603559	-0.5702526977	 0.0069243053	 0.018891
C	-2.171947655	-0.4801063711	-1.3534054185	-0.304496
C	-2.3259526686	-2.0110900868	-1.3247002013	 0.353445
C	-3.4750613047	-2.8102773105	-1.8541814027	-0.508012
N	-0.9343580358	-2.5280922414	-1.3387432329	-0.367
C	-1.5499684387	-2.0943955718	-0.0552109905	-0.122172
H	 1.1392872203	 1.8354719034	 0.0311598599	 0.122077
H	-0.2858147903	 1.8136450043	-1.0277326802	 0.119111
H	-0.488282417	 1.9863757001	 0.7215479659	 0.098268
H	 0.6305565146	-0.5053512517	-0.6953277894	 0.108697
H	 0.2012273207	-0.0128530819	 2.0358145181	 0.270122
H	-1.9863708438	-0.1467465655	 0.8206811979	 0.055625
H	-3.1182466342	 0.0572598559	-1.2561811714	 0.097451
H	-1.6181632771	-0.0921213019	-2.2128134212	 0.101836
H	-3.4747906524	-2.827557989	-2.9508446077	 0.127397
H	-3.4284277774	-3.8475267593	-1.5037142746	 0.116411
H	-4.4328233806	-2.3892761963	-1.5293235181	 0.12243
H	-0.9919002688	-3.5465343238	-1.3597549691	 0.221405
H	-1.6305844434	-2.7874374752	 0.7736513697	 0.085655
81.3553	113.2014	136.2237	214.8434	231.5722	275.7338	283.9351	308.6894	356.4877	397.0246	432.831	467.9351	567.9174	649.776	697.5744	801.1105	855.5289	901.2884	911.8688	932.6865	961.6904	982.1114	989.0284	1027.1512	1038.161	1075.345	1091.3794	1111.0023	1134.9395	1153.804	1191.6991	1224.9896	1242.4721	1262.1185	1302.5643	1319.1754	1345.4278	1393.8697	1400.7394	1408.8325	1426.3587	1445.4566	1480.4081	1483.2267	1491.0389	1494.9022	1499.305	3017.7147	3020.2333	3023.1751	3057.227	3070.5745	3081.3905	3092.8272	3093.7292	3114.252	3116.7168	3185.6316	3463.4375	3791.2827
CC(O)C1CC2(C)NC12	C[C@@H](O)[C@H]1C[C@@]2(C)N[C@@H]12	
InChI=1S/C7H13NO/c1-4(9)5-3-7(2)6(5)8-7/h4-6,8-9H,3H2,1-2H3	InChI=1S/C7H13NO/c1-4(9)5-3-7(2)6(5)8-7/h4-6,8-9H,3H2,1-2H3/t4-,5-,6+,7-/m1/s1
