14
gdb 131310	5.25642	1.33473	1.07148	3.4458	69.67	-0.2166	-0.0258	0.1908	1038.8813	0.104003	-432.900514	-432.893984	-432.89304	-432.931322	25.671	
O	 0.0755848492	 1.2499102022	-0.1157229592	-0.404239
C	 0.0649720008	-0.086702512	-0.0587336751	 0.412947
N	 0.0173929305	-0.8174166603	-1.1675571871	-0.346138
N	 0.0254474895	-2.0634025878	-0.6238791432	 0.055516
C	-0.0048061624	-3.3805332737	-1.1093409505	-0.011333
C	 0.0256466305	-4.2176508584	-0.0620205236	-0.13118
C	 0.0807911725	-3.4235367087	 1.2391488143	-0.416412
C	 0.0751652618	-2.0167021578	 0.7217166332	 0.395699
N	 0.1022136713	-0.7610742627	 1.1339545721	-0.455494
H	 0.1119816624	 1.5610886416	 0.7968216284	 0.312363
H	-0.0454494697	-3.5673479659	-2.1708106595	 0.152868
H	 0.0136170964	-5.2951168658	-0.1120193308	 0.122935
H	-0.7776794659	-3.629882335	 1.8888803365	 0.156233
H	 0.9804876432	-3.6464889956	 1.8244283946	 0.156234
132.1915	260.1718	327.9004	337.8657	408.8485	438.4358	561.6524	589.7345	670.4976	707.3583	750.8608	758.8681	818.3089	908.6841	920.3668	936.3608	936.8413	1028.6836	1088.2384	1139.1865	1176.5092	1211.1327	1247.9218	1295.0869	1403.5829	1416.2331	1429.8627	1447.034	1565.4691	1621.4656	1639.5468	3047.6506	3078.3165	3257.0044	3280.3456	3813.7496
OC1=NN2C=CCC2=N1	Oc1nn2C=CCc2n1	
InChI=1S/C5H5N3O/c9-5-6-4-2-1-3-8(4)7-5/h1,3H,2H2,(H,7,9)	InChI=1S/C5H5N3O/c9-5-6-4-2-1-3-8(4)7-5/h1,3H,2H2,(H,7,9)
