18
gdb 106243	2.41812	1.46554	1.09388	3.638	72.24	-0.2474	-0.0118	0.2356	1143.3754	0.14647	-439.067227	-439.058423	-439.057479	-439.100718	32.937	
C	 0.0389004215	 1.4855524564	-0.2012211118	-0.426358
C	 0.0296939377	 0.0206589753	 0.1680401759	-0.036579
N	 1.2385006832	-0.8644088471	 0.0124437202	-0.243967
C	 2.3819479918	-0.0953328096	 0.4786360183	 0.405668
O	 3.40003786	 0.1385082978	-0.0934824496	-0.298357
C	 1.8380940105	 0.1304926203	 1.8941162836	-0.434751
C	 0.5789723558	-0.5814272447	 1.393402085	 0.273623
C	-0.0530744237	-1.7362784664	 2.1203680366	-0.155943
O	 0.9068626747	-2.7029289764	 2.5056175762	-0.412839
H	 0.8833708128	 2.0320401076	 0.2236890547	 0.13786
H	 0.0814218384	 1.5966017628	-1.2889859661	 0.14535
H	-0.8836949352	 1.9587628293	 0.1503674652	 0.131125
H	-0.834125331	-0.5087457412	-0.2310857951	 0.109737
H	 2.3830070352	-0.4761820352	 2.6215144343	 0.157205
H	 1.7581028631	 1.157484249	 2.2566673271	 0.130543
H	-0.5239213359	-1.3869565938	 3.046411121	 0.121486
H	-0.8431286436	-2.1745512169	 1.491690481	 0.099773
H	 1.3262050047	-3.0144811772	 1.6944795337	 0.296424
89.632	107.2291	171.3019	188.5177	264.1699	277.8852	312.7889	426.8374	458.0794	497.4799	561.8663	609.0469	625.9152	626.7894	752.6683	834.7594	874.0819	948.2167	985.5154	1027.2351	1030.9226	1056.647	1076.6992	1123.1449	1132.2443	1177.0888	1191.691	1227.8188	1309.3457	1315.5957	1391.4263	1417.9998	1422.2874	1448.1329	1466.7323	1490.2494	1491.268	1503.7894	1913.8514	2990.7656	3045.2592	3067.1824	3075.3057	3109.2379	3117.3013	3132.65	3136.6313	3791.6461
CC1N2C(=O)CC12CO	C[C@H]1N2C(=O)C[C@@]12CO	
InChI=1S/C6H9NO2/c1-4-6(3-8)2-5(9)7(4)6/h4,8H,2-3H2,1H3	InChI=1S/C6H9NO2/c1-4-6(3-8)2-5(9)7(4)6/h4,8H,2-3H2,1H3/t4-,6-,7?/m1/s1
