19
gdb 68010	2.78591	1.60827	1.22694	4.3114	75.49	-0.2575	0.0176	0.2752	1071.6459	0.158797	-423.065098	-423.0568	-423.055856	-423.097409	32.51	
C	-0.1273336164	 1.5013774874	 0.0131452901	-0.491017
C	 0.0825342074	 0.0161610376	 0.0360464398	 0.425176
C	 1.02309198	-0.7783351122	-0.9030964674	-0.30359
C	 0.6952795194	-1.9264896196	 0.120039814	 0.132958
C	 1.447764389	-3.2259453879	 0.2309654757	-0.496311
C	 0.6854620142	-0.793459087	 1.2102938696	-0.303591
C	-0.8115312336	-2.0007736879	-0.1212277488	 0.44889
O	-1.5488779403	-2.9324638161	-0.245728513	-0.362475
O	-1.1959026191	-0.6861358846	-0.1732222741	-0.279928
H	 0.8240789797	 2.0179755842	 0.1689082101	 0.123794
H	-0.5415844112	 1.8177774718	-0.9486475363	 0.137264
H	-0.8214222367	 1.8052285546	 0.8022419227	 0.137266
H	 0.7081105446	-0.9017219951	-1.9422390749	 0.114982
H	 2.065238506	-0.4555401534	-0.8440456983	 0.107459
H	 2.5143866793	-3.0528979299	 0.4021004806	 0.115197
H	 1.0591852645	-3.8283210391	 1.0579229494	 0.135736
H	 1.3366693512	-3.8163062388	-0.6838228501	 0.135752
H	 1.6934126036	-0.4721862493	 1.4833732115	 0.107459
H	 0.0626908984	-0.9306409746	 2.0977581693	 0.11498
154.1523	181.1205	206.3504	225.3428	226.8157	275.8203	358.613	489.8286	493.1945	527.9523	584.1525	606.0185	710.7653	756.6534	780.2604	843.3859	876.3066	893.5199	922.9122	981.136	1016.2681	1030.6435	1038.0647	1087.146	1111.08	1148.9416	1192.6088	1211.0724	1216.216	1250.5053	1333.5569	1359.9315	1416.6866	1423.6247	1476.7684	1480.8262	1486.9208	1488.8386	1491.1291	1517.5471	1903.3446	3039.8354	3043.9594	3059.7515	3066.2619	3110.2629	3111.9152	3118.0485	3119.9798	3126.6807	3131.309
CC12CC(C)(C1)C(=O)O2	C[C@@]12C[C@@](C)(C1)C(=O)O2	
InChI=1S/C7H10O2/c1-6-3-7(2,4-6)9-5(6)8/h3-4H2,1-2H3	InChI=1S/C7H10O2/c1-6-3-7(2,4-6)9-5(6)8/h3-4H2,1-2H3/t6-,7+
