16
gdb 10059	3.39835	1.26134	0.97817	2.8118	66.89	-0.2519	-0.0252	0.2267	1153.7451	0.126646	-383.705212	-383.695803	-383.694859	-383.740221	32.258	
O	 0.0724003206	 1.3818312483	 0.2642854988	-0.411696
C	-0.0108246747	-0.0033380388	 0.0012782451	-0.073727
C	-1.4571190455	-0.5324198425	 0.0108463797	-0.114254
C	-1.4602561901	-2.0738001615	-0.1336827258	-0.384528
C	-2.7966122664	-2.6371989361	-0.2728885709	 0.29139
C	-3.908729828	-3.0780645856	-0.3830275271	-0.416821
C	-2.1344955149	-0.1097947992	 1.3038200006	 0.18986
O	-3.0462325386	 0.6683827499	 1.3793919825	-0.243926
H	-0.4783537941	 1.8474330249	-0.3741247269	 0.291317
H	 0.4622940178	-0.2719465794	-0.9566873959	 0.100699
H	 0.568824742	-0.4904750439	 0.7945872882	 0.117643
H	-2.0212640159	-0.084420095	-0.8148549049	 0.101835
H	-0.848369678	-2.3495378716	-1.0018546927	 0.139021
H	-0.9621664717	-2.517235614	 0.7395855266	 0.137864
H	-4.8903647701	-3.4718757706	-0.478114003	 0.202266
H	-1.6980331325	-0.5836425749	 2.2157369958	 0.073058
55.9162	60.2501	104.5681	120.8867	221.8868	279.2591	296.1511	336.1625	347.0553	413.427	518.6062	568.9311	633.0817	646.7113	836.057	889.4547	934.1676	983.4455	1043.5743	1068.4585	1097.9626	1128.3847	1186.8318	1222.6673	1290.0691	1336.0567	1356.2232	1383.628	1412.6451	1430.5884	1470.9472	1507.463	1843.6288	2243.303	2847.0249	2978.3432	3013.9977	3045.1252	3051.4348	3068.7486	3506.2054	3811.8055
OCC(CC#C)C=O	OC[C@@H](CC#C)C=O	
InChI=1S/C6H8O2/c1-2-3-6(4-7)5-8/h1,4,6,8H,3,5H2	InChI=1S/C6H8O2/c1-2-3-6(4-7)5-8/h1,4,6,8H,3,5H2/t6-/m0/s1
