21
gdb 87193	3.27437	1.00232	0.87654	2.9172	79.85	-0.2386	-0.0119	0.2267	1407.8559	0.178433	-424.242286	-424.23172	-424.230776	-424.278242	37.972	
C	-0.0054277118	 1.2422058079	-0.4283282705	-0.426355
C	-0.1045306295	-0.1558032847	 0.1256238103	 0.026149
O	 0.9944197336	-1.0464271465	-0.118733962	-0.295298
C	 0.6924877657	-0.6942532727	 1.2467044972	 0.375527
C	 1.7363121687	 0.1310599915	 1.9681004419	-0.464566
C	 0.1052328206	-1.847666263	 2.0651459873	-0.359818
C	 1.1571003225	-2.9370362397	 2.2909291929	 0.391942
C	 1.2505857506	-4.0006087352	 1.2178767111	-0.48046
O	 1.8886047968	-2.9123032817	 3.2548931789	-0.305311
H	 0.9683108284	 1.6947608199	-0.2350695968	 0.130016
H	-0.1627154624	 1.226515314	-1.5119692427	 0.132787
H	-0.7809288808	 1.8784228395	 0.0119048203	 0.124302
H	-1.0791192058	-0.6235543188	-0.0356401159	 0.083889
H	 2.2439527734	 0.8113346844	 1.2835012374	 0.12763
H	 1.2722876583	 0.7168228435	 2.7690799822	 0.123256
H	 2.484348369	-0.5191548953	 2.4295674407	 0.152751
H	-0.2137122685	-1.4729400453	 3.0421559937	 0.122361
H	-0.7600632143	-2.2606148244	 1.5384899942	 0.104277
H	 0.3299032363	-4.5965236098	 1.2037795294	 0.134889
H	 1.3323669149	-3.5186425616	 0.2377711845	 0.165976
H	 2.1043107344	-4.653183522	 1.4041335459	 0.136056
43.1818	87.7095	134.9111	157.2836	166.2413	178.4228	224.2135	263.0023	321.6736	381.3785	403.6097	478.7255	481.3584	528.2863	606.3399	713.909	776.5969	809.8812	888.3632	900.1551	947.2159	975.1559	1013.9698	1036.9119	1076.1307	1113.8153	1135.9713	1155.1565	1180.6373	1221.2317	1272.8803	1298.4218	1367.5004	1381.2108	1409.72	1420.0293	1458.2728	1461.4866	1471.9835	1474.4094	1479.5903	1488.2714	1500.997	1518.0541	1807.6137	3033.0915	3040.5257	3046.5298	3052.3485	3073.1749	3098.289	3100.3331	3110.162	3113.5161	3139.1246	3149.9991	3154.1716
CC1OC1(C)CC(C)=O	C[C@H]1O[C@]1(C)CC(=O)C	
InChI=1S/C7H12O2/c1-5(8)4-7(3)6(2)9-7/h6H,4H2,1-3H3	InChI=1S/C7H12O2/c1-5(8)4-7(3)6(2)9-7/h6H,4H2,1-3H3/t6-,7-/m1/s1
