20
gdb 17957	2.46121	2.39991	1.36912	0.2958	80.96	-0.225	0.0065	0.2314	954.6381	0.179775	-311.874196	-311.866806	-311.865861	-311.905395	29.65	
C	-0.0319244166	 1.5360581771	 0.1952163067	-0.170814
C	 1.3678729873	 2.1701412316	-0.0085274934	-0.246977
C	 1.7904636967	 2.4505697248	-1.4337528469	-0.040365
C	 2.1478316907	 1.5432925879	-2.3423128146	-0.038741
C	 2.1253015022	 0.0479851349	-2.1089668058	-0.30491
C	 0.7361898989	-0.5069044424	-2.3399156646	-0.038748
C	-0.2378729026	-0.4952510914	-1.4303024371	-0.040349
C	-0.1250653392	 0.0018291949	-0.0059900562	-0.246975
H	-0.3311678017	 1.7432927615	 1.2299502076	 0.09161
H	-0.7643436303	 2.0395994629	-0.4455165874	 0.099764
H	 1.3878879558	 3.1154208762	 0.5443759588	 0.09614
H	 2.109858641	 1.5254237628	 0.48255454	 0.103952
H	 1.7916793167	 3.4975065881	-1.7302779627	 0.081917
H	 2.4172753439	 1.8756678985	-3.3423322278	 0.083883
H	 2.8432315552	-0.4470978377	-2.770630855	 0.097616
H	 2.4386310526	-0.1665505241	-1.0796502264	 0.107108
H	 0.5207133138	-0.878768757	-3.3391143482	 0.083883
H	-1.2158196608	-0.8703385341	-1.7251518546	 0.081916
H	 0.7424935989	-0.460522274	 0.4848677379	 0.103952
H	-1.0003785624	-0.3532570304	 0.5484451798	 0.096139
154.6576	179.4784	241.0178	256.8512	311.7536	415.0822	479.1049	517.7474	601.3654	614.6575	724.897	735.2507	777.297	863.5889	899.5042	914.6443	931.2988	994.6538	999.8725	1006.2475	1022.1025	1032.7619	1080.9265	1116.6348	1157.2558	1219.412	1265.8655	1266.2792	1284.8843	1288.3558	1311.2962	1352.1151	1362.7832	1371.0303	1414.8636	1419.4225	1481.7857	1482.9369	1484.5317	1503.1162	1717.136	1724.6665	3008.6905	3012.5726	3022.5481	3027.9864	3059.7503	3064.5947	3071.7825	3074.0783	3133.8569	3135.8603	3159.2126	3162.2525
C1CC=CCC=CC1	C1CC=CCC=CC1	
InChI=1S/C8H12/c1-2-4-6-8-7-5-3-1/h1-2,5,7H,3-4,6,8H2/b2-1-,7-5-	InChI=1S/C8H12/c1-2-4-6-8-7-5-3-1/h1-2,5,7H,3-4,6,8H2/b2-1-,7-5-
