17
gdb 127688	3.09939	1.43617	0.99364	5.9348	84.05	-0.2129	-0.0479	0.165	1166.9731	0.136252	-414.17072	-414.162225	-414.161281	-414.203977	31.34	
C	-0.0353752292	 1.4509851236	-0.0316845043	-0.329703
N	-0.0082269244	-0.0002989957	 0.0561110715	-0.092507
N	-0.0353041822	-0.6253200239	-1.1575855105	-0.060794
N	-0.0168574619	-1.8788710968	-1.2390859063	-0.267015
C	 0.0330443181	-2.7234450024	-0.0815575006	 0.376486
N	 0.0505606901	-3.9972875208	-0.2044583664	-0.529319
C	 0.061169158	-2.0484792092	 1.1952185895	-0.258156
C	 0.0403570608	-0.7007398923	 1.2507562308	 0.42297
C	 0.0666763461	 0.0845009838	 2.5283957691	-0.49065
H	 0.8616694225	 1.894699686	 0.4113659376	 0.141775
H	-0.0719649825	 1.6986927395	-1.0918136489	 0.168372
H	-0.9181185784	 1.8647203444	 0.4657779964	 0.141776
H	 0.0236844869	-4.2293065474	-1.2002373413	 0.217526
H	 0.0990181968	-2.641636681	 2.0998399153	 0.118729
H	 0.1043160556	-0.6012999065	 3.3761038104	 0.149229
H	 0.9404238404	 0.7431035732	 2.5809474304	 0.145642
H	-0.8236742569	 0.7136105655	 2.6354117671	 0.14564
71.987	127.1346	175.6838	206.0326	234.4001	311.7987	349.7805	467.2487	473.2255	515.0897	558.3701	564.2413	735.6956	747.2427	789.9741	874.802	907.5547	910.1421	961.35	1034.8707	1065.287	1125.6227	1147.8768	1175.6275	1254.1687	1259.1353	1337.7017	1408.6909	1423.3214	1450.5103	1472.4455	1484.7155	1494.3123	1509.1598	1550.5795	1669.5959	1722.3431	3034.9918	3041.0933	3090.9136	3099.0406	3140.8088	3165.0552	3216.4409	3451.8431
CN1N=NC(=N)C=C1C	Cn1nnc([NH])cc1C	
InChI=1S/C5H8N4/c1-4-3-5(6)7-8-9(4)2/h3,6H,1-2H3	InChI=1S/C5H13N4/c1-4-3-5(6)7-8-9(4)2/h4-8H,3H2,1-2H3
