20
gdb 51554	2.42424	1.45433	1.09353	3.3024	80.22	-0.2451	0.0259	0.271	1170.5078	0.171217	-403.148274	-403.139426	-403.138482	-403.182283	33.087	
O	 0.6360054672	 1.1221848471	 1.7270001624	-0.321155
C	 0.3712288501	 1.5801228258	 0.6359624373	 0.152064
N	 1.2516183044	 1.7081923416	-0.3951901136	-0.277927
C	 2.5855332451	 1.1873630171	-0.3361481517	-0.018158
C	 3.6799665636	 1.9198813615	-1.0746084263	-0.418073
C	 3.6525781608	 1.927090579	 0.4247208091	 0.382526
C	 3.3974670194	 3.0888096802	 1.3901637157	-0.284516
C	 3.9751572693	 2.1908362646	 2.522988411	-0.201132
C	 4.5863322079	 1.2556331919	 1.437778861	-0.289667
H	-0.6356689276	 1.9586899284	 0.3654039349	 0.072773
H	 0.8896670082	 2.0115331814	-1.2863975228	 0.248137
H	 2.6438845798	 0.1007019339	-0.3064546469	 0.103399
H	 4.4271583448	 1.3256805218	-1.5910230698	 0.117349
H	 3.4091764017	 2.8413806084	-1.5827436273	 0.110565
H	 4.0362005216	 3.9509927087	 1.1713417662	 0.09368
H	 2.366389575	 3.4298784277	 1.4998334485	 0.10855
H	 4.6664978289	 2.6556683239	 3.2286261242	 0.090278
H	 3.1720725897	 1.6933824567	 3.0692125403	 0.133791
H	 4.4738110833	 0.1772413789	 1.5794200212	 0.100483
H	 5.6405592366	 1.4778720415	 1.2411880866	 0.097035
64.37	89.0474	128.1379	176.3674	255.0248	278.3092	333.7149	413.1149	477.0707	535.9012	563.9106	702.4092	776.8898	805.153	824.3932	868.5144	892.051	896.6369	933.5155	954.9077	1030.4878	1038.4361	1053.092	1082.4377	1084.6425	1136.0665	1140.6444	1180.1585	1219.5637	1230.0623	1242.569	1259.1283	1278.0589	1286.6485	1346.9062	1414.2568	1430.6784	1473.2674	1476.2408	1486.6853	1500.4944	1504.8619	1804.1938	2925.6338	3042.1756	3048.5395	3075.0878	3093.3817	3112.0674	3114.8688	3118.2396	3138.3161	3203.9613	3614.2959
O=CNC1CC11CCC1	O=CN[C@H]1CC21CCC2	
InChI=1S/C7H11NO/c9-5-8-6-4-7(6)2-1-3-7/h5-6H,1-4H2,(H,8,9)	InChI=1S/C7H11NO/c9-5-8-6-4-7(6)2-1-3-7/h5-6H,1-4H2,(H,8,9)/t6-/m0/s1
