16
gdb 51381	2.86935	1.23578	1.03885	3.9173	71.59	-0.2505	-0.0209	0.2296	1167.1524	0.123412	-437.863462	-437.855355	-437.85441	-437.897258	29.499	
N	-0.2755071291	 1.1461016254	-0.0229607747	-0.430783
C	-0.4498047756	-0.0688390389	-0.3040453352	 0.128389
O	-1.0559408692	-0.8812564503	 0.5987135173	-0.192364
C	-1.0726526816	-2.2514743912	 0.2919528328	 0.109119
C	-2.2246649229	-3.0686097499	 0.7067603244	-0.112321
C	-3.5233512906	-2.250462032	 0.6049448444	-0.354124
C	-3.2363194504	-2.1090022042	-0.9084318455	 0.432051
O	-3.8929126683	-1.7331164163	-1.8355830024	-0.309419
C	-1.9238348428	-2.8401310082	-0.8209706899	-0.244709
H	 0.1690947161	 1.624154353	-0.8040428789	 0.235228
H	-0.173837771	-0.5821985161	-1.2333524233	 0.09932
H	-0.0955536257	-2.7226541339	 0.3819723187	 0.121499
H	-2.112208709	-3.9913563629	 1.2598607602	 0.117279
H	-4.4284540805	-2.8425457302	 0.7630016071	 0.136113
H	-3.5686493242	-1.3344531687	 1.196138938	 0.1493
H	-1.4955482653	-3.4899131656	-1.574775553	 0.115422
50.2133	93.2523	112.9671	180.6875	272.0861	415.9224	451.6105	496.2639	568.3271	639.7265	698.1653	744.3336	807.2556	827.6875	883.3747	916.5467	960.6347	968.1388	1008.8838	1027.2949	1048.1487	1072.1134	1087.9039	1119.7629	1148.0093	1211.6527	1223.6467	1276.5087	1287.1454	1332.89	1406.6596	1425.2951	1455.9257	1750.3877	1888.7987	3046.9857	3077.2472	3127.6606	3137.6027	3192.0439	3211.951	3519.7458
N=COC1C2CC(=O)C12	[NH][CH]O[C@H]1[C@H]2CC(=O)[C@@H]12	
InChI=1S/C6H7NO2/c7-2-9-6-3-1-4(8)5(3)6/h2-3,5-7H,1H2	InChI=1S/C6H7NO2/c7-2-9-6-3-1-4(8)5(3)6/h2-3,5-7H,1H2/t3-,5-,6-/m0/s1
