15
gdb 62378	2.68242	1.87245	1.37956	2.5201	69.69	-0.2543	-0.0232	0.2311	922.0771	0.113326	-416.757501	-416.750247	-416.749303	-416.788831	28.935	
N	 0.2024051881	 1.4190956915	-0.0200356364	-0.565032
C	 0.0839628653	-0.0105370294	-0.0376234596	 0.199311
C	 1.0589313895	-0.5766039167	-0.9716960691	 0.246063
N	 1.8135243137	-0.9949198405	-1.7402841016	-0.332133
C	-0.0556522457	-0.6322674118	 1.4160721381	-0.003688
O	-1.4526695803	-0.194573723	 1.3743238058	-0.293863
C	-1.3914868459	-0.6565997977	-0.0116916413	-0.034174
C	-1.0834800661	-2.139121823	 0.1465181421	-0.081717
C	-0.1698783146	-2.1249830907	 1.1240645572	-0.083663
H	 0.1735130109	 1.8157787255	-0.9524940248	 0.246679
H	-0.5494085369	 1.8075379409	 0.5402439263	 0.251065
H	 0.521046394	-0.2490391415	 2.2553158313	 0.102467
H	-2.1974368956	-0.3005393925	-0.6510556422	 0.093717
H	-1.4816911088	-2.9540056426	-0.4385736912	 0.127064
H	 0.3962567625	-2.9225487684	 1.5797214954	 0.127903
148.155	158.7408	283.9413	318.5957	364.9441	452.9034	455.773	519.1254	590.8504	601.7155	665.3604	728.5229	782.0421	803.8856	838.9197	880.405	901.2676	923.4263	931.8169	970.4743	979.3447	1022.4156	1135.3668	1144.8628	1165.111	1234.8512	1258.5202	1298.5944	1312.8207	1342.964	1605.1182	1636.5723	2358.878	3144.9347	3155.1882	3243.9027	3269.0197	3510.2881	3604.6256
NC1(C#N)C2OC1C=C2	N[C@@]1(C#N)[C@H]2O[C@@H]1C=C2	
InChI=1S/C6H6N2O/c7-3-6(8)4-1-2-5(6)9-4/h1-2,4-5H,8H2	InChI=1S/C6H6N2O/c7-3-6(8)4-1-2-5(6)9-4/h1-2,4-5H,8H2/t4-,5+,6-
