18
gdb 109141	4.19136	0.96944	0.80821	4.2081	76.66	-0.2074	0.0022	0.2095	1372.0979	0.148615	-439.132678	-439.123902	-439.122958	-439.166508	32.367	
O	 0.0453600581	 1.4362816917	-0.1093956054	-0.414788
C	 0.031292548	 0.0255827889	 0.0094192086	-0.161695
C	-1.380308038	-0.4760267941	 0.058542025	 0.221089
C	-2.4347846225	 0.3415408224	 0.073439515	-0.049832
N	-3.7501005412	-0.1419542887	 0.1084892594	-0.33589
C	-4.0981820372	-1.445754205	 0.3823986277	 0.398921
O	-5.2519536096	-1.8236024412	 0.3621898966	-0.365383
C	-2.9168600951	-2.3273910819	 0.7721467523	-0.319506
C	-1.6113555034	-1.9679884821	 0.0453684496	-0.319828
H	 0.9583309843	 1.7326795972	-0.0667360498	 0.29203
H	 0.5528387265	-0.4519283272	-0.8408081984	 0.094193
H	 0.5692177144	-0.3020836792	 0.9177474421	 0.093819
H	-2.3326125309	 1.4178008977	 0.0464728356	 0.131498
H	-4.5199585439	 0.4857293992	-0.0664278577	 0.252822
H	-2.7797700086	-2.1922979923	 1.8538058805	 0.129755
H	-3.2105446179	-3.3660115039	 0.6110549513	 0.1289
H	-1.6492347773	-2.3272590068	-0.994415722	 0.118091
H	-0.7739102855	-2.4985004047	 0.5140690896	 0.105803
67.1419	105.8233	152.3159	200.2591	224.1623	285.6416	368.4045	412.4199	474.2485	515.3273	536.8073	559.8694	650.7115	765.3209	786.2113	791.5238	880.4747	962.2236	998.4532	1020.5331	1060.6207	1084.1295	1130.7319	1172.3826	1193.4277	1219.0265	1249.639	1261.3911	1291.7108	1338.9749	1383.7102	1388.1214	1457.4173	1462.8477	1467.4193	1484.3496	1514.2699	1751.7946	1803.1521	2928.3871	2938.2836	2991.8313	3025.6391	3050.3301	3120.3711	3232.5299	3629.3329	3844.9471
OCC1=CNC(=O)CC1	OCC1=CNC(=O)CC1	
InChI=1S/C6H9NO2/c8-4-5-1-2-6(9)7-3-5/h3,8H,1-2,4H2,(H,7,9)	InChI=1S/C6H9NO2/c8-4-5-1-2-6(9)7-3-5/h3,8H,1-2,4H2,(H,7,9)
