13
gdb 133207	3.13748	1.46718	1.00592	3.8283	66.1	-0.2626	-0.0947	0.1679	1079.3933	0.087587	-494.013912	-494.006249	-494.005305	-494.046733	27.867	
C	-0.0354109933	 1.4677675996	-0.0045830675	-0.483425
C	-0.0100853886	-0.0285054573	 0.0009838429	 0.218376
N	-0.046862539	-0.6595411304	-1.1204128695	-0.090196
O	-0.0220357652	-2.0364198593	-1.07911833	-0.275679
C	 0.0411421554	-2.7675660882	 0.126881825	 0.461441
N	 0.0608715296	-4.0266418987	 0.0923701294	-0.499411
N	 0.0795970325	-2.0575754838	 1.3188997897	-0.315106
C	 0.0550373495	-0.7968338655	 1.2378438583	 0.312204
F	 0.0898819747	-0.0797821723	 2.3479180642	-0.040504
H	 0.8602675777	 1.871350754	 0.478500032	 0.155741
H	-0.0849061372	 1.8284728926	-1.0325752041	 0.16089
H	-0.9001484898	 1.8418317634	 0.5529049074	 0.155741
H	 0.0258347637	-4.3607837942	-0.8704958577	 0.239927
46.518	172.5192	204.8558	269.0199	302.4265	374.1295	398.245	486.6829	550.8566	566.2774	705.9108	712.5107	762.3759	780.2409	862.661	862.9194	965.1586	1049.821	1060.1825	1080.9676	1247.6882	1280.6274	1394.8134	1414.6967	1472.0193	1474.0536	1634.339	1742.5979	1758.1089	3046.3534	3104.9718	3154.13	3507.6473
CC1=NOC(=N)N=C1F	CC1=NOC(=N[C]1F)[NH]	
InChI=1S/C4H4FN3O/c1-2-3(5)7-4(6)9-8-2/h6H,1H3	InChI=1S/C4H4FN3O/c1-2-3(5)7-4(6)9-8-2/h6H,1H3
