21
gdb 122846	4.35374	0.62658	0.56238	3.7062	79.1	-0.2351	0.0695	0.3046	2003.784	0.181065	-457.570813	-457.559524	-457.55858	-457.609276	37.981	
C	 0.1114117558	 1.3564918793	-0.2202168061	-0.322071
N	-0.0887911274	 0.0013927784	 0.2572095882	-0.360543
C	-1.2812591223	-0.6506838872	 0.0069568862	 0.503306
O	-2.2682378852	-0.0897451817	-0.4410575206	-0.413989
N	-1.2549386571	-1.9967955673	 0.3094981864	-0.371643
C	-2.4864589732	-2.7631503191	 0.332071115	-0.147386
C	-2.1890738352	-4.2335692278	 0.0990462779	-0.069137
O	-1.3213608408	-4.668330772	 1.1303298931	-0.241575
C	-0.9258733949	-6.0123071401	 0.9912424233	-0.226434
H	 0.7402381632	 1.9147454028	 0.4800055431	 0.117279
H	 0.5750063614	 1.3939644661	-1.2155887743	 0.115653
H	-0.8678347327	 1.8313709434	-0.2832644003	 0.167411
H	 0.734514105	-0.5699118169	 0.3625068273	 0.233098
H	-0.5337808403	-2.3434267037	 0.9233619733	 0.240414
H	-3.0189748354	-2.6513527621	 1.2880959051	 0.108093
H	-3.1370306487	-2.3734299356	-0.4530856422	 0.141389
H	-3.1252836037	-4.8152208132	 0.1099856612	 0.09067
H	-1.7120530308	-4.3746485838	-0.8844813511	 0.093569
H	-0.3859068405	-6.1836743604	 0.0467061183	 0.106498
H	-0.2619673283	-6.2479699895	 1.8266314906	 0.127451
H	-1.7890811787	-6.6953468398	 1.0205382756	 0.107946
25.9656	64.9206	75.224	98.0864	109.7463	158.2104	195.4605	224.8153	279.1928	309.5238	330.8824	400.792	500.0013	519.5252	554.4776	731.0516	768.1779	842.6708	916.998	972.9738	1053.119	1097.4458	1114.7295	1151.06	1159.2253	1169.0875	1185.5284	1197.3311	1213.5979	1242.4219	1258.4374	1289.4806	1386.1873	1423.0315	1439.3088	1479.407	1485.4362	1486.8761	1497.5969	1497.6368	1501.3052	1515.0555	1523.3295	1563.3531	1781.5304	2962.9243	2976.4482	2991.0626	3009.0318	3010.9797	3018.8013	3079.2263	3113.6122	3122.8856	3156.4813	3619.8681	3626.6093
CNC(=O)NCCOC	CNC(=O)NCCOC	
InChI=1S/C5H12N2O2/c1-6-5(8)7-3-4-9-2/h3-4H2,1-2H3,(H2,6,7,8)	InChI=1S/C5H12N2O2/c1-6-5(8)7-3-4-9-2/h3-4H2,1-2H3,(H2,6,7,8)
