19
gdb 92590	2.08914	1.78937	1.59428	2.4543	70.34	-0.2475	0.0625	0.31	989.0642	0.158932	-460.150204	-460.141852	-460.140908	-460.182877	32.246	
C	-0.2506873701	 1.4465084888	-0.0939426242	-0.474282
C	 0.0271409572	-0.0372507195	-0.0021814487	 0.420656
O	-1.1928433178	-0.7502535565	-0.0512416851	-0.279588
C	-1.0233261354	-1.9182170117	 0.7212270439	 0.006684
O	-0.1281722293	-1.5952402808	 1.769444408	-0.258922
C	 0.7647785416	-0.6339244603	 1.2424570626	 0.031853
C	 1.8973646623	-1.1764027132	 0.3256218711	-0.289568
C	 1.1661729232	-0.605873296	-0.9282333167	 0.030105
O	 0.667501979	-1.5397426436	-1.857174078	-0.418976
H	 0.6768207486	 2.0225892829	-0.0182885941	 0.113355
H	-0.7245101217	 1.6856555088	-1.0513387672	 0.134457
H	-0.9227892044	 1.7570419381	 0.7110889463	 0.128492
H	-1.9857553899	-2.2046278361	 1.1543549792	 0.116093
H	-0.6206079134	-2.7306654086	 0.0975353214	 0.098449
H	 1.062715434	 0.0366899808	 2.0505108042	 0.083172
H	 2.8831262533	-0.7466867158	 0.5207853832	 0.10145
H	 1.9727147153	-2.2665998305	 0.334548561	 0.106808
H	 1.7276699258	 0.1936687275	-1.4318066866	 0.063601
H	 1.4182050519	-1.9270899644	-2.3191318905	 0.286163
78.0557	208.1638	217.8933	232.0621	271.4277	273.0339	318.788	417.5547	426.5416	533.0564	621.9029	641.3813	734.2999	777.3472	843.3706	888.6943	895.7151	927.2785	982.6074	1015.7643	1046.2724	1082.7665	1127.0775	1142.8118	1164.3866	1174.8892	1185.524	1193.8219	1216.7682	1238.8891	1249.0314	1291.249	1332.9028	1350.874	1408.4281	1415.0162	1429.707	1458.3221	1482.4635	1494.0377	1543.9122	2988.4117	2994.86	3038.0419	3060.7369	3090.5076	3095.0133	3109.5819	3117.5809	3121.8335	3812.2269
CC12OCOC1CC2O	C[C@]12OCO[C@H]1C[C@H]2O	
InChI=1S/C6H10O3/c1-6-4(7)2-5(6)8-3-9-6/h4-5,7H,2-3H2,1H3	InChI=1S/C6H10O3/c1-6-4(7)2-5(6)8-3-9-6/h4-5,7H,2-3H2,1H3/t4-,5+,6-/m1/s1
