19
gdb 65785	3.34206	1.13099	1.06904	3.0288	71.08	-0.246	-0.0401	0.2058	1191.9787	0.158221	-460.175981	-460.167102	-460.166158	-460.210474	32.71	
O	-0.2689463329	 1.2299532972	 0.0326947268	-0.489075
C	 0.0026380444	-0.1669695855	 0.0365412234	 0.362865
C	 0.8105648065	-0.5419973585	 1.2874732073	-0.372015
C	 2.1239867593	 0.1894115838	 1.4177413912	 0.162351
O	 2.4900220814	 1.0829943244	 0.6892803543	-0.256909
C	-1.3605680821	-0.8724698132	-0.0469901595	-0.249042
C	-1.5952746348	-0.9146288893	-1.5560460307	-0.079182
O	-0.3194007901	-1.2278349739	-2.1028376855	-0.259383
C	 0.6791189039	-0.6140007785	-1.296089917	-0.094414
H	 0.5898664673	 1.6702827147	-0.0218005232	 0.291071
H	 0.231014493	-0.3133521048	 2.19451535	 0.140367
H	 1.0167085761	-1.6201429051	 1.3321412357	 0.127682
H	 2.7660105388	-0.1417483336	 2.2631742598	 0.097648
H	-1.2916411222	-1.8897366382	 0.3517918302	 0.098427
H	-2.1192227933	-0.3178189794	 0.5086680558	 0.114898
H	-2.2972962074	-1.6882141397	-1.8781617543	 0.105311
H	-1.9520067562	 0.0613314642	-1.9168721871	 0.104977
H	 1.1034259273	 0.2640179163	-1.7990467508	 0.103426
H	 1.483968441	-1.3429969708	-1.1421535766	 0.090997
35.0424	86.4199	151.1056	173.3049	236.3857	300.8224	341.9341	414.8824	452.6549	536.8518	563.1911	643.0788	696.4965	771.2186	827.1551	872.316	906.6892	936.8097	963.6477	970.3919	989.5616	1037.837	1066.5944	1104.2355	1145.1119	1183.7446	1208.0501	1242.5163	1256.3203	1296.4394	1317.936	1338.2674	1366.4215	1383.1707	1416.1255	1429.9347	1435.8513	1471.9811	1503.6355	1520.0326	1807.5084	2895.7502	2997.8195	3010.6115	3015.5048	3046.6194	3053.104	3056.9277	3093.2577	3123.6297	3755.9341	35.0458	86.4199	151.1055	173.3051	236.3859	300.8225	341.934	414.8825	452.6549	536.8518	563.1911	643.0788	696.4964	771.2186	827.1552	872.316	906.6892	936.8098	963.6478	970.3919	989.5616	1037.837	1066.5944	1104.2357	1145.112	1183.7444	1208.0502	1242.5161	1256.3202	1296.4395	1317.936	1338.2674	1366.4213	1383.1707	1416.1257	1429.9346	1435.8515	1471.9813	1503.6349	1520.0324	1807.5085	2895.7503	2997.8196	3010.6115	3015.5048	3046.6194	3053.104	3056.9277	3093.2577	3123.6297	3755.9341
OC1(CC=O)CCOC1	O[C@@]1(CC=O)CCOC1	
InChI=1S/C6H10O3/c7-3-1-6(8)2-4-9-5-6/h3,8H,1-2,4-5H2	InChI=1S/C6H10O3/c7-3-1-6(8)2-4-9-5-6/h3,8H,1-2,4-5H2/t6-/m0/s1
