23
gdb 77602	1.8031	1.65713	1.59282	0.1737	90.84	-0.2193	0.0244	0.2437	1121.4437	0.205053	-351.168982	-351.159526	-351.158582	-351.202136	37.152	
C	-0.0741159644	 1.5361338378	 0.0356938499	-0.424125
C	 0.0834307406	 0.0343838284	-0.045099689	-0.083675
C	 0.7299646498	-0.7073392535	-1.1969380626	 0.278605
C	 0.0253952273	-1.8951489703	-1.8118648393	-0.484293
C	 1.6657652418	 0.0976966874	-2.112003804	-0.335745
C	 2.7969068443	 0.5287473584	-1.2066712252	-0.082145
C	 2.6400010235	 0.0628688421	 0.0337575076	-0.128899
C	 1.3852521593	-0.7336016558	 0.1919967697	 0.260748
C	 1.4036331189	-1.9300405406	 1.1168186628	-0.486701
H	 0.8320186853	 2.0632624916	-0.2715503384	 0.12305
H	-0.8955829818	 1.8755549714	-0.6062494659	 0.110903
H	-0.3076221323	 1.8481798897	 1.0599295483	 0.111411
H	-0.780381883	-0.498208215	 0.3527703394	 0.071809
H	-0.6613499912	-1.5754280497	-2.6052861134	 0.115409
H	 0.7390913415	-2.5970542904	-2.2598135072	 0.112949
H	-0.5660749176	-2.4463136632	-1.0745313977	 0.112631
H	 2.0289342191	-0.5207120382	-2.9450676056	 0.100664
H	 1.1591546106	 0.95683226	-2.5735023057	 0.106078
H	 3.6090287317	 1.1632516054	-1.544189825	 0.090041
H	 3.3193331171	 0.2389956184	 0.8617552514	 0.086507
H	 1.5746846602	-1.6207016725	 2.1550538632	 0.115166
H	 0.4546360212	-2.4735724303	 1.092970242	 0.113968
H	 2.1997008381	-2.6339522411	 0.8474744545	 0.115642
173.2941	175.8551	190.9758	206.0353	215.2811	229.7742	235.1621	299.1155	354.7898	412.8744	519.2535	535.0038	561.1024	660.4249	707.4217	726.9497	766.4627	838.0723	912.0086	949.0746	957.6412	959.0606	978.0216	990.8916	1051.4301	1081.8954	1090.5285	1118.8856	1123.3898	1130.6968	1166.6709	1212.6125	1228.3441	1253.0544	1316.9434	1341.1622	1380.9905	1408.5715	1411.8312	1422.6259	1449.7358	1475.9032	1485.8563	1494.643	1495.4374	1499.0586	1503.1872	1508.3901	1673.2394	3002.4416	3018.0138	3022.4709	3027.0148	3027.8468	3072.896	3077.0023	3080.4345	3096.542	3099.2875	3106.725	3122.609	3173.4367	3201.3022
CC1C2(C)CC=CC12C	C[C@H]1[C@@]2(C)CC=C[C@@]12C	
InChI=1S/C9H14/c1-7-8(2)5-4-6-9(7,8)3/h4-5,7H,6H2,1-3H3	InChI=1S/C9H14/c1-7-8(2)5-4-6-9(7,8)3/h4-5,7H,6H2,1-3H3/t7-,8+,9-/m1/s1
