19
gdb 88647	4.57505	0.90407	0.81614	2.6345	78.82	-0.2367	0.027	0.2637	1421.4189	0.158977	-419.170014	-419.161284	-419.16034	-419.204169	32.351	
C	-0.2167179308	 1.6309873129	-0.0066368734	-0.31614
N	-0.0252599526	 0.187528019	-0.0600950246	-0.08225
C	 1.2978453007	-0.3182317391	-0.3901215052	-0.2568
C	 0.7364438541	-0.5051073941	 0.9803338989	 0.000918
C	 1.3458706349	 0.2013636955	 2.1570577075	 0.105997
C	 0.5618723271	 0.1999207907	 3.4908874938	-0.384653
C	 1.7230967404	-0.6287515341	 3.9955569338	 0.436391
N	 2.0303021579	-1.1478950707	 5.0934170059	-0.537284
O	 2.389870633	-0.627377318	 2.7850021576	-0.262681
H	 0.6779137931	 2.2079725519	 0.2748723381	 0.103583
H	-0.5305609722	 1.9716045001	-0.9982112351	 0.131238
H	-1.0188600339	 1.8673227531	 0.6997972198	 0.127511
H	 1.3379329541	-1.1502749526	-1.0877861661	 0.12293
H	 2.1093500512	 0.4025561587	-0.4939517941	 0.111079
H	 0.3235223172	-1.4797240357	 1.2403848447	 0.09817
H	 1.7724594555	 1.1688854997	 1.8852728188	 0.093738
H	 0.4360737207	 1.1664330526	 3.9806817135	 0.138347
H	-0.3949293017	-0.3255735298	 3.4682258595	 0.141315
H	 2.9240640814	-1.6390798802	 5.0349236367	 0.228592
50.671	78.4824	145.2126	215.0287	229.1546	336.1386	352.4385	407.9187	447.144	495.9942	540.4244	735.5988	758.3887	813.0995	867.032	905.0402	937.8411	941.3044	957.6698	1020.354	1027.4469	1042.3208	1076.2591	1115.4699	1126.7034	1130.5027	1165.5442	1200.8759	1214.7214	1224.994	1241.1293	1309.6742	1323.4789	1334.8116	1445.4894	1451.6837	1465.6851	1490.5517	1504.2065	1512.3215	1828.4229	2977.2312	3068.2331	3084.1305	3085.992	3090.4748	3104.1287	3109.3528	3142.6903	3177.1141	3476.1408
CN1CC1C1CC(=N)O1	CN1C[C@H]1[C@H]1C[C]([NH])O1	
InChI=1S/C6H10N2O/c1-8-3-4(8)5-2-6(7)9-5/h4-5,7H,2-3H2,1H3	InChI=1S/C6H10N2O/c1-8-3-4(8)5-2-6(7)9-5/h4-5,7H,2-3H2,1H3/t4-,5+,8?/m0/s1
