20
gdb 17679	3.83083	1.49662	1.26757	1.7252	75.13	-0.2577	0.0929	0.3506	1050.5975	0.175302	-348.984457	-348.97564	-348.974696	-349.017505	32.988	
C	 0.063796895	 1.2935898262	-0.3313426725	-0.42469
C	 0.2104106358	-0.1360491694	 0.1222055845	 0.036686
O	 1.5442770803	-0.6394697862	 0.3076074451	-0.298408
C	 0.6745387806	-0.5827688163	 1.4513373032	 0.365886
C	 1.0798503362	 0.389954923	 2.538032515	-0.462466
C	 0.2325774417	-1.9275231217	 1.9676746095	-0.055962
C	 0.3154022269	-3.1551483923	 1.1022181919	-0.273838
C	 1.2682043714	-2.9873420398	 2.2596069263	-0.264528
H	 0.7237511185	 1.9701165066	 0.2142616145	 0.126251
H	 0.3046710019	 1.3753371071	-1.3967106455	 0.129145
H	-0.970485104	 1.6294488275	-0.1977219184	 0.120904
H	-0.4366740795	-0.8379830508	-0.408400963	 0.083182
H	 1.4405280868	 1.3351749827	 2.1303337774	 0.124195
H	 0.23354146	 0.596604269	 3.2026280797	 0.117788
H	 1.879873058	-0.0456273791	 3.1454798448	 0.129178
H	-0.6040151532	-1.8721829053	 2.6598531337	 0.082141
H	-0.4754995048	-3.8925644828	 1.1813067217	 0.105575
H	 0.731532946	-3.0295795639	 0.1093763834	 0.128487
H	 2.2985121979	-2.7532052716	 2.0146270177	 0.122935
H	 1.1401289843	-3.6085522029	 3.1389438712	 0.107538
86.3478	154.5714	157.956	167.8363	203.9822	281.6171	295.9178	369.7936	466.0558	480.4349	571.3672	664.7997	773.9478	800.4541	825.243	852.8453	907.2315	935.4923	974.4758	994.0899	1036.6942	1063.6023	1089.2852	1100.1188	1110.7217	1134.7284	1138.8055	1191.2416	1204.1666	1218.2607	1236.7352	1345.4427	1402.0613	1406.1638	1416.6397	1456.888	1459.4807	1475.9369	1485.8324	1497.7791	1500.2934	1519.3684	3037.1277	3040.3383	3082.7967	3096.6738	3098.8998	3132.44	3133.9415	3135.7283	3141.7452	3143.6197	3217.4743	3233.1988
CC1OC1(C)C1CC1	C[C@H]1O[C@]1(C)C1CC1	
InChI=1S/C7H12O/c1-5-7(2,8-5)6-3-4-6/h5-6H,3-4H2,1-2H3	InChI=1S/C7H12O/c1-5-7(2,8-5)6-3-4-6/h5-6H,3-4H2,1-2H3/t5-,7+/m1/s1
