14
gdb 57043	3.31419	1.09276	1.02316	3.2302	62.96	-0.2836	-0.0581	0.2255	1160.5026	0.099045	-473.813569	-473.805147	-473.804203	-473.847397	29.649	
O	 0.2268615567	 1.5091443268	 0.0499826723	-0.410304
C	 0.0697676752	 0.1129269901	-0.0106627691	-0.03694
C	 0.6558334758	-0.4533100079	-1.2449661125	 0.264297
N	 1.1283102788	-0.8964020883	-2.2014951953	-0.305914
C	 0.6770251896	-0.5533884846	 1.235109705	-0.027804
O	 1.9614803968	 0.0212078012	 1.5640104692	-0.297257
C	 1.5346961144	 0.49711288	 2.8665500126	-0.195159
C	 0.1309560124	-0.0485389294	 2.5871376301	 0.363509
O	-0.9197510994	-0.0763201124	 3.1423714224	-0.258787
H	 1.1715321573	 1.666832533	 0.187638405	 0.304163
H	-1.0069215019	-0.092003153	-0.0151989161	 0.1638
H	 0.7141796911	-1.6446084155	 1.1314803259	 0.137687
H	 2.0718879286	 0.0097184111	 3.6882214266	 0.149846
H	 1.6059063247	 1.585964969	 2.9667737738	 0.148864
62.1703	110.7734	118.1443	178.8742	247.2154	275.7287	415.485	429.4281	477.2419	555.1621	584.9555	665.6264	743.3033	811.3693	870.6543	952.2439	985.0738	994.9773	1054.1797	1077.9135	1109.5099	1142.8039	1217.4584	1256.2553	1285.9582	1321.3491	1338.7203	1426.3011	1475.9257	1936.9901	2357.6238	3034.3687	3048.8629	3065.5211	3089.5808	3758.1625
OC(C#N)C1OCC1=O	O[C@@H](C#N)[C@H]1OCC1=O	
InChI=1S/C5H5NO3/c6-1-3(7)5-4(8)2-9-5/h3,5,7H,2H2	InChI=1S/C5H5NO3/c6-1-3(7)5-4(8)2-9-5/h3,5,7H,2H2/t3-,5+/m0/s1
