20
gdb 57194	2.40041	1.35186	1.06031	4.0822	70.61	-0.2569	0.0049	0.2618	1202.0463	0.169613	-477.463719	-477.453847	-477.452902	-477.498065	37.614	
C	 0.0966092764	 1.6024085838	 0.1098253407	-0.440029
C	-0.0156406684	 0.0693362106	 0.1009004683	 0.352893
C	 0.6908116213	-0.5004923013	 1.3346583686	-0.406247
O	-1.3760802801	-0.3520195519	 0.2076250958	-0.477904
C	 0.5823313513	-0.533812421	-1.2080420608	-0.165603
N	 0.8198946741	-1.9866728559	-1.193417642	-0.549183
H	 0.4014660053	-1.8505752052	-3.0184048201	 0.309327
H	 1.6495552837	-2.2197928235	-0.6603878872	 0.248291
H	 0.0301334465	-2.4443292325	-0.7428766076	 0.255446
C	-0.3177447665	-0.2522011894	-2.4386186187	 0.44752
O	-1.0834172347	 0.6765579536	-2.5314791476	-0.352622
O	-0.1670721888	-1.1498990406	-3.4129546717	-0.360339
H	 1.1457164946	 1.918132748	 0.1102634343	 0.106337
H	-0.3941809723	 2.0354473749	-0.7620188852	 0.153908
H	-0.3755238175	 1.9921309109	 1.0163392802	 0.119693
H	 0.2912853299	-0.0235209053	 2.2330678294	 0.131062
H	 0.5264758211	-1.5765249612	 1.4298952747	 0.109132
H	 1.7684348574	-0.3104194789	 1.2954531051	 0.107999
H	-1.8593328125	 0.1089270707	-0.4911844508	 0.295892
H	 1.5449251392	-0.0492898058	-1.4178980854	 0.114425
74.3885	87.3701	199.1549	215.5038	249.7561	258.0055	313.4412	351.9855	368.0525	386.3911	398.1686	451.1216	525.7866	545.5583	576.8619	598.7189	730.5107	810.324	842.6252	881.8982	897.4094	935.7077	974.4772	989.1113	1012.2985	1089.6266	1128.3325	1170.9832	1199.5338	1229.6827	1237.1365	1300.6432	1382.6376	1392.0844	1401.1369	1420.41	1430.9076	1478.2918	1492.3573	1500.9345	1520.1151	1653.6439	1840.0862	3033.8521	3038.9966	3046.0983	3105.3019	3117.322	3126.6054	3154.3845	3445.4382	3490.1061	3587.073	3763.3398
CC(C)(O)C([NH3+])C([O-])=O	CC(C)(O)[C@@H](N)C(=O)O	
InChI=1S/C5H11NO3/c1-5(2,9)3(6)4(7)8/h3,9H,6H2,1-2H3,(H,7,8)	InChI=1S/C5H11NO3/c1-5(2,9)3(6)4(7)8/h3,9H,6H2,1-2H3,(H,7,8)/t3-/m0/s1
