21
gdb 120518	5.21033	0.65392	0.6375	3.7804	85.45	-0.2333	0.0246	0.258	1812.8298	0.182575	-383.266188	-383.256542	-383.255598	-383.301531	34.715	
C	 0.0039942183	 1.5724856433	-0.0420293631	-0.380326
C	 0.0032128762	 0.0435738448	 0.0323384579	-0.175921
C	 0.6578651285	-0.4826881168	 1.3105602811	-0.126726
N	 0.6738528078	-1.9329224484	 1.3565006669	-0.076386
C	-0.5951947324	-2.6522376816	 1.5750030917	-0.17793
C	 0.1926815476	-3.6921814304	 2.4247216792	-0.156073
C	 1.2831726838	-2.5856346968	 2.5277759426	-0.179541
C	-0.4102222881	-4.1870444	 3.6467789307	 0.267897
N	-0.8927569239	-4.5734257324	 4.6239569082	-0.325512
H	 1.0248733268	 1.9697960754	-0.0228454322	 0.117079
H	-0.471728665	 1.9235510874	-0.9623151699	 0.117486
H	-0.538253314	 2.0131361843	 0.8016731563	 0.118071
H	-1.0293480007	-0.3250059919	-0.0231680351	 0.10055
H	 0.5299926476	-0.3810727347	-0.8297688239	 0.108499
H	 1.6989614575	-0.1379371541	 1.3589312949	 0.103717
H	 0.1416880719	-0.0569209578	 2.1952241328	 0.076644
H	-1.317752517	-2.0948485878	 2.1924487163	 0.107187
H	-1.0948370723	-3.0202590321	 0.6750071986	 0.120335
H	 0.5325778364	-4.5297251566	 1.8125096179	 0.134555
H	 2.3254646137	-2.8942945108	 2.4061036594	 0.118616
H	 1.1790611674	-2.008199003	 3.4598653297	 0.107776
52.1399	82.2294	101.5943	163.809	189.3622	237.387	268.721	317.4121	376.5724	388.9833	536.348	558.0353	629.7494	757.9824	791.3936	894.0817	898.1459	910.0234	958.1997	989.5901	1043.9011	1060.6894	1074.5164	1104.5754	1126.8189	1143.4033	1179.5852	1205.8994	1225.1297	1239.0481	1275.0004	1291.0812	1325.1066	1331.3181	1343.0734	1361.3038	1410.2821	1418.0231	1486.6929	1495.9303	1500.1835	1504.9182	1511.7243	1531.3514	2357.3613	2898.0486	2977.5536	2986.8856	3023.0029	3032.0347	3038.5835	3066.911	3077.0982	3082.7191	3099.7369	3101.8538	3108.1084
CCCN1CC(C1)C#N	CCCN1CC(C1)C#N	
InChI=1S/C7H12N2/c1-2-3-9-5-7(4-8)6-9/h7H,2-3,5-6H2,1H3	InChI=1S/C7H12N2/c1-2-3-9-5-7(4-8)6-9/h7H,2-3,5-6H2,1H3
