15
gdb 25079	3.43322	1.70345	1.14659	3.4223	76.65	-0.1844	-0.0043	0.1801	997.5917	0.115019	-416.834399	-416.827628	-416.826684	-416.865585	26.784	
N	-0.0927013183	 1.3119824852	 0.0094712006	-0.607953
C	-0.0329984726	 0.0462854645	 0.0033247674	 0.461203
O	 1.1000364403	-0.7542932091	-0.0071992906	-0.236427
C	 0.7093574978	-2.0936859259	-0.0124973468	-0.203661
C	-0.6247806118	-2.1627029527	-0.0045770783	 0.32314
C	-1.8267381442	-3.0713759264	-0.0052671772	-0.412213
C	-2.9651560789	-2.0517607023	 0.0031736448	-0.148175
C	-2.4803150849	-0.8030383047	 0.0092209923	-0.00649
N	-1.0852797098	-0.8392574588	 0.005936211	-0.100546
H	 0.8392669551	 1.7174133591	 0.0053930642	 0.227334
H	 1.5000646816	-2.8217947427	-0.0213906871	 0.151588
H	-1.8586157808	-3.7236928729	-0.8871607886	 0.140115
H	-1.8536252225	-3.7317680746	 0.870838335	 0.140077
H	-4.0103379348	-2.3206228421	 0.0048167754	 0.114318
H	-2.9864772162	 0.1498657536	 0.0162428979	 0.15769
121.1221	158.9142	301.4268	321.8471	445.4912	555.2435	611.2229	650.9198	659.068	679.	706.7579	716.2085	736.7039	798.6301	882.6677	918.3468	935.9569	962.9581	980.4022	1047.9286	1067.6868	1157.2024	1162.2053	1188.5835	1255.3904	1287.9567	1294.7286	1379.3147	1445.9335	1469.2648	1645.6818	1721.4801	1783.9126	3021.6841	3042.7512	3250.444	3275.0302	3303.3601	3543.9066
N=C1OC=C2CC=CN12	[NH][C@H]1OC=C2CC=CN12	
InChI=1S/C6H6N2O/c7-6-8-3-1-2-5(8)4-9-6/h1,3-4,7H,2H2	InChI=1S/C6H7N2O/c7-6-8-3-1-2-5(8)4-9-6/h1,3-4,6-7H,2H2/t6-/m1/s1
