14
gdb 5439	3.65894	1.90437	1.25643	2.775	74.06	-0.1822	0.0276	0.2098	908.0248	0.108182	-341.59022	-341.582684	-341.58174	-341.621581	28.818	
N	 0.0562521289	 1.376265402	 0.1440492608	-0.619205
C	-0.0127388873	-0.0149324998	 0.0331396255	 0.204725
C	-1.1115755193	-0.8664249822	 0.0105814149	 0.133538
C	-0.592931828	-2.2077626205	-0.0170784801	-0.267327
C	 0.7699734672	-2.1263579248	-0.0225732223	-0.085331
N	 1.1137770293	-0.7839523155	 0.0101315401	-0.278422
C	-2.4549397313	-0.4363044469	 0.007352122	 0.193303
C	-3.5952551869	-0.0405860322	 0.0024866787	-0.444664
H	 0.5275372844	 1.8157651153	-0.6405225294	 0.246003
H	-0.8795238888	 1.760577656	 0.2131131098	 0.258197
H	-1.1831951823	-3.1095689423	-0.0470256651	 0.100071
H	 1.5295987394	-2.8893793048	-0.0544355727	 0.120376
H	 2.0452591361	-0.4207819678	 0.114111817	 0.262165
H	-4.6027638314	 0.2925510035	 0.0034983709	 0.176571
133.6095	163.6446	213.2321	267.3403	360.3753	447.4597	460.7851	496.6503	523.0347	601.2358	620.774	662.9786	663.8034	717.1637	728.2935	819.5055	833.1281	913.8486	1054.654	1088.594	1145.732	1194.9921	1275.732	1340.9673	1398.4309	1526.3018	1534.6724	1608.3492	1658.7273	2217.0402	3258.3402	3281.208	3498.8874	3505.1686	3591.555	3680.0452
NC1=C(C=CN1)C#C	Nc1c(cc[nH]1)C#C	
InChI=1S/C6H6N2/c1-2-5-3-4-8-6(5)7/h1,3-4,8H,7H2	InChI=1S/C6H6N2/c1-2-5-3-4-8-6(5)7/h1,3-4,8H,7H2
