17
gdb 47359	3.09175	1.15251	0.87049	4.5902	73.63	-0.2556	0.007	0.2625	1263.4963	0.138676	-418.073069	-418.064939	-418.063995	-418.106198	30.133	
O	 0.0061502687	-0.0845238177	 0.0803320828	-0.362936
C	-0.0095704647	 1.1298037295	 0.0358661741	 0.37801
C	-1.3261898105	 1.9050558665	 0.0456705282	-0.305501
C	-1.1864312925	 3.3851359046	 0.4590443621	-0.173213
C	-0.0198371102	 4.0272638098	-0.3163365461	-0.201473
C	 1.2800718433	 3.3095735248	 0.0370959212	-0.172894
N	 1.137623483	 1.8654593361	-0.0872084162	-0.305236
C	-2.4387196798	 4.113027862	 0.2495404341	 0.269586
N	-3.4253445234	 4.6871950894	 0.0691142188	-0.315306
H	-1.7411856731	 1.8458659087	-0.9671005629	 0.151916
H	-2.0152587767	 1.3667806651	 0.6987941329	 0.151556
H	-0.9586240146	 3.4358325378	 1.5323287905	 0.132912
H	-0.2179886639	 3.9505124507	-1.3907911739	 0.130746
H	 0.0716684477	 5.0885416082	-0.0718059224	 0.129794
H	 2.0804863513	 3.6444448908	-0.6309795283	 0.124711
H	 1.5817747767	 3.582805906	 1.0600844182	 0.115687
H	 1.9767798288	 1.3032577477	-0.064497803	 0.251639
94.738	110.6701	144.1934	192.7769	312.3711	380.7288	437.8969	447.4043	510.8373	555.7322	579.937	659.8425	666.3054	815.3528	836.2921	910.4042	952.2503	966.3522	1036.3415	1085.0859	1095.0478	1135.1749	1179.2903	1252.1497	1270.3195	1294.8505	1320.2787	1333.7082	1355.8665	1390.4744	1401.1792	1462.5087	1485.8651	1493.3725	1528.1136	1796.0167	2359.0696	2983.8722	3021.9631	3052.6808	3058.3309	3067.6178	3109.6183	3125.1024	3603.6698
O=C1CC(CCN1)C#N	O=C1C[C@@H](CCN1)C#N	
InChI=1S/C6H8N2O/c7-4-5-1-2-8-6(9)3-5/h5H,1-3H2,(H,8,9)	InChI=1S/C6H8N2O/c7-4-5-1-2-8-6(9)3-5/h5H,1-3H2,(H,8,9)/t5-/m1/s1
