16
gdb 5086	3.38802	1.93093	1.24909	1.8049	68.47	-0.1931	0.0302	0.2233	957.1411	0.128941	-383.776704	-383.768042	-383.767098	-383.809955	30.399	
C	 0.0646553931	 1.5129775295	 0.0327419455	-0.529402
C	-0.0120241999	 0.0189203327	 0.0259317838	 0.149565
C	-0.248557806	-0.8164152086	-1.0207308862	-0.108237
O	-0.2410622129	-2.1140795089	-0.626937888	-0.185707
C	 0.0082268098	-2.136541519	 0.7224576857	 0.284197
C	 0.0685929089	-3.4517342152	 1.4057689977	-0.497965
C	 0.1537803347	-0.8545066792	 1.157771759	 0.110762
O	 0.4116327857	-0.495347137	 2.4498248278	-0.4473
H	 1.0454980565	 1.8719926182	 0.3707060454	 0.127337
H	-0.1006563948	 1.9186618024	-0.9686921978	 0.135376
H	-0.6904059175	 1.9595540705	 0.6927503959	 0.12735
H	-0.4338452192	-0.6398706293	-2.0679994625	 0.128677
H	 0.8603905976	-4.0903471544	 0.9960946469	 0.131667
H	 0.2734922073	-3.2933793434	 2.4671615286	 0.144331
H	-0.8755044826	-4.00273542	 1.3181289364	 0.131667
H	 0.4690376093	 0.4632036317	 2.4968671017	 0.297682
82.4276	117.5818	144.4438	151.4307	231.5231	248.3244	297.1642	346.3235	492.2943	562.2992	611.3116	684.3399	723.9434	725.2724	751.3875	944.7345	998.2042	1027.049	1062.6579	1064.4126	1183.1	1194.7699	1253.4864	1303.8302	1315.3618	1412.1068	1419.382	1454.8693	1474.7529	1483.5892	1492.8125	1502.8961	1610.9729	1721.8657	3012.0571	3022.25	3055.531	3068.4832	3111.1947	3127.4774	3267.9556	3842.7198
CC1=COC(C)=C1O	Cc1coc(C)c1O	
InChI=1S/C6H8O2/c1-4-3-8-5(2)6(4)7/h3,7H,1-2H3	InChI=1S/C6H8O2/c1-4-3-8-5(2)6(4)7/h3,7H,1-2H3
