25
gdb 60344	2.88601	0.80033	0.74643	1.8531	85.92	-0.25	0.076	0.326	1701.4882	0.224261	-426.632192	-426.620239	-426.619295	-426.669836	43.797	
C	 0.5668863539	 0.1641639498	-0.7461342694	-0.397078
C	 0.045484214	-0.1253704134	 0.6577885788	 0.116903
O	 0.2054062562	 0.9871479744	 1.532070092	-0.431724
C	-1.4210181505	-0.571293954	 0.6615578014	-0.08044
O	-1.5193035503	-1.7608291944	-0.0904612605	-0.290062
C	-2.7920112531	-2.4254381035	-0.170773556	 0.377237
C	-3.8478796019	-1.5185444598	-0.8221936361	-0.413428
C	-2.5059398335	-3.6336671397	-1.0680908213	-0.397827
C	-3.2549008788	-2.8955757166	 1.2173132993	-0.41298
H	 1.621485531	 0.4507255451	-0.7128301463	 0.119216
H	 0.4515741803	-0.7153891662	-1.3838216418	 0.135396
H	 0.0008965988	 0.9866477749	-1.2041819979	 0.097845
H	 0.6400516451	-0.9288871559	 1.1070560268	 0.096205
H	-0.1912755096	 1.753654308	 1.1035562158	 0.2764
H	-1.7342642602	-0.710925946	 1.7049909662	 0.095906
H	-2.0414785424	 0.2340984219	 0.2318208209	 0.069031
H	-3.4831707357	-1.1373317358	-1.7809043225	 0.117822
H	-4.7695326678	-2.0796075828	-1.0046213372	 0.114445
H	-4.1041677743	-0.6662249968	-0.1860837063	 0.114181
H	-1.7303651346	-4.2608786682	-0.6197738218	 0.118558
H	-3.4065505093	-4.23831323	-1.2086063767	 0.10849
H	-2.1515243508	-3.3020948901	-2.0481489523	 0.116604
H	-3.5077588396	-2.0563637895	 1.8716205091	 0.115721
H	-4.1483820024	-3.521007823	 1.1268379201	 0.113647
H	-2.4697651543	-3.4855437285	 1.6994560255	 0.119931
23.9102	66.9075	128.4899	140.5742	203.897	235.13	248.8015	260.6649	266.6458	271.3087	310.3832	336.8973	367.6629	416.6002	444.1542	458.3823	491.0818	525.0936	753.2715	846.9048	899.4013	907.7298	920.1637	933.1999	955.4394	971.9376	1037.5383	1043.6885	1080.4508	1120.8607	1142.8935	1169.8552	1224.4187	1245.4366	1253.8742	1273.5058	1302.5591	1361.0145	1390.3427	1393.6325	1395.0656	1412.1004	1419.6718	1424.5551	1471.5032	1483.806	1485.9563	1489.1353	1495.5451	1498.8297	1500.4266	1514.9043	1524.4088	2956.4035	3019.8084	3026.1272	3037.3476	3039.2644	3046.2008	3055.963	3099.4665	3105.9456	3110.6505	3112.1416	3115.0022	3119.4984	3122.2245	3134.5258	3798.1213
CC(O)COC(C)(C)C	C[C@@H](O)COC(C)(C)C	
InChI=1S/C7H16O2/c1-6(8)5-9-7(2,3)4/h6,8H,5H2,1-4H3	InChI=1S/C7H16O2/c1-6(8)5-9-7(2,3)4/h6,8H,5H2,1-4H3/t6-/m1/s1
