17
gdb 98051	4.05504	0.78768	0.66504	2.02	83.39	-0.2246	-0.076	0.1486	1679.8188	0.133346	-418.007022	-417.996136	-417.995192	-418.046071	35.607	
C	 0.0700846349	 1.4216332244	-0.0519188233	-0.309747
N	-0.0828513951	-0.0115190813	-0.1429969211	-0.305379
C	-1.290733585	-0.6152591322	-0.0678419247	 0.288545
N	-2.390773713	 0.0332726182	 0.0657272373	-0.555304
C	-1.1789516215	-2.1316356735	-0.1604093352	 0.173748
O	-0.0971490868	-2.6766616546	-0.2681627634	-0.317466
C	-2.4181382167	-2.8697589311	-0.1102476778	-0.011124
C	-3.4262518602	-3.5337878057	-0.075395764	 0.16322
C	-4.6376138443	-4.3327666672	-0.0337564811	-0.507503
H	 1.1233043423	 1.6767634902	-0.1834803305	 0.121388
H	-0.5209973783	 1.9251653031	-0.8247003473	 0.141756
H	-0.2720188615	 1.7998845359	 0.9190189254	 0.136043
H	 0.7146240959	-0.621308905	-0.215878237	 0.261757
H	-3.172919295	-0.6197616205	 0.0909249997	 0.218258
H	-4.4104666494	-5.4017604368	-0.0946527059	 0.166395
H	-5.189042208	-4.152396338	 0.8952985966	 0.167638
H	-5.2995070681	-4.0757525661	-0.8678177578	 0.167776
18.6969	29.0203	60.6389	79.6904	112.503	157.928	211.3109	297.2271	339.629	379.9759	410.2596	427.9947	474.4455	498.4371	642.2845	777.3605	805.0652	855.2715	931.6706	1044.1152	1052.1717	1053.3541	1162.813	1190.5408	1194.2441	1238.4444	1339.9127	1408.9398	1456.6914	1467.7236	1471.4836	1473.0112	1514.943	1562.1802	1702.2136	1738.5487	2336.091	3025.2493	3034.152	3075.5673	3098.238	3104.4965	3132.0181	3492.4264	3653.2943
CNC(=N)C(=O)C#CC	CNC(=N)C(=O)C#CC	
InChI=1S/C6H8N2O/c1-3-4-5(9)6(7)8-2/h1-2H3,(H2,7,8)	InChI=1S/C6H8N2O/c1-3-4-5(9)6(7)8-2/h1-2H3,(H2,7,8)
