18
gdb 52254	5.28492	0.80919	0.76904	3.6325	73.77	-0.2469	0.0321	0.279	1473.9507	0.147878	-439.062358	-439.053948	-439.053004	-439.096746	30.818	
O	-0.2393105233	 0.6235735361	-0.8571439421	-0.324734
C	 0.0109645442	 1.397112678	 0.0434850458	 0.155115
N	 1.2171185659	 1.5263010257	 0.6559143425	-0.272333
C	 2.3967245506	 0.7784124298	 0.2586460304	-0.185161
C	 3.5217173946	 1.7288830114	-0.1145433604	 0.133228
O	 3.8309086197	 2.6736633226	 0.9595743505	-0.318269
C	 5.2216251395	 2.3458073884	 0.8560763127	 0.115386
C	 5.465708525	 0.9236719704	 1.2362165054	-0.298921
C	 4.9737445698	 1.2560308827	-0.1611709368	-0.153036
H	-0.7405374823	 2.08928311	 0.4720191818	 0.075372
H	 1.3360831847	 2.2339759124	 1.3643279524	 0.260529
H	 2.7144265984	 0.1116985697	 1.0680109808	 0.109827
H	 2.1131167037	 0.1645752497	-0.600056146	 0.15051
H	 3.2491876334	 2.2974689464	-1.0119936739	 0.096092
H	 5.9376318819	 3.1571919157	 0.9070652621	 0.109655
H	 6.5083077083	 0.6228487863	 1.2716265336	 0.120814
H	 4.8268013573	 0.4435678989	 1.9708875985	 0.118865
H	 5.5175416184	 0.9901031558	-1.0566505572	 0.107062
37.8558	64.5058	145.3047	186.3082	273.858	307.0303	410.3535	489.3183	514.9141	579.9976	704.8429	762.8001	779.2842	818.8696	877.5759	949.0043	961.9398	985.5286	1003.0261	1033.018	1041.5564	1046.8078	1057.2052	1084.3694	1096.8897	1127.9511	1198.9975	1213.47	1251.3357	1269.9757	1296.4766	1333.7119	1366.7516	1416.05	1428.8754	1472.5639	1487.8732	1528.6362	1803.7286	2939.1864	3032.2515	3046.7061	3116.6903	3124.0094	3186.4676	3208.2382	3216.7259	3632.0162
O=CNCC1OC2CC12	O=CNC[C@H]1O[C@H]2C[C@@H]12	
InChI=1S/C6H9NO2/c8-3-7-2-6-4-1-5(4)9-6/h3-6H,1-2H2,(H,7,8)	InChI=1S/C6H9NO2/c8-3-7-2-6-4-1-5(4)9-6/h3-6H,1-2H2,(H,7,8)/t4-,5+,6-/m1/s1
