18
gdb 51875	4.50032	0.8781	0.7761	1.6148	71.15	-0.2564	0.0178	0.2741	1436.1759	0.148569	-476.211506	-476.203068	-476.202124	-476.24654	30.407	
N	-0.1173550281	 1.3156033342	 0.0145726113	-0.439526
C	-0.0490604565	 0.0617368144	-0.093249831	 0.122491
O	-1.1051128933	-0.7024786682	 0.2578941236	-0.187905
C	-0.9830461428	-2.1170212492	 0.153358138	 0.084351
C	-1.0417216843	-2.740739238	 1.5532770703	-0.110033
O	-1.1171608312	-4.1534830579	 1.4465737868	-0.232071
C	-2.2241547538	-4.5463626734	 0.6771722123	 0.018483
O	-2.1603070352	-4.0696591441	-0.6418693655	-0.232421
C	-2.1557723676	-2.6515487152	-0.6764040723	-0.11189
H	 0.7540530678	 1.739577211	-0.2961217179	 0.232331
H	 0.8067862512	-0.5215983492	-0.4606154693	 0.091822
H	-0.0384639662	-2.3942385697	-0.3306503246	 0.099086
H	-0.1467122474	-2.5048302734	 2.1343448181	 0.119334
H	-1.9185580253	-2.3363419015	 2.0844333015	 0.108957
H	-2.2068983649	-5.6360183674	 0.6249668208	 0.124529
H	-3.1572477622	-4.1944149253	 1.157412364	 0.08213
H	-3.0944319704	-2.2428784318	-0.2685838397	 0.109107
H	-2.0736054898	-2.3501456453	-1.7233128562	 0.121225
14.7315	108.0852	110.6064	249.9734	272.3438	330.0014	365.7405	420.5236	462.57	495.3088	617.8611	726.5346	816.1477	914.966	916.8148	963.3359	966.3219	1024.531	1040.3503	1073.5982	1100.7338	1128.7655	1141.2952	1185.1902	1215.7265	1223.2593	1280.7261	1310.3129	1327.5934	1339.3641	1352.4806	1375.778	1411.459	1434.5232	1441.6215	1493.8949	1497.5331	1511.3161	1745.2233	2924.1834	2982.2776	2988.9558	3020.3666	3038.9088	3100.5668	3104.9668	3124.6946	3522.4009
N=COC1COCOC1	[NH][CH]OC1COCOC1	
InChI=1S/C5H9NO3/c6-3-9-5-1-7-4-8-2-5/h3,5-6H,1-2,4H2	InChI=1S/C5H9NO3/c6-3-9-5-1-7-4-8-2-5/h3,5-6H,1-2,4H2
