25
gdb 57484	2.76006	1.17625	1.04304	1.4346	88.43	-0.2376	0.077	0.3147	1328.9945	0.228437	-389.51328	-389.503103	-389.502158	-389.548181	38.95	
C	 0.0118037528	 1.5839415317	 0.1195728084	-0.414367
C	-0.0047670542	 0.0489509016	 0.0145423456	 0.242977
C	 0.7711601881	-0.5439633774	 1.2069649972	-0.40793
C	-1.4536136323	-0.4691472383	 0.0419069463	-0.415846
C	 0.6768402956	-0.4334417039	-1.2876541368	 0.167862
C	 0.0435471519	-0.0187132449	-2.6254241295	-0.255423
C	 1.2519073432	-0.0419065826	-3.5714347897	-0.234025
C	 2.3706366768	 0.4668109067	-2.6557916146	-0.059556
O	 2.0280410506	 0.0498452759	-1.3356399536	-0.286318
H	 1.0332137247	 1.963731569	 0.0352167963	 0.126493
H	-0.5967228814	 2.0586127539	-0.6570344701	 0.103694
H	-0.3927593237	 1.9020499823	 1.0862810281	 0.105786
H	 0.3222627118	-0.2312965007	 2.1559205462	 0.101311
H	 0.7609175509	-1.6395376515	 1.1772485414	 0.102494
H	 1.8137119684	-0.216692057	 1.1925954696	 0.130878
H	-2.0578038704	-0.031899231	-0.759742448	 0.109902
H	-1.4899062589	-1.559490904	-0.0645770165	 0.107475
H	-1.9326507801	-0.2145727004	 0.9932915771	 0.110407
H	 0.7119572318	-1.5359893098	-1.2457508584	 0.057742
H	-0.757206847	-0.6944558308	-2.9333059033	 0.103617
H	-0.3722061836	 0.9923620436	-2.566206109	 0.104609
H	 1.4613513163	-1.0666519879	-3.8967014741	 0.106143
H	 1.1212552737	 0.5748036646	-4.464107422	 0.10106
H	 3.3554044549	 0.0602033078	-2.9123781234	 0.10014
H	 2.4397711399	 1.5645826831	-2.6886328572	 0.090875
49.1782	93.2061	183.2312	211.87	217.4059	256.3025	271.2619	292.4496	320.3629	340.7109	383.5138	453.7124	526.2938	575.3069	658.2953	766.7282	848.9776	884.416	897.9577	934.5221	937.623	940.219	957.0763	958.6574	991.3841	1029.0213	1032.4399	1065.8378	1103.7311	1138.4894	1194.7664	1200.3475	1234.7136	1248.0796	1260.2576	1282.716	1312.0214	1336.8791	1359.8849	1386.3956	1392.8467	1395.518	1399.6695	1430.5469	1478.0111	1486.864	1488.9807	1491.702	1499.4628	1504.7406	1507.0531	1522.6237	1531.0353	2941.1381	2987.2848	3023.534	3028.2636	3035.8494	3043.6767	3056.2222	3058.896	3087.8511	3092.1718	3093.5484	3098.8648	3103.273	3114.8195	3118.5173	3122.8272
CC(C)(C)C1CCCO1	CC(C)(C)[C@H]1CCCO1	
InChI=1S/C8H16O/c1-8(2,3)7-5-4-6-9-7/h7H,4-6H2,1-3H3	InChI=1S/C8H16O/c1-8(2,3)7-5-4-6-9-7/h7H,4-6H2,1-3H3/t7-/m1/s1
