20
gdb 82479	3.28327	1.50109	1.39543	1.6608	77.62	-0.2211	0.0593	0.2804	1021.1319	0.171992	-403.099578	-403.091708	-403.090764	-403.131385	31.757	
C	 0.0164318821	 1.5035538653	 0.0156756914	-0.486198
C	 0.0232942642	-0.0039832596	 0.0132292616	 0.377703
C	 0.4898747341	-0.7438343563	-1.2622296393	-0.291871
C	-0.7088246585	-1.6864375259	-1.0758807994	-0.017806
C	-0.49457567	-2.7678604416	-0.0080635057	 0.120393
O	 0.7574678578	-3.4120291071	-0.0547710502	-0.427247
C	-0.7707735291	-1.6828351801	 1.0594673248	-0.044582
C	 0.4191822532	-0.7462763582	 1.3118519745	-0.293016
N	-1.3339161364	-0.7514929541	-0.0257688329	-0.202054
H	 1.0423926407	 1.891188798	 0.0451197038	 0.115048
H	-0.4701874362	 1.8944618837	-0.8838082937	 0.118928
H	-0.520053399	 1.891826829	 0.8875806757	 0.118207
H	 0.3738947452	-0.1197857127	-2.1525924264	 0.100011
H	 1.4863966679	-1.1910123612	-1.2626920974	 0.115369
H	-1.2962997589	-1.9547747061	-1.9557673216	 0.069369
H	-1.3194340025	-3.4931460974	-0.0316047503	 0.074236
H	 0.7732884586	-4.1040503727	 0.6138934181	 0.286575
H	-1.4129534103	-1.9481236038	 1.902618787	 0.062906
H	 1.4116640423	-1.2025825063	 1.3548869119	 0.104922
H	 0.268575565	-0.1225750528	 2.197160968	 0.099108
145.5146	191.488	212.222	252.1723	280.0434	354.6742	393.2085	456.9607	548.1195	590.6282	670.8448	713.6652	752.6906	847.5702	859.3136	893.3652	910.496	943.2507	946.3226	957.0392	998.1492	1021.5376	1037.0413	1069.3668	1096.9934	1138.4332	1168.2462	1184.1778	1207.8106	1233.136	1245.8019	1258.8674	1273.6933	1303.9995	1323.0217	1343.3541	1369.3567	1407.431	1427.3742	1469.8367	1480.964	1484.2199	1494.8969	3005.6172	3022.7756	3052.8033	3058.4555	3073.785	3087.3141	3091.0367	3102.7492	3109.0703	3116.2112	3818.7621
CC12CC3C(O)C(C1)N23	C[C@@]12C[C@H]3[C@@H](O)[C@@H](C1)N23	
InChI=1S/C7H11NO/c1-7-2-4-6(9)5(3-7)8(4)7/h4-6,9H,2-3H2,1H3	InChI=1S/C7H11NO/c1-7-2-4-6(9)5(3-7)8(4)7/h4-6,9H,2-3H2,1H3/t4-,5+,6+,7+
