15
gdb 24720	4.18273	1.57777	1.34804	4.2407	70.76	-0.2283	0.0114	0.2397	925.5058	0.1158	-416.772437	-416.766196	-416.765252	-416.803292	24.373	
C	 0.1635395653	 1.5514179754	-0.007300433	-0.085671
O	 1.5594893818	 1.4401822103	 0.3367829027	-0.272927
C	 1.489675977	-0.0040420768	 0.4250090202	-0.051944
C	-0.0384649168	 0.0206365862	 0.0452766187	-0.063275
N	 0.3365939675	-0.6993357332	-1.1838212461	 0.019794
C	 0.1837677631	-1.0019335215	-2.5153859703	-0.176607
C	 1.4809456336	-1.2413573693	-2.9376371801	-0.078211
N	 2.4182689166	-1.0243111159	-1.9411932967	-0.358164
C	 1.6702682066	-0.7039124136	-0.9135493162	 0.352136
H	-0.3900167613	 2.0902693601	 0.7699964495	 0.118415
H	-0.0032978207	 2.0225826415	-0.9813044597	 0.124156
H	 1.934232053	-0.3938526715	 1.3399444381	 0.110819
H	-0.8605180047	-0.4025416602	 0.6191029655	 0.11378
H	-0.7656090219	-1.0939698518	-3.0148468705	 0.134378
H	 1.7876669709	-1.5827329694	-3.9157199722	 0.113323
104.7134	166.6166	299.5131	440.5158	487.661	626.3905	700.253	728.9013	746.5969	764.9418	811.3504	855.223	890.0657	917.6997	958.4603	978.9128	1004.6357	1048.7097	1073.511	1128.3998	1150.7596	1160.812	1173.4329	1183.9608	1270.3101	1277.9828	1291.8203	1341.2756	1379.9197	1422.7008	1460.9309	1507.2703	1562.4044	3033.17	3088.2142	3126.6794	3138.6776	3242.6162	3284.1714
C1OC2C1N1C=CN=C21	C1O[C@H]2[C@@H]1n1ccnc21	
InChI=1S/C6H6N2O/c1-2-8-4-3-9-5(4)6(8)7-1/h1-2,4-5H,3H2	InChI=1S/C6H6N2O/c1-2-8-4-3-9-5(4)6(8)7-1/h1-2,4-5H,3H2/t4-,5+/m1/s1
