20
gdb 114636	2.19284	1.3977	1.00472	1.7876	75.62	-0.2362	0.0587	0.2949	1251.9782	0.169756	-440.217765	-440.208276	-440.207332	-440.252753	34.352	
C	 0.253325639	 1.3907733342	 0.2079484609	-0.23967
O	-0.2334087612	 0.1064053433	-0.116602555	-0.246898
C	 0.4637149414	-0.4985672675	-1.1740644608	 0.066372
C	 1.8302509738	-1.1893256383	-0.8880018008	-0.200021
N	 1.3051350947	-2.5247944486	-1.3517937434	-0.173701
C	 0.1827187102	-2.8273943407	-0.4458629726	-0.284314
C	-0.0596216499	-1.8752711774	-1.554697389	 0.277325
C	-0.9416020138	-2.1649874023	-2.7347793902	-0.169343
O	-2.2439369928	-1.6254539536	-2.562903962	-0.409947
H	 1.3013133314	 1.3625386053	 0.5431653629	 0.107696
H	 0.1839240015	 2.0784490123	-0.6490441405	 0.109858
H	-0.3648793769	 1.7764858129	 1.0217492595	 0.130165
H	 0.5164488911	 0.1798004773	-2.0377314689	 0.07676
H	 2.6473688492	-0.8608058095	-1.5330310191	 0.112139
H	 2.1601601426	-1.1870338385	 0.1559794886	 0.108107
H	-0.1988162002	-3.8367057782	-0.5714617164	 0.11984
H	 0.2163723999	-2.4698886317	 0.5801483672	 0.123958
H	-0.5415649944	-1.6893164786	-3.637090211	 0.111161
H	-0.9600615503	-3.250883375	-2.9184892383	 0.094693
H	-2.5664755554	-1.9121107754	-1.701746651	 0.285818
49.9857	84.8378	124.2328	157.0417	195.697	265.3056	288.9061	344.5371	368.5025	429.6896	491.6319	509.5686	700.7976	759.111	812.345	861.0332	895.7666	955.3201	990.611	1012.2689	1027.1	1062.2334	1086.0008	1113.4892	1126.5765	1155.5032	1182.86	1183.7368	1203.3897	1218.2797	1252.9952	1277.8868	1325.7451	1344.5023	1386.324	1409.4013	1431.2426	1482.12	1483.3467	1488.0029	1502.8146	1508.0396	1513.2316	2975.9751	2982.7914	3001.4925	3023.8147	3049.1614	3065.3148	3109.2096	3117.6242	3118.5218	3199.5922	3808.594
COC1CN2CC12CO	CO[C@H]1CN2C[C@@]12CO	
InChI=1S/C6H11NO2/c1-9-5-2-7-3-6(5,7)4-8/h5,8H,2-4H2,1H3	InChI=1S/C6H11NO2/c1-9-5-2-7-3-6(5,7)4-8/h5,8H,2-4H2,1H3/t5-,6+,7?/m0/s1
