18
gdb 37088	2.15065	2.05078	1.31649	1.4698	76.28	-0.233	0.067	0.3	1007.6237	0.14748	-401.853246	-401.845665	-401.844721	-401.885111	30.238	
C	-0.0254256382	 1.5293978052	 0.1039915201	-0.325232
C	 1.2584958811	 0.7507905747	-0.0777107697	-0.326227
C	-0.0549104539	 0.035624625	 0.0225996134	 0.336854
C	-0.4515060693	-0.9994501909	 1.0618067316	-0.182854
N	-1.9166370494	-1.2052594183	 0.9162696625	-0.348744
C	-0.9748011067	-1.9063867322	-0.0013421503	-0.172057
C	-0.6143327021	-0.8813859543	-1.0666270848	 0.423458
C	-1.1949868249	-0.6225716685	-2.3788777417	-0.2618
O	 0.1173754261	-1.205501446	-2.2329569796	-0.284602
H	-0.2179879898	 1.9894091415	 1.0674639167	 0.116765
H	-0.4071286465	 2.0912998522	-0.7424608217	 0.114825
H	 1.736192829	 0.7592007231	-1.0516403603	 0.129208
H	 1.9431390474	 0.6848653276	 0.7616843922	 0.113286
H	 0.066423262	-1.2409508839	 1.9816816223	 0.09855
H	-2.193549184	-1.8888186105	 1.6223266413	 0.2301
H	-0.94536977	-2.9848951351	-0.0868709813	 0.105777
H	-1.9600148473	-1.2874894178	-2.776655011	 0.117629
H	-1.2071276238	 0.3906863282	-2.7779421097	 0.115063
113.4954	183.29	201.1187	248.1077	316.9302	366.8869	509.7631	541.0994	598.4956	611.2216	770.9457	824.11	827.9644	833.2197	870.8908	886.9622	911.9306	935.0331	962.8483	983.4541	997.9723	1026.2845	1054.8098	1074.3942	1086.5015	1107.8168	1117.9895	1135.9787	1161.9065	1187.0934	1203.135	1288.4687	1296.1982	1337.5206	1399.8264	1458.1813	1462.9973	1504.9381	1542.6757	3084.182	3127.0573	3130.3859	3170.8516	3189.9791	3205.8753	3206.3757	3221.5268	3457.5381
C1CC11C2NC2C11CO1	C1CC21[C@H]1N[C@H]1[C@]12CO1	
InChI=1S/C7H9NO/c1-2-6(1)4-5(8-4)7(6)3-9-7/h4-5,8H,1-3H2	InChI=1S/C7H9NO/c1-2-6(1)4-5(8-4)7(6)3-9-7/h4-5,8H,1-3H2/t4-,5+,7-/m0/s1
