14
gdb 21731	3.53787	1.91357	1.31326	5.1637	59.81	-0.2359	-0.0236	0.2123	885.8372	0.109339	-411.996617	-411.98946	-411.988516	-412.027953	26.778	
N	-0.5059776111	 1.2404500886	 0.268335226	-0.518999
C	 0.2488643517	 0.0253055557	-0.0858174399	-0.281029
C	 0.9118492531	-0.5249092455	 1.1359712055	 0.318783
N	 2.1504222395	-0.9239550804	 1.1800548481	-0.154065
O	 2.3670064597	-1.3667700426	 2.4478681015	-0.165947
N	 1.2333803971	-1.2214965812	 3.2336542221	-0.179188
C	 0.330497003	-0.7113166649	 2.4357749327	 0.295085
N	-0.9746801977	-0.4482182376	 2.7736521916	-0.590943
H	 0.138632431	 2.0026509101	 0.457210818	 0.243401
H	-1.0784548743	 1.5311781853	-0.5175586086	 0.242774
H	-0.4760488494	-0.7086415559	-0.4592330932	 0.13574
H	 1.0049808165	 0.1633537686	-0.8704671341	 0.126569
H	-1.1511448377	-0.4023170116	 3.7668840788	 0.260521
H	-1.3550421115	 0.3271671413	 2.2420777116	 0.267299
108.9166	185.1719	234.5045	301.0011	340.116	391.6518	470.7595	485.6081	610.2795	648.2765	708.7841	748.0157	775.8372	880.975	907.0603	942.3766	992.1767	1040.2819	1059.7662	1172.3262	1179.6118	1284.8106	1311.4937	1420.8482	1475.0664	1495.1876	1560.238	1627.0428	1656.8896	1669.9289	3012.1003	3054.4644	3496.6612	3519.0031	3578.1526	3648.9841
NCC1=NON=C1N	NCc1nonc1N	
InChI=1S/C3H6N4O/c4-1-2-3(5)7-8-6-2/h1,4H2,(H2,5,7)	InChI=1S/C3H6N4O/c4-1-2-3(5)7-8-6-2/h1,4H2,(H2,5,7)
