22
gdb 65805	3.75395	0.7745	0.74286	4.3304	86.79	-0.2957	0.0399	0.3357	1607.1714	0.193862	-367.228585	-367.218848	-367.217903	-367.263684	36.157	
C	 0.0463688175	 1.6058305482	 0.1176505226	-0.451545
C	-0.0061495558	 0.0779574404	 0.0214324457	 0.356315
C	-1.4274757229	-0.442320656	-0.2117839748	-0.257658
C	-2.0471050693	 0.0182680026	-1.5495550616	-0.353013
C	-3.3572364855	-0.5815681858	-1.7900634264	 0.261372
N	-4.392419151	-1.0654514543	-1.9633109377	-0.30742
C	 1.1043237191	-0.4908181259	-0.9251404899	-0.253351
C	 1.9936911237	-0.7690873549	 0.3160278105	-0.213681
C	 0.7431212715	-0.5951389254	 1.2181934625	-0.265772
H	 1.0590733635	 1.9487862856	 0.3525911645	 0.119214
H	-0.2449578914	 2.0880472914	-0.8218648415	 0.11381
H	-0.61905638	 1.9732670547	 0.9074304168	 0.116623
H	-1.4170743572	-1.537779818	-0.1964714143	 0.113543
H	-2.0799806388	-0.1256758388	 0.6112196252	 0.115549
H	-2.1607442191	 1.1069725754	-1.5738332371	 0.153351
H	-1.3866272641	-0.2484777577	-2.3832050062	 0.153562
H	 0.7885174015	-1.4159544788	-1.4178163415	 0.097861
H	 1.5012020626	 0.1869022361	-1.6861398046	 0.095918
H	 2.500995737	-1.7351141937	 0.3541495741	 0.10223
H	 2.7395480167	 0.0130061673	 0.478149101	 0.10648
H	 0.8535182579	 0.0043317224	 2.125979691	 0.0973
H	 0.2949251139	-1.5549766148	 1.4915282816	 0.099311
57.5953	91.7288	107.981	142.5191	219.4815	253.6315	312.8845	348.7147	371.5489	401.5936	427.6048	522.3607	657.5532	722.6554	765.5283	793.4445	865.3362	900.2856	924.1617	945.1545	945.9085	972.6711	986.036	1006.0241	1022.6444	1069.0395	1155.8225	1168.145	1208.1537	1215.9998	1237.1651	1258.3824	1275.0009	1285.3821	1299.0507	1309.0117	1343.7458	1380.1483	1415.1708	1467.6932	1474.2049	1480.5993	1490.8368	1496.8414	1503.4718	1507.8544	2361.0746	3024.7838	3030.4476	3044.215	3046.4874	3051.3615	3066.3206	3067.6673	3089.5283	3092.0583	3095.0678	3098.3873	3099.5939	3121.6679
CC1(CCC#N)CCC1	CC1(CCC#N)CCC1	
InChI=1S/C8H13N/c1-8(4-2-5-8)6-3-7-9/h2-6H2,1H3	InChI=1S/C8H13N/c1-8(4-2-5-8)6-3-7-9/h2-6H2,1H3
