19
gdb 37347	2.97792	1.84863	1.56945	1.8635	77.38	-0.2407	0.0159	0.2566	915.572	0.163284	-385.894236	-385.887841	-385.886897	-385.924544	27.621	
C	-0.0164587947	 1.537043331	-0.0355117515	-0.232275
C	 1.4931835219	 1.8662122509	-0.0091165383	-0.063752
C	 2.0542057252	 1.5558858031	 1.3995404096	-0.261267
C	 1.4703597525	 0.2862665995	 1.9835732415	-0.04243
C	 0.5360140444	-0.437348634	 1.3629949469	-0.070657
C	 0.0257392292	-0.0089335761	-0.0024680733	-0.103885
C	 1.1446827567	-0.3097361734	-1.0092521486	 0.066104
O	 1.2120340551	 0.5762443965	-2.1333269533	-0.275565
C	 2.0499385122	 0.8414428466	-0.9949524199	 0.066986
H	-0.5547264295	 1.9507395881	 0.8201522137	 0.094175
H	-0.4736270546	 1.8963140946	-0.9576687918	 0.113865
H	 1.7144374479	 2.8989948877	-0.2936364064	 0.069412
H	 3.1503593441	 1.476813973	 1.3660574023	 0.104891
H	 1.8457727789	 2.3961152184	 2.0767406192	 0.109013
H	 1.8384941143	-0.0149261604	 2.9615389552	 0.087771
H	 0.1450045111	-1.3448886052	 1.813483086	 0.085831
H	-0.9287294691	-0.4791736659	-0.2507964581	 0.068194
H	 1.4762256382	-1.3291453697	-1.1859825141	 0.093324
H	 3.1195807564	 0.7613855555	-1.172128249	 0.090265
218.529	263.0332	340.7337	409.0516	462.7824	485.1659	514.5361	674.5878	699.914	756.0974	815.7864	834.8071	853.6652	870.5992	883.2392	910.9038	929.0994	953.2573	991.3575	1014.3874	1025.4341	1045.1097	1051.5508	1070.6382	1115.5513	1142.5931	1177.1663	1199.3854	1237.4235	1254.1841	1280.6763	1314.0256	1318.5983	1330.1139	1343.286	1373.0751	1402.9712	1431.3958	1471.5763	1491.1847	1702.3092	3002.6404	3025.3678	3064.3862	3076.2943	3084.9553	3134.8647	3143.0063	3147.8877	3158.5951	3175.5632
C1C2CC=CC1C1OC21	C1[C@H]2CC=C[C@@H]1[C@H]1O[C@@H]21	
InChI=1S/C8H10O/c1-2-5-4-6(3-1)8-7(5)9-8/h1-2,5-8H,3-4H2	InChI=1S/C8H10O/c1-2-5-4-6(3-1)8-7(5)9-8/h1-2,5-8H,3-4H2/t5-,6+,7+,8-/m0/s1
