19
gdb 86512	3.84029	0.93437	0.8368	2.6829	83.6	-0.2602	-0.0551	0.2052	1421.5443	0.157037	-385.863797	-385.854333	-385.853389	-385.898933	34.54	
C	-0.7738354568	 1.0586330198	 0.0597137515	-0.411269
C	 0.2721426673	-0.0339142447	 0.2091060331	 0.068636
C	 1.3008336979	-0.2485738315	-0.9387793597	-0.254485
C	 2.4216558687	-0.4154760811	 0.1164998	-0.111424
C	 1.4565735863	 0.2075642353	 1.1876338466	-0.243765
C	 2.7605229942	-1.8537127303	 0.441235722	 0.226546
O	 2.199095131	-2.8112738069	-0.0482460177	-0.296163
C	 3.8114854223	-2.0236886218	 1.4357066959	 0.257666
C	 4.6857602322	-2.1458884828	 2.2543607991	-0.40493
H	-0.3064949445	 2.020874754	-0.1807877361	 0.1095
H	-1.4814812497	 0.822458	-0.7427397355	 0.118567
H	-1.3497564719	 1.1892913901	 0.9828313863	 0.115427
H	-0.2121316371	-0.9867604436	 0.4453281605	 0.089097
H	 1.1396631724	-1.1025712221	-1.5978472622	 0.121797
H	 1.4455329567	 0.6561005326	-1.5363197588	 0.093614
H	 3.3526982892	 0.1370914825	-0.0371992895	 0.093295
H	 1.6661451256	 1.2716832793	 1.3291595556	 0.105213
H	 1.4200223802	-0.2737736467	 2.1682782144	 0.109582
H	 5.455703326	-2.273459422	 2.9760890843	 0.213096
39.0703	64.0529	129.6191	189.4949	234.2409	239.492	267.0316	336.0665	409.1803	461.3668	584.1089	641.5573	651.5171	701.4264	721.6312	761.1625	812.026	868.4189	902.7326	940.3832	949.6234	974.9064	1041.3957	1095.8459	1124.7938	1140.7058	1142.1204	1200.3067	1233.1257	1256.3413	1277.42	1294.7497	1353.4551	1378.4467	1411.3394	1468.0377	1491.2527	1495.2785	1497.4312	1760.0093	2209.0332	3021.5808	3051.1255	3054.4298	3061.5903	3073.2954	3089.4978	3092.4598	3110.4993	3132.2208	3494.2621
CC1CC(C1)C(=O)C#C	C[C@H]1C[C@@H](C1)C(=O)C#C	
InChI=1S/C8H10O/c1-3-8(9)7-4-6(2)5-7/h1,6-7H,4-5H2,2H3	InChI=1S/C8H10O/c1-3-8(9)7-4-6(2)5-7/h1,6-7H,4-5H2,2H3/t6-,7-
