15
gdb 35501	3.20158	1.48413	1.24645	4.873	68.49	-0.2654	-0.0029	0.2625	990.2092	0.115032	-416.820879	-416.81387	-416.812926	-416.853052	26.249	
N	-0.7162174563	-1.0108281011	-0.7179370168	-0.325722
C	-0.4139645142	 0.0596585858	-0.4038788737	 0.299178
C	-0.0658118166	 1.4049090754	 0.0193277154	-0.175964
C	-0.059951645	 1.6932186346	 1.564815865	-0.26507
C	 1.3648236076	 2.2791079213	 1.448526813	 0.080131
O	 2.381145129	 1.4930289545	 2.1038137004	-0.222583
C	 2.8444913247	 0.6512541235	 1.1430429264	 0.117209
N	 2.4102421994	 0.7366826774	-0.0466363038	-0.244678
C	 1.4428378367	 1.8342128334	-0.0437617618	-0.021466
H	-0.695762132	 2.1168272073	-0.5208355422	 0.129338
H	-0.835000861	 2.3839899419	 1.8995664011	 0.127579
H	-0.0919363513	 0.7934390176	 2.1802719299	 0.141939
H	 1.5034735551	 3.3231296941	 1.7267624261	 0.104164
H	 3.5905804085	-0.0549681767	 1.4887889266	 0.155628
H	 1.6778812056	 2.5601341609	-0.8244331157	 0.100317
50.8943	143.7089	218.3167	312.9068	385.4113	496.9219	541.0508	577.2431	692.2405	732.693	795.3364	856.0751	873.212	909.419	926.3341	975.6613	1009.1903	1031.0565	1069.1739	1085.3879	1106.2951	1131.1278	1202.3998	1243.9575	1254.2366	1278.5236	1301.6351	1320.1393	1339.5604	1365.6139	1470.132	1684.1806	2359.4704	3074.8456	3087.4783	3092.1544	3122.7963	3150.6716	3225.7023
N#CC1CC2OC=NC12	N#C[C@H]1C[C@H]2OC=N[C@@H]12	
InChI=1S/C6H6N2O/c7-2-4-1-5-6(4)8-3-9-5/h3-6H,1H2	InChI=1S/C6H6N2O/c7-2-4-1-5-6(4)8-3-9-5/h3-6H,1H2/t4-,5-,6+/m1/s1
