19
gdb 119128	2.51941	1.24419	0.92488	5.1682	73.38	-0.2361	0.0277	0.2638	1294.0103	0.158744	-456.336107	-456.326489	-456.325545	-456.370964	34.962	
C	 0.2286163039	 1.3690596104	 0.1555048412	-0.232156
O	 0.3634876906	-0.0368759114	 0.1672221385	-0.240412
C	 0.3975184404	-0.5989373457	-1.139026527	-0.182041
C	 0.5317935941	-2.0997762681	-1.0459934132	 0.212654
C	 1.4054387417	-2.7826074584	-2.0349627782	-0.270219
N	 1.8427972383	-2.6652976612	-0.6410848969	-0.329601
C	-0.6402183154	-2.9100706831	-0.5006236706	 0.365028
N	-1.4430432389	-2.2299660879	 0.3671893757	-0.541622
O	-0.8371582963	-4.0618132113	-0.8335414245	-0.360979
H	 1.0724290462	 1.8474289837	-0.3638813334	 0.114219
H	-0.7037617898	 1.6846794276	-0.3364405529	 0.114457
H	 0.2160719052	 1.7039727217	 1.1949081349	 0.13562
H	-0.5175527201	-0.3266351802	-1.6891208862	 0.109133
H	 1.254752756	-0.1855485567	-1.6949102843	 0.092165
H	 1.124095934	-3.7862534329	-2.3332466563	 0.151727
H	 1.8866199829	-2.1731061647	-2.795672823	 0.106745
H	 2.5103688989	-1.903130651	-0.5374715089	 0.232667
H	-1.1057773628	-1.3718778264	 0.7787319226	 0.267315
H	-2.1456406086	-2.7673828444	 0.8500593323	 0.255301
58.8912	89.014	119.6325	178.8167	234.7811	244.0395	290.8175	337.5053	363.9373	397.5606	458.855	500.8047	614.9145	640.5699	720.1185	772.0518	848.7756	909.5053	934.4789	971.0467	985.8042	1039.15	1087.8667	1131.942	1139.317	1155.6346	1183.8652	1221.2812	1246.7576	1264.6343	1296.0051	1338.8086	1406.9823	1429.8508	1479.2947	1485.9527	1493.5232	1498.2152	1516.1811	1620.0516	1801.4576	2963.6944	2983.4206	3001.2225	3032.1344	3115.1831	3123.4516	3220.3203	3481.1248	3554.0015	3697.2077
COCC1(CN1)C(N)=O	COC[C@]1(CN1)C(=O)N	
InChI=1S/C5H10N2O2/c1-9-3-5(2-7-5)4(6)8/h7H,2-3H2,1H3,(H2,6,8)	InChI=1S/C5H10N2O2/c1-9-3-5(2-7-5)4(6)8/h7H,2-3H2,1H3,(H2,6,8)/t5-/m1/s1
