23
gdb 87784	3.84861	0.97072	0.90848	0.1292	91.4	-0.2489	0.0873	0.3362	1421.6541	0.205198	-351.121204	-351.11206	-351.111116	-351.15573	35.831	
C	 0.1894522079	 1.4948688541	-0.3852942998	-0.403866
C	 0.1664889079	 0.0010475903	-0.1517609198	-0.049574
C	 1.4563831886	-0.7694353744	 0.0276861212	-0.352062
C	 0.5193852997	-0.5828115612	 1.1877886636	 0.375358
C	 0.8073800986	 0.1804306068	 2.4945818362	-0.383488
C	 0.0706789773	-0.9416390863	 3.2481055405	 0.387809
C	 0.4675253186	-1.549592197	 4.5602565491	-0.317568
C	-0.8333563531	-0.7874104365	 4.4345181434	-0.319395
C	-0.2366724445	-1.6926123338	 1.9403044836	-0.384423
H	 0.9979772006	 1.9709042908	 0.1791436647	 0.115825
H	 0.3448876881	 1.7280138683	-1.444578482	 0.115272
H	-0.7511778256	 1.9649493621	-0.0757015465	 0.113982
H	-0.6202318288	-0.5257924011	-0.6888669199	 0.077855
H	 1.5388567434	-1.7585243038	-0.4130025759	 0.105
H	 2.385030644	-0.2047110122	 0.0305410761	 0.104088
H	 1.8679640918	 0.28742907	 2.7460845799	 0.095409
H	 0.3335779847	 1.1657150199	 2.5665402614	 0.096295
H	 0.4199712373	-2.6298183952	 4.6588042835	 0.108499
H	 1.2792720148	-1.0869826701	 5.1134301003	 0.108401
H	-0.9006250925	 0.1896551847	 4.9033952442	 0.10817
H	-1.7604271207	-1.3525105039	 4.4486307811	 0.108302
H	-1.3017497687	-1.7697691073	 1.6944860148	 0.094378
H	 0.2105180506	-2.6898046043	 1.8645706904	 0.095731
20.5007	152.3335	180.797	198.7027	267.6913	291.0392	329.9348	389.5392	412.4174	417.3048	479.1736	657.1351	771.1409	774.4601	832.3872	849.4246	859.5739	869.8819	904.867	910.298	918.2145	971.004	990.5291	1020.6863	1045.2665	1050.7808	1074.0967	1094.4419	1102.7832	1126.2338	1130.1848	1182.9515	1187.3751	1203.8276	1210.0688	1230.2488	1240.4088	1265.0047	1334.5886	1376.7206	1410.8226	1429.7459	1464.2603	1476.0546	1488.7359	1492.5948	1493.3976	1502.9536	1509.3972	3024.3924	3025.8403	3030.8699	3072.2685	3073.6091	3084.4589	3094.3826	3111.6908	3117.2053	3121.4347	3123.2475	3194.5586	3195.7089	3210.0066
CC1CC11CC2(CC2)C1	C[C@H]1CC21CC1(CC1)C2	
InChI=1S/C9H14/c1-7-4-9(7)5-8(6-9)2-3-8/h7H,2-6H2,1H3	InChI=1S/C9H14/c1-7-4-9(7)5-8(6-9)2-3-8/h7H,2-6H2,1H3/t7-/m0/s1
