22
gdb 113894	4.02145	0.70636	0.64734	2.0714	83.88	-0.2375	-0.0083	0.2292	1814.473	0.191727	-404.352356	-404.341648	-404.340704	-404.389924	37.699	
C	-0.0464772383	 1.5086567273	-0.4089364358	-0.37609
C	-0.0611377512	 0.1875317006	 0.3683124578	-0.18115
C	-1.3902447187	-0.5257278577	 0.2483131274	-0.010729
N	-1.6297917975	-1.2972280715	-0.9854617069	-0.342169
C	-1.5773648415	-1.9994699035	 0.3100626166	-0.010199
C	-0.4542758285	-2.9914967229	 0.4956231214	-0.321483
C	-0.8832961249	-4.4333415237	 0.2229682092	 0.389949
C	 0.2407974781	-5.4383546597	 0.0501915881	-0.475496
O	-2.046865909	-4.7573748724	 0.1617592109	-0.295356
H	 0.9200198102	 2.0135445097	-0.3179704767	 0.109918
H	-0.2389264501	 1.3289446891	-1.4711514627	 0.129801
H	-0.8168649112	 2.1950209779	-0.039569987	 0.110229
H	 0.7382031639	-0.4617189743	-0.0023780881	 0.09895
H	 0.1483473067	 0.3754009353	 1.4297266928	 0.093595
H	-2.2308098488	 0.059446236	 0.6247696584	 0.077294
H	-2.5917280254	-1.1980835871	-1.2968485178	 0.232107
H	-2.5222378286	-2.350318169	 0.7167082188	 0.100938
H	 0.3979746012	-2.7423212897	-0.1439249065	 0.124816
H	-0.0771898563	-2.9679308953	 1.5297476355	 0.123796
H	 0.9840106103	-5.3386069596	 0.8486301852	 0.133048
H	-0.1616199861	-6.451945337	 0.0351999523	 0.141732
H	 0.7617660656	-5.2421214825	-0.8945421429	 0.146498
31.1926	48.5559	81.7562	102.6133	126.286	191.2386	223.175	264.2329	325.7126	414.7759	446.0482	477.4882	526.6862	594.9205	753.6793	805.1638	813.6051	829.0438	873.4789	913.1813	948.961	961.5314	1003.5593	1024.9115	1060.0225	1074.7778	1112.0168	1155.6185	1172.1408	1196.814	1243.2148	1264.9857	1279.7741	1304.3658	1328.5379	1346.2136	1381.8474	1405.4134	1424.1999	1435.3589	1463.3204	1476.3516	1476.9433	1488.2522	1498.4372	1508.6837	1813.7482	3004.8261	3023.927	3032.5899	3035.3718	3071.2697	3084.285	3091.2667	3096.8571	3103.6296	3112.3066	3147.5477	3151.5267	3510.273
CCC1NC1CC(C)=O	CC[C@H]1N[C@H]1CC(=O)C	
InChI=1S/C7H13NO/c1-3-6-7(8-6)4-5(2)9/h6-8H,3-4H2,1-2H3	InChI=1S/C7H13NO/c1-3-6-7(8-6)4-5(2)9/h6-8H,3-4H2,1-2H3/t6-,7+/m1/s1
