15
gdb 86859	3.01834	1.25268	1.03811	2.7072	66.81	-0.2878	-0.007	0.2809	1129.652	0.113285	-453.968406	-453.960385	-453.95944	-454.001432	29.535	
O	 0.4185203012	 0.7896052584	 0.7419520347	-0.43411
C	-0.1500651487	-0.2358509056	-0.0196563143	 0.063984
C	-1.6068637976	 0.0233587006	-0.4207836056	-0.270013
C	-1.7181950132	-0.8035221227	-1.7202840667	-0.06205
O	-0.4005259822	-0.7793392137	-2.3098251399	-0.227147
C	 0.5164220867	-0.3911772905	-1.3736243797	 0.405609
N	 1.7325998716	-0.144136576	-1.5757137354	-0.555817
C	-2.1295384155	-2.196365807	-1.480665775	 0.289951
N	-2.469860845	-3.2824373034	-1.2838002643	-0.307644
H	 1.3305213156	 0.8788576548	 0.4276004948	 0.30215
H	-0.0819055687	-1.2047694082	 0.5040725568	 0.117499
H	-2.3394604947	-0.271669324	 0.3298685946	 0.145683
H	-1.7300635894	 1.0850507667	-0.6496665515	 0.139512
H	-2.4048598695	-0.3608220851	-2.4456099072	 0.151553
H	 2.0094149093	-0.2686295044	-2.5489474412	 0.240839
78.9274	93.0228	192.3006	266.2562	278.439	371.5898	394.9994	451.3869	476.0179	575.7035	607.6607	689.5276	763.072	814.3329	836.6665	882.7977	958.422	991.6889	1031.9016	1059.5524	1078.6487	1154.7601	1187.0801	1246.6693	1269.513	1283.1509	1328.9928	1367.614	1395.8267	1430.8948	1489.348	1797.8622	2362.5558	2962.2921	3080.7136	3093.9985	3150.5926	3503.1378	3728.3576
OC1CC(OC1=N)C#N	O[C@H]1C[C@@H](O[C]1[NH])C#N	
InChI=1S/C5H6N2O2/c6-2-3-1-4(8)5(7)9-3/h3-4,7-8H,1H2	InChI=1S/C5H6N2O2/c6-2-3-1-4(8)5(7)9-3/h3-4,7-8H,1H2/t3-,4+/m1/s1
