16
gdb 73924	2.71109	1.44417	1.01459	4.7766	75.62	-0.2205	-0.0422	0.1783	1128.1134	0.124531	-437.891986	-437.884082	-437.883138	-437.924359	30.114	
N	 0.1127269869	 1.360073635	 0.1655946865	-0.604191
C	 0.0033962861	 0.0060318501	 0.0571331847	 0.28643
C	-1.106889522	-0.7916419746	 0.0168639549	 0.132954
C	-0.7288424259	-2.2624869265	 0.0518168537	-0.334391
C	 0.7897532314	-2.2392507082	-0.0014914457	 0.035932
O	 1.3307307149	-1.6236435123	-1.1743521768	-0.24625
C	 1.2402068539	-0.8364548222	 0.0263723974	-0.05654
C	-2.4739947821	-0.3483199584	-0.0815917701	 0.062096
O	-3.4438257713	-1.0840578323	-0.1270538504	-0.301907
H	 0.9549706913	 1.7913138797	-0.180587911	 0.266866
H	-0.7174090126	 1.9229682264	 0.067263066	 0.267962
H	-1.0772176013	-2.7514504749	 0.9696048117	 0.120158
H	-1.1585847823	-2.820919015	-0.7863832219	 0.136554
H	 1.3859321974	-3.0476597488	 0.4118635465	 0.104967
H	 2.1810934362	-0.4852882804	 0.4420906394	 0.104105
H	-2.6161544806	 0.7599620224	-0.1169443953	 0.025253
108.746	178.6392	185.9293	241.4393	324.7981	368.1628	382.5773	428.6489	495.3077	554.7027	606.8517	688.0822	729.7047	797.825	852.1811	856.6929	921.9319	949.5134	999.4368	1026.5035	1036.6893	1103.8981	1179.6745	1188.3662	1237.198	1260.147	1294.3953	1316.0051	1402.7255	1418.3435	1469.0236	1471.1702	1628.6918	1683.8264	1754.789	2809.5243	3039.4248	3079.7947	3148.855	3162.2412	3585.8017	3694.6364
NC1=C(CC2OC12)C=O	NC1=C(C[C@H]2O[C@@H]12)C=O	
InChI=1S/C6H7NO2/c7-5-3(2-8)1-4-6(5)9-4/h2,4,6H,1,7H2	InChI=1S/C6H7NO2/c7-5-3(2-8)1-4-6(5)9-4/h2,4,6H,1,7H2/t4-,6-/m1/s1
