20
gdb 102142	2.50323	1.03298	0.9099	3.4254	80.84	-0.2453	0.0254	0.2706	1378.9737	0.168268	-403.158014	-403.147111	-403.146167	-403.194712	38.733	
C	-1.5384509394	-0.8662565325	-0.1012306527	-0.382284
C	-0.1521361736	-0.2134735154	-0.0726967392	-0.188013
C	 0.6787157313	-0.4872343689	 1.207400784	-0.10203
C	-0.0251329858	-0.0359220435	 2.5081724975	-0.364413
C	-0.4010256794	 1.3716088312	 2.5015648336	 0.298201
C	-0.699275134	 2.536464276	 2.4832571716	-0.44729
C	 1.0048605311	-1.979598041	 1.3133600496	 0.419802
N	 2.1482962328	-2.3662461523	 0.6764546057	-0.530326
O	 0.2909805108	-2.7727093565	 1.9003962708	-0.370689
H	-2.1955400321	-0.4370370185	 0.660844914	 0.127
H	-2.0134148128	-0.7006760891	-1.0729937441	 0.109347
H	-1.4818632022	-1.9437897358	 0.0746222317	 0.139433
H	 0.4320337985	-0.5541633338	-0.9364164358	 0.090006
H	-0.2551668418	 0.8718751564	-0.1745032088	 0.117035
H	 1.6164632792	 0.0740116433	 1.1136310538	 0.079971
H	-0.9015480765	-0.6704090017	 2.6706688022	 0.15853
H	 0.6404100807	-0.2317670247	 3.3573875947	 0.133565
H	-0.9728279451	 3.5622948268	 2.4834097315	 0.192477
H	 2.7232897274	-1.7233461131	 0.1616709339	 0.259365
H	 2.3675408407	-3.348529277	 0.6432671462	 0.260312
47.7106	54.4485	106.0244	133.0573	151.8845	185.3102	245.057	253.2874	306.3742	354.9365	378.5044	433.2961	560.9509	588.6495	616.1867	626.2109	639.2713	748.1077	761.9822	821.375	887.8829	943.4544	962.9767	1002.7667	1067.2479	1089.3335	1109.4148	1146.6493	1213.7469	1250.6055	1303.146	1322.3781	1332.7668	1385.0728	1412.4235	1421.5731	1470.3238	1486.3762	1498.8314	1512.1529	1616.6776	1783.9636	2235.4925	3023.641	3035.7856	3040.966	3045.1932	3074.2773	3089.2496	3110.0324	3125.1119	3506.8015	3602.0018	3740.1556
CCC(CC#C)C(N)=O	CC[C@@H](CC#C)C(=O)N	
InChI=1S/C7H11NO/c1-3-5-6(4-2)7(8)9/h1,6H,4-5H2,2H3,(H2,8,9)	InChI=1S/C7H11NO/c1-3-5-6(4-2)7(8)9/h1,6H,4-5H2,2H3,(H2,8,9)/t6-/m0/s1
