21
gdb 53190	2.88517	1.07155	0.99463	0.2159	91.29	-0.2238	0.0557	0.2795	1347.3495	0.183688	-349.939739	-349.930604	-349.929659	-349.97541	33.645	
C	-0.0630254596	 1.5558806623	 0.0398034583	-0.50024
C	-0.075016476	 0.0997761592	 0.0533143795	 0.064507
C	-0.0876371714	-1.1061819463	 0.0670602023	 0.093163
C	-0.0469761638	-2.5405969781	 0.0438298389	-0.217625
C	-0.4130300505	-3.4337791142	 1.2262874872	-0.049092
C	-1.2099206338	-2.8418583428	 2.3786025023	-0.217184
C	-2.4473881993	-2.1671006932	 1.732477695	-0.220022
C	-2.6360860618	-2.8488214893	 0.3526869586	-0.217102
C	-1.2806218258	-3.4381945081	-0.0060445459	-0.049117
H	 0.9614062232	 1.9453153851	 0.0310212469	 0.145984
H	-0.5748182028	 1.9553407516	-0.8433200645	 0.144645
H	-0.5623344163	 1.9677406781	 0.9241985187	 0.145128
H	 0.783513905	-2.9324288735	-0.5393754756	 0.10414
H	 0.2683708239	-4.2507209255	 1.4390160213	 0.081613
H	-1.5138057702	-3.6583219991	 3.0441394703	 0.096467
H	-0.6284788165	-2.1355510161	 2.9803992205	 0.102963
H	-3.3380366456	-2.2621300398	 2.3598175791	 0.090278
H	-2.2595958522	-1.1014652503	 1.5962303496	 0.120439
H	-3.3627166146	-3.6671447738	 0.4178179304	 0.09644
H	-3.008467701	-2.1468816762	-0.4007910756	 0.103004
H	-1.2484320109	-4.25844855	-0.7153415672	 0.081611
15.3435	87.9794	89.3902	190.286	213.7201	245.7533	352.0777	383.8335	503.0177	526.6451	633.1237	694.6105	747.9125	750.486	804.0124	864.2493	886.2423	887.9846	957.485	971.8517	999.3246	1028.249	1053.2517	1053.8297	1083.2374	1086.4947	1109.0018	1133.3656	1184.2656	1218.5026	1237.3052	1258.7678	1314.515	1319.5715	1328.9873	1363.3128	1368.9889	1413.6305	1424.3182	1478.1777	1480.3893	1486.075	1488.7398	1508.996	2360.4964	3022.284	3033.8334	3034.4457	3069.163	3071.6511	3073.568	3080.1228	3082.2311	3123.373	3125.2297	3157.0948	3168.9562
CC#CC1C2CCCC12	CC#C[C@H]1[C@H]2CCC[C@@H]12	
InChI=1S/C9H12/c1-2-4-7-8-5-3-6-9(7)8/h7-9H,3,5-6H2,1H3	InChI=1S/C9H12/c1-2-4-7-8-5-3-6-9(7)8/h7-9H,3,5-6H2,1H3/t7-,8+,9-
