19
gdb 37313	3.14819	1.62152	1.31352	1.7793	79.31	-0.2365	0.0255	0.262	1008.9155	0.161794	-385.863559	-385.856596	-385.855652	-385.894791	28.621	
C	 0.022707571	 1.4920597321	 0.1367198654	-0.259593
C	 1.4543256772	 2.0350716538	-0.0366968678	-0.218251
C	 2.0880651782	 1.5498766661	-1.3421479273	-0.046343
C	 3.5822550352	 1.1670419766	-1.2939612177	 0.007116
O	 3.7243795476	 0.1582680975	-0.2872814954	-0.237303
C	 3.2952718782	-0.2449400352	-1.5907829423	 0.008955
C	 1.7850540223	 0.0460787987	-1.7200625995	-0.080728
C	 0.7925111783	-0.6670876864	-0.8617083735	-0.057234
C	-0.0274206419	-0.0067136269	-0.0436183407	-0.056099
H	-0.3522311128	 1.759112149	 1.1311393461	 0.101212
H	-0.6591189151	 1.9789949062	-0.5765823572	 0.105113
H	 1.4575740744	 3.1294836977	 0.0146390744	 0.087481
H	 2.0569741668	 1.6617469748	 0.7965973815	 0.120398
H	 1.8584860062	 2.2146659533	-2.1794082487	 0.070419
H	 4.4546413437	 1.7731843046	-1.5110181617	 0.101054
H	 3.8881065471	-1.0006567342	-2.0941994427	 0.099647
H	 1.5023139558	-0.0230844063	-2.7783099526	 0.085127
H	 0.7335107996	-1.7500749337	-0.9473851395	 0.083634
H	-0.7681467919	-0.5545766975	 0.5335474193	 0.085395
135.6528	147.4535	274.3977	360.4879	431.4199	454.3262	527.6218	610.0955	688.5351	728.9525	752.5669	791.1093	840.979	861.7222	875.9685	919.4502	927.2067	985.5216	994.7311	998.3986	1018.4879	1041.0848	1061.3861	1075.8834	1110.5511	1139.751	1204.3013	1223.0723	1234.7671	1240.2834	1263.6039	1270.6543	1316.6316	1340.374	1358.4987	1375.6461	1394.9984	1420.3164	1480.4894	1490.1853	1712.6582	2996.4705	3021.7954	3038.0747	3056.3768	3068.3648	3094.8868	3139.6147	3164.5887	3171.6961	3187.337
C1CC2C3OC3C2C=C1	C1C[C@H]2[C@H]3O[C@H]3[C@H]2C=C1	
InChI=1S/C8H10O/c1-2-4-6-5(3-1)7-8(6)9-7/h1,3,5-8H,2,4H2	InChI=1S/C8H10O/c1-2-4-6-5(3-1)7-8(6)9-7/h1,3,5-8H,2,4H2/t5-,6+,7-,8+/m0/s1
