15
gdb 5145	6.02522	1.29691	1.07417	1.8735	71.97	-0.2042	0.0461	0.2503	1045.6809	0.119472	-325.527559	-325.520091	-325.519147	-325.559861	28.032	
C	-0.3129541973	-0.939666723	 0.9296495761	-0.456761
C	-0.0900545787	 0.0124529459	 0.2307385751	 0.318079
C	 0.1834280418	 1.1693709603	-0.616580888	-0.480138
C	 1.493146626	 1.858612639	-0.3188587702	 0.27468
C	 2.4154994822	 1.5096599825	 0.6397784475	-0.15738
N	 3.4567722285	 2.4009152751	 0.5682315655	-0.245578
C	 3.2168187789	 3.3174034827	-0.4225835735	-0.073705
C	 2.0050335509	 3.0077150198	-0.9923656163	-0.243529
H	-0.5194182489	-1.782210115	 1.5415808923	 0.192252
H	 0.1615495385	 0.8496604855	-1.6680798021	 0.138498
H	-0.645178894	 1.8845704475	-0.5152970672	 0.138497
H	 2.40593314	 0.7049755209	 1.355898993	 0.129182
H	 4.2715907875	 2.3824713963	 1.1551110749	 0.260458
H	 3.9213696417	 4.1048739443	-0.6368027911	 0.117553
H	 1.5320682128	 3.5418868782	-1.8029935361	 0.087891
38.0674	124.5638	240.2597	311.6802	328.6839	458.5511	466.9809	604.995	634.919	636.9146	639.7211	691.8359	717.2779	772.4673	822.5289	905.9612	950.8262	956.9642	983.5248	1081.6556	1093.3568	1163.1005	1222.8842	1231.9205	1288.8567	1339.9644	1418.7399	1464.7706	1471.4835	1522.0487	1614.95	2239.5887	3001.6633	3020.3311	3239.4363	3267.9945	3276.0528	3507.1596	3689.6134
C#CCC1=CNC=C1	C#CCc1c[nH]cc1	
InChI=1S/C7H7N/c1-2-3-7-4-5-8-6-7/h1,4-6,8H,3H2	InChI=1S/C7H7N/c1-2-3-7-4-5-8-6-7/h1,4-6,8H,3H2
