18
gdb 38006	3.07142	2.22625	1.93254	1.8733	79.73	-0.2141	-0.0175	0.1966	806.5539	0.151346	-364.70746	-364.701728	-364.700784	-364.737072	25.434	
C	-0.0633711821	 1.5272599054	-0.1519546768	-0.234655
C	 1.4990937098	 1.5661822568	-0.0269698491	-0.046703
C	 1.9595717639	 1.3655334828	-1.4565179209	-0.149242
C	 2.0281081074	 0.0528252168	-1.7056950165	 0.099781
C	 0.9648121399	-0.7673776151	-2.4384845518	-0.295271
C	 0.4929195041	-1.100756558	-0.9691835109	-0.059777
C	 0.0406545186	 0.0023618158	 0.0920497288	 0.011516
N	 1.4553094358	 0.1797500176	 0.6168648468	-0.142796
C	 1.9169272854	-0.7628453303	-0.4336693597	-0.019272
H	-0.5645945023	 2.0125791089	 0.6912021449	 0.110718
H	-0.4985956879	 1.8931114119	-1.0849637589	 0.102389
H	 1.9478098679	 2.3557219348	 0.5803450212	 0.07651
H	 1.7253029366	 2.1203287997	-2.2017016487	 0.096683
H	 0.3065544891	-0.2179002786	-3.1147383242	 0.108528
H	 1.2988107774	-1.6937299064	-2.9196524315	 0.110707
H	 0.0109870071	-2.0713510707	-0.8273223218	 0.076355
H	-0.6800655388	-0.4176675324	 0.7982918832	 0.081952
H	 2.6765978683	-1.506662029	-0.1843276941	 0.072577
240.227	345.5014	423.4942	472.1224	610.0287	645.0319	670.6401	685.0569	792.5471	806.5476	836.8197	861.129	882.3845	898.6874	923.8685	929.7064	943.3579	958.7721	987.6452	1024.8635	1035.4933	1057.7326	1077.125	1097.2863	1120.7719	1138.5433	1189.4818	1207.2472	1212.2203	1240.8247	1254.1307	1256.3686	1281.9718	1298.6538	1306.1681	1343.7062	1473.2723	1484.7233	1647.6753	3036.4429	3048.8136	3061.3843	3074.0029	3076.8461	3086.9165	3108.6375	3110.2353	3168.2028
C1C2C=C3CC4C1N2C34	C1[C@@H]2[CH][C]3C[C@@H]4[C@H]1N2[C@H]34	
InChI=1S/C8H9N/c1-4-2-6-7-3-5(1)9(7)8(4)6/h1,5-8H,2-3H2	InChI=1S/C8H9N/c1-4-2-6-7-3-5(1)9(7)8(4)6/h1,5-8H,2-3H2/t5-,6+,7-,8+/m0/s1
