14
gdb 26561	2.42255	1.89406	1.06415	4.1564	69.97	-0.2032	-0.0306	0.1727	1032.4559	0.102191	-473.876082	-473.868507	-473.867562	-473.907869	29.223	
N	 0.0896566492	 1.3923685724	 0.1702346781	-0.570831
C	-0.0162306832	 0.0238313779	 0.0611580887	 0.323551
C	-1.1772573619	-0.6801642225	 0.0328038371	 0.135959
O	-2.3815900504	-0.053103816	 0.0338275298	-0.459261
C	-1.1925509611	-2.124521802	-0.0095210995	 0.315079
O	-2.2750760556	-2.7212853107	-0.0447758175	-0.432951
C	 0.1307689873	-2.730624719	-0.0203193324	-0.272386
C	 1.2273093273	-1.953836387	 0.0001605939	 0.056074
O	 1.1866013724	-0.6015439039	 0.0434997474	-0.211926
H	 0.894879244	 1.7909187716	-0.2928366739	 0.262399
H	-0.7741222199	 1.869979615	-0.0462188308	 0.278868
H	-3.0132459954	-0.7980353732	-0.00481309	 0.302959
H	 0.2264014096	-3.8083720895	-0.0536196614	 0.12685
H	 2.2498986179	-2.3067349031	-0.0136725794	 0.145615
134.7568	202.8366	263.7668	273.1968	315.4033	340.3573	498.5991	509.5454	522.7713	565.4811	576.6225	607.4064	674.3584	710.7497	744.7161	835.3201	858.6087	936.2677	983.0442	1058.5363	1147.1739	1244.5676	1289.6118	1311.501	1388.7681	1425.2983	1480.5287	1617.7396	1630.3228	1702.7282	1740.9834	3215.5687	3236.1128	3557.4829	3589.2458	3666.787
NC1=C(O)C(=O)C=CO1	Nc1c(O)c(=O)cco1	
InChI=1S/C5H5NO3/c6-5-4(8)3(7)1-2-9-5/h1-2,8H,6H2	InChI=1S/C5H5NO3/c6-5-4(8)3(7)1-2-9-5/h1-2,8H,6H2
