22
gdb 55689	2.86567	1.11173	0.97983	3.3321	82.27	-0.2395	0.0308	0.2703	1317.4253	0.193519	-404.382099	-404.372031	-404.371087	-404.417488	37.428	
C	-0.7501800812	 1.6139595113	-0.7984977436	-0.470086
C	-0.1013114177	 0.3577764063	-0.2245305522	 0.363387
C	-1.1564203729	-0.7242368768	 0.0975389189	-0.351266
C	-2.1450832906	-0.296023061	 1.1778398526	 0.392122
N	-3.4157917017	-0.0424403745	 0.7428139442	-0.508404
O	-1.8328200075	-0.1857303968	 2.3495748091	-0.360324
C	 1.0698517504	-0.2532787402	-1.060849929	-0.263116
C	 1.9016032952	-0.3992431741	 0.2410456347	-0.213054
C	 0.9137899811	 0.5662420035	 0.9480736771	-0.254505
H	 0.0088515274	 2.3617158582	-1.049532006	 0.112657
H	-1.3096040616	 1.3901317962	-1.7161469673	 0.100156
H	-1.4449985873	 2.0727474169	-0.0863707645	 0.123043
H	-1.6793090055	-1.0021737252	-0.8262325929	 0.086335
H	-0.6561140304	-1.62311293	 0.4715237717	 0.12459
H	-3.6627315928	-0.0521993345	-0.2304361321	 0.257308
H	-4.0847491852	 0.3077982021	 1.4094061419	 0.258282
H	 0.8520810694	-1.1620473197	-1.6305839024	 0.088236
H	 1.4990650527	 0.4857537037	-1.7442343053	 0.093576
H	 1.8617380595	-1.4119536276	 0.651373855	 0.103479
H	 2.9495986237	-0.0952523115	 0.1946552349	 0.094412
H	 1.2884370253	 1.5940860172	 0.9673093714	 0.089466
H	 0.5577390596	 0.3017767165	 1.9435668941	 0.133707
39.5382	95.0711	132.4137	161.2467	169.2251	225.2128	289.3404	303.3802	368.8003	398.0375	451.2735	542.4325	578.1752	632.061	697.1497	767.846	785.4241	858.1156	874.8175	904.7074	924.6143	941.5182	944.4306	981.7727	1002.6592	1053.7048	1083.2298	1147.1096	1161.0386	1203.5427	1216.1143	1252.1029	1258.4527	1275.1281	1289.3414	1311.4568	1329.4656	1377.1323	1413.4973	1474.5171	1481.3085	1486.2957	1494.1743	1499.7941	1509.9996	1615.1873	1786.8569	3015.8371	3026.5577	3043.4055	3058.8737	3061.3242	3080.5135	3085.6441	3089.3872	3098.3697	3111.9723	3141.2008	3601.4263	3741.7344
CC1(CC(N)=O)CCC1	CC1(CC(=O)N)CCC1	
InChI=1S/C7H13NO/c1-7(3-2-4-7)5-6(8)9/h2-5H2,1H3,(H2,8,9)	InChI=1S/C7H13NO/c1-7(3-2-4-7)5-6(8)9/h2-5H2,1H3,(H2,8,9)
