20
gdb 58012	4.08373	0.68913	0.60588	4.7977	79.7	-0.2459	-0.0186	0.2273	1811.6561	0.16764	-440.323638	-440.312649	-440.311705	-440.361739	36.641	
C	 0.0345707489	 1.4511659091	 0.0434569272	-0.344573
N	-0.0068848528	-0.0025964678	 0.0187805088	-0.091387
C	-0.0418457786	-0.6412233847	 1.3196407399	-0.339057
C	 0.00904547	-0.6474315343	-1.1904097194	 0.438581
O	 0.0815341847	-0.041397028	-2.2476982343	-0.376793
C	-0.0624971864	-2.1807406533	-1.1753530218	-0.359041
C	-0.225130946	-2.7425165839	-2.5931853286	-0.263465
C	 0.0944019112	-4.2158224745	-2.6490745543	 0.155501
O	-0.6264966558	-5.070213025	-3.0954829487	-0.240679
H	 0.9376201437	 1.8041174292	 0.5575421962	 0.121972
H	 0.035940919	 1.8135056567	-0.9825484106	 0.172103
H	-0.838605841	 1.8497803898	 0.5749360294	 0.121995
H	-0.9595131513	-0.3770245829	 1.862503149	 0.129705
H	 0.0058109707	-1.7245456386	 1.2365380921	 0.141636
H	 0.8104878779	-0.3115383915	 1.9280542761	 0.130231
H	 0.8572440568	-2.5723811414	-0.7185125618	 0.127056
H	-0.8874030246	-2.5208387234	-0.5408988953	 0.133943
H	-1.2324032126	-2.5759663194	-2.9808646121	 0.129646
H	 0.4733674115	-2.2106005035	-3.2514154322	 0.148582
H	 1.0988412346	-4.4775739526	-2.2341192696	 0.064043
42.7351	54.0395	67.7186	78.5351	125.8811	149.7907	179.6485	235.4193	289.0803	325.2565	402.9968	453.5726	532.0801	580.31	613.6689	774.4847	804.4274	873.1736	971.8689	1024.9615	1078.9528	1082.8254	1090.6675	1131.3984	1153.1181	1177.817	1190.4769	1251.5689	1282.2076	1313.1334	1356.6996	1428.3809	1431.0843	1437.0923	1457.2978	1468.4367	1480.5195	1484.336	1502.7771	1504.6763	1544.7655	1750.6474	1837.9811	2830.8087	3006.9866	3016.5753	3016.9186	3046.0586	3048.9368	3062.1484	3074.1111	3121.1292	3170.1785	3175.1298
CN(C)C(=O)CCC=O	CN(C)C(=O)CCC=O	
InChI=1S/C6H11NO2/c1-7(2)6(9)4-3-5-8/h5H,3-4H2,1-2H3	InChI=1S/C6H11NO2/c1-7(2)6(9)4-3-5-8/h5H,3-4H2,1-2H3
