17
gdb 31890	3.71729	1.02625	0.81392	3.2426	91.62	-0.1682	0.0152	0.1834	1378.867	0.135976	-380.870377	-380.861257	-380.860313	-380.904616	33.781	
C	 0.4756239666	 0.4490925704	 0.7686407838	-0.340813
N	-0.4277923927	 0.51133233	-0.3708198769	-0.39478
C	-1.5443861034	-0.3148993262	-0.3981450539	 0.37957
C	-2.770504882	-0.138256626	-1.0224876089	-0.238995
C	-3.5236520933	-1.3175473767	-0.8101256216	-0.243583
C	-2.7600759431	-2.1929886017	-0.0595480953	 0.166559
N	-1.5442182749	-1.5487950004	 0.1843400157	-0.373504
C	-3.0223063494	-3.4794360625	 0.4358997604	 0.255994
C	-3.227415912	-4.5879761816	 0.8684237037	-0.47009
H	 1.2189356441	 1.2430820049	 0.6710721323	 0.134204
H	-0.0286188551	 0.5563574495	 1.7417117274	 0.12083
H	 1.0245241409	-0.4998417494	 0.7697482955	 0.129109
H	-0.6652787725	 1.4557783102	-0.635582823	 0.244466
H	-3.0764980533	 0.7423193497	-1.5658092014	 0.086985
H	-4.5255881841	-1.5159313514	-1.156964228	 0.10002
H	-0.7807979745	-1.966960199	 0.6855174758	 0.262524
H	-3.4221028013	-5.5608939997	 1.2445957246	 0.181503
43.5826	120.6429	135.9562	181.2202	233.76	300.8917	412.7428	417.4744	427.8276	474.3546	535.9127	548.6778	600.2588	650.0215	677.6092	687.176	731.4843	747.4947	834.5847	991.795	998.8627	1060.2471	1085.7011	1146.6272	1165.3256	1229.6591	1254.3331	1326.6297	1388.1277	1412.6458	1460.5607	1488.9372	1513.0632	1531.9678	1552.5831	1635.2586	2213.1748	2980.9503	3055.3378	3122.4666	3244.8608	3263.0575	3505.5154	3605.8796	3691.5054
CNC1=CC=C(N1)C#C	CNc1ccc([nH]1)C#C	
InChI=1S/C7H8N2/c1-3-6-4-5-7(8-2)9-6/h1,4-5,8-9H,2H3	InChI=1S/C7H8N2/c1-3-6-4-5-7(8-2)9-6/h1,4-5,8-9H,2H3
