21
gdb 80890	2.55482	1.72286	1.43766	1.5343	81.01	-0.2374	0.0956	0.333	1033.0612	0.183114	-387.049375	-387.041419	-387.040475	-387.081036	32.954	
C	-0.0446113056	 1.5913928708	-0.0160226579	-0.430505
C	-0.0727291839	 0.0689960965	-0.0171274419	-0.029029
C	 1.1336044525	-0.6033912802	-0.7163423723	 0.052371
O	 1.9277587876	-0.30090028	 0.485337374	-0.341019
C	 0.6555991548	-0.6162051298	 1.1807790252	 0.414407
C	 0.5858889452	-0.1452565087	 2.606643246	-0.509393
C	 0.5545727023	-2.1370218814	 0.8999216448	-0.07321
C	-0.4086280573	-2.6684018814	-0.1320197846	-0.321635
C	 0.9284206105	-2.1239940789	-0.570660459	-0.045203
H	 0.9515150951	 1.964064072	 0.2306651012	 0.136141
H	-0.3254007003	 1.9793577566	-1.0013047499	 0.110708
H	-0.7587057881	 1.9966204752	 0.7092859156	 0.111566
H	-1.0750533361	-0.2812424636	-0.2699025852	 0.060199
H	 1.5737557452	-0.2209390781	-1.6378512736	 0.071256
H	 0.7290572911	 0.935829554	 2.6769889993	 0.12829
H	-0.385962118	-0.3987521452	 3.0426110032	 0.123485
H	 1.3632948946	-0.6329044326	 3.2042876554	 0.129201
H	 1.0146993947	-2.8128851535	 1.6117989891	 0.089568
H	-0.4974133556	-3.7509302773	-0.1648808509	 0.110662
H	-1.3378438709	-2.162906724	-0.364107338	 0.117791
H	 1.676714752	-2.7885519704	-0.9852992805	 0.094351
197.9678	219.0464	234.1502	236.2785	271.5589	336.018	385.852	422.1098	547.3754	607.7888	621.9137	670.0592	764.4425	799.5443	807.1863	817.3076	864.0753	878.2589	924.6714	943.0326	981.7832	1016.3991	1034.0447	1047.1639	1082.3779	1087.3197	1100.9	1118.234	1129.7222	1191.6992	1196.4237	1233.2934	1240.2886	1261.8671	1282.6823	1321.1276	1371.0846	1401.9825	1410.8348	1419.6911	1480.2288	1489.0442	1497.295	1502.64	1510.7082	3033.6387	3038.8539	3084.2036	3089.783	3105.1437	3116.3175	3121.651	3129.2348	3133.9056	3172.2505	3184.7258	3210.3799
CC1C2OC1(C)C1CC21	C[C@H]1[C@H]2O[C@]1(C)[C@H]1C[C@@H]21	
InChI=1S/C8H12O/c1-4-7-5-3-6(5)8(4,2)9-7/h4-7H,3H2,1-2H3	InChI=1S/C8H12O/c1-4-7-5-3-6(5)8(4,2)9-7/h4-7H,3H2,1-2H3/t4-,5+,6-,7+,8-/m0/s1
