19
gdb 22484	3.22348	0.7322	0.63909	4.0912	80.15	-0.2582	-0.0073	0.2509	1724.3046	0.157525	-419.190735	-419.18044	-419.179496	-419.227084	36.13	
C	 0.3829800342	 0.490383895	 1.5115733132	-0.376452
C	 0.0478094023	 0.010294771	 0.0859954082	-0.270065
C	-1.3185503412	-0.6266746637	 0.0142281582	 0.345969
C	-1.4493059297	-2.1285283473	 0.0656774338	-0.271558
C	-1.0522449542	-2.7857530401	-1.2802971784	-0.337189
C	-1.1006235596	-4.2443959916	-1.21993591	 0.257665
N	-1.1417368634	-5.3972821037	-1.1528461646	-0.302122
N	-2.4209163725	 0.0163553628	-0.0706566949	-0.165005
O	-2.2207464291	 1.4042147766	-0.1118990388	-0.396322
H	 1.3821377758	 0.9345261607	 1.5400712053	 0.120172
H	-0.3391914116	 1.2420570136	 1.8374446574	 0.143852
H	 0.362772146	-0.3381086617	 2.2267489124	 0.12016
H	 0.0790520541	 0.8629716454	-0.5979283539	 0.133231
H	 0.8043061235	-0.7093927736	-0.2449447951	 0.097893
H	-0.8085539001	-2.5298620741	 0.8592191866	 0.128732
H	-2.4820786779	-2.3918416827	 0.3024224979	 0.141327
H	-1.7282242289	-2.4406743218	-2.0697861466	 0.164839
H	-0.0402076509	-2.4860824912	-1.574596692	 0.155113
H	-3.1216361469	 1.7370104965	-0.1830006586	 0.30976
53.9905	71.79	80.9812	118.1629	191.9586	220.6847	238.3503	323.9113	342.8346	374.7016	409.3382	439.2805	504.2458	618.2877	696.6453	766.7657	789.1682	810.2917	951.5911	968.0173	988.7186	1006.9098	1032.8361	1084.0306	1100.3211	1192.233	1247.7157	1285.688	1296.4677	1311.2845	1353.1478	1366.2051	1406.2889	1413.0144	1466.5594	1482.9003	1485.0263	1498.7753	1508.8183	1727.2481	2362.8085	3042.4496	3043.7181	3046.2105	3052.225	3087.2446	3094.0661	3112.4573	3121.9232	3135.6094	3821.415
CCC(CCC#N)=NO	CCC(=NO)CCC#N	
InChI=1S/C6H10N2O/c1-2-6(8-9)4-3-5-7/h9H,2-4H2,1H3	InChI=1S/C6H10N2O/c1-2-6(8-9)4-3-5-7/h9H,2-4H2,1H3
