19
gdb 108598	2.47512	1.42903	1.21173	0.9955	70.45	-0.2358	0.0624	0.2982	1109.3107	0.159515	-460.137029	-460.128411	-460.127467	-460.170275	32.826	
O	 0.7137105534	 0.0503980025	-0.4199535092	-0.407833
C	-0.3801706768	 0.4183951256	 0.4035838231	-0.171896
C	-1.6252738423	-0.3819502576	 0.0916528729	 0.327818
O	-2.7701378096	 0.0252591887	 0.8175301093	-0.315424
C	-3.2691442891	-1.1141164003	 1.5447781753	-0.087699
C	-2.9134528353	-2.3511540619	 0.6967330761	-0.251882
C	-1.7019950682	-1.8752652624	-0.1013251382	-0.157571
C	-1.9920424042	-0.9271251888	-1.264171045	 0.058535
O	-3.2867899819	-0.7428685246	-1.7359046674	-0.430794
H	 0.5608937088	 0.4209189096	-1.2946820952	 0.290163
H	-0.0670935763	 0.2250152075	 1.4358935753	 0.114644
H	-0.608831603	 1.4919138093	 0.3281808344	 0.102309
H	-2.7837648484	-1.1574539082	 2.5298205434	 0.104215
H	-4.3419067262	-0.9640114595	 1.6923854471	 0.111029
H	-2.6757863788	-3.2155789077	 1.3207967888	 0.107602
H	-3.737596397	-2.6235270607	 0.0302875216	 0.122375
H	-0.7997885057	-2.47332297	-0.1453618218	 0.103975
H	-1.2496014124	-0.9025398047	-2.0570881234	 0.087837
H	-3.7222416272	-0.1668990067	-1.090751997	 0.292598
80.5827	139.7549	187.0946	205.7354	229.0186	287.0084	319.8591	417.7657	478.826	559.351	597.9911	637.1473	667.4604	749.2573	811.6698	856.2155	876.1791	954.2491	958.4434	999.5529	1037.5333	1057.6505	1072.6028	1089.1948	1113.2809	1148.9656	1195.5484	1209.1053	1222.2669	1233.9107	1258.3021	1313.3607	1323.6557	1371.5662	1381.054	1392.6503	1410.1125	1457.127	1486.1568	1503.4683	1518.4667	2995.0215	3007.3194	3057.1823	3062.8269	3093.2759	3111.8158	3144.9395	3187.5005	3725.4376	3824.6006
OCC12OCCC1C2O	OC[C@]12OCC[C@H]1[C@H]2O	
InChI=1S/C6H10O3/c7-3-6-4(5(6)8)1-2-9-6/h4-5,7-8H,1-3H2	InChI=1S/C6H10O3/c7-3-6-4(5(6)8)1-2-9-6/h4-5,7-8H,1-3H2/t4-,5+,6-/m0/s1
