20
gdb 14273	2.78734	2.52919	1.7737	1.3262	73.63	-0.2365	0.0793	0.3158	833.5061	0.180713	-348.997056	-348.990472	-348.989528	-349.027253	27.653	
C	-0.0513629382	 1.5128229242	 0.0574689068	-0.24375
C	 1.5057992941	 1.5536566779	 0.0215459441	 0.002243
C	 1.4879285851	 0.0867955929	 0.5459713192	-0.257374
C	 0.0302776257	-0.0431054958	 0.0243720552	 0.140295
O	-0.1343967126	-0.6260348874	-1.2551308493	-0.266829
C	 0.9027364254	-0.4636033488	-2.2102352992	-0.063182
C	 1.3040204425	 0.9857159446	-2.5073225736	-0.212983
C	 2.093811627	 1.6956433991	-1.3902196808	-0.205793
H	-0.4431280607	 1.8609354948	 1.0177758373	 0.094265
H	-0.6094455328	 1.9975148133	-0.7466951816	 0.098047
H	 1.982115833	 2.2797769186	 0.6865958938	 0.061347
H	 2.2402470861	-0.6130252853	 0.1736080449	 0.097683
H	 1.4989731162	 0.0521978755	 1.6388483337	 0.098083
H	-0.676360063	-0.5771028183	 0.6647249222	 0.075658
H	 1.7934626191	-1.0439114185	-1.9218367865	 0.087178
H	 0.5049606078	-0.9240588083	-3.1202377948	 0.10419
H	 1.9132940264	 0.9827187805	-3.4195783757	 0.094117
H	 0.3953434783	 1.5493844161	-2.748252845	 0.107348
H	 2.1680003927	 2.7600244836	-1.6449409541	 0.095249
H	 3.1236410879	 1.3135088714	-1.3744624869	 0.094208
210.4921	269.07	313.797	361.5859	376.5931	432.3629	492.0263	552.46	752.0975	773.4126	792.4983	832.2036	862.6137	884.0023	921.9468	927.1878	941.789	982.6428	1050.8863	1056.3196	1067.9223	1094.3286	1128.2676	1155.4332	1170.3667	1206.2124	1232.7394	1256.9745	1263.2614	1277.8056	1294.0734	1322.2621	1354.4093	1374.7217	1391.5771	1394.9526	1419.6301	1462.1254	1480.5553	1485.6649	1497.1175	1513.5721	2980.1794	3011.081	3029.6411	3046.9684	3053.3831	3056.8389	3064.973	3071.4354	3074.3932	3078.6679	3110.8726	3115.2697
C1C2CC1OCCC2	C1[C@H]2C[C@@H]1OCCC2	
InChI=1S/C7H12O/c1-2-6-4-7(5-6)8-3-1/h6-7H,1-5H2	InChI=1S/C7H12O/c1-2-6-4-7(5-6)8-3-1/h6-7H,1-5H2/t6-,7+
