21
gdb 88005	2.78523	1.31686	1.1093	1.8417	83.49	-0.2314	0.0515	0.2829	1202.8162	0.182595	-383.208934	-383.200036	-383.199092	-383.243016	34.19	
C	-0.0701036245	 1.4449321358	-0.1749097781	-0.39312
C	 0.035788644	-0.0473836632	 0.0191347782	-0.073314
N	 1.3949270863	-0.6282663905	-0.0393317372	-0.384401
C	 0.6540701714	-0.6620124861	 1.219547079	 0.29585
C	 1.1163611356	-0.0023685365	 2.5270474287	-0.309857
C	 0.4516324524	-1.174140172	 3.3201085018	-0.301505
C	 0.1767248702	-1.8875770392	 1.9891139141	 0.285458
C	-0.8312177019	-2.900763768	 1.6140006482	-0.311952
N	 0.5945243135	-3.2691363036	 1.746059509	-0.356541
H	 0.7666916333	 1.9564886778	 0.3074321581	 0.129299
H	-0.0514774696	 1.700926708	-1.2397105813	 0.120994
H	-1.004652917	 1.8291469648	 0.2486586982	 0.115321
H	-0.7635672851	-0.625160585	-0.4453265736	 0.077936
H	 1.3808506598	-1.5408916051	-0.4927212854	 0.217185
H	 2.2044819567	 0.0269627811	 2.6189206323	 0.115532
H	 0.7182695096	 0.9956700822	 2.7242334394	 0.103607
H	 1.107574098	-1.7254156341	 3.9961889185	 0.116014
H	-0.4546922022	-0.8835870025	 3.8575027155	 0.104999
H	-1.4842790878	-3.3275416464	 2.3711627972	 0.120559
H	-1.2705176409	-2.8509356181	 0.6196967558	 0.107499
H	 1.0215575581	-3.3561282296	 0.8249494615	 0.220438
31.5977	141.4072	174.5406	185.6584	238.1961	287.8235	343.2909	422.7363	461.3218	501.0489	553.9345	611.4215	748.9521	782.182	823.0804	857.7677	882.6877	913.6727	927.6176	942.3554	969.2617	1002.7627	1034.6144	1049.6919	1068.5159	1098.8902	1106.4959	1123.234	1140.43	1204.5094	1217.7326	1223.8517	1241.968	1250.9019	1260.2033	1293.4862	1349.7499	1404.7151	1409.9867	1464.7491	1471.7181	1488.7791	1493.1309	1500.8382	1515.9454	3033.3243	3064.1279	3069.514	3094.5671	3095.2051	3098.6823	3112.7876	3124.4918	3130.202	3178.9695	3460.5556	3470.1739
CC1NC11CCC11CN1	C[C@H]1N[C@]21CC[C@]12CN1	
InChI=1S/C7H12N2/c1-5-7(9-5)3-2-6(7)4-8-6/h5,8-9H,2-4H2,1H3	InChI=1S/C7H12N2/c1-5-7(9-5)3-2-6(7)4-8-6/h5,8-9H,2-4H2,1H3/t5-,6-,7+/m1/s1
