19
gdb 30744	3.07042	1.24245	0.91921	0.9372	80.08	-0.1923	0.0376	0.2299	1301.2131	0.157401	-423.057268	-423.04742	-423.046475	-423.092583	34.7	
C	-0.065515953	 1.3342020113	-0.1741517296	-0.252633
O	-0.1242142287	 0.090458005	 0.5283128018	-0.268438
C	-1.2329849822	-0.6386260411	 0.3386090892	 0.361282
C	-1.3828003392	-1.9763802083	 0.1460090967	 0.021443
C	-0.293190683	-2.9916754393	 0.0085862304	-0.509762
C	-2.814169095	-2.1924712822	 0.1075326166	 0.191071
C	-3.5104617572	-3.502664279	-0.0839267007	-0.500585
C	-3.3876082709	-0.9738046352	 0.2676838917	-0.130379
O	-2.4305529566	-0.0017222843	 0.4185129545	-0.195618
H	 0.9097446176	 1.7656854768	 0.0555847504	 0.135014
H	-0.1542500293	 1.1755047859	-1.255599558	 0.12326
H	-0.8561755394	 2.0131891914	 0.158151586	 0.139751
H	-0.3091042015	-3.7238231038	 0.8252780197	 0.124604
H	-0.3789788732	-3.5562905963	-0.9276331646	 0.121484
H	 0.6848782461	-2.5040412606	 0.0195227825	 0.132581
H	-3.259231528	-4.2128888408	 0.7128082304	 0.128171
H	-4.5966889973	-3.3760360737	-0.0868434763	 0.123398
H	-3.2270326587	-3.9757100598	-1.0317416452	 0.126852
H	-4.4084385305	-0.6303519161	 0.2861146245	 0.128504
38.1022	126.8625	136.5625	146.8546	165.4912	218.8427	223.4852	282.1729	310.4179	394.8305	529.1363	565.796	625.9891	680.338	698.9029	720.6264	750.3463	927.0494	1009.7996	1036.6723	1055.0965	1074.0452	1130.9778	1137.2677	1161.6397	1180.3833	1212.0684	1279.7983	1314.3595	1406.8911	1416.2676	1430.0112	1479.3231	1481.5565	1486.0918	1489.6132	1493.7515	1502.1304	1505.3952	1620.0348	1702.0976	3019.6729	3023.164	3024.1343	3064.1874	3070.8084	3099.15	3107.9231	3116.2766	3142.9761	3275.7394
COC1=C(C)C(C)=CO1	COc1c(C)c(C)co1	
InChI=1S/C7H10O2/c1-5-4-9-7(8-3)6(5)2/h4H,1-3H3	InChI=1S/C7H10O2/c1-5-4-9-7(8-3)6(5)2/h4H,1-3H3
