17
gdb 54552	2.9933	1.60169	1.19982	1.8234	72.68	-0.2338	-0.0239	0.2099	1029.6916	0.134248	-421.748603	-421.740718	-421.739774	-421.781533	29.717	
C	 0.3519302413	 0.7957335038	 0.951939863	-0.498175
C	-0.1585138728	 0.1779318247	-0.3347799982	 0.232758
O	 0.3732880482	 0.3582211987	-1.4082794571	-0.299108
C	-1.3736859679	-0.6928589296	-0.2279449388	 0.256863
C	-2.2692716898	-1.2553608634	-1.3473663344	-0.325233
C	-2.8829256981	-1.8797787961	-0.0744345366	-0.102489
C	-1.4945432616	-2.0270504515	 0.6142491498	 0.051922
O	-1.8853847582	-1.3679487337	 1.8506580768	-0.319718
C	-2.5662916623	-0.6229881402	 0.792822794	 0.030473
H	 1.39980688	 1.0779020184	 0.8386119012	 0.139214
H	-0.2303795657	 1.702386488	 1.1604482794	 0.144429
H	 0.2043142335	 0.1229899293	 1.8006111279	 0.153821
H	-2.8841617028	-0.5292181492	-1.8841371652	 0.110145
H	-1.7907994907	-1.9424728629	-2.0481739285	 0.116838
H	-3.7358272569	-2.5472026828	 0.0425973739	 0.09321
H	-0.8083040368	-2.8724972854	 0.6567790499	 0.109905
H	-3.1928033992	 0.225065212	 1.0685017428	 0.105146
55.6474	123.6064	165.3417	188.1401	355.3486	377.3514	403.0235	573.1736	597.2683	629.2873	721.2581	776.1468	808.4069	857.452	873.419	902.3225	911.4171	964.0962	1004.59	1031.1631	1045.1967	1062.4299	1096.9102	1114.2622	1131.7002	1148.661	1167.0381	1171.3906	1238.9176	1251.3984	1320.695	1345.7473	1387.8607	1467.8532	1470.3132	1519.3581	1795.569	3034.9481	3068.8497	3105.2035	3120.9439	3123.9113	3127.4096	3137.4539	3155.645
CC(=O)C12CC3C1OC23	CC(=O)[C@@]12C[C@H]3[C@@H]1O[C@@H]23	
InChI=1S/C7H8O2/c1-3(8)7-2-4-5(7)9-6(4)7/h4-6H,2H2,1H3	InChI=1S/C7H8O2/c1-3(8)7-2-4-5(7)9-6(4)7/h4-6H,2H2,1H3/t4-,5-,6+,7-
