15
gdb 66398	2.33142	1.55597	1.29744	5.0539	71.74	-0.2798	-0.012	0.2678	1032.5977	0.111894	-416.791554	-416.783413	-416.782469	-416.824394	29.846	
C	-0.0536012858	 1.5920513211	-0.0019256813	-0.49802
C	 0.0458879864	 0.0974682211	-0.0045474738	 0.164783
C	 0.6534144336	-0.9318499055	-0.9258840235	 0.046216
O	 1.117867869	-1.730684131	 0.1790513467	-0.265174
C	 0.6390411228	-0.7639231584	 1.0743265313	 0.410849
N	 0.7638743762	-0.6563828221	 2.3111988764	-0.542687
C	-0.8448127614	-0.8182887874	-0.8814405456	-0.266836
C	-1.6890532585	-1.8588282254	-0.3573033767	 0.316564
N	-2.3795291941	-2.6890046177	 0.0553851167	-0.331631
H	 0.8943228192	 2.0400691573	 0.3093989534	 0.147143
H	-0.3068937571	 1.9734493054	-0.9951689035	 0.129047
H	-0.8274790276	 1.9223690431	 0.6973731867	 0.156456
H	 1.2763099305	-0.8713690823	-1.8079341005	 0.141279
H	 1.2798255133	-1.4399442405	 2.7140898515	 0.244544
H	-1.2756319065	-0.2770656977	-1.7203333679	 0.147469
100.0344	131.7204	157.7522	197.694	245.6079	306.351	389.5437	457.2078	511.2731	623.4612	659.9415	716.2862	739.1051	825.9232	874.3805	882.0018	908.1119	932.6913	977.4133	1013.5428	1034.1208	1100.0859	1105.177	1173.1912	1251.052	1269.0106	1336.6169	1418.3618	1456.0316	1481.6652	1495.5252	1845.2177	2360.8186	3044.4294	3115.338	3119.1365	3151.9063	3218.4993	3489.5043
CC12C(OC1=N)C2C#N	C[C@@]12[C@@H](O[C]1[NH])[C@H]2C#N	
InChI=1S/C6H6N2O/c1-6-3(2-7)4(6)9-5(6)8/h3-4,8H,1H3	InChI=1S/C6H6N2O/c1-6-3(2-7)4(6)9-5(6)8/h3-4,8H,1H3/t3-,4+,6-/m1/s1
