19
gdb 106394	3.37534	1.39162	1.22454	1.9889	73.98	-0.252	0.0733	0.3253	1059.2905	0.160332	-422.970967	-422.963431	-422.962487	-423.002855	30.414	
O	-0.0118863135	 1.4215227641	-0.0646139226	-0.423143
C	-0.0043721053	 0.0010472747	-0.0237530362	-0.214573
C	-1.4309855627	-0.4818076874	-0.0303391079	 0.323778
C	-2.5151894738	 0.0442614008	 0.9835588337	-0.254525
C	-3.4895691761	-0.5553235034	-0.090375371	-0.0893
C	-2.4473877554	-0.0856589966	-1.1399181377	-0.254696
C	-3.145422598	-2.0534306706	 0.0703145639	 0.039906
O	-2.3591660537	-2.6357380652	-0.9845072495	-0.257927
C	-1.6854319758	-2.0029249288	 0.1152791007	-0.017904
H	 0.8992645518	 1.7265509494	-0.0983148943	 0.289298
H	 0.5281707169	-0.4207133088	-0.8919095047	 0.095295
H	 0.5068507955	-0.366278137	 0.882612186	 0.083226
H	-2.5284367621	-0.3973362591	 1.9855536228	 0.085478
H	-2.5424501859	 1.1338654035	 1.0439313006	 0.114205
H	-4.5402938394	-0.2736853639	-0.1456430175	 0.064372
H	-2.4672969936	 0.9949835844	-1.2797730032	 0.109692
H	-2.3993715465	-0.6126030227	-2.0913223783	 0.112832
H	-3.7658138187	-2.7380219155	 0.6388032131	 0.099396
H	-1.0490591838	-2.6395780379	 0.7223703619	 0.09459
95.9833	170.7713	235.1198	286.667	354.4662	405.0051	445.0494	517.8561	596.9239	652.8109	691.0475	799.0632	813.6825	849.4658	862.443	887.3685	901.1855	950.6702	966.6271	989.1002	1005.49	1052.6808	1073.7135	1077.4197	1090.9479	1109.2814	1157.9575	1180.7344	1215.0361	1228.1601	1237.4023	1257.9397	1277.9077	1284.1664	1290.7444	1327.2437	1404.7494	1464.9247	1478.264	1512.0222	1516.4252	2952.0083	2983.1144	3047.417	3097.2648	3121.3915	3127.8245	3158.6479	3164.3413	3176.7154	3834.1552
OCC12CC(C1)C1OC21	OC[C@@]12C[C@@H](C1)[C@H]1O[C@@H]21	
InChI=1S/C7H10O2/c8-3-7-1-4(2-7)5-6(7)9-5/h4-6,8H,1-3H2	InChI=1S/C7H10O2/c8-3-7-1-4(2-7)5-6(7)9-5/h4-6,8H,1-3H2/t4-,5-,6-,7+/m1/s1
