18
gdb 37668	3.01971	2.39483	2.01461	1.89	75.11	-0.2233	0.0774	0.3007	781.5511	0.153123	-364.77971	-364.774421	-364.773476	-364.80894	24.249	
C	-0.0146730253	 1.5817451279	-0.0607335855	-0.24295
C	 1.4498039785	 1.9681268502	 0.0722455886	-0.063579
C	 2.4717630751	 1.1437428717	-0.689000925	-0.062848
C	 2.2117100982	 0.8608975756	 0.7769569568	-0.06783
C	 1.3462571955	-0.3933823842	 0.7136553702	-0.026072
C	 0.0353762454	 0.0524060582	-0.0246047295	-0.056536
C	 0.6455950589	-0.5940218116	-1.2625221292	-0.051258
C	 2.0339668581	-0.0961519042	-1.4356988588	-0.047453
N	 1.7818280984	-1.228698646	-0.5009961284	-0.157206
H	-0.5828684856	 1.987159131	 0.7844890004	 0.097701
H	-0.4759293138	 1.9548045709	-0.9832546895	 0.099528
H	 1.7038986364	 3.0059895723	 0.2637635442	 0.081552
H	 3.3862224406	 1.63061599	-1.0060408852	 0.08713
H	 2.9429918629	 1.0312792442	 1.5568703973	 0.086552
H	 1.2663359812	-0.9804563117	 1.6260474747	 0.07489
H	-0.8769028604	-0.436325949	 0.3170478626	 0.076012
H	 0.1039131432	-1.125357098	-2.0400490979	 0.083669
H	 2.5672632228	-0.3721770074	-2.3388934357	 0.0887
314.3416	432.5017	526.5667	620.8866	659.1762	693.144	724.8588	767.0824	775.2073	789.4882	806.9867	844.2512	869.7083	899.8414	929.7067	936.5723	979.012	987.2942	992.1517	1040.2933	1050.0138	1060.8045	1069.3096	1075.4314	1095.4587	1114.5091	1158.9698	1177.9223	1221.1533	1237.4956	1267.3999	1283.0597	1303.0714	1307.8478	1356.0167	1361.5465	1388.401	1414.4015	1489.1419	3027.439	3066.5179	3110.6076	3138.1407	3145.2275	3157.2741	3170.6585	3182.8145	3193.5413
C1C2C3C2C2C1C1C3N21	C1[C@@H]2[C@H]3[C@@H]2[C@H]2[C@@H]1[C@H]1[C@@H]3N21	
InChI=1S/C8H9N/c1-2-4-5(2)8-7-3(1)6(4)9(7)8/h2-8H,1H2	InChI=1S/C8H9N/c1-2-4-5(2)8-7-3(1)6(4)9(7)8/h2-8H,1H2/t2-,3+,4+,5-,6+,7-,8+,9?/m0/s1
