16
gdb 33630	3.22784	1.54771	1.37509	1.2587	84.07	-0.2176	-0.0442	0.1734	977.7472	0.123795	-363.453197	-363.446018	-363.445074	-363.484469	29.032	
C	-0.2119695239	-1.3673468245	 0.0464481824	-0.328407
C	-0.1202466972	-0.1690412211	 0.0948649772	 0.077466
C	 0.0190985875	 1.2427889449	 0.1679872031	 0.208794
C	-0.8247626252	 2.2720459261	 0.8006150866	-0.067467
C	 0.0626814326	 3.0383413428	 1.8004027135	-0.274549
C	 1.3742070784	 3.017617636	 1.0310421041	-0.10734
C	 1.2883258391	 2.1135979604	 0.0308052653	-0.03903
C	 0.7251508762	 2.6573791174	-1.28103681	-0.174385
N	-0.6506070351	 2.2379234053	-0.7366571553	-0.190743
H	-0.2975662384	-2.4247108086	-0.0005173379	 0.185118
H	-1.8707586155	 2.0806514664	 1.0215905328	 0.115089
H	-0.2306297692	 4.0810691139	 1.9654757423	 0.122626
H	 0.0110900726	 2.5330825169	 2.7751748605	 0.127655
H	 1.9256719977	 3.9443808057	 0.896689806	 0.102623
H	 0.85990722	 3.7229492892	-1.4836850827	 0.114
H	 0.8758319903	 2.0645870992	-2.1872506878	 0.128551
128.9676	154.8307	267.5705	385.5809	388.5252	507.2263	528.7698	536.7946	572.465	615.3712	659.7014	681.1148	740.1084	801.5231	807.2169	876.7959	907.7064	913.2048	937.9059	991.9989	1033.3025	1053.9416	1070.4591	1117.5058	1148.338	1170.3022	1241.0275	1258.8844	1285.7909	1294.7186	1393.874	1464.9494	1508.6468	1575.2815	2238.8621	3009.7427	3053.3459	3068.2209	3118.0618	3159.204	3170.5004	3501.5186
C#CC12C3CC=C1CN23	C#C[C@@]12[C@H]3C[CH][C]1CN23	
InChI=1S/C8H7N/c1-2-8-6-3-4-7(8)9(8)5-6/h1,3,7H,4-5H2	InChI=1S/C8H7N/c1-2-8-6-3-4-7(8)9(8)5-6/h1,3,7H,4-5H2/t7-,8+,9?/m1/s1
