20
gdb 56292	4.83164	0.5413	0.53817	3.3607	83.56	-0.2444	0.0321	0.2765	2089.8309	0.168069	-403.156254	-403.145204	-403.14426	-403.195368	37.859	
C	-0.1655571337	 1.4138130366	 0.2997103623	-0.482162
C	-0.1497059856	-0.1071522276	 0.3287432274	 0.406374
O	 0.5385365309	-0.7319756868	 1.1153592686	-0.371789
N	-0.9634102058	-0.7139448177	-0.588862742	-0.317185
C	-1.1228055849	-2.1550315575	-0.6562911853	-0.165609
C	-2.4548212469	-2.6389101846	-0.0705478996	-0.179174
C	-2.5951263573	-4.1715351932	-0.1582961261	-0.350261
C	-3.8650417754	-4.6555785014	 0.3679201412	 0.289046
C	-4.9203102244	-5.0286991715	 0.8058975713	-0.431546
H	-0.6229105077	 1.7794787524	 1.2238217992	 0.152503
H	 0.8656427369	 1.7733701369	 0.2815869746	 0.153776
H	-0.7081539691	 1.833741554	-0.551486423	 0.109559
H	-1.5417537252	-0.1389713437	-1.1787213028	 0.242037
H	-1.0297204816	-2.4814932126	-1.7002824806	 0.102522
H	-0.2853723488	-2.5782227534	-0.0957944837	 0.150487
H	-2.5254156828	-2.3234754853	 0.9752409022	 0.127684
H	-3.2921230319	-2.1705380256	-0.6016075049	 0.102111
H	-2.4888117746	-4.4908689624	-1.2039521959	 0.128494
H	-1.7681057639	-4.6442819112	 0.3875093603	 0.138826
H	-5.8477558481	-5.3708210352	 1.1930213067	 0.194305
18.2492	35.1418	67.5724	79.6841	93.4806	146.3639	266.6896	299.4397	336.8547	346.6758	437.4312	477.0754	532.6283	617.3822	619.3202	635.9704	643.9364	743.2918	826.6658	921.7151	952.5778	994.6553	1034.994	1047.0232	1057.0729	1109.6015	1122.4073	1210.2131	1257.7961	1279.2841	1309.5449	1334.162	1368.8406	1394.4607	1408.3149	1469.7316	1473.4159	1477.6855	1486.58	1500.2376	1540.5706	1781.4555	2239.9703	3012.8785	3020.724	3036.417	3045.429	3048.2736	3088.5554	3114.1029	3120.9418	3135.6272	3507.7227	3646.8986
CC(=O)NCCCC#C	CC(=O)NCCCC#C	
InChI=1S/C7H11NO/c1-3-4-5-6-8-7(2)9/h1H,4-6H2,2H3,(H,8,9)	InChI=1S/C7H11NO/c1-3-4-5-6-8-7(2)9/h1H,4-6H2,2H3,(H,8,9)
