23
gdb 102673	1.78873	1.08086	0.72459	1.2235	88.83	-0.2473	0.0334	0.2807	1641.7397	0.201608	-388.253255	-388.241731	-388.240786	-388.291344	40.701	
C	-0.5761242174	 1.1456683481	 0.3330326563	-0.394541
C	-0.2112727809	-0.3056825006	 0.0143226661	-0.166927
C	 0.6097345892	-0.4697107427	-1.2690490706	 0.137859
C	 0.9819339695	-1.9324882997	-1.5331845112	-0.166939
C	 1.8316384143	-2.1365776573	-2.7891532105	-0.39453
O	-0.1572588544	 0.0222251203	-2.3776995908	-0.26738
C	 0.4252208683	 1.109965738	-3.0710766801	-0.21111
C	-0.4464179439	 1.5143355193	-4.1681309787	 0.280826
C	-1.145715678	 1.8674101216	-5.078342725	-0.420812
H	 0.3192199032	 1.7620208793	 0.4754789069	 0.107038
H	-1.1651563122	 1.5824019685	-0.4783024978	 0.13298
H	-1.1695075753	 1.2098608915	 1.2500851519	 0.112191
H	 0.3563515315	-0.7427604221	 0.8453360975	 0.091947
H	-1.1263148791	-0.901952288	-0.0889456389	 0.105398
H	 1.5343246059	 0.1232282523	-1.1794719823	 0.06569
H	 1.5115719323	-2.3181693804	-0.6530995253	 0.091947
H	 0.0528601189	-2.5095861198	-1.6185255035	 0.105403
H	 1.3010646301	-1.7790629989	-3.6760755065	 0.132976
H	 2.7841415558	-1.5982003203	-2.7205169974	 0.107034
H	 2.061958017	-3.1954644971	-2.9405477087	 0.112188
H	 0.5836231788	 1.9674248752	-2.397131516	 0.119712
H	 1.4139696799	 0.8364772885	-3.4737169178	 0.119708
H	-1.7686134336	 2.1747353344	-5.8815618877	 0.199343
30.5611	50.1182	89.3727	118.8028	130.278	172.5824	226.8518	242.9498	281.228	320.2452	332.4656	371.1011	454.7854	495.0699	541.897	606.9112	672.491	765.9954	783.1152	874.8523	935.8591	945.7884	975.1297	1013.9962	1033.2671	1039.7236	1059.5328	1110.4096	1125.7962	1148.3258	1193.7131	1249.8243	1279.1575	1303.0536	1312.6338	1367.1854	1382.7776	1393.4594	1402.5712	1406.2387	1435.0521	1470.6015	1482.5328	1496.3575	1496.7491	1499.2267	1511.0723	1514.8952	2246.3897	2961.872	2977.5266	2986.513	3021.4991	3029.744	3031.5719	3032.5735	3057.8505	3068.0301	3097.7951	3098.6658	3115.5981	3116.4926	3506.9784
CCC(CC)OCC#C	CCC(CC)OCC#C	
InChI=1S/C8H14O/c1-4-7-9-8(5-2)6-3/h1,8H,5-7H2,2-3H3	InChI=1S/C8H14O/c1-4-7-9-8(5-2)6-3/h1,8H,5-7H2,2-3H3
