20
gdb 13410	4.4601	1.15134	1.08355	1.7659	71.85	-0.2421	0.0846	0.3267	1190.5423	0.177122	-386.139264	-386.130633	-386.129688	-386.173501	30.73	
C	 0.4073127088	 1.5146872444	-0.3519619853	-0.383583
C	 0.2643609935	 0.0296599653	-0.0631169524	-0.039796
O	 0.5800378818	-0.6860308919	-1.2414318001	-0.26128
C	 0.4472546504	-2.0940071367	-1.1313846959	 0.103638
C	 0.5277672224	-2.6764633384	-2.5469253067	-0.240505
C	 2.0395486215	-2.808904115	-2.7346943665	-0.063814
O	 2.5301154612	-3.2347542666	-1.4672143143	-0.260816
C	 1.6647770655	-2.7529306842	-0.4414663094	-0.077817
H	 1.4326642905	 1.7496269081	-0.6512176508	 0.128061
H	-0.2626866376	 1.8136490475	-1.1629893252	 0.126236
H	 0.1617739674	 2.1017695657	 0.5380140801	 0.114729
H	 0.9294969492	-0.2617514813	 0.7658045993	 0.088151
H	-0.7655413984	-0.2074287923	 0.25437989	 0.085553
H	-0.4941774594	-2.3390349749	-0.6193481107	 0.064273
H	 0.0535754776	-3.6623731454	-2.57336484	 0.105175
H	 0.0420083039	-2.0235838022	-3.2739491108	 0.111984
H	 2.3314431999	-3.5572413121	-3.4771206544	 0.103357
H	 2.4791298048	-1.8414361738	-3.0198701415	 0.100226
H	 2.1919404174	-2.0247730247	 0.1886857753	 0.099642
H	 1.3667483697	-3.5998190815	 0.1899722894	 0.096589
44.8678	75.6403	119.6045	148.5854	239.1324	253.7305	338.5396	420.4118	472.3849	642.6421	747.8255	821.788	845.2948	869.5222	908.773	928.4451	932.7029	989.0803	1007.4131	1066.6293	1097.0719	1115.0194	1151.2544	1166.1724	1188.4522	1193.8761	1232.5524	1255.1782	1294.2802	1301.1013	1325.3392	1357.1325	1372.4229	1401.8769	1407.391	1440.165	1472.7709	1483.6003	1499.9399	1505.8402	1521.9045	1529.8907	2956.8166	2985.5344	2993.799	2998.5003	3015.0284	3045.3032	3046.1728	3062.5158	3085.598	3119.9269	3122.3023	3129.9695
CCOC1CCOC1	CCO[C@H]1CCOC1	
InChI=1S/C6H12O2/c1-2-8-6-3-4-7-5-6/h6H,2-5H2,1H3	InChI=1S/C6H12O2/c1-2-8-6-3-4-7-5-6/h6H,2-5H2,1H3/t6-/m0/s1
