15
gdb 128675	5.06357	1.0922	0.90353	3.6318	74.3	-0.2099	-0.0737	0.1362	1228.7126	0.114086	-450.123725	-450.115749	-450.114805	-450.156844	29.071	
C	-0.0218181165	 1.4041464251	 0.0090350566	-0.236801
O	 0.0208343006	-0.0216348292	-0.0368851523	-0.260805
C	 0.6284994124	-0.5667139503	-1.1050889766	 0.404242
N	 1.1485797834	 0.151171297	-2.0440170378	-0.263815
N	 1.7217463286	-0.5384962252	-3.0492098948	-0.267174
C	 1.8058852459	-1.9249380476	-3.1682853623	 0.44482
N	 2.3865112107	-2.4258931348	-4.1875167119	-0.562076
N	 1.2230792407	-2.6596768933	-2.1187753055	-0.278419
C	 0.6720702117	-2.0129007024	-1.1536198118	-0.041775
H	 0.9893116599	 1.8234467719	 0.0173289243	 0.139483
H	-0.5585873828	 1.8053528972	-0.8564835413	 0.139537
H	-0.5454392759	 1.654778798	 0.9315121089	 0.138412
H	 2.1291068137	 0.0202071513	-3.7831587318	 0.279589
H	 2.3583351298	-3.4406329575	-4.1163530418	 0.225192
H	 0.2180356078	-2.5720281	-0.3359017021	 0.139591
49.9444	116.9303	191.9801	214.5852	348.7661	363.1544	397.8217	453.5875	504.393	588.1278	640.2164	644.3941	751.5327	803.1853	827.1288	833.9156	986.8304	997.3238	1050.5725	1075.4451	1178.8439	1204.3194	1266.8116	1315.5793	1326.1543	1430.3528	1443.6309	1478.3867	1494.8444	1502.2008	1593.8141	1685.7696	1724.1125	3036.5932	3104.3618	3139.2179	3156.2515	3523.5642	3633.4898
COC1=NNC(=N)N=C1	COc1n[nH]c([NH])nc1	
InChI=1S/C4H6N4O/c1-9-3-2-6-4(5)8-7-3/h2H,1H3,(H2,5,6,8)	InChI=1S/C4H11N4O/c1-9-3-2-6-4(5)8-7-3/h3-8H,2H2,1H3
