20
gdb 79704	2.68983	1.6634	1.30951	0.9475	77.64	-0.2258	0.0646	0.2905	1033.788	0.172447	-403.080564	-403.072602	-403.071658	-403.11289	31.992	
C	-0.127979052	 1.6395964172	-0.0661773714	-0.41542
C	 0.0445751389	 0.1142212355	-0.0500204301	 0.035896
C	 1.0283903627	-0.6919984788	-0.9621353622	-0.11223
C	 2.427183938	-0.3045905133	-0.4710206539	-0.039119
N	 2.5191883325	 0.9568340408	 0.3009230066	-0.341113
C	 2.2205101305	-0.3123401343	 1.0048756668	-0.039117
C	 0.7411826957	-0.7027674152	 1.0888791521	-0.112215
C	 0.7797907171	-1.8954481101	 0.0423715909	 0.188798
O	-0.3445108572	-2.7112195206	-0.1193532747	-0.452305
H	 0.4531034369	 2.1027868128	-0.8650941044	 0.127604
H	-1.181637829	 1.9022910428	-0.2122877419	 0.08969
H	 0.2107544186	 2.0937143621	 0.866294401	 0.12761
H	-0.9506866573	-0.3201839681	-0.1916581556	 0.046521
H	 0.8630859913	-0.7977649629	-2.0348236344	 0.061699
H	 3.3111049793	-0.7103979762	-0.94917337	 0.090387
H	 3.5061252672	 1.164895969	 0.440219236	 0.227592
H	 2.9396882244	-0.7243226929	 1.7032161813	 0.090386
H	 0.2877504923	-0.8193417135	 2.07375433	 0.061702
H	 1.6214821207	-2.5829952634	 0.1566343136	 0.078364
H	-1.1287035806	-2.1639721008	-0.2265923297	 0.285271
68.2945	213.5253	234.1675	244.5612	294.6529	319.0083	436.4655	469.8433	508.1817	648.8484	665.7056	746.221	760.9742	845.5104	851.1646	870.3365	875.5686	910.2621	939.5691	953.8066	1004.0399	1052.8956	1060.1482	1082.6337	1083.4063	1096.5691	1132.2757	1143.0205	1155.8512	1181.4777	1208.8772	1222.0898	1236.2609	1270.3236	1272.9522	1318.5536	1347.8453	1387.8472	1418.487	1442.1742	1456.3937	1487.5792	1492.1186	3022.3318	3043.1094	3082.5394	3108.9044	3111.6031	3116.2244	3139.4296	3173.0086	3182.9095	3488.2844	3816.7445
CC1C2C3NC3C1C2O	C[C@H]1[C@H]2[C@H]3N[C@H]3[C@@H]1[C@H]2O	
InChI=1S/C7H11NO/c1-2-3-5-6(8-5)4(2)7(3)9/h2-9H,1H3	InChI=1S/C7H11NO/c1-2-3-5-6(8-5)4(2)7(3)9/h2-9H,1H3/t2-,3-,4+,5+,6-,7-
