23
gdb 64216	2.53915	1.20347	1.02852	1.3093	85.92	-0.2492	0.0764	0.3256	1305.796	0.204764	-388.27242	-388.262804	-388.26186	-388.306693	37.352	
C	-0.1712669741	 1.5389411516	-0.0031620774	-0.450007
C	 0.0027673062	 0.0243057818	 0.0397152767	 0.398089
O	-1.2542077875	-0.6291494987	-0.0010426698	-0.479098
C	 1.1012186629	-0.4991099659	-0.9383398664	-0.278323
C	 2.0885238494	-0.5543564829	 0.2572983561	-0.255814
C	 0.8687248078	-0.509348864	 1.2215902901	 0.011294
C	 0.9538541737	 0.2438080763	 2.5189906851	 0.004043
C	-0.104289667	 0.046962761	 3.5793448014	-0.266217
C	 1.2888475763	-0.4848063042	 3.7993082959	-0.279902
H	 0.7888771251	 2.0609150731	 0.0568008515	 0.117648
H	-0.6437015203	 1.8388535379	-0.9475766882	 0.101136
H	-0.8026678276	 1.8788832061	 0.8227943277	 0.128104
H	-1.7809906463	-0.2300677502	-0.7021649426	 0.270798
H	 0.8364216958	-1.4971445306	-1.2963680812	 0.103588
H	 1.3642900445	 0.1322860252	-1.7918084793	 0.086212
H	 2.7504099389	-1.4196166521	 0.3281335476	 0.09859
H	 2.6977135484	 0.3519272689	 0.331281592	 0.096812
H	 0.5237961665	-1.5315142986	 1.4149223384	 0.075778
H	 1.3580369486	 1.2498377495	 2.4358778036	 0.072932
H	-0.423041705	 0.9076610524	 4.1570847634	 0.106233
H	-0.8954424867	-0.6643623123	 3.3682549054	 0.121257
H	 1.4383643632	-1.5583034305	 3.7447916684	 0.10958
H	 1.9212777272	 0.0139001761	 4.5255361617	 0.107266
64.278	101.8167	153.6694	218.6881	260.8098	266.7013	291.3155	322.1853	375.383	385.5939	454.1299	525.9566	614.6208	720.4187	771.9911	809.3766	827.3299	882.4969	897.4941	910.001	915.3416	951.2238	972.0556	993.9598	1005.147	1055.8376	1073.738	1096.6187	1102.4205	1135.0913	1157.208	1189.0851	1197.8915	1210.9865	1223.0838	1228.3653	1248.8774	1269.822	1294.2591	1325.5111	1371.5649	1407.2744	1436.2775	1471.4345	1477.7561	1492.0924	1495.251	1500.2382	1506.2982	3019.9167	3042.5644	3053.1993	3057.8374	3086.1112	3104.3291	3114.4076	3120.2345	3128.4881	3131.0283	3136.4402	3207.1695	3222.979	3797.5197
CC1(O)CCC1C1CC1	C[C@@]1(O)CC[C@H]1C1CC1	
InChI=1S/C8H14O/c1-8(9)5-4-7(8)6-2-3-6/h6-7,9H,2-5H2,1H3	InChI=1S/C8H14O/c1-8(9)5-4-7(8)6-2-3-6/h6-7,9H,2-5H2,1H3/t7-,8+/m0/s1
