14
gdb 129334	4.49446	1.19062	0.94127	4.0996	76.62	-0.228	-0.0674	0.1606	1164.3205	0.103308	-429.055881	-429.048489	-429.047545	-429.088685	26.634	
N	 0.3854185656	 1.251997971	 0.0023747116	-0.395104
C	 0.0761132998	 0.0235431	 0.0014977656	 0.082861
N	-1.2190829396	-0.4788345155	 0.0129636321	-0.350184
C	-2.4516699575	 0.1398252963	 0.0275512978	 0.508907
N	-3.4838414559	-0.7292334536	 0.0353748013	-0.305899
C	-4.677828068	-0.1676874641	 0.0492794855	-0.004581
C	-4.8149747369	 1.2217574695	 0.0549898313	-0.000077
N	-3.7478806062	 2.0149420367	 0.0465092789	-0.147658
N	-2.5355788931	 1.4771853982	 0.0324660912	-0.233046
H	 1.3997202643	 1.3463651661	-0.0077511358	 0.229042
H	 0.7877741606	-0.8117658439	-0.0086446824	 0.095104
H	-1.3054718613	-1.4837460154	 0.0106166148	 0.263029
H	-5.5423538209	-0.8279525871	 0.0560704765	 0.129665
H	-5.7824824608	 1.7109025617	 0.0664056515	 0.127942
44.9057	135.6364	171.8991	229.1468	360.3671	393.6696	548.3696	557.3638	615.9991	645.9317	782.3044	814.7246	832.9689	863.3027	881.6823	1002.8143	1024.8153	1059.7738	1072.0359	1108.9102	1138.9448	1178.3475	1255.3708	1322.092	1418.2955	1427.69	1455.9788	1547.6447	1578.6146	1613.834	1742.6557	3034.9684	3154.5525	3200.5532	3498.9304	3632.0587
N=CNC1=NC=CN=N1	N=CNc1nccnn1	
InChI=1S/C4H5N5/c5-3-7-4-6-1-2-8-9-4/h1-3H,(H2,5,6,7,9)	InChI=1S/C4H5N5/c5-3-7-4-6-1-2-8-9-4/h1-3H,(H2,5,6,7,9)
