23
gdb 102813	2.22701	0.99339	0.73507	2.8284	86.77	-0.246	-0.0185	0.2274	1588.6553	0.203374	-388.293018	-388.282487	-388.281543	-388.329672	37.823	
C	 0.2311276065	 1.6554920709	-0.1167503856	-0.388078
C	 0.1775284957	 0.1269549025	-0.0485166768	-0.177142
C	-1.2383178727	-0.4699215513	 0.0880156258	-0.011113
C	-1.1872773021	-2.0106823875	-0.0391968821	-0.278687
C	-0.783763776	-2.4697757454	-1.4201898349	 0.15783
O	 0.1052254754	-3.2427738183	-1.669619252	-0.243476
C	-1.9172384745	-0.0738037986	 1.3886693953	 0.038773
C	-2.7569226669	 1.174406105	 1.4990402029	-0.272882
C	-3.4145966337	-0.1821427272	 1.5362794912	-0.282426
H	 1.2604319087	 1.9998859528	-0.2568841077	 0.114227
H	-0.3618480611	 2.0363609253	-0.9561049272	 0.111109
H	-0.1537012281	 2.1150498476	 0.7973320948	 0.126556
H	 0.651727924	-0.2881594435	-0.946909133	 0.105529
H	 0.7865680949	-0.22560451	 0.7952091045	 0.099468
H	-1.8548432722	-0.0875318238	-0.7408204564	 0.067944
H	-0.5035940917	-2.4514324216	 0.693556069	 0.115681
H	-2.1926580112	-2.411821743	 0.1516195782	 0.118811
H	-1.3995276844	-2.0265573812	-2.2407089863	 0.065965
H	-1.3408294492	-0.3321678466	 2.2751141374	 0.082697
H	-2.7083508439	 1.7514930967	 2.4160298399	 0.113161
H	-2.8946827019	 1.775395324	 0.6063132583	 0.113649
H	-3.9889246019	-0.4851384548	 0.6659326905	 0.10889
H	-3.8202291738	-0.5366325422	 2.4772114443	 0.113515
52.8706	68.5202	82.9134	107.1699	159.2322	199.3585	232.0976	266.0059	327.3687	380.5046	429.4569	451.442	554.978	730.2234	781.8493	786.9022	823.9123	857.0351	886.836	937.3184	967.0115	997.6928	1011.546	1037.4134	1049.0477	1060.2439	1080.4787	1118.1135	1139.8918	1146.7834	1188.9603	1199.1203	1223.4906	1229.2083	1273.841	1291.0632	1336.538	1351.1432	1382.606	1410.6957	1420.7987	1430.9121	1462.2982	1468.7973	1485.5451	1498.8868	1504.3119	1509.1052	1833.7562	2834.1639	2981.0805	3014.9714	3018.567	3035.327	3048.1845	3089.9169	3098.4943	3118.4808	3122.7112	3125.8571	3133.1397	3204.5419	3219.9936
CCC(CC=O)C1CC1	CC[C@@H](CC=O)C1CC1	
InChI=1S/C8H14O/c1-2-7(5-6-9)8-3-4-8/h6-8H,2-5H2,1H3	InChI=1S/C8H14O/c1-2-7(5-6-9)8-3-4-8/h6-8H,2-5H2,1H3/t7-/m0/s1
