17
gdb 15240	2.32153	2.0455	1.41021	4.0995	69.63	-0.2586	0.0299	0.2885	956.4259	0.140811	-363.855756	-363.846984	-363.846039	-363.889126	30.838	
C	 0.0835187662	 1.1142840396	 0.4671909966	-0.244046
O	-0.124931362	 0.0450462758	-0.4447690577	-0.225747
C	-1.3290330615	-0.6010717456	-0.2713078013	 0.11879
C	-1.4191692587	-2.0129544621	-0.7389708197	-0.073213
C	-0.2393281915	-2.7023695239	-1.3846270355	-0.407092
C	-1.4414870902	-1.7281281956	 0.7721890037	-0.251814
C	-0.302759285	-2.0539559855	 1.5767828347	 0.309264
N	 0.6099214042	-2.3143470265	 2.2399119017	-0.354072
H	 1.0451127575	 1.562306314	 0.2110900766	 0.138607
H	-0.7052823736	 1.8745042881	 0.3728537299	 0.110263
H	 0.1154370467	 0.7554979281	 1.5029913759	 0.135029
H	-2.2101571907	 0.037591051	-0.3576726968	 0.098278
H	-2.3898778563	-2.3065594604	-1.1285357491	 0.105151
H	 0.7049654173	-2.3501086274	-0.967414076	 0.155358
H	-0.2992294262	-3.7852748222	-1.2410202209	 0.128276
H	-0.2290328539	-2.5008544692	-2.460343891	 0.12657
H	-2.3917806122	-1.8362121082	 1.284540369	 0.1304
98.0056	129.6038	132.0703	166.9884	179.3093	210.2518	299.8088	374.2771	411.4583	541.8071	629.0498	668.8288	726.7425	798.5444	870.4303	952.9576	979.784	1016.6501	1081.3997	1096.4032	1137.0146	1149.0018	1173.4939	1185.4886	1228.2223	1271.3609	1355.3065	1371.2107	1420.9942	1431.5575	1485.5634	1488.6577	1490.9339	1499.8512	1504.8386	2346.2311	2998.1161	3047.5158	3067.2798	3084.3236	3108.8585	3136.1063	3140.1841	3155.2849	3167.1566
COC1C(C)C1C#N	CO[C@H]1[C@@H](C)[C@H]1C#N	
InChI=1S/C6H9NO/c1-4-5(3-7)6(4)8-2/h4-6H,1-2H3	InChI=1S/C6H9NO/c1-4-5(3-7)6(4)8-2/h4-6H,1-2H3/t4-,5+,6-/m0/s1
