15
gdb 126238	2.14004	1.57193	0.95533	4.021	77.22	-0.2484	-0.044	0.2044	1194.5183	0.110691	-416.765729	-416.757206	-416.756262	-416.799491	30.795	
C	-0.3357570923	 1.6329183347	-0.07151069	-0.379658
C	 0.1214293794	 0.1689785472	 0.0551806325	-0.314579
C	 0.852028222	-0.3169279548	-1.1470589953	 0.319295
C	 2.1323325015	-0.7802343968	-1.3268163533	 0.058932
N	 2.2548767275	-1.0822099038	-2.6749210187	-0.178384
N	 1.1935370075	-0.8443099099	-3.2872155006	-0.015908
O	 0.2339110977	-0.3359264344	-2.320350142	-0.21647
C	 3.1684434289	-0.945270441	-0.3854771399	 0.278133
C	 4.0442829912	-1.0820487939	 0.4282487657	-0.438729
H	 0.5206121714	 2.3015590189	-0.1959436917	 0.134877
H	-0.9968032552	 1.7615216196	-0.9321476592	 0.143642
H	-0.8780784942	 1.9348537308	 0.8281693562	 0.127475
H	 0.7812082655	 0.0430796292	 0.918162762	 0.137984
H	-0.7506250865	-0.4759577449	 0.2177091032	 0.14007
H	 4.8218881757	-1.2053307509	 1.141165441	 0.203321
51.3907	129.1651	156.6579	182.3518	216.6171	312.3722	367.0744	495.633	528.1178	575.6422	578.8112	612.2986	666.6181	693.8622	702.3532	767.4073	804.1635	968.2133	1008.6638	1078.0249	1087.449	1150.5902	1229.6536	1297.0483	1357.0635	1388.7474	1417.6684	1477.5978	1489.9258	1497.7677	1507.0078	1602.0271	2243.0539	3040.4276	3050.7401	3096.1189	3125.2021	3132.9649	3501.3511
CCC1=C(N=NO1)C#C	CCc1c(nno1)C#C	
InChI=1S/C6H6N2O/c1-3-5-6(4-2)9-8-7-5/h1H,4H2,2H3	InChI=1S/C6H6N2O/c1-3-5-6(4-2)9-8-7-5/h1H,4H2,2H3
