18
gdb 87897	2.67065	1.55641	1.15193	4.4414	79.73	-0.2258	-0.0467	0.1791	1097.0997	0.147756	-401.950336	-401.942256	-401.941312	-401.982926	30.954	
C	-0.1328029693	 1.4528113929	-0.0907753883	-0.316345
N	 0.0253085252	 0.0132270149	 0.0537465429	-0.100029
C	 1.3521000988	-0.5284950754	-0.1573118495	-0.28281
C	 0.769265144	-0.4878364523	 1.2201090216	 0.210352
C	 1.3006702279	 0.3765713647	 2.3599473923	-0.369773
C	 1.0565394905	-0.4805233171	 3.579430633	-0.066481
C	 0.4770657431	-1.6537994237	 3.2986251197	-0.173203
C	 0.246891578	-1.7750931935	 1.8403731429	 0.345619
O	-0.2291029208	-2.70744123	 1.2361973108	-0.33628
H	 0.7601500647	 2.0397327145	 0.1801634797	 0.100232
H	-0.3732996368	 1.6675159851	-1.1364786488	 0.132284
H	-0.971745151	 1.7926802021	 0.5247282974	 0.127528
H	 1.3936541487	-1.4839623312	-0.673921012	 0.134205
H	 2.1673379231	 0.164146119	-0.36813413	 0.104882
H	 2.3648273115	 0.6206642695	 2.2572198655	 0.125958
H	 0.7734178161	 1.3346490026	 2.44868758	 0.126454
H	 1.3394962053	-0.1429579787	 4.5707706053	 0.11719
H	 0.203545811	-2.4315134933	 3.9996362477	 0.120218
81.3645	156.6808	215.1806	233.021	280.3162	312.037	395.6272	440.6155	504.2921	567.9975	666.8975	683.6835	761.2051	776.8885	845.0395	884.6303	924.2015	963.0249	985.3172	1009.3805	1044.7118	1076.2986	1119.25	1125.2057	1149.4111	1166.723	1187.2623	1212.63	1258.8788	1288.2969	1361.0201	1394.9234	1449.5291	1468.9891	1488.7168	1497.537	1502.7513	1648.3706	1817.5135	2968.8304	3028.8861	3055.7992	3070.431	3081.0391	3106.2292	3181.0166	3190.4085	3229.3679
CN1CC11CC=CC1=O	CN1C[C@]21CC=CC2=O	
InChI=1S/C7H9NO/c1-8-5-7(8)4-2-3-6(7)9/h2-3H,4-5H2,1H3	InChI=1S/C7H9NO/c1-8-5-7(8)4-2-3-6(7)9/h2-3H,4-5H2,1H3/t7-,8?/m1/s1
