16
gdb 81762	3.32614	1.2607	1.08269	3.1276	72.71	-0.2387	0.0188	0.2575	1112.8292	0.123043	-437.798267	-437.789706	-437.788762	-437.831579	32.547	
O	 0.0296527617	 1.4248716213	 0.1994533287	-0.426926
C	 0.0411700019	 0.0360721043	 0.0744466026	 0.116436
C	-1.3117141988	-0.6743514275	 0.0099275094	-0.160566
N	-1.9425345812	-0.1509592153	-1.2215845239	-0.413285
C	-0.982835836	-1.3001048139	-1.3154618871	 0.227696
C	-1.3647115982	-2.555607963	-1.8565963595	 0.094862
C	-1.6610357958	-3.6223927893	-2.3286044016	-0.379068
C	 0.389948958	-0.5973738493	-1.3535871507	 0.036773
O	 0.6212833731	 0.2656946917	-2.4207144862	-0.427065
H	-0.6511679619	 1.7510801124	-0.4017902089	 0.287418
H	 0.6966714766	-0.3588843013	 0.8533430101	 0.098196
H	-1.9146670713	-1.0790604243	 0.8135079836	 0.113507
H	-2.8850431419	-0.5300045277	-1.2905213425	 0.248707
H	-1.9209404593	-4.5654458738	-2.7419022434	 0.191031
H	 1.2279364689	-1.2944486189	-1.2988251706	 0.103633
H	-0.2053392057	 0.7416206546	-2.57253144	 0.28865
56.6141	130.4265	160.7355	235.5859	289.2677	311.7268	403.8897	461.5054	520.7159	534.2404	591.0493	597.8332	623.0868	659.924	689.3291	738.9111	806.2408	855.0952	936.7392	954.914	990.4442	1029.7817	1095.8267	1132.2716	1161.8024	1186.3258	1210.8603	1244.4298	1271.7442	1311.7246	1351.3769	1389.961	1426.2401	1455.9274	2234.5127	3093.7687	3108.8482	3195.9669	3501.1613	3502.4631	3770.7982	3785.3613
OC1C2NC2(C#C)C1O	O[C@H]1[C@H]2N[C@@]2(C#C)[C@H]1O	
InChI=1S/C6H7NO2/c1-2-6-4(7-6)3(8)5(6)9/h1,3-5,7-9H	InChI=1S/C6H7NO2/c1-2-6-4(7-6)3(8)5(6)9/h1,3-5,7-9H/t3-,4+,5-,6+/m0/s1
