21
gdb 83322	2.13532	1.69995	1.42228	2.9683	81.98	-0.2257	0.0001	0.2258	1070.2903	0.182957	-387.109262	-387.100514	-387.09957	-387.142083	33.979	
C	-0.1613519116	 1.6035531653	-0.0235880028	-0.439487
C	 0.0272004269	 0.0928416344	 0.0043817318	-0.009159
C	 1.1717998259	-0.5989953373	-0.8220948805	-0.158573
C	 2.4512776954	 0.0591902058	-0.2577602888	-0.231687
C	 2.1045395895	 0.0480829102	 1.2720248222	-0.260111
C	 0.7057040016	-0.6178599317	 1.2444136813	 0.197529
C	-0.0078345348	-0.8773211575	 2.54653142	-0.501913
C	 0.9737918271	-1.7255781288	 0.2057195222	 0.406966
O	 0.8834192102	-2.9183590358	 0.185890695	-0.333985
H	 0.7603048737	 2.1540478246	 0.1793517089	 0.122123
H	-0.5304575997	 1.9252833636	-1.0030451722	 0.123257
H	-0.9014338868	 1.9102692639	 0.72333735	 0.122971
H	-0.9283625667	-0.3975022843	-0.2115306664	 0.086351
H	 1.1008519731	-0.7671345526	-1.8949240455	 0.077631
H	 3.3455510644	-0.5246818319	-0.4900726097	 0.111847
H	 2.6044429708	 1.0682626698	-0.6482084598	 0.105695
H	 2.8153822402	-0.5389927381	 1.8605439752	 0.108367
H	 2.0690366443	 1.0515948368	 1.7053934896	 0.102765
H	-0.2190728294	 0.0562616405	 3.0802343459	 0.116393
H	-0.9565693336	-1.3978194251	 2.3820861614	 0.124552
H	 0.6026527294	-1.5040521517	 3.2054725422	 0.128466
138.1647	163.9625	178.2159	194.2607	238.2589	273.2363	283.8067	327.1105	499.8662	513.4614	589.1091	684.3535	699.4201	727.0548	781.8708	792.5939	857.7303	904.7397	908.7998	962.5789	981.7766	1022.5997	1037.0902	1066.3082	1111.1325	1122.8065	1136.3071	1158.3627	1194.7507	1232.7905	1244.2052	1249.6455	1260.102	1318.5736	1355.5329	1404.1547	1411.3007	1417.5469	1484.2792	1489.4306	1491.1947	1498.5755	1507.8553	1519.1599	1893.5686	3028.7231	3036.8815	3047.836	3053.0979	3065.464	3088.976	3092.1542	3096.3809	3102.308	3108.5894	3119.6125	3141.0618
CC1C2CCC1(C)C2=O	C[C@H]1[C@H]2CC[C@]1(C)C2=O	
InChI=1S/C8H12O/c1-5-6-3-4-8(5,2)7(6)9/h5-6H,3-4H2,1-2H3	InChI=1S/C8H12O/c1-5-6-3-4-8(5,2)7(6)9/h5-6H,3-4H2,1-2H3/t5-,6+,8-/m0/s1
