18
gdb 63245	2.31258	1.73864	1.27137	3.9712	73.61	-0.2456	0.0073	0.253	1042.8713	0.148114	-439.13345	-439.124916	-439.123972	-439.16647	32.813	
C	 0.0257583583	 1.5630962418	-0.0561327402	-0.412361
C	-0.0130658046	 0.0173259529	-0.0795578444	 0.23474
O	-1.3574660631	-0.4245466393	-0.0820534197	-0.474423
C	 0.6824360112	-0.5117833827	-1.3051266483	-0.075958
C	 1.9500333719	-0.9053012984	-1.2913919867	-0.078371
C	 2.7823647097	-0.9225729261	-0.0425279809	-0.207402
N	 1.9735135311	-0.7791973037	 1.1594235737	-0.333471
C	 0.6480782634	-0.5018601579	 1.2074580523	 0.376457
O	-0.0207441947	-0.6179922623	 2.2244601957	-0.4072
H	 1.0518448208	 1.9435293513	-0.0620695785	 0.112986
H	-0.4979815398	 1.947533811	-0.9356539821	 0.125132
H	-0.4836101694	 1.9258302497	 0.8413756782	 0.130466
H	-1.5773828019	-0.5380620325	 0.8562795544	 0.289645
H	 0.0919123165	-0.5176697235	-2.2164626763	 0.110838
H	 2.4505095351	-1.2299964529	-2.1983946858	 0.103794
H	 3.3327013574	-1.8713684836	 0.0178276392	 0.127361
H	 3.5482604648	-0.1318201779	-0.0890540031	 0.126311
H	 2.3647467331	-1.0980844859	 2.0343706526	 0.251455
62.7109	142.4407	226.7271	241.6542	264.2872	341.1571	357.4789	464.1865	484.555	493.874	533.6108	557.1527	595.6738	684.1667	732.6904	765.0282	853.5601	912.7684	948.5957	969.1484	999.299	1024.9424	1087.8886	1096.9977	1147.6188	1182.8418	1217.2391	1249.8752	1325.0906	1377.202	1385.5328	1426.0163	1436.4895	1480.8217	1486.8569	1493.0374	1521.676	1738.1288	1772.9039	2974.8955	3020.7965	3037.0028	3116.4863	3123.1468	3168.3077	3189.1603	3605.0833	3697.6846
CC1(O)C=CCNC1=O	C[C@@]1(O)C=CCNC1=O	
InChI=1S/C6H9NO2/c1-6(9)3-2-4-7-5(6)8/h2-3,9H,4H2,1H3,(H,7,8)	InChI=1S/C6H9NO2/c1-6(9)3-2-4-7-5(6)8/h2-3,9H,4H2,1H3,(H,7,8)/t6-/m1/s1
