17
gdb 72351	2.33376	1.66448	1.32696	0.921	79.12	-0.2262	0.0111	0.2373	1022.7564	0.134863	-384.64776	-384.639631	-384.638687	-384.679966	32.226	
O	-0.0505478157	 1.3648612857	 0.0037675487	-0.464732
C	-0.0080037244	-0.0246768584	-0.0646345601	 0.381246
C	 0.9006162578	-0.6876299693	-1.1050475491	-0.353539
C	 0.0775331358	-1.8564456842	-1.6005223034	-0.060589
C	-1.1242952684	-1.9042747904	-1.0205277694	-0.073525
C	-1.2917114798	-0.8052014982	-0.0305205739	-0.138554
C	-0.3450373328	-0.8146590911	 1.1971146427	-0.315894
C	 0.3943621565	-1.9635289956	 1.6174555054	 0.363398
C	 1.0397940123	-2.9131763084	 1.9787086644	-0.464319
H	 0.7510196028	 1.6688377599	 0.4443091907	 0.285546
H	 1.1248104876	 0.0302392937	-1.9044831863	 0.116
H	 1.8575982704	-1.0132736393	-0.6784733238	 0.119468
H	 0.4566663962	-2.56874844	-2.3237905146	 0.098491
H	-1.8858239772	-2.6529942154	-1.2015441868	 0.098633
H	-2.2471066816	-0.3152883744	 0.1175647222	 0.102471
H	-0.7014081419	-0.1724537671	 1.998573174	 0.113728
H	 1.5960811225	-3.7579417075	 2.3008801795	 0.192171
125.7868	129.2056	218.7868	290.5044	306.426	382.2511	389.7383	418.1846	544.531	573.1657	595.8507	609.5892	649.4532	727.2694	748.9886	765.7689	853.9766	897.2947	923.2102	953.5365	962.457	995.7601	1028.4926	1044.861	1087.3938	1137.8555	1153.1809	1214.1959	1234.6841	1304.1026	1309.2709	1326.5265	1376.9485	1436.6723	1469.222	1667.6006	2230.0409	3022.7813	3057.3507	3141.3159	3182.3498	3195.0125	3218.9996	3504.9829	3792.588
OC12CC=CC1C2C#C	O[C@]12CC=C[C@H]1[C@H]2C#C	
InChI=1S/C8H8O/c1-2-6-7-4-3-5-8(6,7)9/h1,3-4,6-7,9H,5H2	InChI=1S/C8H8O/c1-2-6-7-4-3-5-8(6,7)9/h1,3-4,6-7,9H,5H2/t6-,7+,8+/m1/s1
