12
gdb 23776	3.32382	2.277	1.35129	7.0692	60.26	-0.2209	-0.0208	0.2	809.5297	0.085393	-422.672687	-422.666465	-422.665521	-422.703033	23.723	
F	-0.0227837499	 0.0284808412	 0.0043068191	-0.06276
C	-0.0288194058	 1.3576876336	 0.0111008239	 0.124942
C	-1.2124972989	 2.0120590204	 0.0299522056	-0.096999
N	-1.2419134211	 3.3847397782	 0.0372171067	-0.317646
C	-0.0840099463	 4.1073228379	 0.0256539844	 0.030891
C	 1.1261834615	 3.4963774775	 0.0066712394	-0.248681
C	 1.2719877768	 2.0423841564	-0.0025626187	 0.285217
O	 2.3398728502	 1.4440136621	-0.0196114278	-0.392283
H	-2.1618255921	 1.493077801	 0.0398115486	 0.145812
H	-2.1294868683	 3.8569502151	 0.0513559587	 0.273839
H	-0.2048868813	 5.1838149647	 0.0326568715	 0.137272
H	 2.033160395	 4.087870982	-0.0022770012	 0.120397
140.6549	299.308	304.3556	414.1344	451.7289	452.9635	557.0128	562.0526	581.4374	743.2538	747.0857	842.0933	872.2921	907.7341	955.4334	1030.4998	1131.229	1196.9182	1250.1937	1302.8135	1383.9784	1421.547	1551.2785	1632.7844	1692.4671	1737.3807	3203.383	3222.0092	3223.9034	3671.422
FC1=CNC=CC1=O	Fc1c[nH]ccc1=O	
InChI=1S/C5H4FNO/c6-4-3-7-2-1-5(4)8/h1-3H,(H,7,8)	InChI=1S/C5H4FNO/c6-4-3-7-2-1-5(4)8/h1-3H,(H,7,8)
