19
gdb 30916	2.12827	1.64512	0.99423	1.9787	79.55	-0.2147	0.0221	0.2368	1209.0873	0.159758	-419.249006	-419.2395	-419.238556	-419.283523	33.984	
C	-0.1091072034	 1.4255938621	 0.1315391487	-0.349644
N	-0.0407218249	-0.023416979	 0.1001763767	-0.033177
C	-0.019319864	-0.8165351451	-1.0027820111	-0.010432
N	 0.0599673442	-2.0936577877	-0.7044179326	-0.328909
C	 0.0910317485	-2.1453504564	 0.6714701035	 0.203088
C	 0.185257517	-3.4558085113	 1.3859289183	-0.490629
C	 0.032770543	-0.8710724983	 1.1977780615	 0.159104
C	-0.0038855061	-0.3599225513	 2.5958499556	-0.192864
O	-1.2287488216	 0.3077029347	 2.9226428597	-0.412589
H	 0.8620943131	 1.8642202257	 0.3867721614	 0.138672
H	-0.4055730685	 1.7891748591	-0.8542627672	 0.139428
H	-0.843649097	 1.7414129595	 0.8748209315	 0.165411
H	-0.0728589718	-0.4013439967	-1.9995107743	 0.122726
H	 1.1323640999	-3.9587370458	 1.1611716241	 0.135178
H	 0.1186384318	-3.3345506985	 2.4704397509	 0.1135
H	-0.6172281084	-4.1290027404	 1.0668247861	 0.134367
H	 0.1913918102	-1.1925116648	 3.2848792915	 0.109066
H	 0.7750234624	 0.390615362	 2.7742528213	 0.115482
H	-1.9445960544	-0.2994145579	 2.7044795544	 0.282222
85.2689	109.8149	126.5285	135.7672	179.9035	259.1926	273.5843	292.0653	371.2722	412.3935	481.3149	589.2932	656.6602	694.8099	744.9687	778.2305	823.2514	943.0657	983.2926	1015.4748	1060.3129	1078.268	1100.3881	1156.5874	1212.2032	1214.8191	1268.2432	1319.8671	1358.5811	1404.6845	1411.0237	1421.8002	1424.7763	1453.984	1474.6362	1484.1089	1489.0392	1503.1745	1526.3491	1544.0317	1617.7194	3016.2677	3034.754	3036.9813	3057.76	3088.4421	3109.7957	3115.4496	3146.8409	3235.8176	3802.8107
CN1C=NC(C)=C1CO	Cn1cnc(C)c1CO	
InChI=1S/C6H10N2O/c1-5-6(3-9)8(2)4-7-5/h4,9H,3H2,1-2H3	InChI=1S/C6H10N2O/c1-5-6(3-9)8(2)4-7-5/h4,9H,3H2,1-2H3
