19
gdb 103906	2.68348	0.96774	0.85217	4.1488	73.27	-0.2695	0.0016	0.271	1422.2702	0.155674	-460.166844	-460.156733	-460.155789	-460.202965	35.824	
C	 0.1955116818	 1.283905934	-0.1111765751	-0.397949
C	-0.0081158385	-0.1974125528	 0.2271435925	-0.232299
C	-1.4508692326	-0.6390007383	 0.0844973705	 0.361521
O	-2.3589137845	-0.0194234894	 0.9576092687	-0.46847
C	-1.9820859282	-1.0703808308	-1.2729421994	-0.379399
C	-1.7941607385	-2.0777147679	-0.1751714361	 0.059627
O	-0.7661315621	-3.0277533524	-0.3738141849	-0.186351
C	-0.3504825753	-3.6965810467	 0.7256304679	 0.170747
O	 0.5106170622	-4.521588331	 0.6843147561	-0.271019
H	 1.2444000225	 1.5699490967	 0.0054195186	 0.124398
H	-0.0989535751	 1.5000853622	-1.1438531741	 0.119478
H	-0.3923017836	 1.9270086373	 0.5527705609	 0.11341
H	 0.6218279005	-0.81926529	-0.4159409084	 0.119648
H	 0.3092658686	-0.3842425999	 1.2608106057	 0.10866
H	-2.5188244897	 0.8748247482	 0.6366659965	 0.288396
H	-3.0005336483	-0.8099753609	-1.5373047654	 0.123145
H	-1.2796544843	-1.1129631209	-2.09821509	 0.134735
H	-2.6796389584	-2.4693381892	 0.3167119608	 0.122694
H	-0.8961835664	-3.3979418582	 1.6406880052	 0.08903
31.6595	87.477	112.3073	130.7965	190.8276	219.7834	271.7579	290.7838	339.32	380.2469	422.5848	457.3564	576.831	650.0815	700.4058	784.6133	866.3429	907.1842	911.0442	993.6585	1021.8484	1041.5038	1049.8357	1077.4303	1088.1368	1114.4854	1163.9064	1178.0196	1228.4646	1293.732	1309.4059	1329.8096	1377.6776	1402.4915	1407.7872	1428.1184	1479.4155	1482.0171	1499.3021	1509.5807	1869.8292	2963.3789	3030.8483	3034.0255	3082.5583	3104.5982	3112.5045	3138.2495	3155.3322	3232.9992	3800.6494
CCC1(O)CC1OC=O	CC[C@@]1(O)C[C@H]1OC=O	
InChI=1S/C6H10O3/c1-2-6(8)3-5(6)9-4-7/h4-5,8H,2-3H2,1H3	InChI=1S/C6H10O3/c1-2-6(8)3-5(6)9-4-7/h4-5,8H,2-3H2,1H3/t5-,6-/m1/s1
