14
gdb 87086	4.70794	0.70006	0.67725	4.6875	80.29	-0.263	-0.0546	0.2084	1594.8163	0.0988	-436.643217	-436.634311	-436.633367	-436.67719	32.29	
O	 0.0299989338	 1.3806990179	-0.0307617527	-0.421068
C	 0.0682553433	 0.0035286737	 0.0561055879	 0.134675
C	-0.4075649116	-0.7219448678	 1.2817747502	-0.371079
C	-1.2639198017	-0.7481992502	 0.0106873026	 0.041634
O	-2.3516318877	 0.1367197697	-0.0472325069	-0.443193
C	-1.398020652	-1.9581228107	-0.7369120406	 0.128805
C	-1.5120893256	-2.9891711279	-1.3608058348	 0.059253
C	-1.6365435516	-4.1511041049	-2.0633217822	 0.195246
N	-1.7426778441	-5.1433993857	-2.6592269218	-0.335116
H	-0.9012449595	 1.6415227892	 0.0030646643	 0.302486
H	 0.8972821317	-0.4238016797	-0.497739801	 0.132289
H	 0.0878103846	-1.6403021209	 1.5755043965	 0.140109
H	-0.8069398508	-0.1193081899	 2.0910172706	 0.132334
H	-3.0443680889	-0.1792701329	 0.5438914178	 0.303626
75.527	81.9021	189.923	226.4258	262.6585	295.8234	318.2376	382.7886	403.1412	481.3586	522.7344	543.6952	581.1729	598.7138	670.6963	799.993	825.7351	906.997	999.5875	1030.9461	1049.8272	1113.2347	1163.6128	1234.4319	1283.9491	1329.2179	1370.1671	1427.3019	1460.7594	2257.4836	2385.2852	3134.2781	3177.5898	3234.2733	3747.3478	3801.299
OC1CC1(O)C#CC#N	O[C@H]1C[C@]1(O)C#CC#N	
InChI=1S/C6H5NO2/c7-3-1-2-6(9)4-5(6)8/h5,8-9H,4H2	InChI=1S/C6H5NO2/c7-3-1-2-6(9)4-5(6)8/h5,8-9H,4H2/t5-,6+/m0/s1
