16
gdb 64748	2.66948	1.30122	1.11553	6.1495	69.55	-0.2406	0.0102	0.2508	1118.1821	0.124594	-434.09195	-434.082985	-434.082041	-434.12599	32.159	
N	-0.1244972586	 1.5224605265	 0.1182653815	-0.558185
C	-0.0271191243	 0.082146511	 0.0221297501	 0.14381
C	 0.8751755436	-0.4595514238	 1.1442333249	-0.367312
C	 2.2270887618	 0.0962454226	 1.0969498843	 0.273699
N	 3.283704495	 0.5630936653	 1.0731107315	-0.308026
C	-1.4001401634	-0.6610655147	-0.0744132457	-0.203211
N	-0.9288045059	-1.2431946057	-1.3327467703	-0.327453
C	 0.2659055161	-0.565126189	-1.3818483313	 0.375558
O	 1.1418844118	-0.4929951112	-2.1988229518	-0.347213
H	 0.8028242125	 1.9353724664	 0.0477889807	 0.260272
H	-0.6630246547	 1.8944348413	-0.658847816	 0.240067
H	 0.4317393916	-0.1965656284	 2.1110591829	 0.163746
H	 0.9358548303	-1.5509795601	 1.0849811558	 0.158285
H	-1.6087293657	-1.3905766488	 0.7147896253	 0.117561
H	-2.2501971762	 0.020858351	-0.1764612359	 0.121374
H	-1.3999553438	-1.8113284024	-2.020996276	 0.257029
69.8068	86.1325	141.0056	188.7055	259.4963	283.3313	298.286	373.9957	394.5114	469.0987	515.1217	548.1012	732.3894	753.7843	777.7994	875.1014	887.862	922.1336	978.5811	1002.0925	1027.1108	1086.0703	1149.8257	1163.0703	1212.5563	1271.4884	1297.3948	1315.5785	1366.9737	1398.2351	1454.1488	1529.1485	1665.1416	1897.2135	2363.2903	3039.4857	3048.7184	3088.6591	3096.0102	3486.2998	3562.966	3613.6604
NC1(CC#N)CNC1=O	N[C@@]1(CC#N)CNC1=O	
InChI=1S/C5H7N3O/c6-2-1-5(7)3-8-4(5)9/h1,3,7H2,(H,8,9)	InChI=1S/C5H7N3O/c6-2-1-5(7)3-8-4(5)9/h1,3,7H2,(H,8,9)/t5-/m0/s1
