16
gdb 32035	2.81967	1.47669	0.97513	3.0907	79.85	-0.1959	-0.031	0.1649	1161.777	0.124628	-437.916695	-437.908597	-437.907652	-437.949726	29.981	
C	-0.1088568055	 1.44270331	 0.0096216307	-0.243898
O	-0.0412369887	 0.0135288301	 0.0052767333	-0.254067
C	-1.1761417107	-0.6855315052	 0.0119079229	 0.509475
C	-1.1971289114	-2.041298168	 0.0086198321	-0.336549
C	-2.4790122288	-2.6676738776	 0.016475284	-0.043154
C	-3.6263243347	-1.9450041341	 0.026782954	-0.185678
C	-3.5938043433	-0.5057373182	 0.0302196809	 0.381682
N	-4.5995641963	 0.2677983347	 0.0396428625	-0.537294
O	-2.2881518163	 0.061309743	 0.0220118574	-0.280676
H	 0.9285676588	 1.7767048297	 0.0028705327	 0.144083
H	-0.6280807089	 1.8165462154	-0.8769519985	 0.142682
H	-0.6149376503	 1.8117499753	 0.90575299	 0.142682
H	-0.2694018928	-2.592858251	 0.0003778935	 0.112999
H	-2.5264387145	-3.7518354445	 0.0140601205	 0.113134
H	-4.6074563754	-2.3990113923	 0.0328636564	 0.118234
H	-4.3149642612	 1.2461952727	 0.0400374975	 0.216345
76.9657	138.5598	157.8111	208.3696	211.6114	415.9292	417.8667	490.0984	518.32	579.5339	668.1856	716.7732	733.7168	773.8408	807.8245	838.1876	888.3518	977.654	995.725	1016.9341	1055.915	1095.8335	1164.1101	1174.8697	1199.6189	1242.3444	1326.3075	1389.2482	1440.9632	1486.6386	1487.9782	1499.1652	1593.5402	1668.6929	1750.2531	3046.5297	3120.2249	3158.2556	3185.6405	3235.1323	3247.6282	3504.3044
COC1=CC=CC(=N)O1	COC1=CCC=C([NH])O1	
InChI=1S/C6H7NO2/c1-8-6-4-2-3-5(7)9-6/h2-4,7H,1H3	InChI=1S/C6H8NO2/c1-8-6-4-2-3-5(7)9-6/h3-4,7H,2H2,1H3
