22
gdb 80482	2.57303	1.38364	1.18304	2.2533	81.78	-0.218	0.0623	0.2804	1174.8922	0.194234	-404.325296	-404.31595	-404.315006	-404.359195	35.654	
C	-0.7097067488	 0.9328697684	 1.3649347274	-0.427686
C	 0.2389056159	-0.1892698842	 0.9346293798	-0.001827
C	 1.0291813097	 0.1408278133	-0.360650032	-0.246073
C	 2.4246367621	-0.4424256658	-0.1866024705	-0.029622
C	 2.5868960861	-0.8811127858	 1.2393598616	-0.024957
C	 1.3141372426	-0.5523633065	 2.0082468694	 0.071252
O	 1.6718064324	 0.5417006739	 2.8498065003	-0.428829
N	 2.6051179027	-1.8419878494	 0.1552949609	-0.097298
C	 1.6292583471	-2.8926588976	-0.0661219047	-0.320453
H	-0.1558486974	 1.8504893567	 1.5819574669	 0.129793
H	-1.4308319691	 1.151207476	 0.5709673667	 0.116822
H	-1.2850245409	 0.6595353746	 2.2579675693	 0.102591
H	-0.3696465785	-1.0834092485	 0.7652722175	 0.078991
H	 0.5191238053	-0.2344095788	-1.2555118497	 0.098794
H	 1.1246186466	 1.226186488	-0.4848467384	 0.10504
H	 3.2366325968	 0.0024210633	-0.7576829802	 0.084633
H	 3.5109828991	-0.7765958956	 1.8023727293	 0.09269
H	 0.9727818852	-1.397315473	 2.626149987	 0.062514
H	 0.9314207761	 0.7203971544	 3.437033986	 0.284168
H	 0.5722071887	-2.6009998213	 0.0029944015	 0.10174
H	 1.7921323006	-3.3091604895	-1.0657915663	 0.123592
H	 1.8064629177	-3.6943349427	 0.6582587281	 0.124126
72.7667	108.1246	158.6294	229.456	244.5227	276.336	292.889	320.7532	347.1675	422.2875	474.2123	578.1766	677.8238	709.371	735.8311	809.5995	831.0449	892.5076	941.5651	950.0687	999.7061	1025.8887	1034.1496	1060.7657	1105.9161	1116.3797	1138.1621	1147.0796	1155.3259	1188.5974	1210.5523	1238.8484	1298.741	1300.9337	1326.0297	1334.0391	1345.2988	1365.9363	1398.4158	1415.6012	1428.453	1459.7356	1485.1392	1491.1473	1498.1069	1504.5436	1508.1164	2974.21	3001.7447	3025.2136	3030.1936	3039.844	3065.9436	3068.5394	3089.5683	3096.1755	3115.3742	3126.2324	3142.1666	3828.7366
CC1CC2C(C1O)N2C	C[C@H]1C[C@H]2[C@@H]([C@H]1O)N2C	
InChI=1S/C7H13NO/c1-4-3-5-6(7(4)9)8(5)2/h4-7,9H,3H2,1-2H3	InChI=1S/C7H13NO/c1-4-3-5-6(7(4)9)8(5)2/h4-7,9H,3H2,1-2H3/t4-,5-,6-,7-,8?/m0/s1
