17
gdb 28272	5.03456	1.25865	1.01968	4.2232	84.11	-0.1972	-0.0184	0.1788	1146.6536	0.13887	-380.927713	-380.920423	-380.919479	-380.959349	28.194	
C	-0.0192438416	 1.4539936782	 0.0544150821	-0.489487
C	-0.0009424248	-0.0364480764	-0.0211095	 0.295066
C	-0.0372386222	-0.8290374659	-1.1095801081	-0.319447
C	 0.0013473148	-2.2191576919	-0.6865671066	 0.405342
N	-0.0041869135	-3.426238144	-1.2100645611	-0.365738
C	 0.0558381733	-4.2642103046	-0.1154092665	-0.097122
C	 0.0975254541	-3.5566512171	 1.066503878	-0.154473
N	 0.0616083129	-2.2390034191	 0.6813380205	-0.01373
C	 0.0666667067	-0.8999188345	 1.2368184788	-0.280733
H	 0.877151152	 1.8446787809	 0.5531576654	 0.131104
H	-0.0681621074	 1.8959680428	-0.9437294743	 0.136302
H	-0.8808965982	 1.8192862331	 0.6280345493	 0.131142
H	-0.0870241492	-0.5065414258	-2.1397838663	 0.119561
H	 0.066108233	-5.3375246794	-0.2333460635	 0.103858
H	 0.1472030421	-3.8678848747	 2.0964819448	 0.12463
H	 0.9759979037	-0.7040076893	 1.8187753075	 0.136862
H	-0.7934658258	-0.7295257224	 1.8964217401	 0.136862
126.678	156.7654	212.3222	267.4504	307.2397	458.9383	483.0312	532.3578	628.9178	720.78	750.9231	754.7284	808.9363	841.3944	869.7426	878.2184	951.0117	966.7002	1009.6428	1074.6023	1086.1508	1137.4284	1164.3019	1193.7925	1195.4716	1260.0565	1298.1732	1326.1444	1398.1333	1415.5885	1441.6689	1475.8432	1477.5473	1485.9207	1508.6983	1583.9961	1667.7028	3014.8835	3026.5111	3056.6634	3060.2376	3117.9711	3240.4613	3244.3882	3278.7837
CC1=CC2=NC=CN2C1	CC1=Cc2nccn2C1	
InChI=1S/C7H8N2/c1-6-4-7-8-2-3-9(7)5-6/h2-4H,5H2,1H3	InChI=1S/C7H8N2/c1-6-4-7-8-2-3-9(7)5-6/h2-4H,5H2,1H3
