23
gdb 58304	2.75172	0.97446	0.86327	2.1604	82.56	-0.244	0.079	0.323	1483.2065	0.202986	-425.408096	-425.39751	-425.396565	-425.444268	39.27	
C	-0.5353880269	 1.3991809261	 0.0090159533	-0.406685
C	 0.0598758051	-0.0071989647	-0.0843349506	 0.142582
O	 0.9679328872	-0.1172045258	-1.1728280193	-0.442277
C	 0.7536915379	-0.4392779392	 1.2209992707	 0.11996
C	 1.1280266869	-1.9203129279	 1.2134736976	-0.40718
O	 1.9006172993	 0.413812513	 1.31896049	-0.283466
C	 2.518391613	 0.467277782	 2.5673445455	 0.153858
C	 3.7307214798	-0.3835259473	 2.853667017	-0.282318
C	 3.8680196971	 1.1067124008	 2.6107524335	-0.298605
H	 0.2374187551	 2.1224103491	 0.2853965346	 0.123815
H	-0.9573613258	 1.6883273574	-0.9568000782	 0.120126
H	-1.3297161607	 1.4425551826	 0.7625045732	 0.104927
H	-0.7404987918	-0.7263219256	-0.2956616903	 0.079991
H	 1.7623382079	 0.3569376484	-0.896929773	 0.28526
H	 0.0817687382	-0.2301491096	 2.0687653771	 0.064397
H	 0.2221623421	-2.533690679	 1.1651427876	 0.113047
H	 1.741947076	-2.1438526389	 0.33729975	 0.132195
H	 1.676248171	-2.1981536284	 2.1163920874	 0.120407
H	 1.8299762419	 0.6645828829	 3.3897214185	 0.085505
H	 3.8740178084	-0.7683626729	 3.8577621937	 0.112745
H	 4.0658643699	-1.0413206992	 2.0603559575	 0.122414
H	 4.2856958252	 1.414104912	 1.6586272896	 0.123087
H	 4.1070044731	 1.7587568141	 3.4430638247	 0.116213
35.9373	75.9197	109.2351	152.1995	218.0622	234.3165	241.1043	288.9213	325.5697	380.9372	401.4683	425.1089	493.2368	521.9758	631.1624	759.4631	783.0631	813.5564	834.3416	893.7725	940.3167	966.8111	986.1238	1021.8622	1029.1473	1057.2389	1070.2957	1081.7498	1102.0459	1125.3813	1149.6604	1173.6022	1194.24	1201.6468	1243.8257	1298.3016	1332.0467	1356.1203	1383.596	1395.903	1397.8365	1412.5536	1436.0705	1453.6662	1487.1944	1491.4388	1495.6808	1499.8387	1501.5748	2977.1079	3036.1622	3040.5687	3047.2675	3095.2945	3107.4916	3115.2007	3125.9617	3135.1539	3135.9165	3141.2289	3220.2973	3234.4093	3783.2144
CC(O)C(C)OC1CC1	C[C@@H](O)[C@@H](C)OC1CC1	
InChI=1S/C7H14O2/c1-5(8)6(2)9-7-3-4-7/h5-8H,3-4H2,1-2H3	InChI=1S/C7H14O2/c1-5(8)6(2)9-7-3-4-7/h5-8H,3-4H2,1-2H3/t5-,6-/m1/s1
