17
gdb 22770	2.164	1.38035	0.93599	2.9809	73.8	-0.2385	-0.033	0.2055	1248.3252	0.133408	-455.081614	-455.072215	-455.07127	-455.116461	33.428	
C	-1.0738329802	 1.2023995092	 0.2166903698	-0.381896
C	-0.2012190127	-0.0226101087	-0.0049064808	-0.033145
N	 0.9943029585	 0.1893126845	-0.8823903688	-0.344704
C	 1.9148018138	-0.4761090349	 0.0804385185	-0.159217
C	 3.1470403414	 0.3580625599	 0.4004269884	 0.188731
O	 4.2561170706	-0.0881792233	 0.5185351634	-0.242866
C	 0.7673338131	-0.4378692489	 1.083887223	 0.377514
N	 0.6144766786	-0.5915388861	 2.3274050205	-0.225163
O	 1.8198922019	-0.9359924197	 2.9518773566	-0.38236
H	-0.4647445201	 2.0527847264	 0.5333574961	 0.125804
H	-1.5931525275	 1.4736689996	-0.7079408981	 0.120086
H	-1.8239279301	 0.9990575246	 0.9869678409	 0.130574
H	-0.8215079312	-0.8736325956	-0.3250280963	 0.093237
H	 0.9460583948	-0.2594694681	-1.7896926853	 0.22951
H	 2.234520416	-1.4966457357	-0.167301799	 0.107698
H	 2.9253801789	 1.4438805666	 0.4923594566	 0.082456
H	 1.5668143142	-0.9976596199	 3.8795875046	 0.313743
62.3978	71.8706	143.5728	152.1704	211.3021	254.8514	312.918	333.3401	387.5526	432.3852	464.1872	569.3539	588.8256	655.0881	748.723	851.6687	941.3624	969.0855	997.2949	1021.4798	1052.4424	1063.4367	1080.6794	1131.1331	1165.9406	1196.9425	1257.0231	1309.5909	1367.7452	1370.975	1403.2274	1411.344	1414.2073	1486.1736	1492.3598	1794.1746	1836.6621	2897.9215	2985.9571	3029.2374	3041.3601	3113.4375	3127.4884	3545.9964	3814.6624
CC1NC(C=O)C1=NO	C[C@H]1N[C@@H](C=O)C1=NO	
InChI=1S/C5H8N2O2/c1-3-5(7-9)4(2-8)6-3/h2-4,6,9H,1H3	InChI=1S/C5H8N2O2/c1-3-5(7-9)4(2-8)6-3/h2-4,6,9H,1H3/t3-,4+/m1/s1
