14
gdb 24835	2.45568	1.89222	1.28169	7.331	74.4	-0.2497	-0.0577	0.192	961.1973	0.104124	-429.061286	-429.053997	-429.053052	-429.093431	27.077	
N	-0.1689328783	 1.4133584626	 0.1303025029	-0.472124
C	-0.0413160249	 0.1570766166	 0.0076396451	 0.29656
N	 1.1978049543	-0.4926096852	-0.1194581854	-0.260657
C	 1.4230631859	-1.4343621402	-0.9421652859	 0.094
N	 0.5738675439	-2.0082419387	-1.87640862	-0.302125
C	-0.7980054248	-1.84851377	-2.0018447447	 0.093999
N	-1.6241537826	-1.3145719039	-1.1975622759	-0.260656
C	-1.2602891011	-0.7358145505	 0.0297558939	 0.296559
N	-1.9083912183	-0.9033555764	 1.1074708985	-0.472124
H	 0.7557598043	 1.8522346755	 0.098222751	 0.222466
H	 2.4231276678	-1.8666828343	-0.9796414348	 0.136825
H	 1.0097973912	-2.6200882538	-2.5509828133	 0.267985
H	-1.1773820976	-2.2873468001	-2.9248471039	 0.136825
H	-2.69948137	-1.5297464617	 0.9328030526	 0.222466
86.6817	95.6196	261.88	314.5588	327.9064	445.2245	469.461	524.0345	576.4138	655.9531	711.0177	787.6983	791.5146	909.0889	921.261	957.0696	959.7393	973.0498	977.3125	995.5441	1075.5094	1208.1796	1297.1878	1350.7696	1425.5293	1461.502	1510.5052	1695.4659	1708.5389	1732.4147	1752.4217	3132.9951	3133.2607	3435.8548	3436.3319	3607.5599
N=C1N=CNC=NC1=N	[NH][C]1N=CNC=N[C]1[NH]	
InChI=1S/C4H5N5/c5-3-4(6)9-2-7-1-8-3/h1-2H,(H3,5,6,7,8,9)	InChI=1S/C4H5N5/c5-3-4(6)9-2-7-1-8-3/h1-2H,(H3,5,6,7,8,9)
