19
gdb 105788	2.27607	1.41396	1.1809	3.1001	71.08	-0.238	-0.0264	0.2116	1139.2512	0.158181	-460.170696	-460.161432	-460.160487	-460.205435	33.365	
O	 0.6341689329	 0.5231017939	-0.6651327497	-0.411793
C	-0.193157373	 0.3918614046	 0.4742350869	-0.128561
C	-1.5267659881	-0.3023948609	 0.1613637994	 0.261626
C	-1.4124233883	-1.784644867	-0.2178023674	-0.288824
C	-2.6851577152	-2.382242189	 0.4043123312	-0.236219
C	-2.849389164	-1.5352643904	 1.6678612264	-0.068588
O	-2.3394314792	-0.2363851613	 1.3457192603	-0.306589
C	-2.2857077296	 0.504068224	-0.9006923437	 0.152088
O	-2.5437301224	 0.1225368502	-2.01148297	-0.253403
H	 0.8687740732	-0.357990811	-0.9739968886	 0.29212
H	 0.2954962235	-0.1526264994	 1.2964005726	 0.096824
H	-0.3918457979	 1.408740322	 0.8276048405	 0.123231
H	-1.3706232422	-1.9141528404	-1.3003371798	 0.135575
H	-0.5159447334	-2.2253165575	 0.2337220406	 0.095708
H	-3.5340296235	-2.2342187199	-0.2698872897	 0.126606
H	-2.6022219682	-3.4500837931	 0.6185469723	 0.107742
H	-3.8894527825	-1.4257659629	 1.9899096383	 0.113061
H	-2.2738240524	-1.9546403777	 2.5058762552	 0.098431
H	-2.6226759797	 1.4958638158	-0.5259746349	 0.090967
57.0493	74.8359	110.7413	178.7096	203.3455	282.5586	304.2496	341.3835	385.713	427.658	560.994	599.4547	674.6573	775.1532	879.5383	886.4613	904.3668	935.5558	947.8439	1009.3753	1029.2723	1056.9443	1086.568	1098.5033	1143.5606	1189.0245	1196.6664	1221.3226	1262.5562	1299.8964	1335.0972	1342.5541	1367.8284	1386.4208	1401.1184	1418.3361	1480.3613	1497.3219	1505.6143	1527.5904	1835.0823	2895.1773	2993.4397	2998.2502	3040.0873	3061.7651	3079.0712	3083.3928	3115.8855	3127.8078	3817.3422
OCC1(CCCO1)C=O	OC[C@]1(CCCO1)C=O	
InChI=1S/C6H10O3/c7-4-6(5-8)2-1-3-9-6/h4,8H,1-3,5H2	InChI=1S/C6H10O3/c7-4-6(5-8)2-1-3-9-6/h4,8H,1-3,5H2/t6-/m0/s1
