17
gdb 43102	2.74039	2.0494	1.55525	3.498	72.57	-0.237	0.0035	0.2405	888.5073	0.139272	-417.974871	-417.968329	-417.967385	-418.005843	26.364	
N	-0.129510085	 1.2048451855	-0.3050822031	-0.539169
C	-0.0516666085	-0.0262761392	-0.0554918233	 0.381475
C	-1.0881614883	-1.1172704248	 0.1622093739	 0.009652
O	-1.356122003	-1.7518250354	-1.1184053826	-0.305677
C	-0.229272038	-2.6666775455	-0.9819335348	 0.116371
C	 0.9462569399	-2.3349445436	-1.9146207318	-0.246243
C	 1.8069950678	-1.2885039205	-1.1355891906	-0.193578
N	 1.0394225113	-0.9532638848	 0.0783092096	-0.121586
C	 0.1097229533	-2.0688778487	 0.3937718298	-0.072451
H	 0.7954777687	 1.61170801	-0.4672915912	 0.218779
H	-1.9838594992	-0.9716673604	 0.7637916425	 0.098087
H	-0.5714872496	-3.703096393	-1.044149793	 0.087809
H	 1.5251045571	-3.2340735753	-2.1457910382	 0.107701
H	 0.5606036031	-1.9339833889	-2.8551938745	 0.132133
H	 2.7776740888	-1.7080395848	-0.8546009653	 0.114557
H	 1.992681151	-0.3746769089	-1.7055567257	 0.120353
H	 0.3335437006	-2.6692231116	 1.2727123384	 0.091787
103.5279	204.0347	260.2713	369.1645	448.5463	616.1998	630.799	699.4917	722.1684	773.1912	824.7635	844.4918	863.0169	891.2398	897.7353	920.4057	937.5357	982.0575	1000.4388	1012.9758	1039.0624	1100.5696	1132.8628	1177.4658	1209.2379	1217.2617	1236.9915	1253.193	1267.6554	1279.5788	1306.0827	1322.0866	1334.767	1357.1319	1475.1724	1504.7076	1794.2304	3052.7755	3061.381	3077.442	3099.4042	3118.8369	3131.1315	3142.4056	3439.8663
N=C1C2OC3CCN1C23	[NH][C]1[C@H]2O[C@H]3CCN1[C@@H]23	
InChI=1S/C6H8N2O/c7-6-5-4-3(9-5)1-2-8(4)6/h3-5,7H,1-2H2	InChI=1S/C6H8N2O/c7-6-5-4-3(9-5)1-2-8(4)6/h3-5,7H,1-2H2/t3-,4+,5-/m0/s1
