21
gdb 121039	5.35863	0.71167	0.65184	4.6575	79.03	-0.2612	0.0169	0.2781	1732.8518	0.182949	-424.285953	-424.276659	-424.275714	-424.320797	33.902	
C	 0.0795436316	 1.5631221734	-0.069635679	-0.380712
C	 0.0175946845	 0.0369745246	 0.0360239408	-0.175336
C	-1.4165439486	-0.5061871016	-0.0130057113	-0.192944
C	-1.5072329893	-2.032010808	 0.0461839541	-0.004635
C	-0.9940962799	-2.6528470033	 1.3605981893	-0.084752
O	-1.6862355442	-3.9019679776	 1.5102603473	-0.218665
C	-2.8225989302	-3.9222827769	 0.7568974919	 0.427505
O	-3.5729699946	-4.8532142147	 0.7581023046	-0.334475
C	-2.9256558212	-2.6117156735	-0.0153351413	-0.386422
H	 1.112172156	 1.9232413245	-0.0364195325	 0.116545
H	-0.3659011312	 1.9120888871	-1.0077094789	 0.117492
H	-0.4660619554	 2.039635946	 0.7522746677	 0.117118
H	 0.6005385786	-0.4118892914	-0.7790923596	 0.100222
H	 0.5031297877	-0.2817599478	 0.9675318972	 0.102037
H	-1.9994914567	-0.0804393436	 0.816275741	 0.096348
H	-1.9010373375	-0.1577429386	-0.9343524097	 0.102526
H	-0.9223758219	-2.4567645537	-0.7799187776	 0.089196
H	 0.0767746144	-2.864834837	 1.3641714258	 0.125509
H	-1.2278788891	-2.0139217592	 2.2229877173	 0.110542
H	-3.645267532	-1.9678045	 0.5069912416	 0.134109
H	-3.3118670111	-2.7894849486	-1.0197420186	 0.138791
63.5516	90.6063	101.0893	166.8586	188.5597	248.579	303.3289	324.4401	431.6424	515.2615	548.6544	641.2949	694.0262	745.6969	838.2928	850.3513	888.9495	909.8839	922.1856	1009.0432	1039.1051	1063.3717	1067.2877	1088.7661	1130.3564	1153.9217	1175.6006	1199.7926	1241.3828	1266.9535	1281.0686	1309.4129	1331.3192	1356.5905	1367.478	1396.1476	1408.4654	1413.8381	1465.6492	1483.3758	1493.4357	1499.9868	1509.6082	1522.0192	1886.5692	3004.9388	3013.2923	3017.8428	3024.9403	3031.6777	3036.0901	3040.8812	3060.0241	3098.5688	3106.0109	3109.4467	3127.6645
CCCC1COC(=O)C1	CCC[C@H]1COC(=O)C1	
InChI=1S/C7H12O2/c1-2-3-6-4-7(8)9-5-6/h6H,2-5H2,1H3	InChI=1S/C7H12O2/c1-2-3-6-4-7(8)9-5-6/h6H,2-5H2,1H3/t6-/m1/s1
