20
gdb 36827	4.0752	0.72406	0.67212	1.8519	89.85	-0.23	0.0408	0.2709	1731.833	0.170645	-365.935309	-365.925988	-365.925044	-365.971245	33.851	
C	 0.5067480887	 1.6307625556	 1.2777955458	-0.283516
C	 0.3723008702	 0.2228315717	 0.8919026023	 0.065999
C	 0.2701666993	-0.9291412194	 0.5448052737	 0.051949
C	 0.1509823965	-2.303993595	 0.1552622031	-0.157033
C	-1.1201016704	-3.0799909569	 0.4690339066	-0.250217
C	-0.814243515	-2.7075089139	-0.949884443	-0.25174
N	 0.8904516584	 2.5896099295	 0.2307329289	-0.073864
C	 1.8231422134	 2.1546155949	-0.8020953117	-0.216819
C	 0.3857142402	 2.3819990156	-1.1213955885	-0.217204
H	-0.4421067207	 1.9830345582	 1.7014193498	 0.132908
H	 1.2523357653	 1.7170114472	 2.0781292005	 0.133982
H	 1.0726389817	-2.8769255539	 0.2035516056	 0.109953
H	-1.0052396792	-4.114634969	 0.7717173096	 0.119752
H	-1.910161674	-2.5424174561	 0.9792240819	 0.127672
H	-1.3967910511	-1.9163675674	-1.406389684	 0.12615
H	-0.4874155067	-3.4834113368	-1.6328344423	 0.119475
H	 2.5779956459	 2.8836558235	-1.0829539042	 0.112421
H	 2.1568778525	 1.1194240326	-0.7874464923	 0.119945
H	-0.2126046102	 1.4942441539	-1.3142902301	 0.11781
H	 0.065652015	 3.2809351057	-1.6407322815	 0.112378
25.3001	72.653	77.7062	143.5711	183.4849	307.9141	330.1621	364.0526	456.4744	511.4404	565.376	714.166	754.0771	795.5793	823.0235	826.9545	874.3739	895.8236	902.1523	983.7863	1022.2525	1052.3927	1062.3918	1064.0968	1080.7723	1117.794	1118.8898	1126.036	1173.4393	1179.1965	1187.2861	1201.404	1229.6576	1288.6187	1310.5121	1360.7601	1390.8738	1466.5835	1467.572	1481.2077	1497.6585	1510.2251	2343.7727	3022.8021	3053.548	3102.3159	3105.1245	3141.5254	3141.9703	3147.3569	3183.6096	3197.3965	3226.0892	3241.1871
C(C#CC1CC1)N1CC1	C(C#CC1CC1)N1CC1	
InChI=1S/C8H11N/c1(2-8-3-4-8)5-9-6-7-9/h8H,3-7H2	InChI=1S/C8H11N/c1(2-8-3-4-8)5-9-6-7-9/h8H,3-7H2
