18
gdb 98997	4.078	0.84679	0.70745	3.3869	73.36	-0.2413	0.027	0.2683	1583.2866	0.146936	-472.491327	-472.480531	-472.479587	-472.529742	35.652	
C	 0.809609351	 1.3589947297	-0.2080639454	-0.331654
N	 0.9020055902	 0.0263577256	-0.7646895266	-0.339422
C	-0.1955400286	-0.6563580961	-1.1523915538	 0.49291
O	-1.3492815003	-0.2702037063	-1.0921437426	-0.420394
N	 0.0524412843	-1.9509357787	-1.6788548728	-0.459258
C	 1.2574539742	-2.6145518569	-1.8520107763	 0.550872
O	 2.3429563286	-2.1310989978	-1.5497250211	-0.425104
N	 1.1274951287	-3.8622936993	-2.392339088	-0.360355
C	 2.2724684172	-4.7128465297	-2.6510351643	-0.330841
H	 1.3594885823	 2.0829709962	-0.8201876555	 0.124455
H	-0.2428205213	 1.6429436969	-0.1830295597	 0.165433
H	 1.2116866048	 1.3915158577	 0.8110060358	 0.124454
H	 1.7927856394	-0.4441940133	-0.884150627	 0.277422
H	-0.8122367692	-2.3962860161	-1.9449730412	 0.251118
H	 0.2116781882	-4.2088861101	-2.6224956885	 0.24635
H	 2.2109065017	-5.6475079337	-2.0827113054	 0.128871
H	 2.3575696115	-4.9533248058	-3.716550888	 0.128856
H	 3.1621973673	-4.1661545923	-2.3389060997	 0.176288
17.6137	56.0817	66.1312	93.8356	124.3618	156.4646	171.311	273.0077	331.1972	354.3222	393.063	439.192	552.0335	665.1825	706.4497	761.2979	762.0318	772.3536	900.6459	994.9801	1106.5001	1156.9793	1158.7047	1168.7205	1175.4847	1197.2688	1238.4786	1266.3478	1439.5955	1442.8893	1476.6695	1498.3697	1499.5217	1499.7802	1506.3182	1573.6485	1605.27	1761.7715	1813.2106	3025.4614	3029.3001	3074.3436	3081.0897	3153.1644	3161.163	3511.8891	3631.2849	3652.7221
CNC(=O)NC(=O)NC	CNC(=O)NC(=O)NC	
InChI=1S/C4H9N3O2/c1-5-3(8)7-4(9)6-2/h1-2H3,(H3,5,6,7,8,9)	InChI=1S/C4H9N3O2/c1-5-3(8)7-4(9)6-2/h1-2H3,(H3,5,6,7,8,9)
