13
gdb 99430	1.75259	1.48896	1.30372	5.6371	68.47	-0.3114	-0.0169	0.2945	1080.5644	0.085739	-415.565198	-415.555451	-415.554507	-415.600227	32.976	
O	-0.0567553183	 1.4172487192	 0.0096800477	-0.400805
C	 0.024065135	 0.0184859706	 0.0018364098	-0.082795
C	-1.4427198718	-0.5184588121	 0.0130466551	-0.258524
C	-1.4219380794	-1.9863217372	 0.0051532056	 0.300259
C	-1.3637567167	-3.1835618689	-0.0018854659	-0.381237
C	-2.1310182577	-0.0296612133	 1.2296691092	 0.332341
N	-2.6488014598	 0.3249847924	 2.1976885902	-0.319248
C	-2.1541793314	-0.0170370222	-1.1849716229	 0.332394
N	-2.690535422	 0.347629977	-2.1390547755	-0.319238
H	 0.8314588963	 1.7864104926	 0.0069202921	 0.309436
H	 0.5091279471	-0.381428278	-0.8985149968	 0.131942
H	 0.5260639303	-0.3905108115	 0.8886989516	 0.131958
H	-1.3296584315	-4.2460407485	-0.0085639004	 0.223515
77.599	109.6405	117.3981	127.7903	147.9433	167.8236	231.1783	351.3707	355.2326	483.5017	486.6978	557.0567	578.2722	582.1922	674.696	683.1076	684.3604	937.8213	1027.6679	1087.2453	1127.0186	1152.9981	1250.3894	1275.6473	1440.9251	1515.0974	2255.686	2371.9002	2377.5714	3007.8928	3055.9545	3496.52	3838.8742
OCC(C#C)(C#N)C#N	OCC(C#C)(C#N)C#N	
InChI=1S/C6H4N2O/c1-2-6(3-7,4-8)5-9/h1,9H,5H2	InChI=1S/C6H4N2O/c1-2-6(3-7,4-8)5-9/h1,9H,5H2
