16
gdb 17907	2.9173	2.37081	2.17995	2.5171	63.34	-0.2144	-0.0163	0.1981	737.6831	0.134485	-379.913255	-379.90692	-379.905976	-379.943642	24.903	
O	 0.0206423066	 0.0521329612	-0.0899499914	-0.326103
C	-0.0106517517	 1.2444851308	 0.0085759588	 0.451407
C	-1.1582461188	 2.2617625534	 0.0554197034	-0.123327
C	-0.7443627766	 3.0942991652	 1.2747480944	-0.154707
N	 0.7537600782	 3.0289125124	 1.2348856822	-0.314427
C	 1.1048202246	 2.3108283632	-0.0027457694	-0.109266
C	 0.6569258924	 3.1017259488	-1.2490920373	-0.184816
N	-0.8495658909	 3.0696905996	-1.1535498426	-0.307365
H	-2.1753494857	 1.876450834	 0.0537037027	 0.089406
H	-1.1237537824	 4.116839493	 1.1817536823	 0.110014
H	-1.1193212466	 2.6615769678	 2.2097044817	 0.111551
H	 1.1574041855	 3.9584812127	 1.2384385558	 0.223528
H	 2.127714335	 1.9392853996	-0.0078721151	 0.091688
H	 1.0172295372	 4.1372219378	-1.2267535463	 0.102306
H	 1.0135382747	 2.6389911631	-2.1770187617	 0.109312
H	-1.2286629015	 2.6012367773	-1.9696204178	 0.230799
144.9562	154.3006	306.1543	397.1626	457.9219	538.4739	633.7413	701.9283	763.5251	766.9578	829.4265	844.5092	886.1276	912.9614	945.1785	980.0793	995.4403	1059.3376	1074.2444	1092.1992	1142.4654	1160.1104	1184.6618	1222.2535	1250.5432	1273.5233	1293.3921	1356.1677	1366.584	1419.3286	1434.8018	1510.4755	1512.8187	1894.107	3016.1003	3026.4541	3056.8808	3074.6767	3140.0509	3150.828	3526.8223	3534.3678
O=C1C2CNC1CN2	O=C1[C@H]2CN[C@@H]1CN2	
InChI=1S/C5H8N2O/c8-5-3-1-6-4(5)2-7-3/h3-4,6-7H,1-2H2	InChI=1S/C5H8N2O/c8-5-3-1-6-4(5)2-7-3/h3-4,6-7H,1-2H2/t3-,4-/m1/s1
