18
gdb 95997	2.44015	1.56099	1.27475	6.0142	67.23	-0.2584	0.0153	0.2736	1041.2915	0.150244	-476.255551	-476.247642	-476.246698	-476.288143	30.484	
O	 0.2959261666	 0.7938943908	-0.881824214	-0.427633
C	 0.0082001081	-0.4176510796	-0.2209330718	 0.144131
C	 0.5993825513	-0.5162402864	 1.2149391767	-0.212014
N	-0.5858916563	-0.4398112687	 2.0841530225	-0.323518
H	-0.4023929803	-0.7237533988	 3.0399720382	 0.237475
H	-1.4830363753	 1.0600720168	 1.5073553529	 0.306734
C	-1.5866654069	-1.2826980314	 1.4093005685	-0.202072
C	-1.5278455704	-0.7141922895	-0.0226830608	-0.178912
C	-2.3416039158	 0.5764502382	-0.1329228226	 0.410345
O	-3.1495158989	 0.7950310856	-0.9907360939	-0.321654
O	-2.0473987297	 1.4973515746	 0.8191329142	-0.399499
H	-0.1334176391	 1.5180807115	-0.4082919633	 0.292225
H	 0.444513633	-1.1897504979	-0.8577775405	 0.107076
H	 1.1370502876	-1.4688768956	 1.3376586724	 0.10108
H	 1.2968731499	 0.3015581577	 1.4102885421	 0.122361
H	-1.3141676528	-2.3497592085	 1.4077741026	 0.105778
H	-2.5675691624	-1.1789236429	 1.8811583915	 0.130381
H	-1.9114526586	-1.4035588959	-0.7727217948	 0.107718
96.3656	112.9243	183.3536	265.5553	345.8457	379.4087	435.6344	443.4045	492.7353	590.728	637.8131	740.7212	776.4662	830.9551	858.3533	883.5765	921.4694	964.8853	973.7046	1013.4448	1020.7537	1058.1866	1099.0884	1131.3664	1172.171	1198.7837	1233.2098	1261.2867	1269.0068	1303.504	1312.0648	1343.845	1388.1569	1420.6587	1453.3125	1470.1189	1506.3117	1525.2891	1874.0297	2980.9132	2985.3237	3090.6365	3091.9852	3102.1036	3136.1435	3265.5399	3541.1785	3767.017
OC1C[NH2+]CC1C([O-])=O	O[C@H]1CNC[C@H]1C(=O)O	
InChI=1S/C5H9NO3/c7-4-2-6-1-3(4)5(8)9/h3-4,6-7H,1-2H2,(H,8,9)	InChI=1S/C5H9NO3/c7-4-2-6-1-3(4)5(8)9/h3-4,6-7H,1-2H2,(H,8,9)/t3-,4+/m1/s1
