19
gdb 112108	2.37439	1.37049	0.94907	1.6748	77.54	-0.2387	-0.0191	0.2196	1246.506	0.159777	-423.053783	-423.045044	-423.0441	-423.087759	32.614	
O	 0.0476965779	 1.4598972409	 0.0611323395	-0.413643
C	 0.0110531744	 0.0484057448	 0.1604233289	-0.071428
C	-1.4005028881	-0.5290583773	-0.1299281792	-0.171112
C	-1.9021132948	-0.1450046816	-1.4963836433	-0.039198
C	-2.4206255383	-1.0073850435	-2.3688271174	-0.079397
C	-2.5258304735	-2.4851366233	-2.0980332478	-0.266516
C	-1.4644255369	-2.942729161	-1.0815707921	-0.304076
C	-1.3928617882	-2.0370732183	 0.134496218	 0.374767
O	-1.2912824372	-2.4649863009	 1.2619961476	-0.324682
H	-0.4457151226	 1.8216221604	 0.80463101	 0.286017
H	 0.7230590521	-0.3202907716	-0.5854706236	 0.115441
H	 0.3361972005	-0.3033512984	 1.1482009859	 0.114872
H	-2.0616864474	-0.1006952796	 0.6392154018	 0.101064
H	-1.8302608203	 0.9114774176	-1.7376130362	 0.103232
H	-2.7910592272	-0.6479551052	-3.325363154	 0.092862
H	-3.5311115674	-2.7305088187	-1.726302677	 0.122099
H	-2.4095886167	-3.0517971954	-3.0283879639	 0.112091
H	-1.6177841043	-3.9697058287	-0.7425835728	 0.120466
H	-0.4788638521	-2.8935900401	-1.5671822145	 0.12714
49.4694	117.6715	148.9091	181.2182	257.8511	316.2224	357.0512	399.9066	486.2297	506.5906	532.9998	646.5287	723.1949	745.6147	770.6244	859.8338	896.4192	960.6633	995.6621	1009.8794	1031.1009	1044.1108	1077.674	1098.9013	1134.3925	1165.3713	1187.0498	1232.9019	1257.6346	1285.5467	1321.4489	1335.8913	1370.0588	1386.9064	1410.7269	1418.5049	1459.4044	1487.2381	1505.7206	1724.504	1805.5283	2987.8763	3006.0868	3016.2486	3019.1287	3060.5977	3083.1475	3109.3228	3155.1076	3180.472	3812.9387
OCC1C=CCCC1=O	OC[C@H]1C=CCCC1=O	
InChI=1S/C7H10O2/c8-5-6-3-1-2-4-7(6)9/h1,3,6,8H,2,4-5H2	InChI=1S/C7H10O2/c8-5-6-3-1-2-4-7(6)9/h1,3,6,8H,2,4-5H2/t6-/m1/s1
