16
gdb 15589	2.64223	2.15627	1.48709	3.213	63.76	-0.2524	0.0145	0.2669	875.5344	0.132346	-379.928942	-379.921202	-379.920258	-379.961395	28.046	
N	-0.0077889951	 1.4522560876	 0.3089362438	-0.519577
C	-0.0023421631	 0.0377224989	 0.0083181204	 0.013495
C	-1.4067646601	-0.5494844638	-0.2015665119	-0.239336
C	-1.1387412408	-1.8568525878	-0.9562346268	-0.07676
O	 0.1755387697	-1.7436069799	-1.5475549225	-0.253012
C	 0.7029214685	-0.461838115	-1.2955401472	-0.050526
C	 0.4439626867	 0.4700535478	-2.4169703207	 0.264858
N	 0.2149374316	 1.2193084634	-3.2672268265	-0.327365
H	 0.9309135699	 1.7916841163	 0.4925240286	 0.235641
H	-0.369291624	 1.9859830647	-0.4773793331	 0.244985
H	 0.4919826848	-0.4850936773	 0.834723133	 0.101586
H	-1.9356778903	-0.7013490157	 0.7405767871	 0.122888
H	-1.9981996873	 0.1429668092	-0.8103649504	 0.124027
H	-1.1214413325	-2.725485974	-0.2888576963	 0.114806
H	-1.8708388181	-2.0467712219	-1.7477612093	 0.119731
H	 1.7873707101	-0.5531844226	-1.173161208	 0.124559
65.2274	129.6389	146.3399	244.2344	298.5599	338.0295	421.4162	498.3662	589.3964	636.9493	706.0766	816.7389	863.8005	877.5948	915.0692	919.3253	995.7559	1048.7419	1061.4587	1100.4497	1163.4841	1194.8772	1203.5991	1241.1998	1276.6607	1310.371	1342.1303	1363.8885	1387.2614	1428.2254	1492.21	1530.1865	1665.5875	2345.5027	3038.1614	3045.3576	3056.6757	3063.5044	3078.6264	3125.2219	3492.0922	3575.0325
NC1CCOC1C#N	N[C@H]1CCO[C@H]1C#N	
InChI=1S/C5H8N2O/c6-3-5-4(7)1-2-8-5/h4-5H,1-2,7H2	InChI=1S/C5H8N2O/c6-3-5-4(7)1-2-8-5/h4-5H,1-2,7H2/t4-,5-/m0/s1
