18
gdb 38624	2.60314	2.28752	1.64059	2.2634	73.06	-0.2301	0.0716	0.3016	866.3948	0.150678	-401.889599	-401.883324	-401.88238	-401.919808	26.889	
C	 0.0385269298	 1.6141714551	-0.0358735038	-0.241929
C	 1.5465664599	 2.0420455139	-0.056348376	-0.305498
C	 2.0477407084	 0.8745508297	 0.7698138487	 0.385152
O	 3.0864482616	 0.698298416	 1.7168932812	-0.319052
C	 1.7287097962	 0.8879137468	 2.197425414	-0.015119
C	 0.7858814611	-0.2770149969	 2.4634495354	-0.199147
N	 0.4255834922	-0.8410855391	 1.1435645104	-0.121431
C	 0.0471193574	 0.059826678	-0.0053984041	-0.023368
C	 1.4394032865	-0.3959136967	 0.1895274644	-0.128189
H	-0.4727651039	 2.0511986747	 0.828231961	 0.110844
H	-0.497472451	 1.9451556945	-0.9296344298	 0.109265
H	 1.9377812912	 2.0478695295	-1.0790039281	 0.106821
H	 1.7303141963	 3.019962288	 0.3947277697	 0.110187
H	 1.5927291696	 1.8250595968	 2.7315933142	 0.098864
H	 1.2360897783	-1.0860517948	 3.0488557384	 0.123829
H	-0.1002035597	 0.0755447125	 3.0024732935	 0.11164
H	-0.6382307852	-0.4466889455	-0.6758966487	 0.103418
H	 2.0089796213	-1.1095327024	-0.3967382202	 0.093713
231.7219	241.0544	367.1299	394.8018	450.2896	525.6792	626.9144	666.6141	681.2428	722.6327	799.878	815.0806	859.6152	869.9013	903.6334	935.9625	950.2732	973.9302	996.8217	1026.7758	1041.2254	1069.9276	1095.7677	1111.8936	1131.2083	1199.4689	1201.2807	1237.5014	1264.1003	1287.2988	1300.8893	1305.6386	1319.9691	1333.5284	1368.6356	1451.8327	1479.4866	1485.3537	1503.4927	3042.2534	3049.6468	3051.0797	3084.6292	3094.5374	3112.331	3142.3895	3160.9958	3173.4805
C1CC23OC2CN2C1C32	C1C[C@@]23O[C@@H]2CN2[C@@H]1[C@@H]32	
InChI=1S/C7H9NO/c1-2-7-5(9-7)3-8-4(1)6(7)8/h4-6H,1-3H2	InChI=1S/C7H9NO/c1-2-7-5(9-7)3-8-4(1)6(7)8/h4-6H,1-3H2/t4-,5+,6-,7+,8?/m0/s1
