19
gdb 14860	2.78365	1.64112	1.10474	4.1832	73.77	-0.2395	0.0244	0.2639	1099.4557	0.16542	-365.081372	-365.072746	-365.071802	-365.115144	30.621	
C	 0.2806900328	 1.4292210765	 0.2355866582	-0.390958
C	 0.0497694478	-0.0433985098	-0.1117327814	-0.176785
C	-1.4040790094	-0.4915156187	 0.0095490888	 0.052968
C	-1.6678677943	-2.0211664795	-0.1431015948	-0.271991
C	-2.2183210443	-2.0301450824	 1.309827991	-0.161134
N	-1.9349319969	-0.5927090743	 1.3877716952	-0.046934
C	-2.5600557527	 0.3099580008	 2.1816618272	 0.122932
O	-3.239844651	 0.0196860756	 3.1452700326	-0.330614
H	 1.3316934926	 1.7027128995	 0.1037210509	 0.11996
H	-0.3176210278	 2.0881351917	-0.4035479607	 0.116404
H	 0.0136234731	 1.6372029712	 1.2764069145	 0.129164
H	 0.3679179159	-0.2363199741	-1.1448292151	 0.102321
H	 0.6681360561	-0.6812850991	 0.5319724867	 0.102131
H	-2.0401194155	 0.1312377321	-0.6333805222	 0.084872
H	-2.3975830199	-2.2846776138	-0.9091188702	 0.11699
H	-0.7623921051	-2.6113734187	-0.2945715709	 0.113335
H	-3.2830179939	-2.257372855	 1.4184068401	 0.128063
H	-1.6576992327	-2.631174424	 2.0320324942	 0.121347
H	-2.3738766448	 1.3546334021	 1.8587729859	 0.067931
66.6253	94.124	112.4478	190.6023	228.0241	249.7207	325.6158	382.6636	410.6569	583.4633	720.5829	782.4056	806.2045	855.1147	909.9985	952.0998	979.1729	1013.6812	1033.5335	1064.5008	1097.2163	1149.5042	1174.0425	1181.1236	1218.8852	1262.2206	1266.6589	1295.2159	1315.1914	1349.7945	1385.568	1396.0318	1411.6997	1432.5998	1476.8467	1489.124	1499.0397	1505.8431	1521.8931	1786.5389	2924.5556	3013.2025	3020.689	3034.8558	3049.4151	3059.9455	3084.9143	3091.7153	3103.2756	3111.1628	3140.8429
CCC1CCN1C=O	CC[C@H]1CCN1C=O	
InChI=1S/C6H11NO/c1-2-6-3-4-7(6)5-8/h5-6H,2-4H2,1H3	InChI=1S/C6H11NO/c1-2-6-3-4-7(6)5-8/h5-6H,2-4H2,1H3/t6-/m0/s1
