16
gdb 14579	13.57116	0.60054	0.58336	0.0005	70.33	-0.3267	0.0209	0.3476	1749.3622	0.130306	-342.823969	-342.815137	-342.814193	-342.858512	29.779	
N	-0.0307897177	-1.191848863	-0.0044477385	-0.297573
C	-0.0397201586	-0.0365236297	 0.0022818323	 0.258389
C	-0.0237186884	 1.4245168464	 0.0103560285	-0.34596
C	 1.4075126374	 1.9970252328	-0.0007067455	-0.186986
C	 1.4067583638	 3.527525313	 0.0077013023	-0.186975
C	 2.8379879721	 4.1000665994	-0.0033411827	-0.345974
C	 2.8538250974	 5.5610953059	 0.0043147817	 0.258413
N	 2.8450038653	 6.7164192396	 0.0110542836	-0.297583
H	-0.583855112	 1.7834900488	-0.8610888718	 0.157821
H	-0.5663102048	 1.7736127649	 0.8967769082	 0.157817
H	 1.9519388489	 1.6150558324	 0.8703093865	 0.128239
H	 1.9345196739	 1.6246723918	-0.8864778396	 0.128245
H	 0.8623630333	 3.9095195492	-0.8633239102	 0.128241
H	 0.879730148	 3.8998870489	 0.8934574602	 0.128244
H	 3.398060513	 3.741253038	 0.8682175449	 0.157828
H	 3.3806692883	 3.7508346817	-0.8896461199	 0.157814
48.8149	83.1846	104.2957	124.4781	159.7088	302.6578	336.6197	396.267	401.0172	523.9105	581.2206	733.8258	777.5726	905.2586	920.1805	951.0853	1022.2208	1054.8768	1060.2095	1109.3468	1171.6404	1252.6825	1275.4642	1322.0638	1325.1726	1331.342	1376.7228	1401.5766	1466.8985	1470.8627	1488.2686	1506.1034	2365.1048	2365.3067	3034.2195	3036.4837	3042.2553	3050.1505	3062.8311	3071.0053	3084.5542	3100.301
N#CCCCCC#N	N#CCCCCC#N	
InChI=1S/C6H8N2/c7-5-3-1-2-4-6-8/h1-4H2	InChI=1S/C6H8N2/c7-5-3-1-2-4-6-8/h1-4H2
