18
gdb 32957	4.12415	0.90251	0.75314	2.6825	76.65	-0.1919	0.042	0.2339	1501.5302	0.148616	-435.287252	-435.277912	-435.276968	-435.322418	32.94	
C	 0.0326708618	 1.3226281617	-0.0503668994	-0.22473
O	-0.0172155479	-0.0771657303	-0.2021300333	-0.248854
C	-1.2953339252	-0.6153512727	 0.081352665	-0.171997
C	-1.2071323309	-2.103735399	-0.0199071438	 0.327963
N	-2.1987727773	-2.9348227868	-0.2325347232	-0.31645
C	-1.6333030085	-4.1940329642	-0.2086374397	-0.156907
C	-0.2833762726	-4.1131329664	 0.0267465848	 0.265328
N	 0.745223922	-5.0580931727	 0.199737595	-0.61485
N	-0.025937124	-2.7653339999	 0.1597110817	-0.289883
H	 1.0527249673	 1.6397594978	-0.2794155885	 0.128596
H	-0.6609175882	 1.8302206679	-0.737914194	 0.112004
H	-0.2155587091	 1.6303463632	 0.9775116658	 0.108706
H	-1.6136565422	-0.3096295353	 1.0940962507	 0.105809
H	-2.0587001682	-0.2468942973	-0.6200823017	 0.120364
H	-2.2245779187	-5.0837535043	-0.3660058716	 0.091964
H	 0.3550970338	-5.9811872413	 0.3458672149	 0.249543
H	 1.3628518427	-5.110398303	-0.6058905893	 0.245146
H	 0.865564265	-2.3312098276	 0.3318984567	 0.268247
42.9927	82.4397	118.6692	145.4064	207.5092	228.228	301.5175	343.9844	381.4129	457.821	567.4274	660.5834	667.5404	699.6439	770.7473	807.3151	833.16	988.1647	1011.0694	1033.5103	1054.9127	1143.6964	1154.7227	1176.9142	1184.8717	1213.083	1231.3024	1237.258	1294.4008	1393.2959	1436.01	1466.7578	1481.7359	1485.6972	1502.5545	1522.7252	1559.5053	1625.0867	1657.8679	2942.6816	2976.4402	3008.4087	3023.3729	3117.4319	3243.1332	3487.379	3594.6901	3669.9709
COCC1=NC=C(N)N1	COCc1ncc(N)[nH]1	
InChI=1S/C5H9N3O/c1-9-3-5-7-2-4(6)8-5/h2H,3,6H2,1H3,(H,7,8)	InChI=1S/C5H9N3O/c1-9-3-5-7-2-4(6)8-5/h2H,3,6H2,1H3,(H,7,8)
