15
gdb 17988	3.9569	1.77625	1.51869	4.1048	64.41	-0.2596	0.02	0.2797	841.8859	0.120225	-362.638208	-362.63149	-362.630545	-362.669589	24.944	
N	-0.378772498	-1.1242711455	-0.5603229894	-0.333525
C	-0.2363711303	-0.0068617791	-0.2977835441	 0.28016
C	-0.0295175295	 1.3901020871	 0.0449572519	-0.156874
C	-0.0688534789	 1.7901970925	 1.5664551906	-0.255226
C	 1.3583034139	 2.3725752969	 1.4361376536	 0.125335
O	 2.378799412	 1.4280082346	 1.7967247456	-0.285222
C	 2.5407700923	 1.0026364051	 0.4197076492	-0.090281
C	 1.4282749131	 1.9498638864	-0.0583565241	-0.097561
H	-0.7228550669	 1.9976728454	-0.541662317	 0.129649
H	-0.8510484234	 2.5185241674	 1.7896278953	 0.118406
H	-0.1306638187	 0.9583722772	 2.2688035524	 0.138593
H	 1.5517451273	 3.3745843748	 1.8259367324	 0.087339
H	 3.5376771297	 1.2576049253	 0.0416182743	 0.111743
H	 2.3662853654	-0.0708709471	 0.2856508963	 0.133385
H	 1.6391844018	 2.6101479888	-0.8971015169	 0.094078
65.0036	154.2407	213.0072	351.0817	384.3661	521.4667	569.5392	651.1528	744.2104	778.3532	850.0618	906.1003	920.0889	979.9982	993.409	1011.3546	1035.6161	1067.3477	1092.3772	1136.2186	1163.3488	1188.6005	1199.9597	1244.5231	1271.6034	1293.764	1318.4004	1334.359	1370.5203	1463.794	1522.615	2350.9427	3025.5361	3074.9458	3075.688	3081.0982	3087.4594	3133.0684	3147.4761
N#CC1CC2OCC12	N#C[C@H]1C[C@H]2OC[C@@H]12	
InChI=1S/C6H7NO/c7-2-4-1-6-5(4)3-8-6/h4-6H,1,3H2	InChI=1S/C6H7NO/c7-2-4-1-6-5(4)3-8-6/h4-6H,1,3H2/t4-,5+,6-/m1/s1
