19
gdb 56955	2.19348	1.21613	0.8607	3.4444	82.83	-0.2456	-0.0176	0.2281	1362.2347	0.156257	-385.855879	-385.846101	-385.845157	-385.891051	35.674	
C	 0.0080165399	 1.4936355824	-0.2062597911	-0.391431
C	 0.0788887881	-0.0127577543	 0.1209939278	-0.196705
C	 0.7797227234	-0.2483069979	 1.3833058072	 0.338467
C	 1.3406788788	-0.4352404922	 2.4297472226	-0.463968
C	-1.3251617942	-0.6151926602	 0.1512817916	 0.02096
C	-1.9628975589	-1.1502239469	-1.085321351	-0.320935
C	-1.593439535	-2.1130794083	 0.0417539553	-0.108214
C	-0.5010896526	-3.087046902	-0.1832165703	 0.17027
O	-0.482672168	-4.2022624207	 0.2758295951	-0.270353
H	 1.0101423555	 1.9266952008	-0.2531512389	 0.12968
H	-0.4874159535	 1.6480921253	-1.1692795096	 0.119972
H	-0.5565837377	 2.0279791098	 0.5636023034	 0.128819
H	 0.6508812073	-0.4983889951	-0.6800385993	 0.107221
H	 1.8427756744	-0.6123612709	 3.3486204585	 0.200582
H	-1.9828264169	-0.1148050641	 0.8570716427	 0.107976
H	-3.0172667818	-0.9784554264	-1.2675869602	 0.129993
H	-1.3547538538	-1.200138957	-1.9843351847	 0.12381
H	-2.3998956482	-2.5064987278	 0.6506980135	 0.108689
H	 0.322212723	-2.7286115045	-0.8432380024	 0.065167
43.1875	91.3552	133.6927	188.5759	204.0066	230.9683	275.2679	291.6766	385.5291	414.3558	493.1059	527.295	591.6491	637.4499	642.7184	773.8715	841.9045	855.865	875.3401	937.036	982.8539	1011.791	1046.3087	1074.0436	1078.7642	1111.281	1137.2203	1176.2237	1190.9353	1232.3429	1294.108	1328.8332	1345.0458	1400.6621	1414.9662	1451.4556	1487.3675	1491.4137	1498.3072	1818.1361	2236.6641	2861.5277	3022.679	3042.855	3117.4482	3125.8884	3127.4659	3145.5278	3179.3569	3218.4508	3503.9127
CC(C#C)C1CC1C=O	C[C@@H](C#C)[C@H]1C[C@H]1C=O	
InChI=1S/C8H10O/c1-3-6(2)8-4-7(8)5-9/h1,5-8H,4H2,2H3	InChI=1S/C8H10O/c1-3-6(2)8-4-7(8)5-9/h1,5-8H,4H2,2H3/t6-,7-,8+/m0/s1
