18
gdb 97032	2.46778	1.54545	0.99263	4.1185	77.2	-0.2432	-0.0181	0.225	1177.2119	0.148827	-435.285509	-435.276823	-435.275879	-435.318915	32.248	
C	-0.186292099	 1.3268457684	-0.765240169	-0.348648
N	-0.1997683928	-0.1040546366	-0.5202561896	-0.326785
C	-1.1461002008	-0.6182537358	 0.1555495632	 0.391887
N	-2.2136881047	 0.0355584448	 0.7467512588	-0.370499
C	-3.3020913301	-0.6664196848	 1.2717607941	 0.088178
N	-3.5363035046	-1.9030720242	 1.1219970439	-0.240357
C	-2.5819703392	-2.6514366427	 0.3035779915	-0.182145
C	-1.1473202058	-2.1168295878	 0.4066984782	 0.050168
O	-0.2904859441	-2.7765922491	-0.4812741164	-0.43687
H	 0.5845610883	 1.5615301994	-1.50253145	 0.136803
H	-1.1463584904	 1.7006370524	-1.1530356031	 0.113257
H	 0.052041883	 1.8937941717	 0.1473788263	 0.120738
H	-2.2108013527	 1.0414494214	 0.8068696742	 0.257656
H	-3.9910861041	-0.0414403827	 1.8392670757	 0.120817
H	-2.6032430611	-3.7027016569	 0.602232209	 0.122763
H	-2.9024989858	-2.6145837113	-0.7474996024	 0.120482
H	-0.811645321	-2.2561868082	 1.4514691423	 0.092742
H	 0.2519564448	-2.071721378	-0.8741012069	 0.289815
92.1412	117.8199	155.2671	205.1994	212.6468	317.8927	387.3479	438.0055	462.8583	490.9794	507.2423	554.5061	591.1875	691.9629	781.4569	864.7742	935.9387	975.5375	1028.9757	1054.3973	1093.4348	1097.0406	1112.4761	1159.3419	1180.2736	1211.2097	1263.9831	1296.6522	1327.7591	1387.1682	1417.7474	1431.0031	1454.9462	1465.6479	1488.5853	1501.293	1508.4508	1733.5768	1759.7875	2928.4983	2976.6384	3016.575	3026.0739	3090.3947	3109.3477	3137.5237	3634.0387	3651.9182
CN=C1NC=NCC1O	CN=C1NC=NC[C@H]1O	
InChI=1S/C5H9N3O/c1-6-5-4(9)2-7-3-8-5/h3-4,9H,2H2,1H3,(H,6,7,8)	InChI=1S/C5H9N3O/c1-6-5-4(9)2-7-3-8-5/h3-4,9H,2H2,1H3,(H,6,7,8)/t4-/m1/s1
