18
gdb 76162	2.1285	1.46986	1.21041	4.3711	73.98	-0.2254	0.0272	0.2526	1121.1189	0.1459	-435.247783	-435.237513	-435.236568	-435.282275	37.604	
C	-0.101733963	 1.562125857	-0.0148089137	-0.448953
C	 0.0298090014	 0.058154619	-0.0385809288	 0.350788
O	-1.0312485163	-0.6191300044	-0.6489441179	-0.448457
C	 1.3432153557	-0.6325978254	-0.2870371755	-0.133719
N	 2.53625728	 0.1540472515	-0.4129163518	-0.51791
C	 0.7167240798	-0.6535905801	 1.1341282724	 0.091569
N	 1.3187722819	 0.1502814338	 2.1809236341	-0.576617
C	 0.1245749578	-1.8842578728	 1.5803119325	 0.255748
N	-0.3572824375	-2.862864605	 1.9677137963	-0.350639
H	 0.7794261551	 2.0444897301	 0.4083401689	 0.139186
H	-0.2588290615	 1.9321772627	-1.032972553	 0.125538
H	-0.965926226	 1.8543951027	 0.5911699394	 0.125462
H	-1.7911779875	-0.5966412049	-0.0550942944	 0.293315
H	 1.250135991	-1.5601134725	-0.8495470982	 0.110194
H	 3.3582681311	-0.4395730634	-0.4336028167	 0.245874
H	 2.5296743561	 0.6981608473	-1.2692228813	 0.248305
H	 1.6253883974	-0.4567464127	 2.9345385771	 0.242263
H	 2.1542337746	 0.579891627	 1.7834413808	 0.248053
112.372	113.3858	154.513	170.2046	201.8792	231.6557	267.2872	285.2471	300.3557	346.8826	384.5442	437.3588	464.9579	546.2163	575.5338	626.0451	689.0713	721.3737	802.387	904.4664	955.0489	980.3219	1011.4559	1044.5381	1076.1972	1151.3931	1195.8856	1229.4222	1268.6324	1285.9751	1349.4093	1357.8207	1414.4797	1452.9126	1479.7358	1501.4081	1641.7964	1656.5262	2344.4005	3042.0335	3102.8566	3117.9044	3151.0108	3450.9205	3508.8718	3561.1214	3585.826	3789.1332
CC1(O)C(N)C1(N)C#N	C[C@@]1(O)[C@@H](N)[C@]1(N)C#N	
InChI=1S/C5H9N3O/c1-4(9)3(7)5(4,8)2-6/h3,9H,7-8H2,1H3	InChI=1S/C5H9N3O/c1-4(9)3(7)5(4,8)2-6/h3,9H,7-8H2,1H3/t3-,4-,5-/m1/s1
