23
gdb 89051	3.94717	0.66565	0.63125	1.6944	86.86	-0.2601	0.0904	0.3505	1866.4415	0.204763	-388.259318	-388.249353	-388.248409	-388.29537	36.476	
C	 0.4043441139	 1.5865190881	-0.2446053613	-0.404784
C	 0.1624253744	 0.1084820727	-0.0242493324	-0.006225
C	 1.3126622948	-0.863657052	 0.0927852842	-0.291899
C	 0.4318819953	-0.5880034534	 1.2916556424	 0.009319
C	 0.9775393176	 0.121407811	 2.5133394459	-0.208721
C	 1.6991980482	-0.8357714374	 3.475707229	-0.21081
C	 2.2506620865	-0.125786435	 4.6868465765	 0.097867
C	 3.5280823257	-0.4950113039	 5.3078320808	-0.181726
O	 3.4272743917	 0.6655333985	 4.4807804459	-0.238042
H	 1.309619927	 1.9345960966	 0.2605276848	 0.119736
H	 0.5246174947	 1.8021394809	-1.3121304725	 0.115426
H	-0.4336234151	 2.1899231157	 0.1227781561	 0.114391
H	-0.7060159253	-0.2690548679	-0.5591755548	 0.079407
H	 1.2465123775	-1.8257084687	-0.4039045872	 0.105072
H	 2.3143390033	-0.4428483588	 0.1087664307	 0.108755
H	-0.2737785496	-1.3799231837	 1.5366457911	 0.074851
H	 1.6808746714	 0.908080404	 2.2207680557	 0.114123
H	 0.1590249518	 0.6229368794	 3.0486538602	 0.092263
H	 1.0074969102	-1.621672573	 3.8089904552	 0.09604
H	 2.5204088661	-1.3351950524	 2.9489391612	 0.105399
H	 1.5073396268	 0.3620510686	 5.3218522129	 0.087232
H	 3.6963834118	-0.3030591056	 6.3669084057	 0.111599
H	 4.1072611911	-1.3177292636	 4.8895389997	 0.110726
50.8512	60.1008	96.5923	127.9574	184.2491	225.4416	252.3795	325.6521	395.1269	402.1819	481.1414	525.0499	753.5635	768.8229	795.2693	836.0503	856.8524	884.6641	905.0159	934.1214	956.887	996.6614	1030.3564	1049.9462	1070.5221	1092.5733	1110.4782	1122.1981	1151.8621	1158.9864	1162.7193	1184.9124	1199.6583	1234.8222	1251.6598	1278.4931	1296.838	1324.8438	1368.1605	1396.4806	1418.9273	1430.5588	1447.2682	1470.9613	1488.3746	1494.0196	1498.9421	1507.8502	1532.1414	3009.8146	3018.1854	3029.1569	3060.5668	3074.9039	3079.5867	3085.349	3088.6961	3105.6403	3115.4602	3121.084	3133.436	3164.6258	3205.0901
CC1CC1CCC1CO1	C[C@H]1C[C@H]1CC[C@H]1CO1	
InChI=1S/C8H14O/c1-6-4-7(6)2-3-8-5-9-8/h6-8H,2-5H2,1H3	InChI=1S/C8H14O/c1-6-4-7(6)2-3-8-5-9-8/h6-8H,2-5H2,1H3/t6-,7+,8-/m0/s1
