14
gdb 45678	3.31166	1.77792	1.16518	4.3124	69.64	-0.1976	-0.0184	0.1792	962.7059	0.103689	-432.925357	-432.918499	-432.917555	-432.956624	26.267	
O	-0.0121295799	-0.0384176246	 0.0026774661	-0.357301
C	-0.0228442972	 1.1655754163	 0.0093543488	 0.377583
C	-1.2014511157	 2.1716295881	 0.0323516692	-0.295333
N	-0.6507793337	 3.535157607	 0.0317652643	-0.406584
C	 0.6148315643	 3.3369155101	 0.0117257202	 0.525051
N	 1.7396303049	 4.1232571486	-0.0008394029	-0.423117
C	 2.8740580283	 3.2949631392	-0.0214681372	-0.06551
C	 2.4821111164	 2.0047980352	-0.0228343239	-0.128303
N	 1.0833429751	 2.0195612367	-0.0025586454	-0.11203
H	-1.8427333468	 1.9958591085	-0.8395067063	 0.145732
H	-1.8167321901	 1.9860851706	 0.9207626154	 0.145718
H	 1.7320164875	 5.1268814748	 0.0073359145	 0.278386
H	 3.8663367053	 3.7129141427	-0.0337530125	 0.151858
H	 3.0492893615	 1.0913925468	-0.0362519603	 0.163851
133.4317	166.3208	260.1009	304.5946	345.8456	528.9808	569.1225	592.2474	634.3475	689.5327	695.5738	754.1426	769.4894	804.3917	916.5893	968.9564	1002.4059	1060.4329	1080.353	1085.7862	1175.6485	1194.2702	1253.303	1276.3536	1350.0669	1385.0421	1434.8301	1448.3477	1625.464	1754.0548	1843.8674	3040.7473	3072.7713	3282.5536	3309.2822	3704.873
O=C1CN=C2NC=CN12	O=C1CN=c2[nH]ccn12	
InChI=1S/C5H5N3O/c9-4-3-7-5-6-1-2-8(4)5/h1-2H,3H2,(H,6,7)	InChI=1S/C5H5N3O/c9-4-3-7-5-6-1-2-8(4)5/h1-2H,3H2,(H,6,7)
