18
gdb 29513	3.1103	1.51943	1.04491	1.5446	79.2	-0.173	0.0423	0.2153	1137.5345	0.150188	-401.972376	-401.964541	-401.963597	-402.004662	30.01	
C	-0.1025773818	 1.5362356743	-0.0392412428	-0.501551
C	-0.0309286944	 0.0430471631	 0.0330338161	 0.081082
C	-0.017962209	-0.8192183501	-1.0251250016	-0.128827
O	 0.0602713651	-2.1438108089	-0.6035321633	-0.212088
C	 0.0795155001	-2.0632080113	 0.7324865505	 0.376719
C	 0.0197479691	-0.796984322	 1.2003672186	 0.128068
C	 0.182422221	-0.8453997842	 2.6955233689	-0.353393
C	 0.0085925354	-2.3841555508	 2.9609188036	-0.163795
N	 0.2929859464	-3.0762567786	 1.662297824	-0.404439
H	 0.7718745298	 2.0029022422	 0.4292748863	 0.127106
H	-0.1488459218	 1.8809824893	-1.0760266276	 0.123421
H	-0.9869517131	 1.9212020882	 0.4817659696	 0.126252
H	-0.0855242558	-0.6823216035	-2.0909693534	 0.126444
H	 1.1772713923	-0.5067961854	 3.0151033261	 0.110962
H	-0.5491628029	-0.2668350468	 3.2691356323	 0.106572
H	 0.6825853431	-2.754206226	 3.7367955527	 0.113576
H	-1.0226633485	-2.5857147675	 3.2776320579	 0.106338
H	-0.265499795	-3.9113207421	 1.5260673823	 0.237553
131.4741	144.8294	188.9586	217.6946	229.7819	348.8363	489.1642	570.0516	591.9095	610.5049	637.3637	688.0008	709.209	761.1925	834.1332	860.1049	930.4527	1005.7225	1013.2834	1060.4182	1065.4884	1076.8893	1094.1582	1181.8563	1194.6104	1237.0472	1254.1977	1302.103	1316.9718	1362.9747	1412.8476	1423.983	1481.7392	1487.8801	1498.0863	1510.9375	1525.806	1591.5322	1675.4762	3008.1596	3017.6732	3025.7188	3059.0867	3074.3373	3097.6563	3108.9484	3283.4333	3532.4374
CC1=COC2=C1CCN2	Cc1coc2c1CCN2	
InChI=1S/C7H9NO/c1-5-4-9-7-6(5)2-3-8-7/h4,8H,2-3H2,1H3	InChI=1S/C7H9NO/c1-5-4-9-7-6(5)2-3-8-7/h4,8H,2-3H2,1H3
