21
gdb 59540	2.64967	1.20225	1.1066	2.4864	78.22	-0.2405	0.0729	0.3134	1230.0669	0.18147	-424.188126	-424.178715	-424.177771	-424.222099	36.022	
C	 0.0725276102	 1.5545984498	-0.0327144579	-0.404345
C	 0.096473853	 0.0351668151	 0.1375673501	 0.111461
O	 0.6414626515	-0.3337059721	 1.4060604889	-0.43529
C	-1.2888828935	-0.5862017273	-0.0407324115	 0.024927
C	-2.0095038787	-0.5720807834	-1.4302589653	-0.269029
C	-2.2434888139	-2.0850100503	-1.311429934	-0.125418
C	-0.9327362106	-2.8013986305	-1.2077417504	 0.112091
O	 0.2313125379	-2.3672138357	-1.8580432085	-0.415433
C	-1.4354093639	-2.1134651131	 0.0160907029	-0.10929
H	 1.0712578742	 1.969459842	 0.1287413968	 0.121138
H	-0.2634232566	 1.8400098823	-1.0350945166	 0.116413
H	-0.6109078645	 2.0181268482	 0.6913170903	 0.097632
H	 0.777347862	-0.4068754734	-0.5933910906	 0.113706
H	 0.0907563798	 0.0699663665	 2.0866472586	 0.269698
H	-1.9617827987	-0.1399251978	 0.7042281432	 0.057716
H	-2.9277499393	 0.0173576355	-1.4299163888	 0.100589
H	-1.395043344	-0.2674799592	-2.2831600915	 0.093155
H	-3.1631580636	-2.596960374	-1.5707822595	 0.082773
H	-1.0269499354	-3.8870028049	-1.1520111325	 0.087638
H	 0.1236718132	-2.5360555238	-2.8003400985	 0.284702
H	-1.625041279	-2.6739718637	 0.9238678849	 0.085168
68.6103	133.4468	150.426	226.0806	246.389	279.9713	292.616	319.5809	344.6903	414.1573	472.7478	514.8607	630.1746	728.603	741.4349	807.1435	824.6523	898.5141	938.2725	959.5901	985.6901	1002.6714	1020.1193	1037.2041	1051.081	1073.9189	1093.4964	1108.8999	1142.7035	1192.2322	1213.3692	1243.0735	1265.6009	1272.1961	1293.2294	1301.1975	1329.5887	1355.0066	1397.6357	1401.0348	1428.4841	1458.206	1486.7646	1489.8061	1493.906	3005.6697	3017.5333	3052.9774	3080.8055	3092.8741	3106.6659	3114.7981	3116.049	3170.1759	3182.1431	3786.8609	3800.5994
CC(O)C1CC2C(O)C12	C[C@@H](O)[C@H]1C[C@H]2[C@@H](O)[C@@H]12	
InChI=1S/C7H12O2/c1-3(8)4-2-5-6(4)7(5)9/h3-9H,2H2,1H3	InChI=1S/C7H12O2/c1-3(8)4-2-5-6(4)7(5)9/h3-9H,2H2,1H3/t3-,4-,5-,6+,7-/m1/s1
