16
gdb 110169	2.55627	1.22027	0.90185	2.3602	73.32	-0.2371	0.0166	0.2537	1273.6271	0.121873	-437.850778	-437.841494	-437.84055	-437.885411	32.847	
C	-0.2978230031	 1.334875129	-0.059771498	-0.249424
O	 0.3133454892	 0.0609827614	 0.0980626308	-0.242725
C	 0.7618697094	-0.4759190195	-1.1041697087	-0.036993
C	 1.3403195754	-1.9252836734	-0.9482484714	-0.178116
N	 0.3136280834	-2.3505443372	-1.9151917502	-0.325258
C	-0.3116373891	-1.1345693413	-2.029113292	 0.416298
O	-1.3052033998	-0.7679660212	-2.5970488026	-0.362865
C	 2.7202770454	-2.1578472813	-1.3381318606	 0.316811
C	 3.8633158368	-2.3526944788	-1.6536528795	-0.427445
H	 0.4143232068	 2.0659144659	-0.4709588912	 0.111443
H	-1.1715757971	 1.2808558544	-0.7190542695	 0.147084
H	-0.6080267499	 1.6590952553	 0.9353685143	 0.132526
H	 1.4353024095	 0.2043107193	-1.6444093183	 0.105379
H	 1.1512987264	-2.296154293	 0.064808116	 0.128236
H	 0.0946751626	-3.2642397774	-2.2850921677	 0.259188
H	 4.8740708343	-2.5232346622	-1.9326899712	 0.205862
64.5059	85.4892	146.0867	157.4432	191.9982	246.7333	271.889	373.7025	415.7068	466.1771	508.018	579.1522	635.4665	667.1908	719.4121	744.0775	882.9732	968.6553	1014.3186	1023.3723	1052.4746	1155.4002	1167.6969	1181.8232	1206.1522	1226.1384	1258.7689	1347.2849	1367.3477	1385.1644	1480.0344	1486.598	1512.3612	1892.0557	2240.3379	2993.7213	3014.1701	3053.6546	3071.8618	3132.5687	3500.6087	3607.4374
COC1C(NC1=O)C#C	CO[C@H]1[C@@H](NC1=O)C#C	
InChI=1S/C6H7NO2/c1-3-4-5(9-2)6(8)7-4/h1,4-5H,2H3,(H,7,8)	InChI=1S/C6H7NO2/c1-3-4-5(9-2)6(8)7-4/h1,4-5H,2H3,(H,7,8)/t4-,5-/m0/s1
