15
gdb 23534	2.13316	1.75626	1.08014	1.014	75.93	-0.2365	-0.0056	0.231	1085.7755	0.110883	-416.671424	-416.663237	-416.662293	-416.704198	30.929	
O	-0.0890200805	 1.280887462	 0.0468661455	-0.388643
N	 0.0584613052	-0.1101525095	-0.0697343637	-0.254799
C	-1.0507849332	-0.6972215214	 0.0850379944	 0.435716
C	-1.4329478047	-2.1159508565	-0.0670162002	-0.130724
C	-2.3847992482	-2.5092039418	 1.0058222263	-0.23934
N	-2.9213589646	-1.7346752741	-0.1164433862	-0.125748
C	-2.5245739517	-0.2814793205	 0.152468469	-0.267914
C	-3.0612370579	 0.3278490264	 1.3507384344	 0.37484
C	-3.5140670533	 0.8185765072	 2.3501628185	-0.456483
H	 0.8093530006	 1.5951434085	-0.1012784211	 0.311596
H	-0.9884352833	-2.8265478204	-0.7535440354	 0.121841
H	-2.7187971336	-3.5422519427	 0.9991850385	 0.134135
H	-2.3246421056	-2.0495452485	 1.9882875408	 0.138471
H	-2.7809554053	 0.312951954	-0.7304868755	 0.141427
H	-3.913155504	 1.2633137473	 3.2282831948	 0.205623
95.747	128.2937	170.6971	214.2966	311.4805	372.0321	418.9319	433.0114	495.4634	596.8096	606.6646	624.8358	664.719	714.6798	741.3994	809.1632	867.8042	953.2671	990.9393	995.6821	1036.2366	1071.0051	1116.5491	1134.2505	1175.5326	1200.7008	1231.0775	1317.2511	1325.2817	1423.559	1498.7649	1792.9464	2236.1867	3063.59	3119.5121	3191.4967	3211.2598	3501.875	3818.9252
ON=C1C2CN2C1C#C	ON=C1[C@H]2CN2[C@H]1C#C	
InChI=1S/C6H6N2O/c1-2-4-6(7-9)5-3-8(4)5/h1,4-5,9H,3H2	InChI=1S/C6H6N2O/c1-2-4-6(7-9)5-3-8(4)5/h1,4-5,9H,3H2/t4-,5+,8?/m0/s1
