20
gdb 97957	4.00945	0.53234	0.52565	3.6832	87.06	-0.239	0.0309	0.2699	2214.7324	0.168308	-403.164121	-403.152751	-403.151806	-403.205728	37.812	
C	-0.6806824995	 1.098263563	-0.4609164542	-0.364013
C	 0.3955435423	 0.1390402371	 0.0794987016	-0.313768
C	 1.2466728846	-0.4168953147	-0.9676235755	 0.077957
C	 1.932842434	-0.8518293918	-1.8570557593	 0.030806
C	 2.7820413642	-1.4003908449	-2.9098555957	-0.288989
N	 2.4791835572	-2.7979894043	-3.1964985604	-0.309424
C	 2.2904505715	-3.2466423992	-4.4731199354	 0.415771
C	 1.8804549805	-4.7065525802	-4.5895917083	-0.481451
O	 2.4359743824	-2.5330185238	-5.4494753153	-0.37301
H	-0.2214220155	 1.9433711377	-0.9805451172	 0.130718
H	-1.3381477174	 0.5855118345	-1.1680146298	 0.130002
H	-1.2909632932	 1.4874811688	 0.3594559274	 0.114908
H	 1.0197386939	 0.6630455903	 0.8146924411	 0.13046
H	-0.0859209555	-0.6815469413	 0.6270537812	 0.128476
H	 2.6464542798	-0.8656000598	-3.8556265734	 0.172371
H	 3.8393827506	-1.2872799543	-2.6315460595	 0.132932
H	 2.2895749864	-3.4065223967	-2.4180485771	 0.248174
H	 1.9249175588	-5.2533611745	-3.6440980697	 0.111334
H	 0.858629158	-4.7540182893	-4.977338797	 0.153305
H	 2.5300932167	-5.1956741666	-5.3188445333	 0.153444
6.6939	15.8375	34.4418	66.861	125.8535	157.1829	222.7769	246.1648	282.7172	336.4974	399.4052	432.4843	507.2609	536.5089	610.5472	638.0287	744.1627	784.3578	911.2994	960.078	989.6951	1034.846	1051.1873	1078.0183	1101.6115	1104.9941	1169.5101	1247.3041	1264.661	1287.0509	1351.2465	1375.6783	1396.3689	1410.1952	1469.3752	1473.3426	1484.9866	1489.8958	1494.9032	1505.1318	1526.3791	1778.5337	2367.9069	3003.6424	3020.0092	3045.4934	3047.0332	3049.2208	3080.6942	3118.9265	3122.7805	3125.6466	3135.9954	3657.1003
CCC#CCNC(C)=O	CCC#CCNC(=O)C	
InChI=1S/C7H11NO/c1-3-4-5-6-8-7(2)9/h3,6H2,1-2H3,(H,8,9)	InChI=1S/C7H11NO/c1-3-4-5-6-8-7(2)9/h3,6H2,1-2H3,(H,8,9)
