19
gdb 104601	2.71843	1.14014	0.91387	11.912	76.56	-0.1888	-0.0173	0.1715	1296.943	0.157728	-456.255467	-456.246192	-456.245248	-456.290019	34.371	
N	-0.6583553823	 2.6208642659	 2.4900284381	-0.430649
H	-0.6557177335	 3.238227674	 1.6780932062	 0.310205
H	 0.2556788505	 2.7166279127	 2.9292237472	 0.320354
H	-1.3644970228	 2.9942360235	 3.151380115	 0.276394
C	-0.8073865525	 1.1737949891	 2.0335776387	-0.451398
C	-2.1722698851	 0.9216249969	 1.441697223	 0.331039
C	-2.2432218008	-0.5040592373	 0.9074280463	-0.383455
C	-1.2232567617	-0.8332412061	-0.2033894362	 0.405055
O	-0.049139083	-0.2171356473	-0.1195539738	-0.386015
O	-1.48624347	-1.6334434824	-1.0683653121	-0.356425
C	-3.4376501021	 1.595353522	 1.8677438611	-0.306423
N	-2.8369693929	 1.8932897981	 0.547746379	-0.325685
H	-0.0710987377	 0.4199436082	 0.6938703327	 0.288094
H	-0.7027818216	 0.591436565	 2.9573175666	 0.083246
H	-2.0690995614	-1.210186996	 1.7309481542	 0.11478
H	-3.233755705	-0.7140515264	 0.501729573	 0.126473
H	-4.3944028817	 1.0800528784	 1.8324877209	 0.123287
H	-3.3997478714	 2.362404676	 2.6433893128	 0.069286
H	-2.3950655549	 2.8104750557	 0.5431382171	 0.191835
59.1489	85.4929	125.2462	191.1209	241.1025	262.8914	334.9126	367.73	386.4815	448.9894	528.4075	578.6542	666.7363	706.6619	769.0241	810.919	869.1858	889.5117	907.6429	926.4956	951.1076	972.9121	1025.5355	1055.9833	1080.7563	1115.4498	1130.7404	1170.113	1226.8201	1274.3903	1288.2622	1313.8195	1366.1954	1397.7561	1430.3586	1456.1798	1514.1859	1591.2035	1642.0062	1650.4506	1834.0919	2510.7509	3026.7679	3041.9038	3065.4213	3125.1873	3157.2685	3179.5085	3464.2219	3475.9268	3542.8007
[NH3+]CC1(CC([O-])=O)CN1	[NH3][CH][C@@]1(CC(=O)O)CN1	
InChI=1S/C5H10N2O2/c6-2-5(3-7-5)1-4(8)9/h7H,1-3,6H2,(H,8,9)	InChI=1S/C5H10N2O2/c6-2-5(3-7-5)1-4(8)9/h2,7H,1,3H2,6H3,(H,8,9)/t5-/m0/s1
