19
gdb 6385	2.6713	1.51779	1.02958	6.757	68.16	-0.2365	0.037	0.2736	1146.1332	0.165854	-402.241357	-402.232461	-402.231517	-402.275118	32.411	
C	 1.4987782356	 1.9864177807	-0.1143093713	-0.39984
C	 0.4522074192	 0.8679124761	 0.0003621798	 0.02076
C	 0.4409058399	 0.0494998467	-1.301578895	-0.159905
N	-0.6651110491	-0.9264065975	-1.3384080693	-0.517789
H	-0.4913869905	-1.6465050951	-2.0317364895	 0.248848
H	-1.0468371298	-1.3378260998	 0.3105169992	 0.316194
H	-1.5311777929	-0.4670372555	-1.6068427249	 0.251495
C	 0.7318043902	 0.0011749006	 1.2589698973	-0.326522
C	-0.479517516	-0.5847937778	 1.9939867168	 0.378913
O	-1.3230111215	-1.3243490942	 1.2667656077	-0.382764
O	-0.6551011807	-0.4059917045	 3.1730746831	-0.333445
H	 2.5092632429	 1.5713573825	-0.208319135	 0.119311
H	 1.3140063777	 2.6191079702	-0.9886844616	 0.113255
H	 1.4842212814	 2.6252236121	 0.7728829383	 0.1296
H	-0.5337629077	 1.3411529966	 0.1104970768	 0.088616
H	 0.4113242953	 0.7331749243	-2.1620631456	 0.09839
H	 1.3800935284	-0.5114041651	-1.3745052107	 0.115468
H	 1.4008043641	-0.8271822803	 0.9875956693	 0.112714
H	 1.2561066836	 0.59814757	 2.0071238746	 0.126702
70.9073	85.0988	158.5159	219.6446	254.4044	275.3199	325.1528	342.187	402.826	439.278	494.1285	606.9865	706.0235	840.5855	869.6003	886.5222	921.787	961.1101	976.3853	999.3314	1058.7727	1068.3723	1095.7053	1144.2824	1173.1689	1252.5969	1302.0183	1313.7139	1333.5155	1357.5524	1375.4244	1408.0594	1424.5822	1470.9171	1487.1273	1497.1183	1501.2234	1506.5612	1652.8055	1847.2332	2997.0872	3005.9042	3023.1708	3030.53	3063.1956	3095.2726	3111.	3116.8748	3177.4096	3497.5246	3576.9709
CC(C[NH3+])CC([O-])=O	C[C@@H](CN)CC(=O)O	
InChI=1S/C5H11NO2/c1-4(3-6)2-5(7)8/h4H,2-3,6H2,1H3,(H,7,8)	InChI=1S/C5H11NO2/c1-4(3-6)2-5(7)8/h4H,2-3,6H2,1H3,(H,7,8)/t4-/m1/s1
