18
gdb 124793	3.98327	1.04544	0.86794	4.593	74.38	-0.2497	0.006	0.2558	1343.7403	0.147622	-435.306299	-435.296797	-435.295853	-435.341794	33.426	
C	-0.0117278175	 1.4695651373	-0.3608861464	-0.383438
C	-0.0430389591	 0.0697864041	 0.2542262539	 0.053974
O	 0.3767644999	 0.150266889	 1.6036257328	-0.441911
C	-1.4051010835	-0.5603289171	 0.1468399973	 0.315895
N	-2.0319353048	-1.0270929324	 1.2134257539	-0.294491
N	-3.1750338428	-1.5266805784	 0.6781372362	-0.238318
C	-3.1926460283	-1.3418130198	-0.6607863358	 0.35675
C	-4.3175410578	-1.7520831605	-1.5494239464	-0.501101
N	-2.0777624596	-0.7335888408	-1.028360438	-0.347786
H	 0.99711576	 1.8821889801	-0.2768840995	 0.121029
H	-0.2965276282	 1.4293612265	-1.4151233997	 0.130251
H	-0.7025192776	 2.1298470593	 0.1712998419	 0.118666
H	 0.6530364746	-0.5694077751	-0.316210724	 0.085751
H	-0.1749107349	-0.4535453081	 2.1152042748	 0.29398
H	-3.8648061241	-1.9526029035	 1.2750420531	 0.278006
H	-5.1497680936	-1.041792652	-1.4913684871	 0.150192
H	-3.9640011516	-1.7763793754	-2.5807952662	 0.166014
H	-4.701539151	-2.7416023232	-1.2835009606	 0.136537
37.5533	47.7694	133.4558	170.5905	214.3496	244.3755	280.4999	335.2465	355.6038	473.7866	493.6564	525.7294	663.1193	696.8741	723.8404	783.2499	921.0568	992.5895	1011.1334	1052.2692	1063.9152	1072.8518	1101.7109	1155.9504	1177.831	1271.0931	1304.5048	1342.0152	1384.733	1401.9356	1413.4845	1420.7726	1444.4727	1482.4804	1484.8589	1493.5651	1504.4354	1538.1174	1588.5993	2949.1828	3042.7167	3046.8387	3100.3282	3123.7234	3134.0076	3151.94	3663.2352	3782.5698
CC(O)C1=NNC(C)=N1	C[C@@H](O)c1n[nH]c(C)n1	
InChI=1S/C5H9N3O/c1-3(9)5-6-4(2)7-8-5/h3,9H,1-2H3,(H,6,7,8)	InChI=1S/C5H9N3O/c1-3(9)5-6-4(2)7-8-5/h3,9H,1-2H3,(H,6,7,8)/t3-/m1/s1
