15
gdb 11300	4.97766	1.36947	1.23125	5.0762	61.52	-0.2743	0.0164	0.2908	963.8057	0.119393	-399.807672	-399.800112	-399.799168	-399.840299	27.145	
O	-0.6137443213	 1.4042116165	 0.4445889722	-0.432791
C	-0.0092122643	 0.1994178556	 0.0013106055	 0.09588
C	 0.8497645791	-0.4617634489	 1.0821436699	-0.093649
O	-0.061785859	-1.1016474454	 1.9726234991	-0.260154
C	-1.3082730509	-1.3151335029	 1.3104766818	 0.002762
C	-1.1320745304	-0.8272249453	-0.1481041612	-0.255623
C	-1.6856951176	-2.7343763907	 1.3914561463	 0.270198
N	-1.997973814	-3.8454901015	 1.4420798201	-0.320608
H	 0.079789447	 2.0201578332	 0.7014952994	 0.289188
H	 0.5482375738	 0.3484036198	-0.9334291074	 0.08285
H	 1.5395962954	-1.193984222	 0.6365114533	 0.106321
H	 1.4382073503	 0.2598304964	 1.6593097519	 0.108543
H	-2.0796672303	-0.7272220792	 1.8223876148	 0.136561
H	-2.0420329064	-0.3832624221	-0.552232885	 0.138751
H	-0.8163637514	-1.6492547135	-0.7942416207	 0.131771
38.8031	140.6528	183.94	252.682	296.5157	387.401	401.3848	533.0793	549.3116	664.5187	782.5315	847.1392	873.9456	918.4662	950.5517	982.2363	1014.9411	1049.4721	1096.6908	1132.0249	1195.0481	1200.4428	1248.9879	1296.6651	1335.3319	1347.1741	1363.1157	1383.6248	1415.4459	1477.4632	1511.3115	2360.7763	2994.0064	3018.6423	3037.7016	3068.9456	3086.931	3148.1944	3821.1956
OC1COC(C1)C#N	O[C@H]1CO[C@@H](C1)C#N	
InChI=1S/C5H7NO2/c6-2-5-1-4(7)3-8-5/h4-5,7H,1,3H2	InChI=1S/C5H7NO2/c6-2-5-1-4(7)3-8-5/h4-5,7H,1,3H2/t4-,5+/m1/s1
