16
gdb 20971	4.66699	1.55457	1.20142	4.0098	67.33	-0.2046	-0.0032	0.2015	977.9323	0.130843	-379.895588	-379.887898	-379.886954	-379.927964	27.762	
C	 0.2015150939	 1.4074023783	 0.0260565413	-0.338838
N	-0.297772478	 0.0404835102	 0.0033435605	-0.162491
C	-0.0507708487	-0.7164730973	 1.216287749	-0.335437
C	-0.1184583529	-0.6686492734	-1.1802836702	 0.20836
C	 0.1157331934	-2.0024560698	-1.3691080227	-0.029077
O	 0.1519344882	-2.289525969	-2.6893927429	-0.172107
N	-0.037394307	-1.1287575559	-3.4094403242	-0.12889
C	-0.1980717459	-0.1791079321	-2.5221737875	-0.052234
H	 1.3026900478	 1.4681077404	 0.0059702554	 0.113381
H	-0.1876364348	 1.967363551	-0.8274247358	 0.133619
H	-0.1539354505	 1.9008661147	 0.9347969374	 0.127519
H	-0.319904522	-0.1083117758	 2.0835115951	 0.126232
H	-0.6768993152	-1.6142786567	 1.2244685675	 0.132667
H	 1.0026179524	-1.0295363718	 1.3249342392	 0.109263
H	 0.2616323605	-2.8357300589	-0.7032240793	 0.14088
H	-0.3675647412	 0.8308311062	-2.8653037627	 0.127155
55.6622	160.932	196.6751	212.6535	255.2867	379.5629	391.5885	483.3055	609.2992	614.8645	675.7681	760.4812	881.2387	927.2788	938.9937	947.094	1029.4054	1078.7747	1126.4528	1137.1839	1175.5626	1203.7937	1239.2109	1267.3341	1346.2665	1418.2078	1447.7658	1468.399	1482.584	1489.6124	1495.4535	1504.763	1519.6474	1667.273	2952.7632	2966.7469	3067.7176	3081.1953	3116.2068	3123.3413	3251.3507	3285.9156
CN(C)C1=CON=C1	CN(C)c1conc1	
InChI=1S/C5H8N2O/c1-7(2)5-3-6-8-4-5/h3-4H,1-2H3	InChI=1S/C5H8N2O/c1-7(2)5-3-6-8-4-5/h3-4H,1-2H3
