16
gdb 35537	4.61746	1.09979	0.98844	5.78	75.08	-0.2505	-0.0023	0.2482	1171.3533	0.127103	-396.919037	-396.91178	-396.910835	-396.950948	27.883	
N	-0.0265766652	-1.1314176141	-0.2637464133	-0.324099
C	 0.0318518614	 0.0153792551	-0.1361473898	 0.294017
C	 0.0550045306	 1.4675062124	 0.0521184996	-0.119131
C	-0.6770614875	 1.9029450788	 1.3916805665	-0.265493
C	 0.0477271766	 3.2261120781	 1.6682002814	-0.105121
C	 0.9877315698	 3.6159995985	 2.8647298804	-0.203909
N	 2.1271810114	 3.6510560896	 1.8786974589	-0.364694
C	 1.3503608404	 2.9257283364	 0.9912360581	 0.398265
N	 1.4600145258	 1.9665121594	 0.1645058925	-0.313941
H	-0.4452895863	 1.917462642	-0.8169089451	 0.128537
H	-1.7583988692	 1.9870544768	 1.268980385	 0.123556
H	-0.470325346	 1.1550729152	 2.162324292	 0.132877
H	-0.4832448949	 4.0971215007	 1.2779809461	 0.112923
H	 0.7989604275	 4.5749063632	 3.3503034465	 0.127323
H	 1.0937600724	 2.8206164976	 3.6094190169	 0.126716
H	 3.0640630932	 3.3481936805	 2.1178009743	 0.252173
86.9331	161.8321	216.6951	318.4407	337.1189	431.1572	494.5242	556.7003	594.4115	645.4197	722.2229	782.7181	832.5118	849.5958	914.811	944.7366	948.8122	964.709	1040.4048	1059.7566	1096.9466	1138.8629	1161.5622	1207.8355	1221.3688	1257.6826	1273.2255	1323.0799	1337.9399	1344.4404	1371.956	1483.9588	1506.435	1762.4003	2363.2151	3011.0222	3051.6549	3070.3287	3088.2025	3124.101	3131.1717	3560.9998
N#CC1CC2CNC2=N1	N#C[C@H]1C[C@H]2CN[C]2[N]1	
InChI=1S/C6H7N3/c7-2-5-1-4-3-8-6(4)9-5/h4-5H,1,3H2,(H,8,9)	InChI=1S/C6H7N3/c7-2-5-1-4-3-8-6(4)9-5/h4-5H,1,3H2,(H,8,9)/t4-,5+/m0/s1
