19
gdb 32661	2.02411	1.71188	1.04686	2.6999	78.08	-0.22	0.0196	0.2396	1176.1536	0.160802	-419.245637	-419.2367	-419.235756	-419.27992	32.755	
C	 0.0135269135	 1.5871418941	 0.017265814	-0.384772
C	 0.0182808807	 0.0572912814	-0.0195443693	-0.162478
N	 0.7097615668	-0.4826624613	-1.1852087303	-0.017529
C	 0.1228397062	-0.793958637	-2.3909393445	-0.129371
C	 1.1420257846	-1.1911249025	-3.2159711693	-0.104748
N	 2.341386612	-1.1285759103	-2.5545527111	-0.307091
C	 2.0564556591	-0.6997379121	-1.3379636023	 0.292665
C	 3.0819985798	-0.4302973122	-0.2859346062	-0.180535
O	 3.3469154145	 0.9630849279	-0.0973281196	-0.408704
H	 1.0398592573	 1.9582247388	 0.0583326188	 0.154472
H	-0.4775860376	 1.9956769698	-0.8710038262	 0.124009
H	-0.5263564779	 1.9393256746	 0.9016798237	 0.118455
H	 0.4999417639	-0.3408528364	 0.8782020733	 0.126701
H	-1.002036712	-0.3372730405	-0.0345127786	 0.120757
H	-0.9426572258	-0.7128964867	-2.5341680848	 0.123342
H	 1.076877044	-1.5251926684	-4.2403870946	 0.106176
H	 2.7651682382	-0.7963583723	 0.6959444288	 0.114411
H	 3.9889044614	-0.974828623	-0.5738386492	 0.125627
H	 3.6391288713	 1.3067942761	-0.9491091827	 0.288614
48.6377	99.2254	134.0142	165.2445	232.241	299.9115	344.9244	391.5372	421.5207	473.2621	632.6419	659.5989	704.0089	744.2688	786.4952	799.9695	849.629	931.2863	954.2375	967.3695	1032.4844	1083.4747	1108.1614	1115.3552	1161.8071	1205.7977	1229.2405	1285.664	1316.3143	1363.104	1383.6654	1408.0983	1414.6065	1415.2071	1458.7015	1484.5288	1489.7769	1496.0247	1514.5796	1523.9627	1558.5846	3037.3875	3043.2983	3056.9768	3085.0199	3095.5408	3116.4348	3141.672	3244.2593	3270.2364	3803.8543
CCN1C=CN=C1CO	CCn1ccnc1CO	
InChI=1S/C6H10N2O/c1-2-8-4-3-7-6(8)5-9/h3-4,9H,2,5H2,1H3	InChI=1S/C6H10N2O/c1-2-8-4-3-7-6(8)5-9/h3-4,9H,2,5H2,1H3
