15
gdb 45650	3.33762	1.64459	1.20083	3.7851	72.15	-0.2395	-0.0097	0.2297	987.2082	0.114285	-416.792506	-416.785686	-416.784741	-416.824538	26.175	
O	-0.2203474526	-0.1104487977	 0.0338296814	-0.358011
C	-0.1011256043	 1.0831776218	 0.1211657583	 0.362084
C	-1.1907797185	 2.2048207072	 0.0085808562	-0.29735
N	-0.5462619644	 3.5248425051	 0.2190398443	-0.366675
C	 0.6708867699	 3.2045068088	 0.3876047565	 0.431742
C	 2.0737130262	 3.6353074546	 0.7290843504	-0.221527
C	 2.5309184601	 2.818758213	 1.9387182141	-0.280712
C	 2.443507399	 2.1385525835	 0.6107329801	-0.006282
N	 1.0314744594	 1.8633392469	 0.3009494808	-0.116207
H	-1.6695678923	 2.1544207321	-0.9748889551	 0.150451
H	-1.969342647	 2.0386407632	 0.7600333853	 0.150291
H	 2.6021160156	 4.5086578488	 0.377927771	 0.132247
H	 3.5339645335	 3.0587274	 2.2791303164	 0.137747
H	 1.8284707636	 2.5639646279	 2.7254171129	 0.141729
H	 3.2486028317	 1.6563126548	 0.0757929275	 0.140474
38.4586	179.4219	279.7217	318.9997	448.8927	535.8666	551.1569	650.6367	660.039	716.6245	764.0204	803.4245	863.2231	913.8098	954.6881	964.4148	977.0017	995.6983	1029.8362	1043.8814	1092.1413	1105.8302	1172.8122	1177.8846	1221.5142	1252.8454	1291.2013	1311.0834	1350.402	1444.469	1476.9672	1754.3014	1850.0788	3058.6355	3099.2357	3127.3959	3217.8514	3229.7907	3241.1431
O=C1CN=C2C3CC3N12	O=C1CN=C2[C@H]3C[C@H]3N12	
InChI=1S/C6H6N2O/c9-5-2-7-6-3-1-4(3)8(5)6/h3-4H,1-2H2	InChI=1S/C6H6N2O/c9-5-2-7-6-3-1-4(3)8(5)6/h3-4H,1-2H2/t3-,4+/m0/s1
