21
gdb 58609	2.29187	1.39474	1.10706	2.7444	78.39	-0.2353	0.0303	0.2656	1209.8292	0.182027	-420.42697	-420.417031	-420.416086	-420.461602	37.555	
C	 0.6017341228	 1.5823996897	-0.2280465289	-0.395026
C	 0.077865278	 0.1592270051	 0.0340722868	-0.03857
C	 0.1668888143	-0.700495564	-1.2316830102	-0.42494
C	 0.7768004943	-0.4346347539	 1.2579108754	 0.213544
C	 1.1911395718	-1.8677141075	 1.3322682271	-0.268867
N	 2.2067880569	-0.8100266004	 1.2237263493	-0.370375
C	 0.3372332719	 0.2085725859	 2.5677741819	 0.372242
N	 1.2910198972	 0.2153286583	 3.5345427748	-0.532757
O	-0.7921084466	 0.6405298362	 2.7203332449	-0.381796
H	 1.665088894	 1.5741282569	-0.4962570283	 0.104747
H	 0.0550909284	 2.0486598227	-1.0534463065	 0.113411
H	 0.4784139322	 2.2153869593	 0.6547215524	 0.134328
H	-0.9745697316	 0.2431736148	 0.3230519124	 0.114123
H	 1.2049657328	-0.8968034571	-1.5308686905	 0.103195
H	-0.3401257744	-1.6620699794	-1.1137105441	 0.121746
H	-0.3079269743	-0.1784104395	-2.0676251348	 0.121074
H	 1.1681120627	-2.3793907744	 2.2899834438	 0.126262
H	 1.0113143252	-2.5025419885	 0.4712514215	 0.121248
H	 2.5582768959	-0.755640883	 0.2707899854	 0.235302
H	 2.2401382621	-0.0074884598	 3.2773014787	 0.273715
H	 1.0844111363	 0.6716422986	 4.4069121588	 0.257397
66.2609	70.4614	187.097	217.2862	232.7846	256.5378	300.3082	319.5809	344.3237	369.4865	414.9454	465.9193	512.2293	574.0861	652.9295	668.6659	759.6969	838.1942	881.9899	900.6939	929.3923	952.3286	970.7489	984.9309	1033.6314	1095.9109	1111.5895	1135.8396	1154.8929	1185.4198	1232.4553	1260.8047	1340.3389	1347.4523	1353.4074	1398.1824	1412.9962	1422.7877	1485.0899	1494.8358	1504.5145	1505.416	1515.6563	1585.292	1787.9832	3019.8454	3028.8418	3063.2071	3088.3063	3098.908	3111.1468	3118.4005	3122.7865	3211.3933	3498.5164	3578.6852	3725.1208
CC(C)C1(CN1)C(N)=O	CC(C)[C@]1(CN1)C(=O)N	
InChI=1S/C6H12N2O/c1-4(2)6(3-8-6)5(7)9/h4,8H,3H2,1-2H3,(H2,7,9)	InChI=1S/C6H12N2O/c1-4(2)6(3-8-6)5(7)9/h4,8H,3H2,1-2H3,(H2,7,9)/t6-/m1/s1
