21
gdb 63949	2.71748	1.67737	1.51584	2.3553	76.47	-0.2453	0.0827	0.328	1001.0829	0.183935	-424.244565	-424.236674	-424.23573	-424.276324	32.417	
C	-0.0731333697	 1.5330540135	-0.0732879125	-0.439283
C	-0.0160924421	 0.0067741932	 0.0337558938	 0.413434
C	-1.4383910781	-0.5569036466	 0.1026730665	-0.429706
O	 0.6388573396	-0.5075939717	-1.1699250217	-0.3118
C	 1.7909609524	-1.1927283049	-0.720633277	 0.212786
C	 1.3117609327	-1.9132851652	 0.5395587639	-0.265166
C	 0.9107027334	-0.5551279507	 1.1595873016	-0.114094
C	 2.2792183766	 0.1374571508	 1.0661089647	-0.089573
O	 2.7605758417	-0.2699185518	-0.2334310486	-0.275165
H	 0.9007233298	 1.9490175047	-0.3352399642	 0.137198
H	-0.7752617107	 1.8188196685	-0.862117588	 0.120879
H	-0.4170502763	 1.9841830338	 0.8638988266	 0.107952
H	-1.9581235076	-0.3476304204	-0.8367487652	 0.127566
H	-1.4494431855	-1.6378292093	 0.2593548644	 0.114094
H	-2.0006703447	-0.0867084905	 0.9163653489	 0.111835
H	 2.2212544078	-1.7507839968	-1.5504700333	 0.088527
H	 0.4886655912	-2.6024671944	 0.354843409	 0.109184
H	 2.113014915	-2.4193978061	 1.0823398758	 0.105675
H	 0.4619611285	-0.5605502424	 2.15302322	 0.073986
H	 2.2382242961	 1.2280052898	 1.1153502348	 0.106504
H	 2.9645108298	-0.2187058835	 1.8471056105	 0.095165
137.6922	197.9332	222.6702	269.0238	336.3127	385.4841	397.8741	467.7151	490.1322	540.3903	580.0095	690.3589	803.4246	811.4761	850.645	901.3485	913.4817	930.7981	935.595	953.9292	962.2347	980.7265	1001.834	1038.3294	1067.1972	1078.3473	1116.9945	1169.4213	1201.5977	1207.429	1223.4064	1260.3738	1277.2255	1307.6908	1321.6603	1345.638	1383.1711	1398.3428	1415.8594	1474.5022	1484.2384	1493.8204	1500.6499	1507.5762	1539.7462	3012.0531	3037.7318	3043.5701	3082.6774	3091.8896	3104.4146	3111.6154	3119.8691	3123.2114	3141.0293	3146.0891	3149.728
CC1(C)OC2CC1CO2	CC1(C)O[C@@H]2C[C@H]1CO2	
InChI=1S/C7H12O2/c1-7(2)5-3-6(9-7)8-4-5/h5-6H,3-4H2,1-2H3	InChI=1S/C7H12O2/c1-7(2)5-3-6(9-7)8-4-5/h5-6H,3-4H2,1-2H3/t5-,6+/m0/s1
