17
gdb 8518	4.3701	1.84708	1.61983	2.0764	67.91	-0.225	0.0683	0.2933	842.1404	0.14149	-363.798328	-363.79095	-363.790006	-363.829475	28.721	
C	-0.1071455084	 1.4787894267	-0.0239943237	-0.493843
C	-0.0017449879	-0.0120868816	-0.0742696011	 0.359657
C	 0.8947444853	-0.8636999397	-0.9760356847	-0.360041
C	 0.0872113524	-2.0746838983	-0.4277123185	 0.363275
O	-0.1305634263	-3.2212797682	-1.1720646892	-0.478254
C	 0.4692889177	-2.0749691124	 1.0646010073	-0.205945
N	-0.2537542192	-0.7681452708	 1.2147677672	-0.184155
C	-1.0481339989	-1.0621631549	-0.0148258768	-0.152323
H	 0.831984038	 1.9259717281	 0.321168933	 0.122692
H	-0.334539269	 1.8904972562	-1.0131264152	 0.117759
H	-0.8970682271	 1.7797213888	 0.6693988919	 0.13451
H	 0.6658382713	-0.6818302739	-2.0297620318	 0.107122
H	 1.979614537	-0.8524739885	-0.8138538759	 0.086685
H	 0.7181752361	-3.5542734398	-1.4839089713	 0.28476
H	-0.0662564533	-2.8358924827	 1.638148573	 0.111533
H	 1.5307025469	-2.0644086022	 1.3425172734	 0.08824
H	-2.1290211346	-1.0635006769	-0.0670058575	 0.098329
126.0136	190.1277	211.6975	272.2714	341.7242	385.9421	456.3745	472.2377	582.2175	636.4381	715.3064	752.7876	830.2071	895.4884	907.5535	953.5491	966.3015	996.1438	1018.9304	1023.3401	1079.6575	1111.9649	1145.753	1151.0753	1164.6868	1201.7348	1248.624	1262.7184	1315.3958	1380.6554	1393.8345	1433.0207	1483.9182	1490.2101	1492.9789	1513.9672	3020.88	3028.4154	3032.1068	3091.7205	3100.0039	3104.6143	3117.9109	3203.3733	3802.9456
CC12CC3(O)CN1C23	C[C@@]12C[C@@]3(O)CN1[C@@H]23	
InChI=1S/C6H9NO/c1-5-2-6(8)3-7(5)4(5)6/h4,8H,2-3H2,1H3	InChI=1S/C6H9NO/c1-5-2-6(8)3-7(5)4(5)6/h4,8H,2-3H2,1H3/t4-,5-,6+,7?/m0/s1
