23
gdb 59473	3.02936	1.01537	0.83758	0.5934	87.65	-0.2211	0.0757	0.2968	1464.9312	0.205054	-384.414656	-384.404748	-384.403803	-384.449708	37.124	
C	 0.2538373875	 0.9103944849	-2.0435967145	-0.385298
C	 0.2463528561	 0.0755236605	-0.7609853493	 0.085369
C	 0.4893292001	 0.9393552124	 0.4783060486	-0.389494
N	-1.0646441245	-0.5721161267	-0.6439056471	-0.083747
C	-1.2896580114	-1.8192907803	-1.3602480454	-0.268223
C	-1.2341542312	-1.801103632	 0.1323070426	-0.016754
C	-0.1260224135	-2.4938941254	 0.8638847782	 0.012497
C	-0.1260175251	-2.5157048424	 2.3499641858	-0.245555
N	-0.4266218289	-3.7409948043	 1.5901040062	-0.329667
H	 1.2160899305	 1.4164804562	-2.1690225542	 0.109568
H	 0.0834071359	 0.281968982	-2.9232669678	 0.113185
H	-0.536748377	 1.6664419787	-2.0086848334	 0.122954
H	 1.0596041786	-0.6669733299	-0.8368626573	 0.059421
H	-0.3003921429	 1.6909885332	 0.5754298472	 0.122547
H	 0.4946688097	 0.3320397519	 1.387847849	 0.120312
H	 1.4522555221	 1.4544769594	 0.4065459779	 0.110186
H	-2.2354169076	-1.9132802165	-1.8882896249	 0.112472
H	-0.4398268459	-2.2767347437	-1.8684384933	 0.108221
H	-2.1782088147	-1.8286441775	 0.6811576681	 0.080117
H	 0.8317493966	-2.5266777127	 0.3522989707	 0.097144
H	 0.8115345418	-2.5353530093	 2.8982250682	 0.12047
H	-0.9392153298	-2.004957414	 2.8605370028	 0.113435
H	-1.4317381363	-3.9046412644	 1.5847878816	 0.230841
61.5905	75.2165	133.9836	184.8066	217.4689	242.8822	287.1967	296.8742	336.5325	359.0017	445.1974	499.176	595.891	707.1446	782.6462	849.0325	886.6331	892.9747	930.4598	931.8976	953.6447	960.9567	971.8549	1022.5778	1071.9556	1075.1429	1116.3088	1122.7418	1145.4948	1146.6794	1162.7047	1185.8388	1196.8022	1240.5798	1252.2518	1294.6638	1326.1786	1334.9793	1362.6737	1374.9773	1396.9136	1416.1299	1454.5504	1482.3416	1487.9146	1494.67	1507.4683	1511.2342	1513.5171	2943.1195	3034.8981	3040.1701	3073.0338	3078.6327	3104.5852	3107.3144	3109.1359	3114.9074	3115.9788	3146.6135	3166.5707	3190.7854	3482.2034
CC(C)N1CC1C1CN1	CC(C)N1C[C@H]1[C@H]1CN1	
InChI=1S/C7H14N2/c1-5(2)9-4-7(9)6-3-8-6/h5-8H,3-4H2,1-2H3	InChI=1S/C7H14N2/c1-5(2)9-4-7(9)6-3-8-6/h5-8H,3-4H2,1-2H3/t6-,7+,9?/m1/s1
