18
gdb 33457	2.47848	1.42923	1.13403	1.3431	77.92	-0.2426	0.031	0.2736	1139.7088	0.146804	-401.862566	-401.853794	-401.85285	-401.896773	32.35	
C	-0.173525867	-1.1760315457	 0.1569825399	-0.450249
C	-0.1300761216	 0.0262187236	 0.1357530139	 0.272545
C	-0.0644469796	 1.4631566807	 0.0682455067	 0.11611
C	 0.5812113281	 2.1860607648	 1.208087974	-0.263607
N	 1.2702299001	 2.1024226214	-0.0821618333	-0.353795
C	-1.1591228613	 2.161564024	-0.713735015	 0.121096
C	-1.5741570949	 1.583070981	-2.0849906704	-0.315004
C	-2.9624493898	 1.4241862632	-1.4346506688	-0.058308
O	-2.4702769372	 1.9107951636	-0.1658646399	-0.293699
H	-0.2187589087	-2.2363784794	 0.1953163579	 0.198687
H	 0.2163837427	 3.1749060192	 1.4717690481	 0.130106
H	 0.9397392619	 1.5872739982	 2.0394020314	 0.127824
H	 1.988093573	 1.3828753378	-0.0477717999	 0.242825
H	-0.9220270933	 3.2329353718	-0.7274926491	 0.080873
H	-1.510595313	 2.2764146726	-2.9239340274	 0.113182
H	-1.0806902866	 0.6458006422	-2.3448696849	 0.122033
H	-3.7497609979	 2.0719517725	-1.8393081339	 0.100482
H	-3.3454559148	 0.4008955986	-1.3542999591	 0.108898
52.7885	69.1266	144.5741	174.0046	239.6093	274.0429	357.7825	433.3511	556.7836	580.149	602.6415	662.7929	674.964	786.358	825.1687	848.783	886.9207	933.3685	955.4996	968.5686	1000.4137	1030.9798	1034.5349	1091.8645	1107.5215	1135.4542	1165.5296	1216.9347	1255.2981	1263.0689	1273.0871	1302.7516	1345.9933	1359.	1401.0058	1486.6363	1504.359	1527.2967	2231.3076	3018.7498	3026.2594	3065.4682	3088.6444	3115.8404	3145.9198	3208.0691	3501.0392	3509.3751
C#CC1(CN1)C1CCO1	C#C[C@]1(CN1)[C@H]1CCO1	
InChI=1S/C7H9NO/c1-2-7(5-8-7)6-3-4-9-6/h1,6,8H,3-5H2	InChI=1S/C7H9NO/c1-2-7(5-8-7)6-3-4-9-6/h1,6,8H,3-5H2/t6-,7+/m1/s1
