12
gdb 45609	3.50087	1.27969	0.94257	5.588	69.34	-0.2603	-0.1211	0.1392	1120.162	0.077211	-435.534988	-435.527467	-435.526523	-435.567559	26.783	
O	 0.0049235108	 0.0043819222	 0.0044150421	-0.256503
C	-0.0375862362	 1.2003723544	 0.011066271	 0.332057
C	-1.2750267199	 2.0973213763	 0.0322878611	-0.387198
C	-0.7015434255	 3.4855238196	 0.0314040334	-0.153518
C	 0.6478409571	 3.5209632156	 0.0133780854	 0.08368
C	 1.4576212356	 4.688035138	 0.0082258916	 0.238994
N	 2.1326945476	 5.6277591954	 0.0037706159	-0.315702
C	 1.2081396372	 2.1375311436	-0.0010514041	 0.226524
O	 2.3549198973	 1.7865175749	-0.0182701235	-0.262107
H	-1.9146089077	 1.906164032	-0.8380591955	 0.16923
H	-1.8907218539	 1.8974717278	 0.9177831869	 0.169232
H	-1.3272289423	 4.3708393403	 0.0442014758	 0.15531
69.9228	138.6779	174.3981	271.2065	313.7602	395.6127	439.5672	484.5066	559.2143	611.3527	663.9493	733.64	740.8756	863.8115	934.2736	985.7149	995.5955	1054.7283	1150.4694	1242.9627	1290.38	1322.4789	1429.2297	1645.2615	1836.6397	1872.8055	2351.7502	3040.6587	3072.2221	3206.1603
O=C1CC=C(C#N)C1=O	O=C1CC=C(C#N)C1=O	
InChI=1S/C6H3NO2/c7-3-4-1-2-5(8)6(4)9/h1H,2H2	InChI=1S/C6H3NO2/c7-3-4-1-2-5(8)6(4)9/h1H,2H2
