18
gdb 10273	2.94881	1.65845	1.11508	2.5451	74.85	-0.2233	-0.0605	0.1629	1084.7957	0.150911	-381.113688	-381.104006	-381.103062	-381.14822	33.201	
C	-0.0095639154	 1.4235798285	 0.2375682703	-0.320667
N	 0.0943571032	-0.0128740515	 0.0843251855	-0.30049
C	 0.4835865943	-0.5804665706	-0.9907123996	 0.287307
C	 0.863633326	 0.1375997005	-2.2695290051	 0.079919
O	 1.4273680329	 1.2018525713	-2.3128740095	-0.239151
N	 0.4301581566	-1.9647981139	-1.1180991393	-0.093253
C	-0.1016522313	-2.7071608284	 0.0134886998	-0.314402
C	 1.5061603173	-2.6464906916	-1.8250774387	-0.34412
H	 0.857834255	 1.7895211369	 0.8016010766	 0.130763
H	-0.0560963681	 1.9977234794	-0.6936404335	 0.126315
H	-0.8962947231	 1.6446369724	 0.8416267463	 0.116455
H	 0.5227148773	-0.3719265176	-3.1981999333	 0.098977
H	-1.030483315	-2.2457211936	 0.3482610476	 0.146901
H	-0.2911993099	-3.7372606303	-0.302729755	 0.113646
H	 0.5905898461	-2.7202162767	 0.8683037908	 0.11981
H	 2.3703671996	-2.8471065302	-1.1721860995	 0.123841
H	 1.1437848385	-3.6028954976	-2.2148934341	 0.131719
H	 1.861517266	-2.0519007171	-2.669452339	 0.136429
63.3107	103.1897	140.0787	159.4368	190.6687	218.4018	252.1274	278.4243	316.8607	387.7077	414.1229	467.4875	556.2413	619.7198	852.7166	922.417	1016.0533	1072.4316	1077.5143	1123.3055	1126.537	1135.3912	1173.9926	1190.0442	1279.3339	1375.3035	1422.4374	1444.9782	1446.8802	1469.4744	1476.6279	1479.9923	1488.6991	1500.0692	1503.1672	1528.0519	1691.7707	1815.8181	2877.8178	2981.6784	3000.6577	3015.3353	3068.3087	3071.474	3081.8084	3090.16	3123.3883	3150.6444
CN=C(C=O)N(C)C	CN=C(C=O)N(C)C	
InChI=1S/C5H10N2O/c1-6-5(4-8)7(2)3/h4H,1-3H3	InChI=1S/C5H10N2O/c1-6-5(4-8)7(2)3/h4H,1-3H3
