20
gdb 116656	4.23176	0.70187	0.63079	3.1821	80.69	-0.2497	0.0172	0.2669	1783.4365	0.168019	-440.250089	-440.239736	-440.238792	-440.286888	35.724	
C	 0.4099728798	 1.0252847037	 0.7893178967	-0.25135
O	-0.1293837004	 0.4585317703	-0.3982857875	-0.192544
C	 0.6026754333	-0.5291767044	-0.9551090531	 0.124289
N	 0.2127566961	-1.0732610551	-2.019303177	-0.23608
C	 0.9760915843	-2.1539777933	-2.6301510375	 0.02748
C	 2.2783698712	-2.5966776114	-1.9492235532	-0.423087
C	 0.0351708061	-3.3399859463	-2.7754081829	 0.113672
C	-0.7690018531	-3.5517895732	-3.9789606329	-0.17436
O	 0.4112973049	-4.3277491621	-3.7346496881	-0.244857
H	 0.527908707	 0.2723216807	 1.5783744403	 0.12625
H	 1.37785077	 1.5066975328	 0.602756123	 0.127008
H	-0.3041608486	 1.7795838185	 1.1215595777	 0.147138
H	 1.5166726527	-0.7724420482	-0.3980354997	 0.07798
H	 1.220643563	-1.8272020637	-3.6500395382	 0.091475
H	 2.7242065006	-3.405639445	-2.5337015667	 0.138981
H	 3.0045212926	-1.7798523039	-1.8896306184	 0.114576
H	 2.0992136171	-2.9745393111	-0.93603295	 0.114222
H	-0.3327134398	-3.7443183211	-1.8297808405	 0.087476
H	-1.7078937975	-4.0995178158	-3.9171834839	 0.114376
H	-0.6984086191	-2.8393715814	-4.7994016678	 0.117358
40.2617	66.1853	69.6185	143.5186	157.377	200.1063	236.7854	285.4014	310.2034	364.0079	402.2545	442.7441	532.4068	637.2301	803.7462	871.0127	904.7224	957.2168	965.7546	993.5858	1048.0201	1082.0412	1107.5957	1124.1213	1151.4207	1167.2555	1176.0053	1181.0937	1196.0524	1275.0527	1289.1573	1300.1303	1351.6308	1393.5633	1417.9047	1442.9675	1483.9882	1494.7227	1497.9855	1500.5633	1501.1008	1531.0409	1772.7253	3010.286	3012.7865	3029.0676	3039.7954	3074.8989	3085.1483	3090.4275	3098.9623	3120.9509	3144.7316	3174.6433
COC=NC(C)C1CO1	COC=N[C@@H](C)[C@H]1CO1	
InChI=1S/C6H11NO2/c1-5(6-3-9-6)7-4-8-2/h4-6H,3H2,1-2H3	InChI=1S/C6H11NO2/c1-5(6-3-9-6)7-4-8-2/h4-6H,3H2,1-2H3/t5-,6+/m0/s1
