18
gdb 36379	2.54323	1.19522	1.00736	3.6496	76.82	-0.2414	0.0135	0.255	1234.59	0.148049	-398.07033	-398.061567	-398.060623	-398.104701	31.746	
N	-0.9838455005	 0.4832272994	-1.0150188009	-0.318851
C	-0.2052346646	 0.6805939836	-0.1833163439	 0.255301
C	 0.826057407	 0.9388074127	 0.838289762	-0.259939
N	 1.8016843311	 1.9876038929	 0.5611213436	-0.100965
C	 1.9852422712	 2.5233627503	-0.7842038567	-0.274786
C	 1.4013053827	 3.3738876993	 0.2956795224	-0.005768
C	-0.0223687386	 3.8344903951	 0.2556247569	-0.013151
C	-0.5765706498	 4.5586952609	 1.4325286316	-0.247515
N	-0.2979290328	 5.2795826497	 0.1816558383	-0.319313
H	 0.3278364471	 1.1627770609	 1.7875417101	 0.162448
H	 1.3761299846	 0.0013258951	 0.9815480657	 0.163426
H	 3.0169165916	 2.648303975	-1.1015932044	 0.124181
H	 1.3019569969	 2.1933322176	-1.5648933241	 0.143443
H	 2.0604269304	 4.0869983692	 0.7947436592	 0.089847
H	-0.6995264162	 3.2404048672	-0.3500478561	 0.128597
H	-1.629222584	 4.4646376968	 1.6829687402	 0.127391
H	 0.0813918664	 4.7160212202	 2.2841400863	 0.113375
H	 0.5703904675	 5.8042044242	 0.2679375698	 0.232277
53.0189	74.7299	126.6068	177.1086	231.3443	321.7285	356.8868	371.2313	431.3467	520.698	596.8507	741.0078	800.6262	857.5904	875.9914	896.2194	927.8718	951.1673	966.2765	1007.1172	1070.7209	1079.1634	1102.1896	1130.8876	1140.6567	1162.1285	1170.8061	1242.965	1251.4223	1286.8207	1294.9117	1328.8357	1341.4339	1367.8519	1456.2206	1463.6858	1507.0445	1512.3379	2347.2913	3042.006	3082.1492	3083.3182	3099.5597	3105.3892	3163.7213	3187.3957	3193.6114	3485.9012
N#CCN1CC1C1CN1	N#CCN1C[C@H]1[C@H]1CN1	
InChI=1S/C6H9N3/c7-1-2-9-4-6(9)5-3-8-5/h5-6,8H,2-4H2	InChI=1S/C6H9N3/c7-1-2-9-4-6(9)5-3-8-5/h5-6,8H,2-4H2/t5-,6+,9?/m1/s1
