18
gdb 20538	4.37281	1.31859	1.29897	2.2553	73.18	-0.2324	0.0267	0.2591	1037.3861	0.155452	-344.014684	-344.006676	-344.005731	-344.047553	29.652	
C	 0.0251562783	 1.5585633297	-0.0010789649	-0.3781
C	 0.0062244448	 0.019553419	 0.0410180545	-0.093843
C	 0.7971216755	-0.5062470586	 1.2528876785	-0.378164
C	-1.4008410839	-0.5182716262	 0.0216218372	 0.23976
C	-1.9887751038	-1.3180769261	-0.9383732528	-0.155189
N	-3.2626960058	-1.5487577416	-0.5329960965	-0.179083
N	-3.5597471312	-0.95333527	 0.6357183947	-0.224794
C	-2.4350645066	-0.3290274203	 0.973789048	-0.086625
H	 1.0533598528	 1.9350306261	-0.0275445295	 0.10758
H	-0.5020360409	 1.9362509155	-0.8820242246	 0.115476
H	-0.4623930884	 1.9805351832	 0.8845922681	 0.116311
H	 0.5076726245	-0.3435768691	-0.8656612198	 0.070949
H	 1.8289207011	-0.1392895525	 1.2338288783	 0.107576
H	 0.3415153436	-0.1733838332	 2.1919120364	 0.116326
H	 0.8211970203	-1.5998248196	 1.2648033662	 0.1155
H	-1.6011471062	-1.729000564	-1.8577790096	 0.129159
H	-3.9695431695	-2.0931258754	-0.9966575406	 0.272271
H	-2.4021009445	 0.2387227933	 1.8926686966	 0.104889
38.3427	146.0753	194.8909	231.4311	266.5455	317.1496	414.0694	472.8201	503.5272	630.3639	675.5135	709.4226	792.2854	883.0389	888.173	926.7174	953.5104	961.6705	999.838	1062.9178	1077.65	1124.9578	1168.019	1184.8631	1247.7032	1283.3158	1340.5893	1360.8226	1391.2	1396.5245	1418.6381	1426.1927	1486.1298	1489.6097	1491.5732	1500.9991	1509.6728	1609.9159	3014.3661	3027.9458	3032.4385	3094.0364	3101.0465	3107.6968	3110.0058	3239.114	3254.1837	3678.1826
CC(C)C1=CNN=C1	CC(C)c1c[nH]nc1	
InChI=1S/C6H10N2/c1-5(2)6-3-7-8-4-6/h3-5H,1-2H3,(H,7,8)	InChI=1S/C6H10N2/c1-5(2)6-3-7-8-4-6/h3-5H,1-2H3,(H,7,8)
