16
gdb 67183	2.97077	1.55894	1.49515	2.2345	69.25	-0.2382	0.0228	0.261	943.0296	0.125777	-437.859073	-437.85212	-437.851176	-437.890178	28.116	
O	-0.1901902541	 1.4066309245	-0.0281766912	-0.45935
C	 0.0090293318	 0.0493100609	-0.0134272018	 0.353889
C	-1.0063801353	-1.0793497847	 0.0964772523	-0.146985
C	-0.4107333117	-1.7738336088	-1.1225452734	-0.228975
C	 0.8440010109	-0.8299223773	-1.0106435526	-0.214126
C	 1.8482296064	-1.5208679738	-0.1299629717	 0.421081
N	 2.9940957188	-1.9416574984	-0.447458888	-0.554592
O	 1.2638614278	-1.6752218401	 1.1135984777	-0.246518
C	 0.0912918243	-0.8743495365	 1.1461324612	-0.004634
H	 0.5706509705	 1.8384642001	 0.3781939559	 0.294339
H	-2.0498544387	-1.044247423	 0.3863721021	 0.100193
H	-0.2212781844	-2.849450212	-1.0633341451	 0.11667
H	-0.9795037248	-1.549213827	-2.0267373337	 0.120805
H	 1.2472496819	-0.4060199049	-1.9248934984	 0.106507
H	 3.4414650645	-2.4002511453	 0.3486000836	 0.222881
H	-0.196400928	-0.5786435736	 2.1462109729	 0.118817
134.203	241.0496	302.7786	314.1817	336.2569	433.3612	501.1317	582.5508	597.9718	718.7876	745.5676	782.2419	822.4455	860.649	891.1558	912.6331	931.0622	962.9671	979.1227	1023.8102	1043.1857	1066.1987	1088.8852	1140.6623	1144.7524	1164.7346	1223.4442	1249.2782	1281.9025	1298.4279	1317.4727	1342.9489	1473.9495	1505.4243	1782.7112	3060.1412	3121.6565	3175.3964	3187.3213	3216.3725	3468.09	3782.6648
OC12C3CC1C(=N)OC23	O[C@@]12[C@H]3C[C@@H]1[C]([NH])O[C@@H]23	
InChI=1S/C6H7NO2/c7-5-3-1-2-4(9-5)6(2,3)8/h2-4,7-8H,1H2	InChI=1S/C6H7NO2/c7-5-3-1-2-4(9-5)6(2,3)8/h2-4,7-8H,1H2/t2-,3+,4+,6-/m0/s1
