19
gdb 31135	1.92649	1.70627	0.9681	2.0046	79.38	-0.1709	0.0478	0.2187	1236.0938	0.159257	-419.233287	-419.223334	-419.222389	-419.268624	36.072	
C	 0.017618265	 1.5448425281	 0.2238360224	-0.36532
C	-0.0121131245	 0.0156593021	 0.038473287	-0.325525
C	 0.6757940151	-0.4709052479	-1.2011275872	 0.163086
C	 0.1074581829	-0.7989769503	-2.3980167304	 0.266366
N	-1.2182238948	-0.8063936976	-2.8283193718	-0.601202
O	 1.0250606786	-1.2514031962	-3.2799718709	-0.183635
C	 2.2509636294	-1.2118466385	-2.6372051964	-0.126299
C	 2.0859027274	-0.7399750992	-1.3730657326	 0.136689
N	 3.0393683851	-0.6279266233	-0.3482333234	-0.608825
H	 1.0449100431	 1.9235651944	 0.2675314082	 0.107991
H	-0.4760713221	 2.0539043308	-0.6107714845	 0.109192
H	-0.4874579652	 1.8417576126	 1.1491454092	 0.110377
H	 0.4502555925	-0.4587797042	 0.9135277378	 0.110574
H	-1.0548690282	-0.3240060034	 0.0247690697	 0.106008
H	-1.6891927819	 0.0782111861	-2.6875601894	 0.252952
H	-1.2846048042	-1.0790034472	-3.8007353715	 0.251015
H	 3.0905089703	-1.5785241973	-3.201037748	 0.113604
H	 3.9893692011	-0.6964505572	-0.6902339838	 0.24021
H	 2.9422418805	 0.2297267282	 0.1811436056	 0.242741
51.0652	63.4843	136.4604	179.0506	184.6998	223.9831	269.3655	292.2606	359.3112	421.7826	512.1626	569.1853	579.9874	628.7045	686.2807	710.3395	731.5671	769.6183	782.4504	802.581	962.2393	980.133	1053.761	1079.2399	1098.1293	1155.9297	1181.7926	1235.4063	1287.5602	1305.4634	1363.3935	1371.0338	1407.8151	1476.5688	1481.2085	1495.1026	1503.4893	1620.9583	1639.1886	1655.4451	1698.3242	3019.7264	3026.5053	3054.7746	3094.2104	3099.2727	3288.412	3529.7204	3537.1932	3618.8096	3630.4341
CCC1=C(N)OC=C1N	CCc1c(N)occ1N	
InChI=1S/C6H10N2O/c1-2-4-5(7)3-9-6(4)8/h3H,2,7-8H2,1H3	InChI=1S/C6H10N2O/c1-2-4-5(7)3-9-6(4)8/h3H,2,7-8H2,1H3
