17
gdb 65669	3.11382	1.36518	1.08723	5.2335	69.92	-0.2619	0.0167	0.2786	1111.4764	0.133887	-458.906945	-458.898782	-458.897838	-458.93988	30.715	
C	 0.0617625864	 1.8326039581	 0.2199977017	-0.472254
C	-0.0082155025	 0.3313087695	 0.0074894278	 0.452238
O	-1.3578189391	 0.0439802235	-0.3360037865	-0.248936
C	-1.6803276258	-0.7291834812	-1.3965005619	 0.168392
O	-2.8041063659	-1.0777682534	-1.5991496844	-0.279008
C	 1.1368583282	-0.4784716794	-0.692131035	-0.033379
C	 2.0224286922	-0.305012838	 0.5633637044	-0.242936
C	 0.5983713588	-0.697868876	 1.0135764079	 0.010129
O	 0.5860284039	-1.7082548579	-0.0719169468	-0.311001
H	-0.1485412147	 2.346586225	-0.7228234148	 0.136439
H	-0.7080618268	 2.1314437295	 0.936695232	 0.147252
H	 1.029909618	 2.1707570706	 0.5889132278	 0.127126
H	-0.8294154711	-0.9582276783	-2.0544484922	 0.088918
H	 1.4381698417	-0.5253716532	-1.7386827972	 0.109428
H	 2.7498570345	-1.1066031552	 0.6828165539	 0.126488
H	 2.4271087687	 0.6742489343	 0.8165572971	 0.109075
H	 0.2233151836	-1.0029278481	 1.989655856	 0.11203
73.3865	143.8474	185.9046	207.7423	266.5366	331.773	393.9532	437.9392	476.9384	600.3092	630.6964	752.5567	776.6215	785.3956	878.1819	887.4078	915.13	974.5301	1019.2519	1024.1568	1028.4913	1103.9057	1125.3746	1134.4751	1171.7974	1177.2314	1183.1571	1211.9606	1227.1902	1269.9631	1309.8017	1418.6742	1431.9562	1484.2387	1485.7803	1504.4782	1857.2979	3032.6829	3054.3739	3094.8293	3118.0507	3120.4683	3136.5795	3150.8501	3173.6108
CC1(OC=O)C2CC1O2	C[C@@]1(OC=O)[C@H]2C[C@@H]1O2	
InChI=1S/C6H8O3/c1-6(8-3-7)4-2-5(6)9-4/h3-5H,2H2,1H3	InChI=1S/C6H8O3/c1-6(8-3-7)4-2-5(6)9-4/h3-5H,2H2,1H3/t4-,5+,6-
