21
gdb 85978	2.66638	1.31447	1.10055	1.5998	78.45	-0.2422	0.0838	0.3259	1216.2629	0.180596	-424.200092	-424.190778	-424.189834	-424.234084	35.127	
C	-0.3386392883	 0.9910405399	 1.1455630368	-0.402845
C	 0.5211067834	-0.1212101517	 0.5828837685	 0.173347
C	 0.6464653446	-0.2622528717	-0.9478579001	-0.349699
C	 2.1727468822	-0.1324497649	-0.6981171513	 0.389633
C	 2.9066605971	 0.9998936929	-1.400319891	-0.449441
O	 1.9420957156	 0.1635716412	 0.7020341745	-0.33838
C	 2.9205414065	-1.4434456046	-0.8571610428	 0.037974
C	 3.6967693617	-2.0237436432	 0.24393986	-0.175535
O	 2.4155233092	-2.5540264651	-0.1190515874	-0.244466
H	-0.1290983002	 1.9411922712	 0.6441172886	 0.114885
H	-1.4004166625	 0.7540410633	 1.0152009169	 0.116227
H	-0.1476796027	 1.1189343428	 2.2159073577	 0.126387
H	 0.2936246533	-1.0745216477	 1.0741186309	 0.089068
H	 0.309513304	-1.206520747	-1.3766203934	 0.116871
H	 0.2200452835	 0.5736506246	-1.5075882775	 0.100077
H	 2.3662428446	 1.9406117381	-1.268544348	 0.122177
H	 3.9130708393	 1.1210390133	-0.9862503753	 0.126967
H	 2.9985637315	 0.7987622402	-2.473366527	 0.117449
H	 3.2092523236	-1.6820877215	-1.8831729367	 0.085987
H	 4.5460536583	-2.669014063	 0.0249820124	 0.110175
H	 3.7172546751	-1.4982737471	 1.1946228043	 0.133143
74.2193	103.7928	193.192	202.9875	214.9375	228.7329	299.1429	346.9675	363.5739	428.8577	494.1958	557.1027	626.9676	765.6145	839.9511	877.3024	881.5916	910.8534	918.8233	932.9227	947.4111	997.2893	1023.6314	1076.0308	1097.7274	1118.7408	1162.7445	1164.6375	1168.4974	1193.3505	1222.2325	1258.9689	1268.3135	1293.6619	1320.8099	1382.7045	1403.2722	1408.2257	1424.8884	1480.5078	1482.096	1486.0057	1490.8591	1496.8605	1514.1305	3031.6453	3033.7844	3036.0568	3070.4429	3084.7411	3097.3929	3104.0181	3104.4072	3110.3581	3120.1761	3135.9487	3198.0628
CC1CC(C)(O1)C1CO1	C[C@H]1C[C@@](C)(O1)[C@H]1CO1	
InChI=1S/C7H12O2/c1-5-3-7(2,9-5)6-4-8-6/h5-6H,3-4H2,1-2H3	InChI=1S/C7H12O2/c1-5-3-7(2,9-5)6-4-8-6/h5-6H,3-4H2,1-2H3/t5-,6+,7+/m0/s1
