18
gdb 23170	2.21195	1.32052	0.89696	2.0146	73.06	-0.2556	-0.0115	0.2441	1286.6349	0.145188	-476.148596	-476.139059	-476.138115	-476.183269	34.582	
C	 0.2001075708	 0.9576857004	-0.4857643019	-0.241892
O	-0.1330858803	-0.2706023989	 0.1357430321	-0.257883
C	 0.686919596	-0.5980985127	 1.2398569961	-0.032371
C	 0.2988588133	-2.0521310438	 1.687543728	 0.141607
O	-0.9667794015	-2.4967509341	 1.3121230848	-0.438429
C	 1.5621975966	-2.6050697781	 0.938670042	-0.365689
C	 2.0366337226	-1.1714319422	 0.8377026356	 0.408723
N	 3.1292813111	-0.5646206916	 0.6276260238	-0.244682
O	 4.1612387049	-1.4661043635	 0.3238652475	-0.382452
H	 1.23325691	 0.9531595556	-0.8546201197	 0.133827
H	-0.486800947	 1.0871498592	-1.3249587136	 0.130216
H	 0.0797761852	 1.798435422	 0.2129018989	 0.113438
H	 0.6776917114	 0.2056032201	 1.9878886223	 0.076813
H	 0.3989207315	-2.1741093682	 2.7695248874	 0.098598
H	-1.2042933719	-1.9923823094	 0.5221338589	 0.294595
H	 2.2125018118	-3.302679299	 1.4706755245	 0.127765
H	 1.3022399986	-3.0340739466	-0.0348331507	 0.129677
H	 4.9215158971	-0.8824795192	 0.2238305442	 0.308136
69.4395	95.5357	138.8431	183.1972	198.3739	220.8039	327.0432	364.6317	404.0528	415.5662	429.8186	468.3408	552.5394	648.2493	691.4411	788.0327	847.7043	945.0656	973.1154	998.4053	1033.105	1094.0543	1130.5472	1155.4312	1165.2681	1185.3822	1191.521	1219.2367	1258.6378	1271.027	1342.2601	1348.8267	1404.5253	1442.1454	1453.7134	1480.5164	1484.5392	1511.3723	1775.7141	2996.1562	3020.1889	3056.225	3062.1111	3076.1077	3118.2687	3125.3174	3756.744	3811.0886
COC1C(O)CC1=NO	CO[C@H]1[C@@H](O)CC1=NO	
InChI=1S/C5H9NO3/c1-9-5-3(6-8)2-4(5)7/h4-5,7-8H,2H2,1H3	InChI=1S/C5H9NO3/c1-9-5-3(6-8)2-4(5)7/h4-5,7-8H,2H2,1H3/t4-,5+/m0/s1
