19
gdb 66367	2.33852	1.39962	1.31275	2.2593	75.21	-0.2616	0.0264	0.288	1092.2484	0.161486	-419.224857	-419.21642	-419.215476	-419.257499	32.721	
N	-0.0567211532	 1.4709622777	 0.0728637284	-0.52997
C	 0.0108909612	 0.0089321498	-0.0172575386	 0.09345
C	 0.7570404384	-0.5446746116	 1.2177081916	-0.216651
C	 0.6290360312	-2.0675540639	 1.3113950859	-0.094758
O	-0.7272083183	-2.4745600678	 1.3293815618	-0.241278
C	-1.4116839456	-2.0903959499	 0.1506994636	-0.094761
C	-1.4223855708	-0.5690753512	-0.0217958403	-0.216649
C	 0.7176911644	-0.4204002214	-1.2514911578	 0.252766
N	 1.2738283467	-0.7088975033	-2.2242386376	-0.351388
H	 0.8815563793	 1.8633724515	 0.0625410258	 0.238974
H	-0.5339472735	 1.8475638953	-0.742540392	 0.238977
H	 1.8132926403	-0.2548568987	 1.1864677856	 0.10781
H	 0.3025405356	-0.0776631555	 2.0968062278	 0.12599
H	 1.1610374474	-2.5457474753	 0.4724859441	 0.111135
H	 1.0735747431	-2.4298111617	 2.2420840349	 0.115701
H	-0.9544785539	-2.5693884236	-0.7307734813	 0.111143
H	-2.4325547866	-2.4690741127	 0.2479032318	 0.115699
H	-1.9535204132	-0.1029632197	 0.813743226	 0.125996
H	-1.9402456625	-0.2968715781	-0.9482737496	 0.107816
116.3206	147.3461	211.1365	253.6484	276.9298	340.21	342.0893	394.9644	420.7401	485.3923	566.974	596.8314	649.5508	670.6645	822.0777	853.9305	889.8008	913.5108	930.7926	1014.4133	1020.6838	1039.5929	1084.2927	1133.6764	1152.852	1177.3823	1204.0003	1254.8723	1298.6121	1327.8449	1337.9177	1342.2194	1375.3918	1390.2511	1426.1551	1468.7953	1485.8783	1494.8081	1507.1137	1656.2942	2335.5231	2976.0237	2980.3461	3044.117	3046.1473	3091.552	3094.0308	3099.5939	3102.2805	3479.3899	3559.0097
NC1(CCOCC1)C#N	NC1(CCOCC1)C#N	
InChI=1S/C6H10N2O/c7-5-6(8)1-3-9-4-2-6/h1-4,8H2	InChI=1S/C6H10N2O/c7-5-6(8)1-3-9-4-2-6/h1-4,8H2
