16
gdb 97573	3.53908	0.69706	0.61297	3.8189	70.45	-0.2572	0.0037	0.261	1749.1065	0.123144	-475.009575	-474.999663	-474.998719	-475.047154	33.948	
N	 0.1650689677	 1.076297987	 0.2196932431	-0.528657
H	 1.1261779736	 1.0978364284	 0.5430847179	 0.255181
H	 0.1182885229	 1.6759753317	-0.5993017654	 0.254743
H	-1.166964278	-0.2444574493	 0.0333231593	 0.30993
C	-0.7473951715	 1.5923502489	 1.2626766328	-0.327035
C	-0.8543093867	 3.0446147019	 1.3216103568	 0.096551
C	-0.9144450511	 4.2476261577	 1.3161902175	 0.067261
C	-1.017432119	 5.706137259	 1.3823244275	-0.198703
O	-0.403064064	 6.2641421431	 2.5339337946	-0.399231
C	-2.1425400273	 0.9086899227	 1.1111465037	 0.449535
O	-2.0928865916	-0.1959066487	 0.3612615275	-0.36746
O	-3.1324712543	 1.3096235982	 1.6525223509	-0.325612
H	-0.3743444026	 1.2208600113	 2.2268337772	 0.151169
H	-0.5071394286	 6.1571388176	 0.524032145	 0.14127
H	-2.0775874571	 5.9946739612	 1.3085812699	 0.129774
H	-0.8053772724	 5.8500983493	 3.3048396515	 0.291283
11.4367	55.1051	82.3985	115.0184	199.3725	258.5158	300.5159	322.9249	354.7282	430.4607	460.3711	514.9364	576.3618	589.0251	722.7296	810.7789	851.5932	870.1661	933.9879	985.3204	1051.8302	1084.4911	1164.496	1170.8259	1212.9925	1216.1999	1280.2398	1365.3262	1376.9045	1415.7868	1427.8809	1488.0973	1660.3722	1884.8567	2360.4207	2986.2387	3025.8861	3064.4067	3464.3239	3505.9185	3585.9482	3814.773
[NH3+]C(C#CCO)C([O-])=O	N[C@@H](C#CCO)C(=O)O	
InChI=1S/C5H7NO3/c6-4(5(8)9)2-1-3-7/h4,7H,3,6H2,(H,8,9)	InChI=1S/C5H7NO3/c6-4(5(8)9)2-1-3-7/h4,7H,3,6H2,(H,8,9)/t4-/m0/s1
