13
gdb 8784	4.51715	1.27831	1.00859	3.9829	60.35	-0.2814	-0.1322	0.1492	1093.6975	0.092354	-398.62952	-398.620854	-398.61991	-398.663848	28.598	
C	 0.0498944548	 1.5486193436	 0.0088932307	-0.390101
C	-0.0370614019	 0.0248049554	 0.0030915831	-0.286907
C	-1.4542593374	-0.4869406916	 0.0129579407	 0.297426
O	-2.4504722048	 0.1924226997	 0.0251484137	-0.258763
C	-1.6167831905	-2.0225980943	 0.0069483562	 0.200631
O	-0.6898963423	-2.7897955084	-0.0049839296	-0.24202
C	-3.0141906806	-2.4923162406	 0.0176532546	 0.268334
N	-4.0908467796	-2.913169258	 0.0256468893	-0.290507
H	 1.09441391	 1.8692439218	 0.0016343989	 0.124791
H	-0.4486407029	 1.9729218674	-0.8662907578	 0.139206
H	-0.4341073609	 1.965371458	 0.895778517	 0.139235
H	 0.4657494038	-0.4141737802	-0.8692515256	 0.149331
H	 0.4802841922	-0.4214859428	 0.8631686288	 0.149343
43.6033	65.6198	125.4488	182.5951	215.5485	256.5938	291.8941	397.2631	417.6615	487.5301	658.9583	677.2425	736.1544	827.9262	913.4586	1008.4664	1085.1952	1100.7107	1209.9281	1264.2688	1378.11	1418.6473	1435.6248	1493.754	1497.6551	1791.2595	1814.5978	2341.9674	3031.1839	3054.2295	3055.5124	3129.0552	3130.8521
CCC(=O)C(=O)C#N	CCC(=O)C(=O)C#N	
InChI=1S/C5H5NO2/c1-2-4(7)5(8)3-6/h2H2,1H3	InChI=1S/C5H5NO2/c1-2-4(7)5(8)3-6/h2H2,1H3
