18
gdb 94762	3.69128	1.14324	1.01075	4.6532	76.57	-0.2747	0.0267	0.3014	1186.2842	0.14912	-401.965657	-401.957502	-401.956558	-401.998248	31.457	
O	-0.0623353122	 1.4416544341	 0.0265683121	-0.433074
C	-0.0020532237	 0.0248353793	 0.0031201989	 0.123768
C	 0.6765312752	-0.5930754207	 1.250766617	-0.283355
C	 0.0071440919	-1.9658139431	 1.4558066446	-0.280874
C	-1.4035764633	-1.7915543592	 0.8807600747	 0.192033
C	-2.1685251742	-0.5420480105	 1.287763192	-0.316121
C	-1.4080031809	-0.547854041	-0.0044276351	-0.067297
C	-2.1424454147	-2.9676569561	 0.521135468	 0.199142
N	-2.7255591431	-3.9264390441	 0.2380216826	-0.348701
H	 0.8315349667	 1.7820998271	-0.0800672408	 0.286139
H	 0.5106576715	-0.3188937299	-0.9087341084	 0.076448
H	 1.7609021328	-0.674290063	 1.1385911117	 0.104459
H	 0.4889097106	 0.0701340087	 2.1006091623	 0.119946
H	 0.5255662548	-2.7435452559	 0.8860433845	 0.123892
H	-0.0032252642	-2.2822440736	 2.5030401187	 0.119316
H	-3.2484020291	-0.5952132672	 1.2213774399	 0.13917
H	-1.7971119519	 0.0323381897	 2.1286467991	 0.13259
H	-1.9663521163	-0.5380826347	-0.932320892	 0.112518
104.3288	149.9456	167.7596	258.2327	272.5856	332.7387	399.0581	457.1741	535.8848	563.1023	586.7276	599.2475	679.8995	816.824	845.9061	898.6083	926.9551	965.4671	982.2879	987.9234	1039.5716	1049.2783	1076.0345	1105.5662	1126.4839	1185.2714	1220.1719	1240.9933	1252.0076	1265.8132	1312.6891	1330.8777	1357.8748	1404.027	1434.4729	1482.441	1495.8637	1512.5502	2349.2474	2978.6347	3051.8154	3059.8817	3089.8772	3107.2745	3147.6616	3193.3305	3236.0634	3819.6227
OC1CCC2(CC12)C#N	O[C@H]1CC[C@]2(C[C@@H]12)C#N	
InChI=1S/C7H9NO/c8-4-7-2-1-6(9)5(7)3-7/h5-6,9H,1-3H2	InChI=1S/C7H9NO/c8-4-7-2-1-6(9)5(7)3-7/h5-6,9H,1-3H2/t5-,6-,7-/m0/s1
