18
gdb 90756	2.74244	1.53772	1.28265	3.7371	71.	-0.2221	-0.016	0.2061	1026.6579	0.148823	-439.084353	-439.076377	-439.075433	-439.117527	30.565	
O	 0.2887185378	 1.1810740587	-0.5466660231	-0.432088
C	 0.1185045533	-0.1306134766	-0.0512613166	 0.104886
C	 0.2255986851	-0.3122213034	 1.4900248891	-0.274181
C	-1.3085304843	-0.6241581737	 1.5540973172	-0.133805
C	-1.4045364753	-0.5021640247	 0.0140644945	-0.015044
N	-2.3778671877	 0.5510192939	-0.2645128691	-0.304189
C	-2.5029228835	 1.4283561301	 0.8988483059	-0.273722
C	-2.1216942359	 0.5466532401	 2.0900091396	 0.408733
O	-2.3934240788	 0.7576736371	 3.2430665463	-0.317049
H	 1.2240351948	 1.4042919906	-0.5057025004	 0.289168
H	 0.7229084111	-0.8491560049	-0.620604009	 0.067178
H	 0.8536123935	-1.1480456676	 1.8055084034	 0.111388
H	 0.5358318254	 0.5853101008	 2.0321892383	 0.111855
H	-1.5874020356	-1.5590371647	 2.0391490795	 0.097767
H	-1.6493527305	-1.4095319884	-0.5444923733	 0.076862
H	-2.1208529975	 1.0668486253	-1.0975888335	 0.233264
H	-1.8153299156	 2.290477965	 0.8905465862	 0.122226
H	-3.5210587263	 1.8114884626	 1.0210641048	 0.126752
34.1781	140.2431	215.0303	250.1095	271.7651	396.6666	425.1263	512.3389	546.6032	587.9358	646.7796	730.1345	759.5265	804.3448	859.4927	878.2983	912.757	951.3383	960.2022	1019.8965	1051.9566	1091.7442	1118.9954	1163.1224	1167.8742	1198.1291	1199.9312	1220.2095	1226.5742	1254.8157	1285.9698	1312.0899	1318.0439	1359.037	1410.0383	1453.2398	1470.4232	1487.1991	1849.2011	2972.4741	3005.4866	3059.291	3063.801	3069.6102	3114.1398	3125.0112	3554.4545	3819.9443
OC1CC2C1NCC2=O	O[C@H]1C[C@@H]2[C@H]1NCC2=O	
InChI=1S/C6H9NO2/c8-4-1-3-5(9)2-7-6(3)4/h3-4,6-8H,1-2H2	InChI=1S/C6H9NO2/c8-4-1-3-5(9)2-7-6(3)4/h3-4,6-8H,1-2H2/t3-,4-,6+/m0/s1
