18
gdb 37536	3.96398	1.6734	1.43526	1.8014	81.22	-0.2191	0.0057	0.2248	934.506	0.149766	-364.690141	-364.683866	-364.682922	-364.72035	26.98	
C	-0.1011659648	 1.6422576942	-0.0285606806	-0.259086
C	 1.3786730574	 1.259164165	-0.042128848	-0.035319
N	 1.1564366272	 0.1522094043	 1.0163429406	-0.199164
C	-0.0688285933	 0.1142580878	 0.0277133893	-0.104275
C	 1.1635977703	-0.0286631222	-0.9365672212	 0.33831
C	 1.8171936998	-0.3215547815	-2.2485847672	-0.271194
C	 3.0350547659	-0.8056289833	-1.9471676961	-0.048667
C	 3.3039977849	-0.9210466615	-0.4322856006	-0.335139
C	 1.8576233768	-0.8724616847	 0.0887533274	 0.041584
H	-0.4545271063	 2.1445541776	 0.8756089099	 0.108215
H	-0.5119285038	 2.0950361006	-0.9339744232	 0.099483
H	 2.2572900966	 1.9045352277	 0.0014594472	 0.080672
H	-0.8715618474	-0.6082387515	 0.1859599243	 0.08491
H	 1.4529846292	-0.1044715627	-3.2449876055	 0.101519
H	 3.7991836053	-1.0455087449	-2.6793440839	 0.099114
H	 3.8516554415	-1.828788957	-0.1628649952	 0.105973
H	 3.9116879769	-0.0698966107	-0.0974095075	 0.12049
H	 1.4527758736	-1.8782012571	 0.2488331904	 0.072572
215.7906	243.6579	298.635	441.374	510.9746	539.3233	651.4185	685.6283	699.2975	737.8025	809.7253	845.5702	881.6964	886.0284	891.9503	915.6287	943.4788	955.7961	973.9274	1020.4612	1027.7933	1042.1971	1072.8622	1097.1881	1134.2524	1137.512	1151.53	1180.6679	1198.7252	1210.3248	1227.791	1245.2897	1290.838	1313.4929	1361.3763	1385.9195	1478.6238	1490.5378	1607.181	3025.2997	3040.9492	3059.2284	3082.4571	3100.2527	3106.3229	3125.4725	3183.9721	3213.4317
C1C2N3C1C21C=CCC31	C1[C@H]2N3[C@@H]1[C@]12C=CC[C@@H]31	
InChI=1S/C8H9N/c1-2-5-8(3-1)6-4-7(8)9(5)6/h1,3,5-7H,2,4H2	InChI=1S/C8H9N/c1-2-5-8(3-1)6-4-7(8)9(5)6/h1,3,5-7H,2,4H2/t5-,6-,7+,8-/m1/s1
