16
gdb 18464	3.32704	1.64634	1.36239	2.8051	64.93	-0.2455	-0.0173	0.2282	931.973	0.130356	-383.72027	-383.712816	-383.711871	-383.752394	27.899	
O	 0.0996495512	 1.275224428	 0.3430298132	-0.41454
C	 0.0653078515	-0.0319659515	-0.2043090133	-0.094767
C	-1.3205980143	-0.6399279347	-0.1130896007	-0.02989
C	-1.660998344	-2.0876962764	-0.1059524015	-0.079759
C	-0.5968269034	-2.9303356004	 0.6168185923	-0.363827
C	-0.881946558	-2.0752234385	 1.8804429488	 0.407914
O	-0.5439744699	-2.1739961561	 3.026161895	-0.313051
C	-1.9044211781	-1.2329607071	 1.1742642935	-0.207714
H	-0.1205031523	 1.203131749	 1.2781979647	 0.288942
H	 0.345938068	 0.0803591616	-1.2573080282	 0.116425
H	 0.8177656204	-0.6806425677	 0.2644444367	 0.099949
H	-2.0650027562	-0.0251298303	-0.61569661	 0.109945
H	-2.4298566823	-2.5002700036	-0.7460837362	 0.107583
H	-0.9215882888	-3.9588895744	 0.8015127508	 0.135336
H	 0.4175560685	-2.9484086835	 0.2112445163	 0.124887
H	-2.8208069121	-0.8455379845	 1.6024313187	 0.112566
64.7394	128.7102	200.3578	269.8965	346.4779	440.3349	449.8885	498.5791	598.9592	635.8927	756.2434	797.7489	842.0224	903.1757	942.3852	954.2877	1004.2135	1006.8621	1028.7958	1067.4946	1086.6142	1113.6881	1141.5986	1179.2243	1216.8247	1242.2905	1292.227	1322.5319	1370.1998	1415.1571	1450.5837	1465.1283	1507.5122	1878.789	3014.5632	3062.4315	3070.5884	3113.5375	3134.9239	3192.8511	3204.2249	3806.9667
OCC1C2CC(=O)C12	OC[C@H]1[C@H]2CC(=O)[C@@H]12	
InChI=1S/C6H8O2/c7-2-4-3-1-5(8)6(3)4/h3-4,6-7H,1-2H2	InChI=1S/C6H8O2/c7-2-4-3-1-5(8)6(3)4/h3-4,6-7H,1-2H2/t3-,4+,6-/m1/s1
