23
gdb 122896	4.6371	0.50977	0.47397	4.9308	87.79	-0.2613	0.0251	0.2864	2327.8126	0.205119	-384.488766	-384.477593	-384.476649	-384.526088	39.5	
C	 0.0104521748	 1.6167327141	 0.0657714994	-0.380703
C	-0.0003742078	 0.0867964863	 0.0091621296	-0.166275
C	 0.7067888554	-0.4730859786	-1.2298060376	-0.164346
C	 0.7010584867	-2.0047575465	-1.2945582123	-0.197911
C	 1.405648475	-2.5516941652	-2.5395023618	-0.18649
C	 1.4378587139	-4.1002407946	-2.5932641098	-0.136246
N	 0.1445316	-4.7869122617	-2.6535860159	-0.502047
C	 2.2536058748	-4.5311206201	-3.7421764137	 0.297893
N	 2.8963001056	-4.8288681996	-4.6548596562	-0.320531
H	 1.0348806062	 2.0047976096	 0.0810277985	 0.116061
H	-0.4926295725	 2.0487831859	-0.8064223605	 0.115387
H	-0.4989356299	 1.9868604076	 0.9607660412	 0.113981
H	 0.4771203463	-0.3174031776	 0.9116104173	 0.096261
H	-1.0373518337	-0.2740475994	 0.0280313994	 0.094691
H	 0.2297002148	-0.0701513727	-2.1339274496	 0.096761
H	 1.744386745	-0.112854276	-1.2505308926	 0.098425
H	 1.1857700044	-2.4090042531	-0.394421202	 0.098049
H	-0.338040112	-2.3587880737	-1.2695194948	 0.089694
H	 0.9130209203	-2.1813225788	-3.4477856243	 0.108575
H	 2.437546545	-2.1813912237	-2.5732659907	 0.118053
H	 1.9480729805	-4.4641858823	-1.691243591	 0.131779
H	-0.3838916903	-4.5905670416	-1.8101702404	 0.240701
H	-0.3998096925	-4.4367664681	-3.4371108924	 0.238237
56.2154	62.6165	81.503	139.9563	142.7295	172.5856	214.0284	249.0986	255.0854	310.3557	354.7076	384.1384	474.8433	570.528	589.1485	735.2906	760.4888	829.4698	838.7866	869.2526	907.1447	955.3227	1009.6875	1023.1649	1053.6793	1068.616	1093.1052	1125.271	1153.1056	1213.0009	1238.4284	1259.2833	1296.2688	1318.7231	1335.6607	1337.7748	1353.9083	1385.9485	1401.6464	1413.2871	1416.9112	1479.0757	1483.8434	1490.097	1500.5941	1503.1875	1513.7141	1656.0843	2361.768	3003.2855	3007.7212	3017.4384	3022.274	3028.5133	3030.5337	3031.3781	3039.906	3059.0645	3075.2517	3097.7193	3103.8342	3495.3647	3585.3458
CCCCCC(N)C#N	CCCCC[C@@H](N)C#N	
InChI=1S/C7H14N2/c1-2-3-4-5-7(9)6-8/h7H,2-5,9H2,1H3	InChI=1S/C7H14N2/c1-2-3-4-5-7(9)6-8/h7H,2-5,9H2,1H3/t7-/m1/s1
