23
gdb 75499	2.44803	1.6293	1.19649	0.262	90.93	-0.2199	0.0288	0.2487	1153.7706	0.208747	-351.161501	-351.153345	-351.1524	-351.193665	33.402	
C	-0.1853521633	 1.5549192599	 0.061380888	-0.484029
C	-0.0070075493	 0.0584772604	 0.0088069432	 0.328452
C	 0.0697121038	-0.5852762068	-1.1614712644	-0.150167
C	 0.2186936914	-2.0716056421	-1.4010150095	-0.257928
C	 1.1059849569	-2.8858597236	-0.4339944923	-0.205098
C	 0.9077324662	-2.6272845584	 1.0700272028	 0.010971
C	-0.4868317717	-2.0494786901	 1.4503880372	-0.239913
C	 0.1254332106	-0.6185788463	 1.3561699861	-0.088564
C	 1.5248135296	-1.285042898	 1.555256423	-0.217488
H	 0.6378125462	 2.0326589453	 0.6094751026	 0.120212
H	-0.2286568697	 1.996626859	-0.9376978035	 0.115559
H	-1.1063396844	 1.824547678	 0.5949937805	 0.119772
H	-0.0269648008	 0.0122915445	-2.0665418653	 0.071848
H	-0.7838283605	-2.5236814454	-1.4223304531	 0.111051
H	 0.6083506669	-2.2203613369	-2.4148576118	 0.095639
H	 0.9225522342	-3.9468681697	-0.6435964582	 0.090055
H	 2.1621308036	-2.7078219638	-0.6742793197	 0.096402
H	 1.2248022227	-3.5118905352	 1.6300503611	 0.059288
H	-1.3410881655	-2.2795866012	 0.8099444627	 0.09647
H	-0.7509334829	-2.2919906461	 2.4835941637	 0.091597
H	-0.1811540894	 0.0733001081	 2.1452739907	 0.055538
H	 1.8064511458	-1.3270876453	 2.6118087842	 0.089593
H	 2.3564321897	-0.8734592962	 0.9768421418	 0.09074
112.8493	198.8264	217.2881	280.7693	321.5564	329.1003	361.4742	363.481	486.964	578.3982	632.8467	724.287	767.9588	798.4195	836.9963	844.1646	883.2157	891.0498	929.8375	945.2088	965.2325	1030.9072	1042.4169	1067.7158	1077.6063	1096.223	1106.3072	1122.2462	1164.0405	1167.5637	1190.9309	1219.1953	1259.8265	1266.0611	1276.6047	1294.8414	1342.9008	1348.2089	1386.482	1390.0065	1399.9178	1411.6965	1469.1242	1478.4613	1483.2094	1487.7206	1492.5004	1507.6951	1730.5407	2995.9252	3009.1358	3014.4324	3041.2038	3045.3974	3051.9357	3053.3665	3054.1509	3059.1897	3068.9796	3102.959	3107.9885	3111.5245	3132.4857
CC1=CCCC2CC1C2	CC1=CCC[C@@H]2C[C@H]1C2	
InChI=1S/C9H14/c1-7-3-2-4-8-5-9(7)6-8/h3,8-9H,2,4-6H2,1H3	InChI=1S/C9H14/c1-7-3-2-4-8-5-9(7)6-8/h3,8-9H,2,4-6H2,1H3/t8-,9+
