22
gdb 110071	1.77309	1.54576	1.10239	1.7471	85.73	-0.2273	-0.0325	0.1948	1260.5788	0.190866	-404.340009	-404.329498	-404.328553	-404.375019	38.567	
C	-0.2199724178	 1.5137833206	-0.1852354309	-0.378105
C	 0.8283876236	 0.4710002794	 0.1979299516	-0.127162
N	 1.0332916953	-0.4482401045	-0.9256306443	-0.125474
C	 1.7682021624	-1.7109707031	-0.7549792415	-0.162608
C	 2.2548705716	-2.2307355435	 0.5460846156	 0.147701
O	 1.799086952	-1.9977356473	 1.6448543911	-0.282521
C	 0.2733913448	-1.6662103164	-1.0919609074	 0.308181
C	-0.7571922192	-2.1199893922	-0.0751095483	-0.476028
C	-0.0981488639	-1.97629689	-2.5317405955	-0.433324
H	 0.0643750872	 2.029459022	-1.1068803693	 0.124141
H	-1.1997408515	 1.0519759866	-0.3452727914	 0.116171
H	-0.3266163653	 2.2553159189	 0.6124104087	 0.115385
H	 1.7912844307	 0.9628574158	 0.376695873	 0.104296
H	 0.5572536123	-0.0315815028	 1.1313060692	 0.125812
H	 2.4513567791	-1.9341074897	-1.5739130589	 0.089543
H	 3.1384267647	-2.9000008047	 0.4369583107	 0.08026
H	-0.4091250714	-2.0228493504	 0.952241773	 0.163144
H	-1.6783119029	-1.5384387683	-0.1942492872	 0.123009
H	-1.0116304818	-3.1703125055	-0.2504662407	 0.120732
H	-0.1980630722	-3.0556793764	-2.6879436482	 0.117341
H	-1.0589350859	-1.5112890959	-2.7809655563	 0.121996
H	 0.6549435783	-1.5843901528	-3.2186484731	 0.127509
77.6167	138.2792	155.5205	176.7328	191.3797	212.5093	220.7709	243.1316	286.7175	324.0428	366.4675	409.3736	471.1159	486.3579	676.2463	706.0106	781.9893	810.8073	845.3295	938.3953	956.8827	979.2707	984.0064	1024.4207	1057.4684	1091.4571	1111.0697	1135.1801	1166.1089	1187.2553	1268.39	1303.9757	1348.9106	1376.8145	1401.224	1405.6872	1410.3268	1420.7301	1435.497	1480.5937	1484.2287	1489.579	1494.7264	1505.6251	1506.4803	1522.8185	1789.0088	2871.3122	3030.896	3038.1779	3040.9102	3042.7702	3080.1721	3092.2249	3097.0087	3108.9078	3110.8815	3120.2425	3129.0569	3161.2358
CCN1C(C=O)C1(C)C	CCN1[C@@H](C=O)C1(C)C	
InChI=1S/C7H13NO/c1-4-8-6(5-9)7(8,2)3/h5-6H,4H2,1-3H3	InChI=1S/C7H13NO/c1-4-8-6(5-9)7(8,2)3/h5-6H,4H2,1-3H3/t6-,8?/m0/s1
