15
gdb 66900	2.55658	2.0111	1.55162	3.5004	68.77	-0.249	-0.0405	0.2085	888.6642	0.113255	-416.790218	-416.783251	-416.782306	-416.821459	27.138	
C	-0.0444288586	 1.5574066429	-0.031682795	-0.507454
C	 0.0469424196	 0.0681814877	-0.0673740054	 0.33555
C	 0.0848972494	-0.9241277871	-1.1556302014	-0.060281
N	 1.259884487	-1.7720765693	-1.0169478801	-0.187448
C	 1.628790963	-1.6067356584	 0.1905354814	-0.000153
N	 0.8195131947	-0.7052158945	 0.9841847859	-0.257285
C	-0.4594866875	-1.4955428092	 1.1971065564	 0.442516
O	-0.7809478272	-2.1362195291	 2.1446230242	-0.304263
C	-1.0455726204	-1.0209356511	-0.0664476378	-0.279574
H	 0.9315614642	 2.0085622521	-0.236272601	 0.145228
H	-0.7520389011	 1.9132715832	-0.785954428	 0.135106
H	-0.3808755819	 1.90164181	 0.9505830634	 0.14699
H	-0.2688873938	-0.7138636767	-2.1575064422	 0.121458
H	 2.4457863301	-2.1384835767	 0.6637227754	 0.14506
H	-2.0882107374	-0.9841530438	-0.3519414157	 0.124551
124.1142	188.0105	237.6147	283.6777	386.8275	437.046	548.3315	608.0038	638.7013	729.7164	750.9805	777.1633	834.0039	863.7398	898.7568	918.1111	952.3938	959.4333	996.3994	1035.9715	1041.7308	1091.8123	1136.5686	1174.9305	1202.2142	1287.3988	1305.595	1406.1865	1449.7498	1476.5183	1493.034	1645.9519	1920.4829	3041.7289	3111.7415	3120.8228	3201.8108	3215.7433	3220.0871
CC12C3N=CN1C(=O)C23	C[C@@]12[C@H]3[N][CH]N1C(=O)[C@@H]23	
InChI=1S/C6H6N2O/c1-6-3-4(6)7-2-8(6)5(3)9/h2-4H,1H3	InChI=1S/C6H6N2O/c1-6-3-4(6)7-2-8(6)5(3)9/h2-4H,1H3/t3-,4-,6+/m0/s1
