21
gdb 85834	2.02989	1.42973	1.30561	1.7063	84.09	-0.2487	0.0323	0.281	1175.6119	0.178956	-387.053288	-387.04309	-387.042146	-387.088015	38.299	
C	-0.4849946816	 1.3642874878	-0.1250909867	-0.400887
C	 0.0120345408	-0.0640528068	 0.0130428	 0.143239
O	 1.18185875	-0.3107526879	-0.8093609527	-0.327105
C	 2.0339092271	-0.536368118	 0.3486143815	 0.209564
C	 2.7433526625	-1.8844191269	 0.2561857952	-0.440183
C	 3.0011119784	 0.5487605093	 0.515503932	 0.362051
C	 3.8071523802	 1.4303069898	 0.6560139528	-0.499897
C	 0.7869126931	-0.4706577052	 1.2954590193	-0.090866
C	 0.797600459	 0.4330547081	 2.5168985053	-0.423607
H	 0.3024339707	 2.084667117	 0.1106407987	 0.130268
H	-0.8082735761	 1.541439933	-1.1555559568	 0.125666
H	-1.3399084351	 1.5451640265	 0.535767306	 0.111727
H	-0.7913808465	-0.7619162064	-0.255826603	 0.073553
H	 3.4371077433	-1.8892907956	-0.5889641198	 0.135489
H	 3.3118456629	-2.0831110111	 1.1701923666	 0.12453
H	 2.0075974113	-2.6800884155	 0.1107341747	 0.118437
H	 4.5172348052	 2.2119135666	 0.770524798	 0.198243
H	 0.5191241041	-1.4875850632	 1.5961346145	 0.081557
H	 1.103519365	 1.4525909408	 2.2725588334	 0.132602
H	-0.1962839718	 0.4718905185	 2.9755312409	 0.114939
H	 1.4946069075	 0.0527307192	 3.2708879601	 0.120681
47.1939	140.5488	180.6151	193.3443	217.464	223.806	257.3162	269.398	293.3119	368.1978	437.1141	503.8617	530.3733	571.933	625.6193	647.3784	661.5602	747.3812	791.1741	879.9806	909.3203	925.7223	1003.5255	1030.5783	1041.1797	1074.6108	1119.8328	1131.9368	1169.4345	1201.8702	1221.0116	1286.0356	1308.7338	1377.2845	1386.9662	1398.1622	1409.3133	1418.1382	1476.8594	1480.1579	1487.6093	1489.6114	1496.9206	1506.4538	2225.6568	3013.145	3036.1399	3039.2791	3039.4807	3062.0713	3097.9817	3106.0157	3117.0886	3122.5388	3123.8261	3130.7005	3499.9393
CC1OC(C)(C#C)C1C	C[C@H]1O[C@@](C)(C#C)[C@H]1C	
InChI=1S/C8H12O/c1-5-8(4)6(2)7(3)9-8/h1,6-7H,2-4H3	InChI=1S/C8H12O/c1-5-8(4)6(2)7(3)9-8/h1,6-7H,2-4H3/t6-,7+,8-/m0/s1
