15
gdb 42494	2.61102	1.06665	0.92601	2.793	71.89	-0.2546	-0.0888	0.1658	1279.3665	0.10998	-416.77186	-416.762253	-416.761309	-416.807817	32.947	
O	 0.6453834104	-0.1014286662	-0.566871419	-0.271185
C	 0.5313305056	 1.0361066492	-0.1882848042	 0.304657
C	 1.3707939192	 2.1966924326	-0.7089904653	-0.266798
N	 2.5163039517	 1.7869918442	-1.4917055597	-0.277067
C	 3.7780531855	 1.7201465763	-0.7419927983	-0.320716
C	 3.7583455047	 0.9020013503	 0.4767874371	 0.304917
C	 3.6949706303	 0.2452235625	 1.4822391329	-0.454987
C	-0.5158718695	 1.4122495483	 0.783062954	 0.227486
N	-1.3180993522	 1.7431290598	 1.5474646631	-0.291695
H	 0.6794498514	 2.8100951071	-1.3114041547	 0.152189
H	 1.6699612718	 2.829294789	 0.1336280001	 0.152014
H	 2.3176545241	 0.8775979051	-1.8995110652	 0.242433
H	 4.5461467578	 1.3466301106	-1.4276079333	 0.146291
H	 4.0749652912	 2.7440879328	-0.4820301436	 0.144061
H	 3.6518840179	-0.3489329317	 2.361873196	 0.2084
32.3869	58.0329	93.2718	150.1547	177.692	263.6938	281.7102	338.1673	355.6218	482.5246	547.4553	582.8762	608.0849	634.3543	673.2651	742.7969	828.3135	929.6677	940.205	967.5864	1062.9349	1106.8496	1161.5667	1247.8333	1309.9079	1357.4178	1368.2291	1443.9346	1467.8719	1520.5805	1800.0412	2227.4674	2335.413	2977.5883	3030.7998	3073.8887	3078.2499	3501.6173	3515.5191
O=C(CNCC#C)C#N	O=C(CNCC#C)C#N	
InChI=1S/C6H6N2O/c1-2-3-8-5-6(9)4-7/h1,8H,3,5H2	InChI=1S/C6H6N2O/c1-2-3-8-5-6(9)4-7/h1,8H,3,5H2
