19
gdb 41963	2.1932	2.11004	1.82376	1.9718	74.14	-0.2502	-0.0081	0.2421	900.0914	0.163242	-423.028834	-423.021929	-423.020985	-423.059978	28.422	
C	-0.0337067334	 1.5163204164	 0.0267253655	-0.206036
C	 1.3890200966	 2.1303166144	 0.0178469062	-0.206033
C	 2.4818464725	 1.0447195151	-0.0189663763	 0.073851
O	 2.5763962178	 0.4289471765	 1.2835154547	-0.274102
C	 1.7808903292	-0.7106997013	 1.4920921738	 0.03074
O	 0.4037925681	-0.5083792918	 1.297726128	-0.274109
C	 0.0063021038	-0.0236899542	-0.0029077803	 0.073856
C	 0.9370203475	-0.477013563	-1.1090660041	-0.091946
C	 2.161214658	 0.0513930666	-1.1170433197	-0.091911
H	-0.5855970508	 1.8179406449	 0.9211559249	 0.110109
H	-0.6063698294	 1.8620830455	-0.8404080092	 0.097237
H	 1.5209419875	 2.7806520171	-0.8534011545	 0.097239
H	 1.5577179827	 2.7424280576	 0.9080293095	 0.110127
H	 3.4590000949	 1.5083693275	-0.1784829239	 0.076998
H	 2.1349361634	-1.5408430935	 0.8654898899	 0.085032
H	 1.9001492249	-0.9711353513	 2.5464733457	 0.113757
H	-1.0029866084	-0.4175125824	-0.1495034841	 0.076995
H	 0.606042665	-1.21210112	-1.835060616	 0.099096
H	 2.91514878	-0.215422044	-1.8500929799	 0.099101
89.0225	292.898	316.2706	335.4508	356.999	451.1751	533.8689	546.2059	658.9332	709.4366	743.5282	771.2249	798.3158	828.9665	918.8876	929.5264	953.9722	969.6561	990.0346	1009.9727	1063.0805	1076.1441	1082.7198	1119.6013	1158.5506	1180.0347	1206.8379	1268.9323	1269.2345	1306.1659	1332.8501	1344.7889	1373.0197	1376.6971	1385.8143	1401.8981	1444.9962	1468.7744	1490.0236	1513.7361	1688.6688	3003.1696	3040.0032	3051.2032	3070.581	3074.2666	3085.0245	3103.4075	3104.2435	3171.6088	3194.6122
C1CC2OCOC1C=C2	C1C[C@H]2OCO[C@@H]1C=C2	
InChI=1S/C7H10O2/c1-2-7-4-3-6(1)8-5-9-7/h1-2,6-7H,3-5H2	InChI=1S/C7H10O2/c1-2-7-4-3-6(1)8-5-9-7/h1-2,6-7H,3-5H2/t6-,7+
