19
gdb 115541	2.76972	1.08107	1.02873	2.1742	78.43	-0.25	0.0223	0.2723	1292.2309	0.155788	-422.970925	-422.960865	-422.95992	-423.006444	36.312	
C	-0.3158507314	 1.5182768368	 0.1492424312	-0.391597
C	-0.0801068824	 0.0123399367	-0.0082582887	-0.182636
C	 0.855562578	-0.517954544	 1.061743494	 0.114753
O	 0.3208535614	-0.3874985038	 2.4010095216	-0.291724
C	 0.4289042156	-1.7962815052	 2.6550241528	-0.106995
C	 0.9781065844	-2.0696060426	 1.2234954907	 0.142557
O	 0.0874615951	-2.759269457	 0.3660666693	-0.457863
C	 2.3225449908	-2.6201602027	 1.1504975685	 0.284356
C	 3.4204346406	-3.1071369071	 1.0894283179	-0.478663
H	 0.6177486284	 2.0817182144	 0.0417319498	 0.112025
H	-1.0173353816	 1.8848461211	-0.605824771	 0.112225
H	-0.7298882749	 1.7399470248	 1.1368755968	 0.1369
H	-1.027308562	-0.5315722785	 0.0451696569	 0.114851
H	 0.3578461435	-0.2095874017	-0.9889899874	 0.103055
H	 1.835898945	-0.0278446987	 0.9943874369	 0.080049
H	 1.1160345616	-2.0220510876	 3.4782078148	 0.105961
H	-0.5444831596	-2.2685234012	 2.8321063767	 0.107776
H	 0.3467025476	-3.6863050033	 0.3521761953	 0.289485
H	 4.3952027701	-3.5259845603	 1.034041044	 0.205483
39.7419	86.1963	137.5286	155.088	186.0578	210.6794	231.8348	300.5657	382.8301	387.7197	475.5732	534.2443	585.6937	631.4463	644.6695	668.1059	768.237	852.3949	912.0474	919.5745	957.5778	1008.2044	1034.6286	1052.7788	1105.1589	1127.7813	1136.159	1162.7242	1213.3277	1274.9493	1284.3868	1315.6599	1347.7277	1380.1891	1404.9869	1411.9045	1475.33	1498.0965	1509.0349	1509.919	2231.2202	3014.203	3022.9022	3036.2119	3042.1241	3077.1594	3089.4971	3108.477	3120.1993	3498.5808	3821.6341
CCC1OCC1(O)C#C	CC[C@H]1OC[C@]1(O)C#C	
InChI=1S/C7H10O2/c1-3-6-7(8,4-2)5-9-6/h2,6,8H,3,5H2,1H3	InChI=1S/C7H10O2/c1-3-6-7(8,4-2)5-9-6/h2,6,8H,3,5H2,1H3/t6-,7-/m1/s1
