19
gdb 41493	3.35609	1.38068	1.02456	1.1887	77.63	-0.2265	0.021	0.2475	1152.8979	0.161617	-423.035423	-423.027744	-423.0268	-423.067816	29.216	
C	-0.0269069565	 1.5077471679	 0.095186289	-0.166209
O	 1.2708424794	 1.9230927736	-0.3273382596	-0.268294
C	 2.0902995767	 0.7870780574	-0.6003189207	-0.16453
C	 1.2111981537	-0.4009262055	-0.3346883405	 0.182503
C	 0.0045742918	 0.0066148389	 0.0517535662	 0.206463
C	-1.1084973059	-0.944888621	 0.3617391841	-0.334296
C	-0.7325041724	-2.3243510254	-0.2044433732	-0.074061
O	 0.5967183965	-2.6878693154	 0.132293204	-0.245791
C	 1.576414096	-1.8471040941	-0.4555108323	-0.187278
H	-0.2350971832	 1.8973629902	 1.1053316107	 0.102693
H	-0.7911238823	 1.9325588519	-0.5761460182	 0.100708
H	 2.4497362627	 0.8293670872	-1.6414444929	 0.1026
H	 2.982196066	 0.8048271924	 0.0476147488	 0.102662
H	-1.2770620091	-1.008591925	 1.4453329331	 0.118425
H	-2.0558506477	-0.6100811695	-0.0810423814	 0.105729
H	-1.3716665228	-3.1103184159	 0.2064719216	 0.10971
H	-0.8611447486	-2.3170088735	-1.2993258921	 0.09085
H	 1.7341014278	-2.1176967906	-1.516246636	 0.098728
H	 2.5148653478	-2.0656993336	 0.0688382194	 0.119391
103.9236	122.3455	186.4462	265.4266	315.6521	334.0655	434.9348	498.6524	515.1504	655.0449	714.8196	839.6827	855.9314	919.6293	934.8272	952.2863	976.9485	1027.1822	1063.9286	1077.5624	1093.2869	1115.4233	1138.7698	1164.7409	1184.3274	1218.4634	1225.2675	1239.4049	1262.7571	1311.9326	1346.0349	1373.4124	1395.6991	1407.5862	1424.2106	1471.6374	1487.8827	1499.765	1516.9955	1528.8185	1756.2072	2931.8743	2959.6594	2967.4998	2972.2605	2976.6047	2979.4671	3013.5716	3044.6424	3046.5774	3092.5027
C1OCC2=C1CCOC2	C1OCC2=C1CCOC2	
InChI=1S/C7H10O2/c1-2-8-4-7-5-9-3-6(1)7/h1-5H2	InChI=1S/C7H10O2/c1-2-8-4-7-5-9-3-6(1)7/h1-5H2
