14
gdb 42628	2.82819	1.73064	1.30814	4.8119	71.72	-0.2775	-0.0088	0.2687	944.9378	0.102157	-395.674131	-395.667259	-395.666315	-395.705458	26.549	
N	-0.0704608213	 1.2026677972	 0.0915032435	-0.534712
C	-0.036654395	-0.045659687	 0.0735650817	 0.398857
N	 1.0549508152	-1.0076966782	 0.0013222959	-0.197015
C	 0.503677304	-2.2398557081	 0.6971127427	-0.044089
C	-0.8861881129	-1.9282117313	 1.2527215788	-0.276158
C	-1.1015010583	-1.1213001945	-0.0741287618	 0.096374
C	-2.4073081807	-0.8903361001	-0.6228733631	 0.183731
N	-3.458384876	-0.7269579134	-1.0752238455	-0.333671
C	 0.1057963041	-1.9594113552	-0.6873582219	-0.081481
H	 0.8739401083	 1.5915682867	 0.1454868312	 0.24155
H	 1.2468307198	-2.9287478947	 1.0739162289	 0.129877
H	-1.5075670697	-2.825116734	 1.2830133525	 0.140668
H	-0.9780764269	-1.3617036035	 2.1828871999	 0.134555
H	 0.2907643394	-2.3836588938	-1.663027173	 0.141514
132.8548	156.7413	194.1997	367.7821	416.6097	495.0401	529.5947	600.5217	648.4051	694.8451	752.9188	822.651	834.8435	879.9518	897.516	935.6316	956.0198	985.836	1007.0795	1011.1983	1075.5013	1141.5522	1147.7513	1208.09	1216.1792	1257.2575	1320.8152	1340.9083	1495.1423	1829.3013	2360.7282	3070.048	3136.7359	3219.111	3240.5166	3461.8558
N=C1N2C3CC1(C#N)C23	[NH][C]1N2[C@H]3C[C@]1(C#N)[C@@H]23	
InChI=1S/C6H5N3/c7-2-6-1-3-4(6)9(3)5(6)8/h3-4,8H,1H2	InChI=1S/C6H5N3/c7-2-6-1-3-4(6)9(3)5(6)8/h3-4,8H,1H2/t3-,4-,6-,9?/m0/s1
