15
gdb 128689	3.31416	1.26039	0.91849	0.5801	64.32	-0.1938	0.0497	0.2436	1198.4629	0.111334	-491.079244	-491.069553	-491.068609	-491.114361	32.96	
C	-0.0018380347	 1.3553007209	 0.0304690574	-0.234868
O	-0.0246048138	-0.0691433389	 0.0513025335	-0.285815
C	 0.6205571656	-0.6451606361	 1.0858926524	 0.368252
N	 1.2510234428	 0.0190720696	 2.0418033744	-0.341185
N	 1.7272409705	-0.9696255274	 2.8585426576	-0.295254
C	 1.4009685959	-2.2075517164	 2.4184822299	 0.405776
O	 1.791510601	-3.3065487232	 3.0988983891	-0.438553
C	 0.6752202073	-2.0458288708	 1.2603664204	 0.002796
O	 0.1610549729	-3.0600535113	 0.4945790775	-0.476683
H	 1.0258917995	 1.7280941687	-0.0299701097	 0.135178
H	-0.564012163	 1.6533988811	-0.855623527	 0.125153
H	-0.4681890636	 1.7665053104	 0.9318060377	 0.13448
H	 2.2781939098	-0.7345699105	 3.6638175035	 0.276439
H	 1.441678816	-4.0765538213	 2.635797141	 0.318306
H	-0.4160621263	-2.6615938349	-0.1650258178	 0.305979
55.0701	87.2572	138.0288	156.2511	185.6833	220.7635	240.1163	283.552	334.8886	363.048	447.1111	548.0921	648.6465	649.8483	709.154	780.4386	785.057	999.6104	1105.6313	1146.1021	1180.4169	1181.6436	1225.1856	1264.4382	1316.6739	1391.123	1454.3389	1459.5146	1476.669	1504.5971	1582.964	1608.601	1715.7269	3032.2374	3098.4033	3143.1872	3703.1145	3816.3825	3830.2014
COC1=NNC(O)=C1O	COc1n[nH]c(O)c1O	
InChI=1S/C4H6N2O3/c1-9-4-2(7)3(8)5-6-4/h7H,1H3,(H2,5,6,8)	InChI=1S/C4H6N2O3/c1-9-4-2(7)3(8)5-6-4/h7H,1H3,(H2,5,6,8)
