18
gdb 96842	3.59747	1.12348	0.87018	1.2795	77.68	-0.2358	0.0053	0.241	1323.4808	0.147825	-435.329579	-435.32007	-435.319126	-435.364567	32.959	
C	-0.0481803684	 1.3967141187	 0.0509062828	-0.34162
N	-0.0578140621	-0.057684691	 0.0097504866	-0.31621
C	 0.5039232543	-0.618458754	-0.9757838797	 0.423671
C	 0.5848101744	-2.1263944744	-1.1741158796	-0.270389
N	 1.3104116012	-2.2539291179	-2.4217064636	-0.11856
C	 1.644482768	-3.5111848697	-3.0415554799	-0.33905
C	 1.652310845	-1.0400812204	-2.9593637575	 0.480353
O	 2.2561513419	-0.8183576418	-3.9840508906	-0.414223
N	 1.1550524458	-0.0723890395	-2.0708616081	-0.427979
H	 0.97322775	 1.8067035494	 0.080481095	 0.113012
H	-0.5598126074	 1.8422874903	-0.8162278032	 0.112951
H	-0.5661261295	 1.7379860988	 0.9500154998	 0.130188
H	 1.1105001224	-2.6011653075	-0.3356568251	 0.138118
H	-0.4196392096	-2.5655420728	-1.2293221724	 0.138112
H	 0.7435089797	-4.0880493404	-3.2856592266	 0.125464
H	 2.1877108672	-3.2917686532	-3.9621154905	 0.168718
H	 2.2790612204	-4.1226235798	-2.3876759222	 0.125451
H	 1.2851011967	 0.9074859651	-2.2528974651	 0.271995
78.3481	82.3424	99.3622	160.1548	178.1784	188.8176	243.2008	288.2989	411.1294	452.0878	555.3096	616.02	620.7828	694.6538	759.0465	824.7902	899.4487	1018.9917	1029.6143	1056.589	1109.0628	1151.3489	1154.7014	1167.4336	1200.8924	1269.104	1314.0161	1336.3715	1354.491	1434.3727	1441.1476	1456.8391	1490.9235	1493.8135	1502.8992	1508.0986	1537.5207	1787.1433	1851.7926	2973.0844	3011.2057	3018.3214	3020.5651	3045.9026	3059.6894	3107.0912	3144.9365	3687.5358
CN=C1CN(C)C(=O)N1	CN=C1CN(C)C(=O)N1	
InChI=1S/C5H9N3O/c1-6-4-3-8(2)5(9)7-4/h3H2,1-2H3,(H,6,7,9)	InChI=1S/C5H9N3O/c1-6-4-3-8(2)5(9)7-4/h3H2,1-2H3,(H,6,7,9)
