20
gdb 118443	1.89209	1.26374	0.91288	1.9724	72.52	-0.2336	0.0226	0.2562	1369.5426	0.169377	-477.447257	-477.436693	-477.435749	-477.484616	37.262	
C	-0.5904334471	 1.5526333591	-0.1865619136	-0.387984
C	-0.2606212516	 0.0720488336	-0.2525257955	-0.045318
O	-1.4298682596	-0.656218109	 0.1161863912	-0.283515
C	-1.2921125748	-2.0719848831	 0.1200101616	 0.023584
C	-2.5176823183	-2.5829660481	 0.8802954204	-0.110946
O	-3.7250254014	-2.0631498828	 0.3320883623	-0.416278
C	-1.1336443537	-2.6060625318	-1.323109065	 0.373827
N	-2.2917203885	-2.7812446072	-2.0072174924	-0.51726
O	-0.02814653	-2.8088879013	-1.7948485945	-0.374847
H	 0.2904821889	 2.1461736834	-0.4480370504	 0.122256
H	-1.3933618702	 1.8015333607	-0.8866582694	 0.124528
H	-0.9118809199	 1.8343826329	 0.8203952901	 0.12354
H	 0.067881319	-0.2168378146	-1.2585201384	 0.123117
H	 0.5570136303	-0.1798239976	 0.4404489956	 0.096097
H	-0.3751758509	-2.370389282	 0.647225456	 0.091404
H	-2.5806673643	-3.6732532709	 0.8243590998	 0.123987
H	-2.4203247211	-2.2946019067	 1.9359798733	 0.108812
H	-3.5884017404	-1.1074702687	 0.2837430635	 0.298963
H	-3.1798627119	-2.5901362565	-1.5645064937	 0.270244
H	-2.2413798545	-3.0900759593	-2.9642234511	 0.255788
18.2829	52.2431	98.7455	122.5796	193.9131	229.7634	252.4724	287.6728	318.5267	375.3716	389.2888	428.2831	531.3571	551.0911	679.1705	702.2168	796.5765	814.8894	827.2748	904.8495	946.136	999.3237	1054.5806	1081.4034	1123.7323	1137.2252	1144.1175	1187.1958	1228.4128	1301.6786	1315.8524	1346.9326	1360.3469	1396.7422	1401.6206	1431.8089	1440.0776	1484.8499	1495.5444	1499.6264	1531.5398	1612.4317	1787.8686	2989.3302	3008.3414	3022.2233	3043.9309	3050.034	3099.4713	3119.0312	3120.4248	3538.5926	3700.8007	3772.1514
CCOC(CO)C(N)=O	CCO[C@@H](CO)C(=O)N	
InChI=1S/C5H11NO3/c1-2-9-4(3-7)5(6)8/h4,7H,2-3H2,1H3,(H2,6,8)	InChI=1S/C5H11NO3/c1-2-9-4(3-7)5(6)8/h4,7H,2-3H2,1H3,(H2,6,8)/t4-/m0/s1
