22
gdb 93786	2.35379	1.3874	1.02295	3.7919	83.	-0.2328	0.0344	0.2672	1264.1626	0.195872	-404.413221	-404.403999	-404.403055	-404.447156	35.37	
C	-0.1473389493	 1.5583288746	 0.038637604	-0.405162
C	-0.0044363888	 0.0369118789	-0.0162289055	 0.069587
C	 0.6482470462	-0.4463912404	-1.3120104546	-0.194834
C	 0.9444579394	-1.9452957773	-1.23092385	-0.24096
C	 1.9204182661	-2.265124605	-0.0847394957	-0.068738
C	 3.3935330171	-2.0078405773	-0.4541507633	-0.392928
C	 1.6024466737	-1.5162677715	 1.2131861135	 0.386346
O	 2.100847991	-1.849310462	 2.2749839138	-0.391428
N	 0.7797289545	-0.4261916577	 1.1271578014	-0.31577
H	 0.8327060596	 2.0417105945	-0.0251172968	 0.12659
H	-0.7665690164	 1.9131473981	-0.7907882678	 0.12165
H	-0.6254639559	 1.8775655328	 0.9712235988	 0.116
H	-1.0149759812	-0.4023296412	 0.0352449131	 0.080586
H	-0.0211343594	-0.2258048852	-2.1498328255	 0.099876
H	 1.5732971588	 0.1181191964	-1.4831369357	 0.105037
H	 0.0012505382	-2.4839250561	-1.0725429933	 0.098895
H	 1.3548836265	-2.3105583511	-2.1788284282	 0.09653
H	 1.8337014568	-3.3244188725	 0.1792021836	 0.100951
H	 3.5630784206	-0.9663918197	-0.7474334624	 0.115572
H	 4.0349727153	-2.2260521604	 0.4024502635	 0.143416
H	 3.6943009712	-2.646953472	-1.2903233002	 0.111073
H	 0.5917853761	-0.0012204357	 2.0253619673	 0.237712
63.0554	97.7657	221.004	224.3048	256.2397	269.1949	287.8512	342.9809	433.96	457.072	470.612	550.2392	607.7907	635.9645	724.6548	768.2828	830.7589	865.3775	933.2014	962.485	983.6001	1001.087	1028.8887	1052.2071	1098.6377	1127.0649	1157.3704	1193.6641	1217.1545	1244.8906	1320.6085	1329.3981	1345.4428	1357.8908	1374.9346	1385.7182	1394.9478	1409.609	1414.3615	1465.7378	1482.1747	1493.7996	1496.0061	1499.7172	1500.5519	1508.8861	1775.5892	2952.419	3020.4346	3031.1026	3034.1114	3038.2853	3053.6987	3065.8694	3081.7341	3100.9996	3103.0245	3115.2938	3131.0465	3587.1402
CC1CCC(C)C(=O)N1	C[C@H]1CC[C@@H](C)C(=O)N1	
InChI=1S/C7H13NO/c1-5-3-4-6(2)8-7(5)9/h5-6H,3-4H2,1-2H3,(H,8,9)	InChI=1S/C7H13NO/c1-5-3-4-6(2)8-7(5)9/h5-6H,3-4H2,1-2H3,(H,8,9)/t5-,6+/m1/s1
