21
gdb 104017	2.99688	1.42494	1.27503	2.5368	77.69	-0.2363	0.0854	0.3217	1099.8279	0.18213	-424.193046	-424.184487	-424.183543	-424.225807	33.583	
C	 0.0548788055	 1.334551232	-0.0421915547	-0.249576
O	-0.0723217527	-0.0657251841	 0.0407848747	-0.288849
C	-1.3911624058	-0.593318425	 0.0380682559	 0.450093
C	-2.1936391487	-0.0883889947	 1.2385478015	-0.469494
C	-2.1086401172	-0.4591107704	-1.3557986884	-0.292432
C	-2.0910208552	-1.9549834951	-1.7381197495	 0.079565
C	-2.5902054889	-2.6740376993	-0.4670670059	-0.241811
C	-1.2163097612	-2.1349911004	-0.0086211828	 0.030223
O	-0.7329781072	-2.3457808399	-1.3691391681	-0.291649
H	 1.1193137685	 1.5436345201	-0.1763221319	 0.128354
H	-0.4910915235	 1.7564706959	-0.8990404546	 0.102399
H	-0.2858174366	 1.8481341138	 0.8682566793	 0.104395
H	-2.390601664	 0.9853087653	 1.1656318952	 0.121806
H	-3.1620707629	-0.5881752354	 1.3147463855	 0.117639
H	-1.6379252502	-0.2682992549	 2.1647714644	 0.123341
H	-3.1165577518	-0.0391010708	-1.2944045087	 0.09387
H	-1.5154998103	 0.131696148	-2.055818132	 0.114903
H	-2.3809904279	-2.2441388322	-2.7484639786	 0.078136
H	-3.509188497	-2.3416354746	 0.0207662945	 0.093335
H	-2.570901038	-3.7580511689	-0.5805888096	 0.113966
H	-0.6003350951	-2.5906297493	 0.7661327137	 0.081787
106.4662	170.5246	178.9781	193.43	243.2839	322.9183	379.7402	401.4804	441.2299	489.6732	581.8386	617.1522	763.9793	814.5729	846.8523	870.9939	878.8448	911.1279	925.355	952.5641	960.1816	1027.1314	1041.4921	1072.5589	1101.8474	1113.3922	1171.4023	1181.6492	1189.5478	1206.978	1219.4664	1228.6386	1242.5454	1254.0725	1298.7091	1316.6031	1338.5333	1405.2516	1469.6809	1476.2392	1485.6306	1486.7643	1491.9284	1507.913	1512.6461	2985.0557	3031.3219	3042.3088	3063.7565	3071.5316	3106.5539	3109.4077	3118.2854	3122.5044	3125.9809	3130.9087	3146.4851
COC1(C)CC2CC1O2	CO[C@@]1(C)C[C@@H]2C[C@H]1O2	
InChI=1S/C7H12O2/c1-7(8-2)4-5-3-6(7)9-5/h5-6H,3-4H2,1-2H3	InChI=1S/C7H12O2/c1-7(8-2)4-5-3-6(7)9-5/h5-6H,3-4H2,1-2H3/t5-,6+,7-/m0/s1
