21
gdb 88077	3.28296	1.24137	1.14748	2.0178	82.88	-0.2315	0.0744	0.3059	1182.1901	0.18482	-383.237745	-383.229546	-383.228602	-383.270283	32.635	
C	-0.0710802084	 1.5165297171	-0.0840149763	-0.396315
C	-0.0232747126	 0.0184414911	 0.0992426998	-0.058544
N	 1.2845151559	-0.6447734183	-0.1014218634	-0.388885
C	 0.6545427006	-0.6503602534	 1.2351800176	 0.392981
C	 1.3892635711	 0.0549133772	 2.3776150993	-0.295498
C	 1.9096445733	-1.0925067887	 3.2838396058	-0.216284
C	 0.9333598611	-2.2330829623	 3.0469304411	-0.031112
N	-0.481113984	-1.8050780659	 3.1261501872	-0.344217
C	 0.1733260162	-1.9566243763	 1.8023425664	-0.135741
H	 0.8313103039	 1.9889093871	 0.3106034606	 0.125616
H	-0.1482072657	 1.7739137168	-1.145988345	 0.116567
H	-0.9392163535	 1.9426223009	 0.4305751581	 0.117633
H	-0.8949171425	-0.505656897	-0.2943310971	 0.073476
H	 1.15830191	-1.5458758106	-0.5585350807	 0.219566
H	 2.1943252429	 0.6884683469	 2.0029077106	 0.108631
H	 0.6863922351	 0.679239789	 2.9350698977	 0.11817
H	 2.9093063539	-1.4122413528	 2.9679038761	 0.103887
H	 1.969764894	-0.7975403455	 4.3357360547	 0.101771
H	 1.1913405996	-3.2438604899	 3.346740112	 0.083383
H	-1.063802012	-2.6217138779	 3.2950880631	 0.229099
H	-0.1651145987	-2.7409648873	 1.1305252722	 0.075817
101.4246	159.8026	182.4301	201.1753	312.1452	371.4324	374.8141	450.7916	494.8486	553.7875	660.411	747.0977	802.0254	821.7987	842.7742	862.7125	880.5509	908.8527	938.6439	957.0869	992.8226	1027.3694	1037.7619	1056.1322	1079.2693	1095.4611	1118.8898	1132.1333	1158.4383	1199.5516	1220.1099	1238.6565	1255.8949	1286.5483	1310.4269	1333.0919	1352.8192	1380.9928	1406.5225	1422.2421	1470.5779	1476.8673	1487.43	1493.7662	1506.1228	3034.7443	3041.5801	3070.953	3088.376	3093.9751	3095.1699	3125.7158	3131.056	3142.5535	3162.0706	3477.7059	3498.0721
CC1NC11CCC2NC12	C[C@H]1N[C@]21CC[C@H]1N[C@@H]21	
InChI=1S/C7H12N2/c1-4-7(9-4)3-2-5-6(7)8-5/h4-6,8-9H,2-3H2,1H3	InChI=1S/C7H12N2/c1-4-7(9-4)3-2-5-6(7)8-5/h4-6,8-9H,2-3H2,1H3/t4-,5-,6-,7+/m1/s1
