18
gdb 74734	2.32076	2.17367	1.50948	1.6494	77.51	-0.223	-0.0003	0.2227	937.7209	0.147473	-401.793377	-401.786019	-401.785075	-401.824701	30.088	
C	 0.0513137544	 1.4284187116	 0.0806639657	-0.52347
C	 0.015325964	-0.0546174997	-0.035223816	 0.338879
C	 0.0557090042	-0.8758412512	-1.088425638	-0.177194
C	-0.0187015592	-2.231601568	-0.4201249166	-0.057626
O	 0.9676149778	-2.0732679314	 0.7171777771	-0.358624
C	-0.0592100013	-1.0583915905	 1.1362584649	 0.245729
C	-1.0414241513	-0.6460725283	 2.2689847023	-0.275086
N	-2.1188668326	-1.0546871165	 1.2509932641	-0.358564
C	-1.1061927595	-2.0348768678	 0.736596609	 0.039466
H	 0.8842481743	 1.7627976577	 0.7118464278	 0.129094
H	 0.1637363531	 1.8954248876	-0.9015872796	 0.127445
H	-0.8700598471	 1.8148739465	 0.5318911407	 0.139242
H	 0.1238934615	-0.6700479904	-2.1463373085	 0.105868
H	 0.1252638286	-3.1585005668	-0.9753467462	 0.082159
H	-1.0057476217	-1.2966388572	 3.1492358959	 0.118281
H	-1.0805841072	 0.4055434854	 2.5661455386	 0.114702
H	-2.9382848089	-1.4890681776	 1.670371815	 0.222341
H	-1.0854816591	-2.9403493533	 1.3542963536	 0.08736
147.686	176.4962	242.2218	306.528	343.232	445.5123	517.0074	560.4288	581.734	638.6839	659.6049	704.7868	777.5472	805.2978	809.0094	871.6197	874.9676	925.1707	944.5716	971.7302	1013.1524	1050.6534	1059.1481	1084.5852	1130.2859	1135.2087	1175.5279	1198.5394	1234.8846	1252.614	1261.3653	1302.8214	1335.9607	1401.661	1412.9002	1478.2393	1483.411	1500.2402	1690.0112	3021.053	3028.6057	3040.7862	3071.7261	3104.9098	3110.5275	3126.5094	3241.9839	3482.2336
CC1=CC2OC11CNC21	CC1=C[C@H]2O[C@]31CN[C@@H]23	
InChI=1S/C7H9NO/c1-4-2-5-6-7(4,9-5)3-8-6/h2,5-6,8H,3H2,1H3	InChI=1S/C7H9NO/c1-4-2-5-6-7(4,9-5)3-8-6/h2,5-6,8H,3H2,1H3/t5-,6+,7+/m1/s1
