14
gdb 24324	3.98128	1.73259	1.20723	2.9741	79.4	-0.2063	-0.0556	0.1507	938.1426	0.106097	-395.793087	-395.787209	-395.786265	-395.82313	24.174	
N	 0.0091041714	 1.3285390251	 0.0096938016	-0.208852
C	 1.2690664501	 1.8585937018	 0.0002642681	-0.189513
C	 2.1429975611	 0.7786531469	-0.0145743815	 0.285112
N	 3.5016583018	 0.7432879694	-0.0282317369	-0.329485
C	 4.0035009221	-0.4685078017	-0.0401303138	-0.042224
C	 3.2092132033	-1.662111598	-0.0390887327	-0.042225
N	 1.8976328804	-1.6671364414	-0.0261291358	-0.329485
C	 1.3403528358	-0.4275087186	-0.0135221488	 0.285112
C	 0.0067139066	-0.0383867259	 0.0019061908	-0.189513
H	-0.8289940078	 1.8862647449	 0.0211765466	 0.275295
H	 1.4421183053	 2.9212804413	 0.0046363285	 0.137294
H	 5.0879175938	-0.5600712326	-0.0513899362	 0.105595
H	 3.7124302143	-2.6270638261	-0.0495894782	 0.105595
H	-0.9067090081	-0.6083818049	 0.007686838	 0.137294
229.5903	249.3396	451.0795	464.3139	561.7103	596.6188	609.7325	635.019	651.6247	656.3153	738.8642	754.9268	839.4424	886.1209	895.7591	941.0096	977.9618	1030.4899	1080.1956	1140.2528	1213.518	1261.0769	1330.0713	1361.9436	1386.5239	1399.631	1451.7286	1480.8876	1574.1356	1588.7951	1614.9452	3137.7299	3156.2486	3278.5686	3281.0557	3664.0087
N1C=C2N=CC=NC2=C1	[nH]1cc2nccnc2c1	
InChI=1S/C6H5N3/c1-2-9-6-4-7-3-5(6)8-1/h1-4,7H	InChI=1S/C6H5N3/c1-2-9-6-4-7-3-5(6)8-1/h1-4,7H
