23
gdb 96107	2.11964	1.70166	1.17913	1.4478	84.97	-0.2577	0.0738	0.3315	1162.5955	0.20722	-388.300037	-388.291108	-388.290164	-388.332933	35.806	
C	-0.042920131	 1.5223391616	-0.0203587403	-0.472603
C	-0.0246499602	 0.0063898606	 0.0131738829	 0.3754
C	-0.8617675063	-0.6840577837	 1.059656185	-0.315457
C	 0.6448228308	-0.6880805669	 1.188674874	-0.073654
C	 1.4330115925	-1.9867259788	 1.0111755066	-0.220424
C	 1.7241289309	-2.3248701382	-0.4596327689	-0.199491
C	 0.4817011352	-2.1139782856	-1.32972751	-0.245968
C	 0.0856302119	-0.6331429994	-1.3602419615	 0.067631
O	-1.1646116629	-0.4298499471	-2.0202167901	-0.445555
H	 0.8889389534	 1.9216640049	-0.4395388642	 0.105889
H	-0.871213317	 1.8805766901	-0.6395714066	 0.132049
H	-0.1625370648	 1.94039834	 0.9840912186	 0.105851
H	-1.4404681047	-0.0614878467	 1.7341781896	 0.102503
H	-1.3487833131	-1.6183125274	 0.7997747299	 0.109969
H	 1.0458031659	-0.0154270964	 1.9419061746	 0.076781
H	 2.3777260325	-1.9149542826	 1.5603453665	 0.095598
H	 0.8799194889	-2.8172944555	 1.468500976	 0.099214
H	 2.5315628902	-1.6801611678	-0.832318335	 0.094661
H	 2.0853429339	-3.3554795485	-0.5436992868	 0.0917
H	 0.6678823289	-2.4498566937	-2.3579588936	 0.080891
H	-0.3598393763	-2.7097896595	-0.9552949582	 0.103564
H	 0.8790990192	-0.0912319239	-1.905617796	 0.055313
H	-1.0747977079	-0.7515725657	-2.9232416124	 0.276138
98.4982	191.7918	226.9213	235.5179	261.6064	283.1352	323.0889	354.3334	411.1209	465.0182	467.5097	526.1863	631.8514	686.6678	769.6994	841.5501	870.3299	890.1903	911.2261	920.1696	960.6836	986.7728	1021.8292	1052.7587	1067.1598	1081.696	1100.2244	1125.1169	1127.3827	1141.5568	1181.624	1214.851	1249.8011	1254.0065	1288.8004	1333.9802	1345.935	1365.3352	1376.0105	1390.5708	1406.7437	1416.2457	1446.8965	1484.2221	1488.1873	1490.6596	1498.0877	1505.9957	1511.2606	2932.9803	3014.5529	3018.9117	3019.9321	3022.2185	3058.7523	3062.9211	3071.7212	3085.9521	3106.565	3126.9872	3137.544	3208.8635	3810.5199
CC12CC1CCCC2O	C[C@]12C[C@H]1CCC[C@H]2O	
InChI=1S/C8H14O/c1-8-5-6(8)3-2-4-7(8)9/h6-7,9H,2-5H2,1H3	InChI=1S/C8H14O/c1-8-5-6(8)3-2-4-7(8)9/h6-7,9H,2-5H2,1H3/t6-,7-,8+/m1/s1
