22
gdb 57895	3.25898	0.90908	0.88093	2.7788	84.78	-0.2411	0.0073	0.2485	1500.4152	0.191801	-404.365483	-404.354854	-404.35391	-404.4019	37.964	
C	 0.6648756066	 1.7280652691	-0.4577539188	-0.384058
C	 0.0683998387	 0.4498065295	 0.1395940115	-0.062558
C	 0.1461005638	-0.7301964524	-0.8508548192	-0.38519
C	 0.8074593249	 0.0554813332	 1.416503037	 0.374465
O	 1.9967237348	 0.2262911893	 1.577683078	-0.350222
N	 0.0275049571	-0.6418841557	 2.3437960522	-0.092952
C	-1.03001522	-0.0470580745	 3.1487006851	-0.260997
C	 0.2443532485	-0.5459102084	 3.769635843	 0.026255
C	 0.3042366948	-1.8250609059	 4.5670792081	-0.411552
H	 1.7337822433	 1.5947216414	-0.6412051366	 0.139633
H	 0.1727311923	 1.9751515443	-1.4034303275	 0.106419
H	 0.5485716084	 2.5800672852	 0.2192640687	 0.110913
H	-0.9867342244	 0.611961047	 0.3892181172	 0.078231
H	 1.1884132123	-0.9415491804	-1.1099301393	 0.132535
H	-0.2907848994	-1.6365057694	-0.4226362675	 0.12601
H	-0.3932898113	-0.4889109896	-1.7720629783	 0.114043
H	-1.1768182892	 1.0288206953	 3.0818294857	 0.125758
H	-1.9438769814	-0.6294406295	 3.2398791627	 0.121086
H	 0.9540941352	 0.22419442	 4.0684500411	 0.110275
H	-0.4232719351	-2.5507480655	 4.1925669469	 0.124086
H	 1.3000082541	-2.2739842073	 4.4983431333	 0.136389
H	 0.0909176261	-1.6315621657	 5.6234665868	 0.121432
31.7567	69.999	129.1091	152.3426	203.4075	208.8163	232.7569	257.1789	267.4861	299.9129	393.3695	405.2158	502.8437	591.8464	727.6263	776.0919	825.3445	859.2399	918.6261	926.7791	934.2795	973.5374	1024.7772	1053.6807	1108.2008	1115.093	1121.3806	1125.8206	1148.923	1182.3443	1191.553	1208.3732	1317.902	1335.8003	1382.0975	1397.2392	1408.6349	1417.398	1446.4808	1484.8348	1486.0538	1490.0011	1497.8816	1498.4762	1512.6127	1515.3766	1781.1202	3036.0521	3037.868	3038.6426	3042.3758	3097.1716	3106.0573	3106.9771	3109.04	3112.4929	3117.8221	3129.3608	3132.674	3184.8686
CC(C)C(=O)N1CC1C	CC(C)C(=O)N1C[C@H]1C	
InChI=1S/C7H13NO/c1-5(2)7(9)8-4-6(8)3/h5-6H,4H2,1-3H3	InChI=1S/C7H13NO/c1-5(2)7(9)8-4-6(8)3/h5-6H,4H2,1-3H3/t6-,8?/m1/s1
