16
gdb 83042	2.40276	1.78696	1.41454	4.9359	72.09	-0.213	-0.0341	0.1789	953.4153	0.126017	-437.896687	-437.889106	-437.888162	-437.92854	29.566	
O	 0.2042738502	 1.3958952551	 0.1426130835	-0.421226
C	 0.0477701266	 0.0176938175	 0.0846311364	 0.093742
C	-0.4779117719	-0.7429249761	 1.2857589475	-0.069663
N	-0.9714485452	 0.0121910746	 2.3958980319	-0.266119
C	-1.9838827075	 0.9011216468	 2.260976618	 0.042936
C	-2.7729883342	 1.0135589472	 1.154634199	-0.308851
C	-2.5759201034	 0.156790634	-0.0017437614	 0.394787
O	-3.3607328773	 0.0640403101	-0.932509082	-0.366788
C	-1.3055924466	-0.6597580965	-0.0003719865	-0.237462
H	-0.6655613757	 1.8128290211	 0.19267401	 0.294687
H	 0.8484934198	-0.448475655	-0.4809411544	 0.118721
H	-0.028511966	-1.6895876909	 1.5671358569	 0.1114
H	-0.3457228627	 0.1302453497	 3.1762516716	 0.261834
H	-2.157239601	 1.5207820315	 3.1359851581	 0.130024
H	-3.6248886475	 1.6806268755	 1.1603752977	 0.105945
H	-1.3698345474	-1.5432644146	-0.6250805861	 0.116033
115.0766	170.1831	202.4961	274.6279	371.6702	422.1698	451.9948	496.4933	509.8642	561.3232	661.3608	721.111	754.9147	772.9759	818.5803	849.3171	923.0822	962.0938	984.3993	1019.8806	1059.7807	1068.4585	1115.9528	1146.0675	1217.11	1240.1684	1276.8791	1331.4087	1342.2142	1393.6422	1418.2096	1443.0195	1538.8136	1646.687	1745.0624	3155.8502	3161.9097	3177.9364	3182.3346	3222.2841	3636.1154	3751.5643
OC1C2NC=CC(=O)C12	O[C@H]1[C@H]2NC=CC(=O)[C@@H]12	
InChI=1S/C6H7NO2/c8-3-1-2-7-5-4(3)6(5)9/h1-2,4-7,9H	InChI=1S/C6H7NO2/c8-3-1-2-7-5-4(3)6(5)9/h1-2,4-7,9H/t4-,5+,6-/m1/s1
