19
gdb 124631	4.28759	0.88882	0.81565	4.1991	78.23	-0.2058	-0.0021	0.2036	1447.4445	0.159086	-419.195683	-419.186705	-419.185761	-419.229847	33.38	
C	-0.1014318071	 1.5006172771	-0.0306458686	-0.387941
C	 0.0235015427	-0.0299214306	 0.0425740022	 0.055268
C	 0.7547282097	-0.477479416	 1.3090871092	-0.398527
N	-1.2651915775	-0.7232942679	-0.0253711092	-0.405362
C	-2.0042305238	-0.6899345248	-1.2006626539	 0.189254
C	-1.6343633243	-0.3997741702	-2.4830500911	-0.007082
O	-2.6802624916	-0.5864865027	-3.3240099956	-0.172164
N	-3.7761027714	-0.9987194286	-2.5983140898	-0.127954
C	-3.3758885121	-1.0603275449	-1.3528391358	-0.047448
H	 0.8860794484	 1.9716513191	-0.0695073211	 0.117142
H	-0.6622702364	 1.8108273441	-0.9164336064	 0.127727
H	-0.6232021275	 1.8856310303	 0.8532784051	 0.111627
H	 0.600193088	-0.3774888194	-0.8247354812	 0.093027
H	 0.1979426155	-0.176016443	 2.2051194829	 0.112454
H	 0.8695385033	-1.564152747	 1.3289774891	 0.128079
H	 1.7449403018	-0.0170345436	 1.3677807655	 0.121061
H	-1.8301832715	-0.5782297257	 0.8011724915	 0.229469
H	-0.7172001085	-0.0722682815	-2.9422159823	 0.138402
H	-4.0721666378	-1.3705451447	-0.5857350006	 0.122969
62.6832	81.1025	133.1065	225.7543	256.072	305.5302	322.6893	359.9272	431.97	468.61	555.6981	607.4893	671.9154	756.6401	767.1273	846.083	881.1497	928.5247	930.945	942.4123	948.6308	973.1479	1043.0108	1129.554	1144.9225	1166.4029	1194.161	1226.2559	1306.7122	1328.0929	1357.247	1394.9966	1398.7383	1418.1984	1479.9685	1485.7326	1487.2792	1493.5211	1508.1552	1526.8612	1674.2881	3019.2424	3028.6262	3034.2277	3095.447	3103.454	3116.9341	3126.1098	3235.8459	3283.5617	3566.1361
CC(C)NC1=CON=C1	CC(C)Nc1conc1	
InChI=1S/C6H10N2O/c1-5(2)8-6-3-7-9-4-6/h3-5,8H,1-2H3	InChI=1S/C6H10N2O/c1-5(2)8-6-3-7-9-4-6/h3-5,8H,1-2H3
