20
gdb 113322	2.54194	1.05238	0.84583	4.2367	81.11	-0.2911	0.0082	0.2993	1450.6068	0.168511	-403.154125	-403.143864	-403.14292	-403.18996	36.384	
C	 0.4630888301	 1.4146443639	 0.2191559061	-0.379296
C	-0.2843618166	 0.1304891566	-0.1654916908	-0.228526
C	 0.341391506	-0.5264096897	-1.3710020911	 0.033886
O	 1.5597961045	-1.2552238095	-1.1841751389	-0.275972
C	 0.4051341721	-1.9899981748	-1.6148845636	 0.223045
C	-0.1299715909	-3.0556729162	-0.6747452625	-0.269107
C	 0.7950195734	-4.2762704187	-0.5956155208	-0.390255
C	 0.4638578938	-2.4086530835	-3.0117632979	 0.265107
N	 0.48064188	-2.7568190235	-4.1139193468	-0.338955
H	 1.5060941013	 1.1952289978	 0.465369918	 0.138394
H	 0.455859522	 2.1392247113	-0.6018042091	 0.123728
H	-0.000909324	 1.8881177873	 1.088665737	 0.121467
H	-0.290834935	-0.5599727161	 0.6817615277	 0.112765
H	-1.3302184998	 0.3609630704	-0.4043290559	 0.114006
H	 0.3542627304	 0.1004192907	-2.2655163265	 0.10913
H	-0.2527368845	-2.6162811412	 0.3174626004	 0.116757
H	-1.1257999465	-3.3536544177	-1.0233602252	 0.12119
H	 0.9081773892	-4.7527720781	-1.5740401928	 0.143212
H	 1.7880402918	-3.9836147583	-0.2427879235	 0.138016
H	 0.3899291528	-5.0188423406	 0.0969960364	 0.121406
56.9614	72.3487	131.0024	136.6829	165.1781	207.7186	234.9994	260.1459	311.9016	380.3399	431.5449	494.5809	582.7683	639.2872	667.3442	754.1834	786.2902	843.0136	928.8853	937.4377	970.0611	1016.5683	1041.4076	1092.1113	1101.8266	1150.2157	1160.5087	1229.2452	1287.4365	1303.1027	1326.1081	1349.3906	1371.9528	1410.4878	1413.701	1466.2905	1469.0553	1479.7244	1498.2883	1498.7096	1506.6992	1508.7565	2353.6567	3037.1043	3040.8159	3045.5092	3047.396	3084.1071	3095.4808	3104.1455	3116.2627	3120.8966	3121.6859	3126.4159
CCC1OC1(CC)C#N	CC[C@H]1O[C@]1(CC)C#N	
InChI=1S/C7H11NO/c1-3-6-7(4-2,5-8)9-6/h6H,3-4H2,1-2H3	InChI=1S/C7H11NO/c1-3-6-7(4-2,5-8)9-6/h6H,3-4H2,1-2H3/t6-,7-/m1/s1
