20
gdb 17383	4.37646	1.65862	1.54209	0.2208	78.35	-0.2455	0.0921	0.3376	922.9812	0.17855	-311.829213	-311.822135	-311.821191	-311.86028	28.667	
C	-0.1526272461	 1.342445998	 0.1373681937	-0.284503
C	 1.1709541666	 0.7252631231	-0.2161477272	-0.032645
C	 1.873953895	 0.2347452423	 1.05477971	-0.329666
C	 0.6482124069	-0.6774269297	 1.3683059076	 0.391286
C	 0.815611237	-2.2162565672	 1.4780332222	-0.285644
C	-0.3455411302	-2.2345722692	 2.5082595683	-0.208232
C	-0.1397447834	-0.7078137496	 2.7052730032	-0.280723
C	-0.0380131857	-0.1570405648	 0.0964144857	-0.100723
H	-0.2814970258	 1.8597046858	 1.0863193611	 0.103202
H	-0.6979317173	 1.7891271022	-0.6881427095	 0.107216
H	 1.6496222877	 0.9087804637	-1.1704033889	 0.081351
H	 2.7718467618	-0.3573299805	 0.8554671178	 0.09905
H	 2.120857799	 1.0050143374	 1.7950236714	 0.089087
H	 0.6997746572	-2.7993766987	 0.5596838662	 0.093632
H	 1.7727967538	-2.4812203806	 1.9392727468	 0.094681
H	-1.3062866459	-2.4585152538	 2.0365940441	 0.101908
H	-0.232587936	-2.8781353834	 3.3836860915	 0.093954
H	 0.5099895345	-0.4933101879	 3.5602728976	 0.095536
H	-1.0286364065	-0.0746493054	 2.7753041077	 0.093524
H	-0.6401759126	-0.7578887318	-0.5765282693	 0.077709
114.7104	144.6614	229.9506	337.6174	384.2998	446.6211	504.112	677.7736	739.6306	777.3934	789.0768	818.8171	861.5662	887.888	918.642	934.0506	940.1721	962.3262	972.9512	989.8898	1029.1926	1054.8514	1067.3901	1081.3337	1129.7186	1153.9971	1165.9372	1188.2538	1206.9909	1226.5256	1249.0995	1252.2532	1256.0262	1274.6626	1294.5278	1319.0717	1360.2434	1472.326	1477.6079	1482.8603	1494.3215	1504.2709	3028.6458	3039.9142	3045.1084	3059.4572	3087.0594	3088.7289	3094.5651	3101.2211	3115.4731	3163.8112	3179.9443	3196.8868
C1C2CC3(CCC3)C12	C1[C@H]2CC3(CCC3)[C@@H]12	
InChI=1S/C8H12/c1-2-8(3-1)5-6-4-7(6)8/h6-7H,1-5H2	InChI=1S/C8H12/c1-2-8(3-1)5-6-4-7(6)8/h6-7H,1-5H2/t6-,7-/m0/s1
