18
gdb 80273	2.57347	1.53178	1.28218	3.2597	72.78	-0.2431	0.0289	0.272	1059.2581	0.147235	-439.087204	-439.078688	-439.077744	-439.120129	32.389	
C	-0.1393333201	 1.4697163192	 0.1262009168	-0.484847
C	-0.0179477903	-0.0283205691	-0.0095044762	 0.24497
C	-1.2295366654	-0.8449323601	-0.4355727823	-0.368141
C	-1.1084129095	-2.1600742986	 0.3134351323	 0.416741
N	-1.882994176	-3.1475124681	 0.2067409672	-0.53616
O	-0.012382997	-2.1250914068	 1.150437037	-0.243044
C	 0.6790697257	-0.9040394021	 1.0067794826	-0.019531
C	 1.3182779622	-0.6676898268	-0.3426078483	 0.034666
O	 1.3427761548	-1.6877644188	-1.2900391441	-0.418254
H	 0.7827883639	 1.9105856405	 0.5178153644	 0.119252
H	-0.3429985009	 1.937720013	-0.8433764068	 0.130074
H	-0.9538571863	 1.7395424498	 0.8077107344	 0.124167
H	-2.1592562258	-0.3426153427	-0.1508037688	 0.13037
H	-1.268257388	-1.0394547996	-1.5094355656	 0.151432
H	-1.5833482913	-3.9098863239	 0.8164528351	 0.221557
H	 1.1195123211	-0.557199964	 1.9343760754	 0.107168
H	 2.1784021087	 0.0026644335	-0.3599337442	 0.091236
H	 1.7627490043	-2.4606443455	-0.896807809	 0.298345
88.608	158.8959	200.3174	206.7982	259.6899	269.1116	293.2748	445.61	496.973	535.6126	566.6968	612.1359	700.9968	764.2268	841.224	856.2346	885.643	896.8693	957.1174	977.414	1017.1992	1042.6871	1065.8095	1113.1011	1137.0083	1169.9853	1201.2152	1238.3486	1251.5223	1302.7361	1318.3102	1329.2615	1363.7809	1419.9181	1444.0719	1471.0971	1491.2213	1500.8584	1783.1046	3026.9029	3064.3447	3090.4843	3094.3898	3101.9388	3115.5182	3180.6414	3476.489	3803.2391
CC12CC(=N)OC1C2O	C[C@]12C[C]([NH])O[C@H]1[C@H]2O	
InChI=1S/C6H9NO2/c1-6-2-3(7)9-5(6)4(6)8/h4-5,7-8H,2H2,1H3	InChI=1S/C6H9NO2/c1-6-2-3(7)9-5(6)4(6)8/h4-5,7-8H,2H2,1H3/t4-,5+,6-/m1/s1
