17
gdb 108032	3.98222	1.45477	1.33533	1.9989	69.31	-0.236	0.079	0.315	977.6201	0.136988	-421.760258	-421.753342	-421.752397	-421.791693	28.008	
O	 0.0334436317	 1.3138789282	-0.4000177575	-0.415651
C	-0.06341716	 0.0262189245	 0.1834447201	-0.171081
C	-1.4457804628	-0.5424202726	 0.0788372918	 0.422198
O	-2.4119581727	 0.2039486378	 0.781042883	-0.281852
C	-3.5777960869	-0.5169065521	 0.5012519384	 0.058313
C	-3.5431661415	-1.1444933126	-0.8782083584	-0.130102
C	-3.3043235238	-2.0020854777	 0.3639725837	-0.133446
C	-1.7921820233	-2.0197477883	 0.0614603694	-0.178485
C	-2.0324548105	-1.1579122338	-1.1782859197	-0.16261
H	-0.679262066	 1.8401490232	-0.0207898354	 0.292097
H	 0.6397475575	-0.618781349	-0.3523926121	 0.11324
H	 0.2387021134	 0.0427825938	 1.2423009047	 0.100164
H	-4.4762641523	-0.1171199862	 0.9509408495	 0.108828
H	-4.3575791572	-1.1389887669	-1.5885500415	 0.09424
H	-3.8962355572	-2.7910091541	 0.8057435519	 0.094682
H	-1.0944338489	-2.8262857021	 0.2399000594	 0.091532
H	-1.5485066795	-1.1544966021	-2.1446245174	 0.09793
88.9519	143.8873	277.7261	357.9232	400.5005	573.3057	605.6999	672.1501	712.1202	755.8489	767.3007	777.4227	810.8332	854.7526	862.7793	904.7664	919.0982	952.9377	984.209	992.6924	1014.3414	1032.1189	1048.5282	1055.4594	1075.8871	1106.8324	1151.617	1185.4963	1196.1297	1235.5983	1253.2374	1324.0334	1366.3133	1377.7246	1395.6898	1449.072	1494.3147	2985.5929	3083.3836	3203.4608	3211.8968	3214.1432	3219.238	3228.0499	3807.848
OCC12OC3C4C3C1C24	OC[C@]12O[C@H]3[C@@H]4[C@H]3[C@H]1[C@H]24	
InChI=1S/C7H8O2/c8-1-7-4-2-3(5(4)7)6(2)9-7/h2-6,8H,1H2	InChI=1S/C7H8O2/c8-1-7-4-2-3(5(4)7)6(2)9-7/h2-6,8H,1H2/t2-,3+,4-,5+,6+,7-
