19
gdb 13236	7.24507	0.82587	0.78309	4.2743	76.47	-0.3024	0.0388	0.3412	1439.0683	0.16621	-327.939055	-327.930689	-327.929745	-327.972689	30.211	
N	-0.1494417512	-1.1535708759	-0.1515732688	-0.306333
C	-0.107873311	-0.002348118	-0.0588047425	 0.2574
C	-0.0304997827	 1.4521852953	 0.0537795808	-0.339997
C	 1.3977058452	 1.9942525836	-0.1651707256	-0.212008
C	 1.4603546348	 3.5088675634	-0.0281857221	 0.055476
C	 1.2500296215	 4.1598434419	 1.3717493448	-0.222778
C	 2.3734545043	 5.1735988453	 1.0242930758	-0.210753
C	 2.8490964519	 4.2053556875	-0.091976121	-0.241018
H	-0.7189160535	 1.8939082814	-0.6765076195	 0.149998
H	-0.3967230927	 1.7431550193	 1.0451836999	 0.155009
H	 2.072438141	 1.5273467197	 0.5620350303	 0.115323
H	 1.7481712389	 1.6901600124	-1.158389272	 0.119168
H	 0.7818145036	 3.9726917106	-0.7552357824	 0.072291
H	 0.2603331261	 4.5554698466	 1.6131840513	 0.097672
H	 1.5574717489	 3.4795023276	 2.1736966702	 0.10106
H	 1.967265409	 6.1007954477	 0.6103792913	 0.105435
H	 3.0856397219	 5.4292525467	 1.8116148085	 0.101353
H	 3.641554575	 3.5385644773	 0.2639225627	 0.102668
H	 3.160121059	 4.6331585476	-1.0480191116	 0.100034
61.5536	97.6512	105.5121	160.3895	225.6352	362.3268	384.4705	414.5531	531.9127	642.4962	757.2244	778.768	785.4923	894.7359	924.0265	936.1504	944.6725	974.266	980.4061	1013.3163	1075.914	1118.1296	1142.1731	1200.277	1211.6451	1253.3602	1257.4767	1261.2417	1270.9061	1287.2681	1302.7938	1322.2052	1363.2958	1393.1996	1467.7772	1478.5467	1486.4386	1493.4476	1511.24	2361.5302	3022.6642	3031.5048	3042.2498	3042.5902	3050.268	3061.4266	3065.6971	3087.3062	3097.4758	3102.1913	3120.1035
N#CCCC1CCC1	N#CCCC1CCC1	
InChI=1S/C7H11N/c8-6-2-5-7-3-1-4-7/h7H,1-5H2	InChI=1S/C7H11N/c8-6-2-5-7-3-1-4-7/h7H,1-5H2
