20
gdb 16835	3.43451	1.74567	1.37645	1.4677	73.91	-0.2526	0.0764	0.329	968.3334	0.178359	-349.007255	-348.999443	-348.998499	-349.038938	30.904	
C	-0.0065617765	 1.57245164	 0.0025578756	-0.394958
C	 0.0477200768	 0.0433716886	 0.0125007205	 0.029285
C	 0.7747433038	-0.5734313838	-1.2040773054	-0.283326
C	 1.2863478052	-1.956483005	-0.7345831852	 0.126759
O	 2.4768989515	-2.3817079628	-1.3859461364	-0.438399
C	 1.5227809718	-1.7952888749	 0.7549149014	-0.037557
C	 2.2807883439	-0.5687787743	 1.1984144125	-0.285003
C	 0.7721603825	-0.5661044798	 1.2133384977	-0.035433
H	 1.0024643766	 1.998946717	 0.0134695946	 0.115259
H	-0.5206551356	 1.9469817965	-0.8893320627	 0.108874
H	-0.5397117098	 1.955591254	 0.8792776079	 0.110197
H	-0.9831281272	-0.3371035308	 0.028825001	 0.070302
H	 0.1311570513	-0.6394367818	-2.0868320906	 0.087819
H	 1.6420864337	 0.0347089631	-1.4846890654	 0.107009
H	 0.4946367485	-2.7103291361	-0.8764480844	 0.060858
H	 2.2709223591	-2.5222718316	-2.3155410573	 0.278487
H	 1.5795555193	-2.6911225506	 1.3625026007	 0.080614
H	 2.7823647746	-0.626814817	 2.157954207	 0.107464
H	 2.8172047265	 0.0153711112	 0.4588892491	 0.115879
H	 0.2715667639	-0.5452844019	 2.1759059997	 0.075871
117.5176	178.0018	235.4895	243.1207	280.2688	358.682	398.7485	474.0678	536.0904	582.3454	607.7247	765.0042	822.5046	842.4747	895.3605	931.0642	941.2751	965.7886	986.475	1042.3179	1047.1444	1062.253	1074.7402	1097.57	1112.3582	1140.479	1171.2045	1204.7644	1208.8366	1246.2704	1275.3036	1334.0272	1340.5193	1354.3691	1373.2974	1400.123	1409.4454	1433.0536	1486.4993	1495.336	1498.6145	1507.4463	2960.3548	3002.7676	3026.7433	3041.6529	3085.003	3094.061	3097.8762	3137.2805	3157.8016	3175.1722	3218.5925	3815.1322
CC1CC(O)C2CC12	C[C@H]1C[C@@H](O)[C@H]2C[C@@H]12	
InChI=1S/C7H12O/c1-4-2-7(8)6-3-5(4)6/h4-8H,2-3H2,1H3	InChI=1S/C7H12O/c1-4-2-7(8)6-3-5(4)6/h4-8H,2-3H2,1H3/t4-,5-,6-,7+/m0/s1
