17
gdb 22574	4.15988	1.05154	0.87709	2.56	73.77	-0.2544	-0.0049	0.2496	1272.6372	0.136636	-455.121806	-455.113557	-455.112613	-455.155034	31.04	
O	-0.0536417434	 1.3568798304	 0.1471176749	-0.399217
N	 0.0887402813	-0.0422597662	 0.1908317491	-0.190184
C	-1.0216953862	-0.6230155596	-0.0427847369	 0.348639
C	-1.0823606455	-2.122299022	-0.0842913221	-0.292469
C	-2.054323368	-2.5253094474	-1.2063408826	-0.300452
C	-3.4243188005	-1.9563676353	-0.9319248782	 0.399295
N	-4.4833176513	-2.609062091	-1.1606261306	-0.513655
O	-3.4615709577	-0.7177060357	-0.3495168803	-0.250526
C	-2.3004753722	 0.1147693696	-0.3624098227	-0.161048
H	 0.8364006417	 1.6606197235	 0.3536309763	 0.31198
H	-0.0822472616	-2.5326663568	-0.235963736	 0.130155
H	-1.457782314	-2.5102706725	 0.8717404898	 0.132456
H	-1.6825674815	-2.1456742078	-2.1670808241	 0.129382
H	-2.1558014205	-3.6064433989	-1.3019305402	 0.142812
H	-5.3011595158	-2.0515995506	-0.9040663806	 0.219525
H	-2.4822890306	 0.8986345611	 0.3763885929	 0.154081
H	-2.2024809944	 0.6139701394	-1.3369065286	 0.139224
54.8237	138.5787	181.8119	220.7125	318.019	370.5444	394.4395	420.0052	484.9198	529.1053	579.7175	621.1086	691.4743	769.6042	798.3851	907.2787	928.3611	954.7806	988.481	995.3703	1051.9356	1062.4287	1144.9084	1174.8417	1205.5392	1256.6481	1271.034	1314.514	1337.4492	1347.8024	1394.6103	1417.6441	1475.0844	1479.3008	1485.231	1742.6929	1757.8203	3010.9492	3023.505	3036.5585	3104.2463	3114.3766	3134.161	3461.1607	3824.4031
ON=C1CCC(=N)OC1	ON=C1CC[C]([NH])OC1	
InChI=1S/C5H8N2O2/c6-5-2-1-4(7-8)3-9-5/h6,8H,1-3H2	InChI=1S/C5H8N2O2/c6-5-2-1-4(7-8)3-9-5/h6,8H,1-3H2
