17
gdb 30375	2.68458	1.62508	1.02512	2.571	80.94	-0.2213	-0.051	0.1702	1137.9658	0.137827	-414.226485	-414.218032	-414.217088	-414.260034	30.178	
C	 0.0045393425	 1.4151116694	 0.1142675142	-0.329322
N	 0.0667940962	-0.0321215634	 0.0377261294	-0.357685
C	 0.5657791789	-0.5768286089	-0.9975456824	 0.455045
N	 1.0858198658	 0.0506161812	-2.1221592473	-0.303364
C	 1.5522642522	-0.6844700651	-3.079750317	 0.071964
N	 1.6074395868	-2.055656338	-3.142760697	-0.312388
C	 1.1183242018	-2.6398364584	-2.0861863632	 0.123042
N	 0.6023374162	-2.006159685	-1.0206479306	-0.096652
C	 0.0722928523	-2.7288853193	 0.1271236901	-0.327029
H	 0.5505049835	 1.7522930411	 1.0037862566	 0.117333
H	 0.4111777021	 1.9245562619	-0.7653683528	 0.132556
H	-1.0388576568	 1.7237948372	 0.2523448453	 0.11733
H	 1.9547462603	-0.1699489239	-3.9512440625	 0.123709
H	 1.1127967102	-3.7271231866	-2.033125008	 0.136094
H	 0.1757907205	-3.8011536307	-0.0505838578	 0.127467
H	 0.6146165288	-2.4385079273	 1.029430186	 0.160967
H	-0.9775026014	-2.4674060643	 0.2759559468	 0.160936
64.964	105.303	170.2032	186.7256	231.1068	280.9669	350.0767	389.2389	520.6092	539.9834	553.1673	648.6422	774.2819	789.4443	885.7706	976.624	1032.5443	1044.8369	1087.8171	1094.7536	1135.9059	1156.081	1163.3491	1198.949	1237.8417	1390.0157	1424.8439	1434.5599	1437.9603	1455.4533	1458.6119	1492.3649	1498.4052	1517.4556	1554.6587	1670.1277	1739.041	3013.7842	3056.2945	3063.6679	3094.2785	3131.4694	3144.9601	3146.8908	3154.8385
CN=C1N=CN=CN1C	C[N]C1=NC=NCN1C	
InChI=1S/C5H8N4/c1-6-5-8-3-7-4-9(5)2/h3-4H,1-2H3	InChI=1S/C5H9N4/c1-6-5-8-3-7-4-9(5)2/h3H,4H2,1-2H3
