18
gdb 120123	3.42626	0.98448	0.91944	2.4603	73.87	-0.246	-0.0259	0.2201	1332.193	0.146341	-439.034023	-439.025317	-439.024373	-439.068407	31.479	
C	 1.1884731441	 1.4125925819	 0.1461205448	-0.228682
O	 1.2520359084	 0.0059573026	 0.0707292446	-0.23048
C	 0.7796215072	-0.4981163079	-1.1579081764	-0.102397
C	 0.768370945	-2.0070131703	-1.0681665907	-0.007379
C	 1.0090367146	-2.9135611851	-2.2337580668	-0.19312
N	 1.9528466687	-2.8616507466	-1.0201572953	-0.122844
C	 3.0119991417	-2.2101538412	-1.8696103691	-0.292286
C	 2.1050648068	-2.3650447091	-3.1061925664	 0.401459
O	 2.2768653028	-2.3069101836	-4.28906915	-0.304187
H	 1.7971129968	 1.8915470053	-0.6368177965	 0.108704
H	 0.1546207524	 1.7789700475	 0.0490493352	 0.108644
H	 1.577767761	 1.7032547565	 1.124260063	 0.134371
H	-0.2517130632	-0.1581844555	-1.3534463537	 0.100211
H	 1.3929540033	-0.1292315643	-1.9932479924	 0.103049
H	 0.0128296376	-2.3778590141	-0.3781725475	 0.117685
H	 0.3632710886	-3.7546613082	-2.4608145728	 0.122346
H	 3.3251020434	-1.2183491716	-1.5376429304	 0.140889
H	 3.8847344407	-2.8643483162	-1.9461699195	 0.144016
51.4566	86.9611	103.5897	187.122	226.7978	317.5211	381.9021	404.2697	451.67	548.6519	594.5295	664.1682	715.4392	800.9444	888.2387	944.1682	966.8388	985.831	1002.3717	1025.5811	1057.9799	1108.7074	1119.1117	1154.1304	1170.6117	1188.2483	1226.1763	1237.8336	1249.7433	1270.23	1308.1627	1383.6424	1448.2522	1467.3441	1482.5038	1486.5444	1504.7152	1527.521	1890.1499	2963.2461	2975.9505	3006.2701	3020.1597	3071.2435	3121.9886	3129.8198	3134.1174	3183.7092
COCC1C2N1CC2=O	COC[C@H]1[C@@H]2N1CC2=O	
InChI=1S/C6H9NO2/c1-9-3-4-6-5(8)2-7(4)6/h4,6H,2-3H2,1H3	InChI=1S/C6H9NO2/c1-9-3-4-6-5(8)2-7(4)6/h4,6H,2-3H2,1H3/t4-,6-,7?/m0/s1
