18
gdb 41834	2.42097	2.2313	1.92281	1.2208	74.76	-0.2158	-0.0025	0.2133	843.0754	0.152093	-401.93036	-401.924104	-401.92316	-401.960537	26.669	
C	 0.0258307923	 1.5127115289	 0.1138109631	-0.094225
O	 1.328215207	 2.0688684628	-0.0073302808	-0.267376
C	 2.1516761035	 1.3855370321	-0.9636417975	 0.029403
C	 2.4147055837	-0.0197758063	-0.4046586114	-0.154786
N	 1.1756754717	-0.7912373917	-0.2829808893	-0.121068
C	-0.0324699184	-0.0057283678	-0.0525136474	-0.051761
C	 0.2274674292	-0.6089229724	-1.4106507579	-0.075113
C	 0.6006707882	 0.3030706262	-2.5132871163	-0.036522
C	 1.5074281336	 1.2676773621	-2.3244240649	-0.119158
H	-0.3247977836	 1.7851462944	 1.1138194077	 0.112446
H	-0.6537961374	 1.9806734773	-0.6160559148	 0.099544
H	 3.0736689635	 1.9710313664	-1.0046366727	 0.082993
H	 3.1066482135	-0.5775960001	-1.0441409648	 0.10613
H	 2.8539554744	 0.0691243421	 0.5935868298	 0.113853
H	-0.7661659903	-0.5015271397	 0.5804299007	 0.095104
H	-0.3104405855	-1.5126355744	-1.6834725508	 0.089064
H	 0.1123873991	 0.1579291896	-3.4723038503	 0.096045
H	 1.7903461758	 1.9520959602	-3.1163768125	 0.095428
197.8854	303.3102	359.0637	415.8052	421.8444	522.8579	596.4776	647.9314	698.0237	719.7102	764.1463	810.4204	842.1008	867.2193	904.6883	947.6637	978.1691	993.0753	1009.7639	1029.9394	1071.5142	1082.9002	1110.8769	1123.3081	1147.8632	1176.6816	1256.1116	1270.8063	1300.7053	1317.1151	1350.3774	1356.0682	1371.0457	1394.3028	1417.7373	1421.6851	1479.4107	1502.6092	1686.7566	2975.1647	3045.6796	3071.8753	3079.7861	3095.4075	3118.0328	3143.049	3169.5344	3194.4404
C1OC2CN3C1C3C=C2	C1O[C@H]2CN3[C@@H]1[C@H]3C=C2	
InChI=1S/C7H9NO/c1-2-6-7-4-9-5(1)3-8(6)7/h1-2,5-7H,3-4H2	InChI=1S/C7H9NO/c1-2-6-7-4-9-5(1)3-8(6)7/h1-2,5-7H,3-4H2/t5-,6-,7+,8?/m1/s1
