21
gdb 93846	2.19347	1.57614	1.17233	2.7031	73.46	-0.2524	0.064	0.3164	1132.3834	0.180958	-461.368931	-461.358891	-461.357947	-461.403181	38.094	
C	 0.310941841	 1.5953704625	 0.0613870212	-0.431199
C	 0.0304978977	 0.0896981962	 0.0078546566	 0.354197
O	-1.3707127512	-0.151133831	 0.030320895	-0.494281
C	 0.6941917599	-0.5987950896	-1.2012955465	 0.093311
O	 0.4437448484	 0.1539030745	-2.3774568162	-0.450191
C	 2.1739238978	-0.7547172804	-0.8082337679	-0.258882
C	 2.1513568062	-0.9016316797	 0.7392367785	-0.255938
C	 0.6793010094	-0.6709976689	 1.1764901491	 0.115969
O	 0.5449424327	 0.0564654204	 2.3837601996	-0.438308
H	 1.3813861898	 1.8160501108	 0.10649156	 0.111136
H	-0.0906244563	 2.0796839378	-0.8326019332	 0.117754
H	-0.1629657327	 2.0141646789	 0.9499404661	 0.13768
H	-1.7352934987	 0.2669353373	-0.7580695698	 0.278176
H	 0.2244540476	-1.5911223603	-1.2858075568	 0.069107
H	 0.7262639058	-0.3649594617	-3.1361630602	 0.285392
H	 2.6478027376	-1.6033948628	-1.3103267215	 0.090584
H	 2.7159999672	 0.1454113561	-1.112733676	 0.111316
H	 2.5177886698	-1.8772570159	 1.0710997028	 0.09457
H	 2.7758463903	-0.1424022706	 1.2181389218	 0.111393
H	 0.1496810561	-1.6315533054	 1.2545328883	 0.075173
H	 0.8016861217	-0.5189100484	 3.1099352994	 0.28304
81.1475	117.4786	193.4745	218.1368	237.6012	250.6687	264.1702	279.9098	326.4692	346.2909	405.6393	462.159	500.8299	563.5088	582.7527	603.8048	721.3041	829.2647	857.7463	950.5099	973.985	1006.6194	1014.5169	1059.5849	1070.0861	1076.0933	1138.7241	1145.4774	1178.8364	1218.1264	1223.5269	1246.6093	1265.8364	1304.4409	1315.3071	1333.2317	1358.4621	1383.7883	1398.9744	1434.2322	1452.8608	1484.7617	1494.2136	1500.9269	1510.864	2976.3408	2996.143	3047.4655	3051.5018	3058.5219	3085.0326	3105.7042	3117.9518	3148.6371	3798.9137	3829.8291	3832.5079
CC1(O)C(O)CCC1O	C[C@@]1(O)[C@@H](O)CC[C@H]1O	
InChI=1S/C6H12O3/c1-6(9)4(7)2-3-5(6)8/h4-5,7-9H,2-3H2,1H3	InChI=1S/C6H12O3/c1-6(9)4(7)2-3-5(6)8/h4-5,7-9H,2-3H2,1H3/t4-,5+,6+
