19
gdb 50102	3.34149	0.94238	0.82322	4.5904	78.55	-0.2412	0.0089	0.2501	1426.0448	0.158754	-419.161437	-419.152547	-419.151603	-419.196136	32.026	
O	-0.1024174162	 0.5408227328	-0.3649062649	-0.295088
C	 0.1061135805	 1.6864400369	-0.0450174171	 0.132832
N	 1.2961789005	 2.1460456343	 0.4966847621	-0.05594
C	 2.6089630495	 1.7423732703	 0.0566157006	-0.252638
C	 2.1575997052	 3.1734941735	-0.0564398024	-0.003798
C	 1.8559332708	 3.7688969907	-1.4125120342	-0.17606
N	 0.7590455998	 4.7277421114	-1.323188584	-0.062581
C	 1.1270932778	 6.1097977573	-1.0223315922	-0.221312
C	 0.6807541262	 5.7213971212	-2.3880880551	-0.218841
H	-0.6533744956	 2.4864768533	-0.0887072867	 0.104398
H	 3.3114814684	 1.4575909554	 0.8346846966	 0.128239
H	 2.6610553735	 1.1499850794	-0.853996202	 0.135551
H	 2.5302617516	 3.8846951368	 0.6797825194	 0.102461
H	 2.7799067583	 4.2254368241	-1.8141298984	 0.090916
H	 1.5564365762	 2.9737527175	-2.1058894767	 0.118601
H	 0.4594909486	 6.641926883	-0.3515386887	 0.124552
H	 2.1837580354	 6.3405661924	-0.893572243	 0.111045
H	 1.4391838766	 5.6926907329	-3.1689191787	 0.112961
H	-0.319794157	 5.963659327	-2.7332928145	 0.124701
56.8757	72.5108	111.8272	158.718	215.4081	285.8461	321.2898	393.3345	433.3903	519.5159	628.9296	766.9534	804.9031	834.834	885.8013	905.2021	941.9587	1004.7213	1028.4421	1032.9118	1041.5545	1093.097	1108.2662	1113.6629	1121.8199	1136.8845	1145.845	1166.6017	1179.9924	1198.427	1282.9119	1320.6086	1354.9489	1381.5736	1414.0898	1442.0897	1479.1735	1494.1618	1513.7912	1522.7676	1794.3504	2929.8511	2990.5245	3053.1328	3095.425	3101.6172	3109.6241	3117.7905	3182.6555	3196.5392	3197.8908
O=CN1CC1CN1CC1	O=CN1C[C@H]1CN1CC1	
InChI=1S/C6H10N2O/c9-5-8-4-6(8)3-7-1-2-7/h5-6H,1-4H2	InChI=1S/C6H10N2O/c9-5-8-4-6(8)3-7-1-2-7/h5-6H,1-4H2/t6-,8?/m1/s1
