25
gdb 59232	2.29968	1.38434	1.0198	0.249	91.96	-0.249	0.0818	0.3307	1314.2277	0.228306	-352.336941	-352.326965	-352.326021	-352.371377	38.642	
C	 0.3592539982	 1.6349788001	 0.1366889646	-0.387942
C	 0.1658676572	 0.1115159674	 0.1535402557	 0.027799
C	-1.3246805974	-0.2390566829	 0.2737969691	-0.395884
C	 0.7897612159	-0.5207789526	-1.0972330179	 0.016708
C	 2.2584073121	-0.2148780257	-1.4299645164	-0.069581
C	 3.1934779691	-0.849649311	-0.4373173136	-0.282968
C	 2.5818650996	-1.7050416877	-1.5115746892	-0.057829
C	 1.1284617204	-2.0721226365	-1.1755532194	-0.011657
C	 0.8901675154	-3.0085684975	 0.0059419004	-0.409733
H	 1.4195389216	 1.9028121081	 0.103714009	 0.118465
H	-0.1264944937	 2.0804753451	-0.7403697979	 0.10688
H	-0.0785415243	 2.0981963212	 1.027255287	 0.1054
H	 0.6793825077	-0.2798851477	 1.041612175	 0.065735
H	-1.8861935459	 0.1642289399	-0.5779059301	 0.108848
H	-1.4924391639	-1.3195166624	 0.2985391335	 0.114841
H	-1.7575748443	 0.1864556246	 1.1854634402	 0.107495
H	 0.1590543417	-0.2595054501	-1.9556575969	 0.062934
H	 2.5911523766	 0.5810781163	-2.0857792087	 0.080125
H	 4.2432039725	-0.6143206665	-0.5823399922	 0.107084
H	 2.914471313	-0.967612466	 0.6059974498	 0.10382
H	 3.1978995312	-2.2228255847	-2.2377182338	 0.078568
H	 0.6367839515	-2.492229313	-2.0584901278	 0.070401
H	 1.3297099863	-2.6301369425	 0.9336664616	 0.114189
H	-0.1766199443	-3.1753279068	 0.1866591835	 0.114684
H	 1.3448772437	-3.9855421494	-0.1946396757	 0.111618
67.6573	121.998	163.3959	208.3424	218.2673	234.6216	249.2073	280.3575	318.5822	409.1213	440.4019	505.3466	543.3257	665.9644	759.6642	786.1568	801.959	871.563	910.0286	928.0716	930.5599	946.8712	966.3825	994.4099	1015.7951	1039.4578	1056.4703	1069.2061	1080.7098	1092.6014	1121.1864	1141.3792	1180.7426	1184.6071	1196.8916	1236.4442	1275.8043	1300.6539	1309.553	1342.5098	1366.4398	1368.4128	1391.9917	1397.6265	1411.1089	1420.5935	1484.4568	1487.7724	1490.9845	1495.9717	1500.3547	1504.8245	1511.144	3011.6347	3022.0157	3023.2892	3030.0486	3030.6676	3051.782	3084.7447	3090.2358	3092.3976	3102.8639	3104.6415	3109.5534	3118.017	3167.6567	3177.2803	3200.0369
CC(C)C1C2CC2C1C	CC(C)[C@H]1[C@H]2C[C@H]2[C@H]1C	
InChI=1S/C9H16/c1-5(2)9-6(3)7-4-8(7)9/h5-9H,4H2,1-3H3	InChI=1S/C9H16/c1-5(2)9-6(3)7-4-8(7)9/h5-9H,4H2,1-3H3/t6-,7+,8+,9-/m1/s1
