17
gdb 36719	4.95124	0.82068	0.77681	1.3746	77.3	-0.256	0.0018	0.2577	1471.7451	0.134214	-421.780643	-421.771933	-421.770989	-421.815157	31.473	
C	 0.1139939883	-1.1300704071	 0.1875596942	-0.422381
C	 0.09058941	 0.0690385709	 0.1276811121	 0.286871
C	 0.0286332478	 1.5219562802	 0.0604256026	-0.216812
O	 1.3440404605	 2.0555644616	-0.0394411158	-0.255017
C	 1.3570431109	 3.4556364389	-0.1965469584	 0.196688
O	 0.8814366382	 4.1364395511	 0.9527618533	-0.267947
C	 1.9709797219	 4.7430484516	 1.6456643775	-0.121722
C	 3.1406281219	 4.610671747	 0.7132165912	-0.08546
C	 2.7858350821	 3.9010285783	-0.3504096929	-0.105854
H	 0.1401461801	-2.1902946659	 0.2407732473	 0.198813
H	-0.5723811535	 1.8299800567	-0.8119353774	 0.116899
H	-0.4732671995	 1.9203163054	 0.9528729078	 0.139758
H	 0.6904210211	 3.7251768421	-1.0327454525	 0.07251
H	 1.7091350816	 5.7879141716	 1.8598305323	 0.116106
H	 2.1533356401	 4.2431860803	 2.6092493813	 0.116784
H	 4.115613667	 5.031091522	 0.9236590761	 0.113807
H	 3.3984275816	 3.6062827251	-1.1907484786	 0.116957
39.9161	96.4088	104.793	159.5136	242.7568	326.6757	338.059	438.4273	483.3046	606.0729	617.213	672.1039	725.1852	786.4136	823.2463	928.4654	938.0842	958.0977	967.5478	1017.4928	1028.417	1037.5245	1043.4335	1075.8859	1113.8657	1131.0782	1201.4865	1247.8938	1310.5146	1367.4824	1367.6766	1389.0681	1431.7576	1501.835	1510.6555	1691.303	2247.8375	2962.2154	2966.8372	2991.6433	3025.4922	3030.157	3216.2904	3246.0414	3506.9788
C#CCOC1OCC=C1	C#CCO[C@H]1OCC=C1	
InChI=1S/C7H8O2/c1-2-5-8-7-4-3-6-9-7/h1,3-4,7H,5-6H2	InChI=1S/C7H8O2/c1-2-5-8-7-4-3-6-9-7/h1,3-4,7H,5-6H2/t7-/m0/s1
