15
gdb 85027	2.37699	1.66363	1.05548	2.4736	62.02	-0.265	-0.0542	0.2108	1086.5368	0.110635	-494.951247	-494.942758	-494.941814	-494.984668	30.608	
C	-0.2242565318	 1.5378468113	-0.0783746611	-0.394814
C	 0.1172240185	 0.0640200289	 0.0295239398	 0.001396
O	 0.8914925558	-0.3655387642	-1.1242476001	-0.22293
C	 1.9929629353	-1.0579591038	-0.7585590725	 0.393431
O	 2.8806405073	-1.3555706441	-1.5052288347	-0.340133
C	 1.9410247126	-1.3766303312	 0.7303485973	-0.089646
O	 3.1848052911	-1.4701987853	 1.3385619937	-0.415853
C	 1.0068756307	-0.2843869513	 1.2376746239	 0.3473
O	 0.9620403911	 0.2304011769	 2.3172525847	-0.281155
H	 0.6850268003	 2.1388928388	-0.1602689266	 0.141633
H	-0.8519091907	 1.7242671477	-0.9524407764	 0.139971
H	-0.7617282601	 1.8451426234	 0.8221010592	 0.151681
H	-0.7949243296	-0.545902932	 0.0644523141	 0.130187
H	 1.3560941207	-2.316289355	 0.817112826	 0.132887
H	 3.8153844288	-1.6771150002	 0.6336500027	 0.306045
67.916	123.8241	192.195	210.4546	240.5578	281.6341	348.2002	378.7976	452.0111	525.9736	586.785	616.4554	656.3838	692.6907	871.8811	893.7113	935.0133	1004.8413	1052.3591	1092.0321	1156.416	1162.5358	1187.299	1242.7883	1318.3099	1354.7949	1364.6476	1402.0592	1406.6888	1481.2213	1494.0069	1861.5882	1900.7207	2899.0339	3030.3919	3056.3056	3135.9301	3141.4057	3743.4545
CC1OC(=O)C(O)C1=O	C[C@H]1OC(=O)[C@@H](O)C1=O	
InChI=1S/C5H6O4/c1-2-3(6)4(7)5(8)9-2/h2,4,7H,1H3	InChI=1S/C5H6O4/c1-2-3(6)4(7)5(8)9-2/h2,4,7H,1H3/t2-,4+/m1/s1
