16
gdb 71570	3.03654	1.68229	1.50017	3.431	67.9	-0.2241	-0.0108	0.2134	908.3568	0.125573	-437.838876	-437.831988	-437.831043	-437.869837	28.044	
O	-0.103812919	 1.419341555	-0.1035082606	-0.475494
C	-0.0045102998	 0.0394475181	-0.0970120703	 0.401176
C	 0.4747218468	-0.8196342088	-1.2847785694	-0.322536
C	-0.3023014113	-1.9614464948	-0.5331578333	-0.181318
C	-1.2515317456	-0.8546066828	 0.0843936481	-0.040735
N	-1.1173638418	-0.9500659472	 1.5653842744	-0.339314
C	 0.3513326272	-0.7217484237	 1.2729716571	-0.234501
C	 0.6356544692	-2.0987714304	 0.6659885988	 0.508625
O	 1.393961922	-2.968185748	 0.9860166975	-0.34071
H	 0.7812134878	 1.7975543379	-0.0499305455	 0.288313
H	-0.031841142	-0.51868725	-2.2056877576	 0.117774
H	 1.5425086309	-0.9692256126	-1.4686256126	 0.112856
H	-0.6600398275	-2.8509218487	-1.0422145551	 0.098237
H	-2.2258815599	-0.6850422521	-0.3711245889	 0.090464
H	-1.492998594	-0.0872136142	 1.9588528185	 0.230752
H	 0.996291577	-0.3296708578	 2.0567098389	 0.08641
148.4563	241.2663	276.2175	317.3761	408.9429	451.3552	489.0495	538.5484	656.9108	685.6332	757.2504	783.3079	795.67	843.1913	904.7584	915.3955	932.267	951.8765	1011.2765	1029.9147	1049.5783	1098.304	1111.5991	1131.5698	1147.6166	1161.9506	1184.6247	1221.9953	1245.046	1297.0926	1315.5749	1342.7647	1393.7818	1497.8027	1894.2395	3053.8179	3115.9662	3134.5973	3148.8107	3175.0626	3462.9672	3796.7271
OC12CC3C1NC2C3=O	O[C@]12C[C@@H]3[C@H]1N[C@H]2C3=O	
InChI=1S/C6H7NO2/c8-3-2-1-6(9)4(2)7-5(3)6/h2,4-5,7,9H,1H2	InChI=1S/C6H7NO2/c8-3-2-1-6(9)4(2)7-5(3)6/h2,4-5,7,9H,1H2/t2-,4+,5-,6+/m0/s1
