25
gdb 122952	4.22811	0.58814	0.53958	2.2315	87.14	-0.2603	0.0729	0.3332	2135.6081	0.226482	-426.624398	-426.612678	-426.611734	-426.662784	41.306	
C	-0.0329379284	 1.5142337898	-0.0275089677	-0.391135
C	 0.0063509483	-0.0130130858	 0.0851857034	-0.169369
C	 0.7422072164	-0.542924749	 1.3296966267	 0.020444
C	 0.0529315954	-0.148177031	 2.6422410331	-0.38984
C	 0.8946858729	-2.0609530225	 1.2241190864	-0.051135
O	 1.6909246608	-2.5389065714	 2.2915635501	-0.2666
C	 1.9032489159	-3.9375349574	 2.2604910533	-0.068287
C	 2.6571715089	-4.3016562675	 3.5293397804	-0.060011
O	 1.9153333352	-3.9703713076	 4.6863107838	-0.422214
H	 0.9780568527	 1.9367337097	-0.0167265778	 0.115002
H	-0.5117666014	 1.8231284846	-0.9618567315	 0.113267
H	-0.5928284887	 1.9714991332	 0.7936186766	 0.120486
H	-1.0198395923	-0.4061932451	 0.0800511918	 0.094461
H	 0.4917090331	-0.4205171866	-0.8113307414	 0.092637
H	 1.7578980317	-0.1224195157	 1.3319702095	 0.0797
H	 0.5845787045	-0.5707155322	 3.4979173487	 0.121342
H	 0.0201264055	 0.9369767704	 2.7715437021	 0.114971
H	-0.9786971684	-0.5206562417	 2.6680554018	 0.109225
H	-0.0967178782	-2.5471487264	 1.2453580272	 0.085066
H	 1.3650971034	-2.326135054	 0.26263169	 0.08359
H	 0.9389506235	-4.4703246338	 2.2317145204	 0.094166
H	 2.4809504779	-4.2271189016	 1.3667323125	 0.085332
H	 2.8350719662	-5.3817841755	 3.5561013686	 0.106784
H	 3.6369447278	-3.7975734209	 3.5200177967	 0.092251
H	 1.6287791871	-3.0585227919	 4.5593959452	 0.289867
32.0894	54.533	78.3589	107.5729	134.3343	167.5712	213.7354	248.1491	260.9556	305.0754	308.389	381.1486	417.5409	436.8427	505.139	557.3001	776.8477	826.1397	875.643	904.0933	929.286	929.5401	978.6722	1022.0303	1039.7592	1062.0626	1084.8756	1134.2654	1153.0244	1163.6464	1177.4887	1193.9469	1238.4782	1260.3107	1271.5011	1298.113	1314.1803	1376.9397	1382.1545	1385.2603	1387.9974	1407.4068	1414.7283	1434.3294	1447.0099	1483.5179	1494.308	1498.7213	1499.2129	1501.8306	1507.3395	1511.5571	1526.814	2944.849	2964.1051	2976.6307	2978.2355	3004.4946	3006.1922	3012.9086	3032.0955	3035.0149	3044.2697	3078.4582	3099.9636	3101.7541	3109.8096	3125.1878	3798.3285
CCC(C)COCCO	CC[C@@H](C)COCCO	
InChI=1S/C7H16O2/c1-3-7(2)6-9-5-4-8/h7-8H,3-6H2,1-2H3	InChI=1S/C7H16O2/c1-3-7(2)6-9-5-4-8/h7-8H,3-6H2,1-2H3/t7-/m1/s1
