22
gdb 70252	2.93657	1.30938	1.20531	1.5148	81.62	-0.2178	0.0649	0.2827	1172.2668	0.193689	-404.343706	-404.334638	-404.333694	-404.376474	36.417	
C	-0.500634509	 1.4625858884	 0.2573075797	-0.475966
C	-0.0612638697	 0.0408805734	 0.007573892	 0.337151
C	-0.8238955214	-1.1099837875	 0.562081975	-0.294977
N	 0.475851029	-0.7303784333	 1.1541829533	-0.140388
C	 1.6092474142	-1.5185678352	 0.6536150828	-0.19257
C	 1.6023015962	-1.5103609861	-0.9026409319	 0.338301
C	 3.0063289271	-1.5166898287	-1.5090742203	-0.44127
O	 0.8519057763	-2.6172056945	-1.4298685586	-0.45956
C	 0.7866038315	-0.241181575	-1.228999972	-0.286393
H	 0.3573328171	 2.1449936511	 0.2622775898	 0.112724
H	-1.192561408	 1.8002011389	-0.5228898798	 0.115134
H	-1.0059920509	 1.5469950488	 1.2227226135	 0.125681
H	-1.6744473733	-0.9165741631	 1.21116145	 0.10231
H	-0.8809912166	-2.0205703436	-0.0244933703	 0.132448
H	 2.5275498304	-1.0498199651	 1.026871762	 0.099567
H	 1.5770093271	-2.5412441749	 1.04788074	 0.091671
H	 3.5535780675	-2.4199774236	-1.2119743084	 0.10563
H	 2.9474102945	-1.5030207091	-2.6011974894	 0.126025
H	 3.5895999988	-0.6521316376	-1.1779101232	 0.11746
H	 1.3036891285	-3.4272668826	-1.1691501251	 0.274548
H	 0.1955796468	-0.3943752546	-2.1359532066	 0.117242
H	 1.4595556741	 0.6050798138	-1.4074234924	 0.095234
136.719	181.4285	208.396	233.6933	286.9996	308.2106	318.6947	371.0239	388.9262	414.1637	441.5108	461.4948	569.4187	635.7945	722.5135	778.0774	813.9788	882.618	888.6147	919.6708	934.6755	972.4863	985.7935	995.4268	1049.7549	1087.288	1120.9752	1125.4774	1128.0047	1174.255	1194.0125	1218.5098	1265.7483	1282.771	1332.4144	1337.8183	1366.0149	1399.9587	1408.5427	1420.0277	1474.2098	1483.6754	1488.5796	1492.7218	1494.0047	1495.6961	1508.8057	3022.1851	3026.6193	3027.3781	3044.5365	3066.3479	3085.9668	3091.7197	3098.9736	3108.8889	3117.3232	3118.0656	3210.0793	3801.9751
CC12CN1CC(C)(O)C2	C[C@]12CN1C[C@@](C)(O)C2	
InChI=1S/C7H13NO/c1-6-3-7(2,9)5-8(6)4-6/h9H,3-5H2,1-2H3	InChI=1S/C7H13NO/c1-6-3-7(2,9)5-8(6)4-6/h9H,3-5H2,1-2H3/t6-,7-,8?/m0/s1
