14
gdb 24081	7.45345	0.8109	0.73467	4.0091	68.88	-0.2218	0.0023	0.2241	1425.6261	0.102397	-432.903648	-432.895757	-432.894813	-432.937298	27.918	
N	 0.0371566863	-1.1115012653	-0.0057823285	-0.289104
C	 0.0404700596	 0.0427157016	 0.0016518853	 0.273479
C	-0.0050172959	 1.504240255	 0.011838244	-0.204127
O	 1.3366897792	 1.9863027892	-0.0004309491	-0.26867
C	 1.4189992287	 3.3298908247	 0.0068687713	 0.508769
N	 0.4351364531	 4.1860394936	 0.0236861478	-0.3566
C	 1.0586459817	 5.4261341178	 0.0240666306	-0.09589
C	 2.4143228777	 5.2875680898	 0.0072590641	-0.100644
N	 2.6420452352	 3.9158674004	-0.0038589011	-0.342749
H	-0.5542259329	 1.8725045818	-0.8619699583	 0.173538
H	-0.5339012696	 1.8608300503	 0.9028607183	 0.173531
H	 0.4817729267	 6.3373067021	 0.0364662665	 0.116124
H	 3.2246354463	 5.9961502715	 0.0021003568	 0.136398
H	 3.5271424639	 3.4385360074	-0.0170942077	 0.275946
37.3952	101.3289	118.5062	242.0079	305.0488	382.074	436.9884	482.5343	541.7791	635.6352	691.6432	739.5397	778.9138	844.1756	924.208	960.5752	1009.1418	1017.8283	1080.9494	1084.9386	1138.2627	1193.5332	1245.9394	1291.6233	1372.9234	1390.4164	1485.7337	1520.2876	1548.8705	1612.2774	2377.2837	3046.3082	3083.0381	3259.4415	3290.7	3675.1638
N#CCOC1=NC=CN1	N#CCOc1ncc[nH]1	
InChI=1S/C5H5N3O/c6-1-4-9-5-7-2-3-8-5/h2-3H,4H2,(H,7,8)	InChI=1S/C5H5N3O/c6-1-4-9-5-7-2-3-8-5/h2-3H,4H2,(H,7,8)
