16
gdb 24610	4.75202	1.08127	0.96258	1.2635	69.62	-0.2409	0.0031	0.244	1200.4333	0.126215	-437.891536	-437.884162	-437.883218	-437.924644	26.68	
C	-0.2384503761	 0.9921976617	 0.279930178	-0.061857
C	 1.0261977128	 1.2494168496	-0.561850437	-0.283301
C	 1.7455055294	 0.4228480117	 0.5386286377	 0.029547
O	 0.4915847869	 0.1556712415	 1.2066296505	-0.289436
C	 2.4335945311	-0.8335519424	 0.1398367271	 0.236722
C	 1.9882207947	-2.1095601013	 0.2306543997	-0.104644
O	 2.9665110711	-2.933460621	-0.2593795148	-0.139543
C	 3.9574038515	-2.0921303509	-0.6250731136	 0.071815
N	 3.7121610315	-0.8408679218	-0.4151052424	-0.314539
H	-0.6566298862	 1.8756978872	 0.7774801091	 0.105514
H	-1.0505136367	 0.4436055667	-0.210367106	 0.107703
H	 1.0306970507	 0.7786391038	-1.5452654092	 0.119084
H	 1.3430071285	 2.2885085908	-0.6527859061	 0.116912
H	 2.4150295454	 1.0286390055	 1.164082067	 0.094317
H	 1.0921551097	-2.5740046734	 0.5992992319	 0.160637
H	 4.8432570857	-2.5392941974	-1.0482803219	 0.15107
52.6649	83.5434	145.1837	199.9299	370.194	436.2189	637.1557	654.9538	718.5999	782.2331	798.1646	837.1727	849.1202	925.6112	936.2675	953.6333	1002.7752	1035.4897	1052.9898	1090.6351	1094.99	1134.8518	1167.4304	1214.2576	1231.8853	1246.9471	1255.0178	1271.2831	1337.7116	1356.3878	1393.054	1489.5418	1531.8811	1554.7335	1631.2846	3011.1546	3022.5849	3063.769	3090.774	3148.8126	3275.1666	3316.0978
C1CC(O1)C1=COC=N1	C1C[C@@H](O1)c1cocn1	
InChI=1S/C6H7NO2/c1-2-9-6(1)5-3-8-4-7-5/h3-4,6H,1-2H2	InChI=1S/C6H7NO2/c1-2-9-6(1)5-3-8-4-7-5/h3-4,6H,1-2H2/t6-/m1/s1
