15
gdb 30990	3.2553	1.24127	0.92174	4.0571	66.11	-0.1971	0.027	0.2241	1197.7284	0.112858	-491.089333	-491.080937	-491.079993	-491.122511	31.034	
N	-0.0013508223	 1.2823746978	-0.3106376946	-0.599015
C	-0.101641133	-0.0833893297	-0.1510141793	 0.239734
C	-1.1222401084	-0.9212258001	 0.0562139829	 0.204627
C	-2.5963670719	-0.7160245075	 0.0919703192	-0.190901
O	-2.9697849398	 0.3994997581	-0.715742262	-0.40841
O	-0.594258976	-2.1999591278	 0.2871495429	-0.23533
C	 0.751996059	-2.1055652758	 0.175570609	 0.490859
N	 1.5341770288	-3.0809389335	 0.299572267	-0.581992
O	 1.0829156614	-0.7900408267	-0.0933625146	-0.230503
H	 0.6679920209	 1.5545176358	-1.0213384697	 0.258735
H	-0.9140262429	 1.6890202857	-0.4806245255	 0.265693
H	-3.1011694575	-1.6422775339	-0.218196937	 0.126064
H	-2.9597053737	-0.4755766467	 1.0984844648	 0.137046
H	-2.7822183526	 0.1613968132	-1.6306719314	 0.28909
H	 2.4991463479	-2.782880409	 0.1867353283	 0.234303
75.8476	145.2965	178.766	218.5259	285.3595	316.25	353.7586	377.5454	432.3526	544.2342	622.2062	654.4846	724.3311	727.9483	768.0113	777.4937	821.2304	947.0832	979.0049	1013.7974	1041.6337	1057.9913	1176.4683	1212.4102	1256.0136	1325.7412	1373.4428	1401.7738	1434.7521	1506.7521	1631.4321	1775.6646	1836.603	3005.5883	3048.8511	3518.553	3550.1691	3619.2982	3802.1783
NC1=C(CO)OC(=N)O1	NC1=C(CO)O[C@@H]([NH])O1	
InChI=1S/C4H6N2O3/c5-3-2(1-7)8-4(6)9-3/h6-7H,1,5H2	InChI=1S/C4H7N2O3/c5-3-2(1-7)8-4(6)9-3/h4,6-7H,1,5H2/t4-/m1/s1
