19
gdb 76810	2.76346	1.67457	1.38524	2.1676	76.26	-0.2369	0.0588	0.2957	1003.5138	0.158603	-422.897815	-422.889999	-422.889055	-422.929622	31.65	
C	-0.5069173196	 1.4761326923	-0.1074088963	-0.413286
C	-0.0872569569	 0.0211712902	 0.04576439	-0.055169
C	 1.0498733677	-0.535840125	-0.9541767846	 0.023829
O	 1.4706609646	 0.2356970809	-2.0304676054	-0.41832
C	 1.9611379935	-0.5906713209	 0.2893520412	 0.334205
C	 2.9273357572	-1.0150170897	 1.4255703557	-0.315768
C	 2.0315914738	 0.2110012619	 1.8770038373	 0.025516
O	 2.3240101074	 0.8445423117	 0.5899602434	-0.353871
C	 0.7798285578	-0.4768984569	 1.2620755944	-0.063777
H	 0.3355400445	 2.1561985499	 0.0210413241	 0.131462
H	-0.9427258604	 1.6423590948	-1.0985025247	 0.120537
H	-1.2664146958	 1.7322456893	 0.6389912098	 0.112753
H	-0.9767146342	-0.6126874739	-0.0225196839	 0.077679
H	 0.7805339815	-1.5231688632	-1.3381762542	 0.099792
H	 1.8388563177	 1.0478445488	-1.6595592302	 0.301488
H	 2.7474672171	-1.9877506134	 1.8895594058	 0.105401
H	 3.9861303311	-0.7829258359	 1.3021794087	 0.115631
H	 2.1526535208	 0.8214764829	 2.7767847056	 0.094773
H	 0.4176250821	-1.3775596938	 1.7598608731	 0.077125
144.7969	190.0281	215.5671	242.5993	263.9154	407.8751	461.8179	520.558	543.5692	567.7584	642.8535	687.0042	733.8646	768.4171	799.9474	836.7141	897.058	924.5799	942.3221	997.9921	1024.297	1041.4724	1074.1154	1094.0711	1102.4166	1135.0964	1150.4433	1165.7585	1189.7315	1204.5743	1226.5031	1240.8045	1269.7811	1302.5046	1327.3862	1366.5672	1404.5457	1439.22	1481.7716	1486.3968	1517.7137	3037.4139	3052.4055	3060.9137	3071.0014	3085.4841	3096.7186	3101.5793	3145.7513	3150.824	3781.966
CC1C(O)C23CC(O2)C13	C[C@H]1[C@@H](O)[C@@]23C[C@@H](O2)[C@@H]13	
InChI=1S/C7H10O2/c1-3-5-4-2-7(5,9-4)6(3)8/h3-6,8H,2H2,1H3	InChI=1S/C7H10O2/c1-3-5-4-2-7(5,9-4)6(3)8/h3-6,8H,2H2,1H3/t3-,4-,5-,6-,7+/m1/s1
