21
gdb 114830	3.24805	1.22415	1.16043	1.9108	76.47	-0.2487	0.082	0.3307	1179.4927	0.184995	-424.239796	-424.231857	-424.230913	-424.272433	31.209	
C	-0.2551034647	 1.6321229459	-0.136310412	-0.382474
C	-0.071128738	 0.1168641265	 0.003642649	-0.209732
C	 0.7395716804	-0.4910589379	-1.1437988818	 0.054668
C	 2.2667708777	-0.1488418556	-1.158612083	-0.26036
C	 2.8621297283	-1.5626116323	-1.2944118822	 0.189001
O	 2.788986451	-2.2124506005	-0.0244729366	-0.276537
C	 1.4152232479	-2.6237289892	 0.0825585331	-0.087532
C	 0.8133925894	-2.0395146944	-1.2076978265	-0.002769
O	 1.9216414311	-2.2440551543	-2.1036707161	-0.251706
H	 0.7091277769	 2.1509661515	-0.1449725458	 0.122022
H	-0.7737762757	 1.8821530512	-1.0684395628	 0.115921
H	-0.8433179809	 2.0377046071	 0.6924113608	 0.113945
H	 0.4161659487	-0.099164437	 0.9621591188	 0.105364
H	-1.0585663312	-0.3626410689	 0.044574272	 0.093978
H	 0.2936312853	-0.1635223796	-2.0894238574	 0.078698
H	 2.5439753681	 0.4855771678	-2.0042161476	 0.10388
H	 2.6071456986	 0.3286708358	-0.2365218903	 0.108469
H	 3.8704645156	-1.6577498752	-1.6963324203	 0.089864
H	 1.3555999234	-3.7183838377	 0.0953362875	 0.105004
H	 0.9713859276	-2.2310345021	 1.0019821793	 0.105249
H	-0.0767290294	-2.5430820009	-1.5833939885	 0.085047
98.2874	105.1689	191.5943	240.8961	315.5336	360.7516	418.309	472.367	568.162	640.7922	763.2964	793.2981	809.0541	834.2785	866.0992	893.6693	948.8086	962.8256	973.2523	979.4442	1011.0725	1028.9624	1049.1134	1076.9651	1098.0288	1117.98	1139.4869	1193.6175	1206.1985	1242.5637	1266.6245	1291.8545	1303.7315	1310.4237	1325.1172	1343.2058	1367.5113	1380.5301	1391.1302	1412.958	1481.4553	1492.0367	1500.0407	1507.0996	1525.0384	3013.9099	3031.9009	3032.3652	3036.0283	3056.6366	3064.1114	3085.1494	3100.4651	3106.0151	3114.4016	3129.0239	3134.8399
CCC1CC2OCC1O2	CC[C@H]1C[C@H]2OC[C@@H]1O2	
InChI=1S/C7H12O2/c1-2-5-3-7-8-4-6(5)9-7/h5-7H,2-4H2,1H3	InChI=1S/C7H12O2/c1-2-5-3-7-8-4-6(5)9-7/h5-7H,2-4H2,1H3/t5-,6-,7-/m0/s1
