25
gdb 117764	1.9889	1.02359	0.91972	0.6494	95.	-0.2565	0.0608	0.3173	1527.8859	0.225601	-352.337298	-352.325667	-352.324723	-352.373774	43.173	
C	 0.0743142329	 1.6621118175	-0.0222212196	-0.382004
C	-0.0232876124	 0.1326223353	-0.0062547612	-0.191791
C	 0.7301841502	-0.5003088492	-1.1832934528	-0.175319
C	 0.7310650628	-2.0576694504	-1.2522299623	 0.046273
C	 1.4702348547	-2.6583317837	-0.0326964823	-0.413903
C	-0.7055038204	-2.6542831806	-1.3064318365	-0.182949
C	-1.5788264312	-2.1716973576	-2.4667376421	-0.399723
C	 1.4600597879	-2.447075407	-2.4663035679	 0.353791
C	 2.0656672945	-2.7617164409	-3.4570223652	-0.49918
H	 1.1166314545	 1.9929814419	 0.0446038893	 0.115446
H	-0.3434075264	 2.0762305474	-0.9466491764	 0.115287
H	-0.4706771098	 2.1046945546	 0.817360727	 0.11108
H	 0.3745060763	-0.2418511001	 0.9440625897	 0.099241
H	-1.0798516623	-0.1592734937	-0.0331290599	 0.101239
H	 0.3197891868	-0.1100288819	-2.1213221242	 0.104577
H	 1.7761662852	-0.1702898056	-1.1579397666	 0.099643
H	 0.9346692298	-2.4366637178	 0.8949368013	 0.114055
H	 1.5458485123	-3.7450342647	-0.1283670391	 0.121334
H	 2.4838304299	-2.2549792839	 0.0472003112	 0.118872
H	-0.6066511883	-3.7446285108	-1.3589817559	 0.10085
H	-1.2002105185	-2.4381352371	-0.3524038825	 0.095178
H	-1.8022293745	-1.1025696448	-2.3955647179	 0.115662
H	-1.0862207276	-2.3490892841	-3.4273755656	 0.13104
H	-2.534056084	-2.7056845473	-2.4733375261	 0.111115
H	 2.6004471275	-3.0409269055	-4.3308257544	 0.190187
67.531	83.5218	119.4913	126.5793	179.7087	225.9522	241.4678	249.5997	259.0967	272.8845	331.0156	359.4442	416.0705	431.8094	556.1208	577.214	622.9395	627.4076	705.8657	742.3182	786.111	858.7439	887.4858	913.7346	944.4027	1009.7161	1020.2724	1045.4192	1061.3502	1080.5074	1109.7407	1190.0456	1211.0918	1218.3459	1281.0835	1304.2866	1332.9367	1334.8936	1365.8961	1389.8176	1406.5823	1411.5418	1412.2008	1478.7957	1485.6221	1490.9823	1495.6848	1499.2423	1499.5741	1504.4933	1507.1172	1514.7361	2225.7747	3024.5235	3028.7829	3031.7023	3034.8027	3040.4252	3041.6688	3054.2982	3066.4059	3074.7775	3098.903	3102.3055	3105.6104	3114.738	3116.1385	3116.3674	3501.8874
CCCC(C)(CC)C#C	CCC[C@@](C)(CC)C#C	
InChI=1S/C9H16/c1-5-8-9(4,6-2)7-3/h2H,5,7-8H2,1,3-4H3	InChI=1S/C9H16/c1-5-8-9(4,6-2)7-3/h2H,5,7-8H2,1,3-4H3/t9-/m1/s1
