18
gdb 51210	3.29873	1.36728	1.26594	3.3759	77.11	-0.2497	0.0245	0.2742	1054.7379	0.148476	-401.898545	-401.890948	-401.890003	-401.931328	29.332	
O	-0.0471452198	 0.0370972975	 0.8806179008	-0.316997
C	 0.0333091595	 1.1678950299	 0.4545446535	 0.127233
N	 1.1811164557	 1.7576766901	 0.0107086364	-0.433857
C	 2.4272867658	 1.0660524376	-0.070614868	 0.448654
C	 2.9050596397	 0.0144716684	-1.0939514288	-0.306733
C	 4.0909077033	 0.2059859269	-0.125974148	-0.041658
C	 3.8316352655	 1.7465849489	 0.0293532751	-0.108067
C	 3.8437332741	 1.668767608	 1.5694904871	-0.269436
C	 3.1587889468	 0.3604698216	 1.1246949186	-0.054108
H	-0.8336398107	 1.8564631197	 0.3903673795	 0.073562
H	 1.111417543	 2.6782925756	-0.3953181775	 0.246066
H	 2.395255868	-0.9520174435	-1.0675241089	 0.113647
H	 3.0487857865	 0.3575503471	-2.1241866436	 0.087329
H	 5.0690983381	-0.2709981397	-0.1357715898	 0.079504
H	 4.2075422261	 2.5278600682	-0.6354232762	 0.068046
H	 4.8228995416	 1.5740066681	 2.0481071174	 0.094622
H	 3.2213174149	 2.3915275018	 2.1056279558	 0.095495
H	 2.7359678018	-0.4468464761	 1.7194945765	 0.096699
38.1433	142.0243	185.3346	304.3716	331.86	421.8487	455.7531	520.7527	592.9133	709.3409	774.3376	832.2005	862.5957	871.6349	906.8164	921.3993	931.6047	989.1297	1000.0987	1025.3764	1032.0394	1044.0983	1092.8201	1115.9259	1120.8562	1148.378	1156.1263	1162.0072	1190.3101	1222.1156	1243.1329	1246.4967	1283.2347	1334.9711	1432.5387	1496.369	1506.1486	1512.5712	1807.5942	2927.3718	3041.7609	3045.4918	3086.0841	3102.8535	3110.6201	3133.4888	3143.3507	3617.0018
O=CNC12CC3C1CC23	O=CN[C@@]12C[C@H]3[C@@H]1C[C@@H]23	
InChI=1S/C7H9NO/c9-3-8-7-2-4-5(7)1-6(4)7/h3-6H,1-2H2,(H,8,9)	InChI=1S/C7H9NO/c9-3-8-7-2-4-5(7)1-6(4)7/h3-6H,1-2H2,(H,8,9)/t4-,5-,6+,7-
