16
gdb 127719	2.07203	1.90213	1.00419	3.8801	81.91	-0.2372	-0.0292	0.208	1144.6922	0.123102	-396.911702	-396.902528	-396.901584	-396.946748	31.98	
C	-0.035330096	 1.4373001562	 0.0239579087	-0.335716
N	-0.0674958919	-0.0098235973	 0.0793464634	-0.050732
N	-0.2205467605	-0.7344462918	-1.0368353604	-0.142668
N	-0.2141838236	-1.9963627969	-0.7010199912	-0.239153
C	-0.0562647221	-2.1084309697	 0.6432683286	 0.169344
C	-0.0071791852	-3.4215120735	 1.3475894283	-0.505599
C	 0.0411880358	-0.8269609686	 1.1702766759	 0.172277
C	 0.2110930486	-0.3558217868	 2.4839508755	 0.314445
C	 0.3566779774	 0.0496867821	 3.6091656568	-0.48841
H	 0.917032826	 1.813686335	 0.4062056343	 0.153712
H	-0.1529048096	 1.7201821649	-1.0215955546	 0.170293
H	-0.8494141782	 1.8610433012	 0.617661484	 0.153711
H	 0.1253136923	-3.2782871135	 2.4223521177	 0.134262
H	-0.9300733709	-3.9868332116	 1.1838914761	 0.145491
H	 0.8198585981	-4.0337706913	 0.9744120474	 0.145491
H	 0.4851293997	 0.3993901917	 4.6037737896	 0.20325
31.6287	82.4955	127.5301	139.62	190.2898	260.5558	311.327	374.0498	473.2981	557.4237	562.3408	562.9782	663.7301	683.3014	690.9565	731.1413	808.7352	1008.5086	1041.6956	1063.7526	1088.4309	1152.9364	1227.725	1291.0803	1302.6948	1379.5423	1419.7304	1439.2398	1478.5249	1478.9265	1480.7942	1489.7088	1507.4633	1584.8959	2230.9133	3042.9929	3054.6541	3100.4373	3121.2733	3129.83	3169.0142	3499.346
CN1N=NC(C)=C1C#C	Cn1nnc(C)c1C#C	
InChI=1S/C6H7N3/c1-4-6-5(2)7-8-9(6)3/h1H,2-3H3	InChI=1S/C6H7N3/c1-4-6-5(2)7-8-9(6)3/h1H,2-3H3
