18
gdb 18617	2.95056	1.97428	1.67054	3.2255	71.35	-0.2328	-0.0096	0.2232	873.7663	0.154828	-347.830101	-347.822643	-347.821699	-347.861834	28.51	
C	-0.1656961735	 1.4880309903	 0.2109571348	-0.422113
C	 0.0590691564	 0.003981959	 0.0112768976	-0.00067
C	 0.5628079283	-0.642554725	-1.2405468966	-0.066621
C	 1.2741429468	 0.2263901378	-2.2851629764	-0.233929
C	 2.5067066153	 0.8418452432	-1.5862693451	-0.33413
C	 2.6470900648	 0.123862113	-0.2328520401	 0.41444
O	 3.6242726669	 0.1663388752	 0.4740348147	-0.331477
C	 1.4213656275	-0.6953160608	 0.0179759692	-0.174357
H	 0.5308337036	 2.1109199844	-0.3530773562	 0.123538
H	-1.1780365615	 1.7601992991	-0.1075308387	 0.122163
H	-0.0671339658	 1.7560096707	 1.2679313473	 0.130144
H	-0.6805391852	-0.597631417	 0.5354224438	 0.097673
H	 0.0591001582	-1.5360040902	-1.5930834601	 0.090617
H	 1.5910957646	-0.4091968296	-3.117011878	 0.111649
H	 0.6069032087	 0.985750616	-2.7057767255	 0.106884
H	 3.4319260026	 0.699832259	-2.1510806329	 0.131265
H	 2.4197565844	 1.9194166091	-1.411734289	 0.132318
H	 1.5384600278	-1.5750370342	 0.6389625611	 0.102606
90.8707	151.1461	172.4043	230.8495	350.8927	447.1367	473.0528	568.5886	614.1138	660.6768	727.4301	770.3212	818.2444	842.21	916.6983	943.5821	975.4634	987.1129	1030.9701	1054.005	1079.5151	1119.3095	1135.9209	1165.2781	1197.4076	1227.0358	1243.5542	1270.2645	1321.8072	1334.2512	1363.0087	1419.2408	1435.2298	1456.8434	1491.524	1501.8257	1504.1127	1825.9814	3039.6801	3046.9799	3058.8773	3081.4004	3095.2677	3104.173	3120.9927	3139.5491	3165.7257	3191.2737
CC1C2CCC(=O)C12	C[C@H]1[C@H]2CCC(=O)[C@@H]12	
InChI=1S/C7H10O/c1-4-5-2-3-6(8)7(4)5/h4-5,7H,2-3H2,1H3	InChI=1S/C7H10O/c1-4-5-2-3-6(8)7(4)5/h4-5,7H,2-3H2,1H3/t4-,5+,7-/m0/s1
