22
gdb 99283	3.77963	0.73422	0.68217	2.1297	80.3	-0.2464	0.0617	0.3081	1766.2186	0.192081	-441.539069	-441.527776	-441.526832	-441.577081	39.068	
C	 0.2389737467	 1.0545489278	 0.3559423643	-0.231545
O	-0.3047848263	 0.008901079	-0.4507580879	-0.268597
C	 0.6099640285	-0.651309932	-1.2102760711	 0.521198
O	 1.7958603563	-0.4013879504	-1.224633333	-0.421023
N	-0.0071750564	-1.6121905995	-1.9477313684	-0.365193
C	 0.73993235	-2.5167899727	-2.802901737	-0.156302
C	 1.2533465082	-3.7868708393	-2.0979279918	 0.044234
C	 0.1036410161	-4.637763907	-1.5465104474	-0.388295
C	 2.1367423235	-4.593413022	-3.0566132604	-0.389179
H	 0.9863966391	 0.6634746878	 1.0513508771	 0.136806
H	 0.708071571	 1.8233707348	-0.2638264678	 0.137158
H	-0.6052474592	 1.4744656471	 0.9041742109	 0.126835
H	-0.992533968	-1.7477674651	-1.7992347592	 0.252951
H	 0.0982034527	-2.7941537109	-3.6485098031	 0.098422
H	 1.5888446073	-1.9539790466	-3.2002462373	 0.133654
H	 1.8727563768	-3.4498788944	-1.2566962425	 0.094817
H	 0.4836011573	-5.5161017365	-1.015137639	 0.116167
H	-0.5155077767	-4.0704276711	-0.8442909953	 0.108426
H	-0.5441415461	-4.9967346529	-2.3564949876	 0.107187
H	 2.9797357861	-3.9969593803	-3.4205750613	 0.118693
H	 2.5426996734	-5.4819508962	-2.5631634407	 0.113763
H	 1.5657959697	-4.9333470997	-3.9296359711	 0.109823
31.8172	54.0166	69.1123	93.4042	147.8888	217.4281	221.8258	251.3188	267.6535	305.7498	352.1975	410.5267	419.5278	444.0887	584.6229	686.6359	783.3152	818.5873	862.3467	928.84	940.794	965.0987	983.3357	1041.0202	1142.9075	1165.313	1183.2784	1184.212	1195.4255	1214.9789	1254.5579	1302.8012	1337.4363	1375.6324	1395.2009	1403.7159	1425.154	1466.8303	1467.1441	1480.7335	1489.1908	1494.5166	1501.4989	1504.8009	1512.2725	1547.7988	1812.8525	3020.5684	3022.4507	3024.8074	3038.144	3047.6403	3086.5374	3091.8867	3101.0095	3103.0743	3104.9138	3119.996	3150.1099	3663.4134
COC(=O)NCC(C)C	COC(=O)NCC(C)C	
InChI=1S/C6H13NO2/c1-5(2)4-7-6(8)9-3/h5H,4H2,1-3H3,(H,7,8)	InChI=1S/C6H13NO2/c1-5(2)4-7-6(8)9-3/h5H,4H2,1-3H3,(H,7,8)
