18
gdb 20534	4.34821	1.36193	1.34063	2.7241	73.45	-0.231	0.0278	0.2588	1017.947	0.155449	-344.017236	-344.009187	-344.008243	-344.050427	29.643	
C	 0.1366611236	 1.4881008225	 0.1522471146	-0.38313
C	-0.0636671716	-0.0289219479	-0.0270483273	-0.088584
C	-1.5593909074	-0.3873758077	-0.1163816099	-0.383093
C	 0.7123612485	-0.5625860494	-1.1987086437	 0.396969
C	 1.7402780917	-1.4837214442	-1.2745262925	-0.324101
C	 2.0569776816	-1.5719373308	-2.6470497728	-0.003657
N	 1.2940809527	-0.7720707955	-3.3844861298	-0.23157
N	 0.4881281997	-0.1721394178	-2.4829050684	-0.252964
H	 1.1969393237	 1.7378877572	 0.2473817207	 0.12715
H	-0.2624268038	 2.0467780848	-0.7020397041	 0.108494
H	-0.383337255	 1.8418180397	 1.0482315684	 0.116273
H	 0.3472081023	-0.527327866	 0.8583884281	 0.09277
H	-2.0336550423	 0.0918286678	-0.9804619851	 0.108553
H	-1.7014583408	-1.4670789773	-0.2148285891	 0.127132
H	-2.0902983569	-0.049501717	 0.7793238058	 0.116281
H	 2.1906063118	-2.0121224757	-0.4494150472	 0.098033
H	 2.8078053081	-2.1835832712	-3.1259148269	 0.107809
H	-0.1910464758	 0.4921150987	-2.8128918111	 0.267634
26.8562	141.0607	196.9408	227.6854	261.2635	317.081	390.3952	473.45	523.8838	634.9054	683.6133	726.0786	804.0016	881.5995	891.3889	927.7992	937.4805	962.1928	1014.6712	1062.1008	1081.2859	1121.6841	1131.0283	1181.3046	1240.8879	1296.7554	1318.9102	1337.6167	1384.9788	1398.4886	1419.422	1448.8474	1485.2187	1490.2523	1490.6817	1502.7502	1508.4406	1603.7463	3029.3331	3032.3349	3041.4965	3093.1855	3101.2018	3114.8408	3116.7725	3240.8609	3263.9838	3673.674
CC(C)C1=CC=NN1	CC(C)c1ccn[nH]1	
InChI=1S/C6H10N2/c1-5(2)6-3-4-7-8-6/h3-5H,1-2H3,(H,7,8)	InChI=1S/C6H10N2/c1-5(2)6-3-4-7-8-6/h3-5H,1-2H3,(H,7,8)
