19
gdb 19063	4.97686	1.71386	1.69365	1.1079	75.64	-0.2127	0.0977	0.3104	867.0728	0.168034	-327.868841	-327.862434	-327.86149	-327.89888	26.931	
C	-0.0815325924	 1.420743683	-0.0137647476	-0.320166
N	 0.0142364418	-0.0321980981	 0.0227694909	-0.101074
C	 1.3719851641	-0.5582901469	-0.2027055402	-0.011538
C	 0.78262175	-0.5627975795	 1.1625677866	-0.011537
C	 0.6583851841	-2.0788250708	 1.4156001656	-0.065305
C	 2.0674656894	-2.5448633455	 0.9008123463	-0.212903
C	 1.4745610566	-2.0725817334	-0.4750951777	-0.065304
C	 0.119253813	-2.6166288428	 0.0595707556	-0.215765
H	 0.8136255643	 1.9377666855	 0.3743056973	 0.094587
H	-0.240244581	 1.7454125672	-1.0471886526	 0.122103
H	-0.9431604039	 1.7400296021	 0.5813978374	 0.122103
H	 2.1604797588	 0.1236460043	-0.5045299463	 0.081953
H	 1.1021224028	 0.1155513882	 1.9471828205	 0.081953
H	 0.251256525	-2.4057348038	 2.3723139733	 0.058947
H	 2.9490590202	-2.0207605222	 1.2831095745	 0.085029
H	 2.2106257307	-3.6269570891	 0.9590379018	 0.093214
H	 1.8923570099	-2.3931822159	-1.4293419165	 0.058947
H	 0.0938833568	-3.7079482	 0.0450152635	 0.087239
H	-0.8001402903	-2.1910731124	-0.3359082723	 0.117517
220.0501	220.457	281.0732	394.0959	437.8023	486.8789	567.2081	674.3935	773.6577	808.6874	833.588	844.7429	857.9119	903.672	909.3588	951.4231	959.5475	1001.4141	1022.4985	1049.2674	1070.3031	1080.2419	1104.0254	1107.2159	1135.6293	1155.6735	1168.3455	1222.3453	1229.2041	1249.0569	1249.9172	1276.9324	1297.388	1325.4001	1384.6438	1455.012	1473.3293	1492.4619	1498.2838	1509.8873	2949.0829	3047.4338	3062.7866	3082.7648	3101.0667	3110.1676	3112.6015	3117.9167	3158.5236	3164.2958	3168.5784
CN1C2C1C1CC2C1	CN1[C@H]2[C@@H]1[C@@H]1C[C@H]2C1	
InChI=1S/C7H11N/c1-8-6-4-2-5(3-4)7(6)8/h4-7H,2-3H2,1H3	InChI=1S/C7H11N/c1-8-6-4-2-5(3-4)7(6)8/h4-7H,2-3H2,1H3/t4-,5+,6-,7+,8?
