17
gdb 75957	2.07575	1.89192	1.08701	3.7499	68.63	-0.2609	-0.0355	0.2254	1091.1057	0.135444	-459.02922	-459.02085	-459.019906	-459.06259	30.867	
C	-0.9687889241	 0.8262342384	 0.0092152371	-0.400385
C	 0.2122959296	-0.1357605504	-0.0136608407	-0.254343
C	 1.1126263544	 0.0213446273	-1.2456089261	 0.391123
O	 0.8052344466	 0.6945776798	-2.1956456749	-0.29532
C	 2.4327327846	-0.7371405285	-1.1554812591	-0.325593
C	 2.4938122774	-1.5979087079	 0.100451501	-0.096169
O	 2.1820969695	-0.8283735128	 1.2717151438	-0.224201
C	 1.0523231951	-0.0749211377	 1.2654392361	 0.420781
O	 0.768127333	 0.5850044986	 2.2239120968	-0.312653
H	-0.6199383938	 1.8581781396	 0.0876315635	 0.142598
H	-1.5462001962	 0.7314168011	-0.9119960807	 0.130438
H	-1.6107538009	 0.6208907241	 0.8672343393	 0.132502
H	-0.1503230015	-1.1769845014	-0.0721122697	 0.132643
H	 2.5659949393	-1.3393715711	-2.0595524937	 0.144239
H	 3.2389439821	 0.0060255013	-1.1453898458	 0.155506
H	 1.8097203139	-2.4535713847	 0.030715168	 0.120931
H	 3.4981351411	-1.9876125755	 0.2734717252	 0.137905
64.229	108.7352	159.9962	241.6142	275.5599	299.3548	376.8973	456.8067	495.4434	537.438	560.0619	622.6212	669.6724	760.9131	827.6913	898.4461	939.3197	992.8645	1049.0341	1079.9315	1092.1206	1106.9304	1135.4366	1204.328	1229.9121	1243.5854	1274.1644	1337.4937	1345.7772	1413.1569	1415.0129	1436.2889	1485.065	1489.9224	1515.0282	1824.1458	1862.9434	2971.1703	3025.8831	3049.3205	3067.3351	3099.2663	3119.7262	3142.3112	3150.074
CC1C(=O)CCOC1=O	C[C@H]1C(=O)CCOC1=O	
InChI=1S/C6H8O3/c1-4-5(7)2-3-9-6(4)8/h4H,2-3H2,1H3	InChI=1S/C6H8O3/c1-4-5(7)2-3-9-6(4)8/h4H,2-3H2,1H3/t4-/m0/s1
