20
gdb 83705	2.61534	1.60741	1.17593	3.6426	78.64	-0.2376	0.036	0.2737	1099.4423	0.173252	-403.194585	-403.186468	-403.185523	-403.227211	31.741	
C	-0.9556210572	 1.1929635505	 0.0860808769	-0.400729
C	-0.0800786961	-0.0521809697	-0.0385731045	-0.117414
C	 0.7981016512	-0.1932352167	-1.2854204934	-0.015809
C	 1.6725875555	 1.0184984958	-1.739456318	-0.232712
C	 2.9412801736	 0.1283398518	-1.6262818769	-0.227316
C	 2.110859641	-0.9144941598	-0.8316525606	-0.004712
N	 2.082766338	-0.7123669839	 0.6004708331	-0.306989
C	 0.9291653471	-0.1834665266	 1.1186474388	 0.398174
O	 0.7409784285	 0.1072412852	 2.280284318	-0.385169
H	-0.3803075422	 2.1104003991	-0.0704707953	 0.119785
H	-1.7728912198	 1.1772942579	-0.6410525619	 0.109215
H	-1.3799289467	 1.2369732227	 1.0924688377	 0.142841
H	-0.7280198185	-0.9372063024	 0.0384343964	 0.100113
H	 0.2940874919	-0.6784010437	-2.1223556138	 0.074898
H	 1.4512232726	 1.434195967	-2.7241516158	 0.104336
H	 1.6681603515	 1.8363837829	-1.0154163537	 0.114024
H	 3.2576902415	-0.2720453454	-2.5934231662	 0.104581
H	 3.811631834	 0.5507119973	-1.1182119256	 0.100644
H	 2.2583310111	-1.9679124326	-1.0923801077	 0.075639
H	 2.8681275032	-0.8967980293	 1.2052884225	 0.246602
90.6232	131.4657	199.9024	227.2725	252.1571	367.5667	449.0553	475.7636	531.1763	602.7724	623.7497	708.2684	743.2827	764.9008	794.3746	866.0605	897.9546	941.1583	953.835	969.7736	1029.7822	1053.4518	1067.0117	1120.9878	1141.3856	1157.2736	1181.8747	1224.9908	1250.6972	1262.8677	1271.4306	1283.058	1299.3909	1341.3656	1353.3702	1376.2274	1407.4228	1425.6155	1475.2334	1492.1132	1497.0451	1501.7155	1821.8907	3005.8681	3038.2892	3043.5207	3060.2966	3073.1069	3095.5613	3108.68	3111.2933	3124.7272	3128.6833	3631.4398
CC1C2CCC2NC1=O	C[C@H]1[C@H]2CC[C@H]2NC1=O	
InChI=1S/C7H11NO/c1-4-5-2-3-6(5)8-7(4)9/h4-6H,2-3H2,1H3,(H,8,9)	InChI=1S/C7H11NO/c1-4-5-2-3-6(5)8-7(4)9/h4-6H,2-3H2,1H3,(H,8,9)/t4-,5+,6+/m0/s1
