17
gdb 88358	2.15067	1.36523	0.91636	3.5054	79.15	-0.2469	0.0106	0.2575	1264.8256	0.133703	-380.804736	-380.795285	-380.794341	-380.83949	33.919	
C	-0.5042952718	 1.3171094332	 0.1024519796	-0.324596
N	 0.0266374378	-0.0377935298	 0.0830303081	-0.077452
C	 1.413917483	-0.2418849276	-0.3136523838	-0.255178
C	 0.9729294716	-0.4896183718	 1.0877430453	 0.025585
C	 1.4775459834	 0.4270595271	 2.2173804588	-0.36908
C	 0.5316244217	 0.4849862899	 3.3345363162	 0.331978
C	-0.265728272	 0.5233003366	 4.2305527741	-0.419219
C	 2.8012476263	-0.0386125924	 2.6651814109	 0.297137
N	 3.844087421	-0.4135539465	 2.990290473	-0.316385
H	 0.2453533657	 2.102800439	 0.2905170168	 0.101227
H	-0.9561415338	 1.5231039507	-0.8721898491	 0.134155
H	-1.2837542477	 1.390672871	 0.8659711253	 0.140927
H	 1.6107247845	-1.0700709183	-0.9883221116	 0.129102
H	 2.0310008163	 0.6409045752	-0.4856706339	 0.113765
H	 0.8100955497	-1.5093157158	 1.428315172	 0.121432
H	 1.6197730382	 1.4393710874	 1.8201701036	 0.154198
H	-0.9643928637	 0.5591895421	 5.0301849049	 0.212406
49.7342	107.954	127.4767	162.1537	185.9344	251.2428	307.1875	363.469	402.131	435.3712	515.5854	547.4391	579.41	652.7748	666.7786	750.0488	860.1303	901.8164	953.4924	1029.6278	1031.0833	1079.9177	1112.8601	1128.7931	1152.5153	1169.7471	1201.3865	1239.921	1302.6163	1343.695	1403.1993	1450.8168	1486.5943	1502.9247	1514.5359	2248.2917	2364.6333	2968.3148	3041.9415	3075.885	3083.7085	3117.4657	3137.0501	3179.9874	3501.3515
CN1CC1C(C#C)C#N	CN1C[C@H]1[C@@H](C#C)C#N	
InChI=1S/C7H8N2/c1-3-6(4-8)7-5-9(7)2/h1,6-7H,5H2,2H3	InChI=1S/C7H8N2/c1-3-6(4-8)7-5-9(7)2/h1,6-7H,5H2,2H3/t6-,7-,9?/m0/s1
