15
gdb 77794	2.68629	1.36745	1.07959	2.6261	74.9	-0.2481	-0.0247	0.2234	1108.6332	0.110157	-420.576747	-420.56844	-420.567496	-420.609552	31.585	
O	-0.1407529261	 1.4208446958	 0.0101503411	-0.413072
C	-0.0834875047	 0.0298198245	 0.0393554084	 0.052597
C	-0.4305703675	-0.7806910644	 1.2735603005	-0.30318
C	-1.5582009852	-0.1205170482	 2.0131556745	 0.443269
O	-1.7530097904	 0.0808057047	 3.1775113704	-0.31875
C	-2.4518128326	 0.0042474275	 0.7614905684	-0.407424
C	-1.3527012141	-0.7439123721	-0.028221947	 0.136978
C	-1.590947181	-1.793002458	-0.9571295068	 0.167179
C	-1.8060465106	-2.6778525808	-1.7436130985	-0.369159
H	 0.5571994408	 1.766265573	 0.5776287218	 0.298047
H	 0.7340951347	-0.407506418	-0.5341202504	 0.113933
H	 0.2230421198	-1.5612944262	 1.6442706083	 0.121691
H	-3.3636264986	-0.5853928228	 0.8822226744	 0.142118
H	-2.6930201889	 1.0090097002	 0.4126895358	 0.14233
H	-1.9959032956	-3.4574414752	-2.4391843308	 0.193443
88.4225	150.9189	155.4485	260.575	269.929	373.2636	429.2039	471.5464	488.2733	519.6847	583.4472	601.7918	639.5162	651.3779	664.2695	752.4979	862.9791	913.6886	949.5851	981.5399	1052.847	1091.7597	1104.3659	1128.9487	1209.36	1217.6171	1239.607	1302.8081	1325.7507	1438.3239	1471.7421	1886.4857	2236.9372	3081.3867	3109.3435	3144.3215	3196.0069	3502.1725	3805.5556
OC1C2C(=O)CC12C#C	O[C@H]1[C@H]2C(=O)C[C@@]12C#C	
InChI=1S/C7H6O2/c1-2-7-3-4(8)5(7)6(7)9/h1,5-6,9H,3H2	InChI=1S/C7H6O2/c1-2-7-3-4(8)5(7)6(7)9/h1,5-6,9H,3H2/t5-,6+,7-/m1/s1
