15
gdb 127448	3.99514	1.1101	0.87501	7.673	77.05	-0.2313	-0.018	0.2133	1250.7655	0.114281	-413.023792	-413.015281	-413.014337	-413.057126	30.514	
C	-0.0449638826	 1.3848281781	-0.0418422972	-0.339046
N	-0.009111523	-0.0606574923	 0.0211753321	 0.00606
N	 0.0267098156	-0.7880950004	-1.1132389175	-0.327203
C	 0.0385160949	-2.0549785315	-0.688922785	 0.265493
C	 0.0318871313	-2.1479561616	 0.7225798079	-0.39689
C	 0.0063637582	-0.8326763386	 1.1445782789	 0.402319
N	-0.0877200166	-0.2569216369	 2.4101461567	-0.612701
C	 0.0629271174	-3.1342198239	-1.6157972518	 0.236892
N	 0.084112221	-4.0399781055	-2.3359557485	-0.345915
H	 0.946100629	 1.8202447761	 0.1308897995	 0.140309
H	-0.3849556757	 1.6637431177	-1.0383288305	 0.173004
H	-0.7412118445	 1.7644654389	 0.7103426876	 0.155505
H	 0.049824684	-3.0377521314	 1.3288722707	 0.120843
H	-0.0708893269	-0.9520019345	 3.1440433803	 0.263286
H	 0.6168296779	 0.4472825658	 2.5959775168	 0.258045
90.5144	127.9506	150.402	189.8054	223.6028	279.4722	315.4185	433.1271	524.8969	526.7254	605.7961	653.8776	661.351	718.4143	748.4362	791.6157	818.7873	1020.8836	1065.989	1101.3275	1150.8078	1182.0318	1255.8376	1320.6277	1406.6599	1444.9697	1466.9469	1486.3069	1505.5043	1524.5463	1601.0363	1660.7975	2354.4349	3034.8766	3107.744	3169.1001	3277.7428	3533.2089	3632.1333
CN1N=C(C=C1N)C#N	Cn1nc(cc1N)C#N	
InChI=1S/C5H6N4/c1-9-5(7)2-4(3-6)8-9/h2H,7H2,1H3	InChI=1S/C5H6N4/c1-9-5(7)2-4(3-6)8-9/h2H,7H2,1H3
