17
gdb 55884	3.31874	0.89804	0.76232	2.1004	73.5	-0.2573	0.0217	0.279	1447.8104	0.135413	-418.048206	-418.038727	-418.037783	-418.084152	33.404	
N	-0.0843047251	 1.2753771411	 0.3414627008	-0.526656
C	 0.086909265	-0.0429713055	 0.0393106925	 0.422405
O	 1.1816938372	-0.5686416683	-0.0106080562	-0.3567
C	-1.2091876306	-0.8035723069	-0.2545832465	-0.357249
C	-1.0298722878	-2.2891497816	-0.0482267632	 0.028137
C	-1.4084373733	-2.9435382773	 1.2427868154	-0.279067
C	-2.2363689882	-3.2192296536	-0.00775363	-0.201104
C	-3.5618945656	-2.6767606124	-0.1075331267	 0.285527
N	-4.6245421822	-2.2256032745	-0.1922826235	-0.346797
H	 0.7357189953	 1.8491901699	 0.4522995153	 0.263673
H	-0.9855309164	 1.7193765552	 0.3218269318	 0.263063
H	-2.0339147725	-0.4168264453	 0.3531859755	 0.124668
H	-1.478597104	-0.5992476978	-1.2997314782	 0.143764
H	-0.1595459351	-2.6932488839	-0.5521601877	 0.128024
H	-0.8022121863	-3.7594272727	 1.6177962236	 0.135775
H	-1.8735350592	-2.3334195061	 2.0090443871	 0.136848
H	-2.1229960413	-4.1924158903	-0.4729067801	 0.135689
31.3087	55.1255	90.7966	174.8254	183.9897	213.1031	338.5416	351.6388	433.2812	504.377	552.8467	586.38	637.7843	654.6317	775.1049	826.9994	852.6517	886.8205	899.1632	966.807	1028.7046	1075.9797	1080.9682	1117.4146	1123.037	1153.4204	1229.1091	1249.5213	1280.0681	1363.3551	1382.984	1429.8128	1464.598	1490.9474	1619.6888	1799.4075	2349.0616	3027.105	3077.3074	3145.231	3171.1677	3188.2848	3236.0894	3602.0494	3737.9516
NC(=O)CC1CC1C#N	NC(=O)C[C@H]1C[C@H]1C#N	
InChI=1S/C6H8N2O/c7-3-5-1-4(5)2-6(8)9/h4-5H,1-2H2,(H2,8,9)	InChI=1S/C6H8N2O/c7-3-5-1-4(5)2-6(8)9/h4-5H,1-2H2,(H2,8,9)/t4-,5+/m1/s1
