16
gdb 120367	3.37784	1.11311	0.88846	2.3297	66.12	-0.2655	-0.0293	0.2362	1277.6538	0.123646	-475.050717	-475.042195	-475.04125	-475.085048	29.554	
C	-0.29024108	 1.3377023218	 0.7096033119	-0.229592
O	-0.2498482549	-0.0713422276	 0.6780302367	-0.22349
C	 1.0289342735	-0.5770574501	 0.4052227724	-0.060091
C	 0.9631341332	-2.1048149551	 0.5200079022	-0.150774
N	 2.1685123353	-2.736224966	-0.0203488881	-0.256686
C	 2.6341915737	-3.4369261304	 0.9267565228	 0.120116
O	 1.9768944981	-3.4548137009	 2.1275245927	-0.20686
C	 0.8677379524	-2.605516807	 1.9626842663	 0.42585
O	 0.096126561	-2.3994794618	 2.8402686397	-0.29414
H	 0.0077388062	 1.7754281134	-0.2558383055	 0.107933
H	-1.3206004423	 1.6258819412	 0.9277048687	 0.136452
H	 0.3680313758	 1.7445695848	 1.4923399803	 0.111963
H	 1.3602093574	-0.3267665849	-0.614790786	 0.114016
H	 1.7794175611	-0.173727097	 1.1053639876	 0.098483
H	 0.0780100489	-2.4362963601	-0.0354217764	 0.147696
H	 3.5287164207	-4.0474234704	 0.8925425444	 0.159125
63.5089	73.755	107.5697	188.901	222.1682	255.2073	348.8181	393.2991	495.573	580.5145	689.9944	721.6601	798.8878	860.2121	952.6039	967.6185	999.3666	1040.6091	1087.1527	1120.5624	1157.9218	1169.1595	1183.516	1227.762	1235.0834	1258.0643	1320.6591	1343.8705	1408.1439	1480.9639	1486.5905	1502.5217	1528.1258	1695.7136	1929.6478	2963.6647	2978.9432	3003.9385	3024.6324	3056.8001	3125.2143	3225.247
COCC1N=COC1=O	COC[C@H]1N=COC1=O	
InChI=1S/C5H7NO3/c1-8-2-4-5(7)9-3-6-4/h3-4H,2H2,1H3	InChI=1S/C5H7NO3/c1-8-2-4-5(7)9-3-6-4/h3-4H,2H2,1H3/t4-/m1/s1
