15
gdb 33817	2.29039	1.59029	1.10431	1.9011	81.45	-0.2385	-0.006	0.2325	1103.3578	0.109403	-383.383255	-383.374924	-383.37398	-383.416015	31.955	
C	 0.005428919	-1.2080869708	 0.0829121422	-0.359802
C	 0.04433184	-0.0082186839	 0.0131330474	 0.21768
C	 0.0545992199	 1.4057956004	-0.1212822926	 0.161122
C	-0.7644719511	 2.2790246343	-1.0899124555	-0.305135
C	 0.407073983	 3.3161993309	-1.0957227253	-0.305117
C	 1.1799646607	 2.4020249179	-0.1269265587	 0.161124
O	 0.341600561	 2.2218334468	 1.0242386922	-0.306787
C	 2.5855210533	 2.2413910129	 0.0004040358	 0.217815
C	 3.7816003789	 2.1347980065	 0.0644498188	-0.359904
H	-0.0201881118	-2.2672157744	 0.1585188578	 0.194667
H	-0.9151527188	 1.80569144	-2.061427685	 0.123572
H	-1.7219145923	 2.6134108587	-0.6863748307	 0.121266
H	 0.8897515046	 3.4036179252	-2.0703869125	 0.123567
H	 0.1934793745	 4.3090887349	-0.6958397971	 0.121269
H	 4.8364622092	 2.0320334906	 0.1339588333	 0.194665
89.8887	148.3741	169.2498	194.6405	291.7014	418.586	437.1222	485.8429	548.8049	558.8203	610.0495	619.2224	632.0826	657.5962	673.8607	675.0231	732.8669	775.741	865.1885	940.8011	982.064	1037.027	1120.5344	1161.8168	1181.5809	1214.9766	1227.0939	1285.7714	1411.7819	1463.7428	1487.5412	2238.2029	2242.2994	3077.4533	3083.3079	3132.5936	3148.0652	3500.2881	3500.8589
C#CC12CCC1(O2)C#C	C#C[C@]12CC[C@]1(O2)C#C	
InChI=1S/C8H6O/c1-3-7-5-6-8(7,4-2)9-7/h1-2H,5-6H2	InChI=1S/C8H6O/c1-3-7-5-6-8(7,4-2)9-7/h1-2H,5-6H2/t7-,8+
