19
gdb 102970	2.56636	0.76346	0.6179	3.3646	74.98	-0.25	-0.043	0.2069	1754.0067	0.154458	-460.166205	-460.155465	-460.154521	-460.204104	35.601	
C	-0.2377440864	 1.3324501993	 0.3479108495	-0.245546
O	 0.118831573	-0.0353666991	 0.276479743	-0.242501
C	 0.5565796779	-0.4438733854	-1.0012932498	 0.034496
C	 1.279655469	-1.7904670644	-0.8506647716	-0.228329
C	 2.5061719726	-1.6901831915	 0.0696877666	-0.280001
C	 3.0898908166	-3.0474766213	 0.3863142113	 0.157529
O	 4.2448183256	-3.3538973567	 0.2437440902	-0.23534
C	-0.6312736028	-0.6241949284	-1.9465413457	 0.133833
O	-0.553290043	-0.5979807242	-3.1457423226	-0.239432
H	 0.615797309	 1.9824117629	 0.1056607567	 0.118454
H	-1.0652075389	 1.5821295876	-0.3324303412	 0.117482
H	-0.5561884815	 1.5276775282	 1.3739355606	 0.138064
H	 1.2422084404	 0.295273719	-1.4448223957	 0.094507
H	 0.5699252	-2.5230748515	-0.4448712	 0.11582
H	 1.5696668349	-2.1349734116	-1.8483455003	 0.135676
H	 3.2894961997	-1.0627247371	-0.3653510327	 0.122269
H	 2.1847940074	-1.2364869986	 1.0165660956	 0.141218
H	 2.3478881896	-3.7805433631	 0.7838903788	 0.072076
H	-1.589987333	-0.8234565139	-1.4128867126	 0.089724
44.7535	59.2758	66.6127	95.1272	115.6086	165.5805	195.6285	254.9287	275.5864	315.7676	403.1032	504.042	527.0628	561.7586	756.5432	822.8575	922.8485	953.2867	1021.075	1022.3017	1071.8123	1105.3661	1127.1207	1155.2352	1182.8025	1192.6499	1240.4622	1247.8985	1304.4302	1316.4265	1347.8963	1380.2478	1399.1206	1430.2213	1464.1882	1480.8839	1485.0638	1489.7799	1507.4612	1836.3644	1839.813	2848.8349	2866.2668	2983.3226	2991.0836	3028.955	3034.781	3036.7989	3086.7416	3106.6116	3126.7076
COC(CCC=O)C=O	CO[C@@H](CCC=O)C=O	
InChI=1S/C6H10O3/c1-9-6(5-8)3-2-4-7/h4-6H,2-3H2,1H3	InChI=1S/C6H10O3/c1-9-6(5-8)3-2-4-7/h4-6H,2-3H2,1H3/t6-/m0/s1
