16
gdb 94480	3.5983	0.85921	0.75977	4.8755	72.95	-0.2603	-0.0033	0.257	1469.6292	0.124675	-434.0583	-434.049329	-434.048385	-434.093882	31.167	
N	 0.1159169014	 1.3730446481	 0.2663973815	-0.506574
C	-0.0670944908	-0.0309847018	-0.0083646663	-0.124077
C	-1.4761406953	-0.4966290547	-0.451581351	-0.083483
O	-0.8995093791	-1.13842265	-1.6358820661	-0.264445
C	 0.353822156	-0.6458792182	-1.3430255682	 0.449724
N	 1.4175817677	-0.6726214841	-2.0072757604	-0.334601
C	 1.3887196605	-1.3215393116	-3.3159270806	-0.302615
C	 1.9956905573	-0.4554035086	-4.3345561704	 0.274501
N	 2.4605737514	 0.2177717815	-5.1497279649	-0.307344
H	 1.0699535341	 1.5491665714	 0.5643113546	 0.250182
H	-0.0284810961	 1.9246238894	-0.5748125367	 0.240789
H	 0.3128557454	-0.6115881288	 0.8366421836	 0.122583
H	-1.9916112353	-1.2236212852	 0.1782808635	 0.131504
H	-2.1499585831	 0.3148839382	-0.7377140648	 0.130511
H	 1.9763845858	-2.2468855222	-3.2692828502	 0.161366
H	 0.3791960202	-1.5940222334	-3.6502136235	 0.161977
18.5531	80.4989	125.7889	190.7797	214.7952	252.8817	291.43	375.5955	409.773	491.9197	591.9418	679.9142	754.8903	826.0273	869.676	928.6256	959.6825	963.0389	1000.1004	1007.4358	1050.0703	1145.5655	1151.5725	1173.3871	1230.2011	1254.6347	1260.558	1336.7656	1365.6885	1429.9948	1469.7437	1514.1257	1670.2228	1825.1534	2367.6261	3021.8199	3059.2621	3069.8539	3081.8965	3136.6155	3498.9047	3578.9004
NC1COC1=NCC#N	N[C@H]1COC1=NCC#N	
InChI=1S/C5H7N3O/c6-1-2-8-5-4(7)3-9-5/h4H,2-3,7H2	InChI=1S/C5H7N3O/c6-1-2-8-5-4(7)3-9-5/h4H,2-3,7H2/t4-/m0/s1
