14
gdb 132550	3.15033	1.30745	0.92928	2.3873	67.18	-0.258	-0.0282	0.2299	1140.8694	0.100251	-486.008701	-486.001221	-486.000277	-486.040948	27.761	
C	-0.0288830881	 1.5217423541	 0.0217932955	-0.502619
C	-0.0061292974	 0.0187100313	-0.0011769419	 0.115939
C	-0.037187325	-0.7284005491	-1.1748353774	-0.055693
N	-0.0183635813	-2.0663246619	-1.2345432412	-0.325138
C	 0.0333573633	-2.7066977118	-0.0915067806	 0.361304
F	 0.0518042673	-4.034423594	-0.1544197683	-0.069893
C	 0.0698502591	-2.1116259982	 1.1668117605	-0.421656
C	 0.048546192	-0.7300478588	 1.1769155101	 0.29007
F	 0.0809600185	-0.0871568103	 2.343710112	-0.064571
H	 0.8627844679	 1.9275290218	 0.5110050866	 0.143292
H	-0.0717450691	 1.9210057478	-0.9942365226	 0.132273
H	-0.8953433741	 1.8999483734	 0.5743136765	 0.143294
H	-0.080116128	-0.2122726095	-2.131158322	 0.120488
H	 0.1121623748	-2.6909211049	 2.0790531028	 0.132909
108.0095	142.9926	230.364	262.7266	343.6483	350.8889	452.4219	481.1147	538.9725	575.501	687.2541	756.5344	757.5569	786.1751	870.7325	951.42	979.4908	1023.9668	1068.2105	1170.721	1202.7154	1312.1768	1330.2562	1339.6483	1415.7794	1440.915	1479.7869	1494.3008	1528.9891	1625.6774	1652.4071	3039.2234	3094.2519	3124.3238	3156.1767	3229.6569
CC1=CN=C(F)C=C1F	Cc1cnc(F)cc1F	
InChI=1S/C6H5F2N/c1-4-3-9-6(8)2-5(4)7/h2-3H,1H3	InChI=1S/C6H5F2N/c1-4-3-9-6(8)2-5(4)7/h2-3H,1H3
