22
gdb 121628	4.03781	0.67932	0.6221	2.0916	80.15	-0.2423	0.0164	0.2587	1894.0395	0.192104	-441.525727	-441.514352	-441.513408	-441.564101	39.149	
C	 0.1069530136	 1.427245121	 0.0672450864	-0.383818
C	-0.0374061616	-0.0965450061	 0.0257590642	-0.18965
C	-1.4946265697	-0.5277228205	 0.0227672987	-0.044618
O	-1.5301566315	-1.9685916486	-0.0132785597	-0.246737
C	-2.752078686	-2.5330448816	-0.0045710807	 0.422079
O	-3.7834200692	-1.9065216653	 0.0125312081	-0.367283
C	-2.6612863857	-4.0630310723	 0.0046660102	-0.084568
C	-2.2378582346	-4.5362992148	 1.4045267911	-0.375441
N	-3.9062395804	-4.7114925272	-0.3888609822	-0.496258
H	 1.1606309843	 1.7195225495	 0.0696987688	 0.120958
H	-0.3667450264	 1.8973344235	-0.8014302425	 0.120951
H	-0.3573020844	 1.8479981154	 0.9657521415	 0.121034
H	 0.4540095577	-0.4998259568	-0.8671018688	 0.10934
H	 0.4638438126	-0.5482962708	 0.8895513836	 0.109026
H	-2.0242174876	-0.179986216	 0.9163445754	 0.11935
H	-2.0332694309	-0.1369527862	-0.8474044672	 0.119019
H	-1.8785801891	-4.3491588958	-0.7066997927	 0.103006
H	-2.99205834	-4.2545650712	 2.1478142672	 0.121648
H	-2.1472365004	-5.6247106078	 1.4076774072	 0.131569
H	-1.2837631418	-4.0916060407	 1.6971462923	 0.126868
H	-4.6610303916	-4.3098489468	 0.1639435674	 0.234186
H	-4.1283730775	-4.458122541	-1.3481274883	 0.229339
23.3212	53.3328	71.2198	104.9498	158.3088	198.5861	224.5175	231.3806	241.1248	304.9703	311.7974	344.8071	414.5905	521.6536	672.6565	755.1744	763.2298	858.4078	891.5181	915.7799	925.6453	938.8079	1004.0002	1018.7428	1054.5234	1090.9442	1148.056	1165.8579	1188.7433	1206.9721	1268.4851	1281.7069	1312.7824	1326.3369	1338.8919	1394.8413	1407.1575	1415.4116	1425.3503	1490.294	1491.9599	1498.2276	1500.0264	1504.5168	1519.9103	1673.1551	1810.7529	3034.1756	3035.7795	3040.352	3045.3014	3053.8967	3064.7104	3087.9594	3105.3556	3112.3949	3114.4675	3137.928	3479.4027	3548.8669
CCCOC(=O)C(C)N	CCCOC(=O)[C@@H](C)N	
InChI=1S/C6H13NO2/c1-3-4-9-6(8)5(2)7/h5H,3-4,7H2,1-2H3	InChI=1S/C6H13NO2/c1-3-4-9-6(8)5(2)7/h5H,3-4,7H2,1-2H3/t5-/m1/s1
