18
gdb 23511	3.80721	1.30085	1.16661	1.2629	79.08	-0.2259	0.0169	0.2429	1083.3799	0.149454	-401.89235	-401.885212	-401.884268	-401.923777	29.246	
O	-0.1135798013	 1.3469248175	 0.1197471842	-0.397777
N	 0.031999415	-0.0555463539	 0.0497168002	-0.263747
C	-1.103481734	-0.6241401995	-0.0462879998	 0.431773
C	-2.4856167581	 0.0002529303	-0.0773322126	-0.303175
C	-3.3751912691	-1.1884252043	-0.4697819067	-0.060929
C	-2.9724138053	-1.7236342036	-1.8855188097	-0.238694
C	-2.0761064483	-2.7478665655	-1.1947749392	-0.060551
C	-2.7025417304	-2.4559583665	 0.1489257747	-0.088242
C	-1.2514148418	-2.1018137639	-0.0716750969	-0.119617
H	 0.8012403851	 1.6393107368	 0.1875015303	 0.303547
H	-2.7342357272	 0.3847002162	 0.9203857617	 0.121085
H	-2.5420349427	 0.8428753096	-0.7721451767	 0.125652
H	-4.4399518285	-1.0365747268	-0.2992770172	 0.073218
H	-3.8139531501	-2.2106157389	-2.3848277369	 0.103607
H	-2.5088663828	-1.0093695279	-2.5755080969	 0.097366
H	-1.7523039665	-3.6988360959	-1.6015304559	 0.088705
H	-3.0772260923	-3.1124854819	 0.922646947	 0.089491
H	-0.4654669018	-2.7193869418	 0.3441028404	 0.098288
102.1646	220.9401	252.0639	366.5223	373.537	439.55	481.3925	546.4268	634.6825	697.7945	747.2035	773.1275	803.1136	849.9809	862.1852	877.2984	937.1231	970.1987	974.2803	992.7321	1010.8366	1026.1487	1059.3341	1066.5073	1087.5746	1128.9094	1162.3152	1214.309	1222.1198	1238.1704	1257.7392	1298.8394	1310.9918	1332.3436	1369.6364	1415.2608	1465.3851	1496.4034	1752.0083	3031.4347	3036.3981	3092.9544	3098.2907	3122.7996	3176.0472	3197.7672	3208.1905	3821.6368
ON=C1CC2CC3C2C13	ON=C1C[C@H]2C[C@@H]3[C@H]2[C@H]13	
InChI=1S/C7H9NO/c9-8-5-2-3-1-4-6(3)7(4)5/h3-4,6-7,9H,1-2H2	InChI=1S/C7H9NO/c9-8-5-2-3-1-4-6(3)7(4)5/h3-4,6-7,9H,1-2H2/t3-,4-,6+,7+/m1/s1
