19
gdb 111816	2.67577	1.38587	1.08122	3.624	75.45	-0.2306	-0.0335	0.1971	1173.5166	0.158765	-423.004409	-422.995843	-422.994899	-423.038129	31.618	
C	 0.1803925874	 1.7802672406	-0.1216675915	-0.385795
C	 0.2931716977	 0.274095885	 0.1431411839	-0.207187
C	 0.6854848166	-0.5038037083	-1.1129189404	-0.108174
C	 0.8418084432	-2.058079822	-1.1193143421	-0.129994
C	-0.233588299	-2.8527260833	-0.3628151519	-0.078996
O	-1.1462818036	-2.7945468838	-1.4883318132	-0.285254
C	-0.145186111	-2.1701236897	-2.3262710336	-0.00645
C	-0.3349437993	-0.6350019956	-2.2684436459	 0.399735
O	-1.035589503	 0.1402360873	-2.8510571074	-0.295164
H	 1.1439492234	 2.1986265361	-0.4332777036	 0.112906
H	-0.5427431902	 1.9795379593	-0.9168948633	 0.150267
H	-0.1401144262	 2.3129902849	 0.7784796421	 0.113279
H	 1.0350730832	 0.0828339951	 0.9289654975	 0.100586
H	-0.6650289997	-0.0999222646	 0.5218935233	 0.111035
H	 1.5979609801	-0.0632846027	-1.5413605576	 0.107619
H	 1.8565283895	-2.4500198225	-1.1256922473	 0.087108
H	 0.0504153744	-3.890099963	-0.1474730604	 0.108602
H	-0.6581888608	-2.4038005352	 0.5412076035	 0.112157
H	 0.0151503272	-2.6860497076	-3.2762051121	 0.09372
64.5477	100.2893	156.7707	190.6955	226.9654	266.6185	320.4751	458.4506	465.661	611.143	649.2759	759.1273	789.9182	833.3293	842.0336	909.4163	950.3502	969.9492	998.0322	1020.4622	1029.4243	1059.2808	1070.9586	1114.0205	1145.2115	1157.506	1179.1989	1204.6604	1228.7999	1265.2102	1276.2646	1312.7115	1332.2618	1355.1804	1371.136	1414.692	1489.8724	1499.6704	1512.2459	1524.6252	1885.1974	3006.442	3021.9121	3024.9331	3036.8801	3061.9218	3075.7129	3083.9387	3103.5032	3125.9678	3136.8745
CCC1C2COC2C1=O	CC[C@H]1[C@H]2CO[C@H]2C1=O	
InChI=1S/C7H10O2/c1-2-4-5-3-9-7(5)6(4)8/h4-5,7H,2-3H2,1H3	InChI=1S/C7H10O2/c1-2-4-5-3-9-7(5)6(4)8/h4-5,7H,2-3H2,1H3/t4-,5+,7+/m0/s1
