18
gdb 55001	2.76395	1.28147	1.11117	3.2677	74.21	-0.2434	-0.0312	0.2122	1182.4047	0.144193	-439.110218	-439.100323	-439.099379	-439.14626	34.287	
C	 0.3708241676	 0.6365569486	 0.753775852	-0.491904
C	-0.0886949632	-0.2897788122	-0.3456062744	 0.415866
O	 0.6461584266	-0.7106176131	-1.2093815108	-0.317199
C	-1.5523100332	-0.6899149054	-0.314298561	-0.12022
C	-2.1255920433	-1.2283967814	-1.6062893603	-0.253617
N	-1.8665924542	-2.0912621101	-0.4876520075	-0.082848
C	-0.9279158691	-3.1244663391	-0.3732995953	 0.407185
C	-1.0649936682	-4.2084313856	-1.420329214	-0.481845
O	-0.1373762157	-3.155919108	 0.5407413933	-0.345731
H	 1.4101151669	 0.923530303	 0.5933101346	 0.147079
H	-0.264231234	 1.5281819637	 0.8045864221	 0.136847
H	 0.2755924587	 0.1169326981	 1.7146383934	 0.164481
H	-2.192649635	-0.1503081186	 0.3789600083	 0.103174
H	-3.1706308851	-1.0466993038	-1.8431823625	 0.126971
H	-1.4316770025	-1.2525742851	-2.4426412704	 0.150238
H	-0.5689853424	-3.8803938149	-2.3408101305	 0.153916
H	-0.5744416659	-5.1143231348	-1.0644192296	 0.149655
H	-2.1129209078	-4.4093695014	-1.6564916175	 0.13795
31.1115	79.2385	98.5663	125.146	142.8844	196.5717	279.4984	308.1384	356.4763	419.98	565.5111	582.1751	592.5763	669.6126	689.0442	775.4988	926.0124	954.1516	982.533	1015.2138	1034.8908	1047.0766	1054.6889	1105.3844	1127.7186	1156.0633	1190.4593	1203.1617	1351.1941	1377.5408	1385.8968	1425.8895	1460.6719	1468.8067	1472.3512	1478.1477	1490.3059	1793.4208	1814.3441	3034.758	3046.9317	3096.2465	3105.3018	3115.5752	3142.4303	3158.3811	3161.7347	3204.0443
CC(=O)C1CN1C(C)=O	CC(=O)[C@H]1CN1C(=O)C	
InChI=1S/C6H9NO2/c1-4(8)6-3-7(6)5(2)9/h6H,3H2,1-2H3	InChI=1S/C6H9NO2/c1-4(8)6-3-7(6)5(2)9/h6H,3H2,1-2H3/t6-,7?/m1/s1
