21
gdb 69853	2.22188	2.05329	1.47597	1.8407	80.94	-0.2438	0.0817	0.3255	1003.0142	0.182859	-387.059844	-387.051855	-387.050911	-387.091552	32.951	
C	-0.0526609435	 1.4760572339	 0.0488697876	-0.496694
C	 0.0698727512	-0.0165450285	-0.0314787393	 0.400282
O	-0.5500016542	-0.7796876767	 1.0266119139	-0.307996
C	 0.8710544955	-0.8915912627	 0.8234818156	-0.024586
C	 1.3203351489	-1.9783013094	-0.1759463096	-0.081161
C	 0.0155722504	-2.2559488569	-0.9670076754	-0.251438
C	 0.1741914381	-0.7678178417	-1.3982135321	 0.257768
C	-0.5432566285	-0.1949225675	-2.5996410525	-0.51195
C	 1.7234564005	-1.0613987427	-1.3817747876	-0.257609
H	 0.7048334066	 1.9660943205	-0.5723378619	 0.12293
H	-1.0358884804	 1.8107031637	-0.3004350669	 0.127529
H	 0.0723866438	 1.8122915367	 1.0811361279	 0.129522
H	 1.4990355295	-0.5602174605	 1.6447973053	 0.092844
H	 1.9624447913	-2.7789261662	 0.1895547268	 0.062705
H	 0.1897314091	-2.9319430083	-1.8071586774	 0.088313
H	-0.8757612746	-2.5396282298	-0.4105751441	 0.114661
H	-1.6275098556	-0.1782451002	-2.4404853287	 0.123193
H	-0.2237571795	 0.8313682851	-2.8124332139	 0.115789
H	-0.3482479705	-0.7942574585	-3.494885731	 0.114643
H	 2.4010313798	-0.2242423823	-1.1830020125	 0.088043
H	 2.062627312	-1.6194392078	-2.2593863643	 0.093213
178.0591	205.7709	215.3037	240.0943	288.2022	339.9102	428.4208	475.4757	516.0769	554.8066	601.0162	625.9692	717.0013	808.561	840.2252	858.8862	868.5267	890.7879	904.6013	960.1922	987.3868	1003.4445	1007.3061	1029.3188	1063.6959	1091.265	1114.6932	1125.0319	1186.4799	1196.2554	1211.5787	1228.1857	1254.5449	1286.2111	1291.3434	1323.1459	1404.0413	1416.3062	1449.5059	1476.4555	1482.9118	1491.1774	1496.8505	1499.183	1515.7752	3025.9803	3032.7315	3040.9496	3077.9947	3089.2726	3092.3939	3096.0796	3102.358	3119.5273	3121.0086	3154.8242	3162.716
CC12OC1C1CC2(C)C1	C[C@]12O[C@H]1[C@H]1C[C@]2(C)C1	
InChI=1S/C8H12O/c1-7-3-5(4-7)6-8(7,2)9-6/h5-6H,3-4H2,1-2H3	InChI=1S/C8H12O/c1-7-3-5(4-7)6-8(7,2)9-6/h5-6H,3-4H2,1-2H3/t5-,6-,7+,8-/m0/s1
