22
gdb 22691	4.273	0.62918	0.58872	0.7267	86.76	-0.2373	0.0178	0.255	1934.362	0.192003	-404.304128	-404.293589	-404.292645	-404.341238	37.85	
C	-0.3357273673	 1.4538814044	-0.0237077116	-0.46845
C	 0.0159984594	-0.0108635601	-0.0311537447	 0.358234
C	 0.1393373189	-0.7639090702	 1.2670484812	-0.267869
C	 1.341170097	-0.310166198	 2.1207559764	-0.209254
C	 1.4260135005	-1.0451197503	 3.4414453363	 0.039156
C	 2.0874550715	-2.3988488823	 3.5194127603	-0.254411
C	 2.7458521675	-1.1966779092	 4.1526023632	-0.279309
N	 0.2294908641	-0.6830773623	-1.0980161657	-0.167871
O	 0.1091406868	 0.119578878	-2.2484899857	-0.402909
H	 0.5060247849	 2.057291071	-0.3807424946	 0.145308
H	-1.1658258222	 1.6455173165	-0.7100085971	 0.147312
H	-0.6087795639	 1.7938566143	 0.9773560118	 0.116272
H	-0.7825016922	-0.6243054464	 1.8493039583	 0.099582
H	 0.2289417548	-1.830921491	 1.0460012951	 0.117824
H	 2.2637883649	-0.4754944373	 1.550166698	 0.10256
H	 1.2813318199	 0.7707406929	 2.3044870868	 0.09817
H	 0.5579764804	-0.9089440159	 4.0830449059	 0.078808
H	 1.6566194225	-3.1531927853	 4.1684343154	 0.110034
H	 2.5302336499	-2.7966512939	 2.6116806295	 0.112779
H	 3.6295338194	-0.7914897016	 3.670067047	 0.110194
H	 2.7622041363	-1.1274539	 5.2347481514	 0.10988
H	 0.2667609467	-0.5173276233	-2.9529361772	 0.30396
42.7552	54.1855	70.411	98.4799	137.461	216.7358	288.7447	319.6947	369.1907	381.3847	402.8724	438.6669	552.079	646.2849	767.5315	776.7945	817.0159	822.8493	842.1205	922.0297	948.7457	976.5911	1000.6188	1022.5159	1039.8666	1058.2885	1067.6682	1079.7382	1138.0542	1146.6471	1197.8425	1225.953	1234.2701	1269.6673	1286.1894	1318.3789	1365.0178	1398.1159	1399.0449	1416.2494	1468.5538	1472.8307	1476.055	1484.1516	1495.9596	1507.6834	1727.8329	3009.5966	3016.9556	3042.0706	3053.3312	3098.7887	3100.355	3127.2667	3127.3201	3131.8005	3133.1635	3205.0834	3220.3156	3823.5239
CC(CCC1CC1)=NO	CC(=NO)CCC1CC1	
InChI=1S/C7H13NO/c1-6(8-9)2-3-7-4-5-7/h7,9H,2-5H2,1H3	InChI=1S/C7H13NO/c1-6(8-9)2-3-7-4-5-7/h7,9H,2-5H2,1H3
