15
gdb 15223	2.70672	2.03936	1.72129	3.3232	63.67	-0.2413	-0.0591	0.1822	829.4798	0.115851	-399.770732	-399.76246	-399.761516	-399.803538	28.656	
C	-0.4311454946	 1.3714408911	-0.1734223269	-0.327537
N	-0.0467188324	-0.0265741121	 0.0419615019	-0.096943
C	 1.2934132491	-0.5158684854	-0.3739683745	-0.107613
C	 2.3341026492	 0.406895999	-0.9012114584	 0.136856
O	 2.6180240864	 1.4762823589	-0.4096617209	-0.257218
C	 0.8784621478	-0.3882192492	 1.0731592116	-0.102296
C	 1.5336852927	 0.5940450305	 2.0197248708	 0.153941
O	 0.9662180163	 1.5365445156	 2.5054959552	-0.243682
H	 0.3846299833	 2.0931886279	-0.0804039656	 0.156738
H	-0.8673410002	 1.4437509363	-1.1739383904	 0.121362
H	-1.1980169833	 1.617903191	 0.5637958559	 0.144946
H	 1.2716769778	-1.4951355655	-0.8469266847	 0.104999
H	 2.8492107303	 0.0468181723	-1.8173245003	 0.096689
H	 0.6607580175	-1.3336878989	 1.5782446147	 0.126574
H	 2.57059611	 0.3213302083	 2.3131560516	 0.093183
93.1655	127.0808	148.1064	189.626	216.9954	230.5254	344.7993	372.4818	436.8788	641.6993	726.1108	774.4574	813.761	834.6786	971.5848	984.6857	1028.002	1066.3135	1098.5125	1132.1408	1166.8062	1176.9863	1318.0001	1358.8861	1400.8777	1415.6049	1423.0773	1455.0114	1482.1067	1508.9455	1791.512	1825.8369	2895.374	2905.313	3043.306	3068.1883	3116.2621	3133.4133	3135.6901
CN1C(C=O)C1C=O	CN1[C@@H](C=O)[C@H]1C=O	
InChI=1S/C5H7NO2/c1-6-4(2-7)5(6)3-8/h2-5H,1H3	InChI=1S/C5H7NO2/c1-6-4(2-7)5(6)3-8/h2-5H,1H3/t4-,5+,6?
