19
gdb 13168	3.51092	1.4094	1.06392	4.0313	75.63	-0.302	0.038	0.3399	1122.9273	0.165814	-327.940307	-327.931851	-327.930907	-327.973514	30.938	
C	 0.015984139	 1.5341987602	-0.0543959089	-0.396906
C	 0.0260932879	-0.0007801055	 0.0799455278	-0.166377
C	 0.696006368	-0.4075432642	 1.3210592914	 0.272844
N	 1.2079791166	-0.7285102903	 2.30665006	-0.329134
C	-1.385275897	-0.6028294878	 0.0177229095	 0.070134
C	-2.1649461272	-0.5068837329	-1.3243409007	-0.241529
C	-2.7026229672	-1.9402027134	-1.0622903391	-0.216427
C	-1.5513414568	-2.1460614004	-0.0406571171	-0.234349
H	 1.0306503542	 1.9394719047	-0.0404880524	 0.1363
H	-0.4579036111	 1.8184989769	-0.9978648702	 0.129848
H	-0.5454089765	 1.9909452192	 0.7656359554	 0.136507
H	 0.6113206385	-0.4219853457	-0.7490170013	 0.118537
H	-1.9843405594	-0.1885528656	 0.8360219221	 0.087193
H	-2.8894287784	 0.3025873236	-1.4379608173	 0.103076
H	-1.4810914688	-0.4848577612	-2.1799795971	 0.100884
H	-3.6806151767	-1.9219713352	-0.5737594838	 0.108563
H	-2.7529889991	-2.6230646569	-1.912751054	 0.102695
H	-0.681009956	-2.6221724361	-0.5042599092	 0.104936
H	-1.77381417	-2.6666561394	 0.892503355	 0.113204
72.1715	118.9324	133.1158	209.4723	229.3749	257.5926	376.6361	388.029	497.0259	574.9873	650.4053	761.9435	785.2076	849.0055	895.7899	934.1313	948.1721	960.8728	998.2599	1021.4888	1066.8975	1104.6538	1121.9502	1186.1054	1204.9693	1235.4216	1256.9947	1262.4488	1274.1699	1292.0579	1305.4722	1330.4926	1378.4098	1412.2255	1478.1232	1486.3861	1494.1753	1499.2281	1509.2445	2353.5597	3016.5321	3043.3487	3047.4229	3049.165	3057.0638	3063.641	3102.8949	3112.1072	3123.1887	3124.9289	3127.8659
CC(C#N)C1CCC1	C[C@@H](C#N)C1CCC1	
InChI=1S/C7H11N/c1-6(5-8)7-3-2-4-7/h6-7H,2-4H2,1H3	InChI=1S/C7H11N/c1-6(5-8)7-3-2-4-7/h6-7H,2-4H2,1H3/t6-/m0/s1
