19
gdb 53206	3.57317	0.96579	0.83278	1.6062	86.38	-0.2414	0.0215	0.2629	1436.7504	0.15844	-385.876948	-385.867549	-385.866604	-385.912122	34.112	
C	-0.0699696261	 1.5039156191	-0.0011096161	-0.500686
C	-0.0504867709	 0.0477252053	 0.036612913	 0.088161
C	-0.0045300486	-1.1570238769	 0.0658247084	 0.030607
C	 0.0050374178	-2.6156195569	 0.103237093	-0.23414
C	 0.6592380254	-3.2375854427	 1.3277843178	-0.059619
C	-0.03344901	-4.280733116	 1.774552758	-0.066824
C	-1.2761221388	-4.534056259	 0.9562309911	-0.268168
C	-1.4389701391	-3.2393272319	 0.1325048066	 0.126425
O	-2.3582234604	-2.4178439876	 0.8210119516	-0.437494
H	 0.9343154073	 1.9059129028	-0.1743773502	 0.151926
H	-0.7164710182	 1.874020543	-0.8043649176	 0.149702
H	-0.4368918487	 1.9236950623	 0.9417922036	 0.151513
H	 0.5193025325	-2.9780182582	-0.8006153158	 0.105755
H	 1.5917807871	-2.8620435368	 1.7309552961	 0.100401
H	 0.2550681277	-4.9073412989	 2.6111545138	 0.094696
H	-1.1506778219	-5.4103836299	 0.305784525	 0.102593
H	-2.1727319733	-4.7049995706	 1.5601469434	 0.121818
H	-1.7888009873	-3.4360563823	-0.8910142566	 0.063382
H	-2.1788905145	-1.5043883049	 0.5623719049	 0.279954
41.2274	76.3838	91.2687	143.7851	270.0951	280.7795	349.1289	375.4279	379.2224	418.5589	478.1042	532.1067	700.4949	763.523	801.2251	820.6332	870.6837	906.3247	956.8792	970.3715	1002.6843	1024.0041	1052.0196	1055.0787	1097.5088	1125.66	1177.9433	1191.7514	1226.4271	1267.3139	1306.9228	1323.8294	1342.8542	1378.428	1413.0871	1422.1697	1471.6116	1477.9135	1479.5049	1686.7884	2359.2574	2974.4341	2994.7639	3021.8599	3028.483	3080.9088	3089.5588	3090.5913	3188.5704	3217.0597	3751.699
CC#CC1C=CCC1O	CC#C[C@H]1C=CC[C@H]1O	
InChI=1S/C8H10O/c1-2-4-7-5-3-6-8(7)9/h3,5,7-9H,6H2,1H3	InChI=1S/C8H10O/c1-2-4-7-5-3-6-8(7)9/h3,5,7-9H,6H2,1H3/t7-,8+/m0/s1
