17
gdb 107774	2.70915	1.75432	1.31209	2.8376	71.9	-0.2216	0.0045	0.2262	993.204	0.135234	-421.780863	-421.773013	-421.772069	-421.813315	29.836	
C	 0.0271528761	 1.3790168425	-0.0341437224	-0.277184
O	 0.0444640002	-0.0441927848	 0.0400716753	-0.296186
C	-1.2033641655	-0.6079479742	 0.0387100207	 0.311305
C	-2.2052304834	-0.5061556561	 1.2336431884	-0.313199
C	-2.7090020166	-1.8751825698	 0.7621918903	-0.068088
C	-2.7505979401	-1.8720221746	-0.7753370649	-0.193374
C	-1.4547535271	-2.1732339608	 0.0149212045	-0.147588
C	-2.1251894518	-0.5869372519	-1.2134820718	 0.381601
O	-2.1233614778	 0.0531201738	-2.2292605682	-0.353287
H	 1.0696771197	 1.701628538	-0.0480607526	 0.132097
H	-0.4766977841	 1.7191495544	-0.9446026646	 0.150023
H	-0.4696171657	 1.8178010628	 0.8427536863	 0.112639
H	-1.6816247684	-0.5892093541	 2.1898415323	 0.114777
H	-2.904575855	 0.3365606927	 1.249375605	 0.103617
H	-3.3423877972	-2.5690565349	 1.2996410224	 0.105899
H	-3.3562677279	-2.5685607691	-1.3378185105	 0.114985
H	-0.7917088854	-3.018190864	-0.0808459803	 0.121962
84.444	149.2694	173.9084	206.0479	288.8383	381.7985	411.3968	484.3311	607.3869	684.4236	720.6885	753.5301	799.0557	814.4878	846.2762	887.1196	924.2894	987.8753	1004.5839	1017.6956	1034.9872	1054.6632	1086.456	1109.1754	1142.1917	1179.5241	1185.2694	1212.0536	1242.4302	1284.8156	1337.5929	1363.4546	1483.0307	1488.1154	1498.9623	1510.5196	1870.111	3003.5837	3042.5251	3084.6942	3108.5173	3136.5463	3197.4159	3222.8578	3253.7154
COC12CC3C(C13)C2=O	CO[C@]12C[C@H]3[C@H]([C@@H]13)C2=O	
InChI=1S/C7H8O2/c1-9-7-2-3-4(5(3)7)6(7)8/h3-5H,2H2,1H3	InChI=1S/C7H8O2/c1-9-7-2-3-4(5(3)7)6(7)8/h3-5H,2H2,1H3/t3-,4+,5-,7+/m0/s1
