14
gdb 15208	2.52606	1.98273	1.53	3.0774	68.33	-0.2467	0.0074	0.2541	874.6062	0.106481	-341.542373	-341.534294	-341.53335	-341.574756	29.415	
N	 0.0645094654	 1.4375575254	 0.117360996	-0.511877
C	-0.0067862921	 0.0224682264	-0.0146962748	 0.010472
C	-1.3504020839	-0.6626406973	 0.0017010405	-0.233398
C	-2.5533276668	 0.1123853412	 0.0520826516	 0.331772
C	-3.5544972178	 0.776422682	 0.1013371041	-0.430245
C	-0.5000302193	-0.69595655	-1.2867788715	-0.231148
C	-0.8811237313	 0.0914867173	-2.4182841021	 0.296876
N	-1.1569717945	 0.747224358	-3.3311214295	-0.335134
H	 0.7699943682	 1.8361010203	-0.4930740765	 0.246921
H	-0.8252568605	 1.8753911346	-0.0982152818	 0.252584
H	 0.7907513411	-0.5083387779	 0.4982625951	 0.120644
H	-1.3962741335	-1.6149523528	 0.5210160716	 0.134126
H	-4.4460534527	 1.352953046	 0.134583441	 0.211304
H	-0.0506150424	-1.6533215632	-1.5285601937	 0.137103
95.7363	125.1232	154.5337	214.9622	252.0807	354.1066	390.0628	451.3689	588.7519	620.7515	653.363	663.0905	670.92	735.0187	773.2955	828.2484	888.9154	962.5963	981.3449	1083.647	1111.4556	1149.0963	1239.9025	1279.1201	1354.4915	1370.3532	1429.2918	1655.7965	2240.7522	2350.7833	3143.6442	3156.2564	3171.406	3501.9895	3508.1163	3589.5715
NC1C(C#C)C1C#N	N[C@H]1[C@@H](C#C)[C@H]1C#N	
InChI=1S/C6H6N2/c1-2-4-5(3-7)6(4)8/h1,4-6H,8H2	InChI=1S/C6H6N2/c1-2-4-5(3-7)6(4)8/h1,4-6H,8H2/t4-,5+,6-/m0/s1
