19
gdb 99912	2.0983	1.41163	1.21164	2.7582	75.92	-0.2549	0.0119	0.2668	1158.7184	0.157737	-419.179185	-419.169356	-419.168412	-419.213864	35.381	
C	 0.0177281136	 1.3848486819	 0.1428864822	-0.261718
O	 0.0799907243	-0.0283870892	 0.0194743856	-0.274066
C	 0.6763570265	-0.5546967186	-1.1541596429	 0.175699
C	-0.1138441137	-0.1989241356	-2.4266468576	-0.426789
C	 2.0730270041	-0.062801588	-1.2821568769	 0.269178
N	 3.1561930322	 0.327594071	-1.3833073978	-0.341314
C	 0.7224933467	-2.0772239353	-0.9704671722	 0.004689
C	 0.982241549	-2.6734224282	 0.3575211068	-0.238823
N	-0.3610422907	-2.7511489021	-0.2535566571	-0.334291
H	 1.0101593397	 1.8413834871	 0.042453711	 0.14207
H	-0.661959943	 1.833325995	-0.5917109894	 0.121979
H	-0.3667150305	 1.5827297938	 1.1451114773	 0.141457
H	-0.1192073388	 0.8769080205	-2.6126002076	 0.135452
H	 0.3339280433	-0.6883238625	-3.2950866714	 0.142358
H	-1.1418792718	-0.5524930403	-2.3135974135	 0.141735
H	 1.0676923661	-2.5938458966	-1.86244175	 0.106175
H	 1.5132505649	-3.6178007241	 0.4261045536	 0.123335
H	 1.1231235154	-1.994005756	 1.1914376056	 0.128997
H	-0.9471114676	-2.0414731028	 0.1818362243	 0.243878
81.9269	92.3868	147.0874	169.2615	198.9164	220.4294	227.1436	291.9572	352.6583	391.5674	440.732	486.6647	587.7217	600.0757	689.6472	830.4866	876.7494	911.311	930.2767	974.6732	996.7562	1090.8317	1108.721	1125.0146	1146.0914	1167.3219	1184.4075	1189.3399	1232.3593	1239.1288	1279.2096	1311.6873	1399.9404	1411.3869	1477.1604	1482.8609	1488.8647	1501.1294	1506.5852	1510.6342	2348.2615	3015.3111	3054.908	3078.6736	3124.767	3132.4019	3133.5201	3140.4174	3142.5676	3217.3272	3499.4165
COC(C)(C#N)C1CN1	CO[C@@](C)(C#N)[C@H]1CN1	
InChI=1S/C6H10N2O/c1-6(4-7,9-2)5-3-8-5/h5,8H,3H2,1-2H3	InChI=1S/C6H10N2O/c1-6(4-7,9-2)5-3-8-5/h5,8H,3H2,1-2H3/t5-,6+/m1/s1
