21
gdb 88391	2.18217	1.28175	1.1465	1.4457	79.18	-0.2457	-0.0304	0.2153	1232.7348	0.179119	-424.221788	-424.211459	-424.210515	-424.25741	38.014	
C	 0.0922562389	 1.2299154229	-0.5313577196	-0.445192
C	 0.6686097954	-0.1484480436	-0.2667396892	-0.006168
C	 2.1550346134	-0.4109983642	-0.3521163076	-0.321052
C	 1.4425223954	-0.5707587955	 0.9655963055	 0.003651
C	 1.7693080829	 0.2938994007	 2.1755278662	 0.205899
C	 3.0851059619	-0.1609947027	 2.8270661901	-0.399657
O	 1.9538105801	 1.677566077	 1.8865561128	-0.461818
C	 0.67705979	 0.1662766677	 3.2461160715	 0.123216
O	-0.0767710165	-0.7623270837	 3.3698049809	-0.250486
H	 0.8326607525	 2.021976743	-0.3912957905	 0.12687
H	-0.2481098293	 1.3006143357	-1.5699707099	 0.124063
H	-0.7775196059	 1.4408451672	 0.1037153542	 0.117116
H	 0.0369964477	-0.9437728804	-0.6547197804	 0.091627
H	 2.5189472863	-1.2927895355	-0.8682557972	 0.109716
H	 2.7886410652	 0.4647906139	-0.4540528376	 0.120905
H	 1.2353498933	-1.589973812	 1.2768480283	 0.10174
H	 3.9054070898	 0.0143635011	 2.1260980857	 0.136034
H	 3.2824978836	 0.4108788675	 3.7387813747	 0.124169
H	 3.0470679252	-1.2245770635	 3.0748193365	 0.130072
H	 1.1186780126	 2.0376029299	 1.5717465642	 0.285734
H	 0.6542038076	 1.0429446746	 3.9362026912	 0.083561
36.0535	75.1536	141.6347	177.764	227.211	258.2327	262.5849	285.9079	321.951	367.1088	391.8311	423.6807	470.4418	573.3933	633.7741	698.0948	773.5222	858.4606	889.2162	899.3206	935.4136	982.9734	986.9046	1036.4691	1078.0315	1080.1663	1090.7626	1121.4533	1153.2036	1192.1112	1198.3469	1220.1428	1272.5839	1341.785	1386.4555	1393.825	1402.539	1414.947	1423.1047	1480.6364	1492.7056	1494.0082	1507.6942	1514.4804	1834.5134	2858.4377	3021.6142	3044.7129	3080.4332	3105.097	3119.7038	3126.9193	3133.9445	3135.6989	3159.2062	3213.1904	3824.5082
CC1CC1C(C)(O)C=O	C[C@H]1C[C@H]1[C@@](C)(O)C=O	
InChI=1S/C7H12O2/c1-5-3-6(5)7(2,9)4-8/h4-6,9H,3H2,1-2H3	InChI=1S/C7H12O2/c1-5-3-6(5)7(2,9)4-8/h4-6,9H,3H2,1-2H3/t5-,6+,7-/m0/s1
