21
gdb 119312	2.19621	1.20103	0.9173	2.5409	79.16	-0.2434	-0.0323	0.2111	1379.5293	0.180034	-424.223812	-424.213733	-424.212789	-424.259793	35.614	
C	 0.0639691134	 1.5804736238	-0.1071480703	-0.38335
C	-0.0300523583	 0.0587575267	 0.028201975	-0.177315
C	 0.9279031662	-0.4982367348	 1.0890988448	-0.234158
C	 0.7844513188	-1.9994446151	 1.3020965965	 0.327694
C	 1.3549864746	-2.5749140963	 2.6356480184	-0.342536
C	-0.1141035453	-2.9026468203	 2.9594377986	-0.06771
O	-0.5581524648	-2.3998799999	 1.6809827885	-0.320104
C	 1.2469614179	-2.8152689455	 0.1019063904	 0.123829
O	 2.1266481409	-2.4871246001	-0.6512598215	-0.254324
H	 1.0740275876	 1.8922952496	-0.3953134305	 0.116566
H	-0.6289123371	 1.9536587589	-0.8675397646	 0.11329
H	-0.1793712208	 2.0792988763	 0.8377986133	 0.111745
H	-1.0527503327	-0.2312620586	 0.2939279556	 0.114875
H	 0.1890568194	-0.407872294	-0.9392352503	 0.110342
H	 1.9678997306	-0.3021341741	 0.8017074672	 0.117754
H	 0.7511338179	 0.0066389901	 2.0468720676	 0.0907
H	 2.0129201319	-3.4398568322	 2.5302452483	 0.121616
H	 1.8402300897	-1.8318693569	 3.2697754883	 0.123998
H	-0.3499022874	-3.9657247968	 3.0829089851	 0.110254
H	-0.5542822019	-2.3428565043	 3.7930565129	 0.109802
H	 0.7042913996	-3.7827418566	-0.0026941432	 0.087032
66.8355	71.506	88.7461	105.9604	149.5444	241.769	256.8375	266.7629	324.6062	394.5075	429.2484	523.9248	737.1003	770.9932	786.3785	851.2868	871.0473	898.5496	922.5504	950.174	976.5623	1027.2908	1039.9236	1059.3317	1074.5865	1143.802	1162.7332	1179.0797	1207.3411	1250.4139	1256.4402	1296.8635	1313.8089	1337.3948	1352.179	1388.7395	1401.8224	1413.2193	1467.1226	1488.125	1494.2557	1500.9369	1508.874	1531.5201	1827.4362	2876.8229	3023.0249	3024.6935	3029.008	3040.0198	3062.3246	3065.1563	3078.1023	3079.3021	3100.5471	3103.4014	3135.041
CCCC1(CCO1)C=O	CCC[C@]1(CCO1)C=O	
InChI=1S/C7H12O2/c1-2-3-7(6-8)4-5-9-7/h6H,2-5H2,1H3	InChI=1S/C7H12O2/c1-2-3-7(6-8)4-5-9-7/h6H,2-5H2,1H3/t7-/m0/s1
