20
gdb 87227	4.31867	0.71248	0.68162	4.5131	80.37	-0.2663	0.039	0.3053	1655.8432	0.169147	-403.152081	-403.142039	-403.141095	-403.187366	36.574	
C	-0.0264681486	 1.6807927587	 0.2064592963	-0.465425
C	-0.0667949275	 0.1690954393	 0.0823702841	 0.331195
C	-1.3797131043	-0.4210889611	-0.4064002524	-0.265182
C	-1.6981863743	-0.0374122893	-1.8692453195	-0.340932
C	-2.9236339518	-0.6657132099	-2.3557961922	 0.258776
N	-3.8946383612	-1.1736155303	-2.723069978	-0.306449
C	 1.213416924	-0.5494271345	-0.3248767995	-0.369769
C	 0.6991792132	-0.6447376156	 1.0924413829	 0.056584
O	 1.350065766	 0.0457128783	 2.1173440656	-0.421642
H	 0.8856024694	 2.0013933178	 0.7117733603	 0.138067
H	-0.0642984196	 2.1686672657	-0.7735765181	 0.112894
H	-0.8762622026	 2.0440520648	 0.7958709243	 0.120129
H	-1.3482904827	-1.5133461889	-0.3345776551	 0.116194
H	-2.2024350352	-0.0875805434	 0.2369531441	 0.122066
H	-1.8046892358	 1.0478330223	-1.9690457122	 0.155251
H	-0.8691944002	-0.3339057568	-2.5221973209	 0.152786
H	 1.1493518452	-1.427087333	-0.9609398582	 0.11064
H	 2.0944800402	 0.0637702554	-0.4836794133	 0.115594
H	 0.2537792005	-1.591887178	 1.3993472354	 0.088153
H	 2.191080395	-0.3921453412	 2.2841008264	 0.291069
63.2765	89.7824	102.5098	183.1754	201.4767	258.7137	270.5878	294.1955	344.3861	367.8401	407.083	469.0548	522.7538	578.5767	716.0406	767.4964	825.0986	892.8461	923.1656	956.8192	979.0682	1001.7377	1012.065	1039.4447	1065.2348	1113.0771	1114.919	1179.2008	1202.1698	1270.5326	1279.2036	1306.2072	1310.3802	1360.1735	1384.6829	1416.1217	1424.8919	1467.6283	1483.7676	1489.1012	1500.2989	1504.9826	2361.3779	3030.7709	3035.6288	3049.6485	3072.3574	3087.526	3089.4182	3096.0241	3123.2188	3138.6114	3212.4752	3809.9063
CC1(CCC#N)CC1O	C[C@@]1(CCC#N)C[C@H]1O	
InChI=1S/C7H11NO/c1-7(3-2-4-8)5-6(7)9/h6,9H,2-3,5H2,1H3	InChI=1S/C7H11NO/c1-7(3-2-4-8)5-6(7)9/h6,9H,2-3,5H2,1H3/t6-,7-/m1/s1
