13
gdb 129658	2.44046	1.91561	1.07637	5.6883	68.63	-0.2246	-0.0781	0.1465	1010.3765	0.089275	-486.05387	-486.046039	-486.045094	-486.085973	29.536	
N	-0.0315004237	 1.4030816033	 0.12940321	-0.580589
C	-0.0460595359	 0.015456381	 0.0417780719	 0.322849
C	-1.2003812871	-0.713829598	 0.0049865466	 0.089147
N	-2.4603247238	-0.1718501688	 0.0010262862	-0.590127
C	-1.1022107036	-2.1625698782	-0.0773464581	 0.465869
O	-2.0584964254	-2.9017134755	-0.1263976124	-0.370798
O	 0.1646017025	-2.6686552563	-0.0809195031	-0.261663
N	 1.3454750201	-1.8336440374	 0.0059227372	 0.018434
N	 1.1792078235	-0.607086923	 0.0495111972	-0.167328
H	 0.9009188112	 1.7828590341	 0.0299788187	 0.267109
H	-0.6860655071	 1.8579949514	-0.4958661442	 0.261652
H	-2.5854989876	 0.675758622	 0.5367955891	 0.26486
H	-3.1852494833	-0.8668438847	 0.1278697808	 0.280585
122.7945	177.2004	233.2486	259.7696	300.8114	325.9422	456.7191	487.1565	524.6817	539.1732	549.5815	637.3361	651.6169	668.3209	734.798	790.3482	801.3382	909.6804	989.2481	1092.8731	1171.7541	1302.2691	1366.7257	1424.5731	1548.3225	1621.106	1639.9501	1698.5279	1800.4587	3530.468	3540.183	3636.1092	3654.1045
NC1=C(N)C(=O)ON=N1	NC1=N[N]OC(=O)[C]1N	
InChI=1S/C3H4N4O2/c4-1-2(5)6-7-9-3(1)8/h4-5H2	InChI=1S/C3H4N4O2/c4-1-2(5)6-7-9-3(1)8/h4-5H2
