21
gdb 94845	3.85697	1.04251	0.98283	1.7751	78.01	-0.2456	0.0612	0.3067	1294.381	0.183133	-424.212525	-424.20386	-424.202916	-424.247241	32.402	
C	 0.036941477	 1.5743353645	 0.1690614563	-0.408869
C	 0.043467425	 0.0615499481	 0.0473038843	 0.16499
C	 0.6864443515	-0.5035947444	-1.2443872116	-0.35262
C	 1.5078963423	-1.7208948685	-0.7698144603	 0.297883
C	 1.486462883	-3.0506854423	-1.5552915255	-0.131168
O	 2.9231492871	-3.0749692003	-1.6545676102	-0.272615
C	 3.0241296739	-1.7558976541	-1.083772859	-0.11822
C	 1.1325751898	-1.80963498	 0.7197671288	-0.151723
O	 0.8173624241	-0.4894706475	 1.1125316299	-0.256953
H	 1.055733735	 1.9666541118	 0.0901838973	 0.121823
H	-0.5706284098	 2.0192268562	-0.6250011921	 0.117033
H	-0.3775560368	 1.8815912393	 1.1331573419	 0.12747
H	-0.9896308821	-0.3187068897	 0.129498003	 0.063318
H	-0.0704515286	-0.781540868	-1.983651554	 0.104879
H	 1.336829429	 0.2443148282	-1.7096553585	 0.105948
H	 1.0949244029	-3.9240842665	-1.0166220115	 0.099907
H	 1.0060438961	-2.9979331917	-2.5421969093	 0.095657
H	 3.3542104008	-1.0160675873	-1.8262616735	 0.09419
H	 3.7034835405	-1.725457557	-0.222628342	 0.103732
H	 0.2595317907	-2.47550969	 0.8449384353	 0.082187
H	 1.9396467285	-2.1788300906	 1.3582615808	 0.113151
20.2669	75.2286	178.4964	231.6201	249.2998	315.2452	376.4824	391.0211	431.1107	486.7501	633.7685	766.7132	838.1011	854.14	875.2156	904.845	914.9452	948.8982	980.4538	994.003	1039.5271	1051.6334	1074.7422	1117.3002	1145.7011	1156.6553	1157.9498	1165.4226	1203.945	1233.4291	1247.8228	1272.7656	1308.6289	1311.3713	1356.1691	1381.9206	1386.5609	1400.0743	1414.7195	1484.0297	1489.3976	1498.7592	1505.7437	1513.3457	1535.6812	2939.305	2947.5012	2989.877	3002.345	3037.6921	3039.9793	3045.0537	3048.3598	3090.9241	3091.2416	3114.1565	3119.6118
CC1CC2(COC2)CO1	C[C@H]1CC2(COC2)CO1	
InChI=1S/C7H12O2/c1-6-2-7(5-9-6)3-8-4-7/h6H,2-5H2,1H3	InChI=1S/C7H12O2/c1-6-2-7(5-9-6)3-8-4-7/h6H,2-5H2,1H3/t6-/m0/s1
