17
gdb 124997	2.09096	1.63775	0.96811	2.1635	71.44	-0.2198	0.0212	0.241	1185.6566	0.136467	-455.169326	-455.160152	-455.159208	-455.203414	33.297	
C	 0.1087648861	 1.471425169	 0.0237903036	-0.510854
C	 0.099207974	-0.0169240639	-0.0984274359	 0.313334
C	 0.0108950233	-0.8281774959	-1.2232985294	-0.002854
C	-0.0671541586	-0.4093552936	-2.6581680533	-0.19419
O	 0.9852454251	 0.4805666897	-3.0437497538	-0.413405
C	 0.0457402428	-2.1399124675	-0.6922414195	 0.350143
O	-0.0110987801	-3.2726979603	-1.4264710402	-0.431814
N	 0.1424151047	-2.1684814256	 0.6268803295	-0.3438
N	 0.1727126267	-0.8498715658	 0.964651898	-0.271725
H	 0.727591361	 1.8024297809	 0.8643081826	 0.124729
H	 0.5093391109	 1.9041305365	-0.8950174808	 0.165909
H	-0.9003036773	 1.8729620709	 0.1764254585	 0.140015
H	-0.0837223379	-1.3058497817	-3.2931358245	 0.111775
H	-0.9873530493	 0.1480043796	-2.8660718244	 0.112917
H	 1.8141573062	 0.049309743	-2.809814621	 0.278669
H	 0.0387158769	-4.0126430198	-0.8084666093	 0.302595
H	 0.2674124157	-0.6002760754	 1.9338166601	 0.268555
66.389	119.9496	145.2968	187.011	224.4682	280.0915	349.1356	360.5392	392.011	416.3732	461.1825	523.9076	605.4523	663.8425	716.6424	754.206	806.954	949.895	1002.9657	1027.0798	1061.9162	1093.2514	1151.9527	1213.3598	1225.9356	1274.8091	1323.1342	1373.6155	1411.0271	1424.5267	1449.0426	1486.4106	1499.2745	1508.8941	1545.6606	1565.0834	1633.5599	3012.8008	3029.6026	3059.2433	3085.7977	3136.981	3678.7971	3796.1945	3807.7503
CC1=C(CO)C(O)=NN1	Cc1c(CO)c(O)n[nH]1	
InChI=1S/C5H8N2O2/c1-3-4(2-8)5(9)7-6-3/h8H,2H2,1H3,(H2,6,7,9)	InChI=1S/C5H8N2O2/c1-3-4(2-8)5(9)7-6-3/h8H,2H2,1H3,(H2,6,7,9)
