21
gdb 57571	2.74094	1.19989	1.08853	2.3606	77.82	-0.263	0.0798	0.3428	1228.9485	0.180194	-424.18104	-424.171412	-424.170468	-424.215478	35.904	
C	-0.070700275	 1.6586428782	 0.2496833877	-0.44308
C	 0.0982281508	 0.1324190711	 0.168954697	 0.183822
C	 0.9765452059	-0.3867457124	 1.3193636386	-0.44308
C	-1.2441290927	-0.598220908	 0.2312000252	 0.090793
C	-2.4522388877	-0.0839113364	 0.8865695204	-0.194066
O	-2.3274490307	-0.0704645396	-0.5391507852	-0.248017
C	 0.6868082954	-0.2070009187	-1.2014481785	 0.090798
C	 2.1137319234	-0.4105903327	-1.4771061876	-0.194068
O	 1.2157100795	-1.5218940831	-1.393413069	-0.248016
H	 0.8775507907	 2.156373268	 0.0250220034	 0.115172
H	-0.8229411107	 2.0070734526	-0.4632311619	 0.137278
H	-0.3763624571	 1.970578647	 1.2528317717	 0.114938
H	 0.4480380144	-0.2885697953	 2.2724800733	 0.115172
H	 1.232743571	-1.4393579966	 1.1714336981	 0.137278
H	 1.9054316534	 0.1860213325	 1.3977844794	 0.114937
H	-1.1446511104	-1.6823518588	 0.1513596351	 0.10547
H	-3.1859460622	-0.7845893725	 1.2828027634	 0.115966
H	-2.4469391742	 0.8947918468	 1.3611115894	 0.113632
H	 0.063614863	 0.1336769309	-2.0304119497	 0.105471
H	 2.5020605325	-0.2001668847	-2.472695736	 0.115968
H	 2.8445171307	-0.3442981885	-0.6742145547	 0.113632
75.1174	75.211	172.7431	213.7545	238.1058	252.4661	275.9996	296.5029	332.4846	371.1313	436.9755	530.0448	576.8724	690.1061	810.8813	860.8713	863.8996	898.7432	937.1519	954.6984	957.615	1004.9616	1019.9988	1065.2066	1098.6205	1107.9233	1156.1008	1158.5192	1181.3384	1181.475	1183.4097	1241.2159	1258.0885	1308.0542	1314.4898	1393.2042	1398.5113	1428.5389	1442.9338	1490.8615	1491.2553	1505.9982	1517.8232	1529.6427	1532.1559	3038.6174	3041.8212	3088.6259	3089.2978	3097.3285	3097.9162	3104.7956	3107.8797	3121.8031	3122.1012	3176.9666	3177.1029
CC(C)(C1CO1)C1CO1	CC(C)([C@H]1CO1)[C@H]1CO1	
InChI=1S/C7H12O2/c1-7(2,5-3-8-5)6-4-9-6/h5-6H,3-4H2,1-2H3	InChI=1S/C7H12O2/c1-7(2,5-3-8-5)6-4-9-6/h5-6H,3-4H2,1-2H3/t5-,6-/m1/s1
