18
gdb 19262	3.22451	1.79305	1.31964	3.0938	72.03	-0.2346	-0.0093	0.2253	973.322	0.153616	-347.800415	-347.7926	-347.791655	-347.832718	29.3	
C	 0.0349452332	 1.5395941655	 0.1152496068	-0.380605
C	 0.0508504108	 0.0301538022	-0.1560490806	-0.205614
C	-1.3352260755	-0.5947288812	-0.0083971283	-0.099185
C	-1.5405386472	-2.1204424802	-0.1056861497	-0.077159
C	-0.8795065711	-2.8157613408	 1.0303455357	-0.281946
C	-2.2325922362	-2.1561026235	 1.2805943487	-0.167739
C	-2.0351599809	-0.6726284786	 1.3820082629	 0.405982
O	-2.4054730432	 0.1661792839	 2.1559601799	-0.324601
H	 1.041022408	 1.9634393203	 0.0431355164	 0.109849
H	-0.6008183967	 2.0622395714	-0.6080166075	 0.113777
H	-0.3594404886	 1.7522531972	 1.112788657	 0.145557
H	 0.4242168096	-0.1653118844	-1.1696663193	 0.098664
H	 0.755439246	-0.4579587632	 0.5274928748	 0.098014
H	-2.0425369609	-0.0781391088	-0.6718717427	 0.10071
H	-1.8689156986	-2.6423514403	-0.9949708824	 0.101958
H	-0.9213529257	-3.9001882304	 1.0205988149	 0.126568
H	 0.0182487078	-2.4160642673	 1.4914509416	 0.125929
H	-3.0806931209	-2.7283658317	 1.6346874217	 0.109841
85.2376	122.4859	169.7733	216.3567	271.9491	343.1854	462.8196	489.0484	609.4202	697.4787	736.6774	777.2832	835.5875	844.6597	908.9343	939.3663	948.046	987.7126	1006.5203	1047.0695	1076.2547	1089.7403	1099.4911	1115.4308	1161.1642	1173.02	1214.7402	1279.1447	1289.7078	1324.8033	1344.1951	1378.8084	1414.9933	1487.6171	1498.6878	1499.6857	1510.8076	1873.425	3021.1108	3022.1459	3036.6469	3059.8952	3102.5553	3121.37	3125.6068	3196.1516	3200.8768	3212.1168
CCC1C2CC2C1=O	CC[C@H]1[C@H]2C[C@H]2C1=O	
InChI=1S/C7H10O/c1-2-4-5-3-6(5)7(4)8/h4-6H,2-3H2,1H3	InChI=1S/C7H10O/c1-2-4-5-3-6(5)7(4)8/h4-6H,2-3H2,1H3/t4-,5+,6+/m0/s1
