20
gdb 78668	2.60722	1.59313	1.2078	2.1456	78.62	-0.2159	0.0708	0.2867	1102.8945	0.169994	-403.072472	-403.063889	-403.062944	-403.104947	33.933	
C	-0.078386535	 1.4808868525	 0.0164388904	-0.396049
C	 0.0170121456	-0.0340071553	-0.0519977671	 0.04646
C	 0.8301031388	-0.5936510942	-1.2057957386	-0.162872
C	 2.0530895695	-0.5689399158	-0.3239256707	-0.082564
N	 1.1022440083	-0.5466107075	 0.893530911	-0.194659
C	 1.0141648775	-2.0690465919	 0.7631162512	 0.007156
C	-0.2753227138	-2.7756602926	 1.1461798075	-0.436435
C	 1.4842404806	-1.8997696503	-0.6756405751	 0.342873
O	 2.0567203674	-2.8307493459	-1.5172572789	-0.463876
H	 0.8966443896	 1.9453867393	-0.1598328977	 0.118829
H	-0.7790459402	 1.8596166069	-0.7356946316	 0.108012
H	-0.4314689276	 1.7909396334	 1.0046938418	 0.121642
H	-0.9690450863	-0.4702204547	 0.1407988254	 0.062982
H	 0.774356302	-0.4062360777	-2.2723592486	 0.085689
H	 3.0367245927	-0.126238014	-0.3778090371	 0.1025
H	 1.8392774718	-2.4648365988	 1.3659117632	 0.084613
H	-1.1009041915	-2.5631202466	 0.4621331628	 0.116933
H	-0.1164524031	-3.8592364012	 1.1459553866	 0.119902
H	-0.5819469368	-2.4846104201	 2.1567759989	 0.130196
H	 1.3556264803	-3.2691943855	-2.0117521534	 0.288668
160.5128	189.8506	208.0832	225.8447	241.0556	263.5773	307.6528	373.3889	413.7928	509.877	579.6915	634.4105	708.9299	772.7781	791.6084	835.0155	854.3597	891.9024	910.8632	934.33	948.6177	1018.0017	1039.4853	1074.0974	1092.2658	1117.8453	1128.6403	1130.6071	1155.5966	1213.7633	1220.8383	1268.4542	1296.7485	1301.0627	1378.2074	1397.5566	1404.2341	1410.3891	1450.7337	1488.4512	1490.5599	1493.4734	1503.6389	3033.442	3034.8582	3042.2109	3047.1162	3100.4409	3103.4345	3113.3131	3116.8695	3175.0254	3225.5043	3795.7108
CC1C2C3N1C(C)C23O	C[C@H]1[C@H]2[C@H]3N1[C@@H](C)[C@@]23O	
InChI=1S/C7H11NO/c1-3-5-6-7(5,9)4(2)8(3)6/h3-6,9H,1-2H3	InChI=1S/C7H11NO/c1-3-5-6-7(5,9)4(2)8(3)6/h3-6,9H,1-2H3/t3-,4-,5-,6+,7+/m0/s1
