15
gdb 6946	2.73086	2.41469	1.77459	1.7448	60.82	-0.2706	-0.0251	0.2455	794.619	0.118347	-399.857538	-399.850034	-399.84909	-399.889064	27.612	
C	-0.0210510489	 1.5412715554	-0.011076256	-0.404587
C	-0.0108421642	 0.0054854904	-0.0152097257	 0.097992
C	-1.4357004438	-0.5655102761	-0.0661235191	-0.404576
N	 0.7897186789	-0.5026884136	-1.1441427504	-0.26374
C	 1.740902308	-1.154930357	-0.6252548098	 0.108234
O	 1.8193913785	-1.2434344647	 0.745368485	-0.208945
C	 0.7243006277	-0.5205701655	 1.2232792051	 0.43112
O	 0.4960487907	-0.3973693394	 2.3846151494	-0.324972
H	 0.9961983913	 1.9418441012	-0.0034482812	 0.130042
H	-0.5272815828	 1.9051998654	-0.9084558462	 0.135438
H	-0.5469167358	 1.906611047	 0.8749007408	 0.14095
H	-1.9421449571	-0.2028769643	-0.9639053594	 0.135447
H	-1.4212066476	-1.6582864885	-0.0968384889	 0.130038
H	-1.9945549194	-0.2483767601	 0.8182219776	 0.140934
H	 2.5332134343	-1.6732567603	-1.1521302414	 0.156625
109.9956	203.8573	210.8661	235.5692	291.6534	322.1893	331.546	533.1921	604.0061	615.1469	734.5051	757.0775	821.6638	881.6805	948.9318	957.6421	969.848	1020.4392	1028.5971	1133.7822	1189.4091	1218.5094	1269.5078	1340.7454	1390.8114	1413.1291	1476.3749	1483.0855	1494.6581	1506.5201	1696.5474	1915.0314	3046.9967	3049.7581	3124.9257	3126.8503	3132.3861	3136.5824	3224.2597
CC1(C)N=COC1=O	CC1(C)N=COC1=O	
InChI=1S/C5H7NO2/c1-5(2)4(7)8-3-6-5/h3H,1-2H3	InChI=1S/C5H7NO2/c1-5(2)4(7)8-3-6-5/h3H,1-2H3
