19
gdb 12677	2.77494	1.92937	1.49803	2.3372	70.96	-0.2093	-0.0181	0.1913	938.7344	0.16506	-365.081181	-365.072765	-365.07182	-365.114464	31.052	
C	 0.3808040584	 1.6971460914	-0.0005601747	-0.387027
C	 0.0115172195	 0.2086139121	-0.0797565801	-0.075274
N	 0.5231220123	-0.4417297944	-1.2956820392	-0.068458
C	-0.4276454944	-1.3685001922	-1.8998867495	-0.331915
C	 1.7957502036	-1.0886651886	-0.9123806488	-0.186195
C	 1.622775065	-1.5696222293	 0.5386012408	-0.329259
C	 0.62798989	-0.558049055	 1.1111750611	 0.402985
O	 0.3745296382	-0.3668031428	 2.2719258718	-0.316854
H	 1.4637766871	 1.8393770456	-0.0729136774	 0.118191
H	-0.0863634995	 2.2445206915	-0.8229117868	 0.121748
H	 0.0434580215	 2.1157087542	 0.9517087712	 0.133876
H	-1.0783520897	 0.1128748199	-0.0260348431	 0.09741
H	-1.3338873848	-0.8259684506	-2.1853558504	 0.12477
H	 0.0054176062	-1.791734138	-2.8113953748	 0.121499
H	-0.7316401293	-2.2086352806	-1.2473145691	 0.092957
H	 2.0348687246	-1.8904839083	-1.6138706367	 0.108142
H	 2.6067803861	-0.3525774484	-0.970755261	 0.109731
H	 1.1592888401	-2.5629085256	 0.582795261	 0.133992
H	 2.5363760551	-1.6082751209	 1.1356864954	 0.129681
34.5456	139.8442	205.7636	219.638	235.2869	249.4269	376.99	446.4937	484.8526	531.8444	603.6886	648.6652	767.2795	780.7469	838.4546	936.7274	963.5001	972.6405	1041.1886	1084.2935	1096.3632	1111.1229	1142.2214	1162.9891	1208.9474	1218.5256	1269.331	1279.7437	1310.753	1353.7676	1372.4331	1397.7101	1445.5682	1462.4194	1489.7984	1493.8864	1494.4741	1504.0323	1507.3004	1846.2921	2924.5655	3026.874	3042.0499	3044.7914	3051.3391	3063.7162	3102.891	3108.6808	3114.2622	3115.5363	3128.8776
CC1N(C)CCC1=O	C[C@H]1N(C)CCC1=O	
InChI=1S/C6H11NO/c1-5-6(8)3-4-7(5)2/h5H,3-4H2,1-2H3	InChI=1S/C6H11NO/c1-5-6(8)3-4-7(5)2/h5H,3-4H2,1-2H3/t5-/m1/s1
