21
gdb 114665	3.28082	1.17292	1.06288	1.9204	78.65	-0.2443	0.0771	0.3215	1229.5781	0.183431	-424.199281	-424.190795	-424.189851	-424.232166	33.2	
C	-0.0184958796	 1.2939594879	-0.1415597404	-0.238461
O	-0.0342224403	-0.059607359	 0.2443641974	-0.250252
C	-1.3065842805	-0.6654221822	 0.1406181635	 0.14814
C	-1.7243572238	-1.0509935291	-1.3271372392	-0.261807
C	-1.8218805995	-2.5762039227	-1.152652492	-0.069822
C	-2.5827574624	-2.6956570149	 0.2014267181	-0.239316
C	-1.2729157158	-2.0649867473	 0.7630803266	-0.064511
C	-0.5252149994	-2.8741812636	-0.3309692608	 0.158605
O	-0.3505517417	-4.2173921654	 0.0673443634	-0.450756
H	 0.9964096071	 1.6665622035	 0.0180266894	 0.125781
H	-0.279950182	 1.4307267615	-1.2020401766	 0.10413
H	-0.7165268038	 1.8957170718	 0.4623260203	 0.102772
H	-2.056836964	-0.0229831491	 0.6258482201	 0.06175
H	-2.6716438434	-0.6012337504	-1.6377410852	 0.096122
H	-0.9490080109	-0.7515182078	-2.0393292506	 0.101755
H	-2.0907684142	-3.1711070964	-2.0277502749	 0.051983
H	-3.5146335677	-2.133451253	 0.3150366084	 0.083365
H	-2.7101661169	-3.7263656411	 0.5260530318	 0.117058
H	-0.9857868381	-2.1327100876	 1.8115480755	 0.070053
H	 0.411001252	-2.4437810891	-0.706533109	 0.071686
H	-0.0910568449	-4.7231169463	-0.7089710159	 0.281726
106.223	129.4099	190.4308	261.3749	275.0537	305.4752	323.9993	401.0087	439.0292	480.4395	561.2824	676.5762	822.6767	832.2481	854.6762	891.6213	898.0605	953.2989	973.3209	983.0005	1013.5504	1032.1638	1077.2094	1088.4361	1094.104	1119.3992	1157.0673	1169.3801	1185.0852	1209.7725	1226.1854	1232.1668	1242.4814	1269.2993	1279.5005	1300.4468	1321.5393	1336.3948	1395.4551	1423.7796	1480.7351	1482.6523	1488.9719	1503.3889	1510.4645	2970.1526	2983.9805	3016.815	3030.5631	3049.3843	3060.04	3094.0867	3096.5656	3111.679	3129.2436	3157.4001	3818.2518
COC1CC2CC1C2O	CO[C@H]1C[C@@H]2C[C@H]1[C@H]2O	
InChI=1S/C7H12O2/c1-9-6-3-4-2-5(6)7(4)8/h4-8H,2-3H2,1H3	InChI=1S/C7H12O2/c1-9-6-3-4-2-5(6)7(4)8/h4-8H,2-3H2,1H3/t4-,5+,6-,7-/m0/s1
