13
gdb 129422	5.09238	1.0217	1.01954	2.2767	60.33	-0.2552	-0.0267	0.2285	1153.6178	0.090945	-482.226835	-482.219163	-482.218218	-482.260287	27.384	
N	-0.1866777985	 1.2878680864	-0.1813419152	-0.555744
C	 0.0180697187	-0.0318788028	 0.1456624394	 0.452037
N	 0.9128922763	-0.590756529	 0.8401504818	-0.533901
O	-1.0242547047	-0.7666579021	-0.3849436782	-0.269544
C	-0.9962476453	-2.100712746	-0.1968891743	 0.52991
N	-1.6310351998	-2.705615036	 0.794720199	-0.268856
N	-1.3788427449	-3.9711048761	 0.4910684222	-0.058427
N	-0.654269589	-4.1524447368	-0.6036666224	-0.098602
N	-0.4021779836	-2.9530377658	-1.0604611025	-0.254312
H	 0.6214631465	 1.8857182735	-0.1270731427	 0.262218
H	-0.7826631542	 1.4548437548	-0.9778034648	 0.268186
H	 1.6133981444	 0.0694985282	 1.1656775008	 0.22104
H	-1.716379326	-4.7421690784	 1.047591567	 0.305994
45.2144	68.3771	126.6326	358.3469	369.1875	397.4968	460.5348	493.4133	572.0038	588.8816	714.2701	725.4982	746.3331	783.5615	850.9245	974.2006	1040.1921	1075.1023	1080.5671	1121.2259	1127.4436	1211.2543	1283.7474	1356.8071	1399.7836	1495.8952	1562.4191	1633.1653	1773.6605	3536.9769	3590.69	3649.8073	3706.6618
NC(=N)OC1=NNN=N1	NC(=N)Oc1n[nH]nn1	
InChI=1S/C2H4N6O/c3-1(4)9-2-5-7-8-6-2/h(H3,3,4)(H,5,6,7,8)	InChI=1S/C2H4N6O/c3-1(4)9-2-5-7-8-6-2/h(H3,3,4)(H,5,6,7,8)
