18
gdb 73231	2.17583	1.96738	1.38874	3.2162	70.88	-0.218	-0.0314	0.1866	991.1196	0.148086	-439.081848	-439.073724	-439.072779	-439.114471	30.879	
C	 0.0414755934	 1.6095935426	-0.0205946621	-0.471756
C	 0.0721300828	 0.1078324015	 0.0883216339	 0.32091
O	-1.2291876198	-0.4821693948	 0.3899555624	-0.326477
C	-0.7021059966	-1.1805698968	 1.5434202793	-0.076987
C	 0.7223325366	-0.6569981092	 1.274260393	-0.116208
N	 1.6581984267	-1.6629689573	 0.7579207155	-0.29867
C	 1.3115239174	-1.8975882067	-0.6537239378	-0.298476
C	 0.620218231	-0.6211155046	-1.1545992982	 0.374693
O	 0.5186204842	-0.2499906933	-2.2940358323	-0.310114
H	 1.0578311985	 2.0109560186	-0.0977568362	 0.119394
H	-0.5030286873	 1.9024548791	-0.9232528878	 0.149439
H	-0.4475438812	 2.0516587196	 0.851556349	 0.12199
H	-1.1720953164	-0.8322127536	 2.4703519604	 0.108034
H	-0.8121733734	-2.2679141812	 1.4656990706	 0.112017
H	 1.1800310368	-0.0769119179	 2.0755430058	 0.086695
H	 2.6011911733	-1.2943613235	 0.8115218619	 0.227541
H	 2.1871988775	-2.1393626796	-1.2589513433	 0.134605
H	 0.6091461162	-2.7371168929	-0.7475074941	 0.143371
86.7309	157.4061	191.5651	208.62	261.0422	293.7027	403.962	477.7078	509.3435	612.3816	633.6767	677.2167	778.2781	805.0314	843.2041	882.7374	906.0958	971.9031	1000.9829	1008.4936	1057.8038	1086.9682	1108.0722	1130.9529	1161.1873	1180.3717	1203.6349	1227.2672	1295.7082	1304.1245	1333.1722	1378.7112	1405.3733	1462.2618	1470.9169	1477.1632	1484.626	1518.1324	1850.4852	3019.9627	3026.1596	3037.7664	3075.7858	3108.5634	3113.9538	3117.2562	3123.3619	3532.3732
CC12OCC1NCC2=O	C[C@]12OC[C@H]1NCC2=O	
InChI=1S/C6H9NO2/c1-6-4(3-9-6)7-2-5(6)8/h4,7H,2-3H2,1H3	InChI=1S/C6H9NO2/c1-6-4(3-9-6)7-2-5(6)8/h4,7H,2-3H2,1H3/t4-,6+/m1/s1
