17
gdb 36245	4.32654	1.09902	1.03591	3.6117	74.78	-0.2582	0.029	0.2871	1160.0602	0.138063	-380.824684	-380.817394	-380.81645	-380.857169	27.915	
N	 0.0461267403	-1.1579078362	 0.0712571963	-0.304938
C	-0.012026143	-0.0077726324	-0.0253986776	 0.260432
C	-0.0501035748	 1.4492507281	-0.1368746144	-0.382294
C	 1.3464234284	 2.0774402293	-0.0083658174	 0.025739
C	 1.5094683568	 3.5818168427	 0.096784414	-0.085399
C	 1.4626871888	 3.9796389174	 1.539367135	-0.037529
C	 1.2600014783	 2.7417824363	 2.3926717765	-0.245032
C	 2.1315263918	 2.0570307358	 1.3233218514	-0.020725
N	 2.7421271133	 3.4514643008	 0.9489987697	-0.158446
H	-0.4855658979	 1.7147115195	-1.1073968808	 0.155531
H	-0.7279157688	 1.8421863372	 0.6275442599	 0.153785
H	 1.9952577667	 1.6994046725	-0.8038000484	 0.110461
H	 1.4587256314	 4.3125453315	-0.7028326891	 0.100846
H	 1.373978117	 5.0189440979	 1.8348047198	 0.102674
H	 1.8085489587	 2.8316584385	 3.3332675837	 0.123815
H	 0.252543358	 2.3642689047	 2.5955792503	 0.100905
H	 2.7905951449	 1.2279645066	 1.568838091	 0.100174
50.0603	115.8501	225.3647	288.3835	392.3254	449.5033	483.5704	573.8152	727.3109	756.7559	779.614	794.8755	824.7389	889.6015	929.6132	946.2856	966.896	1011.7695	1017.1021	1032.8915	1063.0368	1071.5622	1104.9075	1126.9006	1138.6939	1188.4063	1206.2808	1243.101	1266.136	1270.3496	1319.7146	1355.2619	1377.3594	1397.1303	1464.5968	1507.6076	2361.2592	3046.166	3049.3352	3070.3265	3093.6416	3109.2522	3152.8412	3174.9941	3187.4136
N#CCC1C2C3CC1N23	N#CC[C@H]1[C@H]2[C@H]3C[C@@H]1N23	
InChI=1S/C7H8N2/c8-2-1-4-5-3-6-7(4)9(5)6/h4-7H,1,3H2	InChI=1S/C7H8N2/c8-2-1-4-5-3-6-7(4)9(5)6/h4-7H,1,3H2/t4-,5+,6-,7+,9?/m1/s1
