23
gdb 58507	2.48084	1.32164	1.22285	1.6952	84.34	-0.2486	0.0778	0.3263	1199.5129	0.203941	-388.261014	-388.251409	-388.250465	-388.294805	37.422	
C	 0.1035766892	 1.4906553747	-0.122410326	-0.407472
C	 0.0088256253	-0.0277005417	 0.0860686855	-0.001502
C	 0.7552425821	-0.4538243344	 1.3594481423	-0.407964
C	-1.4438618127	-0.5420528369	 0.0502474071	 0.323903
C	-2.3493750805	 0.0131519089	 1.150887176	-0.468905
C	-2.1526476104	-0.4747714587	-1.3669214472	-0.323306
C	-2.2634161264	-2.0018225427	-1.3385527088	 0.033284
O	-0.9310807614	-2.5247021691	-1.2378716873	-0.251695
C	-1.5796355448	-2.0852200347	-0.0413076303	-0.015595
H	 1.1483623075	 1.7977455419	-0.2369507063	 0.11151
H	-0.4357408634	 1.8125078409	-1.0193641166	 0.112168
H	-0.3054909309	 2.044066395	 0.7301823763	 0.111821
H	 0.5078327562	-0.5127394478	-0.7613551603	 0.089548
H	 0.3453084721	 0.0271084349	 2.2543499113	 0.111305
H	 0.7120016517	-1.5376148716	 1.5088970482	 0.115612
H	 1.8115827934	-0.1727864809	 1.2955383881	 0.111986
H	-2.4611815971	 1.0984256008	 1.066451566	 0.121635
H	-3.3500882753	-0.4282735742	 1.0871363443	 0.112511
H	-1.9571349141	-0.2096797123	 2.1483708242	 0.117688
H	-3.1172714457	 0.0374180523	-1.329008234	 0.101711
H	-1.5607019837	-0.0774077819	-2.1953204663	 0.106673
H	-3.0104139318	-2.6467664816	-1.7867230584	 0.101452
H	-1.6731251794	-2.8045739607	 0.765892832	 0.093632
71.8309	152.0819	199.4077	229.7038	243.7617	253.2174	280.1912	309.2206	325.7704	418.4216	437.9258	457.4658	560.7088	633.5507	785.3046	832.3234	852.2768	866.5357	880.0564	923.2096	930.4717	945.2494	967.6282	970.269	991.9609	1041.9402	1061.7108	1109.8249	1130.1829	1165.8203	1176.6743	1195.2061	1227.4928	1251.9356	1272.0128	1286.8832	1362.8235	1373.3038	1386.6011	1399.2752	1409.1166	1423.1742	1473.0081	1485.8575	1490.0083	1495.387	1507.3828	1510.5165	1512.7669	3028.3335	3029.0869	3034.2714	3035.8881	3061.2885	3091.5731	3092.9842	3098.5448	3099.8165	3101.6657	3107.2254	3118.1749	3165.5864	3187.7096
CC(C)C1(C)CC2OC12	CC(C)[C@@]1(C)C[C@H]2O[C@@H]12	
InChI=1S/C8H14O/c1-5(2)8(3)4-6-7(8)9-6/h5-7H,4H2,1-3H3	InChI=1S/C8H14O/c1-5(2)8(3)4-6-7(8)9-6/h5-7H,4H2,1-3H3/t6-,7-,8-/m1/s1
