12
gdb 132694	3.22109	1.32282	0.93772	2.8232	59.97	-0.2408	-0.034	0.2068	1084.2016	0.077063	-521.93154	-521.924647	-521.923703	-521.962933	26.346	
O	 0.0691487512	 1.3658042211	-0.0735129496	-0.437575
C	 0.0536129276	 0.0093267515	-0.0429423748	 0.226449
C	 0.0240447498	-0.7342016093	-1.2166244375	-0.063551
N	 0.0078926998	-2.0721256401	-1.2366579415	-0.313783
C	 0.0208249942	-2.7006482519	-0.0867733589	 0.355256
F	 0.0043799929	-4.0308449784	-0.1317297108	-0.073367
C	 0.0502270263	-2.0884388774	 1.1653593179	-0.414788
C	 0.0663319633	-0.709858774	 1.1553608131	 0.222526
F	 0.0947861946	-0.0094975009	 2.2967597427	-0.082751
H	 0.0885922322	 1.6897952804	 0.8350909331	 0.30776
H	 0.0132084972	-0.217761404	-2.1717118094	 0.135714
H	 0.0598914909	-2.653356437	 2.0877085257	 0.138111
152.5645	236.0772	287.5497	355.9565	383.777	402.0487	454.0015	469.5288	534.2067	604.4805	672.249	749.1746	761.4045	808.2418	864.3237	939.2422	981.5576	1155.7896	1197.5443	1258.7955	1304.7269	1335.2675	1410.4376	1458.0194	1541.386	1640.493	1660.6209	3179.5209	3227.4245	3800.4221
OC1=CN=C(F)C=C1F	Oc1cnc(F)cc1F	
InChI=1S/C5H3F2NO/c6-3-1-5(7)8-2-4(3)9/h1-2,9H	InChI=1S/C5H3F2NO/c6-3-1-5(7)8-2-4(3)9/h1-2,9H
