16
gdb 75169	3.19063	1.35336	0.96158	6.1844	74.42	-0.2478	-0.0486	0.1992	1175.7919	0.123811	-437.959935	-437.951413	-437.950469	-437.993489	30.228	
C	-0.0330874308	 1.5229597764	 0.0134258466	-0.485876
C	-0.0374833996	 0.0325898735	-0.0185791127	 0.211553
C	-1.0482669903	-0.8324709114	-0.1413787809	-0.200789
C	-0.5630535132	-2.2518303507	-0.121253357	-0.228132
N	 0.8803025557	-2.0998443383	 0.0311727248	-0.146913
C	 1.7273468945	-3.1958444502	 0.0958068094	 0.163906
O	 2.9215747635	-3.1679245966	 0.2197840937	-0.270672
C	 1.2426315196	-0.7271069117	 0.0977320582	 0.381886
O	 2.3528783209	-0.2801351394	 0.2220602516	-0.334197
H	 0.5897742552	 1.9209746834	-0.7946351292	 0.151925
H	-1.0414470698	 1.9317237321	-0.0822939307	 0.125087
H	 0.4093690481	 1.8840530766	 0.9478727188	 0.151924
H	-2.0986301854	-0.5909441146	-0.2448591665	 0.122812
H	-0.9965380019	-2.8222432629	 0.7114246635	 0.140014
H	-0.8146257754	-2.7850089903	-1.0481086457	 0.140017
H	 1.147283959	-4.1394259859	 0.016160396	 0.077456
73.9922	109.3575	186.9248	190.0818	218.6635	267.7594	268.793	407.1806	462.5806	519.2353	617.6753	737.7979	757.4126	774.1831	847.933	951.8935	1014.4368	1021.1858	1036.3515	1049.9894	1068.659	1184.812	1198.6959	1241.0442	1276.809	1340.3813	1382.6614	1416.3471	1454.3577	1471.2398	1482.4698	1496.5891	1716.0512	1795.2943	1869.2789	2907.702	3010.4034	3038.1772	3041.0012	3096.4568	3129.0599	3215.6669
CC1=CCN(C=O)C1=O	CC1=CCN(C=O)C1=O	
InChI=1S/C6H7NO2/c1-5-2-3-7(4-8)6(5)9/h2,4H,3H2,1H3	InChI=1S/C6H7NO2/c1-5-2-3-7(4-8)6(5)9/h2,4H,3H2,1H3
