21
gdb 109054	3.31856	1.13097	0.93222	1.41	84.95	-0.2111	0.0311	0.2422	1307.5333	0.184091	-387.090729	-387.082126	-387.081182	-387.123987	33.409	
O	 0.0232202907	 1.4541064542	-0.118429428	-0.41426
C	 0.0156770872	 0.0459623685	 0.0192975231	-0.155291
C	-1.3909809892	-0.4791456362	 0.0877141197	 0.25962
C	-2.4647497556	 0.3143713321	 0.0462063652	-0.127288
C	-3.8535490818	-0.2036116437	 0.092580379	-0.064281
C	-4.3014811287	-1.2478241453	-0.9242178333	-0.291379
C	-4.0423332757	-1.6504162961	 0.5003428379	-0.015264
C	-2.8054093386	-2.4197757735	 0.922649024	-0.217908
C	-1.5256638102	-1.9826953815	 0.1832778217	-0.317631
H	 0.9381951358	 1.745968379	-0.1464992891	 0.288258
H	 0.5408519325	-0.4390665746	-0.8245400287	 0.088555
H	 0.5561835575	-0.2677887999	 0.9314873322	 0.089152
H	-2.3266042022	 1.3869264826	-0.0339488937	 0.102001
H	-4.608895134	 0.509907719	 0.4058407079	 0.078304
H	-5.3313201186	-1.2163132802	-1.2641171679	 0.106052
H	-3.5881025918	-1.5245164105	-1.6928836863	 0.113115
H	-4.9251120234	-1.8654336173	 1.0960513845	 0.079848
H	-2.6594155029	-2.2581118105	 1.9984276904	 0.100625
H	-2.9561525345	-3.4972595956	 0.7869143898	 0.094745
H	-1.5119443205	-2.4207894911	-0.8247168565	 0.110135
H	-0.6522005659	-2.4093146491	 0.6935813983	 0.09289
73.9106	136.0103	196.65	208.4827	232.015	316.1976	355.8777	411.307	461.7387	527.9148	584.17	680.2979	750.3321	770.3245	831.6652	854.6861	872.2685	922.6907	951.0697	976.7419	1015.8378	1034.2218	1054.1759	1071.3122	1089.72	1103.5643	1124.1432	1129.2108	1172.2619	1214.6697	1220.7065	1227.9139	1257.8021	1271.0358	1329.1338	1356.3769	1383.5834	1393.523	1415.9434	1461.7617	1479.8139	1487.6149	1500.2476	1510.3488	1735.0474	2925.6993	2936.1131	3002.7976	3017.2268	3035.9207	3057.0378	3129.205	3139.9839	3154.469	3195.0149	3215.3328	3843.3701
OCC1=CC2CC2CC1	OCC1=C[C@H]2C[C@H]2CC1	
InChI=1S/C8H12O/c9-5-6-1-2-7-4-8(7)3-6/h3,7-9H,1-2,4-5H2	InChI=1S/C8H12O/c9-5-6-1-2-7-4-8(7)3-6/h3,7-9H,1-2,4-5H2/t7-,8+/m1/s1
