22
gdb 88827	2.96747	1.16106	0.91823	2.747	82.95	-0.2292	0.0796	0.3087	1343.1592	0.193034	-404.299925	-404.290309	-404.289365	-404.335167	35.377	
C	 0.0611808619	 1.5380167908	-0.4075984022	-0.417314
C	-0.0542035458	 0.0793922645	-0.0190202403	 0.028067
C	 1.1230945962	-0.8333118515	-0.0585792094	-0.257832
N	 0.5069492769	-0.47714319	 1.2183981285	-0.077198
C	 1.2538610512	 0.37436546	 2.1194519854	-0.025193
C	 0.3905922813	 1.078483669	 3.1845581126	-0.081746
O	 1.0081416183	 0.3403275284	 4.2541404981	-0.292269
C	 1.8931361887	-0.355368464	 3.3395787843	 0.144099
C	 1.772541478	-1.8608754664	 3.4475616206	-0.395577
H	 1.0646611531	 1.938565242	-0.2460118097	 0.122777
H	-0.1729549069	 1.6552619135	-1.4709399644	 0.125427
H	-0.6478885099	 2.1556633662	 0.1548846903	 0.126432
H	-1.0253876231	-0.3547400529	-0.2537292889	 0.09276
H	 1.0243366653	-1.8711360268	-0.3657228249	 0.115206
H	 2.0855392714	-0.380517589	-0.298233047	 0.105569
H	 1.9626207356	 1.0388252942	 1.6068023031	 0.059878
H	 0.5479678916	 2.1602430932	 3.2824690906	 0.092791
H	-0.6832476127	 0.8717714444	 3.1038609781	 0.10319
H	 2.9329574298	-0.0434829225	 3.5135670228	 0.06655
H	 0.7598325506	-2.1873819485	 3.2049126392	 0.135007
H	 2.4723347103	-2.3534334284	 2.7635093268	 0.109219
H	 2.0160784285	-2.1735639562	 4.4679221663	 0.120157
43.7546	61.7088	131.9348	191.6379	207.7685	232.4845	247.4342	370.3514	381.5127	414.0691	470.9775	554.0484	739.2045	758.0793	797.6648	878.8205	884.4565	905.3939	923.6317	982.2319	1016.3534	1030.1068	1040.0585	1083.5295	1098.0674	1106.2094	1118.7484	1144.9786	1160.3883	1165.8922	1190.4058	1201.0281	1260.403	1292.812	1334.4667	1357.004	1381.5295	1384.2657	1402.4076	1409.0297	1421.5824	1482.405	1491.0451	1492.8474	1500.4227	1510.9159	1517.1875	2985.2904	3000.0076	3014.0619	3036.3647	3039.5887	3059.288	3083.344	3094.0393	3103.4502	3104.1616	3127.6588	3141.0543	3172.5898
CC1CN1C1COC1C	C[C@H]1CN1[C@H]1CO[C@H]1C	
InChI=1S/C7H13NO/c1-5-3-8(5)7-4-9-6(7)2/h5-7H,3-4H2,1-2H3	InChI=1S/C7H13NO/c1-5-3-8(5)7-4-9-6(7)2/h5-7H,3-4H2,1-2H3/t5-,6-,7-,8?/m0/s1
