19
gdb 85069	2.53034	1.32468	1.02043	3.0687	77.64	-0.2414	-0.0189	0.2224	1211.5376	0.159033	-423.058187	-423.04933	-423.048386	-423.091937	33.47	
C	-0.1776450657	 1.4920716764	 0.0516768287	-0.398503
C	 0.0357107825	-0.0378230941	-0.0183365988	-0.124475
C	 0.7636404818	-0.4531748968	-1.2720631975	-0.063383
C	 1.940598009	-1.0777746668	-1.291804997	-0.116749
C	 2.7249880803	-1.4369466067	-0.0558304385	 0.086406
O	 4.1274713169	-1.3298470175	-0.2686737172	-0.430022
C	 2.2655448635	-0.5968682804	 1.1531070671	-0.328323
C	 0.7507414299	-0.5196152288	 1.2461606662	 0.372693
O	 0.1405475629	-0.799081965	 2.2507821426	-0.316965
H	 0.7776299843	 2.0254087511	 0.0875593737	 0.120121
H	-0.7208937511	 1.8410170252	-0.831920529	 0.123402
H	-0.7580100689	 1.7543133555	 0.940319094	 0.138969
H	-0.9575502643	-0.5046642158	-0.0028738078	 0.108525
H	 0.2546259396	-0.2349361411	-2.2090344879	 0.097898
H	 2.3958469436	-1.3761811666	-2.2329129493	 0.10097
H	 2.5753599253	-2.5001611744	 0.1742108703	 0.114814
H	 4.3092019075	-0.4289773721	-0.5601119531	 0.276711
H	 2.6735689982	-0.9813034246	 2.089188491	 0.127691
H	 2.6416779346	 0.4257818726	 1.0052939825	 0.110219
55.4651	105.9319	215.7886	223.7741	243.2926	311.0097	349.7798	365.9917	413.894	468.5209	521.603	588.6237	651.1387	695.0397	775.2483	805.555	876.439	927.5859	943.0115	1010.2982	1021.8277	1051.0689	1076.9015	1088.4215	1096.1615	1144.1059	1214.497	1233.4002	1253.6858	1303.7535	1311.2478	1334.1297	1347.9701	1390.8016	1410.1642	1429.9355	1462.797	1496.1783	1497.9679	1715.7305	1818.8147	3010.5458	3027.3615	3027.6132	3037.5859	3107.3496	3122.1532	3124.8376	3140.0567	3168.6924	3793.873
CC1C=CC(O)CC1=O	C[C@H]1C=C[C@@H](O)CC1=O	
InChI=1S/C7H10O2/c1-5-2-3-6(8)4-7(5)9/h2-3,5-6,8H,4H2,1H3	InChI=1S/C7H10O2/c1-5-2-3-6(8)4-7(5)9/h2-3,5-6,8H,4H2,1H3/t5-,6+/m0/s1
