18
gdb 106008	3.33707	1.68918	1.46294	2.2622	73.96	-0.2115	0.0763	0.2878	945.0549	0.148376	-401.844902	-401.837806	-401.836862	-401.876374	28.426	
C	 0.1236202798	 1.3566127597	 0.0599637197	-0.266478
O	 0.0353897426	-0.0558801244	-0.0097864052	-0.294785
C	-1.2340866573	-0.5581154078	-0.0159895082	 0.440767
C	-1.551683271	-2.065644572	-0.0744657824	-0.144277
C	-2.7643704557	-1.7883601175	 0.7297578112	-0.038201
C	-2.3909941164	-0.3336219929	 1.074572525	-0.157755
C	-3.1829411273	 0.533847633	 0.0656326322	-0.24849
C	-2.4375912043	-0.2856958291	-0.9985609496	-0.071913
N	-2.8327616419	-1.7441186655	-0.7747623609	-0.146525
H	 1.1859093239	 1.6075667158	 0.0591067841	 0.134208
H	-0.3575840193	 1.8338334857	-0.8047944886	 0.119693
H	-0.3361602577	 1.7438157602	 0.9795650843	 0.119015
H	-0.9678268977	-2.9571664816	-0.2663306831	 0.098536
H	-3.4349732799	-2.4656088728	 1.2443223449	 0.095752
H	-2.2165873303	-0.0603578018	 2.1133309398	 0.076062
H	-4.2744395514	 0.4749247301	 0.0793975253	 0.106535
H	-2.8628573968	 1.5797048787	 0.0741027325	 0.100436
H	-2.3808633193	-0.0206997678	-2.0533665911	 0.07742
90.4355	195.0382	201.4513	344.6151	366.0119	445.3207	543.3426	603.1667	701.3202	767.5793	773.1676	788.8646	837.2714	876.2346	917.6102	931.8249	960.1706	977.1937	998.544	1004.1666	1042.7783	1058.0572	1081.8268	1095.3801	1123.4955	1165.7499	1177.6159	1179.0797	1205.2169	1227.9423	1252.3532	1258.2997	1275.0765	1329.3465	1373.0699	1480.3575	1489.0691	1491.6795	1504.46	2996.0924	3051.5079	3058.304	3116.1929	3127.237	3129.3257	3140.3901	3180.4718	3195.9168
COC12C3C4C1CC2N34	CO[C@@]12[C@H]3[C@H]4[C@@H]1C[C@@H]2N34	
InChI=1S/C7H9NO/c1-9-7-3-2-4(7)8-5(3)6(7)8/h3-6H,2H2,1H3	InChI=1S/C7H9NO/c1-9-7-3-2-4(7)8-5(3)6(7)8/h3-6H,2H2,1H3/t3-,4-,5+,6+,7-,8?/m0/s1
