15
gdb 131468	3.28226	1.60787	1.1307	1.3386	72.74	-0.2114	-0.0249	0.1865	1012.3077	0.11617	-416.815956	-416.809078	-416.808134	-416.847218	26.994	
O	 0.139711781	 1.4145728763	-0.2215124364	-0.417999
C	 0.0313658389	 0.0110822346	-0.0460115643	-0.062814
C	 0.6437981105	-0.53803956	 1.2506108483	-0.143157
C	-0.2353674575	-1.2904977031	 1.9371367548	-0.20756
C	-1.5142935323	-1.3166657635	 1.2130608869	 0.208868
C	-1.3685263115	-0.5441790108	 0.0785918795	 0.324143
N	-2.544773156	-0.5685750909	-0.5720228842	-0.332768
N	-3.472560309	-1.3143939479	 0.0802720893	-0.221411
C	-2.8444172544	-1.7772042277	 1.1672652452	-0.163326
H	-0.2244388871	 1.8287257563	 0.5693591813	 0.287885
H	 0.5474477553	-0.4229211922	-0.9125093015	 0.120002
H	 1.6678161484	-0.3201727571	 1.5243918887	 0.107136
H	-0.038014736	-1.7977329075	 2.8732145379	 0.11023
H	-2.8125607655	-0.1005948021	-1.4216595223	 0.27757
H	-3.3834637547	-2.4151295043	 1.8519544067	 0.113201
129.4789	167.9105	292.6617	346.7202	363.7476	490.8735	542.039	563.6416	640.1973	682.6377	701.8196	715.7671	778.5079	853.295	879.7713	948.422	968.6909	981.1659	1069.8756	1077.0375	1097.9577	1169.4811	1219.312	1227.9917	1257.5691	1323.2873	1325.633	1390.472	1416.5917	1464.8236	1539.7192	1560.6904	1619.1479	3033.6362	3207.2559	3231.2772	3246.4515	3668.7166	3798.5551
OC1C=CC2=C1NN=C2	O[C@H]1C=Cc2c1[nH]nc2	
InChI=1S/C6H6N2O/c9-5-2-1-4-3-7-8-6(4)5/h1-3,5,9H,(H,7,8)	InChI=1S/C6H6N2O/c9-5-2-1-4-3-7-8-6(4)5/h1-3,5,9H,(H,7,8)/t5-/m0/s1
