19
gdb 120719	3.77525	0.87011	0.82427	4.3247	73.92	-0.2301	0.0112	0.2413	1441.9454	0.158296	-456.337164	-456.32715	-456.326206	-456.373285	35.623	
N	-0.2175100259	 1.0224654757	-1.3632959026	-0.538147
C	-0.3650584318	-0.2837628729	-1.7307043204	 0.42102
O	 0.23009815	-0.7664501144	-2.6779082282	-0.371328
C	-1.3303932805	-1.0558919556	-0.8688868893	-0.114245
C	-1.9723350137	-2.2676062417	-1.4620484725	-0.246841
N	-1.0095861913	-2.4059987033	-0.3847243779	-0.109825
C	 0.2908348591	-3.0184411188	-0.6836271363	-0.144957
C	 0.2556282414	-4.4790685904	-0.2389008149	-0.063328
O	-0.7305986579	-5.2365663641	-0.921992794	-0.421128
H	 0.4352137522	 1.5896608837	-1.8788375466	 0.264096
H	-0.6396349349	 1.4013500298	-0.5344843666	 0.262133
H	-1.8891432391	-0.4630702156	-0.1464860258	 0.082839
H	-3.0080063093	-2.4932308147	-1.2189086326	 0.112877
H	-1.6499344125	-2.5246444584	-2.4683505984	 0.148322
H	 0.5572937823	-2.9438199864	-1.7432409702	 0.136401
H	 1.0586993986	-2.4903298791	-0.1050840445	 0.095831
H	 1.21819406	-4.9483946346	-0.4682745075	 0.106425
H	 0.1068267244	-4.5270805614	 0.8502526967	 0.088913
H	-1.5860023713	-4.9074663176	-0.6287068384	 0.290945
34.3077	57.9334	111.1308	154.3687	163.8018	234.8363	255.8476	328.6336	379.0543	413.9246	430.382	514.1695	589.4702	640.1742	734.4798	754.4837	817.8165	886.5604	915.2923	930.4854	1010.3011	1045.7121	1079.016	1084.0672	1098.2146	1123.5749	1128.8237	1161.8624	1226.5207	1287.2347	1290.0064	1331.0994	1384.9046	1396.8486	1419.2783	1429.2156	1480.8581	1493.6303	1502.9835	1615.5869	1783.7969	2992.8617	3031.1937	3075.2137	3087.7396	3097.4624	3111.6209	3192.5733	3606.4362	3743.3554	3824.8265
NC(=O)C1CN1CCO	NC(=O)[C@H]1CN1CCO	
InChI=1S/C5H10N2O2/c6-5(9)4-3-7(4)1-2-8/h4,8H,1-3H2,(H2,6,9)	InChI=1S/C5H10N2O2/c6-5(9)4-3-7(4)1-2-8/h4,8H,1-3H2,(H2,6,9)/t4-,7?/m1/s1
