16
gdb 46577	3.20002	1.72864	1.36874	4.8093	68.74	-0.2429	-0.0094	0.2335	929.304	0.126493	-437.806287	-437.799843	-437.798899	-437.837025	26.092	
O	-0.1308749384	-0.0592857131	 0.0229362353	-0.322776
C	-0.0063538946	 1.1267254969	 0.0064093477	 0.404263
O	-1.10640307	 1.9673424666	-0.0923399833	-0.246726
C	-0.7843742475	 3.3897862104	-0.0012582963	-0.200022
C	 0.6249477557	 3.3208567945	 0.5408585654	 0.245454
C	 2.0900720299	 3.8333346769	 0.5485944572	-0.25229
N	 2.2359849525	 2.3888577348	 1.1065469514	-0.158897
C	 0.9830983807	 2.7348023502	 1.9310477731	-0.20692
C	 1.2105433731	 2.0428572334	-0.0207460614	-0.108711
H	-0.8528141484	 3.8336390804	-1.0003121344	 0.125985
H	-1.5273066446	 3.8471534085	 0.6560001528	 0.130524
H	 2.5858672081	 3.9840634946	-0.4128968081	 0.118053
H	 2.3703334114	 4.5964822075	 1.277617978	 0.116768
H	 1.1784688459	 3.4375456549	 2.7439830022	 0.108232
H	 0.4447392097	 1.8549797882	 2.2904901514	 0.137554
H	 1.6686173265	 2.0497326954	-1.0145506312	 0.109509
150.2662	219.8666	294.8367	352.0113	490.1576	571.6036	593.8117	601.2153	649.7916	742.2897	770.3269	847.5488	900.1346	904.1055	918.4391	946.905	979.1778	1011.1177	1013.3542	1073.8773	1078.0703	1113.7678	1152.7497	1164.4733	1190.1402	1194.2504	1234.6692	1246.8253	1304.6959	1349.6577	1370.5249	1506.165	1512.9601	1553.1577	1891.6463	3047.7017	3062.87	3065.3128	3071.1908	3111.5619	3131.4802	3139.1728
O=C1OCC23CN(C2)C13	O=C1OC[C@@]23CN(C2)[C@@H]13	
InChI=1S/C6H7NO2/c8-5-4-6(3-9-5)1-7(4)2-6/h4H,1-3H2	InChI=1S/C6H7NO2/c8-5-4-6(3-9-5)1-7(4)2-6/h4H,1-3H2/t4-/m0/s1
