14
gdb 24531	3.91616	1.77253	1.22023	6.4721	81.41	-0.215	-0.069	0.146	931.8698	0.106067	-395.784418	-395.778565	-395.77762	-395.814445	24.034	
N	-0.0190062437	 1.3600291125	 0.0101230079	-0.388242
C	 1.1678201931	 2.0287919793	 0.0018707013	-0.041519
C	 2.3463758208	 1.3196912886	-0.0137987915	-0.053092
N	 2.4188063815	-0.0335299577	-0.0218906347	-0.309303
C	 1.2742769354	-0.678485441	-0.0139358478	 0.360424
N	 1.0933883561	-2.0246733297	-0.0194433904	-0.331416
C	-0.2336559087	-2.1797039329	-0.0069752977	-0.007373
C	-1.00187261	-0.9770499752	 0.0072421592	-0.334147
C	-0.0398152937	 0.0060311964	 0.0029616548	 0.364477
H	-0.8836043614	 1.8835675675	 0.021635055	 0.276559
H	 1.1185267917	 3.1085164803	 0.0082391827	 0.138875
H	 3.2865203065	 1.859821663	-0.0202783235	 0.119722
H	-0.6597203033	-3.1778321411	-0.0081383431	 0.109034
H	-2.0767854944	-0.8850777398	 0.0185047377	 0.095999
235.9279	248.9845	407.3326	469.3598	559.9565	573.0182	613.3438	637.423	708.2125	738.9191	767.2218	798.7716	804.8761	878.7148	917.2672	919.8911	947.1797	1035.9715	1077.9085	1139.4344	1215.3714	1229.1242	1305.4239	1326.9066	1361.624	1402.9102	1466.0162	1502.2751	1517.2997	1624.2442	1664.4471	3190.7997	3191.4843	3237.5101	3248.4747	3594.1872
N1C=CN=C2N=CC=C12	[nH]1ccnc2nccc12	
InChI=1S/C6H5N3/c1-2-8-6-5(1)7-3-4-9-6/h1-4,7H	InChI=1S/C6H5N3/c1-2-8-6-5(1)7-3-4-9-6/h1-4,7H
