18
gdb 35280	3.82652	0.8235	0.73053	2.8548	77.39	-0.2737	0.0273	0.301	1522.5829	0.147375	-401.927798	-401.919034	-401.91809	-401.962434	31.663	
N	-0.2693774622	-1.1125321705	 0.4329030739	-0.343541
C	-0.1425817801	 0.0157501268	 0.2082102902	 0.287378
C	 0.0236611399	 1.4138566708	-0.0731302939	-0.189899
C	 0.598113948	 2.32974818	 1.0002030191	-0.285323
C	 1.4219664217	 2.0052768463	-0.2095523273	 0.01181
C	 2.6573609864	 1.1331185766	-0.1103283168	-0.266453
C	 3.8798141427	 1.9490088764	 0.2410300338	 0.102167
C	 5.1940728282	 1.6855426322	-0.3548926309	-0.178951
O	 4.3963991709	 2.7852244265	-0.7994947271	-0.238639
H	-0.7478243737	 1.8271164873	-0.7136304738	 0.135856
H	 0.1534986742	 3.3136115112	 1.0930450964	 0.133338
H	 0.8685263948	 1.8632565734	 1.9411048855	 0.138453
H	 1.4966602237	 2.7866629121	-0.9598571046	 0.120689
H	 2.5091378994	 0.3520066893	 0.6446701865	 0.124127
H	 2.8287236591	 0.6268544571	-1.0669118065	 0.118089
H	 3.853056754	 2.4336862037	 1.2187864397	 0.094988
H	 6.0998135255	 1.9530325821	 0.1871214132	 0.118167
H	 5.3039908173	 0.8697562186	-1.0683158273	 0.117743
56.6008	73.5103	101.895	164.2028	218.6649	312.3232	349.5762	425.3285	465.7187	557.2246	622.3722	771.2521	796.4781	812.362	861.0013	873.8382	901.776	950.9202	961.7227	1008.2389	1076.2761	1082.7021	1101.5177	1122.5108	1142.4228	1160.6679	1166.0286	1184.1721	1224.5034	1268.9216	1295.024	1320.4772	1372.349	1418.4313	1447.8129	1468.2993	1490.7439	1530.9886	2350.5404	3037.6875	3077.6091	3084.7645	3098.705	3142.9854	3160.5901	3171.6538	3173.5229	3233.1272
N#CC1CC1CC1CO1	N#C[C@H]1C[C@H]1C[C@H]1CO1	
InChI=1S/C7H9NO/c8-3-6-1-5(6)2-7-4-9-7/h5-7H,1-2,4H2	InChI=1S/C7H9NO/c8-3-6-1-5(6)2-7-4-9-7/h5-7H,1-2,4H2/t5-,6+,7-/m0/s1
