19
gdb 63485	3.21609	1.06119	0.93427	4.8611	76.48	-0.2369	0.0377	0.2746	1294.8184	0.157019	-419.201397	-419.191264	-419.19032	-419.236206	37.43	
C	 0.023698246	 1.4821864195	-0.2460744553	-0.445346
C	 0.0461590017	-0.0026670734	 0.0469061642	 0.339067
O	-1.1227330538	-0.662289614	-0.3766644513	-0.45782
C	 1.3435773234	-0.7915087394	-0.0150977199	-0.396979
C	 0.6342423584	-0.5518283594	 1.3182385155	 0.277471
N	 1.1458392441	 0.350872513	 2.3230924489	-0.573633
C	-0.0741060672	-1.7403417874	 1.9621941751	-0.365412
C	 0.8663899066	-2.5865670427	 2.6979474042	 0.26267
N	 1.6318879706	-3.2309675232	 3.2767686226	-0.320389
H	 0.9518218819	 1.9829536433	 0.0416057406	 0.115067
H	-0.1035045412	 1.644381936	-1.3229990027	 0.116477
H	-0.810371055	 1.9655392946	 0.2710146175	 0.139652
H	-1.1096667466	-0.6972551664	-1.3397878714	 0.285591
H	 1.3032195093	-1.7858810655	-0.4481636457	 0.117164
H	 2.2670761366	-0.2505602591	-0.1962603516	 0.108742
H	 1.8905432408	-0.1072897713	 2.8437078446	 0.245993
H	 1.5537789557	 1.1785641368	 1.9047105993	 0.230083
H	-0.8327700944	-1.3718813748	 2.6608982781	 0.158557
H	-0.5842695669	-2.3344155663	 1.2022054074	 0.163044
58.4285	109.5639	158.6475	187.3759	200.2603	234.1662	283.283	309.6831	379.3829	395.695	408.3968	417.1598	450.4653	496.1637	587.2513	700.4779	778.6142	851.3394	896.797	910.1843	918.4995	947.988	969.4195	985.977	1032.6395	1081.6274	1099.1203	1200.8281	1228.0014	1240.2689	1303.8512	1323.891	1343.7598	1411.1088	1424.4757	1457.8338	1478.0952	1489.825	1510.7124	1659.404	2357.6592	3032.3872	3062.5028	3095.4363	3119.844	3123.4828	3128.4465	3215.6721	3488.3278	3585.6547	3793.4699
CC1(O)CC1(N)CC#N	C[C@@]1(O)C[C@]1(N)CC#N	
InChI=1S/C6H10N2O/c1-5(9)4-6(5,8)2-3-7/h9H,2,4,8H2,1H3	InChI=1S/C6H10N2O/c1-5(9)4-6(5,8)2-3-7/h9H,2,4,8H2,1H3/t5-,6-/m1/s1
