20
gdb 57918	3.19007	1.095	0.88951	4.2083	76.91	-0.2433	0.0207	0.264	1343.3077	0.170043	-440.284414	-440.274462	-440.273518	-440.320426	34.254	
C	-0.0145958092	 1.4513078502	 0.1007759672	-0.344372
N	-0.018933836	 0.0009261527	 0.0023663601	-0.090238
C	-0.1114826178	-0.7075643484	 1.262775064	-0.336724
C	 0.0426737683	-0.5846950655	-1.2370232782	 0.414649
O	 0.1038789106	 0.0739305903	-2.2635223731	-0.378604
C	 0.030062621	-2.1089594524	-1.2849418419	-0.19146
C	-1.3147397131	-2.8370882956	-1.0093008148	-0.073208
O	-1.3181306438	-3.4235035382	-2.3176415917	-0.271263
C	-0.1067755827	-2.7238070509	-2.6902263334	-0.084836
H	 0.8361669844	 1.79359441	 0.7034516041	 0.120814
H	 0.0603149821	 1.8627260577	-0.9040116384	 0.172038
H	-0.9362219318	 1.8099518255	 0.5766748683	 0.121231
H	-1.0385442975	-0.444890807	 1.7898693202	 0.128687
H	-0.1003456174	-1.7856701909	 1.1157360914	 0.143866
H	 0.7295498703	-0.4437783949	 1.9178840405	 0.127923
H	 0.8653477917	-2.5153877981	-0.7102891193	 0.103132
H	-1.2967327126	-3.593299178	-0.2137162057	 0.100032
H	-2.1744791297	-2.1729294148	-0.8478436341	 0.10626
H	-0.2749771503	-1.9823618688	-3.4757676026	 0.133978
H	 0.6868815434	-3.416927373	-2.9899103829	 0.098093
54.0806	70.8757	94.9764	113.5353	152.128	183.4447	233.1864	293.7249	341.6794	391.6024	468.9003	565.9247	695.241	743.0493	832.3379	890.8821	927.4286	981.4704	1037.4021	1044.4089	1067.4127	1082.1973	1109.7838	1131.8722	1162.9419	1165.4913	1169.3813	1180.8668	1250.5077	1283.4825	1308.2997	1336.9042	1378.3192	1426.3793	1436.2736	1475.0032	1482.5684	1501.8444	1503.9632	1512.055	1536.5506	1545.7109	1748.1353	3000.2003	3005.5203	3015.12	3037.2515	3039.8212	3046.6522	3060.0584	3081.0762	3104.411	3165.2577	3172.8115
CN(C)C(=O)C1COC1	CN(C)C(=O)C1COC1	
InChI=1S/C6H11NO2/c1-7(2)6(8)5-3-9-4-5/h5H,3-4H2,1-2H3	InChI=1S/C6H11NO2/c1-7(2)6(8)5-3-9-4-5/h5H,3-4H2,1-2H3
