25
gdb 92471	2.33103	1.53246	1.50851	0.0763	90.07	-0.2738	0.069	0.3429	1112.8227	0.233939	-352.396656	-352.388495	-352.387551	-352.429031	33.843	
C	-0.3029216384	 1.5134892545	 0.0110323491	-0.417956
C	 0.035425989	 0.0199932047	-0.0001863061	 0.065726
C	 0.846829642	-0.3972033019	-1.2638051419	-0.221261
C	 1.9705497374	-1.3754698117	-0.8727659676	 0.014443
C	 2.9984096792	-0.6268228493	-0.0032782341	-0.200697
C	 2.2727230974	 0.0240121505	 1.2109059591	-0.210701
C	 0.8080048821	-0.4547112971	 1.2544351583	 0.016475
C	 0.7961450078	-1.9960468976	 1.2786091469	-0.216988
C	 1.3755333472	-2.5409510211	-0.0600314242	-0.201612
H	 0.6003500722	 2.1334240028	 0.0294565782	 0.113697
H	-0.8686293032	 1.7911513455	-0.8852765605	 0.109449
H	-0.9091238332	 1.7798026476	 0.884101661	 0.106609
H	-0.9174956145	-0.525837663	-0.0055808112	 0.061275
H	 0.1862775791	-0.8499653201	-2.011687601	 0.087688
H	 1.2887030626	 0.4891030939	-1.7371020221	 0.08394
H	 2.4581811736	-1.7611417884	-1.7746016318	 0.051186
H	 3.7718340168	-1.3256140085	 0.3351762136	 0.087334
H	 3.5088742691	 0.134779481	-0.6028321533	 0.088657
H	 2.7713602126	-0.2422698701	 2.1491180914	 0.089987
H	 2.3118258879	 1.1160992828	 1.145655279	 0.091998
H	 0.3180446298	-0.0660142897	 2.1547610168	 0.048081
H	 1.388452122	-2.3516387963	 2.1294024263	 0.086625
H	-0.2245971047	-2.3609750963	 1.4363801778	 0.088705
H	 0.5943523982	-3.0364204344	-0.6477486586	 0.088025
H	 2.1457596481	-3.2962176675	 0.1300871248	 0.089313
67.4732	215.0935	244.8739	263.9634	302.9734	362.3514	372.9378	435.438	493.1199	549.5317	628.6073	751.7992	797.3375	803.3159	821.412	852.9433	868.5815	899.3678	933.8938	949.9763	973.3399	997.6415	1005.0663	1046.5003	1066.7519	1076.4327	1109.3292	1123.8754	1134.9924	1149.6861	1162.8954	1219.7398	1259.4958	1261.4541	1275.7619	1299.4826	1324.4621	1337.9939	1342.8462	1352.7563	1360.7976	1363.8547	1376.8309	1389.5075	1397.5177	1412.5904	1482.71	1488.382	1494.4197	1495.3347	1500.5997	1504.8502	1519.0991	3000.9252	3016.6844	3021.1341	3024.2538	3025.3526	3028.5769	3036.4688	3042.8539	3050.2031	3056.1944	3057.032	3061.5714	3077.2344	3082.4101	3090.4144	3094.2123
CC1CC2CCC1CC2	C[C@H]1C[C@H]2CC[C@@H]1CC2	
InChI=1S/C9H16/c1-7-6-8-2-4-9(7)5-3-8/h7-9H,2-6H2,1H3	InChI=1S/C9H16/c1-7-6-8-2-4-9(7)5-3-8/h7-9H,2-6H2,1H3/t7-,8-,9+/m0/s1
