17
gdb 83621	2.46418	1.92946	1.26371	1.5216	67.83	-0.2412	0.0462	0.2874	983.4281	0.136014	-458.879305	-458.871827	-458.870883	-458.911263	28.8	
O	-0.0104154823	 1.4062510834	-0.1231359186	-0.417231
C	 0.0073392464	 0.0151464036	 0.0348817433	 0.092033
C	 0.2382718455	-0.5786159507	 1.4613123121	 0.013056
O	 0.8828790575	-1.8766453302	 1.4377575921	-0.294859
C	-0.3760167534	-2.5691539882	 1.6602567017	-0.191869
C	-1.1416539793	-1.2771587572	 1.4375434536	 0.251115
C	-2.4132766663	-0.5869685325	 1.8905640711	-0.179005
O	-2.4264368145	 0.1971975908	 0.6688332692	-0.282189
C	-1.407874705	-0.6207724222	 0.0523111278	 0.05023
H	 0.9004038716	 1.7165329207	-0.1510992884	 0.289511
H	 0.6645493844	-0.493891888	-0.6857658554	 0.080175
H	 0.6028672411	 0.0753840737	 2.2600408837	 0.078213
H	-0.5372360413	-3.3856770966	 0.9470080773	 0.111047
H	-0.4334856261	-2.9656414478	 2.6832196711	 0.10728
H	-3.2978680421	-1.2361020705	 1.9559674359	 0.104016
H	-2.3554589545	 0.0376576007	 2.7892804395	 0.112055
H	-1.7747362714	-1.1321509591	-0.8429940358	 0.076423
90.9527	228.1877	233.3167	262.3647	280.542	340.7634	373.5842	513.1772	558.9697	699.3305	768.8307	817.0313	865.8809	915.1172	960.175	974.9967	996.8828	1002.2437	1010.6338	1042.3857	1097.0931	1125.1949	1145.3817	1163.3814	1176.3842	1191.9542	1205.886	1246.5614	1260.4488	1274.4864	1295.0161	1316.8144	1353.664	1393.6118	1425.2072	1517.2282	1519.9963	2994.7128	3000.0559	3006.5747	3058.3188	3059.1502	3060.672	3062.3311	3817.9113
OC1C2OCC22COC12	O[C@H]1[C@@H]2OC[C@]32CO[C@@H]13	
InChI=1S/C6H8O3/c7-3-4-6(1-8-4)2-9-5(3)6/h3-5,7H,1-2H2	InChI=1S/C6H8O3/c7-3-4-6(1-8-4)2-9-5(3)6/h3-5,7H,1-2H2/t4-,5-,6+/m0/s1
