15
gdb 19272	3.44173	1.92977	1.42209	2.9144	61.39	-0.2368	-0.0204	0.2164	877.4942	0.118078	-399.758416	-399.750924	-399.74998	-399.790536	26.776	
C	 0.0987175725	 1.3113154925	-0.1389016268	-0.249888
O	-0.2996256446	-0.0095522475	 0.198163043	-0.245579
C	 0.5103425945	-0.593096573	 1.1728303865	 0.008358
C	 0.1698273693	-2.0258358103	 1.5524960549	-0.065204
C	 0.4378426596	-2.9482847266	 0.4440542667	-0.239088
N	 1.6086172271	-2.5049702604	 1.2702282623	-0.177214
C	 1.9010955863	-1.169035118	 0.7755390344	 0.367169
O	 2.9086353778	-0.7374802535	 0.3103986732	-0.296514
H	 1.1186932603	 1.3354065806	-0.540952089	 0.14154
H	-0.6002578248	 1.6672766962	-0.8981968449	 0.133878
H	 0.0481493524	 1.9764417111	 0.7363664359	 0.11142
H	 0.6182115575	 0.0557372339	 2.057658561	 0.100403
H	-0.3231115701	-2.3268889778	 2.4676872685	 0.118027
H	 0.2141158719	-3.9997575366	 0.587226815	 0.143758
H	 0.3622204301	-2.5971463405	-0.580706441	 0.148934
88.8241	121.179	167.6327	226.0176	254.5617	358.6581	496.3173	510.3744	660.9124	698.8933	752.3965	832.5048	869.8232	966.0293	1010.7065	1022.0596	1049.0567	1064.0763	1117.3645	1142.3985	1160.609	1182.9635	1216.3403	1238.9542	1259.4186	1359.3714	1380.0181	1480.3444	1487.424	1506.1008	1512.0291	1914.2483	2976.9228	2992.4241	3063.9282	3129.544	3130.9066	3206.0454	3222.902
COC1C2CN2C1=O	CO[C@H]1[C@H]2CN2C1=O	
InChI=1S/C5H7NO2/c1-8-4-3-2-6(3)5(4)7/h3-4H,2H2,1H3	InChI=1S/C5H7NO2/c1-8-4-3-2-6(3)5(4)7/h3-4H,2H2,1H3/t3-,4+,6?/m1/s1
