19
gdb 76241	2.49691	1.35294	1.02703	2.828	82.38	-0.2366	-0.0216	0.215	1216.9421	0.156247	-385.871541	-385.861833	-385.860889	-385.906051	35.805	
C	-0.2759045373	 1.5203841112	 0.1055669776	-0.396025
C	 0.0093085211	 0.0272573197	 0.0033135903	-0.039989
C	 0.8643718239	-0.4115272452	-1.2411698109	-0.098711
C	 0.9330369725	 0.4135942605	-2.5174995616	-0.417101
C	 2.082257513	-0.4325938157	-0.310588859	 0.384769
O	 3.2575587362	-0.309346904	-0.476138438	-0.291169
C	 1.171272986	-0.4700632793	 0.9536486481	-0.315487
C	 1.5445463308	 0.2797216628	 2.1278356034	 0.329933
C	 1.8642336213	 0.9249133863	 3.0910061862	-0.436131
H	 0.6379158069	 2.1166531855	 0.0134289471	 0.130362
H	-0.9697295829	 1.840103573	-0.6780240661	 0.117419
H	-0.7210078653	 1.7596182299	 1.0752847735	 0.130672
H	-0.9142396349	-0.5422260401	 0.1259137095	 0.080958
H	 0.619189424	-1.4544312161	-1.4837561278	 0.106014
H	 1.179442155	 1.4582866526	-2.3105749897	 0.129427
H	 1.7090975825	 0.0162333301	-3.1781702097	 0.136787
H	-0.0182153267	 0.3873212823	-3.0581019441	 0.120809
H	 1.0049513191	-1.525037563	 1.2072831117	 0.129602
H	 2.1531141549	 1.4886943794	 3.9431810495	 0.197859
58.0023	120.5535	150.1499	165.6303	203.0911	235.655	259.583	335.5612	364.4671	447.1629	500.8684	529.0117	588.068	615.4742	645.3769	722.5456	773.8787	806.9575	844.1714	923.5721	986.3679	1009.8759	1047.3872	1071.1812	1082.6945	1124.7281	1166.3061	1178.6421	1231.7978	1263.7417	1298.9813	1351.8414	1369.0096	1410.7198	1419.4566	1488.0048	1489.0632	1501.2634	1501.717	1894.15	2233.999	3020.2181	3029.2214	3038.0277	3044.2766	3081.1228	3108.029	3111.9079	3115.1406	3121.7652	3503.9549
CC1C(C)C(=O)C1C#C	C[C@H]1[C@@H](C)C(=O)[C@H]1C#C	
InChI=1S/C8H10O/c1-4-7-5(2)6(3)8(7)9/h1,5-7H,2-3H3	InChI=1S/C8H10O/c1-4-7-5(2)6(3)8(7)9/h1,5-7H,2-3H3/t5-,6+,7-/m0/s1
