16
gdb 24710	3.84431	1.50554	1.09752	1.2274	77.07	-0.2473	-0.0253	0.222	1042.3482	0.128111	-400.80865	-400.801917	-400.800972	-400.840373	25.631	
C	-0.0269605821	 1.5101651054	 0.0930095815	-0.172921
O	 1.3064377842	 1.9344299546	-0.1820314191	-0.27191
C	 2.1175795832	 0.8388731504	-0.6109351731	-0.177968
C	 1.2796319675	-0.3878438688	-0.3734323434	 0.193424
C	 1.5545599102	-1.74178666	-0.5053511672	-0.097221
N	 0.6438634666	-2.6866474766	-0.2443348475	-0.277248
C	-0.5688828209	-2.2893922182	 0.1530971033	 0.018782
C	-0.9460913739	-0.9552106926	 0.313629099	-0.260646
C	 0.0131158602	 0.0080422201	 0.0417919306	 0.247574
H	-0.3305322227	 1.8954544421	 1.0755547378	 0.12202
H	-0.724758992	 1.9224461556	-0.6532143946	 0.115265
H	 2.3847306145	 0.9561313791	-1.672873965	 0.114208
H	 3.0513333344	 0.8423643342	-0.0334666807	 0.121296
H	 2.532655754	-2.0928816129	-0.8276055687	 0.110333
H	-1.2840938577	-3.0824613501	 0.3577205262	 0.111736
H	-1.9489064854	-0.7012953721	 0.6402096111	 0.103276
57.6532	186.548	225.6427	377.078	411.2615	524.2305	527.0165	610.1318	735.0232	747.0091	842.2156	853.1348	866.0746	932.1005	952.6817	985.7436	1023.8895	1063.3744	1065.2609	1089.3752	1175.0271	1183.3447	1212.0889	1221.8681	1256.6871	1290.0687	1305.9585	1361.2883	1392.0731	1452.3377	1509.4936	1511.9304	1524.2607	1619.4151	1641.413	2975.1257	2981.5304	3024.5882	3028.8465	3147.2861	3155.7735	3188.5163
C1OCC2=CN=CC=C12	C1OCc2cnccc12	
InChI=1S/C7H7NO/c1-2-8-3-7-5-9-4-6(1)7/h1-3H,4-5H2	InChI=1S/C7H7NO/c1-2-8-3-7-5-9-4-6(1)7/h1-3H,4-5H2
