13
gdb 25163	3.2768	1.2402	0.97713	3.8754	63.6	-0.2369	0.0006	0.2374	1127.7174	0.090018	-452.798536	-452.790935	-452.789991	-452.831862	26.913	
O	-0.075288779	-0.0016737893	-0.4309947393	-0.404769
C	-0.0369729735	 1.1769626975	-0.2025928296	 0.510192
O	-1.1237567352	 2.0181946414	-0.151162149	-0.211024
C	-0.6773161699	 3.2928272809	 0.1297161388	-0.026256
C	 0.6532624299	 3.2946650855	 0.2551663709	-0.124355
N	 1.0670005024	 1.9743393801	 0.0494924761	-0.133746
C	 2.4067064253	 1.4364306395	 0.0576512332	-0.299395
C	 3.0998697599	 1.656913889	 1.3339355333	 0.268463
N	 3.6537907141	 1.8572836924	 2.3269935171	-0.290219
H	-1.4240990059	 4.0622700816	 0.2084019463	 0.166052
H	 1.3424699182	 4.0888733645	 0.484485757	 0.170472
H	 2.3064551133	 0.3628155117	-0.1327372533	 0.203702
H	 3.0129183304	 1.8666340351	-0.7489483916	 0.170884
42.5133	82.5004	213.4886	257.1735	277.7466	373.9877	454.694	572.0337	595.5583	690.9293	709.0444	768.2573	789.332	809.3475	905.4999	926.9881	977.3794	1045.116	1101.6937	1140.2651	1207.7785	1286.6294	1345.7999	1388.4114	1438.6907	1470.5653	1656.7727	1880.2031	2369.5537	3036.4042	3096.0467	3287.6336	3315.509
O=C1OC=CN1CC#N	O=c1occn1CC#N	
InChI=1S/C5H4N2O2/c6-1-2-7-3-4-9-5(7)8/h3-4H,2H2	InChI=1S/C5H4N2O2/c6-1-2-7-3-4-9-5(7)8/h3-4H,2H2
