16
gdb 53865	4.3217	0.74485	0.64024	1.8525	71.96	-0.2453	-0.0685	0.1769	1647.5169	0.121176	-437.9047	-437.894778	-437.893834	-437.940812	34.791	
N	-0.0162507849	 1.3162738695	 0.0079489931	-0.517954
C	 0.0795409173	-0.0306556524	 0.0010606818	 0.333266
O	 1.1077698836	-0.6794152455	-0.0123166553	-0.347676
C	-1.3096718319	-0.7147866613	 0.0103904517	 0.287701
O	-2.3193276308	-0.0457755471	 0.0240457368	-0.311947
C	-1.291786835	-2.2218061288	 0.0022657066	-0.28799
C	-2.7023794756	-2.8293429974	 0.0127570931	-0.369265
C	-2.6761322724	-4.2862163618	 0.0048243957	 0.28491
C	-2.6307614392	-5.4870613477	-0.0021075871	-0.423255
H	 0.8159705305	 1.8809055273	 0.0028684465	 0.271115
H	-0.9304868437	 1.7387784484	 0.0188847624	 0.279932
H	-0.7153924795	-2.5522480403	-0.869930572	 0.158309
H	-0.6985796463	-2.5613981579	 0.8595441591	 0.158344
H	-3.2471836143	-2.4675545819	 0.892398448	 0.144482
H	-3.2641437225	-2.4583158633	-0.8522492118	 0.144484
H	-2.6040725351	-6.5484085298	-0.0087896785	 0.195543
43.8362	64.0953	85.9014	95.2307	213.2086	273.5677	311.5552	343.8775	361.9373	416.3845	478.6514	551.3287	608.6671	622.9609	624.71	645.2328	698.6702	804.1133	804.7279	969.6136	1022.9542	1028.3342	1084.3817	1103.9721	1164.3106	1290.9232	1292.3405	1362.0422	1397.9471	1430.9792	1469.9558	1588.5874	1795.3005	1809.2972	2242.4118	3039.4217	3055.0273	3064.8668	3086.1469	3507.5737	3596.9386	3737.979
NC(=O)C(=O)CCC#C	NC(=O)C(=O)CCC#C	
InChI=1S/C6H7NO2/c1-2-3-4-5(8)6(7)9/h1H,3-4H2,(H2,7,9)	InChI=1S/C6H7NO2/c1-2-3-4-5(8)6(7)9/h1H,3-4H2,(H2,7,9)
