27
gdb 122959	5.28893	0.4536	0.43372	1.2771	93.99	-0.2623	0.0788	0.341	2620.961	0.24967	-390.703838	-390.691516	-390.690572	-390.742805	43.478	
C	 0.0505332603	 1.6285341694	 0.0662843634	-0.379101
C	 0.0065240063	 0.0991151846	 0.0103944448	-0.163841
C	 0.7049879612	-0.4809600357	-1.224223077	-0.156827
C	 0.6672564903	-2.0119816873	-1.2863348399	-0.188046
C	 1.3645745413	-2.5799571767	-2.528506854	-0.189005
C	 1.4327772482	-4.1159358764	-2.5875420002	 0.037621
C	 0.0505756436	-4.7756444061	-2.6825476439	-0.389685
C	 2.320208991	-4.5537618815	-3.7545337871	-0.07872
O	 2.4896187574	-5.9636535491	-3.6944436904	-0.424343
H	 1.083219158	 1.9944946938	 0.0880691113	 0.112282
H	-0.4364537496	 2.0710040665	-0.8100406717	 0.112225
H	-0.456547647	 2.0121150465	 0.9573077666	 0.10975
H	 0.4706667251	-0.3143181417	 0.9157370851	 0.093309
H	-1.038381631	-0.2384498831	 0.026464373	 0.093275
H	 0.2395876195	-0.0684360566	-2.1306595095	 0.089655
H	 1.7502635119	-0.1412281818	-1.2423564285	 0.089262
H	 1.1422382851	-2.4235008784	-0.3846225751	 0.091425
H	-0.3778716643	-2.3443293832	-1.2575431203	 0.09731
H	 0.8569959776	-2.2065477207	-3.4300398841	 0.088569
H	 2.3866226944	-2.1777191992	-2.568775983	 0.086739
H	 1.9240952368	-4.474669314	-1.6716949714	 0.07865
H	 0.1549126122	-5.8562736921	-2.8020925141	 0.131977
H	-0.5518880046	-4.5870537569	-1.7898378378	 0.110417
H	-0.5042254697	-4.3912125659	-3.5479835302	 0.102466
H	 1.8506512984	-4.2513854278	-4.7061224292	 0.079639
H	 3.2927470691	-4.0393965924	-3.6908773738	 0.079801
H	 2.9818485284	-6.2412557541	-4.4719458431	 0.285196
41.7155	46.5964	79.515	111.3456	123.9843	141.1648	209.3752	234.0848	241.2405	246.5615	254.7891	312.8391	367.7969	418.3915	474.9246	533.6152	730.95	754.4885	825.463	853.3716	899.9482	924.3408	941.4054	959.1699	1007.1479	1038.5041	1047.357	1065.7194	1082.0828	1086.3713	1136.8837	1170.1427	1193.9559	1223.6482	1243.3639	1269.1511	1276.0902	1300.3658	1318.613	1328.9406	1332.4431	1356.3628	1382.1375	1391.9154	1399.761	1407.2991	1412.1168	1457.8177	1479.329	1482.8351	1490.4022	1495.5222	1499.3529	1503.6096	1507.4604	1513.8171	1520.3726	2953.1206	2982.1219	2995.0246	3000.2384	3007.3004	3010.0665	3016.6998	3024.3949	3027.3538	3028.0936	3030.7902	3046.7529	3065.7973	3094.2292	3098.5095	3099.6775	3128.9898	3835.4604
CCCCCC(C)CO	CCCCC[C@@H](C)CO	
InChI=1S/C8H18O/c1-3-4-5-6-8(2)7-9/h8-9H,3-7H2,1-2H3	InChI=1S/C8H18O/c1-3-4-5-6-8(2)7-9/h8-9H,3-7H2,1-2H3/t8-/m1/s1
