21
gdb 89991	2.96838	1.23799	1.07467	2.6725	77.93	-0.2459	0.0677	0.3136	1222.3444	0.181244	-424.195435	-424.186231	-424.185287	-424.230065	34.246	
C	 0.3202524236	 1.5713324202	-0.170735052	-0.401848
C	-0.0258735802	 0.1182889214	 0.0889987367	 0.142022
O	 0.600976254	-0.7711992267	-0.8725263211	-0.325808
C	 1.2444795979	-1.5351850172	 0.1504686157	 0.370689
C	 1.0915419647	-3.0682541721	 0.1222666638	-0.132155
O	 2.5222493387	-3.2501825286	 0.1472368775	-0.275218
C	 2.74815764	-1.8345125203	-0.0095028354	-0.130593
C	 0.6406211076	-0.6503063102	 1.2660492727	-0.137781
C	 1.5875367338	 0.0845573552	 2.2039741908	-0.416846
H	 1.4005803081	 1.7385861743	-0.1602689911	 0.120002
H	-0.0572299054	 1.8676634809	-1.1543892257	 0.129627
H	-0.1429620013	 2.2211760436	 0.5796443725	 0.116443
H	-1.1164666112	-0.0083264883	 0.0624137902	 0.076299
H	 0.5986579572	-3.537364562	 0.9831818855	 0.09822
H	 0.6374174663	-3.4340255622	-0.8080759304	 0.108163
H	 3.120633739	-1.5751711393	-1.0093524281	 0.107254
H	 3.4310469314	-1.43825424	 0.7510594439	 0.100489
H	-0.0980276648	-1.2018472007	 1.855600667	 0.080515
H	 2.3651195837	 0.6319179055	 1.6633695931	 0.123378
H	 1.0427743816	 0.803458091	 2.8247178998	 0.120488
H	 2.0865680454	-0.6202512845	 2.8773228344	 0.126662
33.5076	80.2057	202.2052	215.6506	232.7859	250.3566	285.287	361.939	383.2401	444.1066	485.3238	566.1406	763.3741	781.7517	821.1738	889.0969	913.9665	924.9804	991.5405	993.9823	1003.9853	1031.3751	1043.6324	1084.5928	1104.3963	1148.6063	1152.165	1166.25	1178.5402	1198.8807	1247.3226	1277.1949	1295.1586	1320.8057	1370.092	1376.4161	1394.1243	1412.4445	1417.369	1479.652	1489.0377	1493.5583	1500.8601	1509.7358	1521.6202	3002.6909	3006.7694	3016.1851	3034.9526	3039.626	3054.9873	3059.1235	3064.2778	3099.7144	3107.2725	3109.9755	3123.0556
CC1OC2(COC2)C1C	C[C@H]1OC2(COC2)[C@H]1C	
InChI=1S/C7H12O2/c1-5-6(2)9-7(5)3-8-4-7/h5-6H,3-4H2,1-2H3	InChI=1S/C7H12O2/c1-5-6(2)9-7(5)3-8-4-7/h5-6H,3-4H2,1-2H3/t5-,6+/m0/s1
