14
gdb 129387	4.29469	1.15829	0.91512	7.0805	84.39	-0.1977	-0.0705	0.1272	1188.7206	0.102498	-466.188483	-466.18061	-466.179665	-466.220835	29.848	
N	 0.032039123	 1.3165021682	 0.1723343768	-0.549657
C	 0.001320183	-0.0437684835	 0.0065020926	 0.234251
N	 1.1929704025	-0.6895016909	-0.1393529766	-0.543073
H	 1.1491515168	-1.6975683729	-0.1193924219	 0.290694
H	 1.9938018252	-0.2859062942	 0.3230888258	 0.271176
C	-1.1911328071	-0.73030766	-0.0015738752	 0.407842
N	-2.4174761472	-0.1730799488	-0.0102650074	-0.242309
N	-3.3057844281	-1.1135728691	 0.00747313	-0.269439
C	-2.6286965341	-2.3556216485	 0.0198588612	 0.419599
N	-3.065982347	-3.5420390808	 0.0291918843	-0.561594
O	-1.2629465471	-2.0955736193	 0.0146766629	-0.247789
H	 0.7104192785	 1.8099992467	-0.3921963744	 0.265718
H	-0.886695875	 1.7409057614	 0.1698746302	 0.288483
H	-4.0841645933	-3.5111414883	 0.0298530819	 0.236098
116.9617	142.5632	158.6291	298.64	358.3504	401.8049	424.1927	426.4165	533.0489	573.2322	594.0015	635.8965	659.5569	710.1603	765.2202	800.7346	814.9077	898.3027	928.2595	1048.6415	1079.501	1123.1658	1228.1092	1309.1388	1352.2769	1394.3712	1500.4403	1630.5172	1642.8445	1725.3926	1744.9737	3518.5702	3541.8315	3574.28	3648.9828	3687.5302
NC(=[NH2+])C1=N[N-]C(=N)O1	NC(=[NH2])c1nnc([NH])o1	
InChI=1S/C3H4N5O/c4-1(5)2-7-8-3(6)9-2/h(H4-,4,5,6,8)/q-1/p+1	InChI=1S/C3H5N5O/c4-1(5)2-7-8-3(6)9-2/h6H,4-5H2
