16
gdb 17069	3.9723	1.46711	1.2728	0.4774	61.1	-0.2398	0.0632	0.303	969.3084	0.129437	-420.786449	-420.778777	-420.777833	-420.818532	28.569	
O	-0.0304176671	 1.4082036858	-0.3000087367	-0.427637
C	 0.0363642111	 0.0426650241	 0.0996545784	-0.127643
C	-1.376167595	-0.4950140007	 0.0765264087	 0.04097
C	-2.0051449892	-0.8570261647	-1.2953361943	-0.005021
O	-1.1057099096	-2.0291882166	-1.3931835311	-0.314586
C	-1.5928876619	-2.031613472	 0.0059511624	-0.006456
C	-3.0106107383	-1.8064379395	-0.5649246711	 0.122345
O	-3.9816968766	-1.3164304198	 0.3131897224	-0.425295
H	 0.8673055269	 1.7501329877	-0.3406170411	 0.287031
H	 0.6640002831	-0.5483197444	-0.5790198219	 0.106268
H	 0.4476121421	-0.0518939304	 1.1180589177	 0.082314
H	-2.0365021605	 0.0412146309	 0.7601770918	 0.099204
H	-2.1289432627	-0.2425759592	-2.1869486082	 0.095431
H	-1.2304284138	-2.8217916301	 0.6645857039	 0.093372
H	-3.3583388589	-2.6315656466	-1.1953753986	 0.086776
H	-4.7748519796	-1.1141056245	-0.1925477722	 0.292926
87.1909	154.673	220.1617	254.6884	258.735	339.4759	369.0429	455.7102	598.8059	648.4438	759.8977	802.9019	861.6397	894.3654	897.2738	907.9054	1043.5476	1068.4322	1085.3538	1103.1887	1119.3972	1136.9149	1154.5034	1183.3938	1195.5622	1238.1988	1262.9421	1264.0156	1270.5627	1299.8933	1391.287	1422.259	1464.3035	1524.649	2968.393	3042.363	3061.1755	3108.7381	3114.3182	3125.8105	3824.9254	3831.2717
OCC1C2OC1C2O	OC[C@H]1[C@H]2O[C@@H]1[C@H]2O	
InChI=1S/C5H8O3/c6-1-2-4-3(7)5(2)8-4/h2-7H,1H2	InChI=1S/C5H8O3/c6-1-2-4-3(7)5(2)8-4/h2-7H,1H2/t2-,3-,4+,5-
