22
gdb 123070	6.75151	0.44329	0.43896	2.5898	85.73	-0.2453	0.0207	0.2659	2558.0924	0.190925	-441.467664	-441.456152	-441.455208	-441.507083	38.176	
C	-0.5010662076	 1.1412928689	 0.1021791969	-0.384276
C	-0.6712108193	-0.2879495749	-0.4125987022	-0.038916
O	 0.1278413727	-0.5884597201	-1.5413850752	-0.244131
C	 1.4959173024	-0.7916870119	-1.2609401449	-0.048567
C	 2.166608433	-1.2615740671	-2.5507073086	-0.170536
N	 3.5939181953	-1.4015592022	-2.344921146	-0.215839
C	 4.1053387081	-2.5258212682	-2.5820176067	 0.131721
O	 5.4255887956	-2.7317630842	-2.4119830906	-0.191873
C	 5.8846071688	-4.0451442548	-2.7072376168	-0.249172
H	 0.5057406864	 1.3192364188	 0.491300119	 0.123324
H	-0.6910271101	 1.8601889661	-0.7004419176	 0.125408
H	-1.2101540495	 1.3343663485	 0.9141213495	 0.113165
H	-0.4689742301	-1.0092001947	 0.3967765586	 0.083982
H	-1.7055629747	-0.4433200115	-0.7379385664	 0.103748
H	 1.9900166434	 0.1266144786	-0.9124788985	 0.103461
H	 1.6225654599	-1.5528323191	-0.4723289604	 0.080974
H	 1.6793270121	-2.1902375709	-2.8921193717	 0.086803
H	 1.9892504232	-0.4987140346	-3.3186502868	 0.115732
H	 3.5476180678	-3.4064920667	-2.9400802683	 0.073164
H	 5.4214961119	-4.7906989482	-2.0492930184	 0.127159
H	 5.6886863793	-4.3145368258	-3.752278948	 0.127714
H	 6.9617163814	-4.0395901961	-2.5367442068	 0.146954
27.6538	43.7626	54.0432	74.0232	129.6101	140.391	164.7171	214.1416	265.7194	295.5584	316.2556	409.5347	446.6325	505.674	617.8237	800.8284	826.0004	883.2967	988.4351	1011.2425	1039.9973	1067.1872	1082.4025	1095.3282	1155.6768	1161.3026	1177.9196	1181.7539	1205.5644	1232.6236	1279.0815	1302.5774	1320.6684	1349.6377	1394.0523	1407.5259	1415.3939	1435.0245	1486.2652	1487.8372	1489.56	1494.9499	1497.7956	1501.3857	1509.0278	1529.374	1777.0455	2960.5197	2963.3577	2970.7731	2984.48	3015.0042	3015.961	3039.6502	3052.1163	3063.0104	3076.5648	3108.8222	3118.5793	3145.2729
CCOCCN=COC	CCOCCN=COC	
InChI=1S/C6H13NO2/c1-3-9-5-4-7-6-8-2/h6H,3-5H2,1-2H3	InChI=1S/C6H13NO2/c1-3-9-5-4-7-6-8-2/h6H,3-5H2,1-2H3
