20
gdb 109129	4.02051	0.95768	0.83851	3.3106	84.12	-0.2091	0.0005	0.2096	1413.2427	0.172248	-403.2123	-403.203369	-403.202425	-403.246259	33.593	
C	 0.1314821954	 1.5536347277	 0.1600685579	-0.369748
C	 0.011398736	 0.0372222651	-0.0754859896	-0.282466
C	-1.40239335	-0.4773388374	-0.0412514737	 0.270425
C	-2.0282192302	-0.9227435782	-1.1350709622	-0.075837
N	-3.3443022844	-1.4068199236	-1.1114580745	-0.329073
C	-4.2170122915	-1.2501408638	-0.0569643467	 0.399461
O	-5.335512488	-1.7222609466	-0.0722085716	-0.365494
C	-3.6631505898	-0.3898294298	 1.0712465369	-0.320704
C	-2.1477328125	-0.5453893799	 1.2744944182	-0.319719
H	 1.1798892222	 1.8679046062	 0.144570987	 0.114086
H	-0.403798028	 2.1105133759	-0.6152786575	 0.118715
H	-0.2861497103	 1.8463143202	 1.1289024351	 0.117968
H	 0.4654922025	-0.2123356663	-1.0416283454	 0.099126
H	 0.6052981547	-0.4859179841	 0.6879398867	 0.101538
H	-1.5554752883	-0.9489028604	-2.1108929407	 0.105271
H	-3.7120474012	-1.9037942682	-1.9083744857	 0.252222
H	-3.8895901672	 0.6514614087	 0.803129432	 0.129084
H	-4.2308220397	-0.6207506966	 1.9744229975	 0.128823
H	-1.9329847004	-1.5093809985	 1.76115303	 0.116574
H	-1.7923503596	 0.2237403895	 1.9678500762	 0.109748
69.2945	89.586	138.9342	199.4288	228.0928	325.5497	384.8594	415.7507	431.8602	507.2574	539.0506	560.2494	649.1204	727.2722	777.9856	790.9367	792.8159	879.6436	946.3507	977.1603	1004.3206	1034.7747	1071.2904	1085.7978	1140.595	1178.451	1202.6123	1244.0608	1279.2835	1297.6538	1337.9505	1358.0387	1382.1361	1401.3514	1408.1119	1457.6351	1464.6094	1477.5509	1481.5557	1498.2143	1505.8415	1738.663	1803.3086	2989.9596	3002.1538	3025.1798	3034.6682	3054.0499	3068.6596	3103.6873	3109.3638	3117.9393	3188.63	3628.9454
CCC1=CNC(=O)CC1	CCC1=CNC(=O)CC1	
InChI=1S/C7H11NO/c1-2-6-3-4-7(9)8-5-6/h5H,2-4H2,1H3,(H,8,9)	InChI=1S/C7H11NO/c1-2-6-3-4-7(9)8-5-6/h5H,2-4H2,1H3,(H,8,9)
