16
gdb 29150	3.08566	1.36607	0.9523	7.8115	81.36	-0.1774	-0.0392	0.1382	1167.2683	0.126601	-434.095372	-434.087211	-434.086267	-434.127688	31.894	
N	 0.0033313926	 1.3593672749	-0.276566455	-0.595753
C	-0.0174488171	-0.0199697314	-0.1014811146	 0.315143
C	-1.1929046609	-0.74947423	-0.0327041269	-0.309201
C	-1.2442392573	-2.1903966657	 0.0991976404	 0.338068
O	-2.2780622275	-2.8661640691	 0.1704061209	-0.451225
C	 0.0742720296	-2.7934945062	 0.1444030891	-0.155696
N	 1.1791203806	-2.0416515764	 0.0609331707	-0.247737
C	 1.2241680995	-0.690352843	-0.0426871057	 0.221871
N	 2.4576080846	-0.0062705254	-0.0749002147	-0.599601
H	 3.123789167	-0.300016571	 0.6288269115	 0.244837
H	 2.9069966918	 0.0227232963	-0.9843001521	 0.252409
H	 0.8709176269	 1.7850246658	 0.0207869877	 0.251308
H	-0.8149319811	 1.839570326	 0.0667110873	 0.250267
H	-2.1470919944	-0.2321601766	-0.0750666826	 0.092388
H	 0.2055264564	-3.8618310238	 0.248067596	 0.131894
H	 2.0760677691	-2.5117971442	 0.0857669378	 0.261028
121.6487	165.1025	219.81	282.4773	312.642	356.6463	401.6449	449.8904	462.295	508.3396	578.9003	620.0575	655.3788	676.6364	708.0823	749.7287	780.544	796.5059	840.0324	896.854	948.7948	1107.4627	1158.3193	1197.4562	1249.0094	1273.2719	1309.1723	1347.2509	1449.8223	1523.0507	1545.7898	1617.2739	1641.4426	1653.0769	1698.9913	3173.6554	3229.4089	3495.4251	3554.0355	3567.6631	3581.9118	3665.8929
NC1=CC([O-])=CNC1=[NH2+]	NC1=C(N[CH]C(=O)[CH]1)N	
InChI=1S/C5H7N3O/c6-4-1-3(9)2-8-5(4)7/h1-2,9H,6H2,(H2,7,8)	InChI=1S/C5H7N3O/c6-4-1-3(9)2-8-5(4)7/h1-2,8H,6-7H2
