16
gdb 105138	2.3875	1.22764	0.96981	3.1759	75.29	-0.2631	-0.0113	0.2518	1224.0492	0.124505	-396.93385	-396.924693	-396.923749	-396.968042	32.631	
N	-0.0348969396	 1.4702623684	-0.3156823084	-0.497551
C	-0.019768272	 0.0904342726	 0.1540412893	-0.245639
C	-1.4235276191	-0.4993968408	 0.0677394179	 0.157946
C	-1.886791064	-1.1176636246	-1.233854561	-0.303793
C	-1.6107262441	-2.0221134371	-0.0530635631	-0.223278
C	-0.4618272169	-2.8848909324	-0.0514063418	 0.30204
N	 0.4577868227	-3.5865775439	-0.0504506443	-0.331201
C	-2.4245120131	 0.1685481094	 0.8662121196	 0.275747
N	-3.2370416487	 0.6733925058	 1.5152620195	-0.334872
H	 0.8251790085	 1.9404825365	-0.0574038859	 0.243049
H	-0.1024938318	 1.5072561559	-1.3276204709	 0.233846
H	 0.6648018817	-0.5801537607	-0.3878872481	 0.116392
H	 0.2980532356	 0.0880976259	 1.2016709097	 0.137386
H	-2.9212185994	-0.9940666745	-1.5285453473	 0.157797
H	-1.168869002	-1.1318757249	-2.0458416767	 0.148743
H	-2.4730044377	-2.4304942857	 0.4617900215	 0.16339
90.5374	110.0856	122.9758	157.1345	201.3321	263.6397	267.2561	343.0405	401.621	503.1978	547.7374	574.7386	645.0161	676.5371	801.2346	825.64	893.9109	924.1639	953.8019	982.2213	1048.621	1088.5193	1096.0518	1129.6164	1177.6615	1265.0333	1288.6693	1339.0897	1401.8026	1425.4487	1477.5213	1501.7187	1660.4196	2355.7487	2360.0203	2986.2439	3078.8264	3150.9684	3183.0915	3248.3102	3509.1112	3593.0858
NCC1(CC1C#N)C#N	NC[C@]1(C[C@H]1C#N)C#N	
InChI=1S/C6H7N3/c7-2-5-1-6(5,3-8)4-9/h5H,1,3,8H2	InChI=1S/C6H7N3/c7-2-5-1-6(5,3-8)4-9/h5H,1,3,8H2/t5-,6+/m0/s1
