20
gdb 119648	4.4866	0.93859	0.90389	2.0482	77.85	-0.2332	0.0716	0.3048	1340.0492	0.17143	-403.072263	-403.063922	-403.062977	-403.105669	31.934	
O	-0.0807631203	 1.4773760877	-0.0002003274	-0.417745
C	 0.0175383836	 0.0618346812	-0.0028091027	-0.072358
C	-1.4017307964	-0.4992398057	-0.00708273	-0.321183
C	-1.4417214518	-2.0061887285	 0.0025981018	 0.30519
C	-0.9193386328	-2.8618154107	-1.1935477521	-0.283743
C	-1.8968545878	-3.9307254618	-0.7157107581	-0.03394
C	-2.7214615223	-2.9429755822	 0.0156261032	-0.114478
N	-1.9401507875	-3.945204087	 0.7919418991	-0.148269
C	-0.9876727622	-2.8639899982	 1.2032584903	-0.184151
H	 0.8091197993	 1.8415779881	 0.0080138956	 0.285958
H	 0.5644001513	-0.2984402766	-0.8888862627	 0.091147
H	 0.5605277364	-0.3015027809	 0.8849599094	 0.090435
H	-1.9315765611	-0.1048365885	 0.8689677255	 0.108274
H	-1.924625851	-0.1116959574	-0.8901582281	 0.107656
H	-1.2386981542	-2.4480578157	-2.154454155	 0.105082
H	 0.1512126448	-3.0943253236	-1.2272044046	 0.092093
H	-2.1981455233	-4.847520669	-1.2048288939	 0.097992
H	-3.7868066401	-2.7810083998	 0.1163156442	 0.094828
H	 0.0657191879	-3.1641762325	 1.2669372113	 0.091627
H	-1.3177958925	-2.464816899	 2.1668676141	 0.105587
75.2246	90.7136	127.0253	263.8655	305.0881	324.7447	345.0101	445.7047	458.7098	691.0324	726.3176	758.1771	797.1482	803.9217	848.5781	903.9061	926.7566	959.947	972.606	992.6383	1005.9067	1019.8545	1022.4308	1071.0133	1095.8086	1129.9819	1151.3122	1166.2151	1185.8831	1204.6322	1237.4259	1251.9273	1261.7372	1269.9423	1306.2964	1320.6493	1347.0395	1374.0919	1462.7288	1491.0241	1491.813	1512.8966	1528.3656	2963.5219	2988.7195	3021.2958	3026.7509	3034.9333	3066.8489	3090.0816	3096.2075	3194.3605	3210.2424	3829.9652
OCCC12CC3C1N3C2	OCC[C@]12C[C@@H]3[C@H]1N3C2	
InChI=1S/C7H11NO/c9-2-1-7-3-5-6(7)8(5)4-7/h5-6,9H,1-4H2	InChI=1S/C7H11NO/c9-2-1-7-3-5-6(7)8(5)4-7/h5-6,9H,1-4H2/t5-,6-,7-,8?/m1/s1
