18
gdb 13938	3.47131	1.78426	1.47334	2.3469	67.35	-0.2452	0.0694	0.3147	918.0321	0.153247	-384.905903	-384.898104	-384.89716	-384.938378	28.709	
C	-0.4520222718	 1.3884281345	 0.1103030735	-0.41388
C	 0.1516308416	 0.0049912411	 0.0054048731	 0.112725
O	 1.3505336266	-0.0205972898	-0.8095176943	-0.299271
C	 2.0605880952	-0.7951152828	 0.176626783	-0.12643
C	 0.922895698	-0.6152421936	 1.1954517445	 0.3532
C	 1.1149882663	 0.0749488911	 2.5598752834	-0.352177
C	 0.5282697987	-1.2260015288	 3.1389884595	-0.073749
O	 0.3704846153	-1.7843708912	 1.8154277574	-0.307259
H	 0.2699122745	 2.1042912813	 0.5149471242	 0.119834
H	-0.758582146	 1.7391561515	-0.8799660199	 0.13191
H	-1.3383629614	 1.3752559937	 0.753943278	 0.118515
H	-0.5890116997	-0.7168934256	-0.3697152866	 0.082611
H	 2.1940889919	-1.8427909192	-0.1243606617	 0.107961
H	 3.0343325989	-0.356389551	 0.4265169072	 0.099633
H	 2.1519377844	 0.2873036994	 2.8265023728	 0.114909
H	 0.5141975929	 0.9719380518	 2.7177959859	 0.1176
H	 1.2085892903	-1.8249675381	 3.7552409647	 0.107008
H	-0.4326854857	-1.1316762043	 3.6574757553	 0.10686
81.3132	84.9401	205.7022	220.0958	270.5202	334.8026	425.6452	497.5314	506.8015	760.0185	785.8727	865.1288	867.9535	897.3702	911.4441	975.0775	1012.938	1018.6911	1030.3605	1091.3734	1103.273	1153.8386	1159.1733	1172.2589	1186.7589	1225.1133	1233.0308	1277.337	1283.2721	1352.8989	1358.7935	1382.7511	1404.3466	1479.8141	1489.1022	1495.3044	1511.3292	1532.0599	2995.5575	3009.3443	3025.132	3034.6022	3058.283	3066.5186	3079.8999	3107.1472	3112.952	3134.1142
CC1OCC11CCO1	C[C@H]1OC[C@]21CCO2	
InChI=1S/C6H10O2/c1-5-6(4-7-5)2-3-8-6/h5H,2-4H2,1H3	InChI=1S/C6H10O2/c1-5-6(4-7-5)2-3-8-6/h5H,2-4H2,1H3/t5-,6+/m1/s1
