17
gdb 80518	2.3672	1.43031	1.28158	3.1951	76.3	-0.2397	0.0298	0.2694	1075.832	0.134647	-421.758627	-421.750108	-421.749164	-421.791262	33.326	
O	-0.2415947603	 1.4486377076	 0.0544570502	-0.42657
C	-0.1292938744	 0.0453473274	 0.0773881806	 0.033221
C	-0.4692221071	-0.7696000064	 1.281518302	-0.174339
C	-1.5700761102	-0.0902928559	 2.0940935873	-0.275393
C	-2.5047123953	-0.1048563951	 0.8350723888	 0.091464
O	-3.0536602888	 1.0881496519	 0.3636471205	-0.439315
C	-1.3829598428	-0.7763540977	-0.0000411335	 0.134186
C	-1.5844944282	-1.782247023	-0.9849581023	 0.154523
C	-1.7782086868	-2.6376005634	-1.8098553113	-0.394656
H	 0.4387266596	 1.8186022076	 0.6280061926	 0.295206
H	 0.6858143291	-0.3419901919	-0.5314243478	 0.110777
H	 0.1740052658	-1.570230425	 1.625636334	 0.105104
H	-1.9529472863	-0.7062829166	 2.9095123003	 0.110359
H	-1.3303926283	 0.9038368872	 2.4814244579	 0.094093
H	-3.3347448961	-0.8000754189	 0.9760509046	 0.103041
H	-2.3084091041	 1.6704258244	 0.1653168772	 0.293628
H	-1.9501852759	-3.3877293322	-2.541050371	 0.184671
125.2472	142.0939	188.0152	232.4055	282.3493	339.1275	390.3924	436.0562	503.0754	532.5423	541.3671	561.6031	580.8847	642.1652	674.1348	766.4786	796.0933	849.4794	887.6993	954.8177	998.9704	1031.0148	1059.5278	1104.2073	1116.8677	1160.5474	1207.0539	1212.8749	1247.9581	1283.537	1294.2651	1323.3205	1338.9002	1452.4959	1462.9307	1487.8432	2230.1721	3061.5507	3093.435	3122.0143	3127.7653	3193.0251	3503.6813	3762.939	3800.3783
OC1C2CC(O)C12C#C	O[C@H]1[C@H]2C[C@@H](O)[C@@]12C#C	
InChI=1S/C7H8O2/c1-2-7-4(6(7)9)3-5(7)8/h1,4-6,8-9H,3H2	InChI=1S/C7H8O2/c1-2-7-4(6(7)9)3-5(7)8/h1,4-6,8-9H,3H2/t4-,5-,6+,7+/m1/s1
