19
gdb 95019	2.52399	1.91729	1.44653	2.1973	72.96	-0.2328	0.0684	0.3012	966.2672	0.160613	-422.987636	-422.980222	-422.979278	-423.019329	29.541	
C	-0.0409547675	 1.5849473157	-0.056584344	-0.414453
C	 0.0374574626	 0.0597136303	 0.0106192774	 0.003958
C	 0.7867071542	-0.5755287923	-1.1907355843	-0.088358
O	 1.3589313698	-1.8070401543	-0.7355759133	-0.263914
C	 1.608371961	-1.7125878412	 0.6411248193	 0.080456
C	 2.8979882469	-1.0040041366	 1.1313724752	-0.005202
O	 2.9287061088	 0.3066635317	 0.5535763861	-0.238769
C	 2.1021880083	 0.1005799824	 1.7037736419	 0.006936
C	 0.774547547	-0.5263371855	 1.228063873	-0.106336
H	 0.9594016742	 2.0273786546	-0.0544454245	 0.13897
H	-0.5510025314	 1.9109080982	-0.9694083457	 0.115624
H	-0.5976291495	 1.9923558572	 0.7936041887	 0.111516
H	-0.98047782	-0.3478967993	 0.0262516391	 0.078575
H	 0.1176558116	-0.8184539948	-2.0228703931	 0.09676
H	 1.570614613	 0.0986630766	-1.5518988664	 0.112131
H	 1.463383075	-2.6916808468	 1.1061369982	 0.084164
H	 3.8485766418	-1.4281795276	 1.4346348665	 0.103888
H	 2.2942259587	 0.7246391022	 2.5685641074	 0.105771
H	 0.1163520354	-0.7974491503	 2.0552447385	 0.078283
112.9869	201.091	218.0888	234.1765	304.1068	393.1501	502.808	568.2354	634.1968	691.8459	761.2843	796.2107	848.7737	879.2099	884.9965	905.3288	934.0544	959.4236	972.4955	991.7389	1010.1153	1049.8289	1070.8271	1118.1458	1144.7589	1164.0312	1187.2808	1221.137	1232.8687	1246.7349	1264.2778	1299.6702	1325.8918	1349.9889	1361.1875	1381.7987	1401.3639	1414.63	1499.0432	1505.1975	1518.5883	3025.7081	3034.397	3038.6741	3073.5108	3082.746	3096.6845	3100.2344	3116.3173	3177.2919	3193.9056
CC1COC2C3OC3C12	C[C@H]1CO[C@H]2[C@H]3O[C@H]3[C@@H]12	
InChI=1S/C7H10O2/c1-3-2-8-5-4(3)6-7(5)9-6/h3-7H,2H2,1H3	InChI=1S/C7H10O2/c1-3-2-8-5-4(3)6-7(5)9-6/h3-7H,2H2,1H3/t3-,4-,5+,6-,7+/m0/s1
