18
gdb 30183	4.63091	1.23447	1.00112	0.8026	79.17	-0.2031	0.0209	0.224	1174.2349	0.149751	-401.958471	-401.950927	-401.949983	-401.990428	29.115	
C	-0.070323454	 1.4272816577	 0.0334032785	-0.313329
N	-0.0771713041	-0.0133759884	 0.1459328931	-0.074506
C	-1.4208231622	-0.6314188675	 0.1573412367	-0.294333
C	-1.1292160831	-1.852623585	 0.9540123087	 0.319117
C	 0.0745189275	-1.8432830835	 1.562800777	 0.244391
C	 0.7730813179	-0.5608292728	 1.2330802452	-0.296162
C	 0.1498805801	-3.0634824579	 2.3075709885	-0.363745
C	-1.0331341203	-3.6999373425	 2.0697837329	-0.015524
O	-1.8389629762	-2.9643691499	 1.2354342069	-0.1985
H	 0.9592229365	 1.7854572558	-0.0718278636	 0.120197
H	-0.6206756038	 1.7355743751	-0.8619258371	 0.119534
H	-0.521457923	 1.9439659694	 0.9034094101	 0.090336
H	-2.1825147105	 0.006997475	 0.6458783191	 0.095255
H	-1.7701885913	-0.8238658318	-0.8661970315	 0.11745
H	 1.8041778031	-0.6826073248	 0.8756684733	 0.111199
H	 0.8142505433	 0.1141882475	 2.108593772	 0.091207
H	 0.9517094169	-3.4339768085	 2.9271699742	 0.113521
H	-1.4431350867	-4.6423829479	 2.3924593459	 0.133892
95.3257	205.7835	222.6781	262.806	289.8645	311.3873	456.6676	510.3891	610.6746	654.7007	716.0829	723.7047	780.3994	818.5158	844.1542	927.6595	1012.1082	1024.1854	1048.6361	1057.86	1096.8037	1136.9838	1157.7318	1181.2443	1193.2477	1200.4683	1230.8795	1269.0566	1322.2703	1344.0866	1411.21	1460.988	1481.5693	1489.3952	1503.4031	1515.9829	1519.1326	1529.2657	1660.5348	2903.8259	2911.8256	2922.1329	3011.7028	3017.4444	3052.9325	3096.1506	3252.7634	3286.3865
CN1CC2=C(C1)C=CO2	CN1Cc2c(C1)cco2	
InChI=1S/C7H9NO/c1-8-4-6-2-3-9-7(6)5-8/h2-3H,4-5H2,1H3	InChI=1S/C7H9NO/c1-8-4-6-2-3-9-7(6)5-8/h2-3H,4-5H2,1H3
