14
gdb 14301	3.96281	1.91895	1.84404	2.1425	57.39	-0.2216	0.0446	0.2662	763.4485	0.108633	-415.849796	-415.843034	-415.84209	-415.880394	26.261	
N	 0.1457057877	 1.2859779499	-0.2240217948	-0.57555
C	 0.0096227257	-0.0631343571	-0.0771924602	 0.467211
N	-1.0848225874	-0.7361801163	-0.1063907569	-0.368629
C	-0.6891318187	-2.1234463945	-0.0350524244	-0.104346
C	 0.1476141744	-2.6096123523	-1.2012826274	 0.082239
O	 0.207238317	-1.8833311138	-2.3833458963	-0.426203
C	 0.8364218497	-2.110346914	 0.0513461496	 0.00759
O	 1.1835128018	-0.734230177	 0.0641016864	-0.23169
H	 0.9844143806	 1.6836036756	 0.1696177207	 0.267995
H	-0.6991952615	 1.809786622	-0.0579313562	 0.271904
H	-1.3458486018	-2.795550316	 0.5054392461	 0.097088
H	 0.1901303052	-3.6870455253	-1.3456751612	 0.102692
H	-0.5392739126	-1.2699053209	-2.3780151086	 0.29862
H	 1.4823231998	-2.7158609203	 0.6735831531	 0.11108
145.6508	207.6482	293.0924	312.9761	363.773	437.782	526.823	591.666	647.4969	698.2093	740.1484	775.3971	786.6557	806.2911	935.6299	958.0548	1023.9493	1038.2176	1079.8759	1083.0599	1119.5506	1186.8626	1208.2865	1278.8377	1333.5361	1365.3376	1412.3007	1433.5693	1613.7053	1720.9355	3131.3983	3171.1099	3199.9853	3591.76	3706.6634	3758.0591
NC1=NC2C(O)C2O1	NC1=N[C@H]2[C@@H](O)[C@H]2O1	
InChI=1S/C4H6N2O2/c5-4-6-1-2(7)3(1)8-4/h1-3,7H,(H2,5,6)	InChI=1S/C4H6N2O2/c5-4-6-1-2(7)3(1)8-4/h1-3,7H,(H2,5,6)/t1-,2+,3-/m0/s1
