18
gdb 38055	3.19082	1.75034	1.66212	1.1857	75.28	-0.2269	0.0019	0.2287	896.113	0.150282	-401.85738	-401.85082	-401.849876	-401.888029	27.599	
C	-0.0518711598	 1.4686407393	-0.0431937474	-0.071185
C	 1.4628164364	 1.947439266	 0.009535714	-0.395724
C	 2.0666126649	 0.6427444469	 0.4788113234	 0.278799
N	 3.297911199	-0.2660314495	 0.2101098106	-0.392908
C	 2.2271505027	-1.3487661234	 0.4880678943	-0.147714
C	 1.9422326061	-1.0580497236	 1.954260673	-0.039948
C	 1.8299990159	 0.2678378982	 1.9515561499	-0.086573
C	 1.2285138404	-0.3764665087	-0.2582990188	 0.139498
O	-0.1073750165	 0.0114205926	-0.0468231776	-0.286128
H	-0.6090428756	 1.8139490867	 0.8328565071	 0.116407
H	-0.5475424519	 1.8488173381	-0.9431267537	 0.108643
H	 1.810596003	 2.2353159651	-0.9861854468	 0.112094
H	 1.5865968867	 2.7997096952	 0.6821386743	 0.110484
H	 3.4776032029	-0.266742369	-0.8003105547	 0.209128
H	 2.44429365	-2.3615798628	 0.1523666562	 0.072242
H	 1.8725944253	-1.7779842191	 2.755505185	 0.110295
H	 1.6463035731	 0.9673322895	 2.7544883158	 0.101527
H	 1.4458551477	-0.4132651215	-1.3377602147	 0.061062
129.3858	263.5517	294.0545	358.7259	507.2904	555.5163	568.6352	659.0507	714.6462	736.5896	769.7736	816.2643	837.0148	856.0845	886.098	895.5355	908.4364	940.1224	948.2403	965.2036	1020.0609	1068.5317	1076.9083	1092.8957	1147.5039	1159.6336	1182.9158	1209.8603	1214.8785	1265.042	1271.2247	1281.136	1295.5684	1363.0601	1371.7829	1414.0643	1494.4258	1516.0841	1639.0237	2971.3781	3037.7009	3063.2642	3082.2787	3114.6109	3135.7005	3226.1083	3256.5566	3383.9709
C1CC23NC(C=C2)C3O1	C1C[C@@]23N[C@@H](C=C2)[C@H]3O1	
InChI=1S/C7H9NO/c1-2-7-3-4-9-6(7)5(1)8-7/h1-2,5-6,8H,3-4H2	InChI=1S/C7H9NO/c1-2-7-3-4-9-6(7)5(1)8-7/h1-2,5-6,8H,3-4H2/t5-,6+,7-/m0/s1
