17
gdb 120185	5.2092	0.78179	0.75799	3.0964	69.67	-0.2597	-0.0139	0.2458	1479.4452	0.134079	-458.888803	-458.88018	-458.879236	-458.922872	31.214	
O	-0.0708164596	 1.4468753544	-0.0054848864	-0.416358
C	 0.0001772516	 0.0386930744	 0.1387030196	-0.070834
C	-1.3884759863	-0.5213129609	-0.1537350895	-0.221607
C	-1.4259152289	-2.0416081817	-0.1136039549	-0.004249
C	-1.4722800157	-2.7437853691	 1.2795369177	-0.089615
O	-2.8828113157	-2.2959361979	 1.4264854158	-0.298466
C	-2.8204449497	-2.7230382775	 0.002275177	-0.100992
C	-2.1022647859	-3.9753917464	 0.5741456794	 0.478737
O	-2.1230597297	-5.1601495174	 0.5773340192	-0.307367
H	 0.7937730001	 1.8164630432	 0.1957641846	 0.288239
H	 0.7354428769	-0.3982472122	-0.5578818975	 0.085039
H	 0.3104523219	-0.2447052764	 1.1576975328	 0.088298
H	-2.1023381611	-0.1110836263	 0.5645743264	 0.13216
H	-1.6923128135	-0.1785349043	-1.1497841175	 0.113044
H	-0.7438525754	-2.4986204393	-0.840429773	 0.091439
H	-0.8195117278	-2.648328698	 2.1446588246	 0.115688
H	-3.7155364314	-2.5970994047	-0.6033961284	 0.116843
76.5329	90.8361	106.2872	167.1423	261.4384	284.8443	329.3928	395.4207	484.234	584.4296	693.1195	747.3624	784.8848	797.2909	812.464	862.5261	913.8899	970.0495	1011.364	1060.4532	1075.4998	1090.5145	1107.5345	1135.0878	1146.34	1181.4764	1192.1265	1232.0859	1250.09	1256.6559	1312.6186	1329.2422	1406.0127	1463.5023	1491.5377	1528.2937	1940.2557	2956.2822	2983.1621	3043.7772	3048.3494	3113.1803	3150.597	3154.8107	3831.0495
OCCC1C2OC1C2=O	OCC[C@H]1[C@H]2O[C@@H]1C2=O	
InChI=1S/C6H8O3/c7-2-1-3-5-4(8)6(3)9-5/h3,5-7H,1-2H2	InChI=1S/C6H8O3/c7-2-1-3-5-4(8)6(3)9-5/h3,5-7H,1-2H2/t3-,5+,6-
