19
gdb 65162	2.87317	1.1807	1.03701	1.7108	82.32	-0.2478	0.0199	0.2677	1233.2986	0.156621	-385.819305	-385.810062	-385.809118	-385.853815	34.954	
C	 0.142671383	 1.4615162731	-0.1625142452	-0.482027
C	 0.1295648751	-0.0504331974	-0.0491409868	 0.31961
C	 1.3058069204	-0.8382629001	-0.5862857646	-0.296653
C	 1.1223077526	-0.6942746488	 0.9008885765	-0.29941
C	-1.1985661251	-0.7434401356	-0.1392505928	 0.0235
O	-2.3678764778	-0.0573693954	 0.2991064141	-0.249386
C	-2.3036812945	-0.4486361223	-1.0860042131	-0.173678
C	-2.2941104747	 0.5709401129	-2.0992281036	 0.324892
C	-2.3534781734	 1.3660433929	-2.9995508719	-0.403635
H	 1.1494770121	 1.8434630548	 0.0314776546	 0.106269
H	-0.1625804861	 1.7962716519	-1.1560205265	 0.135718
H	-0.5402178782	 1.9075805008	 0.565942635	 0.133779
H	 1.1149722189	-1.8089308345	-1.0328889496	 0.112185
H	 2.1010791089	-0.2801620528	-1.0680917501	 0.11715
H	 1.7924503637	-0.035911545	 1.4425122063	 0.114947
H	 0.806734873	-1.5666608777	 1.4639555003	 0.112978
H	-1.1595538382	-1.7874520792	 0.1852014201	 0.087887
H	-2.9640966131	-1.2840901063	-1.3245036106	 0.114536
H	-2.3891545566	 2.0828207988	-3.7825722921	 0.201338
26.4203	127.5421	184.0393	209.5413	245.3268	250.7473	323.7015	341.4918	402.6003	484.7512	546.3906	603.7309	623.488	669.7635	714.5171	782.0767	822.9766	845.4088	866.8899	930.0892	959.4578	967.7256	999.8248	1043.8191	1072.7273	1078.6206	1104.6303	1125.3554	1156.3683	1190.8937	1274.2415	1296.3813	1358.0618	1396.6125	1417.0585	1459.5453	1469.5926	1488.337	1502.4981	1513.0853	2235.192	3046.404	3060.6151	3093.1478	3113.8813	3128.5949	3131.9408	3132.905	3207.0963	3221.4263	3501.1732
CC1(CC1)C1OC1C#C	CC1(CC1)[C@H]1O[C@H]1C#C	
InChI=1S/C8H10O/c1-3-6-7(9-6)8(2)4-5-8/h1,6-7H,4-5H2,2H3	InChI=1S/C8H10O/c1-3-6-7(9-6)8(2)4-5-8/h1,6-7H,4-5H2,2H3/t6-,7-/m0/s1
