18
gdb 85363	2.99722	1.33369	1.06812	3.7342	74.14	-0.2416	-0.0369	0.2047	1137.6362	0.148398	-439.12787	-439.119297	-439.118352	-439.160789	32.809	
C	-0.1048116182	 1.5459318528	-0.0395784305	-0.386377
C	 0.0135483303	 0.0179189785	 0.0489772736	-0.00126
N	 0.6876532851	-0.5676403883	-1.1123835507	-0.342592
C	 2.0537251234	-0.5633287846	-1.2817043507	 0.394811
O	 2.5810666022	-0.7757738858	-2.3598412991	-0.379944
C	 2.8365941742	-0.3222266837	-0.0396205173	-0.143226
C	 2.2484369567	-0.2676287398	 1.1550949582	-0.115356
C	 0.7576687447	-0.4644916552	 1.3073703425	 0.079384
O	 0.2180324623	 0.2352104269	 2.4181225178	-0.429528
H	 0.8815083775	 2.0168941092	-0.0729084936	 0.127506
H	-0.6458122098	 1.8230800658	-0.9495871417	 0.110733
H	-0.6474902564	 1.9374899225	 0.8230381356	 0.139498
H	-0.9948991991	-0.4068485966	 0.0869290206	 0.096519
H	 0.1770965213	-0.5924363916	-1.9839056246	 0.244854
H	 3.9068016216	-0.2267491342	-0.1804442513	 0.11834
H	 2.8258798486	-0.1174717196	 2.0651138723	 0.102261
H	 0.5663880453	-1.546537653	 1.4096526296	 0.094398
H	 0.5787237904	-0.1500277333	 3.2225093393	 0.289977
95.5454	134.7517	229.5467	243.298	261.6246	283.8833	371.3416	408.794	421.9335	466.0774	555.1534	594.1547	609.4908	706.1301	759.8351	811.8719	842.8155	890.5832	964.1772	1002.4599	1018.9114	1064.6308	1092.8214	1118.5194	1158.5982	1161.9359	1246.8202	1288.9187	1325.4085	1372.865	1381.8746	1395.4113	1406.8575	1425.2501	1460.8073	1489.827	1506.0288	1690.9923	1782.7716	2949.1098	3047.5536	3051.7762	3117.1801	3140.9383	3149.1762	3210.3181	3602.8014	3827.5914
CC1NC(=O)C=CC1O	C[C@H]1NC(=O)C=C[C@H]1O	
InChI=1S/C6H9NO2/c1-4-5(8)2-3-6(9)7-4/h2-5,8H,1H3,(H,7,9)	InChI=1S/C6H9NO2/c1-4-5(8)2-3-6(9)7-4/h2-5,8H,1H3,(H,7,9)/t4-,5-/m1/s1
