20
gdb 13886	3.87068	1.38454	1.33716	1.2869	70.32	-0.25	0.0796	0.3296	1038.9133	0.177048	-386.14551	-386.136862	-386.135917	-386.179272	31.266	
C	 0.0378705342	 1.5151191554	-0.0686624312	-0.391707
C	 0.0068674084	-0.0109305643	 0.1017521759	 0.01263
C	 0.7163660507	-0.4249614952	 1.3984472414	-0.395278
C	-1.4403763356	-0.5219410739	 0.0196956029	 0.133337
C	-1.6311922524	-2.0486941166	-0.0413481735	-0.141312
O	-2.8503892969	-2.2555799306	 0.6572980855	-0.236253
C	-2.8389623512	-1.2980457623	 1.6833126341	 0.028405
O	-2.1957115132	-0.1426734641	 1.1793721884	-0.275718
H	 1.0651774843	 1.8920727958	-0.0483119813	 0.108625
H	-0.4141435195	 1.8196979828	-1.0184972233	 0.109255
H	-0.5187291083	 2.0015474787	 0.7387703367	 0.133076
H	 0.5384364301	-0.4602076617	-0.7505294062	 0.072679
H	 0.7812245514	-1.510895236	 1.5150329838	 0.109819
H	 1.7383789568	-0.0339945725	 1.4141207461	 0.112176
H	 0.1853643557	-0.0228756425	 2.2660576737	 0.131502
H	-1.9219365909	-0.0635847013	-0.8562727385	 0.075357
H	-1.7484230537	-2.4282596198	-1.0583907661	 0.118419
H	-0.8035707301	-2.584575948	 0.4465438599	 0.097473
H	-3.8733652176	-1.0626714202	 1.9558956369	 0.114755
H	-2.292088972	-1.6721611135	 2.5677490646	 0.082762
44.4637	78.7049	192.5083	211.4306	230.84	261.9403	295.8722	346.2457	437.3876	582.4877	630.6843	740.9753	816.0234	894.1764	927.6487	966.6992	970.3662	975.2094	1008.9839	1035.957	1083.1995	1119.4486	1139.0065	1160.2307	1182.845	1202.8958	1212.0466	1260.9484	1315.7018	1332.4178	1352.2147	1378.585	1394.8379	1401.0434	1422.6058	1438.7799	1487.8356	1494.9304	1502.4181	1514.7275	1516.7097	1548.7838	2935.4649	2987.2778	2997.8616	3002.5787	3032.8914	3041.1753	3065.8018	3100.3061	3103.6516	3108.8358	3110.0574	3118.3168
CC(C)C1COCO1	CC(C)[C@H]1COCO1	
InChI=1S/C6H12O2/c1-5(2)6-3-7-4-8-6/h5-6H,3-4H2,1-2H3	InChI=1S/C6H12O2/c1-5(2)6-3-7-4-8-6/h5-6H,3-4H2,1-2H3/t6-/m1/s1
