21
gdb 112252	2.43665	1.10413	0.85298	2.7769	79.4	-0.2356	-0.0159	0.2197	1414.5996	0.180562	-424.233778	-424.223743	-424.222799	-424.269208	36.391	
C	 0.0454994176	 1.7384122677	-0.1690423403	-0.390559
C	 0.3886894814	 0.2691672434	 0.1060917838	-0.202341
C	 0.6716770985	-0.5049560425	-1.1807010601	-0.099847
C	 0.9878176981	-2.0448130033	-1.2009125023	-0.036215
C	 0.499903231	-2.8187468637	 0.0119282592	-0.083631
O	 0.6710095844	-4.1994460025	-0.2716454324	-0.421754
C	 0.0550721306	-2.2189831437	-2.4393370279	-0.337571
C	-0.4854668247	-0.8113985054	-2.150557294	 0.385915
O	-1.4840923217	-0.2224304318	-2.4555537146	-0.302696
H	 0.8803456569	 2.2519407176	-0.6591636198	 0.11128
H	-0.8258420237	 1.8124581485	-0.8246420504	 0.149784
H	-0.1741385724	 2.2712618672	 0.761074345	 0.110138
H	 1.2635407612	 0.2059244993	 0.7655142238	 0.099486
H	-0.4415318417	-0.201481363	 0.6459071265	 0.102454
H	 1.4514831599	 0.0165214414	-1.753432031	 0.101802
H	 2.0364835114	-2.2912975418	-1.3787340759	 0.082244
H	 1.0703807763	-2.51997955	 0.9050761493	 0.09109
H	-0.5599652181	-2.584212654	 0.2071590859	 0.088908
H	 0.3441889613	-4.7047471778	 0.4784931185	 0.288121
H	 0.5928129852	-2.2587972878	-3.391825665	 0.127753
H	-0.6641544116	-3.040658188	-2.4105137085	 0.135639
58.3055	94.6343	121.5551	136.0055	172.5679	250.4883	268.8134	284.649	309.8049	394.9911	432.968	504.0276	555.1708	716.4447	743.6402	788.2153	824.1897	870.9992	912.3828	969.4814	988.613	1032.8399	1047.0512	1074.7989	1082.7172	1119.9455	1145.2772	1171.6284	1182.5922	1218.4981	1240.7094	1264.6854	1281.8031	1293.3351	1334.4941	1363.4993	1372.0961	1412.1734	1442.1768	1462.8238	1488.6924	1498.9005	1513.0358	1522.1391	1877.735	2959.5866	2994.7154	3013.4343	3022.4097	3035.3847	3058.534	3061.6487	3091.2307	3100.7909	3121.6959	3127.6427	3828.9821
CCC1C(CO)CC1=O	CC[C@H]1[C@@H](CO)CC1=O	
InChI=1S/C7H12O2/c1-2-6-5(4-8)3-7(6)9/h5-6,8H,2-4H2,1H3	InChI=1S/C7H12O2/c1-2-6-5(4-8)3-7(6)9/h5-6,8H,2-4H2,1H3/t5-,6+/m1/s1
