19
gdb 75887	2.32115	1.57433	1.19737	1.4758	70.61	-0.252	-0.0306	0.2214	1089.0138	0.157456	-460.197619	-460.18848	-460.187536	-460.230974	35.14	
C	 0.6203529237	 1.3436666167	-0.1506426625	-0.438276
C	-0.0807436325	-0.0073180126	 0.017930211	 0.341892
O	-1.4870519952	 0.1640637361	 0.1002025179	-0.480787
C	 0.2048350718	-0.9806762017	-1.1533551503	-0.248828
C	 1.5660304779	-1.6433542472	-0.8369897008	-0.335689
C	 1.7712221483	-1.3906655214	 0.6519551121	 0.368185
O	 2.78244583	-1.5166771686	 1.299437825	-0.335051
C	 0.4923910241	-0.7967278089	 1.2202433305	 0.012382
O	 0.7078645336	-0.0702217093	 2.3955903518	-0.452132
H	 1.6966010979	 1.2285450032	-0.3197362261	 0.118828
H	 0.1904265979	 1.8760877921	-1.0029672354	 0.123975
H	 0.4989489354	 1.9491659729	 0.7519546751	 0.131365
H	-1.6663221615	 0.767471083	 0.8301447638	 0.284908
H	-0.598187307	-1.7226281756	-1.1717276248	 0.121558
H	 0.1953969	-0.4653626753	-2.1161129418	 0.112659
H	 1.5897945994	-2.7155217903	-1.0547050618	 0.140145
H	 2.4046548468	-1.1974158069	-1.380940579	 0.141319
H	-0.211868803	-1.631313192	 1.3954473544	 0.100051
H	 1.6060950726	-0.2975605442	 2.6824773209	 0.293496
85.5277	133.4144	211.0319	244.362	253.2833	294.2405	338.414	350.6589	396.5355	420.029	449.5797	544.0193	556.0129	606.5937	639.6185	730.8616	777.7685	871.0919	935.7606	969.842	986.0426	999.2436	1035.8445	1090.7169	1118.4537	1170.296	1198.3485	1206.5311	1226.8234	1278.4778	1305.9005	1316.2489	1354.0568	1374.8495	1408.7238	1415.8759	1448.7294	1485.83	1494.7394	1500.9186	1835.2876	2939.3051	3038.1741	3059.3822	3068.7834	3095.3542	3106.1074	3118.0681	3127.0922	3700.8173	3801.4724
CC1(O)CCC(=O)C1O	C[C@@]1(O)CCC(=O)[C@H]1O	
InChI=1S/C6H10O3/c1-6(9)3-2-4(7)5(6)8/h5,8-9H,2-3H2,1H3	InChI=1S/C6H10O3/c1-6(9)3-2-4(7)5(6)8/h5,8-9H,2-3H2,1H3/t5-,6-/m1/s1
