13
gdb 24879	3.39339	1.31795	0.94927	3.5245	79.59	-0.2395	-0.091	0.1486	1131.2222	0.090767	-415.649799	-415.64263	-415.641686	-415.681741	26.717	
N	 0.0238333093	 1.3055119128	 0.0097492494	-0.529081
C	-0.0113266694	 0.0401246229	 0.0030585922	 0.385167
O	 1.1814493852	-0.7019363696	-0.0073641114	-0.275217
C	 1.1668354472	-2.0581718341	-0.0146689904	 0.281003
C	 0.0299252022	-2.785779784	-0.0125338013	-0.229124
C	-1.2243088042	-2.0841739291	-0.0019891169	-0.076506
C	-1.2391807569	-0.735119799	 0.0054300974	-0.135622
C	 2.4721616183	-2.6352686581	-0.0248098251	 0.244686
N	 3.5234125374	-3.1194215808	-0.0330825645	-0.316303
H	 0.9828949646	 1.6526079	 0.0064934537	 0.233853
H	 0.0839669737	-3.8652787945	-0.0187006637	 0.143396
H	-2.1487973759	-2.6501568163	-0.0001091211	 0.131211
H	-2.1542412714	-0.1575176201	 0.0134804518	 0.142537
119.4413	140.4381	152.7819	349.8811	414.1386	456.9117	468.6718	528.9407	576.5456	660.1151	706.2312	721.2757	819.1132	859.0986	870.7882	895.4416	974.1337	1012.576	1034.7645	1099.6502	1155.9797	1219.3892	1267.154	1375.807	1429.1921	1597.6346	1673.5805	1745.2619	2346.3252	3199.8907	3231.474	3240.0292	3499.3054
N=C1OC(=CC=C1)C#N	[NH]C1=CC=C[C@@H](O1)C#N	
InChI=1S/C6H4N2O/c7-4-5-2-1-3-6(8)9-5/h1-3,8H	InChI=1S/C6H5N2O/c7-4-5-2-1-3-6(8)9-5/h1-3,5,8H/t5-/m1/s1
