20
gdb 115455	3.12291	1.03233	0.91381	4.7984	77.39	-0.2357	0.0294	0.2651	1347.9302	0.171425	-440.311246	-440.302039	-440.301095	-440.346355	32.842	
C	-0.6905987799	 0.7236723618	 0.0667891349	-0.239497
O	-0.0307242198	-0.4953624584	-0.1877242185	-0.245464
C	 0.9563405598	-0.4289710454	-1.1994923633	 0.123354
C	 1.7569263813	-1.7365519587	-1.1441932159	-0.257294
C	 0.8770697736	-2.7409935006	-1.9040828831	-0.146117
N	 0.1439915912	-1.8961713396	-2.8520972519	-0.035561
C	 0.3498538535	-0.4701192581	-2.6164078534	-0.19503
C	-0.7131489281	-2.4201437079	-3.7591852135	 0.138428
O	-0.9099535545	-3.6091133152	-3.9167247179	-0.342312
H	 0.020005347	 1.515544279	 0.3506663093	 0.10777
H	-1.2735971587	 1.0792153453	-0.795899869	 0.107132
H	-1.3772037782	 0.5493122625	 0.8982887236	 0.135132
H	 1.5837070583	 0.4627096842	-1.0577719738	 0.069143
H	 2.7141857929	-1.5974468853	-1.6562473633	 0.11031
H	 1.9550102606	-2.0357408017	-0.1141093577	 0.121632
H	 1.4491254432	-3.5070784126	-2.4337751263	 0.125602
H	 0.1740377501	-3.2532757772	-1.2386197574	 0.13117
H	-0.5890989279	 0.0864695534	-2.6859181472	 0.119921
H	 1.0545878555	-0.0332285921	-3.3384706509	 0.108286
H	-1.2240158799	-1.6373733934	-4.3567502046	 0.063393
30.6321	100.279	131.6713	171.5226	217.6155	230.5839	294.9616	331.2317	373.0174	443.0142	529.151	696.2753	764.1868	830.3228	872.2518	874.0246	929.4283	952.72	1000.7876	1034.5068	1062.0948	1115.9581	1142.9447	1179.2951	1184.5673	1200.8528	1217.2247	1232.7862	1259.8716	1301.5938	1327.8909	1350.0624	1373.0353	1387.3537	1409.5639	1448.1767	1479.5953	1479.9773	1488.8576	1505.7931	1512.5715	1522.8456	1789.9461	2920.0392	2976.4779	2993.9231	3009.2535	3024.7372	3049.5142	3063.4852	3082.517	3094.7802	3119.4375	3131.6774
COC1CCN(C1)C=O	CO[C@H]1CCN(C1)C=O	
InChI=1S/C6H11NO2/c1-9-6-2-3-7(4-6)5-8/h5-6H,2-4H2,1H3	InChI=1S/C6H11NO2/c1-9-6-2-3-7(4-6)5-8/h5-6H,2-4H2,1H3/t6-/m0/s1
