16
gdb 20811	6.13943	1.23492	1.10461	3.12	68.23	-0.2256	0.0086	0.2342	1088.1707	0.131335	-379.929273	-379.921423	-379.920479	-379.961853	28.822	
C	 0.1256554528	 1.5588095525	-0.1363109628	-0.374225
C	-0.061879978	 0.0468211377	 0.0775681445	-0.295225
C	 0.5833586447	-0.450105882	 1.3277720292	 0.470196
C	 0.0993830704	-1.0128645099	 2.466225056	-0.423872
C	 1.2676323579	-1.2414280281	 3.2549183141	 0.419697
N	 1.3322600531	-1.8709952024	 4.4875933552	-0.588204
N	 2.3596406655	-0.8365568607	 2.6429025126	-0.231628
O	 1.9203618272	-0.3405578326	 1.4042378956	-0.225245
H	 1.1873212369	 1.8136459124	-0.1837422316	 0.142156
H	-0.3466385302	 1.8744828114	-1.0708957959	 0.117054
H	-0.3222381361	 2.1283297375	 0.683487735	 0.123772
H	-1.1262044918	-0.2033104213	 0.1202449724	 0.116675
H	 0.3585375538	-0.4967715127	-0.7773473659	 0.128852
H	-0.9243267112	-1.2484165525	 2.7059699129	 0.108581
H	 0.5676456502	-1.6443190384	 5.1072164415	 0.252656
H	 2.2276400648	-1.745304121	 4.9413254972	 0.258759
47.3488	133.1516	198.7538	261.9429	301.2438	319.7028	397.9011	455.6222	588.0427	642.9398	699.4804	739.7913	759.4818	782.4202	800.0434	943.1428	958.1371	1009.2786	1038.4034	1074.4345	1091.5873	1142.5184	1172.4936	1264.4284	1339.7117	1350.5824	1408.649	1476.2973	1496.2766	1501.5332	1507.177	1546.5194	1639.6448	1667.7332	3036.5174	3045.5006	3086.0145	3116.4517	3129.302	3270.3579	3554.4838	3654.2023
CCC1=CC(N)=NO1	CCc1cc(N)no1	
InChI=1S/C5H8N2O/c1-2-4-3-5(6)7-8-4/h3H,2H2,1H3,(H2,6,7)	InChI=1S/C5H8N2O/c1-2-4-3-5(6)7-8-4/h3H,2H2,1H3,(H2,6,7)
