19
gdb 110552	3.41869	1.3001	1.25672	1.9312	72.63	-0.2348	0.0704	0.3052	1069.8109	0.161949	-423.013487	-423.006246	-423.005301	-423.045265	29.291	
O	 0.5877054837	-0.0168888702	-1.3728214936	-0.420178
C	 0.0485253599	 0.1089236791	-0.0636058189	-0.093633
C	-1.3435535042	-0.5090948798	 0.0496371087	 0.007812
C	-1.4123141726	-2.0360460115	 0.0165224195	-0.13513
C	-1.3521307461	-2.5295117988	 1.4693930065	-0.112989
C	-1.2546214562	-1.2959589933	 2.3597906524	-0.233751
C	-2.0655835807	-0.3781470271	 1.4182569203	 0.020857
O	-3.2656269856	-1.1429363802	 1.2037198805	-0.257312
C	-2.6800044844	-2.3578061572	 0.770582896	 0.084799
H	 0.7294278759	-0.9538023675	-1.5406435068	 0.282794
H	 0.7326534865	-0.3204584885	 0.6823212565	 0.088021
H	-0.0070109591	 1.1870189372	 0.1253063769	 0.108743
H	-1.9750792768	-0.0759487223	-0.7338682735	 0.087932
H	-1.0727266803	-2.6358277355	-0.817990871	 0.083276
H	-0.9544828109	-3.4975816983	 1.7413533524	 0.089121
H	-1.7639043863	-1.4300414739	 3.3182299957	 0.1085
H	-0.2350399898	-0.9487281546	 2.5397585727	 0.105041
H	-2.3218100076	 0.6208075408	 1.7652669447	 0.081989
H	-3.3842813355	-3.1413903583	 0.5313667312	 0.104109
90.1885	183.9584	206.6046	306.3271	373.9344	454.5895	536.7234	576.8258	663.5929	710.6253	800.5066	806.6968	820.0581	875.9637	892.3481	929.3783	953.4327	966.0727	980.8032	1009.7225	1036.3451	1047.5324	1055.7796	1067.3734	1083.2301	1094.5521	1114.4105	1153.7901	1202.3502	1207.0822	1243.6029	1262.2352	1276.1025	1304.6599	1338.2157	1355.8232	1381.9786	1401.3138	1420.8582	1491.0944	1503.2443	2998.4855	3052.9228	3066.7398	3069.284	3119.6368	3147.7523	3194.0892	3209.8685	3228.4819	3820.2039
OCC1C2C3CC1OC23	OC[C@H]1[C@H]2[C@H]3C[C@@H]1O[C@@H]23	
InChI=1S/C7H10O2/c8-2-4-5-1-3-6(4)7(3)9-5/h3-8H,1-2H2	InChI=1S/C7H10O2/c8-2-4-5-1-3-6(4)7(3)9-5/h3-8H,1-2H2/t3-,4-,5+,6-,7-/m1/s1
