15
gdb 11865	5.02995	1.68994	1.40699	4.1701	72.65	-0.2283	-0.0326	0.1958	879.782	0.119913	-362.66976	-362.66322	-362.662276	-362.700321	25.787	
N	-0.175297457	 1.2602270843	 0.0083856828	-0.529633
C	 0.0165614548	 0.0068494576	 0.0005215673	 0.364738
O	-1.0619979996	-0.8425594949	 0.0024362551	-0.248982
C	-0.6029281607	-2.1775839414	-0.0074847313	 0.41545
C	-1.4226747944	-3.1960330603	 0.7466629936	-0.322123
C	-1.4317337163	-3.1879353074	-0.7626235089	-0.322123
C	 0.8667300906	-2.1127139334	-0.0159588473	-0.156534
C	 1.2322395942	-0.8271354245	-0.0112627883	-0.20379
H	 0.7193572029	 1.7461952503	 0.0056077882	 0.2194
H	-0.8985574861	-3.9904153112	 1.2663365954	 0.124466
H	-2.2967564545	-2.8086494455	 1.2568576907	 0.143611
H	-2.3118514951	-2.7951561818	-1.2581037775	 0.143612
H	-0.9139433744	-3.9766626947	-1.2970438448	 0.124466
H	 1.5011122708	-2.9889813615	-0.0244713827	 0.127613
H	 2.231864635	-0.4168567957	-0.0150713423	 0.119831
119.2226	215.4552	266.7394	343.2829	473.6909	522.2106	531.8127	705.4366	713.6213	766.2287	780.0389	839.0032	857.7452	902.0624	903.0108	929.6903	950.006	967.7069	999.019	1053.8989	1069.2752	1072.4141	1096.5269	1194.0891	1252.4362	1296.2812	1355.8723	1408.6103	1452.321	1488.9277	1638.0978	1741.2816	3139.2746	3141.0745	3221.8335	3226.9357	3241.0778	3248.2495	3511.2513
N=C1OC2(CC2)C=C1	[NH]C1=C[CH]C2(O1)CC2	
InChI=1S/C6H7NO/c7-5-1-2-6(8-5)3-4-6/h1-2,7H,3-4H2	InChI=1S/C6H7NO/c7-5-1-2-6(8-5)3-4-6/h1-2,7H,3-4H2
