17
gdb 50849	2.51368	1.0959	0.84415	3.6224	72.63	-0.2571	-0.0256	0.2315	1355.6481	0.134738	-455.129652	-455.120613	-455.119669	-455.164653	31.564	
N	-0.2325282029	 0.358805586	-2.3288554586	-0.471896
C	-0.0448826333	-0.1108169805	-1.1729017856	 0.415863
C	-1.1236151787	-0.9242537837	-0.4906517045	-0.254867
N	-1.7063008045	-0.197529095	 0.6370108881	-0.074933
C	-2.7694707505	 0.7506789327	 0.3017722347	-0.222572
C	-3.087338327	-0.5408057252	 0.9695665252	-0.222624
O	 1.1770254145	 0.061378185	-0.5440935175	-0.216767
C	 1.3620052562	-0.1167309028	 0.8076185452	 0.142403
O	 2.4597112252	-0.0880455316	 1.2689559399	-0.250674
H	 0.5935695458	 0.8713804408	-2.6459986825	 0.236383
H	-1.8596136621	-1.1658362939	-1.2692706756	 0.132171
H	-0.7023873555	-1.8640198039	-0.1125977806	 0.128978
H	-2.7650404225	 1.6757916338	 0.8696708083	 0.128407
H	-3.0359194637	 0.856326654	-0.7470683279	 0.137604
H	-3.5761426009	-1.3062929529	 0.3701372355	 0.120754
H	-3.3192491135	-0.5728845658	 2.0296050823	 0.129038
H	 0.4215039836	-0.2394978669	 1.3614113336	 0.142733
64.1454	79.7414	99.0093	149.5997	155.5219	243.2724	340.5966	377.3943	424.7454	516.705	595.8816	665.4164	781.1069	840.0324	889.9212	919.936	947.2844	1016.1655	1027.3573	1057.4482	1070.2732	1072.6976	1114.1644	1124.7028	1135.0142	1174.1121	1188.2701	1267.9132	1316.2245	1334.8457	1384.3622	1433.1559	1485.5231	1492.8472	1522.0427	1752.1763	1865.8342	3009.6567	3060.9894	3064.1819	3104.4149	3114.8412	3191.7494	3207.1936	3464.8774
N=C(CN1CC1)OC=O	[NH][C](CN1CC1)OC=O	
InChI=1S/C5H8N2O2/c6-5(9-4-8)3-7-1-2-7/h4,6H,1-3H2	InChI=1S/C5H8N2O2/c6-5(9-4-8)3-7-1-2-7/h4,6H,1-3H2
