21
gdb 90914	3.33341	1.42759	1.35032	1.8039	82.64	-0.2288	0.0701	0.299	1059.7768	0.184231	-386.995485	-386.98807	-386.987126	-387.026791	31.17	
C	-0.2630107972	 1.5100828635	-0.0810856189	-0.399113
C	-0.0246694083	 0.0056961967	-0.0545987922	-0.087463
C	 1.166900183	-0.4908078395	-1.0048550781	-0.317553
C	 2.0787083877	-0.3988722765	 0.2663307019	 0.022455
C	 2.7362913096	-1.1975379933	 1.4527929982	 0.047944
C	 1.7740225511	-0.3025117688	 2.3679926689	-0.340016
C	 0.8418750244	-0.5657810513	 1.1238778691	 0.239735
C	 0.7378014907	-2.10428579	 1.2468356826	-0.100678
O	 2.1131235433	-2.4706219567	 1.4790386365	-0.263216
H	 0.6626463196	 2.0746106964	 0.0709225825	 0.115798
H	-0.6836279673	 1.817252819	-1.0445459374	 0.117119
H	-0.9676539458	 1.8081529209	 0.7021761332	 0.119413
H	-0.9774899715	-0.514032703	-0.2015045782	 0.071328
H	 1.0028101189	-1.4931298669	-1.4010705989	 0.116961
H	 1.4322940199	 0.1750425083	-1.8301346637	 0.097969
H	 2.4373911337	 0.6312687515	 0.3368651427	 0.081942
H	 3.8081555302	-1.2993727188	 1.6264083315	 0.080047
H	 1.5112045791	-0.737354823	 3.3372615024	 0.098203
H	 2.0974574472	 0.7328635765	 2.4733613773	 0.105204
H	 0.1173286733	-2.4039310506	 2.1004704939	 0.096761
H	 0.3645681283	-2.6114632643	 0.3518051865	 0.097158
173.3665	202.4473	233.3594	305.8133	362.8986	412.8397	454.5691	489.6079	602.3355	641.5089	678.0826	742.1818	794.9687	822.3556	854.7281	901.653	925.6685	943.7513	971.4863	995.8575	1010.0759	1025.7152	1044.4142	1061.6155	1070.8832	1119.6327	1126.7506	1157.9882	1170.4358	1180.4143	1196.3978	1209.4978	1220.5985	1230.5833	1257.97	1292.6178	1356.4554	1372.7829	1394.9879	1412.9833	1478.0146	1485.5669	1496.2894	1498.189	1532.8202	3023.819	3032.4764	3041.1572	3055.343	3061.9432	3066.0406	3074.61	3098.1449	3104.169	3118.4738	3134.4992	3144.3495
CC1CC2C3CC12CO3	C[C@H]1C[C@@H]2[C@H]3C[C@@]12CO3	
InChI=1S/C8H12O/c1-5-2-6-7-3-8(5,6)4-9-7/h5-7H,2-4H2,1H3	InChI=1S/C8H12O/c1-5-2-6-7-3-8(5,6)4-9-7/h5-7H,2-4H2,1H3/t5-,6+,7+,8+/m0/s1
