15
gdb 46827	2.65764	1.65798	1.18407	4.2661	72.89	-0.236	0.0052	0.2412	1023.5618	0.113476	-416.784996	-416.777236	-416.776292	-416.81718	29.685	
O	-0.0485807157	-0.0375709153	-0.0406453889	-0.364649
C	-0.029079038	 1.1690760186	-0.005507421	 0.384721
N	-1.1042621053	 2.0044471519	 0.1400609465	-0.326997
C	-0.834638787	 3.4309739926	 0.0707368418	-0.16146
C	 0.6832052723	 3.4852389174	-0.0303212897	-0.11227
N	 1.3433635829	 2.8901734733	 1.1327595806	-0.359516
C	 1.1912038182	 2.0829622284	-0.124612224	 0.076806
C	 2.3359581607	 1.6826560615	-0.8743390731	 0.192592
C	 3.3073416196	 1.3417774914	-1.4950659703	-0.387887
H	-2.012754784	 1.6234080612	 0.3483360576	 0.257597
H	-1.3005988652	 3.8883539881	-0.8115706545	 0.116427
H	-1.1895171664	 3.9561491964	 0.9653204551	 0.126409
H	 1.1575303617	 4.294569982	-0.5721592206	 0.11576
H	 2.3090771188	 3.2133005447	 1.1706550478	 0.245341
H	 4.1600686974	 1.0297477578	-2.0458789173	 0.197128
114.1327	135.4271	173.3373	259.4113	375.0588	389.4805	476.5312	501.0233	543.2409	592.1738	610.1591	662.0507	670.0758	716.2102	784.6164	848.0843	875.616	917.0547	1010.2808	1036.4501	1067.7033	1093.8331	1148.429	1221.7174	1226.1666	1285.714	1342.4238	1345.5169	1423.1272	1453.7338	1515.8546	1842.2081	2244.171	3017.0061	3057.6376	3191.8555	3487.5798	3501.9893	3653.2338
O=C1NCC2NC12C#C	O=C1NC[C@H]2N[C@@]12C#C	
InChI=1S/C6H6N2O/c1-2-6-4(8-6)3-7-5(6)9/h1,4,8H,3H2,(H,7,9)	InChI=1S/C6H6N2O/c1-2-6-4(8-6)3-7-5(6)9/h1,4,8H,3H2,(H,7,9)/t4-,6-/m1/s1
