19
gdb 50243	2.75051	1.43059	1.18768	2.9539	80.07	-0.242	-0.0217	0.2204	1095.8995	0.160435	-385.898821	-385.891031	-385.890086	-385.93186	29.893	
O	-0.6000632155	 0.5051589252	-0.2043277809	-0.260955
C	-0.1520851211	 1.6246211514	-0.2201102277	 0.152143
C	 1.3014399391	 1.9674730825	-0.023841611	-0.083346
C	 1.8405686011	 3.0834670972	-0.977884831	-0.261548
C	 1.9964401127	 4.0516736632	 0.2318597031	-0.048705
C	 0.8718675819	 5.0295581313	 0.443681894	-0.078665
C	 0.0620339224	 4.6737159465	 1.4423540997	-0.060383
C	 0.4884552323	 3.3873982901	 2.1156334845	-0.283796
C	 1.6388222963	 2.8887994408	 1.2135871818	-0.03018
H	-0.8163045675	 2.5016561559	-0.3972058965	 0.07839
H	 1.8658926099	 1.0337075952	-0.0373129538	 0.090395
H	 2.7858722207	 2.8063191621	-1.4492828573	 0.109797
H	 1.1488788499	 3.4114831395	-1.7597817865	 0.104725
H	 2.981809513	 4.5194504717	 0.3245181154	 0.075143
H	 0.754349245	 5.9204762839	-0.164952	 0.094682
H	-0.8055490232	 5.237433772	 1.7692112308	 0.096576
H	 0.8302596516	 3.5730611953	 3.1426557791	 0.108474
H	-0.330728799	 2.6622309464	 2.2011420707	 0.117873
H	 2.4723363904	 2.4781838698	 1.7839589856	 0.079378
55.1517	76.682	221.7148	251.4481	321.0777	416.5807	428.2439	480.0765	654.7537	743.6631	745.8977	762.3678	823.1039	848.631	873.3255	920.8458	942.9561	970.4308	978.1796	997.7224	1024.2283	1054.9904	1078.9713	1100.5847	1126.2613	1135.3597	1192.6486	1200.2946	1233.0806	1253.0397	1267.8445	1292.4546	1302.662	1327.1567	1332.8452	1378.3731	1431.7148	1479.6072	1490.7052	1675.572	1820.6871	2868.6279	3014.6697	3042.5514	3047.8204	3054.1018	3091.1881	3103.8254	3114.2056	3174.2113	3199.632
O=CC1CC2C=CCC12	O=C[C@H]1C[C@H]2C=CC[C@@H]12	
InChI=1S/C8H10O/c9-5-7-4-6-2-1-3-8(6)7/h1-2,5-8H,3-4H2	InChI=1S/C8H10O/c9-5-7-4-6-2-1-3-8(6)7/h1-2,5-8H,3-4H2/t6-,7-,8-/m1/s1
