16
gdb 30885	2.44808	1.40268	0.93167	2.5559	69.9	-0.1686	0.0476	0.2162	1222.823	0.123184	-475.025271	-475.016059	-475.015115	-475.059357	33.239	
C	 0.0880501553	 1.1691706095	-0.3060369265	-0.249521
O	-0.211473784	 0.1308836293	 0.6368033827	-0.275479
C	-1.2768652045	-0.6277589572	 0.3263671635	 0.226786
C	-1.3897984254	-1.9346248902	-0.0133800967	 0.233661
O	-0.3986207034	-2.8464578606	-0.2062120632	-0.450599
C	-2.7935933495	-2.2216603464	-0.139497954	-0.369464
C	-3.4266925367	-1.0477434971	 0.1391116244	 0.396617
N	-4.764867595	-0.6915568313	 0.2556053546	-0.592767
O	-2.5420454717	-0.0646042368	 0.4336412602	-0.211616
H	 1.0087144731	 1.6451774237	 0.0370373317	 0.13145
H	 0.2330853353	 0.7527949501	-1.3100057726	 0.11919
H	-0.7173413041	 1.9106234061	-0.3348941715	 0.131853
H	 0.4358794228	-2.4234819934	 0.0265566591	 0.298572
H	-3.2411489493	-3.1669416816	-0.3976609002	 0.103732
H	-5.3730654377	-1.2919089633	-0.2844606851	 0.254639
H	-4.9259579454	 0.2799857592	 0.0203526836	 0.252947
78.6356	131.6644	149.2914	155.2652	217.092	269.5022	304.1708	332.7028	367.221	446.9088	553.9553	602.7846	638.9365	663.3675	667.6517	715.3508	743.0921	825.5601	1006.893	1010.3856	1098.8923	1106.5948	1170.4955	1176.9702	1200.2168	1228.08	1324.8141	1393.1537	1470.6371	1484.7196	1503.8669	1506.2798	1618.5065	1668.6264	1734.8397	3019.1344	3091.9281	3134.6739	3269.9448	3540.6481	3641.5216	3806.3709
COC1=C(O)C=C(N)O1	COc1c(O)cc(N)o1	
InChI=1S/C5H7NO3/c1-8-5-3(7)2-4(6)9-5/h2,7H,6H2,1H3	InChI=1S/C5H7NO3/c1-8-5-3(7)2-4(6)9-5/h2,7H,6H2,1H3
