22
gdb 102694	2.60075	0.81958	0.67856	4.046	81.15	-0.2458	0.0375	0.2832	1717.0547	0.19218	-441.505183	-441.494078	-441.493134	-441.543156	38.265	
C	-0.5415584061	 0.9952987508	-0.0789144578	-0.393733
C	 0.4131842349	-0.2017148313	-0.1576492687	-0.19348
C	 1.0607397269	-0.6151149907	 1.1808523447	 0.12497
C	 1.2503664482	-2.1311965207	 1.2604319338	-0.174503
N	 1.9194284841	-2.5180796267	 2.4862516416	-0.274958
C	 1.4208265798	-3.4366990962	 3.3514854184	 0.153076
O	 0.4061020658	-4.082630488	 3.1861190998	-0.329179
O	 2.3667400262	-0.0720842165	 1.3716456605	-0.257675
C	 2.4252716493	 1.3074922523	 1.6568629017	-0.238241
H	-0.0411630311	 1.9042503848	 0.2668863835	 0.118592
H	-0.9773528119	 1.2105840785	-1.0594318578	 0.118979
H	-1.3671331811	 0.7912107926	 0.6114924046	 0.122338
H	-0.1411472642	-1.0613293465	-0.5540660508	 0.107924
H	 1.2231755988	-0.0074926673	-0.870479017	 0.111231
H	 0.4200814302	-0.2962105124	 2.0203437635	 0.072787
H	 0.285487453	-2.64121057	 1.2440937669	 0.145871
H	 1.8275623463	-2.4622344268	 0.38642328	 0.113133
H	 2.738468461	-1.9877784938	 2.7385030191	 0.252557
H	 2.0619387965	-3.5414434592	 4.2496753895	 0.070424
H	 3.4502437373	 1.5283966905	 1.9670342955	 0.126389
H	 2.189645802	 1.9268797466	 0.7808079267	 0.115139
H	 1.740439994	 1.58388015	 2.4730599123	 0.108359
33.8203	41.9458	93.739	102.4662	151.0349	208.4986	217.4316	222.4997	276.1348	299.7186	344.4769	409.0254	470.49	552.2173	589.4825	750.8131	762.264	852.6695	931.4472	982.2444	1009.3095	1033.8029	1046.4251	1101.1725	1116.5005	1132.852	1166.3194	1182.055	1209.1949	1225.7142	1271.7631	1299.0401	1304.4006	1375.247	1389.1999	1408.4352	1415.8412	1429.2486	1476.1489	1478.3633	1487.5026	1491.8333	1501.0185	1505.3494	1512.9642	1525.1004	1802.3517	2932.3852	2963.2524	2984.7623	3018.3713	3030.6197	3037.9408	3041.3487	3066.5948	3103.1775	3105.4387	3115.4747	3128.0337	3640.3918
CCC(CNC=O)OC	CC[C@@H](CNC=O)OC	
InChI=1S/C6H13NO2/c1-3-6(9-2)4-7-5-8/h5-6H,3-4H2,1-2H3,(H,7,8)	InChI=1S/C6H13NO2/c1-3-6(9-2)4-7-5-8/h5-6H,3-4H2,1-2H3,(H,7,8)/t6-/m0/s1
