16
gdb 98121	4.71832	0.82503	0.70828	3.3873	68.9	-0.2529	-0.0891	0.1638	1537.7652	0.121599	-475.092614	-475.082907	-475.081963	-475.128516	32.723	
C	-0.0185067566	 1.6013599949	 0.0033740077	-0.388825
C	 0.0138606039	 0.0762683447	-0.0230000639	-0.275732
C	 0.7038509437	-0.4885229535	-1.2356275538	 0.295969
O	 1.1969121054	 0.1739300509	-2.1217959716	-0.310886
C	 0.7657054538	-2.0385884601	-1.3134322405	 0.344558
O	 0.2924436707	-2.7419719731	-0.4567970954	-0.299787
N	 1.4171519145	-2.4471746492	-2.4646765643	-0.348811
C	 1.6728762093	-3.7477947739	-2.8926350326	 0.167532
O	 1.3616006159	-4.7532204237	-2.3184116378	-0.248652
H	 0.9928021313	 2.0164105311	-0.0051223844	 0.133649
H	-0.5419443419	 1.9987849539	-0.8702127332	 0.133608
H	-0.5291357428	 1.9561524583	 0.9020372842	 0.121945
H	 0.5124992038	-0.3446102655	 0.8600419087	 0.151337
H	-0.9922347769	-0.3619666292	 0.0119871899	 0.151225
H	 1.7336658951	-1.6775675696	-3.0444776074	 0.276229
H	 2.2149195707	-3.734137536	-3.8588686456	 0.096641
47.0548	63.8351	95.2476	130.4447	198.9989	217.989	221.6904	298.4453	322.7883	416.3744	510.3459	592.8393	673.1473	734.2127	756.3773	826.9158	935.0506	949.3855	1012.2244	1030.7711	1081.4052	1099.2608	1150.3344	1208.6211	1258.5994	1378.398	1418.2038	1429.7989	1440.7819	1496.0132	1498.8197	1517.8496	1794.3653	1803.068	1867.4065	2940.3233	3037.4804	3053.3943	3058.4663	3125.3364	3128.0946	3555.6001
CCC(=O)C(=O)NC=O	CCC(=O)C(=O)NC=O	
InChI=1S/C5H7NO3/c1-2-4(8)5(9)6-3-7/h3H,2H2,1H3,(H,6,7,9)	InChI=1S/C5H7NO3/c1-2-4(8)5(9)6-3-7/h3H,2H2,1H3,(H,6,7,9)
