19
gdb 71759	3.3005	1.85835	1.55382	1.3106	77.65	-0.2426	0.0753	0.3179	905.9393	0.161876	-385.842253	-385.835774	-385.83483	-385.872558	28.214	
O	-0.0749371784	 1.4271950567	-0.0603536749	-0.487675
C	 0.0072530239	 0.0392018936	-0.0687855214	 0.415607
C	 0.511459235	-0.7986767403	-1.2608183562	-0.314575
C	-0.2978235547	-1.92797598	-0.5743559387	-0.039314
C	 0.4253529143	-2.2229934998	 0.7557012328	-0.033695
C	-0.6970160053	-2.546163578	 1.773942957	-0.248685
C	-1.0852582593	-1.0690432668	 1.5781790292	-0.043106
C	 0.4059952386	-0.719187364	 1.2417663898	-0.119268
C	-1.2723436681	-0.8415648146	 0.0482229956	-0.086015
H	 0.8033533012	 1.7824711108	 0.1159419162	 0.277333
H	 0.0502865424	-0.464725891	-2.1948857766	 0.100317
H	 1.5878513456	-0.9472007492	-1.404065225	 0.080852
H	-0.677508519	-2.7774130852	-1.1409816898	 0.064808
H	 1.3436180838	-2.8095255953	 0.7069996317	 0.059412
H	-1.4205485992	-3.3263651451	 1.5123341363	 0.087265
H	-0.3023612913	-2.7316510724	 2.7777349092	 0.094659
H	-1.7065667478	-0.5099230316	 2.2758395494	 0.066908
H	 1.1411554528	-0.3595828976	 1.9610001174	 0.057202
H	-2.2144246943	-0.6144416103	-0.4463032421	 0.06797
221.943	270.6208	316.7785	358.7497	452.7865	477.4893	571.8735	691.7533	707.6305	786.8702	814.4885	826.1796	853.5418	865.7935	901.592	921.0968	926.989	940.8631	966.9938	995.3167	1008.5008	1024.9315	1061.2761	1079.1871	1094.6375	1110.4655	1130.9478	1161.5349	1180.5365	1196.8314	1209.9712	1226.8428	1240.4158	1243.8948	1275.3763	1288.9247	1302.5269	1316.6893	1380.6413	1493.0534	1496.136	3033.939	3035.2766	3092.0568	3099.0034	3102.2348	3116.524	3119.1964	3128.1523	3141.8281	3794.5814
OC12CC3C4CC(C14)C23	O[C@@]12C[C@H]3[C@@H]4C[C@@H]([C@H]14)[C@@H]23	
InChI=1S/C8H10O/c9-8-2-5-3-1-4(6(3)8)7(5)8/h3-7,9H,1-2H2	InChI=1S/C8H10O/c9-8-2-5-3-1-4(6(3)8)7(5)8/h3-7,9H,1-2H2/t3-,4-,5-,6+,7+,8-/m0/s1
