24
gdb 76404	2.62459	1.14959	1.02939	0.9978	90.76	-0.222	0.0786	0.3006	1347.4899	0.215247	-368.371728	-368.361169	-368.360225	-368.407435	39.379	
C	-1.0004895532	-0.2648510078	-2.5433086393	-0.418421
C	-0.5075346468	-0.6951881938	-1.1784565097	-0.049339
C	 0.9610415215	-0.8556988905	-0.8243429019	-0.049005
C	 2.0922266834	-0.5971928736	-1.7967803804	-0.417894
C	 0.1385131976	 0.2432645809	-0.1746131479	 0.319806
C	 0.3957396987	 1.6978457284	-0.5252771879	-0.48323
N	-0.2307527587	-0.0895993633	 1.1920480025	-0.098838
C	 0.2720655154	 0.6730823442	 2.3252965853	-0.229777
C	-1.1700791032	 0.729864087	 1.9439710225	-0.231855
H	-0.3312105235	 0.4410303847	-3.0410476054	 0.112418
H	-1.1021881304	-1.132616263	-3.2047965933	 0.117247
H	-1.9850724388	 0.2114143072	-2.4733397907	 0.115428
H	-1.1519420036	-1.4293387928	-0.702778131	 0.086948
H	 1.1576228692	-1.6811920014	-0.1459999641	 0.08696
H	 1.8786973998	 0.2095990754	-2.5020426238	 0.111515
H	 3.0134094519	-0.3312608715	-1.2657463594	 0.115662
H	 2.3034014027	-1.4952996667	-2.3882022747	 0.117028
H	 0.5945455302	 1.8249538552	-1.5901590762	 0.119838
H	-0.4653385603	 2.3320327708	-0.2873426226	 0.117031
H	 1.2648566899	 2.0942271042	 0.0109802137	 0.118836
H	 0.5988547421	 0.0848063982	 3.1789958101	 0.111973
H	 0.8612005635	 1.569175047	 2.1447244607	 0.107716
H	-1.5282794087	 1.6626140884	 1.5135838111	 0.107791
H	-1.9173184787	 0.182036293	 2.5124054926	 0.112161
32.1432	129.9998	142.6091	161.2792	176.821	203.5729	241.0234	261.5353	317.7516	361.6126	377.8406	453.1838	515.1935	531.3353	646.9766	772.6873	801.6177	808.5366	849.8732	907.4537	925.7307	980.4232	1019.0867	1023.9751	1031.574	1044.1847	1102.4337	1107.8602	1116.3673	1117.9852	1147.5261	1154.7446	1172.3749	1177.4165	1181.2995	1223.1233	1304.5635	1343.395	1365.7978	1406.3569	1411.8269	1424.0726	1449.6289	1476.1242	1489.1846	1491.2558	1494.5537	1500.8605	1507.2618	1517.2153	1526.8549	3028.8701	3030.7168	3035.2858	3082.4883	3084.5339	3086.2124	3099.1034	3102.7743	3105.2631	3112.2361	3133.4658	3141.9513	3151.5704	3172.6169	3187.437
CC1C(C)C1(C)N1CC1	C[C@H]1[C@@H](C)[C@]1(C)N1CC1	
InChI=1S/C8H15N/c1-6-7(2)8(6,3)9-4-5-9/h6-7H,4-5H2,1-3H3	InChI=1S/C8H15N/c1-6-7(2)8(6,3)9-4-5-9/h6-7H,4-5H2,1-3H3/t6-,7+,8+
