23
gdb 101576	2.80433	0.8371	0.73522	3.3805	84.58	-0.2371	0.0648	0.3019	1692.0709	0.204122	-421.658953	-421.647334	-421.64639	-421.697036	40.601	
C	 0.0117032236	 1.5660635937	-0.080561282	-0.378466
C	 0.001559795	 0.0386026745	 0.0128001064	-0.183681
C	-1.4051452241	-0.5760421939	 0.0441421859	 0.071511
C	-1.3695750874	-2.1077213678	-0.0417230172	-0.399607
N	-2.1225132091	-0.1142008025	 1.2336098729	-0.368294
C	-3.5056930645	-0.070833857	 1.235787318	 0.501421
O	-4.1806154803	-0.222727737	 0.2308765379	-0.412619
N	-4.0536118573	 0.1606860547	 2.4847515269	-0.364119
C	-5.4711962611	 0.4509252279	 2.6031256104	-0.320602
H	 1.034365285	 1.9554736589	-0.0819900727	 0.108967
H	-0.477261439	 1.905377188	-1.0001495513	 0.119488
H	-0.5236339582	 2.0144055657	 0.7610337633	 0.117788
H	 0.5389634613	-0.3893939895	-0.8415612082	 0.099851
H	 0.5546791037	-0.2869151466	 0.9063994814	 0.083365
H	-1.9838679918	-0.1972143249	-0.8033359786	 0.115908
H	-2.3863096952	-2.5083523301	-0.0379305838	 0.137302
H	-0.8743011552	-2.4362360147	-0.9614298583	 0.112863
H	-0.821804502	-2.5378916403	 0.805792554	 0.10034
H	-1.677475118	-0.3260211292	 2.1156593214	 0.225589
H	-3.450451259	 0.5858221775	 3.1715235728	 0.232727
H	-5.8356490428	 0.1299279873	 3.5832031041	 0.117172
H	-5.7023740375	 1.5169494044	 2.4722905476	 0.117815
H	-5.992789176	-0.1051641391	 1.8240630992	 0.165281
32.6828	58.7153	79.5335	112.8335	145.9402	155.7839	209.4277	231.0682	260.0422	300.9444	356.7392	412.8703	415.3713	481.5516	509.8158	520.4296	739.6223	766.9686	786.1631	841.51	928.4328	970.4503	982.9383	1010.5666	1038.9224	1126.8657	1138.8613	1148.6844	1165.5758	1187.2143	1199.6902	1238.9543	1296.0763	1327.0582	1372.2726	1385.3805	1404.5744	1408.6365	1440.314	1478.0927	1482.8244	1491.4032	1496.0295	1499.7903	1501.9958	1508.5154	1518.7195	1556.8744	1780.1105	3001.7915	3010.4797	3026.2065	3037.6217	3055.3171	3077.1183	3084.4566	3097.6749	3103.3548	3115.7781	3122.8801	3156.4253	3587.2312	3619.1827
CCC(C)NC(=O)NC	CC[C@@H](C)NC(=O)NC	
InChI=1S/C6H14N2O/c1-4-5(2)8-6(9)7-3/h5H,4H2,1-3H3,(H2,7,8,9)	InChI=1S/C6H14N2O/c1-4-5(2)8-6(9)7-3/h5H,4H2,1-3H3,(H2,7,8,9)/t5-/m1/s1
