21
gdb 110607	3.00056	1.24189	1.11381	1.2895	82.52	-0.2456	0.0773	0.3228	1212.9974	0.182141	-387.043796	-387.034959	-387.034015	-387.077246	34.396	
C	-0.3007291943	 1.3991757106	 0.1833690002	-0.374083
C	 0.2043825824	-0.0153888495	-0.1244126944	-0.207472
C	 0.8173897057	-0.6863811882	 1.090484674	-0.007612
C	 0.0408192315	-1.3284837141	 2.2138935127	-0.069066
C	-1.1696927491	-2.083724597	 1.7215957562	-0.123495
C	-1.0053916886	-3.5698404534	 1.9745185135	-0.342284
C	-0.2703923209	-2.9296584247	 0.8233332664	 0.397314
O	-0.5420307343	-3.2672489559	-0.4955404554	-0.467553
C	 0.9523336141	-2.1761849896	 1.2932833577	-0.179085
H	 0.509794947	 2.0427310237	 0.5441628963	 0.108937
H	-0.7277593203	 1.8709096697	-0.7072047437	 0.109057
H	-1.0743901845	 1.3805599595	 0.9584536913	 0.115886
H	-0.6108190404	-0.6265270714	-0.5206371748	 0.120608
H	 0.9606491896	 0.0284483555	-0.9187867881	 0.09257
H	 1.6914962419	-0.1551426736	 1.4700815321	 0.078056
H	 0.2371580298	-1.0925186422	 3.2541389445	 0.083585
H	-2.1343763076	-1.6597886287	 1.4687883323	 0.09324
H	-0.4776376754	-3.9230180748	 2.8569084991	 0.101928
H	-1.8544597249	-4.1776579415	 1.6748789422	 0.108608
H	-0.1874087987	-4.1470513301	-0.6624980781	 0.284165
H	 1.901998417	-2.6319581242	 1.5547684759	 0.076695
69.3624	121.7807	171.2652	216.3475	241.0975	278.8483	355.936	391.6174	441.3911	523.5194	621.4868	639.7813	721.286	778.4255	805.5602	836.9308	849.4538	898.5962	919.9239	944.1707	980.6562	997.1532	1019.0717	1039.0895	1057.4538	1068.9094	1084.4686	1087.6125	1112.7356	1130.4136	1203.1761	1214.4992	1250.2585	1293.9905	1296.5966	1313.0925	1329.8085	1356.58	1390.4986	1409.024	1447.5857	1486.0929	1490.4306	1498.1873	1507.5156	3027.9057	3028.722	3081.7231	3095.9334	3102.3401	3107.065	3109.8928	3155.8055	3170.7994	3180.7758	3199.3964	3798.4088
CCC1C2C3CC3(O)C12	CC[C@H]1[C@H]2[C@@H]3C[C@]3(O)[C@@H]12	
InChI=1S/C8H12O/c1-2-4-6-5-3-8(5,9)7(4)6/h4-7,9H,2-3H2,1H3	InChI=1S/C8H12O/c1-2-4-6-5-3-8(5,9)7(4)6/h4-7,9H,2-3H2,1H3/t4-,5-,6-,7-,8+/m0/s1
