17
gdb 49201	3.34779	1.27289	0.98298	3.2494	88.99	-0.2305	-0.0751	0.1554	1175.5427	0.137541	-384.729332	-384.721747	-384.720803	-384.76145	29.239	
O	 0.1504113896	-0.0965045917	-0.6141926489	-0.283298
C	 0.1379450128	 1.109354689	-0.4908021546	 0.097606
C	 1.2518330953	 1.9115309332	 0.0373288962	 0.169044
C	 1.1226785613	 3.2621212715	 0.074715404	-0.117993
C	 2.1533655455	 4.2055977598	 0.4062561448	-0.105741
C	 3.488256766	 4.0235649518	 0.2003094246	-0.092135
C	 4.1190424018	 2.8611427805	-0.3775164221	-0.056156
C	 3.6580887662	 1.5975188765	-0.3069632874	-0.079386
C	 2.4829124649	 1.2076376041	 0.5501557738	-0.365962
H	-0.7570780646	 1.7057095206	-0.778242932	 0.068902
H	 0.1549949065	 3.6815933511	-0.1999755309	 0.101271
H	 1.824347662	 5.1941795959	 0.7160823692	 0.101017
H	 4.1323881298	 4.8838591346	 0.3687314903	 0.101835
H	 5.0396299698	 3.046873578	-0.9264419402	 0.098578
H	 4.1597787292	 0.8167405361	-0.8718039515	 0.107717
H	 2.6663904619	 1.5051259381	 1.5912413773	 0.120094
H	 2.3123737718	 0.1302738006	 0.5234460373	 0.134609
94.5635	164.7352	231.4507	274.7179	326.0669	375.4062	401.5923	496.4158	556.2451	622.1986	681.4083	727.9391	809.2443	854.5016	896.5611	914.5665	942.7117	976.6707	992.7767	1006.8695	1010.6602	1033.2753	1098.1611	1171.2305	1228.4836	1256.8379	1276.625	1327.4057	1372.2676	1410.724	1430.4563	1473.0917	1477.2184	1570.1638	1663.2639	1671.3223	1776.0305	2876.4129	3012.654	3120.9927	3129.8798	3141.9301	3152.5858	3168.2523	3176.8183
O=CC1=CC=CC=CC1	O=CC1=CC=CC=CC1	
InChI=1S/C8H8O/c9-7-8-5-3-1-2-4-6-8/h1-5,7H,6H2	InChI=1S/C8H8O/c9-7-8-5-3-1-2-4-6-8/h1-5,7H,6H2
