17
gdb 36203	3.44406	1.20081	1.05511	5.3486	72.19	-0.2398	0.0212	0.261	1149.0013	0.136562	-417.968008	-417.959933	-417.958989	-418.001333	29.884	
N	 0.0460140648	-1.18882396	-0.046797302	-0.303406
C	-0.0011923571	-0.0345213951	-0.0461267403	 0.26953
C	-0.045629218	 1.4279428558	-0.0233585544	-0.428844
C	 1.3439154998	 2.0448446413	-0.0804541818	 0.449606
C	 2.3416645493	 1.8177686797	 1.080771156	-0.217508
N	 2.7594309929	 3.2520337842	 1.0046870041	-0.319514
C	 1.7061471396	 3.5520908535	 0.0050043984	-0.130934
C	 2.2176711342	 3.3681232625	-1.4333869299	-0.067783
O	 1.9460921896	 1.9396594813	-1.3819181076	-0.327387
H	-0.637410993	 1.7810230619	-0.8742149378	 0.159457
H	-0.5560764711	 1.7461323852	 0.8928223513	 0.152354
H	 1.8525188493	 1.5383161349	 2.0221329659	 0.103646
H	 3.143940344	 1.1063623965	 0.8674961882	 0.130241
H	 2.6317292042	 3.7485072979	 1.8777730828	 0.226451
H	 1.0185070419	 4.369458166	 0.2277710957	 0.081096
H	 1.6169989751	 3.8523721302	-2.2133368584	 0.102931
H	 3.2795398047	 3.5863780546	-1.5782038103	 0.120063
53.6568	110.5885	130.3225	250.7568	321.4109	380.6011	393.4579	410.2313	466.4847	660.2239	709.8301	734.7284	844.028	879.8554	898.873	928.3981	940.7761	990.2594	1000.9937	1040.6293	1048.2077	1094.7225	1102.7559	1145.1134	1153.8611	1174.8522	1246.6224	1261.8789	1294.6726	1331.257	1339.147	1364.8503	1395.4776	1449.9552	1494.752	1506.687	2364.1476	3021.8547	3024.8313	3046.5617	3091.371	3094.3109	3096.5878	3099.529	3553.716
N#CCC12CNC1CO2	N#CC[C@]12CN[C@H]1CO2	
InChI=1S/C6H8N2O/c7-2-1-6-4-8-5(6)3-9-6/h5,8H,1,3-4H2	InChI=1S/C6H8N2O/c7-2-1-6-4-8-5(6)3-9-6/h5,8H,1,3-4H2/t5-,6-/m0/s1
