21
gdb 87839	2.75026	1.40917	1.20177	2.036	83.78	-0.2205	0.0812	0.3017	1153.1972	0.181924	-383.195929	-383.187033	-383.186089	-383.228995	34.568	
C	-0.2298305849	 1.3726440177	-0.0274188539	-0.314632
N	 0.0882235893	-0.0454346782	 0.0435645355	-0.126472
C	 1.4921073912	-0.4296782781	-0.122186859	-0.331967
C	 0.8161373091	-0.5232734686	 1.1962772293	 0.370151
C	 1.2502982561	 0.2139112017	 2.4954321659	-0.32258
C	 0.8866615568	-1.0725707698	 3.2489346148	-0.105252
N	-0.558528747	-1.2943099248	 2.9855638791	-0.374481
C	 0.4554652079	-1.7639255616	 1.9975870531	 0.258319
C	 0.5291910465	-3.1882894485	 1.5471704354	-0.517312
H	 0.5566122142	 2.0263470686	 0.3851829851	 0.09761
H	-0.3908235536	 1.6526147829	-1.0734374947	 0.118997
H	-1.1555736792	 1.5601456694	 0.5248953481	 0.131861
H	 1.672580842	-1.3117772508	-0.7325607877	 0.10967
H	 2.2335056211	 0.3617006399	-0.2393652121	 0.101157
H	 2.3156759539	 0.4554123134	 2.5150216999	 0.103574
H	 0.6642510686	 1.0905841136	 2.7828098474	 0.11092
H	 1.3636979432	-1.4769951299	 4.1331393297	 0.091591
H	-0.8352880438	-2.1164010186	 3.524416858	 0.220292
H	-0.2690293812	-3.4132544978	 0.8306750773	 0.138532
H	 1.4868417036	-3.399091974	 1.0595617701	 0.125105
H	 0.4251695661	-3.8751921865	 2.3942034685	 0.114919
114.6749	137.7522	184.234	212.8556	229.3455	257.8814	319.3926	418.655	427.9874	481.6188	487.0985	587.7721	661.7412	751.3546	800.1113	846.6225	877.9238	893.2531	916.8351	947.6997	1016.8998	1027.6794	1034.2908	1065.1606	1093.0931	1111.0361	1117.0448	1131.8534	1162.9158	1181.903	1190.8541	1212.9409	1234.0166	1303.3795	1329.949	1397.1781	1418.2877	1444.6317	1450.5739	1476.5155	1483.3228	1493.6828	1496.4228	1500.442	1516.7548	2965.5651	3025.7697	3060.4604	3067.4007	3076.2103	3090.6238	3096.2661	3106.1349	3116.6366	3161.8029	3191.165	3451.6073
CN1CC11CC2NC12C	CN1C[C@]21C[C@H]1N[C@@]21C	
InChI=1S/C7H12N2/c1-6-5(8-6)3-7(6)4-9(7)2/h5,8H,3-4H2,1-2H3	InChI=1S/C7H12N2/c1-6-5(8-6)3-7(6)4-9(7)2/h5,8H,3-4H2,1-2H3/t5-,6-,7-,9?/m1/s1
