23
gdb 57092	2.8612	1.07483	0.82327	0.6754	91.11	-0.2567	0.0558	0.3125	1454.5308	0.205794	-351.145692	-351.135847	-351.134903	-351.181146	37.018	
C	 0.1029088464	 1.592021694	-0.0250359958	-0.395677
C	 0.0400728564	 0.0504880762	-0.0355093944	-0.183386
C	 0.6727120599	-0.4721769625	-1.2476006131	 0.331617
C	 1.2130319571	-0.8814689231	-2.2411386664	-0.4719
C	 0.6636340394	-0.5741062995	 1.2330916667	 0.066554
C	-0.0156232138	-0.1371136902	 2.5532083622	-0.223044
C	 0.2389606046	-1.2892158061	 3.568284691	-0.210948
C	 0.9329038662	-2.4181879353	 2.7626495914	-0.206635
C	 0.599295886	-2.1094581715	 1.2963248749	-0.212522
H	 1.1411712638	 1.9338432732	 0.0297754631	 0.123441
H	-0.3391672625	 2.0032241643	-0.9362025103	 0.123651
H	-0.4399096277	 1.9951351989	 0.8340644101	 0.118416
H	-1.0200738762	-0.2447563001	-0.0551916575	 0.098566
H	 1.6791371061	-1.2512882238	-3.1204787415	 0.190737
H	 1.7214707282	-0.2773849679	 1.2630615363	 0.07452
H	 0.3581273318	 0.8245594911	 2.913970604	 0.099216
H	-1.0925364165	-0.0119109048	 2.3848346819	 0.094296
H	 0.8539350835	-0.9618185606	 4.4111003304	 0.097296
H	-0.7071751757	-1.6386575952	 3.9923710592	 0.099248
H	 2.0186158931	-2.3714420407	 2.9075475877	 0.097271
H	 0.6140727613	-3.4168820517	 3.0737837522	 0.092493
H	-0.4215899151	-2.4417106526	 1.0612449097	 0.090457
H	 1.2708738938	-2.5929170323	 0.5831600382	 0.106333
32.9971	84.8596	124.2658	153.2553	205.9701	243.5569	259.4883	370.6459	389.7101	446.5446	552.2366	582.8281	622.2568	629.6447	637.6711	776.438	814.5808	854.2147	877.9734	898.3589	943.7508	956.3335	975.1319	1000.2894	1040.7612	1055.2302	1077.8156	1116.7302	1137.7146	1203.5566	1209.0477	1217.5766	1272.2277	1280.4522	1298.2525	1322.3198	1328.353	1343.6199	1344.935	1352.0769	1382.0805	1409.0461	1486.584	1493.2421	1494.5781	1495.593	1500.2293	1517.9675	2230.5639	2987.3738	3005.3945	3017.6757	3029.4899	3036.4557	3042.8704	3054.8224	3076.3099	3088.6112	3100.7461	3106.1315	3116.0932	3122.7154	3504.6653
CC(C#C)C1CCCC1	C[C@@H](C#C)C1CCCC1	
InChI=1S/C9H14/c1-3-8(2)9-6-4-5-7-9/h1,8-9H,4-7H2,2H3	InChI=1S/C9H14/c1-3-8(2)9-6-4-5-7-9/h1,8-9H,4-7H2,2H3/t8-/m0/s1
