17
gdb 36270	4.71041	1.02669	0.96042	3.0465	78.61	-0.2121	0.0521	0.2642	1238.2692	0.134532	-380.707974	-380.70004	-380.699096	-380.740923	31.016	
C	 0.1864205963	-1.2146925197	 0.8318435195	-0.416465
C	 0.0201117306	-0.1115579439	 0.3847763778	 0.301533
C	-0.2105219676	 1.2285570176	-0.162484942	-0.31279
N	 1.0525059537	 1.9766509707	-0.2447489381	-0.067217
C	 1.5733876461	 2.7976257238	-1.2916329779	-0.059726
C	 0.5877326886	 3.8925983083	-1.847459328	-0.077856
N	-0.7336728471	 3.7187333911	-1.1960601832	-0.326656
C	 0.3690146522	 4.4118741855	-0.4859617487	-0.077847
C	 1.3491051113	 3.3299913231	 0.1042416534	-0.05972
H	 0.3382272526	-2.1882980389	 1.2270380953	 0.187353
H	-0.6706555687	 1.1519812642	-1.1512974829	 0.141726
H	-0.9291486628	 1.7662009753	 0.4619138976	 0.141703
H	 2.493801788	 2.5205482238	-1.7952534906	 0.099379
H	 0.6980166745	 4.4209166745	-2.7850163986	 0.09723
H	-1.3494805115	 4.4402752768	-1.5701926723	 0.232751
H	 0.2725588947	 5.4310951397	-0.1364154869	 0.097228
H	 2.0617710589	 3.545971628	 0.8935683357	 0.099374
40.6658	132.835	227.1354	238.004	334.1589	392.2301	466.4962	498.6663	602.1985	649.4864	690.4138	725.8711	739.5867	742.317	807.0906	856.1307	873.5404	895.0254	919.9714	921.6969	960.7329	1013.592	1037.0378	1041.5807	1048.0432	1107.0894	1107.9555	1225.8875	1228.3063	1273.7309	1292.0716	1295.1309	1342.6092	1353.3446	1417.1195	1445.9929	2236.7928	3059.3056	3098.6834	3156.9308	3167.3271	3198.6936	3212.1895	3472.5283	3506.3667
C#CCN1C2C3NC3C12	C#CCN1[C@H]2[C@H]3N[C@H]3[C@@H]12	
InChI=1S/C7H8N2/c1-2-3-9-6-4-5(8-4)7(6)9/h1,4-8H,3H2	InChI=1S/C7H8N2/c1-2-3-9-6-4-5(8-4)7(6)9/h1,4-8H,3H2/t4-,5+,6-,7+,9?
