16
gdb 95105	2.60309	1.5872	1.18965	3.0816	69.77	-0.2791	-0.0073	0.2718	1044.6354	0.12394	-437.881777	-437.873819	-437.872874	-437.914282	29.632	
C	 0.1626933003	 1.5758143646	-0.0680405734	-0.413361
C	 0.0601954828	 0.0616644901	-0.0043600257	 0.059495
O	 0.7474716098	-0.4973815546	-1.1218839201	-0.268836
C	 1.2849835713	-1.7690032504	-0.7897611685	-0.110756
C	 1.5181887247	-1.7274940068	 0.7050263359	-0.050405
O	 2.1673841171	-0.5323240244	 1.1423184176	-0.271959
C	 0.737105726	-0.5852956308	 1.2060152713	 0.282114
C	 0.1232736588	-0.5229455664	 2.5069352897	 0.223086
N	-0.4052742778	-0.4464386403	 3.531976899	-0.327186
H	 1.2091806616	 1.8819724958	 0.0007357038	 0.143678
H	-0.2480003903	 1.9351382919	-1.0145576403	 0.136877
H	-0.4011652209	 2.032148299	 0.7508071825	 0.134407
H	-0.9961860878	-0.2546446739	 0.0007778841	 0.089744
H	 0.5883260232	-2.589878601	-1.0240346922	 0.109659
H	 2.2021414205	-1.9092363105	-1.369801126	 0.133397
H	 1.7062777809	-2.6242747722	 1.2877230721	 0.130047
112.0225	146.5326	174.3015	228.4862	251.367	339.5603	393.5405	490.9908	516.6154	555.0683	606.1445	677.4775	772.4971	850.1892	887.6971	922.6178	945.6436	1001.3362	1050.7331	1086.1004	1105.1484	1125.8136	1139.4244	1197.905	1238.2954	1279.5772	1330.0896	1372.7224	1375.9036	1409.0289	1440.9046	1485.1754	1497.8982	1503.3276	2361.2022	2970.6485	2985.4641	3051.7701	3085.2144	3127.766	3139.0035	3172.3828
CC1OCC2OC12C#N	C[C@H]1OC[C@H]2O[C@@]12C#N	
InChI=1S/C6H7NO2/c1-4-6(3-7)5(9-6)2-8-4/h4-5H,2H2,1H3	InChI=1S/C6H7NO2/c1-4-6(3-7)5(9-6)2-8-4/h4-5H,2H2,1H3/t4-,5-,6+/m1/s1
