19
gdb 80141	2.37184	1.68797	1.33912	1.5179	83.37	-0.2213	0.0129	0.2342	1042.3379	0.160812	-385.877083	-385.869045	-385.8681	-385.909771	31.458	
O	 0.4634094501	 1.0343823018	-0.1666184242	-0.409685
C	 0.0769573859	-0.2873891764	-0.0215521466	 0.117122
C	-0.5890106337	-0.7870837213	 1.2602618983	-0.15141
C	-0.7044670402	 0.0884840573	 2.4415203329	-0.040176
C	-1.5402927737	 1.0936772422	 2.7039512523	-0.080925
C	-2.6873462157	 1.6597294538	 1.9155008406	-0.30427
C	-2.8999075779	 1.3386104629	 0.4625689227	-0.083797
C	-2.4020392094	 0.3681160587	-0.3101608022	-0.073254
C	-1.3971056174	-0.673018123	-0.0192823723	-0.151709
H	-0.3240700992	 1.5880544523	-0.0799028802	 0.284531
H	 0.7827427841	-0.9471481497	-0.5164167078	 0.105459
H	-0.3185456048	-1.8097082507	 1.5146124704	 0.090243
H	 0.0472873597	-0.1234759344	 3.2008488753	 0.087139
H	-1.4021106324	 1.6014507339	 3.6573174447	 0.085802
H	-3.6222971695	 1.4093613393	 2.4470845073	 0.131538
H	-2.6400262461	 2.7559230725	 2.0047164355	 0.117827
H	-3.6212212007	 2.0046800849	-0.0095336702	 0.090846
H	-2.7535002328	 0.3459754853	-1.3414680405	 0.091358
H	-1.6132741964	-1.6216716994	-0.5046822159	 0.093361
57.1953	156.3155	184.3157	252.9069	359.8892	383.2777	396.7381	407.7385	562.8011	577.3925	714.6873	721.0051	784.3817	789.1048	800.2873	846.4868	872.0607	886.9433	949.3806	962.4503	1005.5344	1017.0099	1020.6546	1074.289	1097.6197	1119.7798	1147.6414	1230.7151	1232.7731	1269.5666	1279.0779	1336.478	1371.0793	1400.6116	1406.3979	1435.1963	1450.8401	1454.6689	1459.3442	1732.499	1746.85	2962.1286	2996.1385	3113.2227	3116.018	3123.3874	3130.5286	3141.1703	3145.3478	3161.3235	3745.2381
OC1C2C=CCC=CC12	O[C@H]1[C@H]2C=CCC=C[C@@H]12	
InChI=1S/C8H10O/c9-8-6-4-2-1-3-5-7(6)8/h2-9H,1H2	InChI=1S/C8H10O/c9-8-6-4-2-1-3-5-7(6)8/h2-9H,1H2/t6-,7+,8-
