17
gdb 5384	4.71238	1.52227	1.249	1.6998	77.36	-0.2474	-0.0198	0.2276	998.7002	0.144706	-326.796896	-326.789698	-326.788754	-326.828956	26.952	
C	-0.2180246974	 1.5350226285	 0.0741865133	-0.367992
C	 0.0795677422	 0.0305675868	-0.0298673578	-0.26455
C	 0.746288821	-0.5075811726	 1.2142475586	 0.332698
N	 1.9987390383	-0.0857224158	 1.4458618749	-0.304877
C	 2.6181969265	-0.5231476043	 2.542380941	-0.003476
C	 2.0423614113	-1.3942435093	 3.4637309678	-0.127235
C	 0.7448058381	-1.8315447744	 3.2236672891	-0.072925
C	 0.0881637774	-1.3820291681	 2.0834250656	-0.170194
H	 0.704062435	 2.0869319016	 0.2743703334	 0.138321
H	-0.6540440208	 1.9120015821	-0.8558980034	 0.110405
H	-0.9210322044	 1.7427690103	 0.8876640951	 0.113279
H	-0.844889856	-0.5243233337	-0.2224349171	 0.095161
H	 0.7471126464	-0.1436956023	-0.8812600502	 0.117117
H	 3.6330836833	-0.1605990192	 2.692845846	 0.104984
H	 2.5976820943	-1.7168497456	 4.3371529789	 0.099145
H	 0.2520816903	-2.5123049932	 3.9105524015	 0.105041
H	-0.9243008954	-1.703640621	 1.8631977931	 0.095096
42.3588	139.5144	224.8941	295.2401	370.7186	417.7856	510.9649	582.2412	635.7678	773.8292	779.3101	797.3274	812.8034	914.4193	981.3804	982.9896	1007.0601	1008.3381	1062.0583	1072.8808	1085.6728	1132.0242	1175.8907	1242.572	1267.5416	1304.4839	1336.3183	1361.9844	1401.755	1464.9991	1479.995	1495.9349	1504.7422	1512.5616	1613.1783	1631.5023	3037.4283	3038.54	3077.7304	3106.6804	3125.0796	3146.4202	3173.3255	3188.6699	3201.5841
CCC1=NC=CC=C1	CCc1ncccc1	
InChI=1S/C7H9N/c1-2-7-5-3-4-6-8-7/h3-6H,2H2,1H3	InChI=1S/C7H9N/c1-2-7-5-3-4-6-8-7/h3-6H,2H2,1H3
