13
gdb 131569	7.53682	0.64934	0.60008	5.1883	76.3	-0.2562	-0.061	0.1952	1715.706	0.087962	-452.680325	-452.671978	-452.671034	-452.715326	28.28	
O	 0.0235761722	 1.4239289321	 0.008173689	-0.404631
C	 0.0067145598	 0.0061630908	 0.0027821668	-0.226844
C	-1.3735933489	-0.4607281631	 0.0127665045	 0.254827
C	-2.5061056195	-0.8730990472	 0.0208156941	-0.052098
C	-3.8317209777	-1.3340947535	 0.0302783721	 0.298969
C	-5.0374976822	-0.6884444445	 0.0422163187	-0.243889
N	-6.0069054782	-1.6553297516	 0.0470252742	-0.104991
N	-5.4933473461	-2.8043613926	 0.0396287995	-0.020409
O	-4.0745570979	-2.6543950722	 0.0287508379	-0.215409
H	 0.9451034084	 1.7024565813	 0.001681608	 0.298156
H	 0.5089142334	-0.4056125077	-0.8880716611	 0.133313
H	 0.5240534324	-0.4125315459	 0.8816630824	 0.133317
H	-5.2631823658	 0.3632210141	 0.047205964	 0.149689
23.1608	75.1446	105.9731	202.837	212.7779	288.0834	415.7291	471.7241	503.6851	618.0066	689.8148	693.6862	728.502	835.5887	935.7362	989.4934	1018.8471	1057.959	1083.1699	1126.6159	1242.9027	1247.8394	1277.1579	1335.744	1440.2347	1461.0219	1496.578	1592.456	2364.4571	2966.1875	2985.9997	3301.3598	3822.33
OCC#CC1=CN=NO1	OCC#Cc1cnno1	
InChI=1S/C5H4N2O2/c8-3-1-2-5-4-6-7-9-5/h4,8H,3H2	InChI=1S/C5H4N2O2/c8-3-1-2-5-4-6-7-9-5/h4,8H,3H2
