20
gdb 110409	3.48361	1.22772	1.04725	2.9675	78.97	-0.2416	0.0845	0.3262	1203.3698	0.171436	-403.084114	-403.075894	-403.074949	-403.116696	32.316	
C	 0.1478725472	 1.4278099426	-0.0649348776	-0.497464
C	 0.0141656389	-0.0602660241	-0.0004768935	 0.347608
C	-1.2541861463	-0.9062725196	-0.1596405284	-0.293677
C	-0.3886369426	-2.1047825063	 0.3140613105	-0.101913
C	 0.6113806281	-1.0519793191	 0.9287337505	-0.104678
N	 1.2001298029	-0.8879297096	-0.4367700264	-0.205716
C	 0.6329547503	-2.2272836566	-0.8301390898	 0.052428
C	 1.7293403439	-3.2679099519	-0.67300643	-0.073889
O	 2.8284688625	-2.9670072836	-1.5103972769	-0.425288
H	 1.1592079832	 1.7359640104	 0.2135762573	 0.13305
H	-0.0477610832	 1.7936843324	-1.0791122558	 0.126691
H	-0.5626663362	 1.9132862589	 0.6125278993	 0.119635
H	-1.9978829527	-0.6151316699	 0.5873502144	 0.105005
H	-1.7275970272	-0.9799018139	-1.1454559861	 0.095029
H	-0.8359596584	-2.9685278535	 0.8032076273	 0.075823
H	 1.1689077219	-0.9644906211	 1.8520702093	 0.097613
H	 0.2388064525	-2.2526059162	-1.8541091381	 0.073447
H	 2.0321036923	-3.3296996058	 0.3860966347	 0.081139
H	 1.359426878	-4.2557373653	-0.9688480867	 0.103046
H	 3.0154816848	-2.0307413779	-1.362525624	 0.29211
110.0636	145.8679	195.5668	210.3061	281.7048	324.3495	404.5807	463.1378	471.4506	539.4044	622.7544	730.7213	764.1433	807.561	864.6289	887.4348	914.344	934.0049	957.9749	990.1183	1008.3094	1030.4308	1048.1282	1057.8328	1087.0851	1127.148	1145.6289	1158.9331	1173.1787	1219.9868	1229.6257	1240.3924	1276.2816	1292.5258	1344.9393	1392.0663	1399.6359	1434.1727	1445.0733	1485.2179	1492.1029	1504.3313	1504.9312	2962.5354	3027.0403	3032.1058	3038.4073	3068.2057	3093.7177	3099.6189	3116.9722	3128.9675	3200.4585	3765.4497
CC12CC3C1N2C3CO	C[C@]12C[C@@H]3[C@H]1N2[C@H]3CO	
InChI=1S/C7H11NO/c1-7-2-4-5(3-9)8(7)6(4)7/h4-6,9H,2-3H2,1H3	InChI=1S/C7H11NO/c1-7-2-4-5(3-9)8(7)6(4)7/h4-6,9H,2-3H2,1H3/t4-,5-,6+,7-,8?/m0/s1
