17
gdb 13881	4.11175	1.5225	1.43199	1.107	64.29	-0.2524	0.014	0.2665	933.3542	0.143011	-401.015096	-401.007291	-401.006347	-401.047504	28.637	
C	 0.038886	 1.5240167677	 0.1821531704	-0.406722
C	-0.0521287752	 0.0118575419	-0.0192975764	 0.125599
O	-1.3987516979	-0.4371409696	-0.073141706	-0.438378
C	 0.7091612634	-0.4579382512	-1.2741024496	 0.005799
C	 0.7144882422	-1.9987166076	-1.4454740615	-0.125671
O	 0.1514658074	-2.2119622037	-2.7674833368	-0.214815
C	-0.2154661088	-0.9890219773	-3.1961904539	 0.122586
N	 0.0301667168	 0.0379064601	-2.492424708	-0.290772
H	 1.0758561547	 1.8384968668	 0.3415497126	 0.110769
H	-0.3416668682	 2.0502043903	-0.6984812356	 0.13563
H	-0.5512335211	 1.8191686593	 1.0535482075	 0.121363
H	 0.3822697586	-0.4974126885	 0.8504765035	 0.085832
H	-1.7804908884	-0.04924803	-0.8711299641	 0.28491
H	 1.7257499748	-0.0479637952	-1.2454730024	 0.086314
H	 1.709871819	-2.4465568279	-1.42737118	 0.119245
H	 0.0647214876	-2.4973058003	-0.721543049	 0.134363
H	-0.7080777151	-0.982858855	-4.1629385908	 0.143948
77.7133	96.1526	214.1333	245.5075	263.0492	346.7524	408.2385	479.8	489.6536	653.8388	724.661	805.0812	884.1199	908.3434	958.6661	965.7033	974.2297	1003.9031	1041.2217	1060.0728	1109.7893	1149.3031	1159.1998	1229.3216	1271.0065	1304.3771	1323.8909	1337.8166	1373.9715	1383.8102	1403.132	1428.2162	1491.2428	1500.1863	1503.9276	1697.0016	3028.1213	3033.9287	3040.4581	3065.8964	3110.0112	3122.0497	3126.1117	3210.0656	3770.8385
CC(O)C1COC=N1	C[C@@H](O)[C@H]1COC=N1	
InChI=1S/C5H9NO2/c1-4(7)5-2-8-3-6-5/h3-5,7H,2H2,1H3	InChI=1S/C5H9NO2/c1-4(7)5-2-8-3-6-5/h3-5,7H,2H2,1H3/t4-,5-/m1/s1
