19
gdb 38396	3.93652	1.28517	1.2672	1.9808	78.43	-0.2419	0.0829	0.3248	1066.4531	0.159935	-385.815141	-385.807936	-385.806992	-385.84668	29.425	
C	 0.0207049071	 1.4506014095	 0.1194904943	-0.284938
C	 1.3406819442	 0.7567527547	-0.046957349	-0.034435
C	 1.7605926167	 0.1083167905	 1.2785528405	-0.310598
C	 0.4394415196	-0.7209505933	 1.2700455248	 0.370661
C	 0.4786087518	-2.2915417746	 1.3015337008	-0.348785
C	-0.4908607786	-2.2439555893	 2.4882258098	 0.04032
O	 0.1380798532	-1.4706575678	 3.517109561	-0.250031
C	-0.5339320815	-0.7740108371	 2.4575781839	-0.055513
C	 0.0370310178	-0.0470790831	-0.0440517876	-0.131985
H	-0.2450989602	 1.9019598172	 1.073277393	 0.105554
H	-0.3333858331	 2.0026106859	-0.7453362875	 0.111168
H	 1.9988602962	 0.972595191	-0.879355479	 0.085788
H	 2.6372988376	-0.5369249473	 1.187751089	 0.10674
H	 1.911239742	 0.7864014205	 2.1249901345	 0.100822
H	 0.0405756519	-2.7314518863	 0.4010105003	 0.106296
H	 1.4451810707	-2.7589266046	 1.5073119182	 0.107593
H	-1.2358909711	-2.9675443675	 2.7976401519	 0.102025
H	-1.3166958267	-0.0770015678	 2.7360491541	 0.096532
H	-0.4719523276	-0.5371134906	-0.8663698029	 0.082786
125.7073	133.2538	223.3419	370.2285	399.8914	418.6282	483.4809	551.4499	740.2437	781.6033	790.8181	818.2557	846.0249	859.5994	888.914	897.5049	932.0793	959.8526	972.1132	984.9404	986.9032	1022.3949	1048.1121	1060.7092	1084.9345	1107.8512	1122.9236	1138.3569	1175.0148	1199.2498	1212.5122	1228.9181	1248.5026	1252.7181	1287.6529	1314.5233	1359.9186	1382.3739	1470.1386	1478.7488	1494.9314	3047.8775	3055.0363	3103.904	3107.012	3112.6392	3169.5584	3174.2666	3185.3112	3192.17	3200.3221
C1C2CC3(CC4OC34)C12	C1[C@H]2C[C@]3(C[C@H]4O[C@@H]34)[C@@H]12	
InChI=1S/C8H10O/c1-4-2-8(5(1)4)3-6-7(8)9-6/h4-7H,1-3H2	InChI=1S/C8H10O/c1-4-2-8(5(1)4)3-6-7(8)9-6/h4-7H,1-3H2/t4-,5-,6+,7+,8-/m0/s1
