18
gdb 10161	3.69925	1.12189	0.92421	5.4651	72.38	-0.2405	-0.0173	0.2232	1275.2738	0.152693	-381.142712	-381.133448	-381.132504	-381.177559	31.74	
C	-0.0665393483	 1.506248425	-0.0085977697	-0.381446
C	-0.0090901857	-0.0230739807	-0.0129079797	-0.165983
C	 0.7279905778	-0.5735081422	-1.2388749253	-0.193119
N	 0.789571879	-2.0373107096	-1.2781445855	-0.053063
C	-0.3368053588	-2.7108985558	-1.7668971005	 0.089716
N	-0.4900578485	-3.9685050907	-1.759492156	-0.415012
C	 1.943927948	-2.6604485687	-0.8057678798	 0.162604
O	 2.1551678777	-3.8398041931	-0.7328947974	-0.272521
H	 0.9381202901	 1.943050061	 0.0014013007	 0.121419
H	-0.5848414633	 1.8882622692	-0.8951127595	 0.119641
H	-0.5981061228	 1.8767278533	 0.8721390037	 0.125567
H	 0.4915093514	-0.3875684071	 0.8921711465	 0.113654
H	-1.0243437551	-0.4378579834	 0.0106606701	 0.109263
H	 0.2493873745	-0.2195268229	-2.1591370765	 0.119904
H	 1.7536594398	-0.1921323283	-1.2597998038	 0.123636
H	-1.0662760865	-1.9932011951	-2.1639651017	 0.092637
H	-1.3845179253	-4.2013114858	-2.1895494374	 0.229054
H	 2.687156306	-1.8959808752	-0.4982013081	 0.074047
53.538	90.7814	95.2442	130.8913	234.8919	238.8782	247.7937	303.8484	400.4776	411.8995	511.8879	729.7285	745.2172	824.7146	878.8868	900.4532	914.8946	1020.8316	1043.1328	1067.8458	1111.8703	1125.5512	1191.6785	1227.3856	1266.6676	1325.7542	1333.8261	1405.4673	1414.6416	1419.0668	1441.0765	1459.7192	1488.7979	1500.683	1501.9377	1512.6617	1715.5861	1841.0311	2911.8764	3023.6588	3029.9569	3033.7431	3043.6761	3059.8884	3087.3658	3101.8592	3113.5399	3489.6391
CCCN(C=N)C=O	CCCN(C=N)C=O	
InChI=1S/C5H10N2O/c1-2-3-7(4-6)5-8/h4-6H,2-3H2,1H3	InChI=1S/C5H10N2O/c1-2-3-7(4-6)5-8/h4-6H,2-3H2,1H3
