16
gdb 130431	4.82544	1.04427	0.86683	0.4967	77.45	-0.2237	-0.0757	0.148	1285.6387	0.127037	-430.243476	-430.23534	-430.234396	-430.276615	30.121	
N	 0.2065684193	 1.4521186037	 0.1661811527	-0.490678
C	 0.0045093126	 0.0137512794	 0.1222727379	-0.234301
C	-1.4145546419	-0.4804062248	-0.0739545187	 0.344085
N	-2.3795347115	 0.3768523702	-0.1927687349	-0.231527
N	-3.6152597591	-0.1223229011	-0.3645344071	-0.24217
C	-3.9590335429	-1.4644112977	-0.4270642235	 0.358609
N	-5.1821872162	-1.8068962425	-0.5951529655	-0.555351
C	-2.7698738982	-2.3114641238	-0.2781173711	-0.05016
N	-1.5759052745	-1.8613308359	-0.1125889449	-0.255414
H	-0.1542352433	 1.8658126004	-0.689533699	 0.232684
H	-0.368388544	 1.8471701101	 0.9057244384	 0.232703
H	 0.6206471694	-0.4148923009	-0.6787852729	 0.132074
H	 0.3889221174	-0.4349302571	 1.0474723959	 0.132068
H	-4.3551196061	 0.5597256215	-0.4553409676	 0.277473
H	-5.2668405283	-2.8218022899	-0.6189455088	 0.218699
H	-2.9210252628	-3.3912399616	-0.3116679409	 0.131205
65.8318	96.9861	191.2208	226.602	312.1766	370.9223	381.3536	450.6476	491.2406	560.7871	638.5908	684.1507	742.7807	778.0571	779.3237	830.11	906.6711	939.8848	975.1442	1002.9484	1107.4632	1136.7256	1185.8031	1230.3844	1248.773	1373.4268	1387.0888	1387.1835	1401.8466	1446.3016	1469.1333	1572.0358	1648.9215	1677.3256	1706.2043	3025.8982	3054.3816	3126.0069	3489.9716	3497.5881	3557.5293	3607.2001
NCC1=NNC(=N)C=N1	NCc1n[nH]c([NH])cn1	
InChI=1S/C4H7N5/c5-1-4-7-2-3(6)8-9-4/h2H,1,5H2,(H2,6,8)	InChI=1S/C4H12N5/c5-1-4-7-2-3(6)8-9-4/h3-4,6-9H,1-2,5H2
