18
gdb 27733	2.21483	1.44119	0.88264	3.2059	87.18	-0.2156	-0.0365	0.1792	1303.8937	0.147335	-402.024927	-402.015653	-402.014709	-402.059648	33.023	
C	-0.1050098255	 1.4871804098	 0.1005511154	-0.503103
C	-0.0468297273	 0.0012456939	-0.0299361022	 0.333517
C	-0.1282615075	-0.8057353364	-1.158324373	-0.318474
C	-0.0194197103	-2.1558332916	-0.7522431931	 0.224459
C	-0.0565052602	-3.3594129281	-1.6450249703	-0.509446
C	 0.1280586323	-2.13942002	 0.6357356226	 0.122362
N	 0.107220049	-0.8187291774	 1.0402859467	-0.339705
C	 0.2841184399	-3.1741918413	 1.62474419	 0.068626
O	 0.4013198408	-2.9527472948	 2.8202981989	-0.333873
H	 0.8120012892	 1.8920566272	 0.5446782253	 0.138873
H	-0.2320074813	 1.9460444333	-0.8819646157	 0.141874
H	-0.9425607913	 1.8068910097	 0.7317260541	 0.138888
H	-0.2537601969	-0.4468138564	-2.1696531414	 0.097579
H	 0.0490601033	-4.2905724198	-1.0837187308	 0.130137
H	-1.0001592963	-3.4119686785	-2.1997107908	 0.134225
H	 0.7491096802	-3.3267703025	-2.3872302034	 0.134217
H	 0.1987612854	-0.5618507139	 2.0105505074	 0.271391
H	 0.2922181464	-4.2108949834	 1.2304103604	 0.068451
56.674	83.7721	140.7936	167.1339	197.0743	236.6874	252.9133	371.5185	384.6039	542.4748	584.3494	592.6461	670.1096	671.4013	673.1755	806.1376	855.6878	994.6965	1010.2085	1017.1057	1022.2954	1058.5904	1059.7806	1161.7922	1178.7164	1242.0849	1350.1555	1397.5157	1417.0287	1420.8961	1442.7355	1474.2902	1481.1128	1482.4529	1488.8306	1515.7834	1542.2912	1614.3262	1741.2383	2915.3363	3027.6583	3032.3098	3076.5135	3080.9917	3120.5415	3130.9504	3236.0399	3651.2169
CC1=CC(C)=C(N1)C=O	Cc1cc(C)c([nH]1)C=O	
InChI=1S/C7H9NO/c1-5-3-6(2)8-7(5)4-9/h3-4,8H,1-2H3	InChI=1S/C7H9NO/c1-5-3-6(2)8-7(5)4-9/h3-4,8H,1-2H3
