25
gdb 52649	2.46814	0.94853	0.82473	0.2503	97.7	-0.2404	0.0598	0.3002	1598.5421	0.224905	-352.350383	-352.338256	-352.337312	-352.38957	43.836	
C	-0.0732891103	 1.5114846421	 0.0859483657	-0.500105
C	-0.0469259859	 0.0563577634	 0.018009343	 0.073109
C	-0.0183405563	-1.1476174424	-0.0298100201	 0.063391
C	-0.0274117496	-2.6124014472	-0.0812520705	-0.152105
C	-1.4810645079	-3.1225569067	 0.0317281389	-0.408169
C	 0.7700172836	-3.1667885254	-1.3168468324	 0.274014
C	 2.2242359352	-2.6677834146	-1.2242799633	-0.407956
C	 0.7803672973	-4.7063488603	-1.2808886538	-0.418076
C	 0.1520413932	-2.6861586836	-2.6413701991	-0.408091
H	 0.4391611034	 1.9612393206	-0.7718275253	 0.145355
H	-1.100636635	 1.8927093608	 0.0924487293	 0.145316
H	 0.420165602	 1.8778690361	 0.9932218182	 0.145473
H	 0.510167997	-2.9766341855	 0.8070413342	 0.092835
H	-2.0806592251	-2.8114267496	-0.8278324624	 0.124438
H	-1.5169742874	-4.2121774455	 0.1055959307	 0.114154
H	-1.9498668644	-2.7076306378	 0.9278388924	 0.121993
H	 2.7030147564	-3.0159104721	-0.3016768545	 0.103856
H	 2.8140939948	-3.0430053891	-2.0673607312	 0.103604
H	 2.2699493399	-1.5756559838	-1.2342216721	 0.123826
H	-0.2127311888	-5.1322731464	-1.449329621	 0.112806
H	 1.43900811	-5.0970466705	-2.0638107061	 0.108392
H	 1.1516783113	-5.0808380718	-0.3198482357	 0.105967
H	 0.1121217535	-1.5938170677	-2.6824991257	 0.122146
H	 0.7504672646	-3.0364574324	-3.4891974091	 0.105544
H	-0.8644511215	-3.0680244006	-2.7790623002	 0.108284
5.7216	57.9872	90.1672	138.6174	203.2903	238.3086	251.0368	257.5267	270.7917	281.1051	312.6791	323.6214	362.401	390.6324	407.935	435.9722	536.3478	553.8877	710.3015	760.4323	864.6769	935.7769	937.9277	961.3025	987.2819	1009.6729	1047.5439	1053.3862	1054.5689	1079.1552	1097.4002	1175.5177	1220.9484	1246.8062	1260.4114	1333.3597	1339.7705	1396.8712	1398.4996	1405.448	1415.374	1431.3215	1477.6781	1479.5195	1479.8609	1485.2193	1489.377	1493.8952	1499.6014	1508.2591	1512.5504	1520.7945	2362.057	2986.6752	3024.0245	3024.4062	3027.9743	3035.4277	3049.6627	3083.2882	3083.8279	3087.2627	3091.9994	3096.7595	3104.8878	3111.0821	3116.2891	3120.2416	3127.3549	5.9191	57.9897	90.1682	138.6182	203.2921	238.309	251.0381	257.5284	270.7921	281.1055	312.6789	323.6214	362.4008	390.6324	407.9347	435.9721	536.3481	553.8874	710.3016	760.4325	864.6773	935.7768	937.9276	961.302	987.2817	1009.6725	1047.5433	1053.3858	1054.5684	1079.1548	1097.3999	1175.5173	1220.9478	1246.8056	1260.4108	1333.3587	1339.7698	1396.8708	1398.4991	1405.4479	1415.3733	1431.3209	1477.677	1479.5181	1479.8595	1485.2183	1489.3759	1493.8949	1499.6006	1508.2581	1512.5496	1520.7933	2362.0566	2986.6754	3024.0244	3024.4063	3027.9744	3035.4278	3049.6628	3083.2884	3083.828	3087.2628	3091.9994	3096.7596	3104.8878	3111.0821	3116.2891	3120.2416	3127.3549
CC#CC(C)C(C)(C)C	CC#C[C@@H](C)C(C)(C)C	
InChI=1S/C9H16/c1-6-7-8(2)9(3,4)5/h8H,1-5H3	InChI=1S/C9H16/c1-6-7-8(2)9(3,4)5/h8H,1-5H3/t8-/m1/s1
