17
gdb 86854	3.3556	1.09616	0.90043	1.2798	74.78	-0.2431	-0.0341	0.209	1264.1558	0.134688	-421.819113	-421.810404	-421.809459	-421.852941	32.669	
O	-0.168781894	 1.4597825181	-0.2056522846	-0.435667
C	-0.0222525503	 0.0612405228	 0.0297605699	 0.017224
C	-1.4026689345	-0.5835023256	 0.0216633408	-0.225794
C	-1.6979798273	-0.8488894638	-1.4842010788	-0.181435
C	-0.3263493606	-1.308579846	-2.036878082	-0.331051
C	 0.6904944679	-0.5291954634	-1.2102163042	 0.37842
O	 1.8426333898	-0.3143467506	-1.4883591369	-0.321971
C	-2.7836267235	-1.7863696191	-1.7185931187	 0.301165
C	-3.6736160427	-2.5741146152	-1.8991688997	-0.437754
H	 0.7083683043	 1.8039555127	-0.4151720955	 0.295921
H	 0.5473849533	-0.130971409	 0.9482842884	 0.087754
H	-1.3728115295	-1.5366868507	 0.5592644843	 0.115822
H	-2.1554279898	 0.0524025718	 0.4906357191	 0.12964
H	-1.94811166	 0.1129909977	-1.9474067951	 0.127214
H	-0.1817552977	-2.3779100565	-1.8345624338	 0.143624
H	-0.1854490404	-1.1546526364	-3.1081429526	 0.140388
H	-4.4636654351	-3.2638442167	-2.0653731204	 0.196499
55.3562	95.0168	140.2976	236.3325	246.1204	372.2193	421.7027	440.6124	480.0961	503.9542	523.5743	609.611	634.6963	640.3272	665.318	804.6124	848.2874	875.6591	931.2986	1012.4315	1032.7564	1039.9969	1063.3182	1154.9466	1161.2598	1202.8662	1236.8622	1255.1796	1298.6788	1321.3684	1330.5737	1367.7919	1406.1276	1446.8951	1479.5159	1843.8179	2239.0307	3019.7467	3034.1958	3044.0278	3065.4055	3122.3281	3126.9761	3504.5886	3785.5748
OC1CC(CC1=O)C#C	O[C@H]1C[C@@H](CC1=O)C#C	
InChI=1S/C7H8O2/c1-2-5-3-6(8)7(9)4-5/h1,5-6,8H,3-4H2	InChI=1S/C7H8O2/c1-2-5-3-6(8)7(9)4-5/h1,5-6,8H,3-4H2/t5-,6-/m0/s1
