14
gdb 14820	2.3981	2.22854	1.28131	2.6961	63.22	-0.2504	-0.0393	0.2111	916.1441	0.10457	-382.483406	-382.475429	-382.474485	-382.516876	27.627	
O	-0.6222892365	 0.8704626545	 0.8140034251	-0.231983
C	 0.1458221443	 0.7913789194	-0.1070197646	 0.138757
C	 1.4329220484	 1.5934222924	-0.1944875337	 0.042315
O	 2.4034121404	 0.9765616964	-1.0534413424	-0.280842
C	 2.3867915746	 2.0762258752	-1.9840732604	-0.074464
C	 1.3794131625	 2.8722710527	-1.1068400185	-0.256702
C	 0.1147525365	 3.2466730732	-1.7019586005	 0.337165
C	-0.9353230954	 3.5439990051	-2.2056786694	-0.452226
H	-0.0231035182	 0.1192516559	-0.9771607429	 0.092847
H	 1.8125506755	 1.7777106969	 0.8163697515	 0.110968
H	 3.3744476028	 2.5355427426	-2.0973255085	 0.116998
H	 2.0009370007	 1.7817626455	-2.9654325131	 0.121704
H	 1.8373717914	 3.7315107593	-0.6115576688	 0.126522
H	-1.8658569069	 3.8102852908	-2.6432596137	 0.208941
52.8529	61.0913	129.9316	202.9715	270.4875	341.7666	457.6628	515.8	538.2815	638.0907	653.4589	742.7922	838.7987	895.1591	970.4647	999.1006	1045.1001	1056.0037	1101.0514	1114.005	1165.0123	1200.8287	1251.1099	1303.3208	1341.9464	1354.0116	1401.1551	1523.5326	1836.1086	2238.8612	2896.4077	3034.977	3055.2909	3078.0462	3093.0853	3502.3536
O=CC1OCC1C#C	O=C[C@H]1OC[C@H]1C#C	
InChI=1S/C6H6O2/c1-2-5-4-8-6(5)3-7/h1,3,5-6H,4H2	InChI=1S/C6H6O2/c1-2-5-4-8-6(5)3-7/h1,3,5-6H,4H2/t5-,6-/m1/s1
