15
gdb 48328	2.26756	1.66991	1.10905	2.9716	67.2	-0.2506	-0.0396	0.211	1061.2641	0.110476	-457.727392	-457.719342	-457.718398	-457.760381	28.976	
O	-0.4195268295	 0.0940231083	-0.5955988796	-0.265855
C	 0.2065955141	 0.627142936	 0.2911599423	 0.083355
C	 1.1235079207	 1.774924681	 0.067581426	 0.061131
C	 1.42132794	 2.1367619259	-1.3466758161	 0.087095
O	 2.0976558399	 3.0910703628	-1.6605686659	-0.281938
C	 1.2334778054	 2.9888778356	 1.026321085	-0.149791
C	 1.0366693368	 2.5540471316	 2.4728918645	-0.124785
O	 2.0716643119	 1.5326293654	 2.3200563496	-0.278899
C	 2.3353042298	 2.0067887468	 1.0133161807	 0.086571
H	 0.1483216376	 0.2595513763	 1.3338214213	 0.102667
H	 0.9862219954	 1.4486897431	-2.0941470576	 0.120816
H	 1.1781440477	 3.981834016	 0.604213919	 0.143388
H	 1.3681240747	 3.3160524977	 3.184628004	 0.138127
H	 0.0745904559	 2.1396522948	 2.7856114704	 0.129321
H	 3.3477232995	 2.0143648288	 0.6304133964	 0.148797
94.4466	118.9175	183.6121	206.5117	220.2125	299.5421	365.4035	405.4634	543.6223	644.2508	699.5291	755.2623	856.156	897.4109	928.0118	945.5294	991.8224	1024.8579	1042.831	1069.2017	1079.6465	1084.5491	1156.3342	1191.9592	1231.9089	1295.3194	1301.0609	1374.0804	1418.4703	1440.0642	1514.0769	1787.9343	1801.0818	2944.5388	2976.7022	3054.6182	3110.4299	3207.4509	3230.6375
O=CC1(C=O)C2COC12	O=CC1(C=O)[C@H]2CO[C@@H]12	
InChI=1S/C6H6O3/c7-2-6(3-8)4-1-9-5(4)6/h2-5H,1H2	InChI=1S/C6H6O3/c7-2-6(3-8)4-1-9-5(4)6/h2-5H,1H2/t4-,5+/m0/s1
