16
gdb 125100	3.4132	1.06964	0.81858	13.2703	86.82	-0.191	-0.0572	0.1337	1343.4883	0.124334	-430.216258	-430.206816	-430.205872	-430.251968	32.018	
C	-0.0194765386	 1.5521890618	 0.1798302361	-0.532811
C	-0.0088273448	 0.0649315052	 0.0355646274	 0.211959
C	 0.003443556	-0.7544067622	-1.0886793899	 0.277744
N	 0.0097738754	-2.046193499	-0.7234400711	-0.30929
N	 0.0016679451	-2.0371909527	 0.6065244635	-0.157997
N	-0.0093510161	-0.7801912508	 1.0824260687	-0.268813
N	 0.0092163426	-0.4043416537	-2.4511848389	-0.331311
H	 0.0042319215	 0.5876411553	-2.6597334964	 0.27596
C	 0.0204017102	-1.2681595327	-3.4287609225	 0.189602
N	 0.0259224281	-0.9523125227	-4.7328835011	-0.522504
H	 0.8667279606	 2.0272821349	-0.262355401	 0.107035
H	-0.9036262286	 2.0161398752	-0.2780258014	 0.106808
H	-0.0304326106	 1.8024575074	 1.2430698028	 0.156202
H	 0.0251672917	-2.3116373505	-3.1316116434	 0.213587
H	 0.0355931715	-1.6839660944	-5.4206295702	 0.30029
H	 0.0229756259	-0.0019010411	-5.0642830025	 0.283538
54.717	59.5793	84.4129	123.0824	138.5798	253.3966	268.3521	371.4595	414.2015	476.6846	496.1292	665.8352	693.4671	720.3194	761.1247	823.1327	983.0643	1014.6425	1018.4227	1061.0628	1062.3379	1094.7671	1183.7595	1205.6116	1292.6008	1339.556	1360.1437	1406.6678	1427.179	1439.0896	1489.3734	1497.8979	1580.8498	1653.4163	1749.3156	3003.1145	3043.1732	3123.8701	3215.9859	3562.549	3618.8195	3744.3769
CC1=C([N-]N=N1)[NH+]=CN	Cc1c(nnn1)NC=[NH2]	
InChI=1S/C4H6N5/c1-3-4(6-2-5)8-9-7-3/h2H,1H3,(H2-,5,6,7,8,9)/q-1/p+1	InChI=1S/C4H8N5/c1-3-4(6-2-5)8-9-7-3/h2H,5H2,1H3,(H2,6,7,8,9)
