14
gdb 27375	2.04752	1.97218	1.01111	7.4433	67.03	-0.2493	-0.0331	0.2162	1099.2763	0.101007	-470.080515	-470.072294	-470.07135	-470.113697	29.615	
C	-0.0168410186	 1.4610579619	 0.1306350871	-0.472333
C	-0.0120952532	-0.0206296148	-0.0459395506	 0.400336
N	-0.0893058903	-0.6134663207	-1.1604016086	-0.324664
C	-0.0766855949	-2.0475940756	-1.1857294038	 0.378726
O	-0.1494746428	-2.6288259719	-2.2362273299	-0.329566
N	 0.0167843563	-2.7237543573	 0.036912075	-0.376026
C	 0.0993906424	-2.0271340478	 1.1084314727	 0.494008
N	 0.2392422416	-2.5717505008	 2.3361541211	-0.564304
O	 0.0892531978	-0.6634547897	 1.1761347894	-0.241709
H	 0.9030488337	 1.7858402292	 0.62732646	 0.153553
H	-0.0995517068	 1.9370838698	-0.844939606	 0.168089
H	-0.8556362907	 1.7640455687	 0.7655131202	 0.151868
H	 0.1126240262	-3.5673649242	 2.406034029	 0.286566
H	 0.0915613993	-1.9997925567	 3.1496660745	 0.275456
72.5872	129.6124	173.1278	194.7686	279.4494	292.6312	365.9481	507.5219	536.8958	550.5937	592.271	595.4839	652.6933	745.9191	824.8881	901.1633	902.1756	958.8695	1064.1545	1067.0185	1111.4421	1190.5049	1289.366	1396.9471	1420.4336	1468.5446	1474.3798	1597.0808	1678.1769	1764.6358	1839.9934	3049.6881	3108.6292	3175.7563	3615.9871	3747.6461
CC1=NC(=O)N=C(N)O1	Cc1nc(=O)nc(N)o1	
InChI=1S/C4H5N3O2/c1-2-6-4(8)7-3(5)9-2/h1H3,(H2,5,7,8)	InChI=1S/C4H5N3O2/c1-2-6-4(8)7-3(5)9-2/h1H3,(H2,5,7,8)
