18
gdb 73922	2.67009	1.42479	1.01159	5.4315	83.48	-0.2084	-0.0271	0.1814	1168.9191	0.148823	-401.972542	-401.964413	-401.963469	-402.005027	31.661	
N	 0.1083183529	 1.3457308514	 0.1813832451	-0.598825
C	 0.0192964456	-0.0094546718	 0.0603628909	 0.296816
C	-1.0975858132	-0.8019941868	 0.00786624	 0.126961
C	-0.7246462286	-2.2718854097	 0.0681511599	-0.317577
C	 0.8004353574	-2.2712598008	-0.0168449025	-0.040871
C	 1.4343744972	-1.6646483953	-1.2319498964	-0.279577
C	 1.2638702701	-0.8205261925	 0.0232594729	-0.130253
C	-2.4573028135	-0.3487843895	-0.0951177099	 0.049358
O	-3.4385984978	-1.0717018106	-0.1408812123	-0.308875
H	 0.9494050165	 1.7921735908	-0.1463137687	 0.261871
H	-0.7292711913	 1.8982413595	 0.0911593026	 0.264427
H	-1.0666247993	-2.7285029969	 1.0052710138	 0.113736
H	-1.1892850074	-2.8473540849	-0.7402788276	 0.120082
H	 1.3582128154	-3.0283540282	 0.5209793526	 0.092908
H	 2.4461772661	-1.9726135957	-1.473477152	 0.116265
H	 0.8118087972	-1.4289889666	-2.0891525918	 0.12187
H	 2.1400129116	-0.4837038069	 0.5667090987	 0.094785
H	-2.5883201388	 0.7619014945	-0.1400929853	 0.016899
104.1785	180.1935	188.5096	229.532	329.0188	357.978	367.8671	413.431	489.0526	538.6708	602.364	661.4529	708.6313	788.6374	802.2806	825.7418	890.9213	922.0884	983.3293	991.1549	1020.2484	1058.5068	1075.0163	1091.7114	1103.7485	1179.8792	1191.1771	1199.1009	1266.3901	1279.2416	1334.382	1374.7015	1421.3106	1469.8776	1475.2583	1493.648	1621.3602	1676.2822	1750.5	2792.8248	3028.9905	3063.3223	3126.232	3167.7295	3183.2427	3216.7142	3588.9915	3700.3897
NC1=C(CC2CC12)C=O	NC1=C(C[C@H]2C[C@@H]12)C=O	
InChI=1S/C7H9NO/c8-7-5(3-9)1-4-2-6(4)7/h3-4,6H,1-2,8H2	InChI=1S/C7H9NO/c8-7-5(3-9)1-4-2-6(4)7/h3-4,6H,1-2,8H2/t4-,6+/m0/s1
