17
gdb 33517	2.19695	1.57313	1.19873	0.7751	84.59	-0.248	0.0161	0.2641	1101.185	0.134026	-347.490589	-347.481914	-347.48097	-347.523748	33.437	
C	-0.2190314442	-1.3297978821	-0.355809328	-0.441651
C	-0.10869534	-0.1487301048	-0.1647075807	 0.280888
C	 0.0458288581	 1.2838149259	 0.0972114464	-0.074759
C	-0.4850788124	 1.689221371	 1.5278111897	-0.291313
C	 0.5148864896	 2.7159180315	 1.9916139433	-0.058135
C	 1.6111657907	 2.7353741878	 1.2384347075	-0.058135
C	 1.5614498709	 1.7255419125	 0.1217803493	-0.291313
C	-0.6701176329	 2.0578495734	-0.9248798588	 0.346071
C	-1.2501142775	 2.7076668128	-1.7523058471	-0.49296
H	-0.3241213348	-2.3710097418	-0.5356637569	 0.194184
H	-1.5110057868	 2.0625181056	 1.4702065434	 0.1247
H	-0.4954672413	 0.8130451808	 2.1874693208	 0.122074
H	 0.3439400911	 3.33008959	 2.8683956138	 0.097927
H	 2.4758902434	 3.3679262091	 1.4036771792	 0.097927
H	 2.2019282182	 0.8609170567	 0.3342723512	 0.122074
H	 1.8663756345	 2.1224581005	-0.8501624141	 0.1247
H	-1.7660746366	 3.2725143012	-2.4887184791	 0.197722
76.4551	127.3954	162.5951	178.5563	258.8756	383.129	441.0724	481.7323	498.4298	563.9816	568.0056	627.1819	629.7663	635.9292	642.0161	678.2682	760.8758	781.8966	900.3624	950.8385	957.8343	973.5526	983.8335	1052.6468	1066.8281	1103.7314	1134.1612	1174.1837	1269.5674	1293.2859	1324.861	1361.5742	1479.7634	1486.2172	1693.7171	2234.4574	2240.7498	3034.3122	3034.7152	3089.9312	3090.9181	3186.3206	3211.0149	3502.1924	3502.9729
C#CC1(CC=CC1)C#C	C#CC1(CC=CC1)C#C	
InChI=1S/C9H8/c1-3-9(4-2)7-5-6-8-9/h1-2,5-6H,7-8H2	InChI=1S/C9H8/c1-3-9(4-2)7-5-6-8-9/h1-2,5-6H,7-8H2
