13
gdb 13043	4.14125	1.44434	1.12716	5.8748	57.96	-0.2906	-0.0116	0.2791	978.8583	0.095833	-398.633109	-398.625842	-398.624898	-398.665563	25.068	
O	 0.0091697605	 0.0743583402	 0.278725141	-0.298807
C	 0.0153864303	 1.2247766035	-0.0064686866	 0.460497
O	-1.0149166994	 1.9795191616	-0.5128005114	-0.23217
C	-0.2066207756	 3.1977615118	-0.5016229575	-0.106793
C	 1.0025301824	 2.4040612985	 0.0287081431	-0.187482
C	 1.5614410287	 2.7940912692	 1.4040544025	-0.363607
C	 2.6103098401	 1.8860679441	 1.8648530785	 0.276328
N	 3.455203536	 1.1835649503	 2.2201326183	-0.290503
H	-0.1127916382	 3.613941833	-1.5058618673	 0.137867
H	-0.6314285038	 3.9364300496	 0.1826848663	 0.131243
H	 1.8108698989	 2.2862439248	-0.69609863	 0.141733
H	 1.9815667499	 3.8053078908	 1.3543165624	 0.165028
H	 0.7589288203	 2.8183097227	 2.1499688408	 0.166665
62.2663	102.8204	167.0783	226.5553	337.6427	388.2774	501.009	504.4035	704.5928	766.4422	805.9633	885.2999	944.3162	962.0222	1002.1174	1081.5079	1110.5085	1127.9265	1162.7824	1186.5689	1258.2561	1307.6227	1353.7081	1377.5573	1467.322	1518.7081	1949.7122	2370.2113	3042.8199	3071.3587	3080.353	3102.6336	3135.6747
O=C1OCC1CC#N	O=C1OC[C@H]1CC#N	
InChI=1S/C5H5NO2/c6-2-1-4-3-8-5(4)7/h4H,1,3H2	InChI=1S/C5H5NO2/c6-2-1-4-3-8-5(4)7/h4H,1,3H2/t4-/m1/s1
