14
gdb 127351	3.48561	1.73611	1.16742	3.167	69.53	-0.2316	-0.0203	0.2113	970.9311	0.104792	-429.048156	-429.041254	-429.04031	-429.079782	25.493	
C	 0.0065940552	 1.46070606	 0.0245922763	-0.344611
N	-0.0172515365	 0.0121543846	 0.0309786456	-0.133935
C	-0.1460966932	-0.8281234376	-1.0542405881	 0.001523
N	-0.139056311	-2.1229523742	-0.7720703219	-0.375809
C	 0.004641476	-2.1115469552	 0.5850111232	 0.386906
C	 0.0818572987	-0.8397130168	 1.110975929	 0.351207
N	 0.222522621	-0.8612742821	 2.4535888963	-0.312735
N	 0.2375575831	-2.1275236946	 2.8010192407	-0.124353
N	 0.1063943899	-2.9019419522	 1.6793537061	-0.332783
H	 0.9495866315	 1.8323475386	 0.435633227	 0.15776
H	-0.0949581665	 1.8113709499	-1.0040119894	 0.145852
H	-0.8180943262	 1.8622479785	 0.620372412	 0.157743
H	-0.2441390503	-0.4218248239	-2.0513126798	 0.139128
H	 0.1009312683	-3.9029098449	 1.7818800631	 0.284106
89.5438	156.0822	249.1559	256.9172	373.2487	503.5168	545.0345	621.7356	630.0466	688.5167	720.5765	784.2852	831.2132	833.776	996.3838	1020.1096	1069.6046	1155.1887	1157.3992	1222.4072	1251.9938	1296.5153	1358.6053	1376.6036	1450.4847	1476.7155	1478.62	1501.0591	1517.5992	1557.8509	1609.5333	3046.6669	3111.2146	3142.1557	3241.6382	3676.3699
CN1C=NC2=C1N=NN2	Cn1cnc2c1nn[nH]2	
InChI=1S/C4H5N5/c1-9-2-5-3-4(9)7-8-6-3/h2H,1H3,(H,6,7,8)	InChI=1S/C4H5N5/c1-9-2-5-3-4(9)7-8-6-3/h2H,1H3,(H,6,7,8)
