12
gdb 33330	3.20278	0.87388	0.71599	3.3705	82.49	-0.2639	-0.0513	0.2125	1467.06	0.075019	-398.270029	-398.261592	-398.260648	-398.303966	29.759	
C	-0.0783604245	-3.8053365642	-0.0125338134	-0.542346
C	-0.0423628665	-2.5987708587	-0.0048738132	 0.294637
C	-0.0025103648	-1.2406456559	 0.0036891906	-0.171846
C	 0.0402209356	-0.0313857743	 0.0142603179	 0.458597
C	 0.0496110366	 1.3989169146	 0.0008427006	-0.236828
O	 0.5247011529	 2.0837715008	 1.1697118422	-0.205962
C	 1.313441306	 2.1897369859	-0.0072522825	-0.094164
C	 2.6049199088	 1.5387125053	-0.0005671652	 0.315113
N	 3.6508075144	 1.0485786655	-0.0235753003	-0.312216
H	-0.1054566658	-4.867181725	-0.0176210789	 0.204557
H	-0.8119486209	 1.8746439138	-0.4670231163	 0.140477
H	 1.3040239482	 3.1657304922	-0.4898751114	 0.149982
55.3095	96.6678	151.5043	217.358	262.7648	269.8495	420.108	474.1071	535.1596	540.0855	574.5968	598.4352	612.8896	623.3134	723.6909	834.089	878.8745	961.8246	1069.3664	1115.5553	1189.269	1273.1972	1370.2172	1415.4289	2186.5317	2361.5005	2366.4617	3116.9706	3132.7546	3501.6704
C#CC#CC1OC1C#N	C#CC#C[C@H]1O[C@H]1C#N	
InChI=1S/C7H3NO/c1-2-3-4-6-7(5-8)9-6/h1,6-7H	InChI=1S/C7H3NO/c1-2-3-4-6-7(5-8)9-6/h1,6-7H/t6-,7+/m1/s1
