15
gdb 45891	2.40119	1.9854	1.18073	2.5096	66.79	-0.2584	-0.0366	0.2217	982.2632	0.114801	-453.950919	-453.943786	-453.942842	-453.982811	27.04	
O	 0.1163429948	 0.2063665792	 0.7608748211	-0.338901
C	 0.0462375483	 1.2673765199	 0.1840132375	 0.386795
N	-1.1692500526	 1.9387851185	 0.09155125	-0.335444
C	-1.5285096884	 3.1245943269	-0.5687237058	 0.087846
N	-0.8530621234	 4.1796012752	-0.7532925075	-0.216381
C	 0.4737406716	 4.2631382664	-0.1479556261	-0.212924
C	 1.4660134869	 3.2777451122	-0.7333051342	 0.040394
O	 2.2217845242	 2.512954506	 0.2141823167	-0.234892
C	 1.2319546728	 1.8405062432	-0.563503679	-0.051054
H	-1.9331350151	 1.3758641562	 0.4462731401	 0.261429
H	-2.5574921508	 3.0938770645	-0.9298706532	 0.127816
H	 0.8393886489	 5.285831894	-0.2692779429	 0.118502
H	 0.4131991867	 4.0538821898	 0.9297728273	 0.129736
H	 2.0327214719	 3.6022669135	-1.6046588221	 0.10964
H	 1.6322767241	 1.1291182046	-1.2855796118	 0.127438
76.1324	173.8993	233.9198	329.5994	356.4354	419.9831	483.8909	537.7936	640.6412	646.9442	698.0507	816.5729	831.013	877.1693	911.0796	942.7858	979.9024	1008.7426	1045.6388	1109.1091	1116.2849	1147.9118	1247.6448	1270.5883	1301.8761	1362.1915	1379.6855	1430.6515	1463.9711	1475.5408	1495.1152	1736.1511	1805.008	3009.7101	3090.3256	3115.9854	3122.2695	3131.0954	3570.638
O=C1NC=NCC2OC12	O=C1NC=NC[C@H]2O[C@@H]12	
InChI=1S/C5H6N2O2/c8-5-4-3(9-4)1-6-2-7-5/h2-4H,1H2,(H,6,7,8)	InChI=1S/C5H6N2O2/c8-5-4-3(9-4)1-6-2-7-5/h2-4H,1H2,(H,6,7,8)/t3-,4-/m1/s1
