21
gdb 72529	2.61739	1.66532	1.65017	1.5145	81.52	-0.2334	0.0151	0.2485	987.0289	0.185156	-387.108646	-387.101026	-387.100081	-387.140023	31.676	
C	-0.0095478693	 1.5380822873	 0.0281310054	-0.475635
C	-0.0196912049	 0.0128887602	-0.0103140672	 0.215663
C	 0.7153149334	-0.5497572701	-1.2633877899	-0.218759
C	 0.6980736084	-2.1013131688	-1.2206993444	-0.216448
C	-0.0457640661	-2.5243973013	 0.0632289615	 0.050864
O	 0.6965156601	-2.0073534289	 1.1868348975	-0.279901
C	 0.7180179412	-0.5844024738	 1.2161853408	-0.065586
C	-1.4276258583	-1.9201531666	 0.0480933557	-0.086038
C	-1.4087398672	-0.5873678096	 0.0074344737	-0.089772
H	 1.0136997172	 1.9287514514	 0.0312341758	 0.114212
H	-0.5219750769	 1.9540921895	-0.846021735	 0.116387
H	-0.5158029055	 1.9158459377	 0.923358102	 0.116017
H	 0.2310494453	-0.1707756312	-2.1681970871	 0.095611
H	 1.744428532	-0.1729097572	-1.2675620406	 0.094902
H	 0.2019868753	-2.5239705069	-2.0995866383	 0.097138
H	 1.7132575757	-2.5073870728	-1.1857466535	 0.102602
H	-0.0502977708	-3.6077356396	 0.1937591259	 0.071456
H	 1.7658158469	-0.2483021519	 1.2163528615	 0.087844
H	 0.2493617552	-0.2357160302	 2.1473946179	 0.088845
H	-2.3238523528	-2.5293206738	 0.0788980258	 0.094026
H	-2.292183719	 0.0436058567	 0.0104931628	 0.086574
158.4129	223.8438	265.8663	283.8264	337.9446	379.9371	405.6545	441.7903	541.2419	597.0881	655.6765	719.1346	725.8317	816.5944	832.6981	891.1256	912.9963	934.0247	953.4382	965.6789	991.0845	1007.6474	1042.3998	1047.3211	1074.7167	1128.7789	1160.4876	1179.687	1200.547	1224.6287	1255.4936	1270.8297	1297.6248	1330.4341	1340.902	1353.5726	1392.2377	1403.777	1417.906	1479.2386	1493.648	1498.1095	1500.5577	1521.5373	1678.5709	2982.0322	3016.847	3026.3391	3033.8544	3051.3547	3074.7803	3094.6819	3096.0853	3098.9379	3100.2687	3166.9276	3197.3166
CC12CCC(OC1)C=C2	C[C@@]12CC[C@@H](OC1)C=C2	
InChI=1S/C8H12O/c1-8-4-2-7(3-5-8)9-6-8/h2,4,7H,3,5-6H2,1H3	InChI=1S/C8H12O/c1-8-4-2-7(3-5-8)9-6-8/h2,4,7H,3,5-6H2,1H3/t7-,8+/m0/s1
