17
gdb 24065	6.41367	0.71905	0.68074	3.7647	80.82	-0.2127	0.0219	0.2346	1590.8871	0.137837	-380.927444	-380.919003	-380.918059	-380.961829	30.638	
N	 0.0087890603	-1.1891133225	 0.1417161317	-0.303148
C	-0.0170114658	-0.034024419	 0.1124910929	 0.252428
C	-0.0137804066	 1.426544635	 0.0756285734	-0.324846
C	 1.4145092569	 2.0151855979	-0.0934258817	-0.324513
C	 1.4200266113	 3.5087796003	-0.1117489449	 0.294657
C	 1.404742921	 4.4007470764	-1.1630872873	-0.222751
C	 1.3666370417	 5.7154517833	-0.6217210988	-0.131994
C	 1.3585718205	 5.5934698974	 0.7472490713	-0.09607
N	 1.384716694	 4.2541251379	 1.0464763501	-0.284655
H	-0.649799644	 1.7655713163	-0.7484574274	 0.161716
H	-0.4707476699	 1.8014929582	 0.9979533331	 0.148394
H	 2.0513802164	 1.6293183547	 0.7112947079	 0.122049
H	 1.8381343424	 1.6421730662	-1.0295907756	 0.140231
H	 1.4229179494	 4.1324324057	-2.2089396128	 0.093755
H	 1.3535836413	 6.6423049974	-1.1739188824	 0.097072
H	 1.3448560656	 6.3364774292	 1.5282548717	 0.118823
H	 1.4232140956	 3.8737330756	 1.9764917188	 0.258851
51.1657	58.2985	93.9214	185.5276	317.328	346.1065	403.3508	481.4379	504.959	629.5184	669.2586	716.3858	739.1286	759.411	801.509	857.9628	895.892	949.8196	974.0718	1000.9043	1005.1464	1057.4952	1117.9405	1143.6701	1174.4754	1258.0909	1280.8898	1286.1387	1323.3136	1364.3055	1441.5315	1460.6472	1467.4243	1486.6241	1499.1076	1615.4048	2360.1813	3038.9479	3053.0162	3086.4133	3107.141	3239.6893	3253.5579	3272.9161	3673.3637
N#CCCC1=CC=CN1	N#CCCc1ccc[nH]1	
InChI=1S/C7H8N2/c8-5-1-3-7-4-2-6-9-7/h2,4,6,9H,1,3H2	InChI=1S/C7H8N2/c8-5-1-3-7-4-2-6-9-7/h2,4,6,9H,1,3H2
