16
gdb 11663	3.12226	2.04378	1.59157	2.2956	65.15	-0.229	0.008	0.237	852.3548	0.129959	-383.696424	-383.688981	-383.688037	-383.728407	27.424	
C	 0.0007564288	 1.3710970997	 0.0597533043	-0.273489
O	-0.0413677291	-0.0462174788	-0.0743320967	-0.285597
C	-1.2989073432	-0.566386462	-0.00721404	 0.314541
C	-2.4996289074	-0.4447836524	-1.0384551586	-0.29989
C	-3.036868229	-1.4194488153	 0.0576184155	-0.180429
C	-1.6192897445	-2.0909437946	 0.027010916	-0.286375
C	-2.4078899696	-0.4414542138	 1.0656636726	 0.390851
O	-2.6505712462	 0.1143765593	 2.0926545454	-0.337266
H	 1.054306209	 1.655212592	 0.0522158375	 0.134766
H	-0.5092143121	 1.8652100433	-0.7784084668	 0.116337
H	-0.4596730514	 1.6935226036	 1.0006656909	 0.145387
H	-2.9985138272	 0.5197563985	-1.1458586411	 0.112925
H	-2.2979046323	-0.9183302864	-2.0015308395	 0.112501
H	-4.002279345	-1.9120548865	 0.0859302722	 0.10459
H	-1.3929944426	-2.6162807614	-0.9033382207	 0.112956
H	-1.3016621484	-2.652490255	 0.9069873995	 0.118193
70.409	160.5535	184.8404	192.3309	299.5943	430.7972	491.0896	521.2591	659.7318	741.974	759.7705	786.6665	815.1472	923.8345	950.8226	977.7072	998.4987	1036.8863	1063.1569	1081.0233	1121.9234	1157.0347	1174.2675	1181.8028	1189.174	1225.0619	1233.1673	1358.058	1488.7082	1490.5697	1492.3264	1507.2628	1534.2709	1909.993	3007.3403	3067.9326	3069.6305	3076.3484	3136.4863	3142.8861	3144.1306	3190.9071
COC12CC(C1)C2=O	CO[C@@]12C[C@@H](C1)C2=O	
InChI=1S/C6H8O2/c1-8-6-2-4(3-6)5(6)7/h4H,2-3H2,1H3	InChI=1S/C6H8O2/c1-8-6-2-4(3-6)5(6)7/h4H,2-3H2,1H3/t4-,6-
