21
gdb 59793	3.13965	1.0863	0.85396	1.623	74.25	-0.2586	0.066	0.3246	1363.6726	0.183035	-461.361228	-461.352163	-461.351219	-461.39503	34.449	
C	 0.0939132341	 1.5587551984	 0.0205073104	-0.414738
C	 0.0225326582	 0.0317674612	-0.0278145874	 0.124371
O	 0.7921516596	-0.5452212313	 1.0278217308	-0.431846
C	-1.4126382262	-0.518862961	-0.0176020015	-0.028687
C	-2.2505636733	-0.0541717266	-1.2197147488	-0.103342
O	-3.5240514138	-0.6834303008	-1.2267486149	-0.236251
C	-3.4040591657	-2.0814154032	-1.2189713017	 0.014763
O	-2.7445929448	-2.5617317438	-0.0813000352	-0.234892
C	-1.4183899502	-2.0563155719	-0.0078517849	-0.092353
H	 1.1379540297	 1.8755460245	 0.0887869691	 0.12869
H	-0.344963323	 2.0186163804	-0.8700996442	 0.124088
H	-0.4415191664	 1.9476836778	 0.8958233202	 0.111007
H	 0.5231783015	-0.3173312487	-0.9408121514	 0.090224
H	 0.4380667598	-0.214467264	 1.8612958552	 0.278156
H	-1.9191693963	-0.1730725567	 0.8949562042	 0.076734
H	-2.4435018717	 1.0206519543	-1.1950922313	 0.112965
H	-1.7126662641	-0.2837687885	-2.1574781249	 0.087261
H	-4.4166714035	-2.4891450053	-1.2038320739	 0.116817
H	-2.8690986712	-2.4141686568	-2.1309198032	 0.071004
H	-0.8254048029	-2.4322434019	-0.860610627	 0.085939
H	-0.9752095398	-2.4495549061	 0.9070912005	 0.120092
71.2627	120.8599	182.6904	240.7477	257.5226	293.9776	321.347	349.8001	412.9776	432.5338	472.2753	485.8646	536.8982	664.7004	877.5651	898.7544	912.7384	952.6153	964.1266	967.5437	1048.4639	1061.9268	1079.1499	1092.8326	1138.1584	1163.0774	1185.9109	1203.9007	1234.9719	1240.629	1315.0255	1321.4437	1331.5003	1349.7688	1378.3549	1381.172	1404.8753	1415.7746	1423.8994	1444.4638	1491.5399	1492.7478	1495.6989	1497.5243	1510.4198	2904.8892	2944.032	2955.0784	3008.2205	3024.8779	3032.274	3094.7569	3101.2357	3114.0796	3121.7631	3127.6049	3794.3926
CC(O)C1COCOC1	C[C@@H](O)C1COCOC1	
InChI=1S/C6H12O3/c1-5(7)6-2-8-4-9-3-6/h5-7H,2-4H2,1H3	InChI=1S/C6H12O3/c1-5(7)6-2-8-4-9-3-6/h5-7H,2-4H2,1H3/t5-/m1/s1
