15
gdb 132976	3.25564	1.3938	0.982	5.8255	74.61	-0.2107	-0.0206	0.1901	1124.146	0.113669	-458.123564	-458.11573	-458.114786	-458.156308	28.717	
C	-0.2966353355	 1.4559425289	 0.0441046086	-0.352567
N	 0.0158187958	 0.0335187092	 0.0126256304	-0.153746
C	 0.197717273	-0.6631627338	-1.1642786131	 0.098762
N	 0.4727323222	-1.906824679	-1.2724874432	-0.332676
C	 0.6166945679	-2.6977177618	-0.1026214169	 0.343748
N	 0.891291915	-3.9472090032	-0.1431948324	-0.541129
C	 0.4339684018	-2.0087010202	 1.1733076601	-0.334298
C	 0.1479859948	-0.7025849451	 1.1733564011	 0.400087
F	-0.0369498572	 0.0165891506	 2.2729351245	-0.065316
H	 0.4766616321	 2.0179173388	 0.5750379399	 0.156286
H	-0.3488327243	 1.8140417771	-0.9849477939	 0.148439
H	-1.2588316058	 1.6377267135	 0.5307747185	 0.156269
H	 0.0860949152	-0.0514318555	-2.0583165815	 0.130256
H	 0.9772714818	-4.2282780402	-1.1219290667	 0.212613
H	 0.5300281631	-2.5532628093	 2.1016892246	 0.133272
83.1504	121.0251	181.8112	219.4343	310.2289	367.2875	448.0281	451.0005	548.3062	578.2863	644.5269	727.5326	771.0501	797.6489	861.3255	899.469	902.1045	958.9817	1062.6953	1116.8481	1153.222	1220.7895	1230.6023	1317.2331	1327.4523	1426.5994	1442.8774	1480.1678	1486.0095	1521.6574	1643.2668	1688.5946	1751.141	3048.0527	3112.0481	3142.366	3148.5492	3240.9433	3462.7845
CN1C=NC(=N)C=C1F	CN1C=NC(=C[C@H]1F)[NH]	
InChI=1S/C5H6FN3/c1-9-3-8-5(7)2-4(9)6/h2-3,7H,1H3	InChI=1S/C5H7FN3/c1-9-3-8-5(7)2-4(9)6/h2-4,7H,1H3/t4-/m0/s1
