20
gdb 116560	3.00062	0.95458	0.85296	0.9144	79.38	-0.2554	0.0169	0.2723	1472.1965	0.168716	-440.285019	-440.274732	-440.273788	-440.321455	36.048	
C	-0.8345683247	 0.2992973411	 0.5414412708	-0.3634
C	 0.4421445189	 0.5229657535	-0.2682589642	-0.14643
N	 0.5956524858	-0.5268729032	-1.2740766109	-0.347397
C	 1.7141380024	-1.0604704348	-1.4466215899	 0.414511
O	 2.9353863947	-0.8584450649	-0.8393904562	-0.281896
C	 3.5005995681	-2.0615954596	-1.4878704001	 0.108574
C	 3.8407038472	-3.1407110065	-0.4885923865	-0.389842
C	 2.180882761	-2.220996386	-2.2972098514	-0.026656
O	 1.4762585585	-3.4263913892	-2.1496713629	-0.428818
H	-1.7045309212	 0.2488413308	-0.1195910621	 0.12402
H	-0.7811868304	-0.6397185579	 1.101358119	 0.115284
H	-0.9855453221	 1.1142582791	 1.256262767	 0.11035
H	 0.3724881877	 1.4827891766	-0.7964656099	 0.111675
H	 1.3130321728	 0.5857656834	 0.3975508065	 0.111134
H	 4.3656646945	-1.7661835451	-2.0877616421	 0.093886
H	 2.9529102263	-3.4504364982	 0.0667225382	 0.13165
H	 4.2377727526	-4.0174967445	-1.0094599818	 0.13207
H	 4.5979946216	-2.7814997472	 0.213922534	 0.128074
H	 2.3021515985	-1.9656995291	-3.3577004776	 0.102041
H	 0.5832838776	-3.1947641884	-1.8689484699	 0.301169
31.2262	71.9818	103.2468	158.8164	173.0639	201.6223	245.2235	261.5387	269.3691	375.1737	402.1183	533.9692	576.4515	661.438	772.9493	806.8068	820.5853	869.4479	887.9569	940.5677	1036.7808	1046.2231	1078.4345	1106.5954	1136.4211	1142.5794	1161.9957	1191.275	1218.7337	1300.2213	1318.6801	1368.3903	1372.5912	1380.7742	1386.3976	1409.1151	1414.1139	1484.0367	1485.6765	1488.4495	1491.5121	1508.4552	1838.4925	3010.2273	3024.3494	3038.6858	3045.3814	3048.5017	3076.8803	3109.5064	3118.1358	3118.9928	3138.5471	3799.1331
CCN=C1OC(C)C1O	CCN=C1O[C@@H](C)[C@H]1O	
InChI=1S/C6H11NO2/c1-3-7-6-5(8)4(2)9-6/h4-5,8H,3H2,1-2H3	InChI=1S/C6H11NO2/c1-3-7-6-5(8)4(2)9-6/h4-5,8H,3H2,1-2H3/t4-,5+/m0/s1
