21
gdb 109376	2.33035	1.35678	0.91698	1.5692	81.74	-0.2314	0.0286	0.26	1306.7178	0.182425	-424.230539	-424.221216	-424.220272	-424.264577	35.049	
C	 0.0267807649	 1.5349024302	-0.0772836377	-0.404045
C	 0.045054353	 0.011376437	 0.0588826071	 0.05875
O	 0.5662411385	-0.4795784747	-1.1664578924	-0.261647
C	 0.887989179	-1.8586874208	-1.1343635695	-0.079593
C	 2.0340976195	-2.1221870008	-0.1593468069	-0.258823
C	 1.747267835	-1.4387808785	 1.1493418499	-0.152172
C	 0.8279253039	-0.4805567242	 1.2638527744	 0.25485
C	 0.4739057397	 0.1462692393	 2.5873661339	-0.160121
O	 1.0524033156	-0.5892891306	 3.6503950001	-0.414238
H	 1.047391051	 1.9254107112	-0.1270593862	 0.124714
H	-0.493824516	 1.8082078667	-0.9986613559	 0.125679
H	-0.4917191887	 2.0042068531	 0.7632495941	 0.113477
H	-1.0016590945	-0.3363291882	 0.1689877164	 0.06779
H	 0.0052747661	-2.4504901128	-0.8398281598	 0.086908
H	 1.1525384007	-2.1341449998	-2.1593674772	 0.101647
H	 2.1543442033	-3.2025594821	-0.0073669758	 0.100837
H	 2.9822080554	-1.7641581648	-0.5842367583	 0.111647
H	 2.2886093588	-1.7593672745	 2.0328608854	 0.105392
H	 0.8172966007	 1.1941523855	 2.604125858	 0.099317
H	-0.6268741851	 0.1830565223	 2.6833254804	 0.091045
H	 0.946344269	-0.0772927735	 4.45671771	 0.288587
76.0303	108.6981	191.9141	220.3499	233.4681	251.9536	290.875	307.1507	363.262	431.4962	477.0375	498.4288	627.5687	671.7692	761.3404	859.2652	876.4552	887.5192	944.0551	1024.5986	1026.7577	1057.0613	1067.7616	1085.0169	1105.28	1140.8246	1152.0788	1168.809	1232.428	1237.2733	1267.7916	1296.781	1331.5202	1350.452	1365.7157	1375.8519	1402.9803	1413.8805	1460.6556	1470.9509	1485.3728	1496.2387	1501.1587	1511.6034	1740.4448	2896.1314	2934.2306	2965.6157	2967.8635	3010.1032	3045.4603	3045.5765	3083.6	3122.2246	3125.1363	3190.4203	3840.8497
CC1OCCC=C1CO	C[C@H]1OCCC=C1CO	
InChI=1S/C7H12O2/c1-6-7(5-8)3-2-4-9-6/h3,6,8H,2,4-5H2,1H3	InChI=1S/C7H12O2/c1-6-7(5-8)3-2-4-9-6/h3,6,8H,2,4-5H2,1H3/t6-/m1/s1
