16
gdb 37916	2.69572	2.14675	1.49654	2.9585	68.77	-0.2322	0.0287	0.2609	878.8056	0.126459	-437.834429	-437.827866	-437.826922	-437.865364	26.083	
C	 0.0410297638	 1.4982022369	-0.097161156	-0.168811
N	 1.199975806	 2.2198853372	 0.3614549028	-0.267095
C	 2.3590332712	 1.7974442779	 0.5983014159	 0.147088
O	 3.0014220596	 0.6001092444	 0.4918332932	-0.232398
C	 2.4655564541	-0.583454264	-0.0389870651	 0.110751
C	 1.401222092	-1.4064216604	 0.5956697253	 0.052674
O	 0.407952975	-0.596633162	 1.2094505524	-0.293175
C	 0.0546403045	-0.0178730923	-0.0820876451	 0.093974
C	 1.1787311915	-0.7687929051	-0.7867973122	-0.231601
H	-0.8113841301	 1.8416871878	 0.5050238767	 0.123368
H	-0.1824161877	 1.8163062607	-1.1263686032	 0.118191
H	 3.1000987963	 2.5010113264	 0.9786960554	 0.120172
H	 3.2817916113	-1.1737334407	-0.4464749566	 0.11828
H	 1.5073229244	-2.429942707	 0.937811823	 0.110976
H	-0.9312182753	-0.3982165465	-0.3794936875	 0.09045
H	 1.1288395835	-1.1832595233	-1.785301089	 0.107155
116.195	201.572	297.7535	338.6122	437.2248	478.4983	618.1095	649.9138	724.674	788.71	805.6127	818.3239	853.0777	910.3797	951.8795	960.6838	979.7788	997.2354	1045.0376	1052.451	1070.8246	1082.5454	1121.4092	1149.6434	1225.2008	1253.4801	1267.6048	1325.9461	1357.1353	1366.8151	1402.0107	1435.2643	1454.9788	1463.1702	1785.4735	3001.7993	3024.1845	3033.1512	3135.4743	3154.0073	3176.1897	3197.1638
C1N=COC2C3OC1C23	C1N=CO[C@H]2[C@H]3O[C@@H]1[C@@H]23	
InChI=1S/C6H7NO2/c1-3-4-5(6(4)9-3)8-2-7-1/h2-6H,1H2	InChI=1S/C6H7NO2/c1-3-4-5(6(4)9-3)8-2-7-1/h2-6H,1H2/t3-,4-,5+,6-/m0/s1
