15
gdb 127185	4.29323	1.09691	0.87855	4.6456	69.91	-0.2459	-0.0286	0.2173	1230.3265	0.112935	-453.958637	-453.950549	-453.949605	-453.992895	28.59	
C	 0.0343546019	 1.4639396412	-0.0144520966	-0.361171
N	-0.0018739742	 0.0062875584	-0.0044099801	-0.196331
C	-0.0457696794	-0.6642298904	 1.2086465826	 0.156131
O	-0.0565161874	-0.1089919849	 2.28244531	-0.326354
C	 0.0083539541	-0.6841610686	-1.2118312396	 0.513963
N	-0.0233437319	-2.0013900353	-1.2648642138	-0.230097
O	-0.0002281464	-2.314369194	-2.6220230127	-0.163605
C	 0.0441188079	-1.183798074	-3.3313825838	 0.094642
C	 0.0525841108	-0.1011404452	-2.5152711708	-0.371522
H	 0.9466596103	 1.8281913111	-0.4975049341	 0.137346
H	-0.8358831816	 1.8721866674	-0.5382185074	 0.137352
H	 0.0186904	 1.7899970035	 1.0243575247	 0.178512
H	-0.0698703346	-1.7553522141	 1.0774626862	 0.139247
H	 0.0656421551	-1.2995764425	-4.4039746324	 0.16026
H	 0.0848079256	 0.9381598974	-2.7901810822	 0.131627
17.9008	128.3238	170.8512	194.7276	282.5922	328.7574	370.7691	450.9924	483.4724	596.9999	723.6258	784.0287	805.6778	869.9142	919.8679	947.7584	954.0948	1038.0719	1042.8011	1092.813	1158.3611	1173.358	1189.095	1297.5423	1354.3521	1427.8579	1437.0495	1451.86	1501.1767	1507.1187	1530.8571	1622.7001	1800.7537	3036.7612	3048.8167	3096.4867	3170.5244	3265.626	3298.5102
CN(C=O)C1=NOC=C1	CN(C=O)c1nocc1	
InChI=1S/C5H6N2O2/c1-7(4-8)5-2-3-9-6-5/h2-4H,1H3	InChI=1S/C5H6N2O2/c1-7(4-8)5-2-3-9-6-5/h2-4H,1H3
