21
gdb 108193	3.08989	1.44178	1.32634	2.2041	77.4	-0.2431	0.0864	0.3295	1084.4325	0.184264	-424.247161	-424.239163	-424.238219	-424.279533	31.838	
C	 0.0219576031	 1.5563606226	-0.047590142	-0.380442
C	 0.0255491365	 0.0240365766	-0.0538856162	-0.258226
C	 0.7192165008	-0.5654857988	-1.2619752115	 0.528562
C	 0.8277017183	-2.0852101865	-1.4520730849	-0.284724
C	 1.5889757256	-1.8892295216	-2.7771609163	-0.102222
C	 0.589080073	-0.9793792489	-3.5123542479	-0.07414
O	 0.0670849734	-0.1434315902	-2.4614992873	-0.30887
C	 2.7284473269	-0.9804056842	-2.2833999456	-0.074146
O	 2.0842460647	-0.1443803484	-1.3027618605	-0.308874
H	 1.0436319941	 1.9437088449	-0.0512668303	 0.132753
H	-0.4901143892	 1.9437391387	-0.9316599487	 0.132756
H	-0.4889314652	 1.9350123065	 0.8424778354	 0.103464
H	 0.5301006776	-0.3591284783	 0.8394023981	 0.104255
H	-1.0002815324	-0.3591228144	-0.0392351277	 0.104237
H	 1.4132819561	-2.5731306848	-0.6700585949	 0.105013
H	-0.1431821465	-2.5723933665	-1.5641318076	 0.105011
H	 1.9051038219	-2.7748800027	-3.3282080228	 0.077666
H	 1.0640214785	-0.3568782662	-4.2800810288	 0.102055
H	-0.2313058689	-1.5430184985	-3.9753784543	 0.09691
H	 3.5412820782	-1.5448449655	-1.8081901619	 0.096908
H	 3.1528600933	-0.3579067036	-3.0801742244	 0.102054
87.7959	176.3989	185.5545	216.541	330.9744	364.2012	403.54	487.5863	529.7948	594.8399	630.7037	769.0214	801.8805	838.6243	862.3337	875.3509	939.4952	945.4924	962.7197	964.8842	972.901	1012.753	1033.5596	1053.5178	1114.9707	1117.9864	1147.271	1166.309	1179.1613	1198.5662	1219.3234	1287.9889	1302.5804	1311.1338	1315.81	1367.2517	1379.9424	1404.4974	1410.7195	1472.0678	1485.5757	1493.7778	1511.873	1521.013	1538.78	3011.3176	3013.3223	3046.0635	3049.8239	3051.7924	3057.8208	3071.765	3085.5044	3120.0541	3121.8716	3130.9951	3134.9754
CCC12CC(CO1)CO2	CC[C@@]12C[C@@H](CO1)CO2	
InChI=1S/C7H12O2/c1-2-7-3-6(4-8-7)5-9-7/h6H,2-5H2,1H3	InChI=1S/C7H12O2/c1-2-7-3-6(4-8-7)5-9-7/h6H,2-5H2,1H3/t6-,7+
