18
gdb 60956	3.74381	0.88616	0.81698	2.9285	74.29	-0.2422	-0.0344	0.2078	1412.9469	0.145673	-439.108969	-439.099674	-439.09873	-439.144665	32.919	
C	 0.1687777556	 1.5134922246	-0.2345345575	-0.356983
N	-0.0028576351	 0.1081594249	 0.1075228444	-0.04767
C	-0.072977313	-0.2549771341	 1.4201559326	 0.150299
O	-0.0044664275	 0.4997473175	 2.3684521009	-0.340283
C	-0.0943549876	-0.8632550308	-0.9663252636	 0.027969
C	 0.8785338035	-2.0911261713	-0.9936475608	-0.37019
C	-0.3334760682	-2.9664357151	-1.3532440954	 0.412679
O	-0.4549121496	-4.076043588	-1.7801693156	-0.281484
C	-1.3234193535	-1.8322215732	-1.0401949821	-0.370155
H	 1.0952808897	 1.6692403479	-0.7989654213	 0.128729
H	-0.672865027	 1.8763068515	-0.8355821408	 0.128729
H	 0.2155168779	 2.0773462727	 0.6965390466	 0.173966
H	-0.2035411081	-1.3466771733	 1.5468654324	 0.072064
H	-0.0088697446	-0.3040846503	-1.898663975	 0.10619
H	 1.7036882469	-2.0743426983	-1.709499197	 0.137464
H	 1.2786608924	-2.3445670871	-0.0065904407	 0.145613
H	-1.8120813164	-1.9811196842	-0.0718645918	 0.145606
H	-2.0916868154	-1.6281147532	-1.7896671352	 0.137457
27.8235	54.6906	113.8308	141.949	230.8656	326.2816	330.0537	364.113	389.8209	436.6424	499.9773	580.9156	662.5037	708.0989	793.6797	900.9901	903.2552	963.4101	982.2146	1034.8512	1060.5427	1103.6341	1106.2255	1156.2341	1177.8141	1184.5993	1231.1228	1257.2064	1258.7307	1338.8815	1427.0067	1428.3694	1436.8603	1460.089	1473.2028	1500.8605	1519.5096	1794.0323	1901.7922	2945.9665	3024.0032	3060.4368	3064.7624	3077.2786	3098.8234	3121.2556	3124.8804	3162.852
CN(C=O)C1CC(=O)C1	CN(C=O)C1CC(=O)C1	
InChI=1S/C6H9NO2/c1-7(4-8)5-2-6(9)3-5/h4-5H,2-3H2,1H3	InChI=1S/C6H9NO2/c1-7(4-8)5-2-6(9)3-5/h4-5H,2-3H2,1H3
