14
gdb 48867	2.7127	1.75099	1.29381	3.6017	66.79	-0.259	-0.0537	0.2052	948.0299	0.100287	-436.643842	-436.636621	-436.635676	-436.676055	26.598	
O	-0.6298950143	 0.6754546396	 0.7151235659	-0.237413
C	 0.0083688858	 1.0433461518	-0.2383238959	 0.050022
C	 1.236780101	 1.8797870794	-0.1168121478	 0.101055
C	 1.5037451769	 2.8560200625	 1.0454088321	-0.293945
C	 2.2776739218	 3.6341091165	-0.010865177	-0.020296
C	 3.0371207065	 2.6884053336	-0.8973673833	-0.190216
N	 1.5591864058	 3.0196395258	-1.1554294356	-0.174419
C	 2.6410358836	 1.3168565165	-0.4784662217	 0.448517
O	 3.0938402815	 0.2184759751	-0.5902860611	-0.313011
H	-0.2659152803	 0.768904061	-1.2782916853	 0.104089
H	 0.5931288307	 3.3832229466	 1.3376007141	 0.13842
H	 2.019360971	 2.4768362092	 1.9305367727	 0.130531
H	 2.5267995406	 4.6897016851	-0.0189517487	 0.122273
H	 3.8270470093	 3.0026215673	-1.5671574784	 0.134392
65.6701	150.4486	188.1218	233.0894	370.3804	416.2198	528.3568	617.3883	705.9893	712.6241	767.7896	789.3457	821.1189	835.219	975.1811	981.0042	1008.6191	1017.4494	1032.0592	1070.8311	1099.3734	1130.4935	1179.475	1234.163	1286.5435	1315.301	1342.5242	1416.1092	1500.3197	1812.5219	1900.1501	2919.8026	3072.1877	3130.3468	3179.5309	3215.0126
O=CC12CC3C(N13)C2=O	O=C[C@]12C[C@H]3[C@H](N13)C2=O	
InChI=1S/C6H5NO2/c8-2-6-1-3-4(5(6)9)7(3)6/h2-4H,1H2	InChI=1S/C6H5NO2/c8-2-6-1-3-4(5(6)9)7(3)6/h2-4H,1H2/t3-,4-,6-,7?/m0/s1
