20
gdb 94949	3.26853	1.35379	1.11236	3.7131	78.78	-0.2387	0.0149	0.2537	1143.1605	0.173016	-403.184845	-403.176775	-403.17583	-403.21762	31.271	
C	 0.3654284877	 1.5182307459	-0.166547737	-0.403978
C	-0.0706511232	 0.0704962555	 0.0914009752	 0.005362
C	 0.3743261808	-0.8949605792	-1.0471774744	-0.229069
C	 1.6908253373	-1.5411658684	-0.5490290738	-0.195589
N	 1.5013021174	-1.5942046286	 0.8965697681	-0.09113
C	 0.5994240779	-0.5090423455	 1.3687746205	 0.025611
C	-0.1452166578	-1.5561956735	 2.2434781433	-0.407267
C	 0.7477419499	-2.5932969775	 1.5296321753	 0.396507
O	 0.7873841726	-3.7885138145	 1.4366617809	-0.344352
H	 1.4509724345	 1.5876980973	-0.302808603	 0.119978
H	-0.1098375931	 1.9171819379	-1.0680296258	 0.117309
H	 0.0955127298	 2.1689615339	 0.6717824567	 0.118262
H	-1.1603728331	 0.0491140599	 0.1943355549	 0.081367
H	-0.3722139817	-1.683206666	-1.1887049397	 0.114382
H	 0.4898276018	-0.3776819694	-2.0037562687	 0.101694
H	 1.854830316	-2.5484151049	-0.937502485	 0.136686
H	 2.5670687686	-0.9305742033	-0.7930165296	 0.111425
H	 1.1204729145	 0.2690863667	 1.9340101566	 0.081008
H	-0.0109368235	-1.4700890216	 3.3236354982	 0.130819
H	-1.2071590964	-1.6881276848	 2.0219530074	 0.130975
76.4441	106.8435	235.1927	249.8869	275.1725	313.8566	412.3159	474.8528	548.6876	609.0291	646.8735	722.541	784.165	798.8953	831.2546	897.0909	944.653	967.5813	980.9261	1009.8287	1027.2145	1048.1	1071.0923	1094.1392	1151.1893	1167.3273	1202.7649	1204.4368	1230.0983	1246.4755	1299.9494	1308.0263	1322.9836	1337.7307	1359.205	1385.6456	1414.714	1453.9771	1489.9697	1497.5979	1501.9293	1503.8839	1880.8959	3027.6335	3041.8953	3045.436	3056.8832	3060.9742	3075.8243	3095.0213	3099.0396	3104.9185	3120.7223	3131.5049
CC1CCN2C1CC2=O	C[C@H]1CCN2[C@@H]1CC2=O	
InChI=1S/C7H11NO/c1-5-2-3-8-6(5)4-7(8)9/h5-6H,2-4H2,1H3	InChI=1S/C7H11NO/c1-5-2-3-8-6(5)4-7(8)9/h5-6H,2-4H2,1H3/t5-,6+/m0/s1
