17
gdb 64629	2.20343	1.56234	1.36778	2.5044	79.97	-0.2395	-0.0261	0.2135	1054.7776	0.133676	-384.68625	-384.677416	-384.676471	-384.719844	33.171	
C	-0.080386042	 1.597068437	 0.0246224977	-0.420813
C	-0.0185193781	 0.0548606809	-0.0400765121	-0.05138
C	 0.802273328	-0.4788837676	-1.2003592224	-0.091071
C	 1.8222400358	-1.2449217283	-0.8160586645	-0.083621
C	 1.9106965535	-1.3993728586	 0.6765550163	-0.374107
C	 0.788862334	-0.4898585885	 1.1909148435	 0.378291
O	 0.5745274124	-0.194242838	 2.3325873063	-0.302853
C	-1.3634611926	-0.5172137122	-0.0315702572	 0.346431
C	-2.46704454	-0.9945528164	-0.0300413392	-0.49996
H	 0.927999154	 2.0192561224	-0.0179127809	 0.11966
H	-0.6616238587	 1.9910344579	-0.8129994168	 0.126294
H	-0.5528670823	 1.9050594224	 0.9600789814	 0.149073
H	 0.5405394978	-0.2435204771	-2.2252158772	 0.110044
H	 2.5235761421	-1.7205180817	-1.4917935776	 0.107971
H	 1.7391344377	-2.4291355766	 1.0180713892	 0.14614
H	 2.8707218259	-1.0912272472	 1.1079365824	 0.140099
H	-3.4426521473	-1.4140062184	-0.023295629	 0.199801
50.9691	130.1298	159.4236	223.6143	238.9587	250.8261	388.1125	442.8936	494.5676	535.3586	588.3865	601.0285	628.9825	629.4352	669.5857	736.5679	760.5397	885.0899	935.744	963.7006	975.2479	989.0611	1048.3153	1112.6712	1125.8664	1160.1567	1197.582	1207.1959	1289.1824	1370.0971	1400.4617	1442.7733	1488.8092	1490.2736	1681.9996	1860.7048	2228.2474	3026.312	3044.179	3060.5864	3120.8948	3136.1421	3190.7392	3213.7934	3501.5609
CC1(C=CCC1=O)C#C	C[C@]1(C=CCC1=O)C#C	
InChI=1S/C8H8O/c1-3-8(2)6-4-5-7(8)9/h1,4,6H,5H2,2H3	InChI=1S/C8H8O/c1-3-8(2)6-4-5-7(8)9/h1,4,6H,5H2,2H3/t8-/m1/s1
