12
gdb 21878	3.4199	2.47872	1.43711	1.2274	61.57	-0.2223	-0.0532	0.1691	779.8732	0.086936	-410.852385	-410.8462	-410.845256	-410.882759	23.507	
O	-0.0697082214	 1.2822448785	 0.2162577505	-0.3628
C	 0.0050979829	-0.0329151289	 0.0507052374	 0.43755
N	 1.1519591327	-0.6162537503	-0.0555694819	-0.355188
C	 1.1489157317	-1.981808643	-0.2250730775	 0.07448
N	 0.1075294632	-2.7458949326	-0.2891577358	-0.194208
N	-1.0810599384	-2.1033377691	-0.1741653871	-0.301591
C	-1.2903428687	-0.740866559	 0.0009916403	 0.31583
N	-2.4060247231	-0.126306419	 0.1100259351	-0.534141
H	 0.8434905037	 1.608357981	 0.2297990345	 0.308492
H	 2.1139118296	-2.4652072696	-0.3136579313	 0.136136
H	-1.8843255285	-2.7120013899	-0.2261217833	 0.267908
H	-3.1979876037	-0.7700530981	 0.0533956291	 0.20753
111.0563	251.772	333.7086	427.5051	499.3303	548.93	563.0682	594.5683	634.3454	651.8526	755.8264	792.552	832.1873	920.9742	936.2067	1084.4852	1112.2686	1168.8722	1307.2079	1326.6682	1390.154	1434.5722	1489.6453	1598.6203	1653.0878	1714.032	3216.3986	3451.188	3618.5308	3740.8366
OC1=NC=NNC1=N	Oc1ncn[nH]c1[NH]	
InChI=1S/C3H4N4O/c4-2-3(8)5-1-6-7-2/h1H,(H2,4,7)(H,5,6,8)	InChI=1S/C3H9N4O/c4-2-3(8)5-1-6-7-2/h2-8H,1H2
