16
gdb 73187	2.44764	1.48556	1.36327	3.8321	68.59	-0.2658	-0.0057	0.2601	1016.2586	0.123412	-437.856534	-437.848308	-437.847364	-437.889718	30.33	
O	-0.1384361692	 1.536092803	 0.1470563164	-0.470423
C	-0.0337010162	 0.1630499408	-0.0025103693	 0.33169
C	 0.4437615194	-0.4299681336	-1.3546040227	-0.318017
C	-0.8143602742	-1.3593745477	-1.3847895188	-0.229584
C	-1.2649819073	-0.7881692963	-0.02389046	 0.075757
O	-0.74062249	-1.5493817023	 1.0927218375	-0.295823
C	 0.3770526346	-0.6559839069	 1.2655095548	-0.056799
C	 1.6737808914	-1.3296989398	 1.269805307	 0.276915
N	 2.7137751396	-1.8340020825	 1.2375008878	-0.329426
H	 0.6262610084	 1.9543319995	-0.2633827775	 0.294059
H	 0.432807369	 0.3264870051	-2.14317025	 0.112846
H	 1.4192905244	-0.9202217863	-1.3434272979	 0.135874
H	-1.4999926098	-1.1350358266	-2.2047757245	 0.114831
H	-0.6191062838	-2.4323177558	-1.3606438379	 0.129486
H	-2.3000699904	-0.480834127	 0.1316453755	 0.097254
H	 0.2722472642	-0.0520105036	 2.1753164997	 0.131361
62.1183	134.9741	150.254	185.9169	293.2292	363.8113	372.0752	413.2342	535.6163	549.648	651.3029	664.4525	739.5343	847.0525	877.8493	917.5799	946.9487	961.364	1012.3804	1029.6129	1061.5589	1107.8109	1157.3425	1184.9075	1186.7244	1228.2709	1250.5003	1265.7875	1301.0594	1313.3793	1356.4935	1396.0562	1461.3962	1481.9033	2349.683	3036.3074	3067.2538	3076.5462	3107.7362	3122.3473	3141.8932	3807.7914
OC12CCC1OC2C#N	O[C@]12CC[C@H]1O[C@H]2C#N	
InChI=1S/C6H7NO2/c7-3-5-6(8)2-1-4(6)9-5/h4-5,8H,1-2H2	InChI=1S/C6H7NO2/c7-3-5-6(8)2-1-4(6)9-5/h4-5,8H,1-2H2/t4-,5+,6-/m1/s1
