16
gdb 20877	6.90271	1.06966	0.99484	1.9929	66.16	-0.2844	-0.0236	0.2608	1180.8494	0.132174	-376.100434	-376.092739	-376.091795	-376.133946	26.778	
C	-0.0113378597	 1.5549741879	 0.0550293706	-0.382767
C	 0.0040692679	 0.0255552581	 0.0269220886	-0.164864
C	-1.4131786236	-0.5745140655	-0.0506816095	-0.279547
C	-1.4070938933	-2.0660377623	-0.0516332745	 0.385564
N	-1.602217325	-2.8190001005	-1.131266186	-0.263034
N	-1.4720877159	-4.0373911154	-0.6215490034	-0.069133
N	-1.2166641137	-4.0721975739	 0.6769837812	-0.100965
N	-1.1705876693	-2.822635265	 1.0562231055	-0.250811
H	 1.0041531694	 1.9586330887	 0.1085094748	 0.116901
H	-0.4862425235	 1.9643961824	-0.8435187794	 0.116429
H	-0.5653458447	 1.9299566252	 0.92265822	 0.11848
H	 0.587224088	-0.3274246277	-0.8320886047	 0.106216
H	 0.5026119465	-0.3630317377	 0.9220039403	 0.12059
H	-1.9999953178	-0.2289020217	 0.8077390116	 0.125281
H	-1.918775765	-0.227842474	-0.9570916311	 0.121734
H	-1.5704360003	-4.8759176984	-1.1739649941	 0.299924
29.6933	84.9018	122.3188	243.8346	313.2465	343.7622	389.6554	575.1192	721.1238	739.0829	746.3737	813.9077	875.5181	902.8306	1032.3089	1043.7578	1067.1013	1095.6276	1112.0842	1128.2823	1192.0213	1244.9257	1275.8694	1308.0659	1321.5302	1367.8672	1382.3897	1413.2355	1467.4306	1483.0288	1492.952	1499.3617	1508.7095	1544.6742	3030.6458	3032.8019	3048.7276	3066.1448	3093.885	3106.0017	3106.6146	3650.4348
CCCC1=NNN=N1	CCCc1n[nH]nn1	
InChI=1S/C4H8N4/c1-2-3-4-5-7-8-6-4/h2-3H2,1H3,(H,5,6,7,8)	InChI=1S/C4H8N4/c1-2-3-4-5-7-8-6-4/h2-3H2,1H3,(H,5,6,7,8)
