21
gdb 84443	3.23642	1.43315	1.27604	1.5201	83.2	-0.2316	0.0093	0.2408	1102.7762	0.182928	-387.090538	-387.082309	-387.081364	-387.122603	33.395	
C	-0.0550459969	 1.5590002036	 0.0410193336	-0.399702
C	 0.0097547802	 0.0241112996	 0.0128947862	-0.024636
C	 0.7398580079	-0.4834945204	-1.2175583838	-0.083895
C	 1.8422607043	-1.2156444389	-1.0646600494	-0.091476
C	 2.2823065706	-1.4992794961	 0.3635466426	 0.3809
C	 3.6389168166	-2.1418196087	 0.5097045026	-0.490891
C	 1.0508916413	-2.0328522595	 1.1459596153	-0.292143
C	 0.742059345	-0.5267926047	 1.2526725303	 0.083076
O	 2.1630695824	-0.2396426215	 1.1159997572	-0.32765
H	 0.9539712935	 1.9691330106	 0.1383699993	 0.137823
H	-0.5009846445	 1.9559181196	-0.8765754726	 0.109535
H	-0.655654616	 1.9108736185	 0.8868775159	 0.108607
H	-1.0173845538	-0.3707163428	 0.0106087912	 0.076639
H	 0.3532550628	-0.2119784135	-2.1964980088	 0.090555
H	 2.4136166061	-1.6116813794	-1.8985250957	 0.08675
H	 4.4121606059	-1.5132435871	 0.0551748537	 0.128957
H	 3.8852125056	-2.2848560808	 1.5648445609	 0.122479
H	 3.6549965377	-3.116012693	 0.0089860795	 0.11904
H	 0.3499939842	-2.6867681142	 0.6238020912	 0.097282
H	 1.3325841023	-2.4532675685	 2.1141302923	 0.100266
H	 0.3321618246	-0.1346145229	 2.1884247285	 0.068484
130.5054	204.2761	230.6981	248.8956	280.0418	309.7868	386.643	417.9017	481.0006	509.8413	598.7911	665.5831	726.7903	738.7309	780.2207	849.6699	889.9459	916.2624	921.3031	926.0375	975.9039	999.0136	1013.273	1033.1887	1057.2421	1100.6684	1127.1134	1138.1466	1158.2433	1229.5468	1238.0175	1265.2522	1293.4477	1305.0855	1337.3449	1350.2365	1393.9233	1407.9893	1413.0022	1478.6702	1486.4633	1493.2335	1494.0662	1506.5473	1693.2302	2993.8837	3032.6556	3034.5866	3058.1435	3068.9631	3098.5872	3102.4663	3120.0954	3120.6296	3129.523	3153.678	3181.3367
CC1C=CC2(C)CC1O2	C[C@H]1C=C[C@]2(C)C[C@H]1O2	
InChI=1S/C8H12O/c1-6-3-4-8(2)5-7(6)9-8/h3-4,6-7H,5H2,1-2H3	InChI=1S/C8H12O/c1-6-3-4-8(2)5-7(6)9-8/h3-4,6-7H,5H2,1-2H3/t6-,7+,8+/m0/s1
