17
gdb 48961	3.15987	1.68148	1.41335	2.5159	71.9	-0.2523	-0.0396	0.2127	940.6663	0.136901	-421.79199	-421.785081	-421.784137	-421.823551	27.339	
O	-0.2095945438	 0.1924068049	-0.3991507565	-0.259066
C	 0.0680452363	 1.1640458502	 0.2618653048	 0.049589
C	 1.3090557558	 1.9605447747	 0.0757840845	 0.376538
O	 1.5390720457	 3.0318082944	 0.9907639471	-0.33683
C	 2.5143766664	 3.4808727786	-0.0031760502	 0.055821
C	 3.6181538107	 2.4174707578	 0.1677934095	-0.212192
C	 2.7149620167	 1.2640558388	-0.3113370236	-0.114712
C	 2.441669726	 1.6637857036	-1.7839810702	-0.249049
C	 1.6638463208	 2.8343511047	-1.1668936062	-0.110301
H	-0.6049395426	 1.5507832874	 1.0586074292	 0.091683
H	 2.7458931849	 4.5424746526	 0.0615844206	 0.088154
H	 4.4919815209	 2.5575587298	-0.4742206615	 0.102952
H	 3.9286171246	 2.3548535147	 1.2121570509	 0.113479
H	 2.9414360192	 0.2413542528	-0.0201425848	 0.086281
H	 3.3060579835	 1.8737925978	-2.4201426274	 0.096776
H	 1.7606213841	 0.9715173785	-2.282407792	 0.131317
H	 0.9324175808	 3.4529767387	-1.6835171341	 0.08956
78.0792	166.3629	209.8745	401.1861	450.6062	474.5571	530.3713	639.2004	685.7014	740.9644	808.7301	835.7524	856.7608	895.8606	916.422	948.8666	950.0251	982.9297	986.9413	1027.9307	1059.6959	1088.5899	1091.2527	1114.0753	1151.1569	1180.2423	1215.6016	1237.6932	1251.5885	1279.681	1283.0734	1312.6724	1324.8206	1414.2863	1477.265	1499.0151	1811.1539	2895.9692	3059.5058	3068.1284	3127.3602	3129.7557	3135.508	3144.6414	3152.5483
O=CC12OC3CC1CC23	O=C[C@@]12O[C@H]3C[C@@H]1C[C@@H]23	
InChI=1S/C7H8O2/c8-3-7-4-1-5(7)6(2-4)9-7/h3-6H,1-2H2	InChI=1S/C7H8O2/c8-3-7-4-1-5(7)6(2-4)9-7/h3-6H,1-2H2/t4-,5+,6-,7+/m0/s1
