20
gdb 105275	2.75031	1.25911	1.02	3.259	75.05	-0.227	0.054	0.2809	1220.9288	0.169809	-440.217509	-440.208375	-440.207431	-440.251127	35.246	
O	 0.7111171605	-0.0194814015	-0.8324273275	-0.41825
C	-0.3211339051	 0.4024785845	 0.0603344628	-0.141684
C	-1.5664423931	-0.4788980924	 0.0423965589	 0.238413
C	-1.9666556775	-1.1787967682	-1.2570765856	-0.403359
C	-1.3978472927	-1.9642954884	-0.0885029644	 0.130473
O	-0.1530551668	-2.5819628172	-0.1347823143	-0.439585
N	-2.5200531695	 0.066681037	 0.9829323194	-0.116989
C	-3.5721192859	 0.9490777399	 0.4781158397	-0.226455
C	-3.8966524382	-0.4029077344	 1.0090922041	-0.232174
H	 0.4553582522	 0.2248891227	-1.7271725195	 0.294536
H	 0.1144397666	 0.368034219	 1.0628743288	 0.137192
H	-0.605195348	 1.4446600553	-0.1405442282	 0.106377
H	-3.0166796796	-1.2954815064	-1.5058534562	 0.112984
H	-1.3266799246	-1.0493561939	-2.1250235944	 0.092859
H	-2.1038361766	-2.5809985454	 0.4606572061	 0.10442
H	 0.475848153	-1.9283020609	-0.4754099204	 0.292851
H	-3.7678571318	 1.8397675183	 1.0678565988	 0.118058
H	-3.6469257168	 1.0820123245	-0.5998409171	 0.112353
H	-4.216125763	-1.1547206249	 0.2906633866	 0.116982
H	-4.3259730832	-0.5204593576	 2.0000934426	 0.120997
82.7427	126.6827	176.4934	216.816	231.5606	289.1658	337.5921	344.3261	417.8443	462.9361	477.9483	549.4441	603.5515	693.2829	775.0589	827.8125	841.1443	890.7687	909.1849	942.2961	1000.2286	1002.3446	1026.6446	1035.9822	1068.4692	1096.0709	1112.0789	1122.8618	1145.1194	1173.8095	1182.5513	1203.2399	1220.7724	1322.7572	1326.2612	1352.4872	1383.9908	1412.6116	1455.7187	1485.4431	1493.9517	1506.3996	1518.0674	3010.9369	3094.9261	3098.5562	3104.72	3120.7293	3153.3726	3179.5321	3193.6137	3203.1468	3706.0865	3827.1844
OCC1(CC1O)N1CC1	OC[C@]1(C[C@H]1O)N1CC1	
InChI=1S/C6H11NO2/c8-4-6(3-5(6)9)7-1-2-7/h5,8-9H,1-4H2	InChI=1S/C6H11NO2/c8-4-6(3-5(6)9)7-1-2-7/h5,8-9H,1-4H2/t5-,6+/m1/s1
