21
gdb 40288	2.61928	1.54813	1.20472	0.6044	78.5	-0.241	0.0772	0.3183	1110.037	0.183681	-424.203547	-424.1953	-424.194356	-424.23619	32.615	
C	-0.0458104654	 1.5377688329	-0.0518432802	-0.323924
C	 1.314461308	 0.868563131	-0.0427356059	-0.315758
C	 0.0541753087	 0.0432992435	 0.0231453971	 0.459802
C	-0.3427099711	-0.688324568	 1.293544482	-0.31625
C	 0.5856694938	-1.8539973866	 1.692856154	-0.062388
O	 1.2140299586	-2.532571917	 0.6198546551	-0.244968
C	 0.3915208857	-2.8666275983	-0.48245909	-0.092524
C	 0.3757277699	-1.7513243715	-1.5265203578	-0.079166
O	-0.3650868834	-0.6011839923	-1.1551333595	-0.293836
H	-0.3676658579	 2.0824139148	 0.8290923491	 0.108669
H	-0.3883964828	 1.9479557023	-0.9946308981	 0.122263
H	 1.8690321279	 0.8574775492	-0.9739904349	 0.118995
H	 1.9307668051	 0.9466104289	 0.8465152437	 0.112282
H	-0.379788387	 0.012132829	 2.1354752842	 0.100375
H	-1.3670781868	-1.0477718688	 1.1454627697	 0.112472
H	 1.4160356733	-1.4803736133	 2.3007244489	 0.108457
H	 0.0192890449	-2.5647763786	 2.3166747824	 0.087676
H	 0.8305619914	-3.7620711577	-0.9397344054	 0.105153
H	-0.6321751856	-3.1195448488	-0.1687604172	 0.096343
H	 1.4197131865	-1.484918299	-1.7508072119	 0.095897
H	-0.0938008236	-2.1152052818	-2.4472401052	 0.100428
88.113	138.7002	211.6155	264.2514	302.3758	337.7906	366.4519	401.9987	479.6143	556.4666	594.0029	704.0415	770.832	801.137	852.3035	869.6603	902.2255	930.464	953.6739	979.9099	1001.623	1037.8814	1050.5081	1075.8714	1090.0122	1119.5101	1128.4477	1159.8574	1187.0907	1232.1925	1269.6453	1275.2057	1301.8655	1330.9401	1347.8383	1382.2585	1390.3604	1414.1231	1424.2549	1454.1452	1471.641	1478.6068	1490.8338	1498.6733	1507.5861	2970.1411	2993.2644	2999.1517	3038.9763	3057.1401	3061.266	3073.3462	3085.205	3134.2261	3138.1138	3217.31	3232.0817
C1CC11CCOCCO1	C1CC21CCOCCO2	
InChI=1S/C7H12O2/c1-2-7(1)3-4-8-5-6-9-7/h1-6H2	InChI=1S/C7H12O2/c1-2-7(1)3-4-8-5-6-9-7/h1-6H2
