22
gdb 112424	2.03519	1.36132	0.9675	2.5195	82.	-0.2101	-0.0166	0.1935	1327.5503	0.193337	-404.3688	-404.359109	-404.358165	-404.403798	35.983	
C	 0.4829319222	-0.6955823127	 1.2907197066	-0.389
C	-0.1446616597	-0.3265636889	-0.0563302349	-0.176339
C	 0.87483682	-0.1832130186	-1.1978149833	 0.019084
C	 1.469077877	-1.5325197923	-1.6550540875	-0.338975
C	 0.5503341758	-1.9642593042	-2.7987133232	 0.396572
O	 0.47646148	-3.0560190359	-3.2977193916	-0.307171
C	-0.281270955	-0.7312302019	-3.1898415791	-0.292317
N	 0.2249342713	 0.3952520626	-2.4052607801	-0.068081
C	 1.1058836365	 1.2724618425	-3.1678836494	-0.334715
H	 0.9925292984	-1.6643038194	 1.2579732099	 0.118812
H	 1.2196175139	 0.0540885854	 1.6013954002	 0.115444
H	-0.2797341624	-0.754777381	 2.0728204865	 0.118731
H	-0.8991186974	-1.0766561934	-0.3300512635	 0.096028
H	-0.6777598457	 0.6262169119	 0.0275990115	 0.106294
H	 1.6594726325	 0.5062784921	-0.8711193409	 0.073479
H	 2.4794006262	-1.4099693841	-2.0641135076	 0.130949
H	 1.5253884032	-2.3071403998	-0.8876029135	 0.130784
H	-0.2163585757	-0.5513380281	-4.2666164229	 0.129035
H	-1.3356615338	-0.9437063299	-2.9649591073	 0.131579
H	 0.5561629318	 1.6958888441	-4.0139196989	 0.124355
H	 1.4294429719	 2.1042134859	-2.5349585343	 0.122532
H	 2.0116445791	 0.7793813157	-3.5692530666	 0.092919
55.4963	84.0542	107.2883	190.7611	222.3511	229.0113	298.8138	332.7904	417.5676	434.1508	448.6895	502.896	600.3024	678.0294	746.2856	784.5781	821.281	861.8949	885.2945	947.874	983.9775	1030.262	1053.9748	1072.2766	1105.1281	1123.0788	1147.9827	1164.1216	1209.8704	1220.8827	1258.8105	1271.1226	1289.6575	1300.5304	1338.0625	1360.7169	1397.9818	1416.1577	1445.9075	1455.4745	1473.8465	1488.1398	1496.0732	1501.6949	1504.5669	1507.6163	1851.1653	2926.2456	3011.8188	3021.2135	3032.37	3041.7207	3057.7871	3063.9293	3072.0635	3090.6017	3098.9833	3106.5793	3107.2608	3116.0291
CCC1CC(=O)CN1C	CC[C@H]1CC(=O)CN1C	
InChI=1S/C7H13NO/c1-3-6-4-7(9)5-8(6)2/h6H,3-5H2,1-2H3	InChI=1S/C7H13NO/c1-3-6-4-7(9)5-8(6)2/h6H,3-5H2,1-2H3/t6-/m0/s1
