17
gdb 8100	2.8795	2.05328	1.4988	3.9824	69.14	-0.2405	0.012	0.2526	898.9695	0.141622	-363.867785	-363.859932	-363.858988	-363.899564	29.732	
C	 0.087900718	 1.5871503343	 0.052499049	-0.424348
C	 0.0849244935	 0.0757789152	 0.107315357	-0.044313
C	 1.3040136922	-0.8069560207	-0.2146288593	-0.301443
C	 2.5273490427	-0.1545648302	 0.404603566	 0.42674
O	 3.5839163176	 0.2597180202	 0.0192665585	-0.348426
N	 1.9522267585	-0.1887503112	 1.6908155032	-0.389296
C	 0.695623851	-0.7718489979	 1.187199309	 0.350613
C	 0.0015694133	-1.8441777099	 1.970464149	-0.480093
H	 1.00619718	 2.0107754737	 0.467298497	 0.129066
H	 0.0030921176	 1.9357731575	-0.9815628757	 0.131597
H	-0.7585115236	 1.9966140464	 0.6145706108	 0.120098
H	-0.8246219846	-0.370630041	-0.2951690553	 0.095392
H	 1.2817251668	-1.5853137378	-0.9648542373	 0.111721
H	 1.9988976055	 0.5942199317	 2.3344302238	 0.236435
H	-0.4770797331	-1.4321444669	 2.8666608848	 0.125248
H	-0.7795540639	-2.3170397473	 1.3680219024	 0.125848
H	 0.7121232384	-2.6121597861	 2.290478067	 0.135162
137.3262	169.602	202.9408	211.5879	259.4574	302.7981	421.848	479.5404	522.9913	573.9315	677.2704	713.8699	733.4123	803.8159	886.3789	923.3656	928.4508	969.713	1034.1804	1057.2619	1094.9911	1121.387	1129.3077	1142.2367	1221.2148	1276.8274	1306.3456	1338.9946	1414.0748	1416.6857	1463.8803	1480.1964	1489.6189	1497.7092	1503.4122	1894.863	3031.4026	3037.7624	3093.163	3099.2229	3107.7834	3116.7715	3125.0493	3216.4361	3535.8151
CC1C2C(=O)NC12C	C[C@H]1[C@H]2C(=O)N[C@@]12C	
InChI=1S/C6H9NO/c1-3-4-5(8)7-6(3,4)2/h3-4H,1-2H3,(H,7,8)	InChI=1S/C6H9NO/c1-3-4-5(8)7-6(3,4)2/h3-4H,1-2H3,(H,7,8)/t3-,4-,6-/m0/s1
