20
gdb 89538	4.39997	1.11101	1.02314	1.3234	79.32	-0.23	0.0755	0.3055	1209.0136	0.171943	-403.051743	-403.044028	-403.043083	-403.083892	31.32	
O	 0.1003485809	 1.4791789567	-0.0736098087	-0.43341
C	 0.0669659562	 0.0758148013	-0.0614922828	 0.156989
C	 0.4054789706	-0.692173914	 1.2457885822	-0.373287
C	-0.7361894298	-1.6725695707	 0.9052135649	 0.425886
C	-1.2982329628	-0.6634196638	-0.1176723733	-0.37328
C	-0.564615109	-3.1894033646	 0.6588351564	-0.136676
C	-0.4691272754	-3.2760119682	 2.1962471841	-0.173741
N	-1.6275596558	-2.2761942623	 2.0063014058	-0.186431
C	-2.087075863	-3.2487066604	 0.9014279757	-0.17374
H	-0.4645070062	 1.7968118741	 0.6391578063	 0.277461
H	 0.7183057265	-0.2379712479	-0.8819925938	 0.094612
H	 1.4202597768	-1.0798802631	 1.3617045555	 0.105491
H	 0.1500124208	-0.0964472635	 2.1300993888	 0.106904
H	-2.0927020082	-0.0585912041	 0.3352704048	 0.106906
H	-1.6414694298	-1.0282113563	-1.0885732824	 0.105489
H	 0.0369750118	-3.6979138225	-0.1036087971	 0.064413
H	-0.7801661471	-4.2081190691	 2.6755984159	 0.098789
H	 0.4048031359	-2.8489260482	 2.6922740077	 0.104417
H	-2.7535293314	-2.7956237828	 0.1647090085	 0.104418
H	-2.5057604809	-4.1789971108	 1.2946317716	 0.098789
72.7961	203.2835	234.7729	303.9245	321.0038	402.1078	405.0588	467.5209	578.7298	610.6445	711.6869	751.6153	781.2091	817.5463	821.6451	906.4563	918.6985	931.2175	971.449	1014.0443	1023.3999	1035.6064	1065.0955	1073.6844	1094.8886	1122.5144	1160.9216	1167.5096	1180.6498	1197.8399	1204.9605	1211.299	1225.889	1246.8145	1277.7507	1282.5525	1323.1856	1339.2436	1437.6649	1458.4982	1484.2163	1512.3338	1549.198	3030.5301	3036.9743	3042.4001	3057.3724	3064.7371	3072.2502	3104.482	3109.1402	3124.455	3126.9842	3803.7477
OC1CC2(C1)C1CN2C1	O[C@H]1C[C@@]2(C1)[C@H]1CN2C1	
InChI=1S/C7H11NO/c9-6-1-7(2-6)5-3-8(7)4-5/h5-6,9H,1-4H2	InChI=1S/C7H11NO/c9-6-1-7(2-6)5-3-8(7)4-5/h5-6,9H,1-4H2/t6-,7+
