16
gdb 64972	3.54125	1.01628	0.85808	5.2593	69.97	-0.2732	-0.0488	0.2244	1315.391	0.121179	-437.894827	-437.885524	-437.884579	-437.929892	32.632	
C	-0.0956587129	 1.5441537282	-0.722433815	-0.463282
C	-0.0871789775	 0.2161423102	-0.0055951805	 0.300719
C	 0.8846398555	-0.8382256369	-0.3735471705	-0.217091
O	 1.0514283468	-0.0797572196	 0.8179511633	-0.255538
C	-1.4148226673	-0.2235053758	 0.571060764	 0.326162
O	-2.4573768211	 0.1321329586	 0.0857374387	-0.276746
C	-1.3407680706	-1.1019123818	 1.8326708052	-0.462776
C	-2.6368649579	-1.6376177843	 2.2266015404	 0.284198
N	-3.6519421434	-2.0794016059	 2.5537296925	-0.294584
H	 0.8880292359	 1.7506376857	-1.1490656359	 0.131168
H	-0.844669684	 1.5329021873	-1.5171622047	 0.155642
H	-0.3534094932	 2.3518561862	-0.0310276786	 0.14072
H	 0.6436311013	-1.8915552906	-0.2379394689	 0.126033
H	 1.5907015793	-0.6238353094	-1.1739202344	 0.137486
H	-0.6225112386	-1.9165423752	 1.6981288883	 0.176297
H	-0.9253686323	-0.4872946866	 2.6407665062	 0.191594
39.0822	71.3898	129.8154	170.8078	223.7438	262.8549	315.9793	368.3683	376.4821	420.9873	472.6417	539.0726	588.0302	773.9916	831.168	845.6784	922.8933	936.5049	952.9584	1010.8655	1067.0811	1100.4045	1139.7256	1165.9209	1205.7112	1278.6213	1346.4981	1366.4646	1411.3531	1417.1319	1477.618	1493.6577	1528.405	1821.3711	2376.3148	3054.4459	3054.8927	3088.6122	3094.9208	3125.5466	3145.735	3177.8206
CC1(CO1)C(=O)CC#N	C[C@]1(CO1)C(=O)CC#N	
InChI=1S/C6H7NO2/c1-6(4-9-6)5(8)2-3-7/h2,4H2,1H3	InChI=1S/C6H7NO2/c1-6(4-9-6)5(8)2-3-7/h2,4H2,1H3/t6-/m0/s1
