23
gdb 100355	1.85625	1.16388	0.8624	3.3486	82.69	-0.2402	-0.0173	0.2229	1469.9238	0.201471	-425.443738	-425.432334	-425.43139	-425.480646	40.982	
C	-1.6721004456	-0.5946781313	-0.5822052133	-0.417239
C	-0.218162078	-0.1874268372	-0.3150424627	-0.197549
C	 0.7978984727	-0.5526613269	-1.420058341	 0.322695
O	 0.4547477127	 0.085300387	-2.6562837589	-0.465377
C	 2.208931392	-0.0355681406	-1.0690750889	-0.17751
C	 2.3331460381	 1.4824243487	-0.9045967223	-0.39893
C	 0.853836502	-2.08806957	-1.6304149294	-0.314156
C	 1.8258853784	-2.5174006296	-2.7087104744	 0.153968
O	 2.6035694685	-3.4320227503	-2.5993234237	-0.251611
H	-2.0621949126	-0.1442577386	-1.5030567058	 0.109655
H	-1.7990070678	-1.6790174121	-0.6556970867	 0.125441
H	-2.3165116296	-0.246741459	 0.2302657191	 0.126301
H	-0.1817024348	 0.8969114397	-0.1747190541	 0.110445
H	 0.1180552064	-0.6387382326	 0.6263849373	 0.100126
H	-0.4544415245	-0.1438707125	-2.8743302738	 0.279217
H	 2.5443455875	-0.5465762629	-0.1588197425	 0.100168
H	 2.8882053426	-0.3562424451	-1.8677458027	 0.111074
H	 1.9248971254	 1.9978616179	-1.7773192437	 0.136584
H	 1.8107723583	 1.8490224285	-0.0159521787	 0.114973
H	 3.3850936895	 1.7648932428	-0.8014307644	 0.112964
H	 1.1041704712	-2.6129669615	-0.7035036462	 0.117704
H	-0.1384315124	-2.4382597626	-1.9498677626	 0.109873
H	 1.75902014	-1.9246735618	-3.6459059807	 0.091185
60.9189	66.9353	99.526	110.8375	188.7254	211.402	212.9893	242.7691	288.0035	302.5442	348.6011	361.1489	394.9263	459.3562	525.4369	569.6839	697.8055	774.1491	784.4962	833.8246	911.2491	935.8197	977.1145	1021.9083	1030.247	1039.763	1076.0784	1084.4887	1124.3344	1174.4462	1193.472	1223.3616	1294.809	1301.3589	1330.2614	1341.9125	1381.8345	1396.715	1408.8139	1417.4407	1419.0042	1453.1781	1473.1208	1476.6165	1500.7444	1501.1637	1508.7268	1509.4837	1826.5403	2908.8096	3012.977	3028.6363	3031.4582	3037.9652	3044.8225	3067.466	3081.7487	3093.6208	3097.7204	3106.9128	3113.3539	3128.6741	3813.3206
CCC(O)(CC)CC=O	CCC(O)(CC)CC=O	
InChI=1S/C7H14O2/c1-3-7(9,4-2)5-6-8/h6,9H,3-5H2,1-2H3	InChI=1S/C7H14O2/c1-3-7(9,4-2)5-6-8/h6,9H,3-5H2,1-2H3
