14
gdb 18144	3.60256	1.95052	1.58476	1.7047	62.67	-0.2368	0.0082	0.245	813.0111	0.105671	-382.443665	-382.436526	-382.435582	-382.474876	27.23	
O	 0.1818427637	 1.3270040354	 0.0037284805	-0.429263
C	 0.0018746856	-0.0469788674	-0.0018270954	 0.133275
C	-0.4622075984	-0.8046337672	 1.1908807979	 0.019002
O	-1.3684964417	 0.0244321379	 1.9390309866	-0.307178
C	-2.3478822638	-0.032324904	 0.8472108807	-0.082497
C	-2.8931219139	 1.2580472125	 0.4615082873	 0.328909
C	-3.3802649947	 2.3133535299	 0.1554060938	-0.428929
C	-1.3442968512	-0.753589866	-0.0571563269	-0.191819
H	-0.2712363501	 1.6654768538	 0.7878376389	 0.298269
H	 0.7597651586	-0.5454986585	-0.5997053476	 0.11498
H	 0.0367681154	-1.6050499568	 1.7252343864	 0.108949
H	-3.1600163661	-0.7030619405	 1.1523908258	 0.12106
H	-3.7947301835	 3.2498708212	-0.1270938879	 0.206985
H	-1.60388001	-1.5082980804	-0.7872364301	 0.108257
113.3745	150.4501	225.8795	272.5806	402.5827	440.6278	522.6397	564.0622	623.2768	662.7945	689.0128	734.991	800.722	818.3199	908.542	945.9026	971.6039	1022.4192	1031.753	1056.87	1066.4938	1109.2748	1181.457	1239.5582	1261.8103	1310.5864	1354.4493	1367.0283	1460.6216	2234.9358	3032.5327	3160.3064	3178.1061	3205.249	3500.691	3762.6943
OC1C2OC(C#C)C12	O[C@H]1[C@H]2O[C@@H](C#C)[C@@H]12	
InChI=1S/C6H6O2/c1-2-3-4-5(7)6(4)8-3/h1,3-7H	InChI=1S/C6H6O2/c1-2-3-4-5(7)6(4)8-3/h1,3-7H/t3-,4-,5+,6-/m0/s1
