23
gdb 103373	2.93904	1.36807	1.24771	1.3241	84.65	-0.253	0.0701	0.3232	1155.0772	0.207265	-388.288154	-388.279521	-388.278577	-388.320816	35.14	
C	 0.8248407534	-0.4637951614	 1.2882209707	-0.377066
C	 0.0403348016	-0.0456862538	 0.0390632174	-0.270837
C	-1.386803006	-0.602411348	-0.0013298069	 0.47642
O	-2.1092673053	-0.1251586365	 1.1237490173	-0.491307
C	-2.1092788586	-0.5424710176	-1.3961421884	-0.094223
C	-1.353888024	-1.860760065	-1.7333374059	-0.241351
C	-1.5592192622	-2.1375328219	-0.2157504532	-0.065559
C	-3.093586213	-2.2967808968	-0.1494467279	-0.210843
C	-3.5109722247	-1.0778176798	-1.043230593	-0.20701
H	 1.7985221657	 0.0341646265	 1.3242450442	 0.10753
H	 0.2730965189	-0.209163142	 2.1967827552	 0.123953
H	 1.0026573867	-1.5438994328	 1.3005395321	 0.118914
H	-0.0336167319	 1.0523332058	 0.0046991252	 0.08162
H	 0.5965510531	-0.3262723237	-0.8590803335	 0.103187
H	-1.9913372661	 0.8294946167	 1.1722317185	 0.273773
H	-2.0463531512	 0.340724005	-2.0353310645	 0.047577
H	-1.8496134062	-2.5464085506	-2.4256403362	 0.090512
H	-0.3155927405	-1.726846669	-2.0344270196	 0.096648
H	-0.9555143919	-2.8626755446	 0.3311906066	 0.056114
H	-3.4136329082	-3.2561576964	-0.565932099	 0.08648
H	-3.4766203754	-2.2137857163	 0.8681958723	 0.111248
H	-4.1052154618	-0.349374254	-0.4889104475	 0.097019
H	-4.0686020423	-1.3746991938	-1.9360084637	 0.087201
96.8654	159.6194	209.1753	274.8777	286.8819	303.916	331.2564	403.0673	445.2102	486.8533	549.5881	653.514	694.5645	786.3861	825.102	835.7881	839.9158	892.9354	906.477	938.0434	961.1338	977.2087	993.9553	1001.9851	1025.5786	1044.5725	1087.2267	1091.609	1118.6098	1146.2931	1167.5109	1187.3588	1218.518	1236.2677	1255.2985	1263.4508	1278.0818	1285.1222	1310.6175	1328.734	1365.61	1394.534	1408.2374	1480.5081	1484.5411	1495.2036	1499.9305	1510.083	1520.9956	2990.7	3041.5476	3056.6162	3065.0136	3067.4266	3085.5525	3091.9928	3104.0216	3109.0343	3110.7246	3123.1861	3128.9466	3139.4463	3805.902
CCC1(O)C2CC1CC2	CC[C@@]1(O)[C@H]2C[C@@H]1CC2	
InChI=1S/C8H14O/c1-2-8(9)6-3-4-7(8)5-6/h6-7,9H,2-5H2,1H3	InChI=1S/C8H14O/c1-2-8(9)6-3-4-7(8)5-6/h6-7,9H,2-5H2,1H3/t6-,7+,8-
