14
gdb 133792	3.24425	0.89599	0.8096	3.2836	52.59	-0.2795	-0.0521	0.2273	1380.368	0.094038	-605.316836	-605.307352	-605.306408	-605.354182	31.317	
C	 0.0123715003	 1.4048094606	-0.0492667099	-0.231526
O	-0.0029450735	-0.0057238148	 0.0150040972	-0.217581
C	 0.61651825	-0.6005286019	-1.0785986749	-0.166907
C	 0.5609664898	-2.1105112564	-0.9403128057	 0.213466
O	 0.0620012712	-2.7123091543	-0.0342451068	-0.246146
C	 1.2321740391	-2.8750149576	-2.1177607427	 0.222879
F	 1.1567200098	-4.184025833	-1.9553551757	-0.041459
F	 0.6365451417	-2.5465419892	-3.276469982	-0.078684
F	 2.5254266736	-2.5236556681	-2.2141691989	-0.078639
H	 1.0396627997	 1.7997023788	-0.0681452993	 0.112284
H	-0.518835173	 1.7769524222	-0.9386229742	 0.112282
H	-0.4932499617	 1.7703148305	 0.8464474561	 0.141549
H	 0.1375836216	-0.3305108969	-2.0375331613	 0.129275
H	 1.6780224914	-0.3083381899	-1.1770736318	 0.129206
8.5134	71.1367	87.5755	128.5445	224.1178	236.3587	255.3247	321.0527	370.6894	433.3323	494.7672	570.0273	612.5942	722.0969	829.7593	979.1983	1005.4341	1057.9593	1173.6012	1174.8	1184.46	1224.7921	1250.1563	1252.9972	1317.6641	1411.5517	1468.1521	1487.3791	1491.3207	1515.8158	1869.6189	2945.9075	2966.0507	2978.8562	3026.9634	3129.1879
COCC(=O)C(F)(F)F	COCC(=O)C(F)(F)F	
InChI=1S/C4H5F3O2/c1-9-2-3(8)4(5,6)7/h2H2,1H3	InChI=1S/C4H5F3O2/c1-9-2-3(8)4(5,6)7/h2H2,1H3
