21
gdb 96277	2.12293	1.53042	0.97335	4.4508	78.76	-0.2561	0.0178	0.2739	1252.7314	0.183971	-424.279537	-424.270857	-424.269913	-424.312859	33.411	
C	-0.1181188747	 1.5105927258	 0.0519726522	-0.401256
C	 0.0318566339	-0.0142719685	-0.0287562321	 0.029535
C	 0.6982806049	-0.4156078248	-1.35429278	-0.185127
C	 0.8796888546	-1.9214898912	-1.5757426745	-0.222772
C	 1.7195591867	-2.6286199313	-0.5131529762	-0.070562
O	 0.9908415607	-2.9485209317	 0.6789505255	-0.220387
C	 0.5484366584	-1.9948571245	 1.5356157823	 0.400804
O	-0.0537409203	-2.3417271899	 2.5163415473	-0.32162
C	 0.8120895339	-0.5344293938	 1.204492224	-0.33951
H	 0.8623319157	 2.0016544729	 0.0611165453	 0.115647
H	-0.6752619227	 1.8963865738	-0.807864182	 0.115446
H	-0.649772458	 1.8095940012	 0.9604132661	 0.121231
H	-0.9741677232	-0.4549482806	 0.0026973428	 0.090978
H	 0.1119120426	-0.0034675247	-2.1841077543	 0.099967
H	 1.6828288708	 0.0721376285	-1.4071964696	 0.094169
H	-0.0923365247	-2.4269623075	-1.6309760099	 0.117196
H	 1.367875961	-2.0785899867	-2.5452660076	 0.104777
H	 2.0480685247	-3.6031234563	-0.8815819685	 0.123967
H	 2.6187405665	-2.0489480724	-0.2672704345	 0.107266
H	 1.8858479794	-0.3572138746	 1.062088355	 0.112435
H	 0.5061179798	 0.0150529664	 2.0963594989	 0.127817
78.706	132.397	193.4378	228.1803	285.0367	307.3686	341.8696	380.2266	417.1928	484.223	511.3463	588.5628	676.6641	794.7116	823.8744	862.8148	880.1807	934.3546	944.9449	968.0578	1008.4864	1052.1743	1076.6009	1102.3482	1123.6472	1152.8353	1183.7134	1231.2529	1261.1668	1304.8726	1309.1788	1313.7558	1343.0185	1372.8232	1390.2151	1395.9135	1413.7709	1420.1885	1472.9059	1475.3365	1487.6518	1497.5775	1499.3712	1513.5497	1836.9116	2999.4747	3012.6581	3025.3503	3027.2339	3029.0002	3037.5187	3056.2683	3073.0471	3094.5441	3102.6807	3105.9797	3116.7239
CC1CCCOC(=O)C1	C[C@H]1CCCOC(=O)C1	
InChI=1S/C7H12O2/c1-6-3-2-4-9-7(8)5-6/h6H,2-5H2,1H3	InChI=1S/C7H12O2/c1-6-3-2-4-9-7(8)5-6/h6H,2-5H2,1H3/t6-/m0/s1
