24
gdb 96664	2.63927	1.05827	0.91964	0.8079	88.79	-0.2374	0.0333	0.2707	1459.0508	0.212485	-405.571284	-405.559408	-405.558464	-405.608391	42.645	
C	 0.0785488578	 1.6415262639	-0.0999865317	-0.323802
N	 0.0060157131	 0.1963714594	 0.0281344698	-0.287906
C	 0.5119508322	-0.5185758945	-0.8904408354	 0.412975
C	 1.2030592556	-0.0251648358	-2.1418104528	-0.484708
O	 0.5003015567	-1.8674355666	-0.8721944997	-0.303277
C	-0.0952507493	-2.6566050535	 0.2058646391	 0.371652
C	-1.6012440211	-2.3888260156	 0.3044288502	-0.410886
C	 0.1606825139	-4.0928308071	-0.2617874496	-0.394391
C	 0.6256772977	-2.3917629708	 1.5323380452	-0.410916
H	 1.1130889431	 2.0133080354	-0.1406810694	 0.110253
H	-0.4361308528	 2.0152651761	-0.9975268058	 0.110219
H	-0.4009761097	 2.1015658902	 0.7680960994	 0.121533
H	 2.0653373306	 0.597061998	-1.8801512829	 0.14023
H	 1.5383114928	-0.8623083269	-2.7530508993	 0.138452
H	 0.5237869397	 0.6004921941	-2.7302562544	 0.140215
H	-2.0781580664	-2.5419117683	-0.6687885469	 0.109423
H	-2.0497286899	-3.0902717431	 1.0154516467	 0.107791
H	-1.7964898568	-1.3705161414	 0.6379836617	 0.145589
H	 1.2332306205	-4.2763387906	-0.3720921749	 0.116196
H	-0.2406399182	-4.8046721054	 0.4652063164	 0.112363
H	-0.3195008612	-4.2745647473	-1.2275014994	 0.116186
H	 0.4508635902	-1.3730422005	 1.8758381028	 0.145597
H	 0.2612495162	-3.0923216908	 2.2907110402	 0.107808
H	 1.7027690453	-2.5482581689	 1.4165232805	 0.109404
55.6796	75.2063	86.1638	127.7	166.0221	183.5587	235.8573	254.4332	277.2922	284.175	314.5124	342.5451	351.4702	415.0856	457.6414	495.0747	582.6175	648.8648	742.7403	816.5358	903.2981	923.5968	925.4645	964.5974	1026.5452	1047.6286	1051.4681	1052.5318	1106.3608	1113.7411	1162.1873	1209.7506	1262.9266	1276.3905	1318.9121	1390.9083	1392.9333	1397.8058	1422.4071	1444.8132	1464.6421	1478.2192	1482.2518	1488.1352	1488.4315	1489.3308	1490.9947	1504.3968	1511.8457	1527.4767	1732.0894	2981.4059	3028.1523	3040.0351	3040.494	3044.1671	3047.7806	3094.7064	3099.8626	3103.3833	3105.7877	3117.5179	3121.5729	3157.0466	3160.2345	3162.7924
CN=C(C)OC(C)(C)C	CN=C(C)OC(C)(C)C	
InChI=1S/C7H15NO/c1-6(8-5)9-7(2,3)4/h1-5H3	InChI=1S/C7H15NO/c1-6(8-5)9-7(2,3)4/h1-5H3
