22
gdb 121257	3.89795	0.9135	0.82187	2.6922	82.92	-0.2367	0.0748	0.3116	1498.6377	0.195212	-404.333166	-404.324192	-404.323248	-404.367341	33.864	
C	 0.0952521888	 1.5598763234	-0.026045169	-0.381226
C	 0.0793732159	 0.0296309953	 0.0106277015	-0.164016
C	 0.733640938	-0.5407627929	 1.2733477307	-0.181851
C	 0.7354183748	-2.0646639088	 1.3228765235	 0.137436
O	 1.4550350064	-2.5632171355	 0.1888740516	-0.27243
C	 2.1038469162	-3.7868785993	 0.51183924	-0.074151
C	 2.2958229703	-3.7649825148	 2.0136738804	-0.056464
N	 2.8985510538	-2.499155785	 2.4818764002	-0.328603
C	 1.4314133283	-2.680833893	 2.5247786802	-0.083592
H	 1.120593748	 1.9449335538	 0.0059448554	 0.114863
H	-0.3752429462	 1.9425539549	-0.93732132	 0.108626
H	-0.4422160223	 1.9850126947	 0.8295883052	 0.107686
H	-0.9571192439	-0.3284964634	-0.0556381673	 0.085764
H	 0.5989991414	-0.3715437454	-0.8656236354	 0.118353
H	 1.7730356178	-0.2030054376	 1.3499160404	 0.116893
H	 0.2064674362	-0.1694495707	 2.163327124	 0.081514
H	-0.3038513177	-2.4402948544	 1.3018096229	 0.059464
H	 1.4883351523	-4.6576233783	 0.2315175977	 0.087332
H	 3.0413163522	-3.8239289439	-0.052971415	 0.111912
H	 2.468496376	-4.6870791987	 2.5582193816	 0.09195
H	 3.2749203303	-2.6389232645	 3.4167078123	 0.231053
H	 0.9161939136	-2.7388036261	 3.4776837691	 0.089485
76.5151	93.3392	115.1236	172.6289	245.0127	272.7102	316.5938	367.969	417.8621	548.915	665.5857	742.5488	763.4015	806.9238	833.506	872.3068	876.7102	908.9327	919.0361	966.5388	994.0544	1018.7568	1045.8294	1063.4207	1085.7751	1105.2016	1126.9829	1146.3615	1157.519	1175.4866	1233.353	1252.8949	1263.8087	1288.5436	1321.3214	1331.7156	1362.3077	1375.7367	1388.7908	1408.8714	1415.6308	1434.4354	1477.4899	1494.1397	1499.8384	1509.0113	1510.9178	2935.6402	2971.5217	3014.1409	3016.0773	3026.8191	3067.3918	3069.0949	3079.2929	3098.4392	3099.4817	3165.3381	3176.1739	3498.3056
CCCC1OCC2NC12	CCC[C@H]1OC[C@H]2N[C@@H]12	
InChI=1S/C7H13NO/c1-2-3-6-7-5(8-7)4-9-6/h5-8H,2-4H2,1H3	InChI=1S/C7H13NO/c1-2-3-6-7-5(8-7)4-9-6/h5-8H,2-4H2,1H3/t5-,6-,7-/m1/s1
