15
gdb 81763	3.30115	1.27033	1.08471	3.0458	67.16	-0.2616	-0.0032	0.2583	1086.6543	0.112709	-453.902126	-453.893894	-453.89295	-453.935402	30.446	
O	 0.0415748506	 1.4133137956	 0.1842612497	-0.422137
C	 0.0478317475	 0.0265935864	 0.0634392172	 0.11366
C	-1.3134668416	-0.6740727778	 0.0155910283	-0.151563
N	-1.9577178431	-0.1369792972	-1.2000602612	-0.403179
C	-1.0076071475	-1.2827912932	-1.3219480254	 0.225968
C	-1.4175549395	-2.5382500342	-1.8551224172	 0.152606
N	-1.7307211527	-3.5629597962	-2.2932135286	-0.336322
C	 0.380198825	-0.6105460312	-1.3695026637	 0.039509
O	 0.6343962385	 0.2385772958	-2.4361430526	-0.416494
H	-0.6702046948	 1.7439335216	-0.3777348256	 0.291359
H	 0.7103810137	-0.3710344216	 0.8344009912	 0.108245
H	-1.9037204013	-1.0918039085	 0.8214591739	 0.128164
H	-2.9087235833	-0.4967902745	-1.2589931037	 0.260564
H	 1.1983693966	-1.3303105944	-1.3123001192	 0.117806
H	-0.1485492783	 0.7900785495	-2.557232333	 0.291815
50.8029	134.721	160.1114	234.1937	291.7565	304.2127	420.6039	477.1527	519.3092	559.1081	597.4687	624.0901	695.5097	736.2667	802.7011	857.6493	932.748	961.7918	991.5736	1035.2596	1093.6521	1140.006	1166.9285	1186.2877	1218.9581	1246.3458	1272.5373	1314.438	1348.6589	1387.4735	1424.2899	1453.7179	2346.9953	3100.4602	3114.223	3203.965	3502.3509	3779.0661	3786.23
OC1C2NC2(C#N)C1O	O[C@H]1[C@H]2N[C@@]2(C#N)[C@H]1O	
InChI=1S/C5H6N2O2/c6-1-5-3(7-5)2(8)4(5)9/h2-4,7-9H	InChI=1S/C5H6N2O2/c6-1-5-3(7-5)2(8)4(5)9/h2-4,7-9H/t2-,3+,4-,5+/m0/s1
