20
gdb 68880	2.30488	1.84787	1.39136	1.2001	78.86	-0.2037	0.0734	0.2771	1025.5887	0.170759	-403.084112	-403.075678	-403.074734	-403.116671	33.203	
C	 0.0674391469	 1.5609661176	 0.0235012748	-0.508683
C	 0.0067588341	 0.0679356968	 0.1262732057	 0.314775
C	 1.1340277255	-0.8334357428	-0.3258896461	-0.402425
C	 0.6070417737	-0.9585442672	 1.0811465318	 0.316205
O	 1.3781236073	-0.7868488726	 2.2179161089	-0.464654
C	-0.7088339448	-1.7169636928	 1.0203961236	-0.04536
C	-1.7691101947	-1.2834311657	 2.0510575179	-0.253724
C	-2.2808752492	-0.2751799209	 0.9976363848	-0.167152
N	-1.2532174004	-0.7060309264	-0.0185340151	-0.171574
H	 1.0812550288	 1.9119120022	 0.2353511707	 0.12903
H	-0.200966783	 1.887422558	-0.9878952848	 0.129477
H	-0.6058903262	 2.0582731659	 0.7282694251	 0.122928
H	 0.9541209224	-1.6074843667	-1.0691274843	 0.108454
H	 2.0950975349	-0.3330011781	-0.3974113189	 0.109479
H	 2.0794146053	-1.4483194156	 2.2171639173	 0.285559
H	-0.6825218962	-2.7736444638	 0.7367276775	 0.068591
H	-2.4848328567	-2.0648449327	 2.3121867792	 0.102684
H	-1.3559837527	-0.8648335261	 2.9710040834	 0.118137
H	-3.2877655825	-0.4827226956	 0.6259896257	 0.104952
H	-2.2328558223	 0.7814763065	 1.2726274528	 0.103301
111.0895	165.795	173.4779	209.7295	277.9231	284.6215	414.2855	436.0883	491.7342	509.8379	548.7829	691.7539	738.9404	760.6418	797.3096	836.4803	857.6188	877.2578	957.5456	962.9605	987.7915	1009.2328	1037.5565	1051.5836	1094.0466	1106.1079	1163.317	1173.015	1196.0461	1226.9288	1245.4247	1266.9813	1279.9219	1298.5381	1318.0343	1352.9516	1404.5945	1423.466	1477.6728	1489.3785	1493.0594	1509.1514	1511.4941	3032.3713	3054.06	3057.141	3075.455	3092.4844	3099.5955	3100.8423	3113.308	3128.273	3199.6475	3781.3682
CC12CC1(O)C1CCN21	C[C@@]12C[C@]1(O)[C@H]1CCN21	
InChI=1S/C7H11NO/c1-6-4-7(6,9)5-2-3-8(5)6/h5,9H,2-4H2,1H3	InChI=1S/C7H11NO/c1-6-4-7(6,9)5-2-3-8(5)6/h5,9H,2-4H2,1H3/t5-,6-,7+/m1/s1
