21
gdb 95966	2.69954	1.47618	1.2595	2.5212	78.28	-0.2343	0.0658	0.3001	1105.4597	0.18329	-424.222053	-424.213548	-424.212604	-424.255138	33.191	
O	-0.1531414551	 1.580242756	 0.6097167479	-0.437511
C	-0.0715597893	 0.2453121404	 0.1227506578	 0.045294
C	 0.6204093991	-0.6831612137	 1.1300330095	-0.266997
C	-0.5031697318	-0.9014471038	 2.1475228422	-0.065951
O	-1.7080204207	-0.9014088574	 1.3849752269	-0.317771
C	-1.4918822246	-0.3426836404	 0.0947780463	 0.46135
C	-2.6061683703	 0.5918608718	-0.4345976652	-0.282217
C	-2.5016220896	-0.1202922245	-1.8116980458	-0.21769
C	-1.7664518354	-1.2924084686	-1.1078115463	-0.284975
H	 0.7435950787	 1.9136519346	 0.7126124229	 0.283031
H	 0.3948952666	 0.2223344341	-0.8710790335	 0.065539
H	 0.894859342	-1.6257081502	 0.6440975928	 0.109195
H	 1.5248739438	-0.244471185	 1.5616166361	 0.090244
H	-0.4249453335	-1.852403902	 2.6841761684	 0.100573
H	-0.5256036479	-0.086579638	 2.8838174866	 0.100162
H	-3.5463419236	 0.3601968654	 0.0719312031	 0.10832
H	-2.4170379441	 1.6640394338	-0.3813701245	 0.115218
H	-3.4348185067	-0.3561465012	-2.3263672268	 0.098549
H	-1.851153826	 0.4191934924	-2.5056623759	 0.100752
H	-0.9086290121	-1.7500380002	-1.6104862834	 0.085834
H	-2.4577680194	-2.0795783834	-0.796677709	 0.109051
70.344	134.1655	183.3275	222.2206	274.3979	321.8996	335.4569	418.149	485.028	503.877	672.1706	687.7911	788.9315	800.6223	843.1796	874.654	906.5934	915.9392	927.1369	956.3142	991.3499	1014.8562	1031.0326	1048.9854	1067.0498	1133.969	1147.1124	1189.9963	1196.8792	1209.1215	1217.9523	1237.8396	1244.2019	1270.7518	1275.7667	1295.7032	1316.487	1346.8855	1395.2734	1421.3821	1469.7753	1479.4567	1486.2562	1507.2397	1520.7013	3009.8889	3011.8266	3046.7417	3049.3514	3064.8216	3070.9912	3076.0414	3098.6404	3104.2538	3120.3669	3143.2852	3820.6972
OC1CCOC11CCC1	O[C@H]1CCOC21CCC2	
InChI=1S/C7H12O2/c8-6-2-5-9-7(6)3-1-4-7/h6,8H,1-5H2	InChI=1S/C7H12O2/c8-6-2-5-9-7(6)3-1-4-7/h6,8H,1-5H2/t6-/m0/s1
