17
gdb 67019	2.22423	1.72738	1.5601	2.2339	72.37	-0.2331	0.0066	0.2397	970.3268	0.134565	-421.794304	-421.786083	-421.785139	-421.826795	31.489	
C	 0.0356332603	 1.6250148054	-0.0160048299	-0.503602
C	-0.0488003011	 0.1255916703	-0.0275434139	 0.090961
C	 0.4126151541	-0.7536054961	-1.229411172	-0.272982
C	-0.5994093953	-1.7934878323	-0.7428396088	-0.113916
C	-0.4972561046	-1.8380414439	 0.8073840853	-0.285868
C	 0.3997529597	-0.7104330375	 1.1978577801	 0.413304
O	 1.0147958406	-0.4274192164	 2.1897515847	-0.348614
C	-1.3623783211	-0.7970625458	 0.0419445367	 0.345836
O	-2.6978666211	-0.5321394605	 0.1091276103	-0.443934
H	 1.0800536891	 1.9483289157	-0.0801182246	 0.136457
H	-0.5071259365	 2.0635028456	-0.8594682242	 0.123658
H	-0.3755317126	 2.0382076919	 0.910763047	 0.125838
H	 0.116610662	-0.3226872002	-2.1900498212	 0.110286
H	 1.4717189376	-1.035104019	-1.2530443275	 0.10405
H	-0.9762804261	-2.6686591314	-1.2568529452	 0.105733
H	-0.8322112064	-2.6969820774	 1.3725328101	 0.11166
H	-2.9145567387	-0.2201626685	 0.995728743	 0.301133
114.4862	141.4495	178.4605	216.4101	270.2736	320.6294	396.0276	445.4115	492.9127	592.9183	630.8122	665.0379	714.3445	755.3238	762.234	857.1914	877.1631	901.0665	955.3058	978.5042	1011.0633	1060.3337	1108.5675	1119.3212	1135.3356	1174.6773	1204.1258	1249.079	1259.0894	1307.8487	1351.6111	1412.7968	1476.6469	1487.4794	1489.1537	1506.1196	1869.5694	3032.8453	3036.3412	3099.3831	3100.6278	3103.8774	3198.9946	3220.7204	3785.7765
CC12CC3C(C1=O)C23O	C[C@@]12C[C@H]3[C@@H](C1=O)[C@@]23O	
InChI=1S/C7H8O2/c1-6-2-3-4(5(6)8)7(3,6)9/h3-4,9H,2H2,1H3	InChI=1S/C7H8O2/c1-6-2-3-4(5(6)8)7(3,6)9/h3-4,9H,2H2,1H3/t3-,4-,6+,7+/m0/s1
