19
gdb 74999	3.62477	1.33564	1.07193	1.2717	76.57	-0.2163	0.0261	0.2424	1148.3981	0.161629	-419.200247	-419.192245	-419.191301	-419.232976	30.516	
C	-0.0087329628	 1.5585945625	 0.2944645109	-0.45704
C	-0.1075541759	 0.0720729465	 0.1251214484	 0.394402
N	-1.164783634	-0.4936021059	-0.2964147143	-0.311678
C	-1.2114673304	-1.9350067947	-0.2853417501	 0.024469
C	-1.2278450422	-2.7069358262	-1.6335599973	-0.183028
N	-0.1119538218	-3.5938569454	-1.1608742473	-0.328919
C	 0.0694955053	-2.7379849971	 0.0501601241	-0.047758
C	 1.2896723085	-1.8300824867	-0.0877350549	-0.080603
O	 1.0566909451	-0.5384206867	 0.4939344665	-0.258834
H	 0.7830214555	 1.9646277993	-0.3434082267	 0.1358
H	-0.962263387	 2.0219457091	 0.0442397258	 0.142779
H	 0.2580730846	 1.7989099951	 1.3289528283	 0.139301
H	-2.0559775549	-2.237338251	 0.3430199558	 0.086181
H	-2.1574418866	-3.2224105305	-1.8909021079	 0.104394
H	-0.9200936154	-2.0948299585	-2.4872256321	 0.112068
H	-0.4658544688	-4.5084704837	-0.9028671789	 0.220901
H	 0.0758787257	-3.2717701723	 1.0045433747	 0.072894
H	 2.1773061574	-2.2248019946	 0.4107749034	 0.115778
H	 1.5168843878	-1.7031632292	-1.1528742784	 0.118892
83.6767	131.3521	168.3353	194.231	313.029	374.3454	403.1137	477.1269	534.6529	621.2699	677.4432	746.7582	781.4609	825.584	873.0869	918.5607	937.7839	993.1714	996.2507	1022.9992	1062.5645	1069.3577	1085.2714	1116.5986	1164.5947	1185.5087	1229.709	1254.9537	1262.5395	1284.019	1317.5337	1343.5735	1351.9559	1383.0508	1406.3239	1418.3862	1474.1582	1476.7161	1503.0931	1511.1173	1731.6577	3037.4973	3040.4166	3044.7109	3046.0002	3064.0295	3095.5638	3102.4513	3112.21	3165.2137	3531.9013
CC1=NC2CNC2CO1	CC1=N[C@H]2CN[C@H]2CO1	
InChI=1S/C6H10N2O/c1-4-8-5-2-7-6(5)3-9-4/h5-7H,2-3H2,1H3	InChI=1S/C6H10N2O/c1-4-8-5-2-7-6(5)3-9-4/h5-7H,2-3H2,1H3/t5-,6-/m0/s1
