19
gdb 79040	3.56913	1.65232	1.39406	1.3117	78.79	-0.2282	0.0859	0.3141	979.706	0.160481	-385.793159	-385.786307	-385.785363	-385.823999	28.655	
C	-0.1936493418	 1.6158394793	-0.0563396168	-0.41936
C	-0.0315462543	 0.1076510025	 0.0301430604	-0.085738
C	 1.1833099204	-0.5959122266	-0.707126247	-0.123787
C	 2.1945494174	-0.1970630508	 0.4098142973	-0.086494
C	 2.5626158859	-1.6117936244	 0.9169842775	-0.154262
C	 2.2475925567	-1.5304962472	 2.4444396697	-0.106495
O	 1.0126355999	-0.7412611402	 2.495802778	-0.350071
C	 0.8513235806	-0.524964345	 1.1238577593	 0.460436
C	 1.1641581925	-1.7933379938	 0.2827812196	-0.077313
H	 0.7585501201	 2.1346577017	 0.091568864	 0.117784
H	-0.586933987	 1.9063116739	-1.0364644447	 0.116701
H	-0.8946844069	 1.979708819	 0.7020780528	 0.124923
H	-0.9893453055	-0.4049474106	-0.121483703	 0.073793
H	 1.3608236495	-0.6274690142	-1.7802309861	 0.07857
H	 2.7557119347	 0.7312945654	 0.5083176967	 0.074366
H	 3.4575059132	-2.1664937204	 0.6294961959	 0.067784
H	 2.0602237217	-2.5107107653	 2.896402552	 0.10883
H	 3.0245193873	-1.0110539824	 3.0161890167	 0.108477
H	 0.5286334055	-2.6781589408	 0.2394330677	 0.071857
195.9649	206.1295	223.1783	302.6129	442.6619	474.8428	521.0222	681.5193	715.7389	747.3362	757.1601	802.1648	855.2876	874.2611	893.6351	913.8571	926.3354	953.9144	977.6629	988.8089	1031.9428	1044.9782	1063.5868	1109.2622	1117.9553	1125.2873	1127.7753	1164.9781	1169.7542	1185.0406	1220.0903	1238.0731	1257.8953	1284.1497	1317.2239	1361.7995	1400.8614	1415.0096	1492.5254	1498.3785	1508.1476	3032.6373	3034.1096	3035.9403	3082.039	3097.0291	3097.5077	3105.9253	3112.0085	3119.8316	3137.3336
CC1C2C3C4COC13C24	C[C@H]1[C@H]2[C@@H]3[C@H]4CO[C@@]13[C@@H]24	
InChI=1S/C8H10O/c1-3-5-6-4-2-9-8(3,6)7(4)5/h3-7H,2H2,1H3	InChI=1S/C8H10O/c1-3-5-6-4-2-9-8(3,6)7(4)5/h3-7H,2H2,1H3/t3-,4-,5+,6+,7-,8+/m0/s1
