18
gdb 116970	8.36794	0.42531	0.41458	4.6766	84.34	-0.2596	0.0175	0.277	2543.0584	0.145191	-401.921767	-401.911166	-401.910222	-401.96036	34.956	
C	-0.2837678672	 1.2959734067	-0.5592100008	-0.220194
O	-0.3411913333	-0.1122500465	-0.5445435973	-0.228627
C	-1.0112206247	-0.6032635976	 0.5992495761	-0.201675
C	-1.0416276971	-2.0599107652	 0.5746984103	 0.063667
C	-1.0649873444	-3.2629457826	 0.5823990263	 0.090348
C	-1.1157590184	-4.7177791331	 0.5539608014	-0.355205
C	-2.092977135	-5.2370237379	-0.5332598047	-0.32505
C	-2.1529526611	-6.6962272988	-0.5650230633	 0.255131
N	-2.1864945711	-7.8511986842	-0.5726534608	-0.300782
H	 0.2454755882	 1.5872739114	-1.4688659949	 0.133771
H	-1.2889041523	 1.7469291178	-0.5708943319	 0.106342
H	 0.259973071	 1.6927640673	 0.3128776252	 0.107064
H	-0.5078900627	-0.2587126338	 1.5198590704	 0.118289
H	-2.0418012721	-0.2085437833	 0.6414429152	 0.115476
H	-0.1178559936	-5.1293633696	 0.3649300271	 0.155668
H	-1.4281122926	-5.1041556755	 1.5308630116	 0.1537
H	-3.0968602402	-4.8419660954	-0.3487274624	 0.163943
H	-1.7816924734	-4.8696716997	-1.5161044175	 0.168133
14.6077	49.7435	61.2811	97.4214	120.9956	184.7022	230.1344	280.6724	314.1179	368.9365	402.0707	448.7142	517.809	559.9643	765.2477	823.0689	951.2403	978.781	1007.4425	1027.8365	1033.59	1137.4706	1178.6211	1182.4511	1198.6375	1220.4043	1254.4091	1285.2872	1307.593	1370.523	1411.5649	1467.1516	1477.8369	1478.3256	1484.67	1495.3004	1516.2207	2363.8669	2376.7082	2943.4712	2960.6706	2969.9834	3013.511	3038.8152	3061.3764	3070.944	3104.6307	3122.8604
COCC#CCCC#N	COCC#CCCC#N	
InChI=1S/C7H9NO/c1-9-7-5-3-2-4-6-8/h2,4,7H2,1H3	InChI=1S/C7H9NO/c1-9-7-5-3-2-4-6-8/h2,4,7H2,1H3
