25
gdb 104985	2.34078	1.2665	1.09102	1.6066	87.8	-0.2574	0.0802	0.3376	1315.0917	0.226241	-389.48384	-389.473001	-389.472057	-389.51921	41.578	
C	 0.0843258898	 1.5725696435	 0.1607117821	-0.397247
C	-0.1153487167	 0.0929186894	 0.5049725873	-0.264037
C	-1.4603337232	-0.5061084939	 0.0875253832	 0.410907
C	-2.6576579138	 0.3531763432	 0.1134712864	-0.243945
O	-2.0098401983	 0.0409915528	-1.1248659763	-0.279487
C	-1.5838840711	-2.0468470019	 0.1896638652	 0.204891
C	-1.1763073023	-2.5256708561	 1.5969852536	-0.417929
C	-3.0251089708	-2.5152585268	-0.0910238517	-0.428766
C	-0.6626748974	-2.6876336243	-0.8716437366	-0.410994
H	 1.1230567356	 1.8628354292	 0.3430750614	 0.110154
H	-0.1480221352	 1.7603348963	-0.8901579022	 0.139484
H	-0.5454621197	 2.2272971919	 0.7706707187	 0.114227
H	 0.6837273597	-0.4856164752	 0.0285536069	 0.107009
H	 0.0088552708	-0.0538757517	 1.5838281425	 0.107052
H	-3.6470659705	-0.077048584	 0.2397907723	 0.110281
H	-2.5730511646	 1.3909424738	 0.4288734507	 0.106994
H	-1.7702208685	-2.0300458989	 2.3731247714	 0.11046
H	-1.3450748229	-3.6038374169	 1.6886204497	 0.111253
H	-0.1195341235	-2.3408904035	 1.808366589	 0.114757
H	-3.4003211434	-2.0898017683	-1.0255027492	 0.132801
H	-3.0480001208	-3.6057947045	-0.1811660645	 0.106586
H	-3.70859362	-2.2424315145	 0.7189443444	 0.10701
H	 0.393098505	-2.4617780859	-0.6975780575	 0.110669
H	-0.7691486454	-3.7771725184	-0.855569668	 0.107278
H	-0.9263575929	-2.3338720053	-1.8726526589	 0.130593
51.6017	69.4328	192.5562	218.1884	240.2195	264.3808	267.6224	306.5176	315.1853	334.173	350.9618	379.8082	392.7841	448.1656	518.4625	521.217	634.992	775.0929	798.1374	857.9575	886.1046	932.7383	939.1122	944.9927	960.7962	1011.5445	1037.2059	1045.4903	1081.0898	1121.7711	1142.5478	1153.6048	1173.3183	1233.4284	1244.1917	1284.3172	1308.2402	1364.6527	1385.8246	1396.8095	1397.3794	1414.5902	1429.4323	1478.0267	1485.2177	1491.59	1494.2472	1498.4875	1505.355	1508.9021	1512.3512	1524.4981	1541.7295	3029.1778	3034.4235	3037.9495	3042.7782	3045.9453	3070.9474	3093.3308	3098.719	3103.079	3105.8685	3110.4421	3110.7478	3117.0679	3121.6523	3130.7281	3188.5882
CCC1(CO1)C(C)(C)C	CC[C@]1(CO1)C(C)(C)C	
InChI=1S/C8H16O/c1-5-8(6-9-8)7(2,3)4/h5-6H2,1-4H3	InChI=1S/C8H16O/c1-5-8(6-9-8)7(2,3)4/h5-6H2,1-4H3/t8-/m0/s1
