17
gdb 43947	3.46515	1.50281	1.46084	2.4692	74.1	-0.2401	-0.0046	0.2355	954.21	0.13758	-417.867404	-417.860674	-417.85973	-417.898292	27.854	
N	 0.1381266201	 1.3331891992	-0.5252793809	-0.541645
C	 0.0566342717	 0.1539524708	-0.130502547	 0.352524
O	 1.0915192312	-0.7769702819	 0.2141689834	-0.335003
C	 0.0459127782	-1.5378535214	 0.9551117801	 0.355344
C	-0.8978385315	-2.7974945669	 0.9928672087	-0.26482
N	-2.0170666569	-1.7087785902	 1.0486201474	-0.169766
C	-1.7286523727	-1.1065880627	 2.3870464569	-0.158437
C	-0.1824411179	-0.9661887338	 2.371989537	-0.267208
C	-1.0017284987	-0.9456065873	 0.1152936118	-0.059847
H	 1.1090826402	 1.6404976421	-0.6056089353	 0.242026
H	-0.9646546927	-3.3647195123	 0.0669597815	 0.134233
H	-0.881896816	-3.4485135373	 1.8708313597	 0.117406
H	-2.2459640241	-0.1489798001	 2.4688360262	 0.125312
H	-2.1082341757	-1.7732572625	 3.1650309003	 0.113287
H	 0.3273525497	-1.5529071384	 3.1401197827	 0.108345
H	 0.1538003357	 0.0698590569	 2.4491296623	 0.120956
H	-1.1015988105	-1.4498554242	-0.8484259048	 0.127295
129.4491	212.5536	334.9778	395.4983	436.4471	507.2535	525.1007	556.6455	640.9682	712.743	757.032	791.0223	825.553	845.5717	872.7227	900.1513	932.1534	953.7504	961.077	966.0659	1010.7229	1063.7586	1093.1764	1124.917	1182.7918	1193.9477	1206.1995	1212.9079	1242.1999	1269.3479	1311.454	1327.4139	1387.6766	1494.7017	1496.3951	1517.0265	1818.7065	3066.082	3070.8506	3075.411	3080.6344	3110.9456	3129.5835	3169.3816	3477.8047
N=C1OC23CN(CC2)C13	[NH][C]1O[C@@]23CN(CC2)[C@@H]13	
InChI=1S/C6H8N2O/c7-5-4-6(9-5)1-2-8(4)3-6/h4,7H,1-3H2	InChI=1S/C6H8N2O/c7-5-4-6(9-5)1-2-8(4)3-6/h4,7H,1-3H2/t4-,6+/m0/s1
