17
gdb 67115	2.59473	2.07243	1.77127	2.9672	70.89	-0.2267	0.0709	0.2977	856.875	0.136668	-421.716279	-421.709529	-421.708585	-421.746936	28.087	
O	 0.0435445629	 1.3912204025	 0.0296433577	-0.4663
C	 0.1503110797	 0.020224911	 0.039874934	 0.370075
C	 0.6023485353	-0.9150636233	 1.1862782873	-0.183176
C	-0.5847186325	-0.8548255596	 2.2093598369	-0.216279
C	-1.8690522345	-0.842418817	 1.2762201012	-0.358944
C	-1.0845692127	-0.914054949	-0.0096473684	 0.430528
O	-1.1782207483	-0.9553328874	-1.4606666121	-0.395782
C	 0.2856326294	-0.9749562224	-1.15324301	-0.072683
C	 0.1202432831	-1.884956863	 0.0888851555	-0.094962
H	 0.9268098253	 1.7728680124	-0.0122736197	 0.289574
H	 1.6137655866	-0.9299653928	 1.5943670966	 0.063261
H	-0.5860016624	-1.7209453674	 2.8768657957	 0.105351
H	-0.534704506	 0.0457060073	 2.8270164568	 0.112727
H	-2.5248759407	-1.6987838362	 1.4494571657	 0.111627
H	-2.4480873507	 0.0781376757	 1.379939304	 0.123033
H	 0.9551707205	-1.0274392393	-2.0107738756	 0.092742
H	 0.0417096349	-2.9686896615	 0.1019243342	 0.089207
206.5229	221.6118	256.2039	319.6219	415.1161	462.1082	546.6895	666.2545	699.6763	718.1694	742.6555	791.1513	834.5704	849.2228	856.604	903.7355	926.0034	935.5226	951.7018	1020.5957	1032.7068	1044.1864	1082.4314	1099.3053	1135.9093	1184.0411	1204.9079	1221.8542	1229.6986	1245.4971	1265.7999	1287.1007	1322.4551	1325.5428	1434.539	1483.8042	1508.896	3059.4302	3070.4232	3102.7668	3105.0352	3122.3606	3128.3271	3161.8783	3807.8614
OC12C3CCC11OC2C31	O[C@@]12[C@H]3CC[C@]41O[C@@H]2[C@@H]34	
InChI=1S/C7H8O2/c8-7-3-1-2-6(7)4(3)5(7)9-6/h3-5,8H,1-2H2	InChI=1S/C7H8O2/c8-7-3-1-2-6(7)4(3)5(7)9-6/h3-5,8H,1-2H2/t3-,4+,5+,6-,7+/m0/s1
