13
gdb 16202	3.37116	2.48116	1.60873	2.0177	59.32	-0.2683	-0.0289	0.2394	759.7147	0.09668	-398.63778	-398.631548	-398.630604	-398.668162	23.52	
O	 0.0075457166	 0.0008969507	 0.0064949228	-0.336616
C	 0.0424703052	 1.1929876234	 0.0106978434	 0.402002
O	-1.1088241256	 1.9912821058	 0.0282787188	-0.211918
C	-0.6545043066	 3.2873523172	 0.0276452356	 0.096011
N	 0.6003976621	 3.4855727298	 0.0126769399	-0.297817
C	 1.1668703135	 2.1677140266	 0.0004221777	 0.18571
C	 2.4655613879	 1.8574254002	 0.7275100237	-0.292109
C	 2.4469008294	 1.8632494766	-0.7613905489	-0.292111
H	-1.429047993	 4.0429847073	 0.0403194581	 0.158179
H	 2.9162062117	 2.6962804925	 1.2436206655	 0.145362
H	 2.5014203839	 0.9029480815	 1.240327426	 0.148973
H	 2.4698003106	 0.9128156977	-1.2823951039	 0.148973
H	 2.8845528743	 2.7061586007	-1.2820570587	 0.145361
138.3911	220.1794	240.0074	322.1047	489.5853	571.3773	609.9271	737.6798	742.283	788.4757	848.1559	894.0602	904.9115	931.6368	975.5014	978.6533	1037.7032	1065.9177	1094.3763	1137.5101	1204.6917	1275.0238	1335.5484	1357.2986	1447.9372	1483.3116	1673.4776	1907.4669	3146.8914	3147.3246	3238.3344	3238.9633	3252.7155
O=C1OC=NC11CC1	O=C1OC=NC21CC2	
InChI=1S/C5H5NO2/c7-4-5(1-2-5)6-3-8-4/h3H,1-2H2	InChI=1S/C5H5NO2/c7-4-5(1-2-5)6-3-8-4/h3H,1-2H2
