18
gdb 56989	2.99737	1.20483	0.97062	4.8464	75.66	-0.2354	0.0237	0.2591	1220.1457	0.149237	-398.079173	-398.070755	-398.069811	-398.112518	31.956	
N	 0.0826481288	 1.4090921605	 0.1494927824	-0.510586
C	-0.0926009938	-0.0408235289	 0.0301372141	-0.119197
C	-1.5215020671	-0.382923261	 0.0365077787	 0.290612
N	-2.6393069941	-0.6720448122	-0.0074240985	-0.321603
C	 0.5804578837	-0.6572091585	-1.2138069794	 0.008142
N	 2.0538386441	-0.3607488456	-1.2770638841	-0.353058
C	 2.3103167801	-1.8040420972	-1.5226181112	-0.000216
C	 1.9309228041	-2.566105684	-0.2986493285	-0.270502
C	 0.8518493066	-2.1645319076	-1.2842066346	-0.099171
H	 1.0828700799	 1.5904540821	 0.1029061129	 0.245884
H	-0.3416922969	 1.8757760038	-0.6482366746	 0.233424
H	 0.3582030379	-0.4942112891	 0.9202789122	 0.132215
H	 0.0547750317	-0.3112911599	-2.1112339157	 0.087366
H	 2.2630294954	 0.1877932083	-2.1044744097	 0.226131
H	 3.0204192603	-2.1407681146	-2.267422034	 0.102492
H	 2.1609040859	-3.6264955034	-0.3125383332	 0.121402
H	 2.0239380625	-2.0929910485	 0.674853056	 0.118525
H	 0.208717121	-2.8896058445	-1.7636741526	 0.108141
63.5479	126.8211	154.943	223.4149	264.0046	329.6086	392.9035	443.3239	473.5197	526.8158	598.8538	724.8344	759.0788	811.1048	832.9144	881.4331	906.4687	944.874	962.6589	992.2647	1002.5617	1041.8433	1047.561	1073.2251	1087.5946	1122.401	1135.4486	1178.7359	1197.2817	1227.911	1275.1281	1290.325	1345.8368	1382.4136	1396.727	1406.3556	1483.8962	1654.7502	2361.3049	3035.9546	3057.3613	3119.8122	3189.4549	3203.2241	3214.3675	3474.6568	3527.3385	3560.6091
NC(C#N)C1NC2CC12	N[C@@H](C#N)[C@H]1N[C@H]2C[C@@H]12	
InChI=1S/C6H9N3/c7-2-4(8)6-3-1-5(3)9-6/h3-6,9H,1,8H2	InChI=1S/C6H9N3/c7-2-4(8)6-3-1-5(3)9-6/h3-6,9H,1,8H2/t3-,4+,5+,6+/m1/s1
