15
gdb 123372	3.6692	1.04788	0.94353	3.8786	72.1	-0.2099	0.0038	0.2137	1232.716	0.113492	-412.937505	-412.929297	-412.928353	-412.971404	29.959	
C	 0.3056688337	 0.0011683557	-1.295119016	-0.457226
C	 0.1171155064	 0.6129823811	-0.2778655852	 0.314819
C	-0.0782438344	 1.3624263701	 0.9702119901	-0.332043
N	 1.0249125828	 2.2287564354	 1.3620778799	-0.364665
C	 1.3660188846	 3.2894899369	 0.5353057427	 0.378021
C	 0.6321891806	 3.9670949239	-0.4161573549	-0.166778
N	 1.4883485241	 4.94436745	-0.825417624	-0.150702
N	 2.6613840635	 4.8802803178	-0.192866328	-0.113909
N	 2.594146306	 3.8733604831	 0.6372206242	-0.272551
H	 0.4714590844	-0.5408407174	-2.1933231548	 0.20338
H	-0.9859450417	 1.9744124521	 0.8936212387	 0.142939
H	-0.2587324843	 0.6625600161	 1.792999499	 0.145248
H	 1.8478459482	 1.7300952841	 1.6738452539	 0.251505
H	-0.3520134775	 3.8406751574	-0.8296495065	 0.140998
H	 1.3407734936	 5.6583294636	-1.5201647392	 0.280963
43.9682	61.2512	174.788	211.811	325.4731	346.9428	414.2322	541.1463	581.2983	607.1635	627.3911	665.3655	675.7649	704.0254	729.5763	754.7009	921.8319	979.5658	1000.1389	1040.5763	1077.5938	1118.4051	1143.9018	1249.9018	1282.0081	1316.6245	1363.5266	1377.4313	1460.8335	1469.8817	1536.5115	1631.4049	2232.0749	3028.9423	3072.0158	3298.6663	3504.2234	3583.7562	3662.3316
C#CCNC1=CNN=N1	C#CCNc1c[nH]nn1	
InChI=1S/C5H6N4/c1-2-3-6-5-4-7-9-8-5/h1,4H,3H2,(H2,6,7,8,9)	InChI=1S/C5H6N4/c1-2-3-6-5-4-7-9-8-5/h1,4H,3H2,(H2,6,7,8,9)
