21
gdb 56206	4.75052	0.6905	0.62593	3.5718	80.83	-0.2414	0.0593	0.3007	1791.1551	0.183649	-420.439751	-420.430047	-420.429103	-420.475937	35.565	
N	-0.0582089368	 1.3575296726	-0.1054561648	-0.565775
C	-0.06593797	 0.0261994962	 0.3091015151	 0.450094
O	 0.6678570823	-0.387688736	 1.1875572282	-0.389721
N	-0.9561347467	-0.7621614576	-0.3835533147	-0.341283
C	-0.9894614	-2.2051605507	-0.2051190703	-0.183307
C	-2.4053443105	-2.7355263829	-0.0383594304	 0.059999
C	-3.3768449794	-2.7195338149	-1.256613017	-0.231479
C	-3.8947958779	-4.1137018388	-0.8109349576	-0.206128
C	-2.6083744547	-4.2742667928	 0.0433028847	-0.233532
H	 0.4216903485	 1.9515472822	 0.5542831391	 0.258664
H	-0.9324055411	 1.7443165978	-0.4303698994	 0.243414
H	-1.3365708607	-0.394448196	-1.2409382868	 0.238236
H	-0.505881516	-2.7108587171	-1.0552576453	 0.091828
H	-0.3856195877	-2.4139419285	 0.681579243	 0.14777
H	-2.8742415686	-2.2419290608	 0.819742731	 0.076091
H	-4.1003983257	-1.903298282	-1.3278142752	 0.092827
H	-2.827561159	-2.7824738717	-2.2033826936	 0.09246
H	-4.7880403109	-4.0311543023	-0.1852676575	 0.10371
H	-4.0854490646	-4.856821926	-1.5885566996	 0.096755
H	-1.8245557458	-4.8067390811	-0.5063989283	 0.099476
H	-2.6998197848	-4.7229241296	 1.0351344893	 0.099901
28.0598	60.0185	80.3029	136.7275	230.4762	258.1603	333.767	367.3176	404.5294	444.7307	538.7628	574.1128	626.2283	666.0834	768.623	777.7877	788.4658	875.8769	900.3498	933.3029	942.3163	976.1475	983.3675	1073.486	1086.3934	1124.046	1149.4215	1171.0524	1203.071	1232.9219	1257.4011	1260.085	1272.9115	1278.1783	1301.6681	1321.2679	1357.8794	1410.7841	1477.6729	1486.2094	1494.4367	1511.9591	1542.7145	1627.2206	1802.8878	2983.5353	3034.5929	3045.4256	3052.281	3059.1027	3093.0378	3101.249	3109.3968	3117.3519	3567.7729	3628.9836	3680.6832
NC(=O)NCC1CCC1	NC(=O)NCC1CCC1	
InChI=1S/C6H12N2O/c7-6(9)8-4-5-2-1-3-5/h5H,1-4H2,(H3,7,8,9)	InChI=1S/C6H12N2O/c7-6(9)8-4-5-2-1-3-5/h5H,1-4H2,(H3,7,8,9)
