16
gdb 33773	3.86013	1.43063	1.2428	2.1546	74.46	-0.2478	0.005	0.2528	1000.8002	0.125345	-400.705326	-400.698267	-400.697323	-400.736497	28.632	
C	-0.0158579863	-1.192435663	-0.0321441484	-0.341448
C	-0.0355009631	 0.009064286	-0.0312497624	 0.155769
C	-0.0167496797	 1.4554718181	 0.0170223335	 0.150572
C	-0.2399843574	 2.1900089783	 1.3865254571	-0.26773
C	 0.628468101	 3.3125485023	 0.7731752911	 0.090339
C	 1.3550383199	 2.2169248755	-0.0405795705	-0.267727
O	-0.1814261212	 4.1077923166	-0.1170344985	-0.236095
C	-0.9149650511	 3.3330344885	-0.9514674806	 0.108991
N	-0.9191578394	 2.0652315545	-0.9800450032	-0.291675
H	-0.0103303311	-2.2541868891	-0.045771608	 0.184112
H	-1.2700706414	 2.422483308	 1.6607658054	 0.119969
H	 0.2791413215	 1.6873984871	 2.2034737774	 0.120961
H	 1.1775074192	 4.0123158899	 1.4000235748	 0.097432
H	 2.1188279773	 1.7184396951	 0.5574569358	 0.120961
H	 1.7371297457	 2.4732365297	-1.0298427183	 0.11997
H	-1.5258059542	 3.9303159325	-1.6229044351	 0.135598
145.6143	151.5643	314.3123	402.2953	415.6235	446.0482	506.4856	543.0867	602.8983	621.6156	629.1302	653.2544	762.907	852.2933	853.612	900.6676	917.9972	938.7951	951.049	984.3003	1022.4889	1069.7524	1089.2358	1169.2628	1186.4882	1192.1055	1239.9049	1246.287	1288.7956	1349.974	1387.9981	1464.5094	1494.0371	1695.264	2244.2414	3079.1378	3084.3432	3137.1076	3148.5424	3151.7506	3182.1294	3503.1547
C#CC12CC(C1)OC=N2	C#C[C@@]12C[C@@H](C1)O[CH][N]2	
InChI=1S/C7H7NO/c1-2-7-3-6(4-7)9-5-8-7/h1,5-6H,3-4H2	InChI=1S/C7H7NO/c1-2-7-3-6(4-7)9-5-8-7/h1,5-6H,3-4H2/t6-,7+
