14
gdb 131226	5.40122	1.25279	1.01693	3.5276	69.39	-0.1813	0.0384	0.2197	1069.5309	0.103553	-432.885702	-432.878053	-432.877108	-432.917938	28.327	
O	 0.0879607301	 1.3221555647	 0.2312845881	-0.435307
C	 0.074592566	-0.0134262985	-0.0023418118	 0.415909
C	 0.0841414791	-0.7667229329	-1.1454314839	-0.51643
C	 0.0638983415	-2.1430023544	-0.7050516444	 0.25835
C	 0.0444890779	-2.1137332167	 0.6837699774	 0.447842
N	 0.0179593417	-3.382466024	 1.1488183224	-0.360134
N	 0.0252200845	-4.2706063282	 0.1070681205	-0.234197
C	 0.0501364472	-3.5291057356	-0.9992096323	-0.157389
N	 0.0442957705	-0.818270764	 1.1340121354	-0.46403
H	 0.1119433955	 1.7772729268	-0.6159984088	 0.310322
H	 0.100498342	-0.3829071013	-2.1531776191	 0.095502
H	 0.0121036686	-3.7341250344	 2.0885929908	 0.267
H	 0.057327773	-4.0262294925	-1.9580339854	 0.103746
H	 0.0639075625	-0.4684566891	 2.074891771	 0.268816
72.36	152.0543	235.1053	261.0669	326.4029	342.5753	364.95	523.8148	563.9637	634.5758	661.8844	707.0443	742.5798	770.9432	834.6955	865.0337	968.0826	1006.4684	1065.7833	1150.8095	1182.9336	1192.0184	1257.4087	1269.8984	1366.0684	1416.7087	1453.0542	1507.867	1551.5485	1626.1754	1643.0707	3243.7653	3251.0086	3695.4598	3700.1699	3847.3601
OC1=CC2=C(NN=C2)N1	Oc1cc2c([nH]nc2)[nH]1	
InChI=1S/C5H5N3O/c9-4-1-3-2-6-8-5(3)7-4/h1-2,9H,(H2,6,7,8)	InChI=1S/C5H5N3O/c9-4-1-3-2-6-8-5(3)7-4/h1-2,9H,(H2,6,7,8)
