16
gdb 18800	3.24369	3.0494	2.36028	1.6121	67.33	-0.2334	0.0035	0.2369	668.1943	0.133576	-346.560562	-346.555256	-346.554312	-346.589503	23.092	
C	-0.0355515655	 1.5591047067	 0.0842607592	-0.233732
C	 1.5267181865	 1.4700028555	-0.009130087	-0.140096
C	 2.0191049773	 1.2460859606	 1.3933288384	-0.044477
C	 1.5479174141	 0.1417853243	 1.9812002142	-0.077429
C	 0.8117107283	-0.7597006267	 1.0292173346	 0.040477
O	 1.7930034208	-1.0848392578	-0.0295485071	-0.289585
C	 1.3082697197	 0.0402885186	-0.7406837429	 0.131595
C	-0.0594984342	 0.0332659106	-0.0375663351	-0.075654
H	-0.4507595904	 2.0401741952	 0.973118632	 0.098803
H	-0.4685927931	 2.0068778076	-0.8162236408	 0.101055
H	 2.0537742048	 2.2512025475	-0.556402941	 0.065901
H	 2.6716279009	 1.9631837221	 1.8799847358	 0.09692
H	 1.7616448701	-0.158393154	 3.0000755942	 0.095771
H	 0.382292817	-1.6623654191	 1.4647539225	 0.076445
H	 1.5067063328	 0.0071005989	-1.8133669811	 0.080453
H	-0.9343726291	-0.5053018303	-0.4028311657	 0.073551
346.9781	363.1991	426.0693	541.1773	606.6737	696.0359	703.0613	737.2891	756.3358	787.1563	827.8927	868.2172	919.3897	951.4943	959.073	963.8347	1002.1997	1036.0442	1047.7311	1075.4226	1083.7236	1119.2981	1155.2363	1193.2138	1215.2767	1235.5463	1251.4841	1296.18	1305.4126	1324.0302	1342.1067	1386.0619	1482.9632	1665.5433	3047.433	3095.0819	3102.9127	3106.18	3110.982	3115.9317	3177.4067	3205.66
C1C2C=CC3OC2C13	C1[C@H]2C=C[C@@H]3O[C@H]2[C@H]13	
InChI=1S/C7H8O/c1-2-6-5-3-4(1)7(5)8-6/h1-2,4-7H,3H2	InChI=1S/C7H8O/c1-2-6-5-3-4(1)7(5)8-6/h1-2,4-7H,3H2/t4-,5-,6+,7-/m1/s1
