20
gdb 41598	2.79945	1.76153	1.63805	0.6036	76.85	-0.2076	0.07	0.2777	941.3593	0.174627	-403.105917	-403.098998	-403.098054	-403.137121	28.345	
C	 0.4396927943	 1.6917085479	-0.1624444399	-0.097193
O	 1.6937778674	 1.3833536362	 0.4968683646	-0.291627
C	 1.2960441313	 0.0104108267	 0.7068128838	 0.083463
C	 0.0044916268	 0.2154080354	-0.122215208	-0.043537
N	 0.5197815286	-0.7207974706	-1.154053151	-0.097395
C	 0.8592812388	-0.2484133581	-2.4987912841	-0.178573
C	 2.3184730287	 0.2714645932	-2.4385654779	-0.216403
C	 2.966717895	-0.5399262155	-1.291659669	-0.227412
C	 1.7896478887	-0.9562276967	-0.3917385233	 0.008332
H	-0.1839869058	 2.3422557927	 0.4653580384	 0.101716
H	 0.578131341	 2.1658716157	-1.1394713513	 0.10478
H	 1.3561386236	-0.2871889654	 1.7562162815	 0.07497
H	-1.0146421521	 0.0018990875	 0.2052345511	 0.080994
H	 0.7856221519	-1.0902193836	-3.1994522063	 0.100599
H	 0.1455008457	 0.509931179	-2.8362143426	 0.101468
H	 2.8426074815	 0.1413421002	-3.3895946506	 0.093056
H	 2.3405175304	 1.3363628885	-2.1949463261	 0.115354
H	 3.4661705379	-1.4325537649	-1.6808884033	 0.098373
H	 3.7079899402	 0.0474309468	-0.7454049723	 0.117485
H	 1.8826441662	-1.9912853653	-0.0424132038	 0.071551
114.3107	205.4889	237.6744	271.7434	452.8286	483.875	597.6781	632.8809	687.1617	763.2568	789.9451	835.1017	869.6	876.361	899.2062	921.0724	961.4145	977.1788	987.7406	1009.8385	1054.3532	1056.9627	1084.661	1112.4709	1155.9704	1167.9963	1193.0611	1206.8245	1212.0544	1230.895	1263.2423	1288.0837	1300.0341	1312.4697	1326.1638	1329.9048	1346.5736	1361.0053	1367.5873	1477.6214	1497.1589	1505.63	1522.398	3010.5484	3014.9766	3023.7859	3055.6472	3062.4169	3071.2986	3076.4039	3079.0252	3091.0286	3101.9372	3117.997
C1OC2C1N1CCCC21	C1O[C@H]2[C@@H]1N1CCC[C@@H]21	
InChI=1S/C7H11NO/c1-2-5-7-6(4-9-7)8(5)3-1/h5-7H,1-4H2	InChI=1S/C7H11NO/c1-2-5-7-6(4-9-7)8(5)3-1/h5-7H,1-4H2/t5-,6+,7+/m0/s1
