16
gdb 73903	2.76021	1.29828	0.89268	3.3322	82.85	-0.2108	-0.032	0.1788	1245.1382	0.122718	-400.775962	-400.767136	-400.766192	-400.809376	32.737	
C	-0.0016293654	 1.5150642204	 0.1078447015	-0.512266
C	 0.0130587573	 0.0278987946	 0.0286104196	 0.152752
C	-0.0020216666	-0.735720316	-1.0850437119	 0.166994
N	 0.0203295213	-2.111079788	-0.7510303597	-0.401871
C	 0.0512324995	-2.30873129	 0.6142056503	 0.406444
O	 0.074969394	-3.3745896033	 1.1829139436	-0.371449
C	 0.0485170071	-0.8944562619	 1.2199323662	-0.429224
C	-0.0351536898	-0.3353514169	-2.4396860131	 0.265763
C	-0.0631375877	-0.0214514852	-3.6023868523	-0.439922
H	 0.8857018552	 1.8966609702	 0.6294292773	 0.130603
H	-0.0287574076	 1.9615270708	-0.88921064	 0.139076
H	-0.8730627112	 1.8771678477	 0.6686311998	 0.13058
H	 0.0141449693	-2.86286505	-1.4201910146	 0.26435
H	 0.9386554264	-0.7598957575	 1.8466115426	 0.148057
H	-0.8169882812	-0.7792417432	 1.8838619445	 0.148049
H	-0.0874868105	 0.2659453084	-4.624640904	 0.202063
98.7153	135.6875	151.4793	170.4451	252.0407	275.1187	386.2315	435.5279	438.1027	537.9104	563.4318	564.976	571.3281	606.1174	680.7528	682.2207	797.3165	874.005	919.9061	961.7547	1056.7362	1102.8094	1152.2134	1193.3963	1215.4576	1279.9783	1317.1272	1411.1633	1422.8791	1431.563	1478.2081	1485.5671	1685.9301	1840.7783	2227.5916	3013.972	3038.3515	3056.4321	3069.2974	3118.696	3499.661	3665.9443
CC1=C(NC(=O)C1)C#C	CC1=C(NC(=O)C1)C#C	
InChI=1S/C7H7NO/c1-3-6-5(2)4-7(9)8-6/h1H,4H2,2H3,(H,8,9)	InChI=1S/C7H7NO/c1-3-6-5(2)4-7(9)8-6/h1H,4H2,2H3,(H,8,9)
