20
gdb 95710	2.79872	1.26689	0.97529	2.4516	76.26	-0.2204	-0.0212	0.1992	1246.1604	0.171514	-440.292691	-440.283857	-440.282913	-440.326435	33.479	
C	 0.5602391318	 1.6526511116	-0.0060765774	-0.406578
C	-0.0446482176	 0.2496339135	 0.069120107	 0.04205
C	 0.0686481453	-0.461286896	-1.2905736698	-0.075591
O	-0.5749783493	-1.7255043919	-1.2991437423	-0.240336
C	 0.2294683843	-2.8126323306	-0.915303487	-0.182057
C	 0.6012129756	-2.8850902295	 0.5727703145	 0.328534
O	 1.3484206057	-3.7529473443	 0.961969066	-0.299249
C	 0.0401901281	-1.805113327	 1.4968378897	-0.244265
N	 0.5489442403	-0.4676461015	 1.195431375	-0.295973
H	 1.6319499595	 1.6068385356	-0.2363672615	 0.113838
H	 0.0792405611	 2.2485686738	-0.7872741326	 0.120766
H	 0.4428052127	 2.1677459491	 0.9499914621	 0.132796
H	-1.1179431229	 0.3352573907	 0.2893737891	 0.091446
H	-0.4258540078	 0.1404336807	-2.0622311774	 0.107094
H	 1.128782964	-0.5665572399	-1.5756663519	 0.083272
H	-0.3371528382	-3.7220471931	-1.1463687583	 0.140133
H	 1.1622302338	-2.8592449539	-1.4990830416	 0.120326
H	-1.0529152998	-1.7802888876	 1.4217687888	 0.124076
H	 0.3154366504	-2.0807249541	 2.5195032407	 0.120612
H	 1.5625414932	-0.4725672856	 1.134552357	 0.219108
52.4621	117.9994	205.0979	217.5981	266.4407	299.9414	353.2161	387.9684	439.7777	477.4707	486.8978	550.0516	621.8572	689.8506	769.4703	836.873	906.9609	926.3375	940.6328	979.0972	1039.3746	1076.6925	1118.9011	1138.2945	1167.5358	1180.683	1218.4127	1269.1049	1288.8778	1314.6575	1331.9158	1337.1443	1366.3245	1389.4319	1401.4027	1413.9853	1450.7255	1458.1966	1483.762	1486.1053	1497.9629	1511.1051	1806.1403	2967.9623	2991.0212	3013.4617	3031.969	3040.0731	3058.0405	3070.3265	3097.1151	3099.2452	3128.8712	3514.9143
CC1COCC(=O)CN1	C[C@H]1COCC(=O)CN1	
InChI=1S/C6H11NO2/c1-5-3-9-4-6(8)2-7-5/h5,7H,2-4H2,1H3	InChI=1S/C6H11NO2/c1-5-3-9-4-6(8)2-7-5/h5,7H,2-4H2,1H3/t5-/m0/s1
