21
gdb 83778	2.64134	1.78413	1.59665	1.6694	79.91	-0.2496	0.0618	0.3115	962.0804	0.186181	-387.070982	-387.063769	-387.062825	-387.10209	30.457	
O	 0.1075128182	 1.4831588284	-0.1081568055	-0.446906
C	-0.0443117906	 0.08902776	 0.0081615566	 0.171749
C	 0.2196846342	-0.6626751645	 1.3497032504	-0.086807
C	-0.3687971579	 0.1230452583	 2.529832649	-0.223417
C	-1.8249587441	 0.5470397547	 2.1985869931	-0.232661
C	-2.3935368773	-0.421273971	 1.1539354799	-0.020983
C	-2.1006444349	-1.8796233653	 1.6131258626	-0.237133
C	-0.7805023921	-1.7719607979	 0.8337504328	-0.017656
C	-1.396996339	-0.6395324803	-0.0575035711	-0.090544
H	-0.4914732414	 1.9124284147	 0.5081206503	 0.280682
H	 0.5988220364	-0.3295575503	-0.7734693494	 0.08589
H	 1.2461569205	-0.9786541729	 1.5489109642	 0.060503
H	-0.3509630541	-0.5012726367	 3.4288967606	 0.104215
H	 0.255817314	 0.99565898	 2.7483426829	 0.100581
H	-2.4470626449	 0.5301197309	 3.1007287227	 0.099043
H	-1.8735040138	 1.5799464324	 1.8303344249	 0.084722
H	-3.4239306264	-0.1770132007	 0.8873160223	 0.062211
H	-2.0780400411	-2.0809040575	 2.6897584275	 0.087769
H	-2.7691720032	-2.6018769808	 1.1355170723	 0.097313
H	-0.3042949622	-2.660781014	 0.418249163	 0.061906
H	-1.8778861604	-0.8243212774	-1.019679829	 0.059521
168.0954	217.018	241.4401	288.3509	381.0866	434.3696	505.567	568.2359	595.9977	686.5166	750.2184	787.321	805.4527	824.7722	844.3234	858.2334	930.9793	947.9993	974.3435	1005.2744	1042.0271	1046.0691	1059.1043	1071.613	1097.8783	1112.5105	1128.2504	1137.7428	1179.538	1215.0761	1232.8641	1239.3316	1258.9669	1271.1886	1290.1498	1309.1786	1314.5215	1324.7987	1331.1979	1363.8766	1377.8996	1444.6996	1485.653	1496.9045	1514.7123	3011.8158	3034.6895	3042.2784	3052.5787	3053.5834	3076.2303	3078.6603	3080.33	3089.9995	3091.6846	3104.0517	3846.7017
OC1C2CCC3CC2C13	O[C@H]1[C@H]2CC[C@@H]3C[C@H]2[C@H]13	
InChI=1S/C8H12O/c9-8-5-2-1-4-3-6(5)7(4)8/h4-9H,1-3H2	InChI=1S/C8H12O/c9-8-5-2-1-4-3-6(5)7(4)8/h4-9H,1-3H2/t4-,5+,6-,7-,8+/m1/s1
