24
gdb 60163	4.05102	0.77332	0.7379	1.5041	88.16	-0.206	0.0819	0.2879	1704.474	0.214994	-405.5205	-405.509913	-405.508969	-405.556678	38.7	
C	 0.3472839288	 1.3714977276	-0.3130002603	-0.389384
C	-0.03352171	-0.0793314055	-0.0032778316	 0.150042
C	 0.5277436225	-0.5477663634	 1.3347285249	-0.388054
O	-1.4509154908	-0.2371144586	 0.0762414358	-0.273173
C	-2.1133037868	-0.3557496439	-1.1555884799	 0.130366
C	-2.0787991036	-1.7708484436	-1.8034434225	-0.196651
N	-3.3982976965	-2.0464912	-1.2074271405	-0.055147
C	-4.37595184	-2.7682656335	-1.984594266	-0.318648
C	-3.6195090801	-0.6130143066	-0.9398916651	-0.188411
H	 1.4352780489	 1.47809354	-0.3725988541	 0.112575
H	-0.0710439084	 1.7068552058	-1.2665811987	 0.115549
H	-0.0237098007	 2.0344230352	 0.4751430222	 0.122299
H	 0.3574501179	-0.7311078814	-0.8010456227	 0.067576
H	 0.1226218733	 0.0638779371	 2.147301189	 0.123185
H	 0.2512013006	-1.5885077576	 1.5218885386	 0.122611
H	 1.6186752236	-0.4645644449	 1.3498733657	 0.109633
H	-1.8618926536	 0.4718224454	-1.8287197827	 0.067101
H	-2.0918025245	-1.7198549034	-2.905524827	 0.076676
H	-1.2790397475	-2.4500664721	-1.4868027765	 0.100962
H	-4.0296821539	-3.7923842443	-2.1614738184	 0.118937
H	-5.3211249214	-2.8263527081	-1.4338036703	 0.119765
H	-4.5836913945	-2.3036883936	-2.9695230022	 0.083246
H	-4.0037705133	-0.3808558094	 0.0585493796	 0.110348
H	-4.24119486	-0.110138401	-1.6990317772	 0.078598
45.671	61.8103	104.9581	177.4657	207.8243	228.8405	240.0437	266.0944	313.6289	339.4223	395.0538	416.4307	458.6432	503.9843	691.1187	807.397	854.5931	874.5863	922.628	926.9315	942.5263	974.2819	1000.5323	1021.564	1054.3269	1117.4015	1136.7644	1145.3344	1158.1422	1179.5129	1197.8023	1208.8753	1223.129	1251.0933	1273.7327	1302.3519	1340.4278	1363.4493	1368.6102	1396.8642	1413.9451	1418.5558	1450.3594	1479.7675	1483.7295	1485.1969	1487.8895	1495.5119	1498.6253	1509.7783	1516.5864	2905.5634	2955.1402	2967.3635	2972.9468	3031.4472	3038.2538	3042.2651	3050.8861	3052.2542	3070.3963	3094.2836	3106.9269	3111.5	3115.9846	3122.618
CC(C)OC1CN(C)C1	CC(C)OC1CN(C)C1	
InChI=1S/C7H15NO/c1-6(2)9-7-4-8(3)5-7/h6-7H,4-5H2,1-3H3	InChI=1S/C7H15NO/c1-6(2)9-7-4-8(3)5-7/h6-7H,4-5H2,1-3H3
