15
gdb 125533	5.3698	1.34806	1.08479	3.7231	73.65	-0.2183	0.0174	0.2358	1062.1642	0.115835	-413.032112	-413.024962	-413.024018	-413.063681	27.194	
C	-0.0163549217	 1.4219645887	-0.0117259441	-0.483232
C	 0.0046543253	-0.0692760461	 0.0150573614	 0.345058
N	-0.0501684225	-0.7838263793	-1.1148275955	-0.34015
N	-0.0057182991	-2.0552910818	-0.6241473772	 0.05583
C	-0.0145780929	-3.3643022388	-1.0746784441	-0.119401
C	 0.0587893324	-4.1396249847	 0.0430297026	-0.086299
N	 0.1117250513	-3.3092969924	 1.1636131609	-0.423969
C	 0.0706072823	-2.016808696	 0.7304452091	 0.495471
N	 0.0805043817	-0.778155085	 1.1893682706	-0.439191
H	 0.8872166945	 1.8300092041	 0.4522142263	 0.136344
H	-0.0791665566	 1.7767847965	-1.041633611	 0.138029
H	-0.8722807963	 1.8070232051	 0.5515798245	 0.136345
H	-0.0701544654	-3.6290595979	-2.1151195132	 0.154732
H	 0.0780234438	-5.2111563647	 0.1380985104	 0.148251
H	 0.1699435531	-3.6034334477	 2.1214894795	 0.282181
100.0601	147.8956	287.526	287.5577	343.2799	381.061	529.9064	593.7973	602.1379	671.6485	697.6511	766.5053	777.0049	792.3161	840.9829	960.4564	997.3922	1028.7704	1065.7589	1073.8984	1103.2831	1215.8242	1275.7116	1339.2494	1359.127	1400.5744	1421.3621	1462.7618	1476.7073	1481.3071	1524.6463	1588.1532	1653.2762	3045.5147	3100.7256	3145.2824	3290.3897	3311.4081	3704.717
CC1=NN2C=CNC2=N1	Cc1nn2cc[nH]c2n1	
InChI=1S/C5H6N4/c1-4-7-5-6-2-3-9(5)8-4/h2-3H,1H3,(H,6,7,8)	InChI=1S/C5H6N4/c1-4-7-5-6-2-3-9(5)8-4/h2-3H,1H3,(H,6,7,8)
