18
gdb 50847	5.92522	0.69962	0.65841	4.8145	74.43	-0.2477	-0.016	0.2316	1674.9513	0.145145	-439.079611	-439.07019	-439.069246	-439.115643	33.074	
N	 0.0839016824	 1.4006474165	-0.2287208538	-0.521813
C	 0.0979656384	 0.1756016164	 0.091304782	 0.409169
C	-1.1771574499	-0.6121978868	 0.2421460271	-0.371602
C	-2.3938595408	 0.1268080054	-0.287743103	 0.184605
O	-3.4502035925	 0.1618712386	 0.2864543024	-0.24613
O	 1.1729565786	-0.6204058032	 0.3611440804	-0.24429
C	 2.4416872726	-0.0116447122	 0.36857223	 0.112312
C	 3.5895821523	-0.9146214706	 0.0610132684	-0.290733
C	 3.1807415645	 0.1518813769	-0.9331332436	-0.284305
H	 1.0195347615	 1.7973544313	-0.3014761062	 0.22854
H	-1.0743343652	-1.5568652028	-0.3101268553	 0.143059
H	-1.3441625473	-0.8780672649	 1.2905002612	 0.150108
H	-2.245555915	 0.6153487845	-1.271532573	 0.097178
H	 2.5531756722	 0.7453407329	 1.1407636395	 0.113496
H	 4.5063537278	-0.7847318787	 0.6239513942	 0.126436
H	 3.3445859095	-1.9416382875	-0.1832976077	 0.134698
H	 2.6701562037	-0.1769367002	-1.8308399488	 0.133505
H	 3.8140505871	 1.0226196845	-1.0616991237	 0.125768
34.4282	59.1697	91.3276	100.4489	157.3187	265.7897	320.7238	399.991	437.4911	467.6357	567.1757	654.7776	755.866	784.4363	825.3648	828.7221	890.4033	916.8727	982.315	995.3841	1049.4353	1059.9983	1067.0867	1077.6891	1095.3368	1133.4443	1185.286	1195.098	1202.8676	1235.9173	1256.6911	1355.8795	1404.4703	1428.8521	1440.1168	1456.7322	1496.7002	1735.9492	1838.1151	2936.6541	3028.8872	3094.4515	3137.7525	3141.6932	3148.051	3226.2715	3240.4797	3505.586
N=C(CC=O)OC1CC1	[NH][C](CC=O)OC1CC1	
InChI=1S/C6H9NO2/c7-6(3-4-8)9-5-1-2-5/h4-5,7H,1-3H2	InChI=1S/C6H9NO2/c7-6(3-4-8)9-5-1-2-5/h4-5,7H,1-3H2
