12
gdb 5498	3.62842	1.93687	1.26439	3.8148	62.96	-0.2209	-0.0278	0.1931	867.151	0.085618	-377.558451	-377.551621	-377.550676	-377.589452	25.257	
N	 0.0636174755	 1.3887424901	 0.1591807367	-0.615659
C	 0.0131460013	 0.0068345116	 0.0411136998	 0.127966
C	-1.0629645659	-0.8288816807	 0.0148414021	-0.069864
O	-0.647436636	-2.1398835264	-0.0271285416	-0.132479
C	 0.6882065402	-2.1432309965	-0.0310361826	-0.089065
C	 1.1711382314	-0.8624824542	 0.0087558692	 0.106477
C	 2.5201685304	-0.4420753632	 0.0049661622	 0.197212
N	 3.6100462771	-0.0482413309	-0.0063045237	-0.35083
H	 0.9129741916	 1.7995796861	-0.2037937991	 0.265253
H	-0.7518409156	 1.872315233	-0.1882813653	 0.255095
H	-2.1270419081	-0.6721309702	 0.028709051	 0.140344
H	 1.1784329981	-3.1017286686	-0.0676664887	 0.16555
131.2029	167.2585	236.6264	314.8199	363.8282	531.0641	536.9501	598.1794	603.5187	632.9851	654.67	721.5265	739.5523	796.9222	890.5653	1072.0932	1102.9776	1211.2634	1225.3928	1260.5061	1344.5215	1421.5	1571.6422	1644.9205	1671.4152	2342.7152	3283.9047	3296.1375	3558.3227	3654.9471
NC1=COC=C1C#N	Nc1cocc1C#N	
InChI=1S/C5H4N2O/c6-1-4-2-8-3-5(4)7/h2-3H,7H2	InChI=1S/C5H4N2O/c6-1-4-2-8-3-5(4)7/h2-3H,7H2
