15
gdb 14936	4.69044	1.55732	1.21873	4.0317	64.61	-0.2554	-0.0612	0.1942	953.5675	0.119974	-399.821695	-399.81461	-399.813666	-399.853332	25.64	
O	-0.9210746651	 1.31057638	-0.0046664195	-0.24605
C	 0.1949628702	 0.9306510466	-0.2391917376	 0.12694
C	 1.4324091515	 1.7725552738	-0.0955427482	 0.29694
N	 2.5425394731	 1.2277688603	-0.3961141961	-0.295413
C	 3.7537911515	 2.0372078851	-0.3287990008	-0.157757
C	 3.4687725964	 3.5426936868	-0.3351031225	-0.238502
C	 2.3330118769	 3.826471306	 0.6393172995	-0.073211
O	 1.1803907629	 3.0230129781	 0.3365184393	-0.242251
H	 0.4364157311	-0.0901180868	-0.5952959106	 0.104324
H	 4.3048388348	 1.7497347201	 0.5773362764	 0.12253
H	 4.3932907567	 1.7541291507	-1.1717142177	 0.122026
H	 4.3562909738	 4.1185564079	-0.0551739887	 0.111609
H	 3.1706530721	 3.8621081509	-1.3398411468	 0.122616
H	 2.639736046	 3.6091796523	 1.670720677	 0.118332
H	 1.9885032082	 4.8614948282	 0.5936911463	 0.127866
94.521	138.2017	207.649	250.4388	321.4443	431.9953	501.0977	553.1545	629.06	732.6528	828.3867	872.7006	895.613	954.242	960.9485	1031.1777	1075.9453	1114.9552	1143.5887	1217.7269	1244.9894	1288.4871	1300.1667	1366.5899	1377.0863	1387.1608	1414.6438	1477.4825	1483.2559	1512.1229	1712.5514	1829.1304	2951.5474	3016.6727	3027.0129	3045.4592	3065.2384	3095.506	3111.7091
O=CC1=NCCCO1	O=CC1=NCCCO1	
InChI=1S/C5H7NO2/c7-4-5-6-2-1-3-8-5/h4H,1-3H2	InChI=1S/C5H7NO2/c7-4-5-6-2-1-3-8-5/h4H,1-3H2
