22
gdb 109568	2.14744	1.37206	0.96326	3.636	84.32	-0.2356	0.0388	0.2744	1330.385	0.192826	-404.388391	-404.377997	-404.377052	-404.424271	37.302	
C	-0.1899721472	 1.5192121498	 0.1718222342	-0.37611
C	 0.1566268347	 0.0349838691	 0.0164682629	-0.160928
N	 0.7748289988	-0.3001975616	-1.2484408772	-0.081892
C	 0.2249059347	-0.6052430898	-2.5820381498	 0.037453
C	-0.3820330955	 0.5636397147	-3.3460681624	-0.402319
C	 1.6623390122	-1.1076964998	-2.9727159059	-0.166016
C	 2.4504499458	-0.4023507576	-4.068854105	-0.406959
C	 2.0394030756	-0.7672927498	-1.5141187012	 0.410462
O	 3.0211351761	-0.8660687073	-0.8210827853	-0.387843
H	 0.7060603353	 2.1366069449	 0.0621321876	 0.132073
H	-0.9205303295	 1.8422299104	-0.5757539027	 0.119787
H	-0.6174765795	 1.7056914604	 1.1622461306	 0.118137
H	 0.8723889309	-0.2649721188	 0.7891625601	 0.139015
H	-0.7445556539	-0.5794994112	 0.1493291051	 0.104614
H	-0.4996961682	-1.4304913347	-2.5401497529	 0.076291
H	 0.2905181421	 1.42520784	-3.3635421638	 0.1242
H	-0.598018499	 0.2706824535	-4.378928584	 0.122179
H	-1.3261305394	 0.8799654715	-2.8908114468	 0.121005
H	 1.6787437438	-2.1903463126	-3.1335755572	 0.098363
H	 2.4776549477	 0.6810143872	-3.9212290399	 0.123387
H	 3.4842297909	-0.7600748554	-4.0656824642	 0.138061
H	 2.0276324638	-0.6015770829	-5.0589383322	 0.11704
47.7478	74.1654	102.8956	185.8167	196.4467	216.0564	233.8047	261.7356	282.978	341.6428	369.019	481.9831	551.5511	644.6494	729.1215	743.9542	769.9729	786.6643	897.4472	949.3516	999.0607	1028.8252	1051.7589	1080.8051	1092.0966	1103.5952	1152.0247	1168.2134	1197.6567	1248.2595	1263.84	1334.5107	1358.6007	1378.2791	1393.1519	1407.8576	1409.3915	1412.1174	1427.3611	1473.7285	1483.8386	1489.1152	1493.8794	1500.7056	1502.2768	1507.2296	1866.2915	3000.879	3010.3899	3035.8792	3039.9749	3041.3696	3063.1979	3078.9145	3100.6527	3107.0366	3112.1609	3114.1094	3121.9026	3122.9737
CCN1C(C)C(C)C1=O	CCN1[C@@H](C)[C@@H](C)C1=O	
InChI=1S/C7H13NO/c1-4-8-6(3)5(2)7(8)9/h5-6H,4H2,1-3H3	InChI=1S/C7H13NO/c1-4-8-6(3)5(2)7(8)9/h5-6H,4H2,1-3H3/t5-,6+/m1/s1
