21
gdb 91738	3.17395	1.338	1.25667	1.9766	76.34	-0.2463	0.0767	0.3231	1107.9349	0.185242	-424.244653	-424.236803	-424.235859	-424.276736	32.054	
C	-0.4153116837	 1.4929347521	 0.0180846079	-0.422356
C	 0.0372577126	 0.0348617706	 0.0221398005	 0.05703
C	 0.8364862087	-0.4293680442	-1.2346418717	-0.262049
C	 1.9908239602	-1.2314104284	-0.5925055281	 0.035708
O	 1.4329982913	-1.6976593308	 0.6542420685	-0.283577
C	 1.0156002368	-0.4047885201	 1.1376111038	 0.058311
C	 2.3284484063	 0.4113602297	 1.0964606135	-0.275482
C	 3.0934160393	-0.2903354813	-0.0703930976	 0.171839
O	 4.2195756196	-1.0193478991	 0.3791917237	-0.449922
H	 0.4169049935	 2.1835760922	-0.1515276262	 0.117654
H	-1.1472587182	 1.666190035	-0.7774401277	 0.12002
H	-0.8905603518	 1.7664022463	 0.966746396	 0.115527
H	-0.8473926518	-0.6020156046	 0.1251663083	 0.081224
H	 0.2325963693	-1.0550169219	-1.8950604115	 0.107293
H	 1.208734314	 0.414735675	-1.8249090246	 0.098818
H	 2.3714148672	-2.0759858852	-1.1665965795	 0.080016
H	 0.5650488778	-0.5153474603	 2.1246372773	 0.075146
H	 2.1732918332	 1.4792388877	 0.93101369	 0.104502
H	 2.9038862229	 0.297023022	 2.0180700703	 0.108467
H	 3.4633169105	 0.4056891842	-0.8272692392	 0.08214
H	 3.8745624925	-1.6996013588	 0.9713017063	 0.27969
92.5211	186.6119	248.6347	268.6547	344.0413	377.9189	444.3527	466.1107	487.687	539.4181	661.3864	736.5714	792.0764	823.172	834.6199	866.8978	900.9914	939.7481	961.0392	966.9846	985.7942	1008.4593	1010.9104	1052.0102	1098.4525	1116.9936	1138.4463	1146.1347	1187.1885	1229.7687	1253.6151	1269.1146	1281.921	1298.3883	1310.3817	1327.8964	1342.3235	1354.9041	1377.1052	1417.4483	1437.8162	1483.1972	1495.3669	1500.2157	1509.6104	3032.4733	3045.3208	3051.6153	3074.6329	3087.0012	3096.2134	3102.6954	3106.7458	3112.9702	3124.7081	3126.9171	3777.5499
CC1CC2OC1CC2O	C[C@H]1C[C@@H]2O[C@H]1C[C@H]2O	
InChI=1S/C7H12O2/c1-4-2-7-5(8)3-6(4)9-7/h4-8H,2-3H2,1H3	InChI=1S/C7H12O2/c1-4-2-7-5(8)3-6(4)9-7/h4-8H,2-3H2,1H3/t4-,5+,6-,7-/m0/s1
