18
gdb 95534	2.23233	1.57678	1.14136	4.6217	77.21	-0.2676	-0.0027	0.265	1112.8502	0.148967	-401.97662	-401.968244	-401.9673	-402.009604	31.768	
O	-0.0925768029	 1.4370173505	 0.0418953758	-0.427035
C	-0.0083266211	 0.0287553648	-0.0053703641	 0.125944
C	-1.4247765955	-0.5272851211	 0.0790334009	-0.214627
C	-1.4053949071	-2.0597537039	 0.1633324229	-0.270331
C	-0.4120995371	-2.6745376569	-0.7851828229	-0.030995
C	 0.5197483725	-1.9889802615	-1.4433886057	-0.070895
C	 0.6969163007	-0.4867846018	-1.2903774637	-0.248156
C	 0.2201424175	 0.2157813061	-2.4905473641	 0.293106
N	-0.1432889022	 0.7443509492	-3.4519896705	-0.329664
H	 0.793629504	 1.8097144176	-0.0136343822	 0.286631
H	 0.5798733609	-0.3586340818	 0.8425398897	 0.078074
H	-1.9260158749	-0.0924575023	 0.9479962046	 0.112883
H	-1.9771844361	-0.2009412262	-0.8094010373	 0.131745
H	-1.1671430122	-2.3838908089	 1.1871661314	 0.116787
H	-2.4050797855	-2.4612482228	-0.0410132434	 0.119118
H	-0.4681527235	-3.7516345917	-0.9239814136	 0.100736
H	 1.1994112807	-2.4866092392	-2.1278746565	 0.108717
H	 1.7703480118	-0.2640885801	-1.2072782212	 0.117961
76.4037	145.6575	182.4442	219.3006	285.5611	337.8446	391.7419	401.4955	455.2352	483.4931	560.8639	666.6908	707.4408	746.6432	809.4843	880.8862	916.9546	967.4662	995.9661	1010.8655	1055.0393	1073.4496	1079.539	1121.8284	1162.4191	1188.6082	1255.3998	1283.9985	1292.6806	1309.1105	1347.3857	1367.7964	1374.4952	1410.2029	1442.0817	1474.3746	1497.7292	1723.3235	2354.3629	2966.9621	3004.4448	3007.6811	3045.1804	3057.4051	3101.0406	3154.3644	3183.4734	3812.0653
OC1CCC=CC1C#N	O[C@H]1CCC=C[C@H]1C#N	
InChI=1S/C7H9NO/c8-5-6-3-1-2-4-7(6)9/h1,3,6-7,9H,2,4H2	InChI=1S/C7H9NO/c8-5-6-3-1-2-4-7(6)9/h1,3,6-7,9H,2,4H2/t6-,7-/m0/s1
