17
gdb 100497	5.12315	0.50874	0.48786	2.4952	75.84	-0.2589	-0.0376	0.2213	2157.6553	0.132362	-458.930171	-458.919755	-458.918811	-458.968233	35.288	
O	 0.0595387054	 1.3929189142	 0.348886843	-0.416014
C	 0.0126235863	-0.0126568589	 0.342362975	-0.054368
C	-1.3845722735	-0.4945440555	-0.0933340943	-0.071039
O	-1.7277226556	 0.1336724041	-1.3361679305	-0.42814
C	-1.4657416315	-1.9503429043	-0.1596533343	 0.060279
C	-1.4682595125	-3.1524792519	-0.2458043198	 0.054251
C	-1.5449514312	-4.6043334969	-0.2969164592	-0.419083
C	-2.7379615738	-5.1555957397	 0.4921574212	 0.17267
O	-2.6976419076	-6.1747498529	 1.1237007318	-0.226082
H	-0.362463825	 1.6698482035	-0.4752516675	 0.287816
H	 0.7631884431	-0.4517735635	-0.3371819974	 0.083476
H	 0.232774014	-0.3629569894	 1.3553771515	 0.119905
H	-2.1160548465	-0.1053028152	 0.6242059161	 0.127806
H	-1.2884427215	-0.3595917738	-2.0389595201	 0.28865
H	-1.6773066153	-4.9362463108	-1.3382090199	 0.16034
H	-0.6348944129	-5.085255244	 0.0759878935	 0.159883
H	-3.6588445215	-4.538132625	 0.4192893309	 0.099649
16.141	49.5067	80.8144	99.7042	145.1783	190.3497	295.5121	300.7256	333.3757	399.7509	459.1244	510.2551	527.5517	531.4627	558.6631	730.7559	825.7812	889.1222	1027.6408	1039.9164	1047.196	1067.2294	1096.9478	1163.4853	1202.5052	1211.9858	1269.6986	1289.5658	1296.8956	1376.2276	1413.1537	1417.2385	1435.6305	1438.6949	1502.9723	1843.2428	2358.6136	2907.5408	2960.0891	3005.3093	3052.3616	3082.4904	3087.0987	3765.3836	3797.123
OCC(O)C#CCC=O	OC[C@@H](O)C#CCC=O	
InChI=1S/C6H8O3/c7-4-2-1-3-6(9)5-8/h4,6,8-9H,2,5H2	InChI=1S/C6H8O3/c7-4-2-1-3-6(9)5-8/h4,6,8-9H,2,5H2/t6-/m0/s1
