18
gdb 30116	3.80797	1.09687	1.08421	3.5396	78.94	-0.2174	0.0206	0.238	1187.4612	0.149778	-398.130862	-398.122787	-398.121843	-398.164325	30.264	
C	-0.3946670543	 1.4379417144	-0.0509169341	-0.313047
N	-0.1110190957	 0.0129429419	 0.043768408	-0.076702
C	 1.2271903559	-0.4206832406	-0.3190102476	-0.26785
C	 0.8029499123	-0.4518033738	 1.1130517322	-0.109311
C	 1.379168179	 0.4418184104	 2.1368176666	 0.301906
C	 1.0209694058	 0.6437848982	 3.4495601211	-0.168696
N	 1.8365893253	 1.5687148449	 4.0551378103	-0.250073
C	 2.6904648516	 1.9319121331	 3.1263730505	 0.008964
N	 2.4592486893	 1.2867984314	 1.9479754079	-0.303938
H	 0.4673024846	 2.0887522332	 0.1646623929	 0.097761
H	-0.7447447975	 1.6557639804	-1.0646360944	 0.124551
H	-1.1937778337	 1.693297751	 0.6511310099	 0.133032
H	 1.304094052	-1.3435179668	-0.8884516828	 0.122326
H	 1.941995315	 0.345606765	-0.6227307237	 0.091454
H	 0.486582579	-1.4092806887	 1.519638934	 0.106424
H	 0.2147121166	 0.1669580903	 3.9870837068	 0.111127
H	 3.489495465	 2.6491007769	 3.2423028643	 0.130331
H	 3.0103823498	 1.3592383989	 1.1097594182	 0.26174
35.9889	114.1802	183.2043	218.5094	283.2153	361.2738	435.5095	488.7633	533.5057	637.0953	681.9609	713.7741	764.3623	809.0244	856.086	866.09	931.1336	970.6152	1012.8725	1034.5667	1090.4283	1122.1898	1130.8207	1134.7812	1152.7716	1166.225	1206.5083	1261.3681	1267.2127	1327.9621	1375.0167	1386.3014	1430.4086	1451.6778	1491.4968	1492.5099	1497.181	1514.7778	1607.2801	2980.7685	3073.8305	3076.359	3111.1005	3133.2137	3165.3553	3244.4876	3250.8553	3670.437
CN1CC1C1=CN=CN1	CN1C[C@H]1c1cnc[nH]1	
InChI=1S/C6H9N3/c1-9-3-6(9)5-2-7-4-8-5/h2,4,6H,3H2,1H3,(H,7,8)	InChI=1S/C6H9N3/c1-9-3-6(9)5-2-7-4-8-5/h2,4,6H,3H2,1H3,(H,7,8)/t6-,9?/m0/s1
