23
gdb 113187	2.47331	1.01092	0.9247	2.2032	81.81	-0.2578	0.0761	0.3339	1441.2359	0.202731	-425.414494	-425.40353	-425.402586	-425.450776	40.143	
C	 0.035355858	 0.9914925804	 0.9672523925	-0.402784
C	-0.6979638755	-0.2472053363	 1.5068723057	-0.027476
C	-1.2954893814	 0.0101566622	 2.8986691548	-0.40063
C	-1.7480327582	-0.7480583493	 0.515904913	 0.407158
C	-2.8823205697	 0.2011347189	 0.1753999254	-0.472548
O	-1.2057889818	-1.4266567699	-0.6359715362	-0.321392
C	-1.9917922136	-2.1901771286	 0.298652151	-0.02613
C	-1.2754876736	-3.3489814624	 0.9492339805	-0.096365
O	-1.002355791	-4.358918154	-0.0096670336	-0.418728
H	 0.8786855321	 1.245979769	 1.6170093686	 0.11259
H	 0.4245168398	 0.8056366897	-0.0380752455	 0.130151
H	-0.6197331968	 1.8678404742	 0.9248195189	 0.115357
H	 0.0494410151	-1.0404727898	 1.6002317247	 0.080153
H	-0.5060601243	 0.2714957406	 3.6102710059	 0.117279
H	-2.0090281301	 0.8406354812	 2.8829257456	 0.119418
H	-1.815988052	-0.8726828523	 3.2844364215	 0.11505
H	-2.5004513141	 1.1429340163	-0.2291734289	 0.129157
H	-3.5333185559	-0.2477580513	-0.5781353633	 0.129118
H	-3.4851176483	 0.4326978171	 1.0590355723	 0.124
H	-2.9726415772	-2.467701988	-0.0946529457	 0.088676
H	-0.3562051326	-3.0200789804	 1.4505364574	 0.094191
H	-1.9233922517	-3.8088699377	 1.7036863164	 0.110529
H	-0.5112336672	-3.9317703795	-0.7211427311	 0.293226
43.649	65.0663	146.0163	167.0222	193.7389	222.788	243.807	264.7032	296.0192	299.1464	367.189	415.8169	433.6712	481.86	517.6874	598.1374	683.3677	779.9222	891.6152	896.2388	930.9208	945.2774	967.3408	1002.7122	1057.2495	1064.7317	1081.4826	1124.0007	1141.3038	1146.1049	1187.723	1223.8704	1279.2591	1307.9385	1339.1644	1364.7529	1377.4434	1399.3896	1411.8457	1422.353	1424.131	1473.6343	1483.5791	1488.8437	1496.5442	1500.9906	1503.7913	1508.5053	1514.1212	3017.2097	3032.2473	3036.7857	3047.1441	3058.3137	3069.3025	3087.6511	3098.5318	3102.1451	3107.3645	3113.4383	3115.3527	3128.3456	3798.1157
CC(C)C1(C)OC1CO	CC(C)[C@@]1(C)O[C@H]1CO	
InChI=1S/C7H14O2/c1-5(2)7(3)6(4-8)9-7/h5-6,8H,4H2,1-3H3	InChI=1S/C7H14O2/c1-5(2)7(3)6(4-8)9-7/h5-6,8H,4H2,1-3H3/t6-,7+/m0/s1
