18
gdb 8038	3.40336	2.03175	1.57971	1.3422	67.59	-0.2414	0.0627	0.3042	876.5899	0.152706	-384.909667	-384.901893	-384.900949	-384.941409	29.449	
C	 0.3221253886	 1.5500274198	-0.0331115956	-0.41009
C	 0.0380230418	 0.0705059441	 0.0926676632	 0.132258
O	 0.7991500039	-0.752493812	-0.8439592981	-0.355154
C	 1.2813587678	-1.615357099	 0.2127695845	 0.40809
C	 1.0651576637	-3.0772367472	-0.0643614037	-0.485351
C	 2.6123437869	-1.0985455373	 0.793357715	-0.118081
O	 1.9087270229	-0.2284759974	 1.7187326822	-0.291607
C	 0.6263296817	-0.7115019421	 1.2835666527	-0.00787
H	 1.3612804568	 1.7635726686	 0.2261655267	 0.135665
H	 0.1325823972	 1.8826515983	-1.0580743813	 0.125541
H	-0.3295625077	 2.120421285	 0.6375934832	 0.116703
H	-1.0349081893	-0.136661996	-0.0332388704	 0.074045
H	 1.6440925883	-3.3808883142	-0.9439236367	 0.133831
H	 1.3844407874	-3.6904287172	 0.7838080466	 0.122645
H	 0.0107745249	-3.2816185675	-0.2705069735	 0.128587
H	 3.2118619649	-1.8430168176	 1.3331236919	 0.09891
H	 3.2406549119	-0.5477370095	 0.0858651902	 0.110997
H	-0.0209913118	-1.0100190288	 2.1107657128	 0.080881
108.1803	199.1195	209.2769	229.191	243.6599	309.315	396.4165	432.2686	534.5444	655.9738	685.3041	814.2214	839.0152	880.5973	913.6224	953.9842	965.663	974.7076	1009.9451	1064.655	1098.9393	1138.3344	1146.3784	1166.9049	1193.8199	1208.5088	1279.4911	1305.6315	1321.1845	1371.6772	1385.4681	1405.5345	1414.1759	1481.2959	1483.3992	1490.0416	1493.2861	1505.0142	2993.5783	3014.0352	3035.6609	3041.4871	3081.091	3090.0262	3103.2431	3108.5556	3118.3286	3135.6415
CC1OC2(C)COC12	C[C@H]1O[C@@]2(C)CO[C@@H]12	
InChI=1S/C6H10O2/c1-4-5-6(2,8-4)3-7-5/h4-5H,3H2,1-2H3	InChI=1S/C6H10O2/c1-4-5-6(2,8-4)3-7-5/h4-5H,3H2,1-2H3/t4-,5+,6+/m1/s1
