17
gdb 53463	4.31662	0.47464	0.44838	2.8786	86.72	-0.2456	-0.0282	0.2174	2388.9844	0.131521	-384.645783	-384.634789	-384.633845	-384.687746	35.389	
C	-0.074782266	 1.3887173606	-0.5614604727	-0.495924
C	-0.011925762	-0.0198689143	-0.1991470616	 0.065369
C	 0.0380560329	-1.1835755847	 0.1003821876	 0.083639
C	 0.1069651207	-2.6006894948	 0.4641198614	-0.496181
C	-1.2046351034	-3.2424092079	 0.5868866924	 0.101355
C	-2.2795198006	-3.7691550989	 0.7074131399	 0.042918
C	-3.5757699149	-4.425884795	 0.7892822741	-0.412805
C	-3.9875560595	-5.0670930173	-0.5382499254	 0.170347
O	-4.5679892313	-6.1148064307	-0.6195472844	-0.230562
H	 0.3910892488	 2.0183072961	 0.2044923219	 0.149116
H	 0.4422014233	 1.5801689732	-1.5081290997	 0.149093
H	-1.1122261711	 1.720971421	-0.677387785	 0.150683
H	 0.7065894408	-3.1433646397	-0.2802090526	 0.15842
H	 0.6506993923	-2.7118865226	 1.4128821885	 0.159221
H	-3.6077606981	-5.1971234091	 1.5657541079	 0.154009
H	-4.3563520325	-3.6902317808	 1.0384220986	 0.156283
H	-3.7156752795	-4.4705830052	-1.435965251	 0.095019
5.4107	8.5771	50.093	63.1746	116.3023	187.0658	197.6439	276.3089	291.7336	373.0894	391.7545	447.0043	467.2688	540.7525	721.2435	767.4887	821.2152	929.7389	1034.2165	1042.7015	1052.8917	1054.2787	1139.4197	1176.0676	1212.0247	1230.9816	1290.5101	1339.6424	1414.9721	1415.2925	1440.8337	1453.4012	1478.1136	1478.7513	1841.0719	2375.0261	2383.638	2901.9276	3000.6041	3004.1423	3026.6215	3028.5061	3079.9067	3089.6062	3090.0606
CC#CCC#CCC=O	CC#CCC#CCC=O	
InChI=1S/C8H8O/c1-2-3-4-5-6-7-8-9/h8H,4,7H2,1H3	InChI=1S/C8H8O/c1-2-3-4-5-6-7-8-9/h8H,4,7H2,1H3
