21
gdb 96103	2.779	1.33254	1.03589	1.8113	78.72	-0.2421	0.0779	0.32	1208.9452	0.183442	-424.221628	-424.213238	-424.212294	-424.254171	33.713	
O	-0.0838617851	 1.4422990459	 0.0315886855	-0.438523
C	 0.0020711613	 0.024654225	 0.011896975	 0.123584
C	 0.7756059577	-0.537048957	 1.2109106525	-0.234045
C	 0.6694388131	-2.0646892808	 1.2425534821	-0.091454
O	-0.6867813258	-2.4879989287	 1.267549233	-0.288375
C	-1.4054078977	-2.0325950605	 0.1487076756	 0.44111
C	-1.3685918956	-2.9078867031	-1.0855306424	-0.324137
C	-2.598214421	-2.8600142618	-0.1961340605	-0.333816
C	-1.4260929909	-0.521828116	 0.0257105243	-0.26013
H	 0.8119371532	 1.7947720233	 0.0432559372	 0.278092
H	 0.4960280354	-0.3147200503	-0.9149084893	 0.063129
H	 1.8315976945	-0.2398047704	 1.1659987263	 0.083061
H	 0.3489829393	-0.119020745	 2.1301740939	 0.111911
H	 1.1837368991	-2.4980293095	 0.3690069265	 0.087843
H	 1.1326165912	-2.4742957154	 2.1442755747	 0.107249
H	-1.4158103198	-2.4400849503	-2.0633008444	 0.110558
H	-0.7618924409	-3.8051102778	-1.0369898114	 0.116581
H	-2.7863798252	-3.7212169457	 0.4345035296	 0.123631
H	-3.4867139892	-2.3555681971	-0.5601032795	 0.112875
H	-1.9539856843	-0.0894848691	 0.8845568348	 0.110047
H	-1.9568494692	-0.2121657656	-0.8794720032	 0.100809
122.7852	146.9333	245.3552	273.6665	281.5863	332.5092	364.4981	409.991	437.4692	481.4332	513.0327	588.1215	743.3351	779.9747	830.7157	864.0249	872.6189	930.1474	945.5336	964.6685	974.6549	1003.3952	1047.2092	1071.1996	1078.0524	1089.7213	1107.7659	1134.6524	1176.2713	1188.9841	1237.6208	1261.2115	1272.6264	1286.9064	1321.6377	1341.1451	1372.5348	1395.1737	1414.3818	1435.3585	1452.0173	1473.579	1489.238	1494.8166	1505.4663	2950.5165	2973.8256	3021.2211	3036.9929	3073.4911	3090.7412	3091.528	3131.8169	3137.3023	3216.7452	3231.2943	3812.2384
OC1CCOC2(CC2)C1	O[C@H]1CCOC2(CC2)C1	
InChI=1S/C7H12O2/c8-6-1-4-9-7(5-6)2-3-7/h6,8H,1-5H2	InChI=1S/C7H12O2/c8-6-1-4-9-7(5-6)2-3-7/h6,8H,1-5H2/t6-/m0/s1
