18
gdb 63023	2.30656	1.79453	1.38477	2.9083	71.4	-0.2393	0.0201	0.2594	999.9396	0.147797	-439.116132	-439.107808	-439.106864	-439.148571	32.686	
C	-0.1335078898	 1.5944357974	 0.0216964331	-0.427125
C	 0.016808808	 0.0765598323	-0.0374461977	 0.269258
O	-1.2639610524	-0.5550688164	-0.0636597553	-0.475833
C	 0.8003662968	-0.477964045	-1.2170612021	-0.052987
C	 2.261885651	-0.1230157888	-1.3861623041	-0.318816
C	 1.8658726206	-1.3916040589	-0.6693838689	-0.014204
N	 1.7569234202	-1.3087027332	 0.7592918576	-0.311284
C	 0.7819992283	-0.4614885017	 1.2024008207	 0.35372
O	 0.5229306516	-0.1831242695	 2.3552026735	-0.395987
H	 0.831390799	 2.1025432493	-0.0641778517	 0.115636
H	-0.783740897	 1.931083565	-0.7901068189	 0.121699
H	-0.5778354352	 1.877962013	 0.9807741901	 0.13158
H	-1.6558223433	-0.4194676317	 0.8081341995	 0.289526
H	 0.2240786838	-0.759622861	-2.0890200261	 0.109518
H	 2.6683986548	-0.208554975	-2.3883297609	 0.121127
H	 2.6906976013	 0.6757571546	-0.7895907776	 0.120375
H	 2.0728349113	-2.3708928454	-1.0840631738	 0.10869
H	 2.4429053312	-1.6847617049	 1.3951149924	 0.255109
89.8419	205.9445	212.2505	237.1745	290.011	348.6744	371.0127	408.2116	476.6163	497.2398	524.9305	611.7136	712.1191	716.9269	763.4503	813.0504	825.2028	909.677	941.4631	973.764	1025.8374	1039.2527	1070.7298	1089.5003	1126.991	1131.3461	1157.374	1179.3054	1202.476	1265.3204	1361.8691	1380.8985	1393.4362	1401.37	1420.4633	1478.37	1486.4595	1494.5774	1818.1156	3041.4251	3114.9074	3124.7304	3128.6341	3179.8547	3195.9868	3218.9952	3633.7248	3784.2717
CC1(O)C2CC2NC1=O	C[C@@]1(O)[C@H]2C[C@H]2NC1=O	
InChI=1S/C6H9NO2/c1-6(9)3-2-4(3)7-5(6)8/h3-4,9H,2H2,1H3,(H,7,8)	InChI=1S/C6H9NO2/c1-6(9)3-2-4(3)7-5(6)8/h3-4,9H,2H2,1H3,(H,7,8)/t3-,4+,6+/m0/s1
