13
gdb 21293	3.62657	1.9366	1.27259	1.1354	56.36	-0.2134	0.0071	0.2205	888.6422	0.09613	-431.906054	-431.898377	-431.897433	-431.93832	26.522	
C	-0.0159978637	 1.4524951708	-0.0480845434	-0.238596
O	 0.0256013588	 0.0297804497	 0.0259627569	-0.262233
C	 0.6050354747	-0.5834575536	-1.013608603	 0.342732
N	 1.1261734055	 0.0210420776	-2.0739932738	-0.299415
N	 1.5721557684	-0.9949977585	-2.815273957	-0.11075
N	 1.3792431484	-2.2182054548	-2.3141469456	-0.294215
C	 0.7646685843	-1.9816752313	-1.1666449353	 0.284841
O	 0.3675497638	-2.9359453945	-0.3050054366	-0.424112
H	 0.9945802059	 1.8714682905	-0.1020815212	 0.134342
H	-0.5788666357	 1.7825051457	-0.9278333143	 0.13439
H	-0.5132064114	 1.7852375372	 0.8635420228	 0.133709
H	 2.0267376927	-0.8484794512	-3.6984318232	 0.290624
H	 0.6146478483	-3.7887711476	-0.6831890462	 0.308682
89.4256	131.5293	184.093	200.644	289.6322	331.8512	344.0584	432.6769	571.8016	647.9968	679.7643	745.0334	803.4811	967.2061	1059.3292	1156.1059	1181.2303	1189.6817	1214.2744	1264.7764	1316.0747	1432.9097	1460.643	1480.7811	1491.7884	1502.204	1606.5049	1639.7163	3029.6272	3094.9369	3148.7899	3704.2375	3803.5349
COC1=NNN=C1O	COc1n[nH]nc1O	
InChI=1S/C3H5N3O2/c1-8-3-2(7)4-6-5-3/h1H3,(H2,4,5,6,7)	InChI=1S/C3H5N3O2/c1-8-3-2(7)4-6-5-3/h1H3,(H2,4,5,6,7)
