15
gdb 24266	3.97975	1.58899	1.23468	1.9975	70.58	-0.2155	0.005	0.2205	959.9253	0.115218	-420.628809	-420.622621	-420.621676	-420.659296	25.114	
C	-0.0505478264	 1.5518516959	-0.015708025	-0.390596
C	 1.4595331432	 1.8705317542	-0.0168938151	 0.064866
O	 2.1859427528	 1.4130111946	 1.1234238547	-0.251537
C	 2.2512881666	 0.6184507285	-0.0882023811	-0.147866
C	 1.2200099862	-0.4318766547	-0.1141100017	 0.348971
C	-0.0493930244	 0.042814595	-0.0319525342	 0.230028
C	-0.889911017	-1.1078834841	 0.0766404141	-0.354347
C	-0.0423028877	-2.1782132981	 0.030951951	-0.010846
O	 1.2639126755	-1.7812215917	-0.0749045726	-0.198997
H	-0.5355605621	 1.9756666486	 0.8706097323	 0.131357
H	-0.5355345465	 1.9928883534	-0.8948941496	 0.115952
H	 1.810230808	 2.807245065	-0.4425303181	 0.100247
H	 3.2302228559	 0.5335853929	-0.546614201	 0.109749
H	-1.9645528264	-1.1595765139	 0.1588120604	 0.115668
H	-0.2002833076	-3.2440203755	 0.0395633159	 0.137352
151.4878	242.4219	348.1123	417.1117	453.717	599.1054	616.2042	695.4494	718.3222	742.9769	770.979	825.8884	845.2469	853.4703	889.4057	925.688	981.3681	1017.1157	1051.2486	1087.3313	1109.0193	1167.2592	1186.4691	1235.0041	1242.6536	1282.465	1302.1375	1357.0008	1411.2652	1466.9006	1473.0584	1505.4435	1629.164	3034.8363	3074.5254	3146.796	3181.8332	3252.0056	3284.4692
C1C2OC2C2=C1C=CO2	C1[C@H]2O[C@H]2c2c1cco2	
InChI=1S/C7H6O2/c1-2-8-6-4(1)3-5-7(6)9-5/h1-2,5,7H,3H2	InChI=1S/C7H6O2/c1-2-8-6-4(1)3-5-7(6)9-5/h1-2,5,7H,3H2/t5-,7-/m1/s1
