18
gdb 9949	2.7396	1.56742	1.53704	2.6445	69.35	-0.2474	-0.0204	0.227	969.3819	0.150583	-384.941378	-384.931972	-384.931028	-384.975081	33.345	
C	-0.1629029663	 1.367308736	-0.0998675694	-0.431735
C	 0.1385939431	-0.1069987768	 0.0415915315	-0.077666
C	 1.5265764163	-0.642142289	-0.0841158878	 0.063167
O	 2.6123599669	 0.222068308	-0.219440686	-0.418637
C	 0.8481292233	-0.6533986442	 1.2941869938	 0.186621
C	 1.3442935182	 0.2723595273	 2.3861011772	-0.494181
C	 0.3931674936	-2.0027067195	 1.7216770497	 0.091453
O	-0.0838899234	-2.833801899	 0.9826782554	-0.277226
H	 0.6913898274	 1.986142205	 0.1825344406	 0.128841
H	-0.4210810669	 1.604161646	-1.138301918	 0.121329
H	-1.0146537769	 1.6595924487	 0.5223344226	 0.127797
H	-0.6315675955	-0.7826195266	-0.3216859193	 0.111908
H	 1.6517874103	-1.6221474222	-0.5421105108	 0.11089
H	 2.5620339806	 0.633487506	-1.0888225782	 0.295819
H	 2.040815809	 1.0109117008	 1.9879903961	 0.147308
H	 0.5212226651	 0.8002012858	 2.8796778538	 0.120615
H	 1.8775355707	-0.2999373791	 3.1532698391	 0.121343
H	 0.5346359546	-2.2195032071	 2.8046832197	 0.072353
110.9772	112.7567	160.4507	194.9119	202.3308	219.4392	224.9468	250.0602	302.7241	428.3325	480.1588	589.8609	643.7484	716.9578	747.3558	857.2045	959.6654	998.9542	1004.783	1035.8802	1079.5805	1109.5373	1131.0032	1161.2681	1185.7561	1251.7434	1281.2601	1312.1426	1376.5671	1408.5881	1419.9184	1424.1902	1443.912	1490.2834	1494.274	1506.503	1509.0939	1797.2481	2874.8586	3034.8893	3037.7021	3089.7013	3093.4501	3117.93	3125.0658	3143.0112	3150.7081	3806.6099
CC1C(O)C1(C)C=O	C[C@H]1[C@@H](O)[C@]1(C)C=O	
InChI=1S/C6H10O2/c1-4-5(8)6(4,2)3-7/h3-5,8H,1-2H3	InChI=1S/C6H10O2/c1-4-5(8)6(4,2)3-7/h3-5,8H,1-2H3/t4-,5+,6+/m0/s1
