18
gdb 9651	3.36776	1.34443	1.31725	0.7682	75.5	-0.2278	0.0531	0.281	1052.0084	0.150658	-347.748211	-347.739084	-347.738139	-347.78152	33.483	
C	-0.3466060135	 1.0952326897	-0.1778606692	-0.240065
O	 0.5298473565	 0.0158118934	 0.0958634562	-0.231757
C	 0.9635904261	-0.634061668	-1.0493216578	 0.096915
C	 1.5366800073	-1.9952813536	-0.8734227878	-0.353778
C	 0.1831302321	-1.8494348494	-1.5791117948	 0.099289
C	-1.0575921814	-2.3075616072	-0.8280530419	-0.467312
C	 0.1597448908	-2.0281827285	-3.0042524818	 0.279269
C	 0.132469673	-2.167886197	-4.1996519113	-0.463838
H	 0.1353974868	 1.847464535	-0.8192690422	 0.113201
H	-1.2682530118	 0.7569214784	-0.6699716658	 0.117444
H	-0.5976564116	 1.5539130194	 0.7809440972	 0.130041
H	 1.4013898115	 0.0187752374	-1.8050504148	 0.096458
H	 2.3988685665	-2.2792815359	-1.4643890826	 0.126194
H	 1.5035587372	-2.4060349228	 0.12988899	 0.127638
H	-0.999806475	-1.9997611321	 0.2184118608	 0.131153
H	-1.9614422498	-1.8745216438	-1.2672386516	 0.123627
H	-1.1546391421	-3.3968129243	-0.8682912738	 0.125836
H	 0.1091356874	-2.2960308307	-5.2531422389	 0.189683
111.5365	113.7593	151.7208	185.6075	208.2058	254.3977	272.4297	344.0717	461.7867	482.9046	532.7067	546.6904	576.55	641.9181	693.5623	794.7253	862.4789	929.2834	962.8317	1030.2774	1067.5942	1078.2189	1107.9947	1134.5222	1178.7187	1183.9801	1248.1995	1274.9532	1291.5765	1398.385	1410.8764	1467.019	1486.5705	1491.266	1494.0738	1500.8303	1508.5466	2228.7877	2992.4812	3041.0428	3048.8885	3100.3023	3104.5606	3124.2721	3129.4637	3141.0543	3235.6124	3503.8903
COC1CC1(C)C#C	CO[C@H]1C[C@]1(C)C#C	
InChI=1S/C7H10O/c1-4-7(2)5-6(7)8-3/h1,6H,5H2,2-3H3	InChI=1S/C7H10O/c1-4-7(2)5-6(7)8-3/h1,6H,5H2,2-3H3/t6-,7-/m0/s1
