16
gdb 95119	2.48941	1.55645	1.18872	2.4589	69.31	-0.2582	0.018	0.2762	1045.1913	0.125084	-437.880056	-437.872197	-437.871253	-437.912479	29.823	
O	 0.2685933827	 1.2007774442	-0.3793553466	-0.419
C	 0.050289328	-0.1186162125	 0.0709838384	-0.002244
C	 0.4061361645	-0.159301693	 1.5773181274	-0.107742
O	-0.5070385457	-1.0440432109	 2.2167556973	-0.248317
C	-1.6756345666	-1.0963379887	 1.4614046185	 0.084121
C	-2.3367107311	 0.1645737544	 1.0051383042	-0.362179
C	-1.4096129417	-0.5913473548	 0.048647996	 0.146033
C	-1.9196110192	-1.2228907507	-1.1270683006	 0.180706
N	-2.3168954596	-1.7242505448	-2.0923683276	-0.344982
H	 0.1492710067	 1.2220447118	-1.33465248	 0.298147
H	 0.6554711927	-0.8346401506	-0.4997063672	 0.098478
H	 1.4165918939	-0.5242350192	 1.770858106	 0.128799
H	 0.3215321351	 0.8617190444	 1.9707763795	 0.124315
H	-2.2602396555	-1.9866101926	 1.6579705214	 0.133535
H	-3.397501619	 0.1142974977	 0.789652453	 0.144474
H	-1.9834968752	 1.1256282653	 1.3605598804	 0.145856
100.4582	147.0567	177.5891	248.1099	322.7618	358.0296	431.6262	493.574	504.8996	563.6072	596.6635	688.7884	703.3337	839.3443	867.5665	924.6474	991.5203	1001.4369	1019.0711	1046.1464	1055.4716	1089.131	1115.8217	1186.5543	1223.3706	1236.2773	1250.8998	1265.8378	1334.9427	1362.5465	1412.934	1426.9548	1478.6369	1523.2069	2343.2793	3022.5961	3032.3847	3113.4098	3147.7268	3199.7976	3240.7478	3816.7085
OC1COC2CC12C#N	O[C@H]1CO[C@H]2C[C@@]12C#N	
InChI=1S/C6H7NO2/c7-3-6-1-5(6)9-2-4(6)8/h4-5,8H,1-2H2	InChI=1S/C6H7NO2/c7-3-6-1-5(6)9-2-4(6)8/h4-5,8H,1-2H2/t4-,5-,6+/m0/s1
