19
gdb 98981	4.92504	0.7389	0.65031	4.8444	76.19	-0.2419	0.0057	0.2477	1739.2895	0.157191	-456.383663	-456.373111	-456.372167	-456.421108	36.081	
C	 0.0187609682	 1.3355461173	 0.4615985466	-0.370255
C	 0.0947328925	-0.1107519128	-0.0195635447	-0.313445
C	 0.9844254606	-0.2652515495	-1.2555510874	 0.431137
O	 1.5553917433	 0.6556215016	-1.7821990896	-0.307624
N	 1.0504730939	-1.5884165482	-1.6901895595	-0.399792
C	 1.7489105745	-2.1249233361	-2.7694331565	 0.489615
N	 2.4681411817	-1.4545011126	-3.5613953005	-0.526743
O	 1.4806569835	-3.4692813283	-2.7599195318	-0.255031
C	 2.0844802756	-4.2526417576	-3.7764951707	-0.262709
H	 1.0117615383	 1.7124266238	 0.7173121847	 0.136315
H	-0.3830180638	 1.984344623	-0.3201365845	 0.136322
H	-0.6225142764	 1.4129844539	 1.3440367914	 0.107274
H	 0.4834851334	-0.7655845155	 0.7718538088	 0.120845
H	-0.9053595994	-0.4946734522	-0.2618379571	 0.120882
H	 0.5282555361	-2.2737343504	-1.167183031	 0.255415
H	 2.8904062018	-2.0341233324	-4.2805781738	 0.222055
H	 3.1785256748	-4.2081912798	-3.7191888006	 0.13634
H	 1.7551610136	-5.2774407293	-3.6013994902	 0.143059
H	 1.7603584378	-3.9326562249	-4.7738655936	 0.136339
29.8539	46.1739	73.2347	126.4752	136.0288	206.7371	211.666	267.2156	319.626	351.8044	410.4696	535.815	588.0028	639.4155	690.92	725.347	791.3725	817.6946	876.0933	965.2501	1000.8163	1045.7251	1096.0907	1108.1288	1122.8703	1179.1313	1195.6403	1219.9459	1284.4954	1286.3481	1366.0235	1415.6516	1464.3998	1470.3471	1490.9149	1492.0629	1498.8861	1506.7343	1540.4647	1752.8055	1839.513	3017.3818	3018.8168	3049.1068	3054.0572	3083.073	3125.6453	3134.2085	3144.7112	3547.1403	3638.5119
CCC(=O)NC(=N)OC	CCC(=O)NC(=N)OC	
InChI=1S/C5H10N2O2/c1-3-4(8)7-5(6)9-2/h3H2,1-2H3,(H2,6,7,8)	InChI=1S/C5H10N2O2/c1-3-4(8)7-5(6)9-2/h3H2,1-2H3,(H2,6,7,8)
