19
gdb 45440	2.45593	1.69244	1.67987	4.5625	73.27	-0.2526	0.0227	0.2753	954.078	0.163616	-423.095421	-423.088339	-423.087395	-423.126935	28.404	
O	-0.0377175398	-0.0131720149	 0.0043006394	-0.347879
C	 0.0123367037	 1.1854360592	 0.0106398617	 0.430237
O	-1.1282262947	 1.9314017111	 0.0290061356	-0.2409
C	-0.9012054142	 3.363003199	 0.0326794616	 0.104288
C	-0.1045615186	 3.7232081854	 1.291482407	-0.217074
C	 1.2365190356	 2.941707958	 1.2611286207	-0.224766
C	 1.261456866	 2.0499888576	-0.0028588062	-0.139329
C	 1.2019564734	 2.9531351119	-1.2575839774	-0.224748
C	-0.1390940814	 3.7351451396	-1.2438689018	-0.217035
H	-1.898790364	 3.8056276509	 0.0483056745	 0.089152
H	 0.0554173814	 4.8053566688	 1.323758827	 0.106422
H	-0.6953919171	 3.457021951	 2.1720762974	 0.117762
H	 2.0944711255	 3.6209894258	 1.2305891438	 0.104734
H	 1.3493956929	 2.325677325	 2.1571095949	 0.119063
H	 2.1340885877	 1.3964514411	-0.0178273258	 0.092015
H	 2.060688774	 3.6319917466	-1.2446276759	 0.104776
H	 1.2898193677	 2.3452304734	-2.1618799791	 0.119098
H	-0.7538224441	 3.4774773617	-2.1105264465	 0.11777
H	 0.0204112661	 4.8175257689	-1.2701550009	 0.106415
98.1154	161.8404	264.463	352.2964	372.6339	444.9045	538.2451	543.9021	617.5071	773.3973	784.8119	806.7408	816.7144	846.6878	880.4009	886.5538	947.2403	973.1844	1022.977	1037.5136	1053.8567	1070.387	1077.1007	1161.1133	1165.7314	1222.8069	1237.3225	1263.3582	1263.8559	1314.1636	1321.7488	1338.6843	1365.0628	1372.5776	1383.0761	1395.5941	1477.3806	1488.6679	1498.9763	1513.3476	1861.5337	3045.7977	3046.7441	3056.8575	3059.1021	3084.8298	3086.0663	3097.7392	3104.7847	3108.0908	3112.5729
O=C1OC2CCC1CC2	O=C1O[C@H]2CC[C@@H]1CC2	
InChI=1S/C7H10O2/c8-7-5-1-3-6(9-7)4-2-5/h5-6H,1-4H2	InChI=1S/C7H10O2/c8-7-5-1-3-6(9-7)4-2-5/h5-6H,1-4H2/t5-,6+
