21
gdb 88560	3.46193	1.21699	1.06428	2.0794	83.58	-0.2131	0.0799	0.293	1215.6495	0.183462	-383.191615	-383.183123	-383.182179	-383.224807	32.97	
C	-0.899872696	 0.9299094167	 0.3303376907	-0.323796
N	 0.0322990318	-0.1675382687	 0.090568742	-0.093015
C	 1.349911729	 0.1390408094	-0.4405553055	-0.253073
C	 1.1928156721	-0.3902442013	 0.9510308001	-0.112101
C	 1.5872942767	 0.419268516	 2.1418823273	 0.368563
C	 2.6474693092	-0.0586288041	 3.1592762019	-0.301331
C	 1.8604445837	 0.6751877039	 4.2943198834	-0.239814
C	 0.8389758588	 1.1301774081	 3.2471604678	-0.092444
N	 1.4896083348	 1.87329979	 2.1685149085	-0.359729
H	-0.4258506774	 1.8655994576	 0.6484302288	 0.139518
H	-1.4542486092	 1.1084167385	-0.5970768592	 0.115038
H	-1.6232125377	 0.6222100728	 1.0930839294	 0.112798
H	 1.708671331	-0.4998462602	-1.2446367458	 0.106595
H	 1.6349050039	 1.1875273406	-0.5172829859	 0.115293
H	 1.3850470893	-1.4511711038	 1.1121990927	 0.080963
H	 2.6523415655	-1.1427676432	 3.2965627254	 0.111097
H	 3.6725252228	 0.2712370194	 2.9579257521	 0.097151
H	 1.4490671022	-0.0211175035	 5.0286799151	 0.110954
H	 2.3791397407	 1.4787272684	 4.8284872227	 0.09844
H	-0.2242478316	 1.2811194161	 3.3944685037	 0.097494
H	 2.3528050105	 2.3277033275	 2.4644844247	 0.221399
58.2191	152.4459	186.1523	218.8293	271.221	279.5879	360.6051	400.2004	477.5237	536.1297	677.3237	753.0176	755.2613	785.1377	833.222	876.9091	927.4359	935.2343	949.4508	993.1628	1028.5082	1045.1523	1067.7961	1084.6015	1087.1467	1113.9183	1125.4776	1141.0373	1173.902	1192.3461	1197.6852	1210.6582	1225.3396	1238.813	1272.418	1295.479	1342.0451	1392.3648	1447.8655	1454.6534	1479.1144	1491.2313	1500.5549	1507.7534	1513.0234	3017.9069	3039.2972	3047.8736	3085.685	3088.515	3091.9518	3093.7543	3098.4257	3113.3909	3171.9043	3181.6264	3444.0535
CN1CC1C12CCC1N2	CN1C[C@H]1[C@]12CC[C@H]1N2	
InChI=1S/C7H12N2/c1-9-4-6(9)7-3-2-5(7)8-7/h5-6,8H,2-4H2,1H3	InChI=1S/C7H12N2/c1-9-4-6(9)7-3-2-5(7)8-7/h5-6,8H,2-4H2,1H3/t5-,6+,7+,9?/m1/s1
