23
gdb 113544	3.00384	0.96735	0.90239	1.8109	86.37	-0.2377	0.0797	0.3173	1459.7085	0.204383	-388.266946	-388.257047	-388.256103	-388.302011	36.799	
C	 0.061710316	 1.5196972844	-0.3912989732	-0.372085
C	-0.0473752896	 0.1316562451	 0.2500787379	-0.198725
C	-1.4301056833	-0.4734063584	 0.1155836328	-0.048623
C	-1.8227964107	-1.2260253501	-1.1395525554	-0.359785
C	-1.635730858	-1.9587668794	 0.1532666974	 0.261696
C	-0.6331914605	-3.0524013471	 0.5046155055	-0.14011
O	-1.6213099213	-3.7287334273	 1.3105615623	-0.299318
C	-2.6542441751	-2.769421568	 0.9611052504	 0.094275
C	-3.2957284485	-2.1424130392	 2.1831928907	-0.401787
H	 1.0702310956	 1.9301408417	-0.2807288107	 0.111411
H	-0.1718019347	 1.477839366	-1.4601774668	 0.118868
H	-0.6375522189	 2.22415469	 0.0723510074	 0.11466
H	 0.6883819831	-0.5417779692	-0.2082047765	 0.095143
H	 0.222100923	 0.1965902571	 1.3125863319	 0.099308
H	-2.222258465	 0.119593793	 0.5701576574	 0.081524
H	-2.8319537508	-1.1105550512	-1.5237793285	 0.109839
H	-1.067144295	-1.3590435755	-1.9095567448	 0.108961
H	-0.2944826311	-3.6728175621	-0.3365343415	 0.096411
H	 0.2406555574	-2.7495809413	 1.09653894	 0.099926
H	-3.4212504144	-3.2494536682	 0.3345106522	 0.070546
H	-2.5473158726	-1.635753739	 2.7992617489	 0.119233
H	-4.06062866	-1.4148470324	 1.8891359281	 0.112334
H	-3.7802055554	-2.9141321692	 2.7896980746	 0.126298
65.6476	87.2562	134.753	138.28	212.9634	229.8179	252.0501	291.8272	379.9704	417.7091	429.5705	510.3107	596.1442	772.3113	780.65	813.7611	871.5529	882.0281	915.0843	934.423	965.2968	1004.089	1018.4796	1053.0959	1062.1422	1082.7192	1099.1924	1112.9243	1129.8903	1146.9617	1161.2615	1190.349	1228.9693	1282.522	1297.6874	1315.0455	1347.9366	1377.9646	1383.5843	1403.231	1408.7691	1440.5902	1482.8994	1485.6367	1489.3656	1497.4395	1503.4923	1507.1827	1525.2699	2982.6375	2997.7772	3015.0521	3032.0049	3033.1482	3035.8372	3046.5297	3099.4941	3102.6562	3105.528	3111.4872	3117.4632	3119.214	3195.046
CCC1CC11COC1C	CC[C@H]1C[C@]21CO[C@H]2C	
InChI=1S/C8H14O/c1-3-7-4-8(7)5-9-6(8)2/h6-7H,3-5H2,1-2H3	InChI=1S/C8H14O/c1-3-7-4-8(7)5-9-6(8)2/h6-7H,3-5H2,1-2H3/t6-,7-,8-/m0/s1
