25
gdb 60113	3.50875	0.82235	0.8006	0.2359	95.91	-0.224	0.0338	0.2578	1634.5238	0.229211	-352.38779	-352.377671	-352.376726	-352.42329	38.052	
C	-0.071911284	 1.5671367109	-0.009485093	-0.388114
C	-0.0129716622	 0.0353648657	-0.0597541553	 0.04783
C	 1.0287920899	-0.5082438591	 0.9255839155	-0.377874
C	-1.4148214201	-0.5676487823	 0.2015663876	-0.310288
C	-1.508775658	-2.0537145897	 0.0162155423	 0.361749
C	-1.8010570999	-2.963948285	 0.9493739613	-0.1775
C	-1.8867226721	-4.3667535869	 0.3995232436	-0.242786
C	-1.2630462365	-4.2219217568	-1.0124666797	-0.202829
C	-1.3506496465	-2.7122274289	-1.3439979628	-0.299412
H	 0.9094358329	 2.0082402443	-0.2134304312	 0.10815
H	-0.7790443037	 1.966184958	-0.7446061227	 0.107642
H	-0.3910037962	 1.9137419045	 0.9810065859	 0.110873
H	 0.293977952	-0.2550001904	-1.0739365185	 0.073863
H	 0.7811774355	-0.2137423097	 1.9530321533	 0.107942
H	 1.0743496662	-1.6006177123	 0.8982329565	 0.116032
H	 2.0265223686	-0.1175337723	 0.7001060601	 0.106514
H	-1.7261653308	-0.3048258654	 1.2209202776	 0.092592
H	-2.1273678659	-0.0770522841	-0.4779781701	 0.093004
H	-2.0082797187	-2.7300359181	 1.9890424702	 0.078651
H	-1.3601518809	-5.1049107828	 1.0155627206	 0.098136
H	-2.9333884113	-4.70197039	 0.3522467562	 0.100711
H	-0.2111440923	-4.5230851992	-0.9751295978	 0.102395
H	-1.7511638828	-4.8511772284	-1.7611633171	 0.09354
H	-2.2213608076	-2.4791141237	-1.9752866341	 0.099211
H	-0.4742669957	-2.3562881984	-1.8972829881	 0.099968
50.2969	81.2461	104.1523	153.2362	221.3757	245.6307	258.8323	309.6029	338.0124	390.4109	419.4443	500.4531	608.7664	698.4965	797.3041	821.9254	855.4586	862.5809	899.6383	912.9382	921.6915	933.5919	955.152	965.9951	969.0389	1039.0108	1063.1457	1109.4392	1132.0239	1154.4774	1171.4132	1192.1361	1229.7527	1240.4705	1250.5488	1295.4209	1311.7718	1322.9159	1329.9217	1361.3842	1372.6917	1377.4045	1399.3996	1419.7001	1474.0139	1483.1409	1487.3567	1489.7483	1493.7285	1503.0537	1506.1846	1510.2233	1713.7216	2992.7271	2996.9413	2998.0226	3006.8798	3021.498	3026.7642	3040.5594	3045.9828	3050.4212	3060.9632	3085.5579	3092.0889	3096.8067	3098.622	3110.3694	3178.2262
CC(C)CC1=CCCC1	CC(C)CC1=CCCC1	
InChI=1S/C9H16/c1-8(2)7-9-5-3-4-6-9/h5,8H,3-4,6-7H2,1-2H3	InChI=1S/C9H16/c1-8(2)7-9-5-3-4-6-9/h5,8H,3-4,6-7H2,1-2H3
