17
gdb 51719	4.97558	0.78721	0.70745	2.7664	70.72	-0.2539	-0.0317	0.2222	1512.8151	0.134873	-459.019651	-459.011082	-459.010137	-459.054449	30.541	
O	-0.1980371493	 0.0654668601	 0.3289975384	-0.270494
C	-0.1105789394	 1.254987299	 0.3053082187	 0.163388
O	 0.9421431969	 1.8980857743	-0.2371067079	-0.185101
C	 0.966064909	 3.328262593	-0.2095152087	 0.110667
C	 2.1909812894	 3.8437214417	 0.5688417244	-0.244635
C	 2.3988454444	 5.2696493961	 0.0384703377	-0.323523
C	 1.8661287621	 5.2409657241	-1.4012335243	 0.399854
O	 2.0013464826	 6.1101032429	-2.2196141164	-0.302204
C	 1.1243551152	 3.9155766059	-1.6142437138	-0.340192
H	-0.8704082361	 1.9482155922	 0.7174453464	 0.079621
H	 0.0400693129	 3.6928598514	 0.2551108209	 0.095354
H	 2.0496729759	 3.7885470304	 1.6505338111	 0.115263
H	 3.0449156288	 3.2075432729	 0.3129927751	 0.131092
H	 1.7966520839	 6.0008385313	 0.5935813185	 0.138289
H	 3.4315440406	 5.6238170956	 0.0677036531	 0.140886
H	 1.7699185113	 3.2555564266	-2.207763619	 0.155209
H	 0.1952578819	 4.0547973927	-2.1702382241	 0.136524
32.873	72.1763	124.8209	150.5821	280.4599	326.2864	373.9514	457.0097	493.8819	544.9892	575.6708	705.2764	742.3367	806.4261	891.145	924.9538	953.5026	991.9696	1042.4096	1057.9414	1098.8413	1134.5772	1158.8641	1175.4057	1218.8641	1242.124	1258.6362	1300.4337	1319.6495	1340.7107	1388.6336	1440.5478	1449.6508	1452.9562	1501.6027	1855.7658	1869.9819	2942.3536	3015.8555	3037.0143	3046.2649	3059.135	3108.9544	3116.5261	3120.6026
O=COC1CCC(=O)C1	O=CO[C@H]1CCC(=O)C1	
InChI=1S/C6H8O3/c7-4-9-6-2-1-5(8)3-6/h4,6H,1-3H2	InChI=1S/C6H8O3/c7-4-9-6-2-1-5(8)3-6/h4,6H,1-3H2/t6-/m0/s1
