22
gdb 99634	2.29122	1.14648	0.8688	1.3069	88.62	-0.2248	0.049	0.2737	1435.2797	0.19159	-367.14856	-367.138064	-367.13712	-367.184163	38.563	
C	-0.4696420516	 0.5763581685	 3.4905768415	-0.39283
C	-0.4766943785	-0.7188521641	 2.6774282285	-0.17461
C	-1.6558694511	-0.820985136	 1.6776905623	-0.192616
C	-1.6186172066	 0.2593697673	 0.6899530202	 0.348165
C	-1.5639895161	 1.1359246811	-0.1316971261	-0.476422
C	-1.6362018715	-2.18356717	 0.9838222638	 0.023791
C	-2.3261105187	-3.355881536	 1.5961292732	-0.264235
N	-2.7975360052	-2.7865270688	 0.3397600352	-0.084904
C	-4.0787773742	-2.0957811839	 0.3351618588	-0.317651
H	 0.3840001895	 0.6017545149	 4.1745047446	 0.113785
H	-0.407419928	 1.4503891136	 2.8360513971	 0.13352
H	-1.3809916588	 0.6722506243	 4.0915031116	 0.112647
H	 0.4623787251	-0.8152451577	 2.1198580079	 0.10732
H	-0.5357658191	-1.5842453594	 3.3474486682	 0.101442
H	-2.5851242824	-0.7277166191	 2.253834877	 0.100616
H	-1.5284419617	 1.9108293345	-0.8568720409	 0.195771
H	-0.7111125079	-2.3569679829	 0.4347686853	 0.095789
H	-1.896715007	-4.3533685309	 1.5459410277	 0.11355
H	-2.9157324562	-3.1631561564	 2.4937543821	 0.101006
H	-4.3537637222	-1.6285497093	 1.2942230109	 0.097768
H	-4.0669669135	-1.3176727169	-0.4332978146	 0.135782
H	-4.8610354742	-2.8185124528	 0.0824929156	 0.122318
60.321	91.7511	118.9337	154.3943	178.4833	201.3912	257.3128	275.1145	307.9282	370.6055	430.8747	456.0692	527.2066	582.2757	630.97	634.3911	752.9029	769.4214	853.6146	880.6932	930.5618	960.8354	1035.6822	1041.0699	1084.6451	1096.112	1115.239	1126.1148	1131.5732	1162.0604	1188.9029	1203.1618	1261.0772	1279.5618	1336.4827	1345.0998	1365.0902	1411.4649	1415.9227	1450.9808	1485.1373	1489.4847	1498.4334	1502.5726	1507.6646	1513.687	2230.0034	2975.17	3024.9107	3033.6292	3035.5649	3069.8134	3071.2455	3076.2444	3102.0115	3107.3511	3111.9697	3117.6757	3165.8725	3503.4673
CCC(C#C)C1CN1C	CC[C@@H](C#C)[C@H]1CN1C	
InChI=1S/C8H13N/c1-4-7(5-2)8-6-9(8)3/h1,7-8H,5-6H2,2-3H3	InChI=1S/C8H13N/c1-4-7(5-2)8-6-9(8)3/h1,7-8H,5-6H2,2-3H3/t7-,8-,9?/m1/s1
