14
gdb 46241	2.90259	1.37429	1.07073	3.9066	69.96	-0.2539	-0.0033	0.2506	1095.7881	0.098877	-436.63549	-436.627176	-436.626232	-436.66877	30.065	
O	-0.097320327	 0.0073471793	 0.1423574289	-0.353229
C	-0.0418030289	 1.202431428	 0.0958534136	 0.383574
N	-0.9920817192	 2.2031791369	 0.1277309243	-0.345686
C	-0.0692641205	 3.3418956623	 0.0661932053	-0.243313
C	 1.0523903883	 2.2853731929	-0.0300013586	 0.287687
O	 2.2718572037	 2.3178274444	 0.6534120089	-0.256551
C	 2.3138744249	 2.289455096	-0.7931493574	-0.288377
C	 2.8367042834	 1.112726052	-1.4265696275	 0.362821
C	 3.2971936004	 0.1555929314	-1.9873874404	-0.399481
H	-1.9980938813	 2.1617580315	 0.1695787644	 0.261597
H	-0.195988502	 3.9856535341	-0.8097412572	 0.123829
H	-0.0297184269	 3.9454949181	 0.9782549397	 0.132287
H	 2.6207333014	 3.2374803409	-1.2342409699	 0.125718
H	 3.6865769339	-0.7065592778	-2.4707019242	 0.209123
85.9607	94.2945	152.9548	210.08	244.8174	291.5851	415.6415	485.2197	492.5066	553.5254	634.9422	671.0488	684.579	748.9568	778.7532	848.7324	913.3335	974.517	1011.3914	1040.0482	1084.3976	1125.2699	1151.9376	1163.1772	1277.3591	1336.7058	1375.3671	1483.9298	1521.6711	1908.132	2246.9152	3043.6204	3094.525	3114.8081	3502.0932	3639.3266
O=C1NCC11OC1C#C	O=C1NC[C@]21O[C@H]2C#C	
InChI=1S/C6H5NO2/c1-2-4-6(9-4)3-7-5(6)8/h1,4H,3H2,(H,7,8)	InChI=1S/C6H5NO2/c1-2-4-6(9-4)3-7-5(6)8/h1,4H,3H2,(H,7,8)/t4-,6-/m0/s1
