17
gdb 51984	6.57098	0.55808	0.52592	2.198	76.06	-0.2584	-0.0304	0.2279	1983.8113	0.134254	-455.192483	-455.182691	-455.181747	-455.229165	33.026	
N	 0.9803859749	 0.0627070512	 0.6044848655	-0.45944
C	-0.0940031952	 0.4988088817	 0.0887853485	 0.100454
N	-1.2962181406	-0.146857426	 0.3456403325	-0.313703
C	-2.5104837766	 0.2501966918	-0.1777256829	 0.445093
O	-2.6249999361	 1.220302202	-0.8971261829	-0.348122
C	-3.6835114887	-0.6522076753	 0.1970518914	-0.354187
C	-5.0209070595	 0.093215649	 0.1192276537	-0.264622
C	-6.194218072	-0.8541567019	 0.0387591962	 0.158981
O	-7.1650992687	-0.817607681	 0.7477694717	-0.235509
H	 1.7693569873	 0.6418085502	 0.3233301521	 0.236737
H	-0.2224810814	 1.3609299876	-0.5678821807	 0.143691
H	-1.2418589347	-0.955569012	 0.9489692864	 0.263912
H	-3.6786196117	-1.4906268222	-0.5149229405	 0.142656
H	-3.5306880476	-1.0905334136	 1.1891850322	 0.126763
H	-5.1615057179	 0.7674688996	 0.9675113459	 0.131059
H	-5.0068531296	 0.700762953	-0.795616806	 0.155571
H	-6.1004351819	-1.6234817242	-0.7658548232	 0.070668
35.9543	56.0411	74.9278	134.8242	143.9051	190.7619	244.9968	291.3458	390.8117	492.0102	525.8191	583.7066	659.7948	721.5391	792.2976	834.9881	858.4577	968.6944	1027.6363	1054.3698	1087.5851	1093.0697	1105.3742	1172.7221	1197.9489	1254.6779	1296.3565	1321.5493	1376.2212	1392.6667	1429.7349	1457.0656	1470.6287	1497.9287	1729.6526	1798.5317	1841.2914	2839.6052	3014.1522	3036.9314	3072.1906	3114.9541	3128.595	3509.1118	3609.3198
N=CNC(=O)CCC=O	N=CNC(=O)CCC=O	
InChI=1S/C5H8N2O2/c6-4-7-5(9)2-1-3-8/h3-4H,1-2H2,(H2,6,7,9)	InChI=1S/C5H8N2O2/c6-4-7-5(9)2-1-3-8/h3-4H,1-2H2,(H2,6,7,9)
