20
gdb 64239	2.61507	1.09116	1.01362	2.7535	76.7	-0.251	0.0212	0.2721	1292.9349	0.169152	-440.302432	-440.292605	-440.291661	-440.338114	35.486	
C	-0.2236022275	 1.4960963801	 0.1524849002	-0.430542
C	 0.0107664081	-0.0066693464	 0.0636512989	 0.410075
C	-1.2708846354	-0.7765731053	-0.2085609701	-0.43111
O	 1.0257433594	-0.3094156996	-0.9427043896	-0.321009
C	 1.9923005537	-0.6861140087	 0.0505552828	-0.103151
C	 0.9386180639	-0.6133941746	 1.1706467405	-0.06388
N	 1.252103613	 0.145481585	 2.3512997172	-0.282238
C	 0.9224168989	-0.2605425996	 3.6117099951	 0.15179
O	 0.338977714	-1.2858757225	 3.8866900859	-0.316504
H	 0.7147107694	 2.0422704281	 0.2918249903	 0.103802
H	-0.6777606229	 1.8541429658	-0.7763140642	 0.130592
H	-0.8942198053	 1.7414845346	 0.98210453	 0.122662
H	-1.7303805796	-0.4385964962	-1.1430799248	 0.123702
H	-1.0652255934	-1.8468099347	-0.2965923479	 0.122938
H	-1.9902633922	-0.6266375468	 0.6034356993	 0.125845
H	 2.4377113075	-1.6671882873	-0.1475330669	 0.114409
H	 2.8010946851	 0.053738802	 0.1491418791	 0.088461
H	 0.5864773611	-1.5862309672	 1.5123513479	 0.127839
H	 1.7262635015	 1.0294094998	 2.2521291608	 0.248775
H	 1.2606818507	 0.4672314534	 4.3755873555	 0.077544
26.4158	70.9863	168.4206	181.3842	199.5688	240.5119	260.5017	322.4973	347.3143	386.4654	442.9098	518.5908	537.5167	647.4049	720.8673	842.2323	860.5035	918.1368	941.0511	986.1546	995.0165	1022.3973	1031.2474	1087.2802	1101.1574	1159.0274	1174.4275	1203.0703	1243.609	1267.5574	1289.792	1338.9506	1378.9052	1402.0731	1413.4239	1432.6845	1470.534	1482.9717	1492.0091	1506.9829	1525.0697	1538.2239	1808.7116	2938.5803	2986.2724	3033.7056	3038.4822	3059.5682	3105.6958	3106.1917	3115.6369	3117.7218	3131.6795	3630.9459
CC1(C)OCC1NC=O	CC1(C)OC[C@H]1NC=O	
InChI=1S/C6H11NO2/c1-6(2)5(3-9-6)7-4-8/h4-5H,3H2,1-2H3,(H,7,8)	InChI=1S/C6H11NO2/c1-6(2)5(3-9-6)7-4-8/h4-5H,3H2,1-2H3,(H,7,8)/t5-/m1/s1
