18
gdb 93594	4.89212	0.99236	0.85362	2.1711	82.63	-0.2472	-0.02	0.2272	1348.553	0.147313	-401.932603	-401.923881	-401.922937	-401.965902	32.657	
C	-0.0505956061	 1.5413719261	-0.0264730434	-0.411673
C	 0.0217449234	 0.0143185046	-0.0063250103	-0.015086
C	 0.7483920073	-0.5322016533	-1.2309384478	-0.07835
O	 0.8373560142	-1.9628715915	-1.1983277175	-0.260243
C	 1.0730300177	-2.5134475775	 0.0258223969	 0.204468
N	 1.0756951565	-1.9441807443	 1.161437915	-0.321989
C	 0.7431582589	-0.5271804482	 1.2344696831	-0.162155
C	 1.3372205343	-3.9202527214	-0.0885655563	 0.273345
C	 1.5549841433	-5.0973010369	-0.191282068	-0.339857
H	 0.9521440445	 1.9835444741	-0.0494267975	 0.120212
H	-0.5980822406	 1.9058373863	-0.9020510546	 0.118654
H	-0.5594360014	 1.9198154655	 0.8656421976	 0.124717
H	-0.9967049261	-0.3954786672	-0.0173097418	 0.092449
H	 0.2287314204	-0.2928433097	-2.1622494811	 0.118897
H	 1.7652844299	-0.1184350691	-1.2888206336	 0.110348
H	 1.6721032526	 0.0367699279	 1.4067347756	 0.111496
H	 0.1308210319	-0.3740029247	 2.1309052524	 0.114661
H	 1.7494579195	-6.1384866407	-0.2709955388	 0.200108
77.5541	149.1476	168.6278	204.6806	213.3403	289.9585	377.8489	415.9295	421.4527	480.4428	579.5375	643.3034	651.022	660.729	726.0503	801.5101	889.1642	899.8367	943.8697	970.5511	1039.4633	1060.2971	1136.7514	1161.2639	1180.1422	1226.5834	1239.3702	1300.6441	1327.2833	1359.4341	1374.8677	1409.5402	1424.3892	1480.754	1497.7561	1499.1458	1510.3977	1712.6744	2246.0072	2998.8037	3007.2375	3025.3444	3030.8368	3051.1109	3093.2289	3098.6925	3103.7817	3502.4733
CC1COC(=NC1)C#C	C[C@H]1COC(=NC1)C#C	
InChI=1S/C7H9NO/c1-3-7-8-4-6(2)5-9-7/h1,6H,4-5H2,2H3	InChI=1S/C7H9NO/c1-3-7-8-4-6(2)5-9-7/h1,6H,4-5H2,2H3/t6-/m1/s1
