19
gdb 76826	2.80585	1.56974	1.27177	1.6367	77.41	-0.2377	0.0016	0.2393	1053.6944	0.159488	-422.995235	-422.987041	-422.986096	-423.027702	31.761	
C	 0.0570266507	 1.5605100898	 0.1828364386	-0.402696
C	-0.0028877223	 0.055687443	-0.0084305442	-0.091234
C	 0.7931369618	-0.6018526838	-1.224939283	 0.087685
O	 1.9254676205	 0.1247296493	-1.6110481815	-0.431499
C	 1.1699379783	-1.791233983	-0.2604408809	 0.040546
O	 2.5339910349	-2.152110352	-0.1195144589	-0.288044
C	 2.9121144633	-1.823540981	 1.2414791679	-0.11621
C	 1.8993006134	-0.7788864327	 1.6886438324	-0.231171
C	 0.8677662694	-0.8396655907	 0.8533576401	 0.198283
H	 1.0877931588	 1.9100559507	 0.0893257393	 0.133575
H	-0.5467516119	 2.0735436506	-0.5726777972	 0.118436
H	-0.3244365423	 1.8466897451	 1.1683556083	 0.115233
H	-1.0391363209	-0.3001094497	-0.0493614697	 0.0828
H	 0.1804966333	-0.8498546249	-2.0994305577	 0.071833
H	 2.6884580774	-0.3956314004	-1.3189587039	 0.291707
H	 0.5296460476	-2.6722521127	-0.3873622102	 0.083587
H	 2.9134381588	-2.7397382468	 1.8518966485	 0.11162
H	 3.9347409682	-1.4291922464	 1.2288633064	 0.11783
H	 2.1127032909	-0.0404545043	 2.4505239956	 0.10772
120.4351	149.1822	198.5915	219.4965	251.9157	279.3668	395.8994	455.8808	505.1941	572.7046	643.9667	708.7761	768.653	803.2435	838.1985	853.5283	900.5629	929.6336	966.9164	1007.3578	1011.6402	1046.8258	1063.9889	1115.1493	1121.7311	1164.8916	1170.4799	1201.6035	1228.602	1242.7293	1283.5041	1321.7271	1345.4153	1355.3087	1380.1115	1404.4727	1412.7613	1490.925	1497.6127	1514.8792	1715.196	2985.7361	3026.4926	3032.3148	3038.822	3046.6809	3054.8968	3101.9602	3129.4714	3218.2508	3713.3296
CC1C(O)C2OCC=C12	C[C@H]1[C@@H](O)[C@H]2OC[CH][C]12	
InChI=1S/C7H10O2/c1-4-5-2-3-9-7(5)6(4)8/h2,4,6-8H,3H2,1H3	InChI=1S/C7H10O2/c1-4-5-2-3-9-7(5)6(4)8/h2,4,6-8H,3H2,1H3/t4-,6-,7+/m1/s1
