21
gdb 90033	2.62834	1.41664	1.11815	1.5885	78.23	-0.2368	0.068	0.3047	1165.5659	0.181731	-424.199554	-424.190584	-424.18964	-424.233301	34.527	
C	-0.4666418867	 1.2987810516	 0.5572805721	-0.418679
C	-0.0139605997	-0.1020160214	 0.1789750392	-0.089858
C	 1.0839695736	-0.2582904041	-0.894106906	-0.096258
O	 1.9141265225	-1.0203839071	 0.0076014321	-0.32075
C	 0.9929668488	-0.8487105105	 1.0941354837	 0.467515
C	 1.5116992645	-0.2288976835	 2.4166436242	-0.29692
C	 0.624138243	-1.2303303779	 3.1871392536	 0.118142
O	-0.6048473278	-0.5913287546	 3.5018517983	-0.433876
C	 0.5537065873	-2.0948968449	 1.8978698197	-0.330661
H	 0.3867446123	 1.968461661	 0.7093161869	 0.116091
H	-1.0921454099	 1.7321383192	-0.2306117261	 0.110566
H	-1.0468320343	 1.2741774999	 1.4845317709	 0.139536
H	-0.8847547416	-0.7304306745	-0.0315713103	 0.075399
H	 0.8211856567	-0.8299092912	-1.7919286155	 0.098303
H	 1.5683105516	 0.6793073331	-1.1988559395	 0.095223
H	 2.5749973658	-0.452364735	 2.5373859404	 0.11061
H	 1.3319162102	 0.8290961157	 2.6151999358	 0.108625
H	 1.0594847759	-1.7021443474	 4.0763482352	 0.065023
H	-1.2378761057	-1.2730741292	 3.7495563201	 0.282348
H	-0.4078769514	-2.5557602424	 1.6499085625	 0.088464
H	 1.339276615	-2.8563189869	 1.875693183	 0.111156
58.3996	92.6005	207.2606	232.57	268.2027	319.7728	336.2544	364.4917	412.388	420.8144	487.1193	529.1859	742.002	808.666	818.1269	856.2532	896.4892	917.3009	931.6117	944.0032	981.5043	994.3547	1023.8935	1059.4672	1100.9682	1133.8027	1152.7947	1157.2119	1179.5027	1195.235	1199.2997	1233.9338	1254.6495	1281.1625	1305.0804	1326.3189	1343.4868	1387.268	1405.7783	1411.3435	1449.8779	1476.5075	1496.1115	1505.463	1527.4556	3006.1153	3020.5479	3031.3503	3044.1163	3045.658	3062.2008	3073.2799	3097.3192	3104.9598	3113.2099	3134.5114	3811.5337
CC1COC11CC(O)C1	C[C@H]1CO[C@]21C[C@@H](O)C2	
InChI=1S/C7H12O2/c1-5-4-9-7(5)2-6(8)3-7/h5-6,8H,2-4H2,1H3	InChI=1S/C7H12O2/c1-5-4-9-7(5)2-6(8)3-7/h5-6,8H,2-4H2,1H3/t5-,6-,7-/m0/s1
