19
gdb 91861	3.14884	1.289	1.11448	2.0641	76.38	-0.2204	-0.0384	0.182	1142.31	0.160169	-419.181819	-419.173527	-419.172582	-419.214805	31.428	
C	-0.3620906996	 1.2269400739	 0.8925544689	-0.3311
N	-0.0138581525	 0.1751149306	-0.0593484954	-0.061596
C	-1.1557969265	-0.7263687983	-0.3237507025	-0.177456
C	-1.038498441	-1.9023641199	 0.6527275958	-0.075799
N	-0.0940803283	-2.9242508565	 0.2238559693	-0.358359
C	 0.3859128891	-1.8787289956	 1.1530994534	 0.242283
C	 1.0628583039	-0.6972750973	 0.4586802565	-0.264299
C	 0.6514066605	-2.2796363568	 2.5522863671	 0.067029
O	 0.2953567656	-3.3372715902	 3.0214215206	-0.279551
H	 0.5060797144	 1.8727435525	 1.0553580199	 0.123093
H	-1.1624813829	 1.8453441667	 0.4756470728	 0.124226
H	-0.6993301369	 0.8551594042	 1.8789587973	 0.089985
H	-2.0985550374	-0.1861936322	-0.2128133875	 0.106548
H	-1.094100184	-1.1119563551	-1.3473123659	 0.122499
H	-1.8512556238	-2.1785335174	 1.3170725432	 0.113941
H	-0.2398776802	-3.7671722329	 0.7842117244	 0.248416
H	 1.6708928921	-1.0711853881	-0.3716532548	 0.123316
H	 1.7135193949	-0.1350690754	 1.1348451732	 0.105009
H	 1.2033926525	-1.5338533621	 3.1637454837	 0.081813
73.674	132.2829	198.4073	234.3063	259.2523	326.4482	356.5546	402.1332	467.8581	512.0236	674.5183	736.6985	746.1013	817.968	850.5507	896.5436	939.9829	978.1973	1002.8212	1015.6929	1033.3563	1048.2401	1098.7148	1120.2986	1157.7999	1159.2771	1227.8386	1263.0189	1289.8955	1301.9482	1332.7822	1335.886	1362.3133	1407.2832	1427.4013	1454.5825	1480.6012	1491.2856	1494.1869	1505.0345	1789.6425	2902.1209	2923.6186	3043.6523	3046.8496	3065.0412	3095.3445	3105.754	3111.8461	3166.3094	3441.9196
CN1CC2NC2(C1)C=O	CN1C[C@H]2N[C@]2(C1)C=O	
InChI=1S/C6H10N2O/c1-8-2-5-6(3-8,4-9)7-5/h4-5,7H,2-3H2,1H3	InChI=1S/C6H10N2O/c1-8-2-5-6(3-8,4-9)7-5/h4-5,7H,2-3H2,1H3/t5-,6-/m1/s1
