18
gdb 35975	3.15041	1.21212	0.94136	4.2219	73.01	-0.2653	0.0186	0.2839	1221.1481	0.148808	-439.08378	-439.075487	-439.074543	-439.11705	30.747	
N	 0.0823044741	-1.1705481977	-0.043475819	-0.317611
C	 0.0636080589	-0.0163095296	-0.01465273	 0.288622
C	-0.0051723699	 1.4541392456	 0.0279141093	-0.028248
C	-0.8144454995	 1.9206319089	 1.2563566873	-0.243578
C	-1.3419111685	 3.3686658683	 1.1252569633	-0.09646
O	-0.642897321	 4.1821394908	 0.2010073304	-0.243447
C	 0.7544650059	 4.3005579049	 0.4112689075	-0.091281
C	 1.5171055095	 3.2514363339	-0.3923957396	-0.075763
O	 1.3333509419	 1.9245624792	 0.074098482	-0.252989
H	-0.4977334838	 1.7918631267	-0.8963995116	 0.128197
H	-1.6620989007	 1.2475286728	 1.4202907139	 0.129768
H	-0.1508110361	 1.8126322434	 2.1191533342	 0.13204
H	-2.370661446	 3.3589597329	 0.7538466478	 0.121868
H	-1.3550452079	 3.8395486166	 2.1200531181	 0.103943
H	 1.047823224	 5.2965578937	 0.0582531801	 0.115077
H	 1.0081718876	 4.2310144921	 1.4788458674	 0.1044
H	 1.2135159572	 3.3318626485	-1.447506475	 0.107532
H	 2.5941638943	 3.4351967588	-0.326806846	 0.11793
74.3591	114.1131	161.7185	224.6551	299.5025	327.196	346.1591	416.3677	525.7392	540.9181	565.4376	583.1954	794.8312	851.5258	889.0154	901.8401	948.7638	1016.7991	1026.0847	1046.7786	1106.862	1123.7564	1147.9707	1170.0751	1252.2996	1261.9602	1284.6756	1308.8261	1330.1627	1369.7713	1378.3788	1393.1191	1411.5602	1418.4117	1474.4694	1481.673	1488.011	1506.5686	2367.5011	2989.6238	2993.4707	3001.5231	3005.7177	3056.8398	3065.5636	3079.8728	3088.6809	3106.8146
N#CC1CCOCCO1	N#C[C@H]1CCOCCO1	
InChI=1S/C6H9NO2/c7-5-6-1-2-8-3-4-9-6/h6H,1-4H2	InChI=1S/C6H9NO2/c7-5-6-1-2-8-3-4-9-6/h6H,1-4H2/t6-/m1/s1
