15
gdb 54076	2.30744	1.19758	0.86389	1.6837	70.28	-0.2574	-0.0018	0.2556	1301.703	0.109716	-453.928739	-453.91891	-453.917966	-453.965062	33.882	
N	 1.1751171539	 0.1177681524	 0.3075079992	-0.512607
C	-0.0106238479	 0.480695154	-0.228081705	 0.372034
O	-0.3240362042	 1.6017989664	-0.5620460917	-0.355829
C	-1.0244856043	-0.6834726892	-0.3965789967	-0.149924
O	-0.3483950125	-1.9271798186	-0.1611775408	-0.201204
C	-1.0092169322	-3.0625092897	-0.4948673961	 0.132041
N	-0.4442379028	-4.174101281	-0.3204105511	-0.436689
C	-2.1658657258	-0.5036526604	 0.4946770412	 0.362059
C	-3.1028380175	-0.3829394378	 1.2358829078	-0.469071
H	 1.8852327224	 0.8217603844	 0.4215174737	 0.269475
H	 1.3765710801	-0.8481597295	 0.5033137499	 0.287297
H	-1.3560335587	-0.633372574	-1.4416646052	 0.143204
H	-2.0118786124	-2.8826071173	-0.8995175896	 0.108514
H	-1.0559694667	-4.9299025549	-0.6213127015	 0.236897
H	-3.9301641814	-0.2630298448	 1.891652626	 0.213801
34.6253	53.3188	84.6717	134.2369	156.3516	230.6059	329.2842	353.3686	396.6144	408.7812	505.9143	542.3915	628.1664	640.5137	688.3655	701.173	731.0288	819.4459	908.7346	972.4203	1032.5204	1039.2744	1103.4979	1116.0656	1270.3994	1294.7795	1325.0393	1366.9189	1422.5644	1601.7103	1749.3708	1822.6633	2240.8522	3031.3497	3058.7325	3500.9858	3521.918	3601.4489	3739.6255
NC(=O)C(OC=N)C#C	NC(=O)[C@@H](O[CH][NH])C#C	
InChI=1S/C5H6N2O2/c1-2-4(5(7)8)9-3-6/h1,3-4,6H,(H2,7,8)	InChI=1S/C5H6N2O2/c1-2-4(5(7)8)9-3-6/h1,3-4,6H,(H2,7,8)/t4-/m0/s1
