18
gdb 30152	3.62064	1.24411	1.08702	1.6129	78.23	-0.2129	0.0295	0.2424	1141.8796	0.148474	-401.955055	-401.946825	-401.945881	-401.988781	31.046	
O	-0.2141616773	 0.8806739096	 1.5605249751	-0.426996
C	 0.0085767481	 0.0622220726	 0.4592503809	 0.127787
C	-0.5897850187	-1.3204451109	 0.460178198	-0.335485
C	-1.1365520261	-0.2677246632	-0.4768630302	-0.050571
N	-2.4058683003	 0.3319040895	-0.2041957207	 0.03414
C	-2.6697252474	 1.6812739137	-0.3420348158	-0.136648
C	-3.9884164356	 1.8973943135	-0.0136419233	-0.162603
C	-4.5471674326	 0.6387617883	 0.3380009441	-0.172245
C	-3.5524127861	-0.3023369866	 0.2103481145	-0.086218
H	-0.9778486833	 1.4436968701	 1.3769238055	 0.295499
H	 0.9888898803	 0.1976853282	 0.0076533471	 0.099574
H	-0.0383511742	-2.1462007433	 0.0255476938	 0.12122
H	-1.1882356519	-1.5649115279	 1.3297757768	 0.135896
H	-0.9051544588	-0.367785501	-1.5338920692	 0.112139
H	-1.9054314578	 2.3501454664	-0.7069442847	 0.125229
H	-4.4929583165	 2.8513972261	-0.023419648	 0.098443
H	-5.5608667109	 0.4454601796	 0.6535256324	 0.097829
H	-3.5544982509	-1.3667071646	 0.3791523639	 0.123009
37.4677	96.4407	138.3798	187.3377	285.5	378.7539	453.4712	568.8674	621.2397	625.1295	691.5288	703.0593	748.8871	812.4816	813.4647	824.7947	858.7271	883.7767	921.1653	989.7066	1030.3067	1063.3661	1072.7106	1090.884	1098.7323	1126.1025	1129.257	1156.6901	1224.2772	1279.756	1321.0155	1350.818	1378.5327	1389.2545	1406.9046	1429.2765	1475.7166	1526.2334	1560.1159	3126.3436	3137.3257	3145.7296	3239.3032	3240.305	3250.8243	3263.343	3276.2234	3743.019
OC1CC1N1C=CC=C1	O[C@H]1C[C@H]1n1cccc1	
InChI=1S/C7H9NO/c9-7-5-6(7)8-3-1-2-4-8/h1-4,6-7,9H,5H2	InChI=1S/C7H9NO/c9-7-5-6(7)8-3-1-2-4-8/h1-4,6-7,9H,5H2/t6-,7+/m1/s1
