22
gdb 118519	2.75776	0.8207	0.66967	4.6793	84.14	-0.2674	0.0329	0.3003	1704.1294	0.192057	-404.360052	-404.348975	-404.348031	-404.397483	38.223	
C	-0.350041637	 1.3907153066	-0.3151320167	-0.384727
C	-0.1585975647	-0.1081217651	-0.0596390533	-0.180698
C	 0.7282886421	-0.4630178021	 1.1501545037	-0.004768
C	 0.0582244308	-0.2188989282	 2.5068849178	-0.056789
O	-0.1075296884	 1.1626658173	 2.7236260199	-0.228951
C	-0.7093371782	 1.4531114102	 3.9640199135	-0.234227
C	 1.1558772003	-1.952640286	 1.1004716226	-0.357014
C	 1.9710802753	-2.2790316258	-0.0668220988	 0.266089
N	 2.6210005067	-2.5273741728	-0.9896830042	-0.312294
H	 0.6147322713	 1.8835903949	-0.4773222066	 0.116729
H	-0.9569067681	 1.5478132174	-1.212319784	 0.108538
H	-0.8355221185	 1.8834183024	 0.5278810251	 0.134864
H	-1.136352287	-0.5931872931	 0.0714264269	 0.09148
H	 0.2866549507	-0.5604583453	-0.9535675968	 0.121801
H	 1.6378738595	 0.1495160405	 1.1198025881	 0.104332
H	-0.9180472694	-0.7365568969	 2.5427011267	 0.086234
H	 0.6775045079	-0.6501591679	 3.3137149102	 0.082763
H	-0.7828768572	 2.5398923211	 4.0445017115	 0.132794
H	-1.7190145903	 1.0199429469	 4.0398244435	 0.107493
H	-0.108652976	 1.0725801373	 4.8051807382	 0.107356
H	 1.7286787511	-2.215876047	 1.9970787173	 0.148744
H	 0.2689200491	-2.5988787844	 1.0921695754	 0.150251
43.7946	62.4661	91.1397	106.2599	130.1729	194.471	231.2924	244.6767	263.0027	323.3641	369.9134	396.3197	420.8124	464.8706	609.6864	780.132	809.897	917.2163	924.3593	983.6014	1001.8478	1015.4269	1028.8733	1101.2484	1137.4046	1160.706	1170.6237	1188.7382	1221.8515	1235.7172	1265.9211	1291.64	1322.1176	1347.8298	1374.0758	1394.23	1414.9546	1435.1258	1466.539	1479.4233	1485.289	1488.0883	1497.4077	1501.6123	1512.8327	1527.1891	2361.1111	2931.0186	2957.6723	2972.8537	3009.3134	3017.6453	3031.4492	3040.8841	3043.1729	3059.8252	3075.0006	3100.6604	3120.5103	3147.7959
CCC(COC)CC#N	CC[C@@H](COC)CC#N	
InChI=1S/C7H13NO/c1-3-7(4-5-8)6-9-2/h7H,3-4,6H2,1-2H3	InChI=1S/C7H13NO/c1-3-7(4-5-8)6-9-2/h7H,3-4,6H2,1-2H3/t7-/m1/s1
