15
gdb 45383	2.23577	1.79244	1.26015	4.742	71.25	-0.2844	-0.0076	0.2768	1006.6955	0.113598	-416.802112	-416.794613	-416.793669	-416.834332	28.113	
N	-0.0770439815	 1.2295955682	-0.4725402981	-0.531292
C	-0.0172277561	 0.0513837741	-0.0643968482	 0.406427
O	 1.0006477375	-0.6640247148	 0.537785684	-0.265158
C	 0.2014858533	-1.8814093502	 0.5955886716	 0.069575
C	-0.5413886773	-2.0251679187	 1.9348297964	-0.23774
C	-1.7409982049	-1.2114438701	 1.3608516339	-0.283539
C	-1.0082575997	-1.1027683654	-0.0270033143	 0.060974
C	-1.7210214604	-1.4666178505	-1.2235956782	 0.209128
N	-2.2993462909	-1.790069176	-2.1708718325	-0.333889
H	 0.7970894951	 1.7347436856	-0.3211150489	 0.241027
H	 0.7116074793	-2.7219790204	 0.1289386538	 0.120732
H	-0.8000312637	-3.0597380021	 2.1694061588	 0.128018
H	-0.0097208642	-1.5884695692	 2.781429665	 0.132604
H	-2.6632395462	-1.7878307504	 1.2888495956	 0.143047
H	-1.9569267402	-0.2473421499	 1.8215885511	 0.140085
109.4978	127.9013	171.8639	220.8511	342.076	406.3559	523.3962	539.2893	608.9026	622.6841	708.464	748.4647	833.8327	866.1863	871.7325	916.5832	957.8917	983.1926	997.5361	1045.5422	1095.7055	1116.0465	1183.9777	1215.9047	1222.146	1244.3728	1275.3763	1314.3921	1346.4597	1467.3603	1487.4274	1832.9482	2359.004	3081.2369	3094.9661	3134.7272	3142.6335	3157.4059	3489.4226
N=C1OC2CCC12C#N	[NH][C]1O[C@H]2CC[C@@]12C#N	
InChI=1S/C6H6N2O/c7-3-6-2-1-4(6)9-5(6)8/h4,8H,1-2H2	InChI=1S/C6H6N2O/c7-3-6-2-1-4(6)9-5(6)8/h4,8H,1-2H2/t4-,6-/m0/s1
