18
gdb 12517	3.39747	1.82113	1.2525	2.1846	70.7	-0.24	0.0165	0.2565	980.3827	0.154488	-384.93553	-384.927771	-384.926827	-384.967876	28.811	
C	-0.3256039578	 1.4270163766	 0.064095174	-0.468889
C	 0.1086219457	-0.0188105084	 0.0351688202	 0.273919
C	 0.0254940319	-0.7378543314	-1.0866846944	-0.148573
C	 0.3097855548	-2.1967832868	-1.3347894196	-0.140648
O	 1.2840671545	-2.8296776336	-0.528664899	-0.219865
C	 1.0462769967	-2.792589002	 0.8469302576	 0.014183
O	 1.4610746954	-1.5983957239	 1.4440875979	-0.220937
C	 0.5424075989	-0.528309738	 1.395144009	-0.166681
H	 0.5172830614	 2.0888673921	 0.3004235	 0.129436
H	-0.749529338	 1.7406405129	-0.8924997947	 0.123809
H	-1.0821772558	 1.597711032	 0.8415048811	 0.124038
H	-0.3672208119	-0.2348399605	-1.9702455211	 0.082653
H	-0.6446263266	-2.7538539796	-1.2690814746	 0.100076
H	 0.6667518475	-2.3212525167	-2.3625523581	 0.119078
H	-0.0213085492	-2.9855954936	 1.0652644911	 0.069498
H	 1.6654753805	-3.5807963256	 1.2825089759	 0.113599
H	 1.025855204	 0.2858170425	 1.9461530371	 0.114985
H	-0.3700798517	-0.7884981361	 1.9654285775	 0.100319
56.6226	162.4081	205.0455	249.2747	316.0175	362.6652	383.7514	435.3922	475.8913	597.8376	696.207	812.3414	826.5838	910.9056	953.7191	991.1937	1010.2263	1025.2182	1075.4824	1089.2957	1101.442	1161.0404	1192.2458	1226.6975	1270.5507	1313.3044	1346.731	1372.8676	1404.6478	1410.5736	1421.4886	1448.0996	1476.4026	1480.6986	1484.9514	1493.0808	1502.8175	1750.9417	2919.2333	2922.0686	2929.5969	3014.8832	3060.3391	3062.9735	3066.1585	3098.2562	3117.9572	3126.4745
CC1=CCOCOC1	CC1=CCOCOC1	
InChI=1S/C6H10O2/c1-6-2-3-7-5-8-4-6/h2H,3-5H2,1H3	InChI=1S/C6H10O2/c1-6-2-3-7-5-8-4-6/h2H,3-5H2,1H3
