19
gdb 76509	3.13099	1.26458	1.15247	1.9221	75.68	-0.2176	0.0528	0.2703	1135.5258	0.158734	-422.961836	-422.953459	-422.952514	-422.99455	32.901	
O	 0.0700749496	 1.3524797991	-0.0915329942	-0.438803
C	 0.0270389927	-0.0441870073	-0.0683013377	 0.024533
C	-0.4684230122	-0.7072692697	 1.2018150393	-0.073465
O	-0.9221268226	 0.1615785401	 2.2127872873	-0.427183
C	-1.3095912118	-0.7440082049	-0.0386909557	 0.311123
C	-2.7015228013	-0.0929418858	-0.1694748994	-0.313998
C	-3.1624725759	-1.3420544351	-0.9403434991	-0.03795
C	-2.2900686186	-1.5804805397	-2.1408613581	-0.276435
C	-1.7782787844	-1.9801310694	-0.7823259595	-0.146991
H	-0.3713453436	 1.6440105502	 0.7183503612	 0.283469
H	 0.8535871968	-0.4852864549	-0.6186970572	 0.097077
H	-0.0118131487	-1.6314178605	 1.5548001318	 0.089406
H	-0.1757770685	 0.3534025624	 2.7919760473	 0.295964
H	-3.1901744183	 0.0240082927	 0.800376918	 0.118569
H	-2.7445005143	 0.8574194752	-0.7111101146	 0.104663
H	-4.1340697351	-1.8093441658	-0.839812232	 0.086028
H	-2.5961651944	-2.4023250771	-2.7807105137	 0.107799
H	-1.838210212	-0.7438770892	-2.6688876473	 0.113196
H	-1.5179252773	-3.0022886902	-0.5337201764	 0.082997
112.1651	135.9157	171.1285	247.3093	263.8049	307.8449	380.407	454.9395	485.9801	535.2398	607.9907	653.8303	749.4039	783.6358	817.5122	856.9212	880.8427	926.0697	950.8654	962.9293	998.9382	1033.6446	1059.1393	1065.5006	1085.0864	1097.0251	1124.6181	1138.3928	1151.6442	1180.0198	1201.0057	1242.2321	1253.3412	1282.59	1298.992	1331.2469	1362.4715	1409.5101	1477.9144	1482.1628	1496.5543	3049.4073	3103.1778	3107.8495	3109.2567	3147.2608	3174.2831	3186.6416	3201.7493	3743.113	3796.712
OC1C(O)C11CC2CC12	O[C@H]1[C@@H](O)[C@]21C[C@H]1C[C@@H]21	
InChI=1S/C7H10O2/c8-5-6(9)7(5)2-3-1-4(3)7/h3-6,8-9H,1-2H2	InChI=1S/C7H10O2/c8-5-6(9)7(5)2-3-1-4(3)7/h3-6,8-9H,1-2H2/t3-,4-,5-,6+,7+/m1/s1
