12
gdb 129305	2.92684	1.55225	1.01431	1.6548	66.5	-0.2693	-0.1334	0.1359	1048.5761	0.076708	-468.769898	-468.762386	-468.761442	-468.803301	26.112	
N	-0.1233481237	 1.167414056	 0.4860172895	-0.511251
C	-0.0688408385	-0.0206755222	 0.0510334239	 0.391382
O	 1.0900881379	-0.5476730445	-0.4854882481	-0.271054
N	 1.1457293867	-1.8546943923	-0.9625464087	-0.04709
C	 0.0590620927	-2.5360324159	-0.8734546529	 0.099253
N	-1.1652830747	-2.1348017408	-0.3615271497	-0.27436
C	-1.2247862643	-0.9283739539	 0.081310671	 0.169474
C	-2.5343382923	-0.4188677714	 0.6570783269	 0.111145
O	-3.5153003765	-1.1111149244	 0.7100816658	-0.217947
H	 0.7719663794	 1.6481856191	 0.3842954303	 0.245107
H	 0.1243221625	-3.5507609277	-1.2504979873	 0.163409
H	-2.5044818391	 0.6232923181	 1.0151158093	 0.141932
44.196	62.8676	215.7944	216.8302	355.6366	379.4006	492.4134	551.5446	554.4299	623.9895	763.7323	811.4122	875.381	889.3581	939.2411	944.2211	1006.6596	1035.626	1148.3492	1171.799	1324.7196	1365.6842	1410.9671	1574.7344	1661.322	1727.6328	1818.4974	3013.1941	3208.4514	3482.7998
N=C1ON=CN=C1C=O	[NH]C1=C([N]C=NO1)C=O	
InChI=1S/C4H3N3O2/c5-4-3(1-8)6-2-7-9-4/h1-2,5H	InChI=1S/C4H3N3O2/c5-4-3(1-8)6-2-7-9-4/h1-2,5H
