19
gdb 39974	3.56065	1.56564	1.41792	1.675	77.63	-0.2215	0.0827	0.3043	978.6177	0.161248	-385.839546	-385.832736	-385.831791	-385.870531	28.62	
C	-0.0352477305	 1.5029741263	-0.0217131295	-0.323791
C	 1.2845650246	 0.7659811008	-0.0269185692	-0.327367
C	-0.0163160952	 0.0030119491	 0.0130489767	 0.423476
C	-0.4518990255	-0.8199865669	 1.2390032753	-0.32291
C	-0.6946746887	-2.2172030419	 0.6622817276	-0.09001
C	-1.6588216077	-2.3201760331	-0.5067149976	 0.100763
O	-1.8966040921	-1.0342128186	-1.0792216128	-0.310472
C	-0.4401984361	-0.8330392956	-1.1685604876	-0.004778
C	-0.1876973857	-2.3056705525	-0.7670861764	-0.157839
H	-0.3236131421	 2.025463195	 0.8844263321	 0.113364
H	-0.3534271937	 1.9938696815	-0.9356927484	 0.11501
H	 1.8639951512	 0.7588784473	-0.9449965839	 0.109763
H	 1.8852513992	 0.7854178456	 0.8766586491	 0.110765
H	 0.3237588718	-0.843672227	 2.0112167772	 0.098696
H	-1.3604902182	-0.4095771831	 1.691713228	 0.111272
H	-0.6097825767	-3.0922813874	 1.2972691511	 0.08641
H	-2.4235052276	-3.0792910488	-0.6231270132	 0.099417
H	-0.1454285214	-0.475868769	-2.1569561348	 0.073505
H	 0.5030773145	-3.0222159819	-1.1881320538	 0.094727
109.0563	241.6663	280.8855	334.8589	425.0112	516.3695	534.8327	711.8784	737.1721	776.5322	795.2154	803.9295	823.9187	868.1578	888.2015	902.3347	943.8627	951.3569	973.472	982.3779	1008.4934	1025.0798	1037.0833	1055.2016	1067.6191	1075.1668	1084.0723	1109.7941	1185.8466	1203.5458	1221.8043	1238.1151	1248.1988	1283.1108	1294.6448	1324.5926	1381.3081	1410.3474	1467.9318	1491.6205	1506.2215	3041.854	3080.7579	3098.2166	3122.3863	3128.7068	3174.4958	3183.4305	3200.8556	3212.0713	3216.1454
C1CC11CC2C3OC1C23	C1CC21C[C@H]1[C@H]3O[C@@H]2[C@@H]13	
InChI=1S/C8H10O/c1-2-8(1)3-4-5-6(4)9-7(5)8/h4-7H,1-3H2	InChI=1S/C8H10O/c1-2-8(1)3-4-5-6(4)9-7(5)8/h4-7H,1-3H2/t4-,5+,6-,7-/m1/s1
