19
gdb 7144	6.54899	0.83781	0.75687	2.1665	70.77	-0.2574	0.0385	0.296	1530.0349	0.163345	-402.199112	-402.189285	-402.188341	-402.234821	33.196	
C	 0.0783209759	 1.5053759601	-0.1652280569	-0.389876
C	 0.0114523271	-0.0021433013	-0.0108763771	-0.029661
O	 0.6600631881	-0.5843962932	-1.1530375039	-0.251338
C	 0.701818812	-1.9287416877	-1.1963123272	 0.374485
N	 0.2066830458	-2.6676749249	-0.2972202556	-0.529124
C	 1.4161496464	-2.3684704367	-2.4583722724	-0.143298
O	 1.4532347996	-3.7702345561	-2.4936645063	-0.231354
C	 2.1022740842	-4.2791208072	-3.6360619551	-0.227427
H	 1.1159673969	 1.848591179	-0.2108678107	 0.12568
H	-0.4301865382	 1.8283810463	-1.07828592	 0.125682
H	-0.4068256355	 1.988238337	 0.6882875971	 0.120387
H	 0.5153435938	-0.3460744073	 0.8985014007	 0.119903
H	-1.0202183375	-0.3662092949	 0.0367441848	 0.119922
H	 0.3617995117	-3.6427038269	-0.5510131803	 0.23753
H	 0.8877442272	-1.9545476125	-3.3332495244	 0.112418
H	 2.4303207226	-1.935615959	-2.4666732329	 0.112408
H	 1.5962842588	-3.9689932981	-4.5632989535	 0.110187
H	 3.1512811061	-3.9492779611	-3.6886106753	 0.110183
H	 2.0761360651	-5.3686681755	-3.5650443011	 0.133292
53.2464	66.6721	89.6515	124.1027	142.211	229.1528	252.4762	255.7799	345.3519	385.0542	445.1472	568.4516	696.2905	806.2696	881.7672	891.0999	946.424	1012.0678	1051.9386	1057.9043	1128.63	1138.6389	1171.6917	1183.9955	1184.2258	1234.1063	1244.9666	1288.3856	1337.8019	1389.8393	1414.5513	1456.512	1477.2306	1485.5352	1485.8814	1495.7677	1496.7525	1518.5953	1522.5586	1743.8191	2964.0879	2979.2561	2991.7633	3024.0766	3044.3042	3047.0815	3082.5245	3118.9599	3121.6954	3122.0483	3503.8346
CCOC(=N)COC	CCO[C]([NH])COC	
InChI=1S/C5H11NO2/c1-3-8-5(6)4-7-2/h6H,3-4H2,1-2H3	InChI=1S/C5H11NO2/c1-3-8-5(6)4-7-2/h6H,3-4H2,1-2H3
