19
gdb 30851	2.76286	1.21078	0.89398	0.9789	81.18	-0.1731	0.0516	0.2247	1336.3338	0.158785	-419.232453	-419.222375	-419.221431	-419.267941	36.046	
C	-0.655299206	 0.9232533157	-0.1049452584	-0.322047
N	 0.7271232149	 0.4282613475	-0.0405356941	-0.394133
C	 0.9833004543	-0.5016574979	 0.984062576	 0.177831
C	 0.6193585217	-1.8173227059	 1.1768588079	 0.279531
O	-0.1504777626	-2.5176532617	 0.2847931632	-0.461559
C	 1.1776877948	-2.2598697519	 2.4070496424	-0.37084
C	 1.874772509	-1.195978501	 2.9511139629	 0.328736
C	 2.6484138694	-1.0955955534	 4.224308849	-0.502702
N	 1.7484268996	-0.1462364077	 2.0852291985	-0.32545
H	-0.8897582225	 1.4555084278	 0.8217782456	 0.120604
H	-0.7422067585	 1.6332838009	-0.9338955515	 0.109531
H	-1.402182731	 0.1281912085	-0.2410934531	 0.120482
H	 0.9908873747	 0.0443977623	-0.9412324444	 0.231407
H	-0.2562886865	-3.4134205463	 0.6162305369	 0.293393
H	 1.0798444093	-3.2403758995	 2.8511253175	 0.080499
H	 3.7022905855	-0.8422336407	 4.0518896469	 0.124404
H	 2.2382910445	-0.3353814698	 4.9013939921	 0.124937
H	 2.6230024297	-2.0525524987	 4.750954826	 0.133369
H	 2.1697188295	 0.7617402218	 2.1819914266	 0.252005
42.0384	85.7176	129.9873	181.7518	184.9528	211.9886	267.0187	272.8996	302.7962	418.7222	452.8632	496.0819	585.5858	639.4969	660.0074	686.6917	734.8011	758.9754	827.6645	999.8553	1018.6137	1034.9215	1059.2782	1119.1429	1146.2138	1172.4386	1178.6798	1251.3339	1278.627	1351.4567	1417.0268	1443.9262	1445.8843	1470.2248	1479.6005	1487.7209	1507.5364	1509.6382	1518.6682	1555.7326	1675.5602	2999.4656	3013.1992	3055.6961	3072.0655	3105.8957	3119.077	3226.1913	3521.9529	3674.1159	3848.7405
CNC1=C(O)C=C(C)N1	CNc1c(O)cc(C)[nH]1	
InChI=1S/C6H10N2O/c1-4-3-5(9)6(7-2)8-4/h3,7-9H,1-2H3	InChI=1S/C6H10N2O/c1-4-3-5(9)6(7-2)8-4/h3,7-9H,1-2H3
