18
gdb 46958	3.12455	1.59188	1.20221	3.2136	77.45	-0.2506	0.0084	0.259	1037.0927	0.151189	-401.984583	-401.977473	-401.976529	-402.016344	28.035	
N	-0.3013398861	 1.3871584182	-0.4116500903	-0.548301
C	-0.1231419124	 0.1443110883	-0.2782558089	 0.406507
O	 1.0577189901	-0.5021183892	-0.5005673122	-0.236991
C	 0.9546888931	-1.8930303452	-0.1632444083	-0.095911
C	-0.5488258211	-2.2404797848	-0.1172121687	-0.042296
C	-0.9314492214	-3.1213204208	 1.0945987828	-0.285183
C	-1.3148300932	-2.1020811062	 2.1431914237	-0.062355
C	-1.4583600242	-0.8799950993	 1.6333572711	-0.073463
C	-1.1850025892	-0.8519447907	 0.1427974778	-0.139709
H	 0.5689880265	 1.8469173124	-0.685617866	 0.219765
H	 1.5088881591	-2.4592857313	-0.9158638116	 0.117491
H	 1.4285712938	-2.0512615362	 0.8133155026	 0.112425
H	-0.8650571301	-2.6723138815	-1.0687215257	 0.083225
H	-1.7764877271	-3.7828357307	 0.8628284247	 0.113665
H	-0.1096930448	-3.7758453002	 1.4113405519	 0.107133
H	-1.4794306232	-2.3675534515	 3.181642317	 0.099369
H	-1.7528202626	 0.0124187008	 2.1720908089	 0.114998
H	-2.1001224572	-0.6519404721	-0.4234595586	 0.109631
89.5408	152.435	205.0275	305.3622	413.7478	451.3642	565.7473	647.926	670.1004	713.4271	763.4065	805.4648	865.9337	891.9138	904.6294	923.218	945.3305	973.3839	980.8392	1025.3822	1037.9205	1046.8344	1087.5058	1116.5961	1127.4185	1200.739	1225.7444	1246.5195	1270.5466	1285.0417	1294.503	1321.3055	1347.6384	1366.9247	1413.7757	1489.0648	1518.9634	1679.287	1772.738	3019.3575	3030.3494	3047.5699	3058.5122	3083.9116	3103.02	3190.4189	3219.6308	3468.2047
N=C1OCC2CC=CC12	[NH][C]1OC[C@H]2CC=C[C@@H]12	
InChI=1S/C7H9NO/c8-7-6-3-1-2-5(6)4-9-7/h1,3,5-6,8H,2,4H2	InChI=1S/C7H9NO/c8-7-6-3-1-2-5(6)4-9-7/h1,3,5-6,8H,2,4H2/t5-,6-/m1/s1
