19
gdb 82317	2.53108	1.73772	1.26083	0.9571	73.63	-0.2614	0.0838	0.3452	1036.5499	0.159386	-423.001682	-422.993851	-422.992907	-423.033922	30.946	
C	-0.7170778458	 1.2180201219	-0.0361210413	-0.418219
C	 0.0637110525	-0.0952802392	-0.065134706	-0.09037
C	 1.1494459703	-0.1574320217	-1.1240065689	 0.040258
O	 2.3294688275	 0.5845266567	-0.7781348458	-0.262559
C	 2.3353880251	-0.8399136539	-0.5923594638	 0.038241
C	 2.0752559334	-1.2607564009	 0.8372031708	-0.339238
C	 0.8300594458	-0.454179932	 1.2228617039	 0.44841
C	 0.7764677825	 0.338292222	 2.4562998843	-0.239393
O	 0.0705585404	-0.9044381957	 2.3417489567	-0.293161
H	-0.0418734223	 2.0679011568	 0.0994481116	 0.132407
H	-1.2622705277	 1.3637275582	-0.974189058	 0.113811
H	-1.4512729826	 1.2197427242	 0.7752437607	 0.127975
H	-0.6351592896	-0.9218211802	-0.2616376971	 0.090001
H	 0.8905412556	-0.1563275862	-2.1802226997	 0.094631
H	 3.0311719398	-1.3895373504	-1.2205698144	 0.098152
H	 1.8508036003	-2.33408602	 0.8741965301	 0.117984
H	 2.9219153078	-1.0730561323	 1.5035249956	 0.115513
H	 1.6320055692	 0.3282992217	 3.1309760922	 0.110616
H	 0.1507364876	 1.2254597708	 2.519547389	 0.114942
74.9413	188.6461	257.3624	266.3582	313.0923	367.5678	389.127	426.1506	503.7253	596.4117	649.0358	750.7296	813.8441	855.0359	862.1418	887.6701	917.9056	937.6831	962.8136	1011.4423	1026.3634	1054.324	1098.6027	1123.3212	1129.2594	1135.5329	1164.8601	1190.0151	1218.4554	1259.0799	1295.219	1309.1626	1326.9635	1369.1734	1399.4269	1420.7998	1441.653	1476.7294	1500.7097	1503.6411	1535.175	3004.6579	3037.4884	3039.0065	3086.6367	3092.0815	3103.3647	3117.2991	3140.1994	3155.3598	3176.1664
CC1C2OC2CC11CO1	C[C@H]1[C@H]2O[C@H]2C[C@]21CO2	
InChI=1S/C7H10O2/c1-4-6-5(9-6)2-7(4)3-8-7/h4-6H,2-3H2,1H3	InChI=1S/C7H10O2/c1-4-6-5(9-6)2-7(4)3-8-7/h4-6H,2-3H2,1H3/t4-,5-,6+,7+/m0/s1
