16
gdb 15241	2.36089	2.08589	1.43415	4.5358	66.02	-0.2416	0.0262	0.2677	924.32	0.129841	-379.896601	-379.887889	-379.886945	-379.929964	30.435	
C	 0.1018690617	 1.0694765438	 0.3602071035	-0.243723
O	-0.1799478553	-0.0134993801	-0.5173882306	-0.233098
C	-1.3878138008	-0.6290218777	-0.2733661036	 0.08822
C	-1.4875527294	-2.0639133527	-0.6987534101	-0.028227
N	-0.3993271221	-2.7858096592	-1.2908311229	-0.508624
C	-1.4525343551	-1.7452315605	 0.7974468926	-0.260964
C	-0.2708272326	-2.0453915826	 1.5476671539	 0.309962
N	 0.6902604188	-2.2781035197	 2.1499728778	-0.352182
H	 1.063218019	 1.4827761803	 0.050099698	 0.138653
H	-0.6683837762	 1.8497274947	 0.2831215844	 0.112282
H	 0.1713091121	 0.7320309525	 1.4009155925	 0.136777
H	-2.2661990468	 0.0162844329	-0.3331392118	 0.097547
H	-2.4580963054	-2.3920080928	-1.0590693829	 0.114198
H	-0.3836526896	-2.6094851671	-2.2915220493	 0.239887
H	 0.4851954471	-2.4435561779	-0.9268047332	 0.25485
H	-2.3780842055	-1.8565617139	 1.3519937916	 0.134442
99.4074	119.0323	138.3211	160.6111	176.7976	206.7702	310.7169	395.3308	413.168	586.8111	654.8856	669.6332	733.0759	773.9921	874.4545	918.8517	975.978	1032.6085	1057.2326	1102.5035	1127.9714	1166.9549	1182.988	1212.8475	1264.6749	1282.4345	1346.2493	1377.4712	1452.6533	1485.4786	1490.1143	1502.2555	1665.8789	2345.4821	3002.2764	3072.3972	3085.053	3135.7653	3155.2859	3171.3137	3495.3029	3572.584
COC1C(N)C1C#N	CO[C@H]1[C@@H](N)[C@H]1C#N	
InChI=1S/C5H8N2O/c1-8-5-3(2-6)4(5)7/h3-5H,7H2,1H3	InChI=1S/C5H8N2O/c1-8-5-3(2-6)4(5)7/h3-5H,7H2,1H3/t3-,4+,5-/m1/s1
