17
gdb 51772	2.31314	1.38607	0.94333	4.6936	71.31	-0.2415	-0.0361	0.2054	1223.9823	0.134399	-455.112279	-455.103078	-455.102134	-455.147971	31.488	
N	-0.2467110895	 1.193659148	-0.4034152453	-0.437118
C	-0.3518783753	-0.0556436223	-0.520817422	 0.129467
O	-1.0228554194	-0.7588230474	 0.425895708	-0.190428
C	-1.0855618182	-2.1596215517	 0.2632396646	 0.10978
C	-1.6507575388	-2.8460533043	 1.5237727196	-0.186654
N	-2.9360166449	-3.0832661115	 0.8225577837	-0.32116
C	-2.3564500573	-2.7072764505	-0.4797481998	-0.10239
C	-3.1602418641	-1.6917240484	-1.2697224035	 0.16318
O	-2.784899149	-1.2320089514	-2.3178224166	-0.252543
H	 0.2823067539	 1.5727924985	-1.1859465567	 0.233742
H	 0.0500329484	-0.6800246807	-1.3280421414	 0.098981
H	-0.1347108825	-2.5445364678	-0.1146742887	 0.097178
H	-1.0937686774	-3.749916438	 1.7986462933	 0.104632
H	-1.7333611307	-2.1925894597	 2.3970551796	 0.132055
H	-3.2994445728	-4.0263625384	 0.8855157558	 0.227325
H	-2.0905070718	-3.5362950283	-1.150472615	 0.095782
H	-4.1155180206	-1.3911008564	-0.7874034155	 0.098169
50.0204	63.9024	81.9578	91.7997	186.2537	224.5488	283.2061	391.1978	471.5082	542.036	617.6032	648.1387	816.5241	829.4761	870.5167	926.0772	969.8351	997.2546	1033.9846	1038.5013	1045.3741	1089.1218	1124.7573	1146.5002	1159.8131	1226.7605	1252.8596	1282.6779	1298.9044	1340.6598	1376.9663	1390.5493	1400.098	1428.1854	1506.9979	1749.2868	1822.8978	2906.6699	3006.8535	3025.7926	3045.1351	3071.2723	3089.8496	3521.3445	3550.6805
N=COC1CNC1C=O	[NH][CH]O[C@H]1CN[C@H]1C=O	
InChI=1S/C5H8N2O2/c6-3-9-5-1-7-4(5)2-8/h2-7H,1H2	InChI=1S/C5H8N2O2/c6-3-9-5-1-7-4(5)2-8/h2-7H,1H2/t4-,5-/m0/s1
