25
gdb 85914	2.43963	1.20733	1.01368	0.3343	95.78	-0.2254	0.0332	0.2586	1376.8548	0.22749	-352.392338	-352.381934	-352.38099	-352.426903	40.217	
C	-0.035275296	 1.6061182486	-0.0285548069	-0.401833
C	 0.0371168854	 0.0757894077	 0.0399619417	-0.064405
C	 0.7562224596	-0.5611463927	-1.1758302446	-0.26187
C	 1.5306461679	-1.8015070065	-0.6408095938	 0.277702
C	 0.7260127472	-3.1023190765	-0.8502366194	-0.415891
C	 2.9139573761	-1.946934173	-1.2957965409	-0.427318
C	 1.6210919827	-1.4773529076	 0.8380049168	-0.206135
C	 0.821727775	-0.4806963782	 1.2208502282	 0.321315
C	 0.6223873108	 0.0256502791	 2.6162234596	-0.49622
H	 0.9691910448	 2.0436682635	-0.0595363665	 0.112827
H	-0.5685575219	 1.9292373755	-0.9289207133	 0.112375
H	-0.5604549806	 2.0273437114	 0.834906533	 0.111075
H	-0.9969879669	-0.2988290939	 0.1067051701	 0.072158
H	 0.0688493572	-0.8154833333	-1.9889924572	 0.087659
H	 1.473667056	 0.1640994522	-1.5780366674	 0.089443
H	 0.6427053633	-3.3437072255	-1.916424805	 0.106328
H	 1.21093131	-3.9499875552	-0.3532160266	 0.106938
H	-0.2853685962	-3.0117383368	-0.4413134789	 0.110614
H	 3.523368386	-1.0523614378	-1.1316995208	 0.109373
H	 3.4583715722	-2.8049720843	-0.8849143131	 0.1062
H	 2.8220555215	-2.1010465345	-2.3772148169	 0.107826
H	 2.2468996293	-2.0585516256	 1.5105652134	 0.074967
H	 1.2308084151	-0.5299978109	 3.3349985006	 0.120101
H	 0.8814135696	 1.0879828675	 2.7035787565	 0.125618
H	-0.4286327982	-0.0622950131	 2.9226269116	 0.121154
72.6974	123.3211	182.1418	224.5476	233.2988	250.3082	253.6668	295.1038	303.751	327.9475	347.7796	442.4771	457.0503	542.6647	569.8563	597.2748	757.2846	811.147	869.9641	894.7896	911.014	930.9284	943.8135	964.0999	1013.3636	1015.9198	1028.9589	1057.5835	1082.385	1119.4666	1155.6545	1176.8762	1224.7022	1256.2078	1269.8425	1282.9928	1324.1041	1341.3184	1366.9428	1393.4876	1405.1332	1412.1895	1416.8604	1477.9872	1481.9112	1484.6359	1486.8695	1492.3379	1498.4746	1500.8469	1502.4798	1508.0179	1721.4594	2968.5214	3014.3168	3018.7183	3022.3348	3025.3568	3031.3846	3060.7707	3077.1171	3084.3038	3089.3456	3094.376	3097.1262	3097.8606	3099.4549	3108.4816	3161.2814
CC1CC(C)(C)C=C1C	C[C@H]1CC(C)(C)C=C1C	
InChI=1S/C9H16/c1-7-5-9(3,4)6-8(7)2/h5,8H,6H2,1-4H3	InChI=1S/C9H16/c1-7-5-9(3,4)6-8(7)2/h5,8H,6H2,1-4H3/t8-/m0/s1
