16
gdb 58139	1.89962	1.44834	1.35227	4.4285	65.36	-0.2726	-0.0504	0.2222	1084.6018	0.119425	-475.026986	-475.016676	-475.015732	-475.062388	35.912	
C	 0.0959536831	 1.4626779533	 0.0766126368	-0.448045
C	-0.0120081763	-0.0593222201	 0.1592688876	 0.095157
O	 0.6165482252	-0.5923936204	 1.3016347556	-0.417062
C	-1.495186425	-0.5646067688	 0.0688526092	 0.09732
O	-2.1237566699	-0.1538650056	-1.1300135461	-0.450795
C	-1.4668786519	-2.1045453971	-0.0133880159	 0.172465
O	-1.6675001004	-2.845052659	 0.9024473576	-0.219331
C	-2.2288284436	-0.1169324886	 1.2662397447	 0.258474
N	-2.7605059459	 0.3079643824	 2.2001631494	-0.331269
H	 1.147522458	 1.7475914304	 0.1593178321	 0.147515
H	-0.2781516031	 1.844509702	-0.8784066378	 0.122922
H	-0.4574120358	 1.9446705905	 0.8903502957	 0.142264
H	 0.5050292829	-0.5056754407	-0.6980753795	 0.112889
H	 0.2115468395	-0.2076332707	 2.0890965842	 0.300797
H	-2.2503735931	 0.8009040919	-1.1077411018	 0.304409
H	-1.2268716035	-2.4484275895	-1.0415938018	 0.11229
64.6629	71.9884	134.8805	153.2619	206.5765	224.7569	258.0026	300.5737	303.6087	346.0871	379.4478	410.7911	454.2501	494.8318	631.1462	665.0476	715.0959	867.8715	938.7089	990.8572	1024.5509	1090.9781	1119.7008	1138.6898	1163.4291	1296.6743	1329.7792	1366.9058	1400.4315	1407.4797	1416.2919	1491.8877	1499.3279	1861.816	2352.5488	2922.0508	3036.3416	3051.9142	3108.4972	3127.2214	3783.0366	3819.6541
CC(O)C(O)(C=O)C#N	C[C@@H](O)[C@@](O)(C=O)C#N	
InChI=1S/C5H7NO3/c1-4(8)5(9,2-6)3-7/h3-4,8-9H,1H3	InChI=1S/C5H7NO3/c1-4(8)5(9,2-6)3-7/h3-4,8-9H,1H3/t4-,5+/m1/s1
