15
gdb 25497	4.4408	0.97636	0.87058	2.3812	75.63	-0.2493	-0.0607	0.1886	1283.0296	0.113635	-416.863073	-416.855449	-416.854505	-416.89655	27.183	
O	-0.4442012263	 0.7290620412	 0.9159867613	-0.229035
C	 0.0819174163	 1.0325162054	-0.1206218185	 0.161616
C	 1.4062971293	 1.785260654	-0.2187080077	-0.370638
C	 1.3536020653	 2.8742069959	-1.2585774827	 0.290179
C	 1.4125738701	 4.2298969847	-0.917619718	-0.052751
N	 1.355882412	 5.2002340635	-1.8283075106	-0.228384
C	 1.2265689805	 4.8107585217	-3.0979156586	-0.009606
C	 1.1543910131	 3.4646853535	-3.4467083175	-0.019699
N	 1.2201277855	 2.4941123431	-2.5351517346	-0.290317
H	-0.361506993	 0.7742561298	-1.1060737038	 0.101914
H	 1.6698359457	 2.1659880257	 0.7701611548	 0.131829
H	 2.1600331231	 1.0469374747	-0.5234413726	 0.150071
H	 1.5135896259	 4.5341325979	 0.1214913573	 0.121142
H	 1.1795803671	 5.5891672954	-3.8545656009	 0.12204
H	 1.0452455253	 3.1607763734	-4.484645198	 0.121638
43.5339	79.5689	140.1598	253.49	349.8592	420.2776	438.7541	518.2814	610.2693	656.4115	774.6634	795.0769	867.8412	875.1796	969.8157	997.0803	1015.6128	1038.6329	1048.0014	1082.9621	1171.9607	1210.2604	1241.7202	1246.8912	1299.7063	1340.7557	1411.7624	1435.9106	1451.2051	1504.5476	1578.5275	1615.8276	1837.7616	2911.1847	3031.0847	3121.5232	3157.8228	3158.4279	3177.5194
O=CCC1=CN=CC=N1	O=CCc1cnccn1	
InChI=1S/C6H6N2O/c9-4-1-6-5-7-2-3-8-6/h2-5H,1H2	InChI=1S/C6H6N2O/c9-4-1-6-5-7-2-3-8-6/h2-5H,1H2
