19
gdb 101667	4.56623	0.70921	0.64598	2.8486	69.76	-0.2566	-0.052	0.2045	1675.3593	0.156735	-497.301444	-497.291497	-497.290553	-497.33686	36.034	
O	 0.1347030113	 1.4152938825	-0.1226644214	-0.427939
C	 0.0982554793	 0.0271295692	 0.1233908537	-0.048592
C	-1.3240730013	-0.5147906962	-0.0150403055	 0.113818
O	-1.7505885097	-0.1230038934	-1.3111115916	-0.457858
C	-1.3909360672	-2.0374379782	 0.1659237292	-0.250584
C	-2.8429772226	-2.5494106683	 0.2493882743	 0.035123
O	-3.6218996235	-2.1224755142	-0.8472926309	-0.435071
C	-2.8665199622	-4.0617533896	 0.3264937394	 0.139695
O	-3.4358260076	-4.7260723435	-0.5056544635	-0.256985
H	-0.3834331151	 1.546904989	-0.9267365828	 0.294579
H	 0.7559655409	-0.5251932155	-0.5691878403	 0.084358
H	 0.4671261954	-0.1338548965	 1.1421955119	 0.098668
H	-1.9502841954	-0.0318925414	 0.7555078803	 0.070592
H	-2.5904422494	-0.5709294463	-1.4831147809	 0.29891
H	-0.8801305808	-2.5136885508	-0.6793448665	 0.119149
H	-0.8652479495	-2.3256529636	 1.085512127	 0.105462
H	-3.2910681337	-2.1651396696	 1.1818555215	 0.107103
H	-3.8964848246	-2.9328511822	-1.3082812805	 0.301359
H	-2.3223263442	-4.5236211516	 1.1740707667	 0.108213
66.5457	71.1299	118.0163	146.9249	193.5122	270.0533	296.9143	334.5634	347.0019	442.547	460.8313	483.8821	512.1172	523.4891	560.4676	753.2931	840.5648	868.746	890.4533	979.8626	991.0922	1042.3689	1087.8858	1099.4678	1123.3313	1160.2651	1209.7498	1236.9436	1256.3383	1289.4587	1333.2361	1348.0374	1373.9494	1386.83	1399.8587	1431.4021	1442.4748	1458.6454	1467.2026	1501.1834	1812.3295	2941.5576	2948.804	2966.1413	2970.107	3025.1428	3068.4842	3079.1689	3666.4334	3737.9154	3781.9269
OCC(O)CC(O)C=O	OC[C@@H](O)C[C@@H](O)C=O	
InChI=1S/C5H10O4/c6-2-4(8)1-5(9)3-7/h2,4-5,7-9H,1,3H2	InChI=1S/C5H10O4/c6-2-4(8)1-5(9)3-7/h2,4-5,7-9H,1,3H2/t4-,5+/m1/s1
