21
gdb 115058	2.29577	1.37089	0.94569	1.5062	81.51	-0.2422	0.0106	0.2528	1313.2105	0.181367	-424.206733	-424.197123	-424.196179	-424.241682	34.701	
C	 0.2429114655	 1.6231907913	-0.280976917	-0.233053
O	-0.3081432894	 0.3602092085	-0.5702099772	-0.233532
C	 0.6160917251	-0.5506966804	-1.0987591516	 0.122396
C	 1.7012876805	-1.0854819118	-0.1267091701	-0.289516
C	 1.9788395141	-2.450174347	-0.7072170238	-0.057689
C	 1.0253855453	-2.8428128227	-1.5528972878	-0.093124
C	-0.0931326426	-1.8197040952	-1.629590252	 0.043669
O	-1.1778290687	-2.1370457823	-0.7700692391	-0.233339
C	-1.9995983024	-3.1717729545	-1.2528223573	-0.231218
H	 0.9990277123	 1.5773564392	 0.5170871118	 0.105837
H	 0.709949568	 2.0784979199	-1.1696834109	 0.099577
H	-0.5768179462	 2.2639378995	 0.0530127848	 0.127029
H	 1.1393381232	-0.0991216375	-1.9594257129	 0.06736
H	 2.5917284508	-0.4496436058	-0.0848978155	 0.09935
H	 1.2985337918	-1.1565526182	 0.8919447978	 0.126783
H	 2.8610083075	-3.0265815616	-0.4487287769	 0.096898
H	 1.002424269	-3.7889401593	-2.0805517017	 0.09538
H	-0.4783564839	-1.6691810789	-2.6500648604	 0.060771
H	-2.3960940325	-2.942650317	-2.2554631761	 0.099511
H	-1.4764791655	-4.138861819	-1.3039239447	 0.100774
H	-2.8381437322	-3.2678589172	-0.5584000396	 0.126138
66.9698	91.992	110.1983	156.2416	198.899	214.2566	279.0544	304.5884	351.3006	426.6638	500.1979	543.5081	688.0963	753.9516	792.4723	851.1552	918.446	971.6945	977.7077	982.8381	1026.6613	1055.3268	1097.732	1129.6047	1148.4342	1163.6687	1181.2875	1182.4451	1188.6903	1215.317	1239.6623	1280.4162	1303.1978	1333.9011	1371.4966	1381.7197	1399.1671	1477.7622	1479.6758	1482.5076	1490.5456	1493.1583	1509.2748	1510.4915	1676.8139	2948.3414	2966.8692	2968.6465	2983.1965	3014.1504	3017.453	3029.5719	3073.2525	3109.3386	3112.8613	3179.4806	3208.6859
COC1CC=CC1OC	CO[C@H]1CC=C[C@H]1OC	
InChI=1S/C7H12O2/c1-8-6-4-3-5-7(6)9-2/h3-4,6-7H,5H2,1-2H3	InChI=1S/C7H12O2/c1-8-6-4-3-5-7(6)9-2/h3-4,6-7H,5H2,1-2H3/t6-,7+/m1/s1
