21
gdb 87452	2.73247	1.3629	1.24558	1.2385	83.77	-0.2499	0.0784	0.3282	1144.1776	0.18189	-387.026237	-387.017582	-387.016637	-387.058983	34.445	
C	-0.0674237099	 1.5171208177	-0.0458731539	-0.404986
C	-0.0024670008	 0.0064346548	 0.0304812634	-0.122354
C	 1.3328569858	-0.7111067861	-0.198958118	-0.408908
C	 0.6932907069	-0.6896578641	 1.1458630828	 0.438776
C	 1.1777774113	-0.2529276235	 2.5443806665	-0.144991
C	-0.211186318	-0.7136282078	 3.0835414406	-0.285051
C	 0.262427524	-1.8216476782	 2.0835831549	 0.315272
O	-0.4129278456	-2.9428543205	 1.6449411524	-0.475619
C	 1.6795631107	-1.7165581136	 2.7403809207	-0.284759
H	 0.8340437519	 1.9707651122	 0.3793990254	 0.111118
H	-0.1531050035	 1.8593945634	-1.0833249931	 0.115619
H	-0.9278418457	 1.9114810459	 0.5065333873	 0.115025
H	-0.8715425745	-0.5068533662	-0.3764587709	 0.090209
H	 1.3237139856	-1.6370543982	-0.7658781183	 0.115547
H	 2.2063459482	-0.0883118235	-0.3726680807	 0.104718
H	 1.710132768	 0.6567713228	 2.8100332031	 0.081612
H	-0.2492500405	-0.9911439042	 4.1415698478	 0.080038
H	-1.0779160593	-0.1221091678	 2.781431455	 0.097041
H	-0.5778498477	-3.5186458981	 2.3990196678	 0.283936
H	 2.5258674294	-2.0314091071	 2.1265187826	 0.098007
H	 1.7680005736	-2.0603313381	 3.7756899748	 0.07975
125.1528	150.4829	181.9342	225.3607	241.6435	275.1966	378.5475	413.6235	459.2226	482.3265	611.1666	636.728	664.0963	772.4032	800.6457	819.0917	889.6138	907.6095	934.9541	950.5034	965.3396	987.1434	1023.2872	1054.4979	1060.4972	1069.5421	1104.5293	1110.599	1130.5061	1136.1283	1156.4609	1177.325	1194.9692	1205.9562	1217.489	1293.8411	1318.9028	1371.5572	1412.0789	1445.9323	1485.6335	1491.7746	1496.2079	1511.2643	1548.2712	3024.3869	3044.7657	3050.5697	3085.2883	3092.3981	3113.8635	3122.7662	3125.4142	3127.9688	3150.1885	3198.5334	3814.1629
CC1CC11C2CC1(O)C2	C[C@H]1C[C@]21[C@H]1C[C@]2(O)C1	
InChI=1S/C8H12O/c1-5-2-8(5)6-3-7(8,9)4-6/h5-6,9H,2-4H2,1H3	InChI=1S/C8H12O/c1-5-2-8(5)6-3-7(8,9)4-6/h5-6,9H,2-4H2,1H3/t5-,6-,7-,8-/m0/s1
