17
gdb 29856	3.42288	1.49018	1.06125	4.0035	77.13	-0.1835	0.0373	0.2208	1109.7779	0.13759	-418.028363	-418.020222	-418.019278	-418.061595	29.572	
C	 0.0023712512	 1.471103353	-0.0508293075	-0.33949
N	 0.0406713902	 0.0273872026	-0.0509404288	-0.110939
C	-0.0600439997	-0.8073997946	-1.1821290957	-0.296255
C	-0.0336595232	-2.0638039627	-0.69888205	 0.322298
C	 0.1495555456	-3.5703183943	-0.7177185016	-0.371878
C	 0.3741363805	-3.4351441228	 0.8411064085	-0.16729
N	 0.0736706656	-2.003252042	 0.6799348626	-0.124116
C	 0.1930469687	-0.7042325823	 1.1423572674	 0.446514
O	 0.3555531007	-0.266244311	 2.2658631404	-0.449047
H	 0.7995425885	 1.8909769721	-0.6747107865	 0.126323
H	-0.9620862312	 1.8478542718	-0.4100521474	 0.127713
H	 0.1503042918	 1.7925356958	 0.9819373801	 0.169527
H	-0.1228691665	-0.4024837602	-2.1773338584	 0.133751
H	-0.7314997293	-4.1530355458	-0.9963533266	 0.131591
H	 1.0129117127	-3.9389294879	-1.275416814	 0.132856
H	-0.3325259939	-3.9693821551	 1.4801568686	 0.132552
H	 1.3966941984	-3.6332780965	 1.1726163691	 0.135889
62.2899	118.9998	146.2958	182.1314	287.491	304.1911	332.4742	569.5236	588.7784	621.131	676.7401	723.373	731.1258	794.366	834.9599	896.3308	952.3405	1017.7665	1054.8774	1074.1971	1143.3863	1157.6629	1176.7171	1186.1768	1231.3074	1270.4793	1289.6992	1334.686	1373.2851	1410.2366	1454.1522	1481.7851	1495.3987	1512.3609	1518.5556	1681.9641	1812.559	3022.8019	3063.453	3072.8086	3076.0993	3111.7728	3127.0958	3140.7832	3280.2824
CN1C=C2CCN2C1=O	CN1[CH][C]2CCN2C1=O	
InChI=1S/C6H8N2O/c1-7-4-5-2-3-8(5)6(7)9/h4H,2-3H2,1H3	InChI=1S/C6H8N2O/c1-7-4-5-2-3-8(5)6(7)9/h4H,2-3H2,1H3
