22
gdb 115766	2.63408	0.954	0.79383	3.6644	84.64	-0.2466	0.0309	0.2776	1528.9057	0.194322	-404.372588	-404.362757	-404.361813	-404.408307	35.821	
C	-0.1210836591	 1.4428624526	-0.0443567733	-0.382894
C	-0.247879612	-0.0697954945	 0.1617778277	-0.186868
C	 0.7819207603	-0.6246765395	 1.1469851201	 0.00208
C	 0.4561006594	-0.3539371741	 2.6482594095	-0.229126
C	-0.1049470419	-1.79719503	 2.7693227884	-0.249476
C	 0.6505787278	-2.1534102996	 1.4647452969	 0.052362
N	 0.0191902395	-3.0391438338	 0.5171837065	-0.286215
C	 0.6531968288	-4.0875464097	-0.0782266093	 0.150062
O	 1.807770206	-4.4083795457	 0.1056405129	-0.321764
H	 0.8650332776	 1.7012528214	-0.4452166804	 0.119355
H	-0.8745715306	 1.8124619417	-0.746683917	 0.112886
H	-0.248116993	 1.988383831	 0.8966499839	 0.119203
H	-1.264479111	-0.3029630527	 0.5103206633	 0.083372
H	-0.1297995726	-0.5794330178	-0.8028817228	 0.099033
H	 1.7830567213	-0.3218737192	 0.8229719974	 0.071709
H	 1.3559943146	-0.2071497871	 3.2503533242	 0.107148
H	-0.2375566587	 0.4634275671	 2.8596828847	 0.099271
H	 0.1386851686	-2.376109027	 3.6629381964	 0.10728
H	-1.1903139807	-1.8245464106	 2.6279074169	 0.095532
H	 1.629730849	-2.5864246107	 1.6727847403	 0.122624
H	-0.9445077568	-2.8758871886	 0.2710107554	 0.243802
H	-0.0223622965	-4.6346982832	-0.7663744316	 0.070622
33.3253	104.2145	116.975	146.1895	198.9309	211.7115	235.0171	303.169	389.7714	403.0241	531.6881	545.8006	648.7157	741.0216	773.164	816.2559	844.2879	900.8349	928.0979	961.7115	978.0459	999.1814	1028.4998	1053.9906	1072.3741	1107.3647	1136.9757	1170.7453	1214.4773	1221.5808	1253.9954	1260.9022	1275.169	1277.4103	1312.9899	1341.6198	1364.8033	1393.496	1413.5708	1433.2906	1480.6749	1487.4385	1497.5042	1500.2909	1507.773	1531.614	1806.619	2928.4652	3000.7114	3032.6997	3039.0781	3050.6613	3052.6417	3065.6245	3099.8002	3101.3434	3103.8881	3113.9598	3123.6753	3628.6937
CCC1CCC1NC=O	CC[C@H]1CC[C@H]1NC=O	
InChI=1S/C7H13NO/c1-2-6-3-4-7(6)8-5-9/h5-7H,2-4H2,1H3,(H,8,9)	InChI=1S/C7H13NO/c1-2-6-3-4-7(6)8-5-9/h5-7H,2-4H2,1H3,(H,8,9)/t6-,7+/m0/s1
