19
gdb 102026	2.61032	1.10875	0.83013	2.149	76.09	-0.2596	-0.0259	0.2337	1385.7686	0.158592	-456.376728	-456.366912	-456.365968	-456.411709	35.251	
C	-0.1303146497	 1.5969390545	 0.0306964685	-0.383559
C	-0.0010013254	 0.0736018071	-0.020562888	-0.161586
N	 0.7438618385	-0.4789183293	 1.1208640542	-0.109557
C	 0.050662419	-0.7184958587	 2.3104609975	 0.090951
N	-1.1919803506	-0.470288299	 2.4031456797	-0.471571
C	 2.0996312718	-0.7409086979	 1.0863221497	 0.400958
O	 2.716613144	-1.1633534307	 2.0511834047	-0.380584
C	 2.8606370092	-0.5025838755	-0.2215438687	-0.16016
O	 4.2175347725	-0.7608472777	-0.0298469416	-0.422576
H	 0.8487738803	 2.0857797112	 0.021321732	 0.12269
H	-0.6944214772	 1.9499924616	-0.8379062533	 0.125058
H	-0.6648183186	 1.9002457711	 0.9333630559	 0.151324
H	-0.9925397075	-0.3815481084	 0.0102516862	 0.150746
H	 0.4853028889	-0.2501886107	-0.9418499207	 0.121904
H	 0.701350704	-1.1240651463	 3.0844427208	 0.149422
H	-1.5289196231	-0.7174191839	 3.331597602	 0.235657
H	 2.438646441	-1.1585674817	-1.0012243025	 0.121339
H	 2.7037152149	 0.5324642296	-0.5594915303	 0.122576
H	 4.2829502881	-1.0813213651	 0.8854759939	 0.296967
79.2736	88.0467	129.9536	161.1745	202.9059	223.0408	236.4464	350.7204	375.3649	421.1238	422.9957	456.0908	547.4149	575.9866	710.1901	792.0596	798.509	839.8474	963.0112	997.4712	1029.0361	1085.2855	1103.7404	1123.3504	1145.5302	1178.0441	1262.1051	1290.5738	1309.9085	1347.4412	1374.5837	1400.0284	1411.8124	1426.5343	1477.7791	1485.322	1493.4403	1504.1902	1509.8201	1710.9089	1758.5401	2969.1804	3008.1262	3045.0716	3088.019	3111.665	3128.9127	3145.6046	3145.8596	3508.4474	3663.4961
CCN(C=N)C(=O)CO	CCN(C=N)C(=O)CO	
InChI=1S/C5H10N2O2/c1-2-7(4-6)5(9)3-8/h4,6,8H,2-3H2,1H3	InChI=1S/C5H10N2O2/c1-2-7(4-6)5(9)3-8/h4,6,8H,2-3H2,1H3
