21
gdb 107666	3.30417	1.22052	1.03689	1.3181	78.06	-0.249	0.0795	0.3285	1234.2873	0.183187	-424.222251	-424.213596	-424.212652	-424.255591	33.203	
C	-0.4453044455	 1.4376712574	 0.1304802103	-0.38398
C	 0.2041781759	 0.0684344681	-0.1080037341	-0.25966
C	 0.9242493793	-0.4753045636	 1.110485519	 0.407497
C	 2.1470155078	 0.2802305295	 1.603844961	-0.278729
C	 2.8323292698	-0.4676105241	 2.7507692886	-0.089829
O	 3.1195785588	-1.805339571	 2.3789831825	-0.250056
C	 1.9532383983	-2.5920150293	 2.224422833	-0.105335
C	 0.8440565694	-1.9085331578	 1.4445568137	-0.036149
O	 0.0597481178	-0.9419001256	 2.1631488959	-0.30085
H	 0.2989098317	 2.2126679524	 0.3380083632	 0.118231
H	-1.0129809134	 1.7540760927	-0.7493518834	 0.114797
H	-1.1331578347	 1.391648725	 0.9801334474	 0.134155
H	-0.5673531156	-0.65236856	-0.3999266991	 0.10327
H	 0.9150220578	 0.1282724299	-0.9421358435	 0.100284
H	 2.8506946253	 0.3924517794	 0.7700866753	 0.10786
H	 1.8641857376	 1.2869005932	 1.9333983977	 0.106053
H	 3.792276489	-0.003984445	 2.9934835708	 0.106133
H	 2.1969336714	-0.4424097676	 3.6483608258	 0.104552
H	 2.2679284962	-3.498351901	 1.6970133451	 0.110561
H	 1.5534346252	-2.8926679746	 3.207572067	 0.102022
H	 0.2514462079	-2.5636760481	 0.8046638239	 0.089173
70.1544	128.3082	176.593	212.1156	264.6033	330.2558	343.0606	397.5827	401.6188	525.214	565.8211	654.2686	698.9306	776.3083	810.5562	874.4456	898.4819	931.6273	954.726	984.9338	1033.449	1050.7712	1055.1563	1086.3003	1110.2847	1134.9313	1161.9691	1224.4932	1247.1187	1268.5543	1292.3082	1319.6767	1330.4797	1373.5455	1378.2513	1391.6594	1408.161	1421.7336	1461.1037	1474.9909	1483.604	1487.6688	1498.6012	1501.5422	1508.4791	2966.9348	3001.3426	3026.6629	3032.0369	3041.2395	3068.5064	3073.199	3074.6398	3092.677	3101.6581	3109.9996	3116.4253
CCC12CCOCC1O2	CC[C@]12CCOC[C@H]1O2	
InChI=1S/C7H12O2/c1-2-7-3-4-8-5-6(7)9-7/h6H,2-5H2,1H3	InChI=1S/C7H12O2/c1-2-7-3-4-8-5-6(7)9-7/h6H,2-5H2,1H3/t6-,7+/m1/s1
