20
gdb 96709	2.91431	0.95126	0.80053	1.9795	80.34	-0.2404	-0.0707	0.1697	1506.7847	0.16672	-440.299998	-440.289186	-440.288242	-440.336469	37.569	
C	-0.1611445214	 1.518396037	 0.0848766957	-0.312083
N	-0.1042451265	 0.066113165	 0.0396369964	-0.306884
C	 0.5055760101	-0.5548828547	-0.879056247	 0.325646
O	 0.5902662379	-1.9021269814	-0.92989425	-0.274211
C	-0.0292419083	-2.6725582121	 0.1291550514	 0.153789
C	-1.5205856796	-2.8337468717	-0.1503313163	-0.396029
C	 0.7216953039	-3.9956248087	 0.1759394837	-0.393011
C	 1.2493182761	 0.0045995353	-2.0696727151	 0.10186
O	 1.3725496258	 1.1806126196	-2.2983648134	-0.241406
H	 0.83402512	 1.9718207159	 0.1511657054	 0.134822
H	-0.6412161935	 1.9421223327	-0.8042235864	 0.134968
H	-0.7378661241	 1.8107889077	 0.9662335536	 0.11741
H	 0.1078338292	-2.1152336379	 1.0608911985	 0.10736
H	-1.9851228524	-3.4333715557	 0.6387439656	 0.117966
H	-2.0132685288	-1.8601238996	-0.1761467698	 0.139146
H	-1.6790748584	-3.3417231667	-1.1070446577	 0.118563
H	 1.7862790584	-3.83256242	 0.3639479516	 0.123171
H	 0.3217286569	-4.6257084978	 0.9757659782	 0.120366
H	 0.6174139865	-4.5346046056	-0.771015652	 0.124361
H	 1.6792617083	-0.7784551513	-2.7278719525	 0.104197
54.0989	72.1766	96.8378	153.953	165.2323	209.8773	227.4079	247.0604	267.5235	310.6214	379.0881	407.8294	443.8852	485.4228	551.1372	735.2592	840.8658	853.9033	933.9272	943.9663	950.9241	1022.9831	1089.9242	1108.7915	1143.1079	1152.4665	1167.2879	1205.4671	1271.3428	1357.3665	1381.1744	1400.0931	1415.3898	1421.2292	1437.9526	1480.069	1480.5468	1485.678	1495.8456	1501.4004	1512.0425	1716.8619	1824.6634	2925.6567	3023.8968	3040.7558	3044.7216	3066.8568	3083.2123	3103.4974	3109.619	3119.627	3121.5838	3139.2975
CN=C(OC(C)C)C=O	CN=C(OC(C)C)C=O	
InChI=1S/C6H11NO2/c1-5(2)9-6(4-8)7-3/h4-5H,1-3H3	InChI=1S/C6H11NO2/c1-5(2)9-6(4-8)7-3/h4-5H,1-3H3
