18
gdb 58491	2.25387	1.2774	1.08118	4.821	72.88	-0.2778	-0.0018	0.276	1207.1383	0.144485	-439.077691	-439.067794	-439.06685	-439.112393	35.807	
C	 0.2143502753	 1.2027096622	-0.4612653453	-0.427511
C	 0.0301104264	-0.0561742765	 0.3846561899	 0.048526
O	 0.3628861772	 0.1492934399	 1.7516308792	-0.424835
C	-1.3910431521	-0.616719203	 0.2662681245	 0.401267
C	-2.4937867628	 0.1441044098	 0.9674252801	-0.488081
O	-1.7143314834	-1.111985335	-1.0396803621	-0.272767
C	-1.5944213088	-2.0664751216	 0.0199178902	-0.169978
C	-0.4948133852	-3.002786082	-0.070154626	 0.31739
N	 0.3673598604	-3.7702814416	-0.1311708407	-0.334906
H	 1.2509465417	 1.5431706149	-0.3957775051	 0.134568
H	-0.0237438489	 0.9985678705	-1.5084203094	 0.147259
H	-0.4355953101	 2.0170561297	-0.1182483411	 0.111658
H	 0.7239032491	-0.8230060786	 0.0262896476	 0.121263
H	 0.065456694	 1.0291236926	 2.0054409067	 0.285688
H	-2.5540690918	 1.1713372971	 0.594119132	 0.134907
H	-3.4614264455	-0.3317693597	 0.7941139681	 0.137153
H	-2.3032882794	 0.1757903751	 2.0433407495	 0.142759
H	-2.5313953062	-2.5212896537	 0.337537002	 0.135641
60.111	117.5051	146.2216	200.775	221.7117	253.8932	264.7745	284.2719	312.9444	355.0256	418.7668	467.56	513.4098	586.0747	611.3419	709.8458	804.7325	893.2673	930.8871	967.9673	1015.4323	1052.7893	1063.3432	1087.459	1103.8536	1136.9442	1269.5882	1292.3042	1315.0783	1374.0265	1401.5369	1404.1763	1410.5745	1446.9922	1483.5328	1495.8019	1498.0328	1504.4904	2359.788	3032.8041	3048.6308	3068.2639	3107.253	3117.866	3127.6593	3131.9931	3135.3829	3814.7753
CC(O)C1(C)OC1C#N	C[C@@H](O)[C@@]1(C)O[C@H]1C#N	
InChI=1S/C6H9NO2/c1-4(8)6(2)5(3-7)9-6/h4-5,8H,1-2H3	InChI=1S/C6H9NO2/c1-4(8)6(2)5(3-7)9-6/h4-5,8H,1-2H3/t4-,5+,6-/m1/s1
