17
gdb 69244	2.78902	1.67189	1.21925	3.9725	75.13	-0.2179	-0.0068	0.2112	1030.5569	0.137196	-418.034582	-418.026719	-418.025775	-418.066888	30.464	
C	-0.0523706123	 1.5011137563	 0.0440417756	-0.451082
C	-0.0401401611	-0.0102952715	-0.0768240388	 0.279661
C	 0.7722031353	-0.6422113893	-1.1701804539	-0.28441
N	 1.263716326	-0.6398077162	 0.2138207131	-0.186224
C	 1.3558942233	-1.8659486892	 0.9128373086	 0.430666
O	 2.3801705965	-2.5018149766	 0.9781068266	-0.356363
N	 0.201371858	-2.2635204572	 1.5703156126	-0.359396
C	-1.0657941955	-1.7637738562	 1.2681411475	 0.009388
C	-1.2333734414	-0.7134557646	 0.4630436753	-0.197964
H	 0.8870229615	 1.9243691044	-0.3199461539	 0.131101
H	-0.8761573391	 1.9235210748	-0.54186343	 0.119365
H	-0.1868679516	 1.8046212069	 1.0869042489	 0.128343
H	 0.4232965953	-1.5863695024	-1.5795754057	 0.127092
H	 1.3421583915	-0.0233172499	-1.8580279075	 0.124068
H	 0.2950162388	-3.1117479164	 2.1058183228	 0.2607
H	-1.8886604367	-2.3002637362	 1.7252862043	 0.124872
H	-2.2233293886	-0.3332742766	 0.2460427844	 0.100184
79.2961	157.5905	208.9262	271.9136	322.992	362.6334	461.7545	506.6459	533.7612	556.3753	586.0703	687.4876	726.4746	742.1618	789.2597	881.4313	924.9868	939.0341	944.9946	963.1148	1045.0306	1083.502	1110.4981	1121.2084	1141.982	1204.9779	1226.8635	1309.3422	1359.3795	1411.7877	1426.2782	1464.823	1483.1085	1497.0947	1506.7687	1725.2943	1824.9264	3036.1676	3103.2389	3105.9973	3124.8716	3197.5476	3198.8772	3219.3324	3646.2641
CC12CN1C(=O)NC=C2	C[C@@]12CN1C(=O)NC=C2	
InChI=1S/C6H8N2O/c1-6-2-3-7-5(9)8(6)4-6/h2-3H,4H2,1H3,(H,7,9)	InChI=1S/C6H8N2O/c1-6-2-3-7-5(9)8(6)4-6/h2-3H,4H2,1H3,(H,7,9)/t6-,8?/m1/s1
