20
gdb 112341	2.11616	1.39878	0.88619	4.7352	83.18	-0.2363	-0.0201	0.2162	1337.7228	0.170737	-403.214492	-403.205041	-403.204097	-403.248844	34.843	
C	-0.0487533184	 1.5640213948	 0.0839468866	-0.391895
C	-0.0965159506	 0.0377076872	-0.0218591566	-0.172716
C	 0.6932262428	-0.5124751622	-1.224726607	-0.063182
N	 2.1127023565	-0.2287053066	-1.1551339638	-0.343935
C	 2.9031950171	-1.3557184183	-1.2843625083	 0.421899
O	 4.1148872942	-1.3785515086	-1.3419298946	-0.390913
C	 1.9386971985	-2.488641656	-1.3413598903	-0.331834
C	 0.6823625524	-2.0308903966	-1.3229767849	 0.332934
C	-0.5899535999	-2.8109130334	-1.3848981058	-0.495515
H	 0.975255181	 1.9204577894	 0.2346489996	 0.121854
H	-0.4430080868	 2.038866923	-0.8217441422	 0.116328
H	-0.6454011023	 1.9162616748	 0.9303465835	 0.121804
H	 0.3050475655	-0.416769809	 0.8911532117	 0.110417
H	-1.1390069253	-0.2892424955	-0.1144856175	 0.100483
H	 0.2546620774	-0.0893982801	-2.1449862721	 0.090902
H	 2.5058374665	 0.6897669882	-1.2714809683	 0.249644
H	 2.2648700909	-3.517437461	-1.4085200421	 0.1144
H	-0.3918579601	-3.875536451	-1.5291256404	 0.13621
H	-1.1754027537	-2.6970560021	-0.464575376	 0.139549
H	-1.2282383655	-2.4660155368	-2.2075409216	 0.133567
86.814	106.1816	144.2981	172.7449	191.1393	237.0906	268.3096	339.0625	409.1602	436.4418	530.2433	544.0226	578.887	686.6367	740.4675	786.13	847.1287	888.2562	943.6059	955.1312	1010.1547	1018.3278	1048.1477	1074.5663	1129.4835	1130.6636	1159.7263	1214.0733	1281.8894	1291.8175	1329.702	1359.9223	1374.3931	1404.9703	1414.9123	1416.8743	1476.6498	1482.7143	1484.5632	1498.9619	1508.7786	1694.148	1820.4359	2955.8269	3024.9373	3031.7079	3033.6823	3071.7861	3074.2865	3102.836	3109.6619	3121.9284	3232.8217	3667.6147
CCC1NC(=O)C=C1C	CC[C@H]1NC(=O)C=C1C	
InChI=1S/C7H11NO/c1-3-6-5(2)4-7(9)8-6/h4,6H,3H2,1-2H3,(H,8,9)	InChI=1S/C7H11NO/c1-3-6-5(2)4-7(9)8-6/h4,6H,3H2,1-2H3,(H,8,9)/t6-/m1/s1
