16
gdb 15244	2.36652	1.93355	1.3566	3.1909	65.28	-0.2464	0.0188	0.2652	946.2287	0.130712	-379.90624	-379.897635	-379.896691	-379.939723	30.697	
N	 0.1411694877	 1.4822604163	-0.0044523037	-0.508575
C	-0.0107041496	 0.060399737	-0.008058798	 0.001775
C	-1.3353317485	-0.604185288	 0.1637675773	-0.056763
C	-2.6451773801	 0.1546239609	 0.2548224897	-0.087148
O	-3.7328724024	-0.6052069881	-0.2385973906	-0.418591
C	-0.6146102545	-0.7495637063	-1.1880231493	-0.23391
C	-1.1299983193	-0.0284211885	-2.3092760606	 0.272112
N	-1.5629007213	 0.5884550047	-3.1899694923	-0.34942
H	 1.0002081945	 1.7440626162	-0.4782442181	 0.244796
H	-0.6142341955	 1.9487229635	-0.494411106	 0.248604
H	 0.831820123	-0.43742799	 0.4625630391	 0.117345
H	-1.3379757099	-1.5203532194	 0.7469494265	 0.114377
H	-2.8649640733	 0.3580975131	 1.3076515051	 0.12563
H	-2.5802709486	 1.1259594616	-0.2533045762	 0.101231
H	-3.6524877197	-0.6403655509	-1.19823005	 0.296766
H	-0.1789843627	-1.7135648823	-1.426753903	 0.131771
52.9386	125.4627	140.2771	180.8736	224.1414	290.083	357.7678	394.0413	414.0061	553.8479	619.5295	645.534	718.0475	792.7091	855.8807	893.8326	932.2444	967.4927	1020.1368	1070.0278	1110.2388	1118.2344	1148.5951	1213.1065	1259.3518	1277.8403	1346.6026	1367.7234	1409.4384	1425.613	1468.9985	1492.9531	1667.0722	2333.3787	3016.6587	3081.4926	3151.8249	3159.9692	3174.0977	3508.6938	3588.3252	3806.7169
NC1C(CO)C1C#N	N[C@H]1[C@@H](CO)[C@H]1C#N	
InChI=1S/C5H8N2O/c6-1-3-4(2-8)5(3)7/h3-5,8H,2,7H2	InChI=1S/C5H8N2O/c6-1-3-4(2-8)5(3)7/h3-5,8H,2,7H2/t3-,4+,5-/m1/s1
