16
gdb 26041	3.18355	1.19573	1.02436	3.1051	76.59	-0.2248	0.0184	0.2432	1182.5171	0.125694	-396.919776	-396.911281	-396.910337	-396.953764	31.462	
N	-0.0970691907	 1.4729376659	 0.0593500341	-0.50541
C	 0.0177948385	 0.010853816	 0.0067710858	-0.249714
C	 0.693378714	-0.5025465777	-1.1998984243	 0.329087
C	 1.2234051988	-0.8976036718	-2.2046836764	-0.487965
C	 0.7364656389	-0.4574745006	 1.2492964755	 0.398654
N	 1.6352021055	 0.236017442	 1.9078238365	-0.302978
C	 2.052659653	-0.5775309934	 2.9367655188	-0.083782
C	 1.398257179	-1.7783370783	 2.8926395015	-0.112902
N	 0.5534545428	-1.6872409336	 1.8063360835	-0.291881
H	 0.7807332083	 1.8379073839	 0.4214970971	 0.254432
H	-0.2144886982	 1.8332466357	-0.8820716003	 0.232727
H	-0.9972323808	-0.4148510667	 0.0198640245	 0.109334
H	 1.7037374195	-1.2441531096	-3.0862483616	 0.200041
H	 2.7939936668	-0.2485612041	 3.6485047503	 0.110981
H	 1.4397807739	-2.659017277	 3.5111708873	 0.131007
H	-0.0684427393	-2.4054044108	 1.4741702876	 0.268369
29.863	100.0823	190.7453	221.614	260.015	296.5307	411.3643	448.3684	534.5268	576.9798	630.6515	643.9163	650.0466	711.2958	732.6679	793.0824	854.4508	872.5764	929.2276	972.9425	999.5268	1100.9216	1118.3686	1138.6835	1177.8079	1200.78	1266.5705	1330.674	1374.541	1407.9654	1476.7009	1508.2609	1588.6778	1648.0891	2223.47	2982.6997	3252.2376	3283.5281	3489.3677	3502.4473	3578.2413	3662.5774
NC(C#C)C1=NC=CN1	N[C@@H](C#C)c1ncc[nH]1	
InChI=1S/C6H7N3/c1-2-5(7)6-8-3-4-9-6/h1,3-5H,7H2,(H,8,9)	InChI=1S/C6H7N3/c1-2-5(7)6-8-3-4-9-6/h1,3-5H,7H2,(H,8,9)/t5-/m0/s1
