20
gdb 100280	1.79682	1.58323	1.29583	4.973	71.31	-0.2407	0.0194	0.2601	1140.8602	0.169354	-477.448946	-477.438773	-477.437829	-477.48403	36.963	
C	-0.0176372598	 1.354251033	-0.1334263534	-0.253543
O	-0.0840669862	-0.0602445652	-0.0393636528	-0.29384
C	-1.3908135129	-0.6517509589	 0.0014455014	 0.220412
C	-2.2057368361	-0.3530916162	-1.2554240995	-0.435892
C	-1.0937690345	-2.1590331261	 0.0969562509	-0.205152
N	-0.2126075216	-2.430318675	 1.2441429404	-0.527603
H	 0.6964685003	-2.0150486987	 1.0673802155	 0.258845
H	-1.0899406047	-1.3568307126	 2.2587333219	 0.319405
H	-0.0909078412	-3.4262347637	 1.3880460746	 0.246314
C	-2.1393241426	-0.115359537	 1.2653530514	 0.395739
O	-1.7575612789	-0.6329772161	 2.4311395072	-0.383786
O	-2.975256156	 0.7509055556	 1.1892647568	-0.344237
H	 1.0392473811	 1.6147974529	-0.0405957468	 0.125844
H	-0.386615359	 1.7185365855	-1.1002569324	 0.116592
H	-0.5824091029	 1.8499062376	 0.6649335604	 0.140312
H	-1.6063287109	-0.5657456782	-2.1454536299	 0.113975
H	-3.1054139711	-0.9751507652	-1.279930378	 0.123827
H	-2.5345421067	 0.6859112809	-1.2689907725	 0.149302
H	-2.0324481356	-2.7025241618	 0.2432787097	 0.124604
H	-0.6611827006	-2.4818975607	-0.8598937749	 0.108881
55.7221	88.9724	165.8948	172.5869	197.0416	250.8563	274.3499	300.1229	313.1606	363.5879	379.8014	437.8003	451.0105	575.3691	600.7645	746.4542	773.6362	828.2987	901.4632	917.822	1000.1006	1017.8316	1060.9801	1071.8805	1124.4444	1157.7729	1184.9599	1197.4897	1220.5571	1260.8719	1278.556	1349.1342	1400.5056	1421.0389	1476.6371	1479.3683	1486.0499	1494.7797	1503.7217	1512.8512	1524.851	1627.7319	1836.5176	3007.7986	3014.0878	3049.8506	3075.9852	3085.9174	3112.1404	3118.349	3120.9865	3154.6067	3514.5197	3600.1946
COC(C)(C[NH3+])C([O-])=O	CO[C@@](C)(CN)C(=O)O	
InChI=1S/C5H11NO3/c1-5(3-6,9-2)4(7)8/h3,6H2,1-2H3,(H,7,8)	InChI=1S/C5H11NO3/c1-5(3-6,9-2)4(7)8/h3,6H2,1-2H3,(H,7,8)/t5-/m0/s1
