17
gdb 34973	4.29716	1.37046	1.3092	1.8466	77.89	-0.2406	0.0449	0.2855	1002.493	0.137051	-384.60921	-384.602418	-384.601474	-384.640261	28.046	
C	-0.1332277992	-1.2871192765	-0.0817613017	-0.432764
C	-0.0626645425	-0.0883560538	-0.0192322665	 0.312059
C	 0.0220135255	 1.3549900332	 0.0391473901	-0.195578
C	-0.0489260375	 2.0885629059	 1.417815416	 0.060281
O	 0.9768570463	 1.4411990959	 2.1697634784	-0.25641
C	 2.0904169383	 1.8740849476	 1.3703664873	 0.079243
C	 2.0672599899	 3.4032133721	 1.5924831785	-0.245568
C	 0.7668410251	 3.2939670459	 0.7831083465	-0.078606
C	 1.3755594464	 2.0945565913	-0.0298127716	-0.079909
H	-0.1929939156	-2.3462262185	-0.1254885843	 0.191283
H	-0.6697047805	 1.8237554831	-0.6694779188	 0.102881
H	-0.9674495117	 2.1862919062	 1.9930134025	 0.086879
H	 2.9584599292	 1.2378858404	 1.5279633517	 0.08701
H	 2.0427679987	 3.7498526807	 2.6282199052	 0.105399
H	 2.8385603764	 3.9270596653	 1.0213994747	 0.103494
H	 0.2258309535	 4.1259881275	 0.3372272419	 0.07789
H	 1.9766873578	 2.1946251436	-0.93078855	 0.082415
122.3371	144.11	354.0488	380.8564	471.1434	507.5383	595.2683	626.8414	628.861	697.6018	760.3386	773.8362	820.1971	835.9647	871.0777	916.563	931.3463	954.9383	966.3833	994.6301	1025.3602	1051.2052	1060.8977	1070.3916	1099.5347	1142.8516	1172.2825	1190.2885	1207.6933	1240.0796	1251.0741	1268.3486	1280.6457	1341.6013	1362.3682	1481.7031	2235.4128	3052.6784	3061.0464	3123.606	3137.2314	3143.4591	3146.3582	3153.8597	3504.415
C#CC1C2OC3CC2C13	C#C[C@H]1[C@H]2O[C@@H]3C[C@H]2[C@H]13	
InChI=1S/C8H8O/c1-2-4-7-5-3-6(7)9-8(4)5/h1,4-8H,3H2	InChI=1S/C8H8O/c1-2-4-7-5-3-6(7)9-8(4)5/h1,4-8H,3H2/t4-,5+,6-,7+,8-/m1/s1
