16
gdb 18412	3.32846	2.23683	1.49813	0.3571	59.43	-0.2671	0.064	0.3311	822.9556	0.132478	-420.842851	-420.836397	-420.835453	-420.873393	25.126	
C	 0.0027287529	 1.3998988735	 0.1253231328	 0.017972
O	 1.2625925714	 1.9972312576	-0.0342076427	-0.229669
C	 2.160180954	 1.7865659929	 1.0457270701	-0.126524
C	 2.8478104817	 0.4296553596	 0.9719051434	 0.049105
O	 2.7863524499	-0.4041484897	 2.1353287639	-0.251037
C	 2.0488548648	-0.8017078597	 0.9731729701	 0.049104
C	 0.5295811474	-0.7265409506	 1.0483234898	-0.126523
O	-0.029567039	 0.005741809	-0.0321481018	-0.229669
H	-0.4090518756	 1.6681035887	 1.1161959008	 0.079922
H	-0.6245292043	 1.8060659663	-0.6708864566	 0.119911
H	 2.8984364612	 2.5913939643	 0.9890464647	 0.115021
H	 1.6403115284	 1.8671363643	 2.0115692529	 0.107613
H	 3.8100403493	 0.4079219593	 0.4610377749	 0.10107
H	 2.4602987074	-1.6723192049	 0.4631792151	 0.101071
H	 0.0953599877	-1.7287535751	 0.9935148192	 0.115021
H	 0.2450886228	-0.2832098654	 2.0137914934	 0.107613
140.6921	215.9129	337.5347	381.2957	385.1803	442.3179	466.3481	615.2758	631.9626	812.196	825.004	926.0276	937.8613	959.109	1006.5423	1045.3761	1049.9667	1090.5056	1106.019	1162.7587	1166.5807	1195.796	1269.2003	1288.3533	1305.0876	1346.3874	1370.15	1399.5489	1404.3841	1447.7065	1476.4459	1488.0862	1490.183	1504.0927	2931.1416	2999.2861	3008.9632	3086.2648	3088.1152	3110.837	3112.8897	3123.5269
C1OCC2OC2CO1	C1OC[C@H]2O[C@H]2CO1	
InChI=1S/C5H8O3/c1-4-5(8-4)2-7-3-6-1/h4-5H,1-3H2	InChI=1S/C5H8O3/c1-4-5(8-4)2-7-3-6-1/h4-5H,1-3H2/t4-,5+
