17
gdb 78510	2.55219	1.57525	1.30466	2.5433	68.15	-0.2303	0.0689	0.2992	1014.6044	0.134802	-458.891467	-458.883279	-458.882334	-458.923552	32.373	
O	-0.0911590889	 1.4807518197	-0.0802474449	-0.438986
C	-0.0107851803	 0.0728102436	-0.0901152362	 0.155538
C	-1.3358529353	-0.6548607249	-0.1180399285	-0.26192
C	-1.7489593698	-0.804597176	-1.6191033665	 0.353786
O	-3.0478056506	-1.0992363324	-1.9631258705	-0.468675
C	-0.6873009295	-0.0914072142	-2.4516107372	-0.289711
C	 0.3305564686	-0.6663057955	-1.4252441309	-0.209615
C	-0.7633828866	-1.7488520733	-1.0115870366	 0.328657
O	-0.7629043136	-3.1130166929	-0.9377973239	-0.447734
H	 0.8039557848	 1.8356567391	-0.0863331361	 0.28056
H	 0.6248355709	-0.2952792297	 0.729279889	 0.060068
H	-2.090390531	-0.7507074153	 0.6527172063	 0.087727
H	-3.5919432768	-0.3237386154	-1.785448466	 0.287636
H	-0.5778802491	-0.5577483993	-3.4340708694	 0.104389
H	-0.730973294	 0.9983982324	-2.5365717314	 0.097318
H	 1.3601449727	-0.8687550038	-1.7128549315	 0.069306
H	-0.3721685714	-3.380483042	-0.0984963658	 0.291655
161.2798	194.4087	254.2696	269.0101	289.8718	301.0699	307.7271	387.9167	446.9147	516.4636	584.4456	641.8763	680.2062	698.518	751.8738	851.2647	924.7127	935.9935	965.9683	983.1331	1002.0171	1018.3901	1089.9137	1108.2889	1128.0466	1153.5201	1172.4252	1227.0702	1241.1544	1255.318	1285.9885	1308.6776	1325.7338	1368.6137	1430.3055	1479.2176	1545.5886	2985.5326	3054.2457	3116.8112	3137.7211	3199.0696	3789.9383	3790.5141	3810.2708
OC1C2C3(O)CC1C23O	O[C@H]1[C@H]2[C@@]3(O)C[C@@H]1[C@@]23O	
InChI=1S/C6H8O3/c7-3-2-1-5(8)4(3)6(2,5)9/h2-4,7-9H,1H2	InChI=1S/C6H8O3/c7-3-2-1-5(8)4(3)6(2,5)9/h2-4,7-9H,1H2/t2-,3+,4-,5-,6+/m0/s1
