17
gdb 48011	5.81591	0.66068	0.61419	3.999	86.46	-0.2544	-0.0574	0.1971	1748.513	0.135465	-384.68087	-384.672016	-384.671072	-384.719013	30.753	
O	 0.1004455708	-0.3245957893	 0.4876538044	-0.231459
C	 0.0643812836	 0.8852415286	 0.4922508313	 0.017338
C	 1.1892429367	 1.7400282688	 0.2209920118	 0.01853
C	 2.1136231987	 2.4875727817	 0.0003986207	 0.110513
C	 3.2313812149	 3.3701404077	-0.2791312892	-0.17041
C	 3.9072880673	 3.1222392383	-1.6681966236	-0.25976
C	 4.3738933823	 4.5035871995	-2.0567956313	-0.06269
C	 3.829170767	 5.4549263941	-1.3014732265	-0.063234
C	 2.8913601007	 4.8940901431	-0.2604830295	-0.260101
H	-0.8755973534	 1.4313854768	 0.7145906047	 0.095176
H	 3.9967223962	 3.194172202	 0.4869603351	 0.123289
H	 4.7138274725	 2.3860966813	-1.5960658132	 0.119959
H	 3.1867515154	 2.7280061745	-2.3964786779	 0.125161
H	 5.0451120024	 4.6717962912	-2.8913580089	 0.100768
H	 3.9874384256	 6.5204432108	-1.4234555164	 0.099949
H	 1.8432274369	 5.070271156	-0.5357404724	 0.120931
H	 3.0302152724	 5.3259514447	 0.7358505509	 0.116041
1.5952	67.8698	78.2814	151.4822	202.0882	289.4182	393.731	430.6024	509.2387	553.996	653.1203	716.5367	776.2829	811.453	911.015	921.8795	954.0851	975.0458	977.931	1022.4148	1034.5317	1060.0131	1131.2541	1146.1013	1171.1891	1196.4654	1291.8945	1294.6266	1301.1828	1355.9833	1362.6271	1423.5693	1486.7012	1493.8776	1689.2392	1765.1884	2323.7	2911.2276	3021.3904	3025.7568	3030.5211	3071.5333	3077.7892	3186.5113	3211.1484
O=CC#CC1CC=CC1	O=CC#C[C@H]1CC=CC1	
InChI=1S/C8H8O/c9-7-3-6-8-4-1-2-5-8/h1-2,7-8H,4-5H2	InChI=1S/C8H8O/c9-7-3-6-8-4-1-2-5-8/h1-2,7-8H,4-5H2
