14
gdb 46451	3.66116	1.22504	1.1192	2.8505	67.58	-0.2657	-0.0509	0.2148	1068.2988	0.100535	-436.694126	-436.686615	-436.68567	-436.726548	27.789	
O	-0.025938027	 0.0466299026	 0.2101137187	-0.299764
C	-0.0110392972	 1.2333218935	 0.0246950348	 0.391006
C	-1.24011737	 2.1121004153	-0.2489362493	-0.205265
O	-0.7752712059	 3.4051934055	-0.6238347192	-0.297299
C	 0.6262865687	 3.4672223785	-0.5031281276	 0.302316
C	 1.1878371449	 3.3370124648	 0.8816209955	-0.33646
C	 1.1871228076	 2.1302386135	-0.0513047236	-0.235855
C	 1.2665341959	 4.2833570962	-1.5002569285	 0.255464
N	 1.8022370528	 4.9382037775	-2.2875501244	-0.330315
H	-1.8329708323	 1.6813414782	-1.0628217532	 0.157146
H	-1.8748702888	 2.1721807749	 0.6440187633	 0.145606
H	 2.1587767487	 3.7731926866	 1.0836964009	 0.158709
H	 0.4794913566	 3.3741734562	 1.7019331655	 0.147672
H	 2.1276214761	 1.7250567768	-0.3993219829	 0.147038
95.2489	100.253	169.3212	258.0553	383.4489	427.5801	494.7274	550.691	556.9696	606.7179	634.3618	705.2407	776.7873	882.0109	915.8278	945.1372	968.9214	1021.1313	1056.5848	1068.6863	1087.3981	1151.7391	1202.3768	1228.5021	1242.0191	1341.1566	1370.7852	1471.5054	1484.2725	1854.8334	2363.7941	3033.2114	3080.5951	3142.6951	3216.7359	3240.3736
O=C1COC2(CC12)C#N	O=C1CO[C@]2(C[C@@H]12)C#N	
InChI=1S/C6H5NO2/c7-3-6-1-4(6)5(8)2-9-6/h4H,1-2H2	InChI=1S/C6H5NO2/c7-3-6-1-4(6)5(8)2-9-6/h4H,1-2H2/t4-,6+/m0/s1
