15
gdb 42514	3.19761	1.23186	1.04759	1.2739	74.72	-0.2496	-0.0382	0.2114	1152.2609	0.109521	-420.565931	-420.557589	-420.556645	-420.599264	30.885	
O	 0.0568757426	-0.0185566246	 0.3863270073	-0.283399
C	-0.0143426905	 1.1604930471	 0.2385586664	 0.276739
C	-1.1635491305	 2.2179219573	 0.1171968856	-0.173212
O	-0.1389349776	 3.246341523	-0.0264435398	-0.319971
C	 0.9312372231	 2.3061942783	 0.093539602	 0.334818
C	 2.2165996236	 2.5808473231	 0.8205060522	-0.329174
C	 2.2172334218	 2.3936271156	-0.6767615703	-0.319269
C	-2.0571254663	 2.0998551288	-1.0117775545	 0.32892
C	-2.7935997037	 1.9731907516	-1.9528738776	-0.429372
H	-1.7147615195	 2.3461148988	 1.0574149472	 0.138296
H	 2.3349512435	 3.5891225359	 1.2019489333	 0.141648
H	 2.613143275	 1.7925003832	 1.4513713864	 0.140246
H	 2.6126368709	 1.4736886728	-1.0937674912	 0.141463
H	 2.3342272448	 3.2763923409	-1.2955287263	 0.143252
H	-3.4476061272	 1.8666415683	-2.7831674108	 0.209014
58.3424	122.0385	174.0282	207.0435	220.6146	366.754	394.8799	434.9127	549.5793	580.891	618.2268	684.1887	710.437	746.2148	766.8516	836.236	895.1987	924.5312	954.3817	975.5094	1012.9971	1052.4122	1061.8931	1069.855	1189.0444	1194.4886	1239.0334	1312.0492	1370.8722	1443.6795	1479.2284	1924.9692	2236.9527	3031.601	3135.3801	3136.8596	3223.1419	3237.1456	3501.9037
O=C1C(OC11CC1)C#C	O=C1[C@@H](OC21CC2)C#C	
InChI=1S/C7H6O2/c1-2-5-6(8)7(9-5)3-4-7/h1,5H,3-4H2	InChI=1S/C7H6O2/c1-2-5-6(8)7(9-5)3-4-7/h1,5H,3-4H2/t5-/m0/s1
