17
gdb 85164	2.05465	1.70142	0.98149	1.9923	70.88	-0.2306	-0.0388	0.1918	1173.5819	0.134331	-455.166225	-455.157147	-455.156203	-455.200396	32.966	
C	-0.1115993518	 1.4083448303	-0.1660930086	-0.333293
N	-0.0614395571	-0.0229275919	 0.0415813265	-0.069329
C	-1.2756095493	-0.736336922	 0.4948595346	-0.273026
C	-0.3634569545	-1.5524444314	 1.4143557911	 0.382107
O	-0.4308948866	-2.5825090524	 2.0212548246	-0.309286
C	 0.7555126227	-0.5384728096	 1.1539583866	-0.191999
C	 2.1681684803	-1.0088208902	 0.8026629018	 0.40011
N	 2.552803556	-2.1103211805	 1.501973025	-0.530427
O	 2.8630431773	-0.4074703088	 0.011442597	-0.358436
H	 0.8933048997	 1.7613816444	-0.4089580864	 0.155446
H	-0.770324096	 1.6384028392	-1.0089442808	 0.126172
H	-0.4785286669	 1.9611241065	 0.7203350392	 0.090061
H	-1.9789025706	-0.1215027848	 1.0835291567	 0.117465
H	-1.8316766437	-1.2722264992	-0.2814230094	 0.138495
H	 0.8335870247	 0.1548141466	 2.0134086505	 0.114924
H	 1.86902006	-2.6627053382	 1.9991060014	 0.277695
H	 3.4530574658	-2.513222868	 1.2957447802	 0.26332
58.5081	105.5777	143.8041	188.1907	237.9849	266.379	338.8466	385.0877	409.8798	437.7197	519.5438	586.3473	616.4949	637.2721	715.6391	791.1168	854.4689	977.9621	990.0183	1026.2767	1083.8211	1109.056	1125.1931	1153.939	1185.1872	1210.9114	1263.7105	1281.885	1310.9506	1360.7337	1445.7502	1473.594	1494.242	1498.6428	1628.0561	1812.3318	1898.4207	2922.1542	2926.1277	2959.8418	3070.3462	3075.0662	3128.1846	3558.9387	3700.3596
CN1CC(=O)C1C(N)=O	CN1CC(=O)[C@H]1C(=O)N	
InChI=1S/C5H8N2O2/c1-7-2-3(8)4(7)5(6)9/h4H,2H2,1H3,(H2,6,9)	InChI=1S/C5H8N2O2/c1-7-2-3(8)4(7)5(6)9/h4H,2H2,1H3,(H2,6,9)/t4-/m0/s1
