18
gdb 103253	4.04987	1.03607	1.00654	2.0904	74.04	-0.2592	0.0145	0.2737	1228.972	0.146253	-439.048391	-439.039499	-439.038554	-439.081976	33.177	
C	-0.0263138878	 1.591975512	 0.1416336421	-0.484952
C	 0.0041150383	 0.0796424846	 0.0846207558	 0.268082
C	-1.2515693389	-0.5720122883	-0.4845154209	-0.136861
O	-1.4931431515	-0.2251970777	-1.8377685806	-0.415815
C	 1.2544557223	-0.6873250747	-0.1842511503	 0.047453
O	 2.4143752238	 0.0049659838	 0.3478152151	-0.274727
C	 1.9129516576	-0.1525107751	 1.6437644315	 0.438169
N	 2.4354721299	 0.1158948608	 2.7499151762	-0.556144
C	 0.6374152695	-0.7845919379	 1.1959581928	-0.257133
H	 0.9230850858	 2.0019255703	 0.4883756161	 0.149665
H	-0.213999102	 2.005273989	-0.8556350789	 0.116152
H	-0.8176342616	 1.940357545	 0.814194419	 0.123496
H	-1.1454753091	-1.6623740089	-0.4702228607	 0.110964
H	-2.1113616272	-0.3210762826	 0.155269313	 0.101747
H	-1.8153431105	 0.6804813104	-1.8648692271	 0.290075
H	 1.4292669259	-1.4211755851	-0.9594233716	 0.129661
H	 3.3658098081	 0.5204062729	 2.630691249	 0.231261
H	 0.1087430775	-1.5827239886	 1.6974899695	 0.118907
77.3786	126.5953	162.6172	184.8198	252.7716	272.3113	315.225	336.1615	415.6872	475.5284	570.3415	665.2328	720.4981	757.2735	825.4393	869.9272	876.732	922.093	956.1617	963.4752	982.7205	1005.673	1038.3656	1057.1216	1081.8374	1114.0344	1154.9888	1190.7043	1209.9404	1289.8989	1305.5866	1383.8619	1400.9152	1415.1072	1430.5836	1484.9367	1497.8602	1507.2171	1829.3099	2989.4784	3034.8004	3067.4972	3093.1185	3140.9415	3210.718	3223.3512	3478.6891	3831.9455
CC1(CO)C2OC(=N)C12	C[C@@]1(CO)[C@H]2O[C]([NH])[C@@H]12	
InChI=1S/C6H9NO2/c1-6(2-8)3-4(6)9-5(3)7/h3-4,7-8H,2H2,1H3	InChI=1S/C6H9NO2/c1-6(2-8)3-4(6)9-5(3)7/h3-4,7-8H,2H2,1H3/t3-,4-,6-/m0/s1
