22
gdb 8497	2.57325	1.98716	1.88865	0.2161	82.46	-0.2745	0.0865	0.3609	923.9935	0.199719	-313.028842	-313.020224	-313.01928	-313.061232	33.811	
C	 0.8477454534	 0.8582481595	-0.0702490264	-0.518474
C	 0.3152767875	-0.5512807385	-0.091884696	 0.315672
C	 0.5128472396	-1.6232253844	-1.2122383686	-0.272154
C	-0.3486225721	-2.319153659	-0.1193234405	-0.081997
C	 0.6554068439	-1.7095386659	 0.9010851463	-0.272157
C	-1.2040381563	-1.0031976777	-0.0078741438	 0.342632
C	-1.9765244232	-0.734341945	 1.2903971965	-0.471198
C	-2.142047564	-0.6339232863	-1.1647229231	-0.47119
H	 1.9409140631	 0.86764603	-0.1445758368	 0.117442
H	 0.4517982389	 1.4446572964	-0.9071500355	 0.117015
H	 0.5724248208	 1.3720255158	 0.8578037501	 0.117016
H	 0.0720331785	-1.4410371812	-2.1909768541	 0.087473
H	 1.5324764362	-2.0036028499	-1.3203274754	 0.083048
H	-0.7241846529	-3.3443906571	-0.1358708938	 0.060603
H	 1.6782111203	-2.0918814624	 0.840256391	 0.08305
H	 0.3508214638	-1.6097766077	 1.9416202247	 0.08747
H	-1.4272783251	-0.9587305492	 2.2047581383	 0.113421
H	-2.2782605569	 0.3186433532	 1.3394668056	 0.11193
H	-2.8976585456	-1.3285238337	 1.3089662016	 0.112525
H	-3.0599399473	-1.2307823876	-1.1088795529	 0.112534
H	-2.443096706	 0.4174730234	-1.0862189024	 0.111921
H	-1.7209454965	-0.7786955428	-2.1596053147	 0.113419
95.0421	172.4177	175.0995	195.221	223.6634	316.8359	398.6044	411.5911	442.3777	531.7678	586.1785	628.5395	670.5498	731.9956	789.2498	884.4394	902.0496	933.0963	944.7171	967.9073	997.2451	1004.4608	1014.0176	1018.9402	1087.3415	1105.3361	1152.262	1167.9427	1174.9338	1199.6535	1200.1204	1226.8779	1240.6401	1288.4563	1326.4055	1404.7962	1405.5559	1424.1084	1477.2616	1482.7052	1490.1821	1490.5158	1507.3614	1510.6472	1522.6449	1559.077	3022.3909	3026.7217	3033.5795	3059.851	3066.0533	3076.0068	3082.662	3088.7745	3090.1022	3091.0532	3123.7127	3127.7434	3148.0285	3148.7842
CC12CC(C1)C2(C)C	C[C@@]12C[C@@H](C1)C2(C)C	
InChI=1S/C8H14/c1-7(2)6-4-8(7,3)5-6/h6H,4-5H2,1-3H3	InChI=1S/C8H14/c1-7(2)6-4-8(7,3)5-6/h6H,4-5H2,1-3H3/t6-,8+
