14
gdb 43889	3.07408	1.42446	1.12961	2.9494	69.46	-0.2614	-0.0189	0.2425	1041.3575	0.101533	-432.831882	-432.824426	-432.823481	-432.86396	27.925	
N	-0.0443714657	 1.1228663697	 0.6911044919	-0.537476
C	 0.0015426394	 0.0057471889	 0.1152287783	 0.408235
N	 0.9927502599	-0.8169320238	-0.449974586	-0.382157
C	 0.0917707313	-1.9286513331	-0.7397725416	 0.157783
C	-0.2883260779	-2.842105987	 0.4571569188	-0.111707
O	-1.3039949442	-1.9208563405	 0.9013926122	-0.268995
C	-1.0821391575	-1.0285249703	-0.2014855548	-0.034589
C	 0.2033216491	-2.5183270695	-2.0572986932	 0.236426
N	 0.2909674521	-3.0144996813	-3.0975183646	-0.327721
H	 0.8799537035	 1.5363468146	 0.8242070915	 0.222855
H	 1.9612016125	-0.8992480206	-0.1684189392	 0.253316
H	-0.7244912721	-3.801532458	 0.1594999906	 0.135247
H	 0.5045481209	-2.9990789158	 1.1960574026	 0.120812
H	-1.9863948712	-0.7479236334	-0.7394781165	 0.127971
102.8397	152.7447	194.8232	248.8858	364.3337	417.6335	453.8237	496.882	542.9916	586.9399	676.632	734.0374	822.3185	850.9028	910.2246	969.4021	989.1659	1027.0914	1034.5005	1040.3028	1126.9664	1144.658	1171.6871	1240.5162	1273.4884	1305.9522	1336.0451	1359.1745	1505.832	1813.2298	2358.7394	3035.4697	3093.4229	3140.664	3467.8307	3577.7817
N=C1NC2(COC12)C#N	[NH][C]1N[C@]2(CO[C@@H]12)C#N	
InChI=1S/C5H5N3O/c6-1-5-2-9-3(5)4(7)8-5/h3H,2H2,(H2,7,8)	InChI=1S/C5H5N3O/c6-1-5-2-9-3(5)4(7)8-5/h3H,2H2,(H2,7,8)/t3-,5-/m0/s1
