16
gdb 14723	13.18867	0.55996	0.54262	4.1806	74.2	-0.2654	-0.0601	0.2053	1938.5859	0.127375	-383.706237	-383.696639	-383.695695	-383.742582	30.826	
C	 0.0428233579	 1.3827130534	 0.0088144427	-0.232552
O	 0.0044635311	-0.0261756191	 0.0018709424	-0.226673
C	-1.3041122993	-0.5401672349	 0.0115781079	-0.045207
C	-1.1894370354	-2.0690807116	 0.0026453213	-0.360078
C	-2.4802973248	-2.7355009736	 0.0113238837	 0.081915
C	-3.5569474111	-3.283668517	 0.0188766723	 0.029881
C	-4.8545610444	-3.9064989586	 0.0281492949	 0.01973
O	-5.0444150345	-5.1013188616	 0.0220587096	-0.228592
H	 1.0940111153	 1.6792230844	 0.0005817771	 0.133293
H	-0.4551051154	 1.8079505339	-0.8764432209	 0.109127
H	-0.4385218006	 1.7987021539	 0.9075354407	 0.109124
H	-1.8554399964	-0.2079304634	 0.9062813564	 0.101192
H	-1.8721980332	-0.1988543539	-0.8691191099	 0.101196
H	-0.6184235244	-2.3774915143	-0.8816672758	 0.155353
H	-0.6019958941	-2.3865299992	 0.8729060055	 0.155365
H	-5.7002052007	-3.1884802185	 0.0418461623	 0.096925
27.4772	65.7254	75.2809	105.4391	167.2329	188.2392	233.0137	268.5445	397.6403	417.1975	509.1371	607.0672	786.4671	837.9267	994.1503	1022.1597	1052.1816	1079.9286	1156.6972	1166.7965	1181.6409	1227.5049	1229.8274	1296.0058	1308.9165	1417.7732	1424.3874	1460.8119	1482.1389	1486.561	1504.0738	1532.2	1768.2819	2331.7338	2914.0784	2963.4328	2978.2422	2996.4985	3021.9463	3034.4875	3071.645	3120.8082
COCCC#CC=O	COCCC#CC=O	
InChI=1S/C6H8O2/c1-8-6-4-2-3-5-7/h5H,4,6H2,1H3	InChI=1S/C6H8O2/c1-8-6-4-2-3-5-7/h5H,4,6H2,1H3
