21
gdb 63231	2.47529	1.59729	1.32377	1.7102	83.56	-0.2425	0.0258	0.2683	1088.9332	0.182611	-387.09661	-387.088038	-387.087094	-387.129247	34.001	
C	 0.3030166852	 1.4472686414	 0.005162558	-0.412501
C	-0.0939579645	-0.0437651571	-0.0163042635	 0.19628
C	-1.6327437465	-0.1736551492	 0.0456021127	-0.416542
C	 0.4071531828	-0.6834060003	-1.2917281153	-0.060169
C	 1.0885329245	-1.8227062907	-1.376699923	-0.076478
C	 1.4848945992	-2.6670633612	-0.1975015887	-0.306833
C	 1.2456299982	-1.9855305754	 1.1289443875	 0.045619
O	 1.9186469581	-0.7373573195	 1.3294571809	-0.272365
C	 0.4933311577	-0.7253207739	 1.211572209	 0.039035
H	 1.3907519359	 1.5520569398	-0.0037194099	 0.137082
H	-0.1050900418	 1.9688554634	-0.8670934979	 0.108042
H	-0.0826844875	 1.941933382	 0.9036127369	 0.108584
H	-2.0940001657	 0.2972245968	-0.8282305795	 0.11563
H	-1.9410794605	-1.2235687944	 0.0633115568	 0.11738
H	-2.0314044811	 0.3182653854	 0.9401707251	 0.111826
H	 0.1605221124	-0.143419512	-2.2044702127	 0.081652
H	 1.3878145026	-2.1928604891	-2.3543238961	 0.087201
H	 0.9286463769	-3.6161319372	-0.2105995442	 0.112438
H	 2.5445075126	-2.9489239847	-0.2722857354	 0.119398
H	 1.261594116	-2.6383966565	 2.0027398887	 0.085768
H	-0.0208793546	-0.4908115777	 2.1463081107	 0.078951
84.2949	200.6322	233.061	250.1673	260.0281	302.6249	347.8993	367.7079	426.4703	507.9034	530.5683	572.0925	703.3017	738.5821	796.4302	851.6681	898.2795	910.1732	930.505	941.2434	971.7232	989.5423	1006.8909	1021.1998	1042.53	1088.6739	1143.2251	1173.9442	1195.1316	1212.6292	1238.7032	1288.5119	1321.0982	1365.0772	1378.4795	1390.2005	1404.1125	1436.7543	1464.7167	1476.409	1483.5837	1485.3567	1500.7257	1510.8174	1733.6261	3001.3194	3026.1663	3027.2523	3030.7481	3080.0201	3093.0843	3098.0515	3100.9572	3106.9307	3122.6301	3132.296	3160.3023
CC1(C)C=CCC2OC12	CC1(C)C=CC[C@H]2O[C@@H]12	
InChI=1S/C8H12O/c1-8(2)5-3-4-6-7(8)9-6/h3,5-7H,4H2,1-2H3	InChI=1S/C8H12O/c1-8(2)5-3-4-6-7(8)9-6/h3,5-7H,4H2,1-2H3/t6-,7-/m1/s1
