18
gdb 8091	3.46522	2.15881	1.72825	0.6847	66.9	-0.246	0.0719	0.3178	808.4402	0.155658	-384.927113	-384.920313	-384.919369	-384.957538	27.714	
O	-0.0421205386	 1.415355129	-0.0597701477	-0.481603
C	 0.00456879	 0.0178554513	 0.0420902448	 0.381888
C	 0.2555364763	-0.700268516	 1.4026110612	-0.286219
C	-0.6675439899	-1.8086499293	 0.8162929383	-0.043815
C	-1.3588372029	-0.694258081	-0.0172428859	-0.253982
C	 0.1584449367	-2.6977484668	-0.1205581435	-0.067517
O	 1.2279134876	-1.9709157427	-0.716811376	-0.257621
C	 0.9322252394	-0.6149630089	-1.0129888346	-0.119955
H	 0.8560971769	 1.7579720639	 0.0110772327	 0.276452
H	 1.2809366898	-0.9678470997	 1.6686830833	 0.099633
H	-0.2278883432	-0.1600567204	 2.2195996966	 0.102037
H	-1.2818927179	-2.40244557	 1.4952724217	 0.071875
H	-2.1100887708	-0.1514901164	 0.5616449162	 0.104877
H	-1.7603782261	-0.9524423592	-1.0022670605	 0.091577
H	 0.6328429342	-3.519080792	 0.4273920779	 0.106548
H	-0.4940774282	-3.1385379054	-0.8924177724	 0.089273
H	 0.477576939	-0.5063089254	-2.0110193058	 0.095785
H	 1.8990154076	-0.093856751	-1.0257045663	 0.090765
194.8258	247.5783	283.0661	330.2473	402.5822	426.9884	453.4356	478.1092	593.2817	672.2324	822.5433	858.1774	885.48	891.3888	929.3723	940.7783	980.7389	1008.8016	1017.8055	1077.4709	1103.8753	1109.2962	1143.3569	1175.9669	1194.4125	1235.4701	1243.924	1260.6068	1275.3337	1296.6254	1337.1368	1372.47	1385.3124	1415.1533	1474.1153	1500.8534	1507.6744	1519.8408	2966.6468	2975.825	3032.5734	3048.0716	3062.5423	3064.4537	3094.9597	3112.0704	3127.7147	3794.9892
OC12CC(C1)COC2	O[C@@]12C[C@@H](C1)COC2	
InChI=1S/C6H10O2/c7-6-1-5(2-6)3-8-4-6/h5,7H,1-4H2	InChI=1S/C6H10O2/c7-6-1-5(2-6)3-8-4-6/h5,7H,1-4H2/t5-,6-
