20
gdb 90183	4.01312	1.54629	1.38322	1.4163	82.58	-0.2152	0.0858	0.301	1001.0434	0.173061	-365.910885	-365.903998	-365.903054	-365.941717	29.148	
C	-0.0904444921	 1.5452614097	-0.0304838374	-0.402474
C	 0.0152973867	 0.0275361282	 0.0338831684	 0.079879
C	 0.8801473327	-0.6167912459	-1.1486051015	-0.396887
C	 1.8466196956	-1.331510936	-0.2375214578	 0.323976
C	 3.059803102	-2.241583941	 0.0836966594	-0.362813
C	 2.5185774634	-1.8074514663	 1.4895514381	-0.099135
C	 2.1493039442	-0.3967070213	 0.9680806791	-0.014734
N	 0.6779521457	-0.4225049097	 1.3139364417	-0.173187
C	 1.0518624219	-1.847998007	 0.9969834509	-0.010862
H	 0.9006337288	 2.0126174701	-0.0415490757	 0.113306
H	-0.6160795904	 1.8609665238	-0.9373408634	 0.113312
H	-0.6343831186	 1.9282158803	 0.8374788782	 0.126469
H	-0.9908749426	-0.4064079446	 0.0280484121	 0.074778
H	 0.2835945926	-1.2769629381	-1.7843330058	 0.100461
H	 1.3427717626	 0.1494941651	-1.7779068237	 0.100099
H	 2.96638331	-3.3017029938	-0.1703354875	 0.100346
H	 4.0493797074	-1.867844457	-0.195848749	 0.100265
H	 2.9015516205	-2.0759863779	 2.4736759547	 0.079765
H	 2.7560328395	 0.5102944862	 0.9718083704	 0.074786
H	 0.3364727802	-2.672588375	 1.0278221588	 0.072652
144.8646	231.0317	273.215	364.5737	389.6198	461.3533	484.3106	651.4472	731.269	771.5987	784.4333	805.1513	848.2723	864.8892	882.9941	888.2796	917.8662	932.8993	946.9671	1004.2051	1007.2987	1041.2482	1067.8536	1072.4018	1096.1844	1123.7244	1148.0129	1157.5849	1162.9908	1187.0654	1196.4489	1220.502	1225.982	1262.1073	1289.9759	1324.0867	1325.9504	1368.7944	1407.9114	1490.7547	1496.2002	1504.3159	1510.1362	3033.4556	3040.2485	3044.6887	3052.4946	3089.5464	3095.8864	3098.483	3102.186	3103.6847	3115.9252	3121.7635
CC1CC23CC4C2N1C34	C[C@H]1C[C@@]23C[C@H]4[C@@H]2N1[C@@H]34	
InChI=1S/C8H11N/c1-4-2-8-3-5-6(8)9(4)7(5)8/h4-7H,2-3H2,1H3	InChI=1S/C8H11N/c1-4-2-8-3-5-6(8)9(4)7(5)8/h4-7H,2-3H2,1H3/t4-,5-,6-,7+,8+/m0/s1
