18
gdb 43411	2.42156	1.7382	1.18783	3.6311	79.19	-0.2361	-0.0466	0.1895	1059.5409	0.15036	-401.95321	-401.945696	-401.944751	-401.985292	29.475	
O	 0.0735817248	 0.3200906772	 1.0169320613	-0.341863
C	-0.0382761269	 1.3119323935	 0.3154040127	 0.384646
C	-1.380453568	 1.7045977047	-0.1691352149	-0.144196
C	-1.7478691015	 2.5655400636	-1.1265814345	-0.033762
C	-0.9209328633	 3.4364744662	-2.0273301585	-0.254629
C	 0.473439352	 2.9276329373	-2.4132406004	-0.231954
C	 1.462864653	 2.8412901667	-1.2682469927	-0.023276
N	 1.1471830851	 3.5714133249	-0.0449932001	-0.334515
C	 1.2037770654	 2.0919705186	-0.0005736147	-0.129579
H	-2.1562783951	 1.1452183383	 0.3472596996	 0.105746
H	-2.821063074	 2.6616312794	-1.287862605	 0.102935
H	-1.4900259145	 3.6059567639	-2.9486695462	 0.103668
H	-0.8188065302	 4.4192553996	-1.549082031	 0.143227
H	 0.396874066	 1.9459368387	-2.8971091512	 0.113791
H	 0.881804367	 3.6121548058	-3.1667888887	 0.105417
H	 2.5047339808	 2.816977872	-1.5856116845	 0.093234
H	 1.9806109176	 3.9576045715	 0.3887494072	 0.24138
H	 2.0664589617	 1.6342390481	 0.4766073614	 0.099731
74.2294	192.8581	229.5905	291.8574	352.8059	360.8602	457.8934	490.189	600.7958	629.0874	683.2738	753.5917	807.4358	824.0834	866.0627	901.7216	914.8487	959.2863	987.5856	1025.5323	1046.4684	1058.8279	1107.5372	1163.0994	1186.1891	1212.6633	1243.0446	1259.7534	1296.8535	1314.8826	1375.4241	1397.9793	1405.9329	1429.2618	1448.3737	1466.7337	1486.6881	1701.5559	1741.4594	3024.5642	3029.2648	3058.7485	3066.0865	3111.7005	3130.2907	3148.5276	3169.649	3515.2109
O=C1C=CCCC2NC12	O=C1C=CCC[C@H]2N[C@@H]12	
InChI=1S/C7H9NO/c9-6-4-2-1-3-5-7(6)8-5/h2,4-5,7-8H,1,3H2	InChI=1S/C7H9NO/c9-6-4-2-1-3-5-7(6)8-5/h2,4-5,7-8H,1,3H2/t5-,7-/m1/s1
