16
gdb 25675	5.68241	0.845	0.739	1.7817	93.92	-0.2309	-0.0349	0.1961	1512.8114	0.125695	-363.653584	-363.645363	-363.644419	-363.688133	29.368	
C	-0.0163555698	 1.4676897656	 0.0108195574	-0.508939
C	 0.0046789017	 0.0140839459	 0.0025680521	 0.265846
C	 0.0382548221	-1.1914755643	-0.004311592	-0.12364
C	 0.0447209661	-2.620609188	-0.0118168246	 0.160676
N	 1.2414565603	-3.2384959014	-0.0221456364	-0.309637
C	 1.2476431429	-4.5703168141	-0.0292237371	-0.009719
C	 0.0982707868	-5.3581627065	-0.0266010965	-0.116098
C	-1.1359314901	-4.7160288726	-0.0159378194	-0.083794
C	-1.1674385855	-3.3288396337	-0.0084245717	-0.159604
H	 0.9992695857	 1.8774178784	 0.003511681	 0.15622
H	-0.5424075196	 1.8616608355	-0.8660657097	 0.152109
H	-0.5256908843	 1.8518441987	 0.9018220684	 0.152135
H	 2.2299048888	-5.0379939017	-0.037487799	 0.106177
H	 0.1740288776	-6.439539835	-0.032756865	 0.103735
H	-2.0594694466	-5.2856819926	-0.0135072327	 0.107749
H	-2.1041710062	-2.784491074	-0.0000410846	 0.106784
21.1095	91.035	91.3557	241.4956	307.0085	394.9917	416.6054	417.2393	539.1167	562.3903	638.499	736.743	767.3292	810.6954	917.2383	985.0249	997.496	1007.9608	1013.0538	1049.5073	1053.2022	1071.2199	1115.3619	1175.0294	1282.2336	1297.7449	1329.4162	1412.5142	1456.1537	1474.7105	1475.4783	1498.1668	1599.7613	1624.717	2357.831	3027.0019	3085.9173	3093.263	3149.89	3180.1158	3200.1206	3208.0601
CC#CC1=NC=CC=C1	CC#Cc1ncccc1	
InChI=1S/C8H7N/c1-2-5-8-6-3-4-7-9-8/h3-4,6-7H,1H3	InChI=1S/C8H7N/c1-2-5-8-6-3-4-7-9-8/h3-4,6-7H,1H3
