17
gdb 34015	3.07477	1.38173	1.15421	3.6487	79.03	-0.2587	-0.0169	0.2418	1088.8991	0.138463	-380.87195	-380.864362	-380.863418	-380.904063	29.371	
N	 0.0160677365	-1.1326268075	-0.2048064132	-0.342399
C	 0.0116993046	 0.0194482899	-0.0950020759	 0.216711
C	-0.0105118536	 1.4589269289	 0.0219088247	 0.180779
N	 0.4303168983	 2.2388251446	-1.1707618687	-0.358062
C	 1.3047124357	 2.178491604	 0.008702233	-0.08421
C	 1.4246086459	 3.4556726381	 0.8324098225	-0.216339
C	 0.5317271484	 3.4409670794	 2.0890414239	-0.271169
C	-0.8556089898	 2.9228471199	 1.8008122005	-0.04623
C	-1.1135990964	 2.0283150476	 0.8482331809	-0.126461
H	 0.7604374186	 1.5976015517	-1.890419424	 0.247733
H	 2.1915139305	 1.5550819536	-0.062478635	 0.111773
H	 2.4691678827	 3.6156182165	 1.1164951793	 0.106573
H	 1.1276922848	 4.2927367597	 0.1937131759	 0.128725
H	 0.9900250341	 2.823360335	 2.8748672011	 0.123852
H	 0.4731892201	 4.451678236	 2.5056631495	 0.114447
H	-1.671980414	 3.3066484066	 2.4065468871	 0.104846
H	-2.1197983763	 1.671996386	 0.6538601984	 0.109431
100.128	147.4012	181.0581	253.2645	399.0286	415.6316	494.8213	506.0148	554.9679	600.0905	619.0979	727.7977	764.9501	816.828	856.9821	905.4395	946.6638	968.2392	997.421	1012.5642	1065.6931	1075.5566	1099.8604	1171.3557	1196.0577	1223.3206	1263.8465	1277.2034	1318.2966	1346.8244	1378.7609	1420.4145	1432.6071	1476.0964	1485.4124	1713.0798	2345.0758	3009.6735	3050.9541	3070.9549	3098.6094	3150.8341	3163.3924	3190.3721	3485.6666
N#CC12NC1CCC=C2	N#C[C@]12N[C@H]1CCC=C2	
InChI=1S/C7H8N2/c8-5-7-4-2-1-3-6(7)9-7/h2,4,6,9H,1,3H2	InChI=1S/C7H8N2/c8-5-7-4-2-1-3-6(7)9-7/h2,4,6,9H,1,3H2/t6-,7-/m0/s1
