16
gdb 28731	3.37725	1.18972	0.88202	2.2648	78.72	-0.1693	0.0063	0.1755	1248.386	0.126347	-434.125331	-434.116961	-434.116017	-434.158456	31.28	
N	 0.2462448862	 0.9334839113	-0.9519355682	-0.606889
C	-0.0794289677	-0.1966769897	-0.1815532323	 0.294195
C	-0.9015716742	-0.3736818436	 0.9088129746	-0.207541
C	-0.7640124535	-1.7298307631	 1.3386658926	-0.266403
C	 0.1275763001	-2.3244987497	 0.4793892097	 0.41459
N	 0.6022161457	-3.6406763057	 0.441199099	-0.397233
C	 1.5262985592	-4.1371139764	-0.4225751745	 0.141264
O	 2.0766322533	-3.5030238254	-1.3082899398	-0.345972
N	 0.5467956602	-1.3926117938	-0.4381464613	-0.322235
H	-0.0430817831	 0.8419109034	-1.9214929715	 0.244428
H	-0.1926949937	 1.7620233557	-0.5709381945	 0.24644
H	-1.5407605148	 0.3776534702	 1.3460556785	 0.083237
H	-1.2724741424	-2.2063946026	 2.1626359452	 0.086184
H	 0.2233744374	-4.2680706395	 1.1329970773	 0.263422
H	 1.730001214	-5.206421065	-0.2346015377	 0.088125
H	 1.2637178332	-1.594440706	-1.1197322272	 0.284387
82.3188	148.2591	169.7814	176.5376	274.4715	321.8998	388.5785	437.0583	549.3862	580.4025	589.1587	640.8223	671.3096	702.4731	749.5758	768.373	815.9394	865.1615	992.6255	1010.44	1011.4028	1054.402	1135.5096	1155.5642	1228.0062	1278.7382	1310.5673	1422.9732	1445.8164	1477.303	1513.3092	1593.1058	1645.1465	1658.3587	1768.4512	2974.0636	3241.1648	3255.8883	3493.3676	3605.903	3617.0926	3639.4307
NC1=CC=C(NC=O)N1	Nc1ccc(NC=O)[nH]1	
InChI=1S/C5H7N3O/c6-4-1-2-5(8-4)7-3-9/h1-3,8H,6H2,(H,7,9)	InChI=1S/C5H7N3O/c6-4-1-2-5(8-4)7-3-9/h1-3,8H,6H2,(H,7,9)
