16
gdb 66654	2.77741	2.17752	1.47324	2.6317	70.72	-0.2347	-0.0253	0.2095	885.5399	0.124888	-400.708134	-400.701226	-400.700282	-400.739292	27.475	
C	-0.0904013028	 1.4984782306	 0.0396471541	-0.495734
C	-0.0923589333	-0.0002820572	 0.058268064	 0.174209
C	-1.0856880354	-0.8660857673	-0.6415980912	-0.090398
C	-0.8198840542	-2.3200708818	-0.1864310501	-0.117855
C	 0.5631069898	-2.1607132546	-0.7161621447	-0.018638
C	 0.3590114938	-2.1862459426	 0.7804888846	-0.215458
C	 0.4224780984	-0.7678154795	 1.2527935165	 0.430708
O	 0.7941658823	-0.3207812819	 2.3058872933	-0.331297
N	 0.2910051828	-0.732117415	-1.1947963548	-0.191763
H	 0.9278046952	 1.8797122692	 0.1595180928	 0.139649
H	-0.4924217429	 1.878390351	-0.9024422145	 0.130094
H	-0.6938486032	 1.8870414586	 0.8652857244	 0.135343
H	-1.9561823552	-0.4977605949	-1.1726353382	 0.106247
H	-1.4977428338	-3.1608758338	-0.1929597229	 0.111275
H	 1.2238264463	-2.8073501683	-1.2765709894	 0.115425
H	 0.6849306823	-3.0200676425	 1.3845118261	 0.118194
121.6345	169.2309	241.3022	282.6562	448.5926	505.1587	579.0731	625.0393	726.9971	749.8093	766.3641	775.9733	804.6689	823.7588	860.9727	910.3414	919.6713	963.7962	1002.4587	1018.3543	1041.3187	1046.2544	1068.1417	1090.7307	1123.2763	1201.1604	1240.4163	1281.6223	1287.8739	1351.4759	1394.9762	1423.2191	1482.0727	1489.4199	1857.6137	3047.7437	3116.221	3129.322	3176.1283	3210.2087	3225.5052	3239.0725
CC12C3C4C(C4C1=O)N23	C[C@]12[C@@H]3[C@H]4[C@H]([C@H]4C1=O)N23	
InChI=1S/C7H7NO/c1-7-5-2-3(6(7)9)4(2)8(5)7/h2-5H,1H3	InChI=1S/C7H7NO/c1-7-5-2-3(6(7)9)4(2)8(5)7/h2-5H,1H3/t2-,3+,4-,5+,7+,8?/m1/s1
