18
gdb 10803	4.33687	1.47843	1.17932	2.953	74.39	-0.2336	-0.0105	0.2231	1032.914	0.154105	-347.850619	-347.842826	-347.841882	-347.882829	29.382	
C	-0.1271974208	 1.5754626894	 0.0489293715	-0.476461
C	-0.0228922899	 0.0764499782	-0.0222715111	 0.316898
C	-0.035851536	-0.5872953009	-1.1809582307	-0.146776
C	 0.1192915766	-2.0797264432	-1.3181468517	-0.353596
C	 0.3534905159	-2.8002855586	 0.0045335801	 0.387989
O	 0.9851664492	-3.8280757926	 0.074694475	-0.311063
C	-0.2792852005	-2.1313191524	 1.2104373964	-0.303479
C	 0.1198238906	-0.6467623669	 1.2992492795	-0.299849
H	 0.7396609132	 2.0061552466	 0.5669775962	 0.125487
H	-0.1857785775	 2.0261152102	-0.9451422817	 0.122085
H	-1.0127600217	 1.8851123864	 0.6188360536	 0.123372
H	-0.1380953078	-0.0318777726	-2.1110775326	 0.083055
H	-0.7832249577	-2.5171541731	-1.7746656108	 0.132156
H	 0.9411695493	-2.3407207792	-1.9949106463	 0.132944
H	-1.3692686835	-2.1921963569	 1.0851126702	 0.120134
H	-0.0075308172	-2.6872657283	 2.1104125499	 0.118012
H	 1.1577487956	-0.5596443623	 1.65241703	 0.12174
H	-0.4900359778	-0.1497826638	 2.0635816026	 0.107353
66.8668	152.9065	189.8561	250.681	319.2411	382.1068	421.242	473.7159	502.558	554.6275	707.9137	745.6061	777.2593	796.1198	906.4347	940.0735	964.3671	1015.9931	1034.2785	1066.2274	1075.8736	1144.3603	1171.1258	1206.1208	1213.9981	1255.4304	1311.2498	1332.1912	1361.0756	1391.6807	1414.1453	1445.7982	1467.1297	1478.6236	1485.9263	1491.7839	1743.4042	1822.5522	2989.6527	3004.3623	3015.1366	3020.9168	3046.7938	3059.2015	3060.4594	3110.9855	3112.6776	3143.6173
CC1=CCC(=O)CC1	CC1=CCC(=O)CC1	
InChI=1S/C7H10O/c1-6-2-4-7(8)5-3-6/h2H,3-5H2,1H3	InChI=1S/C7H10O/c1-6-2-4-7(8)5-3-6/h2H,3-5H2,1H3
