21
gdb 86107	2.41168	1.49764	1.03089	1.269	84.91	-0.2177	0.0243	0.242	1214.0427	0.183472	-387.097656	-387.089018	-387.088074	-387.130473	34.187	
C	 0.0779067421	 1.5496102671	-0.0055406076	-0.478379
C	-0.0449722512	 0.0516081038	-0.0096849375	 0.297265
C	 0.0240576471	-0.6803997089	-1.1264198939	-0.139153
C	-0.0455811614	-2.1625508613	-1.1394386687	-0.07724
C	 0.9427518549	-2.9600630074	-0.2981101732	-0.286451
C	-0.493335431	-2.8547838772	 0.1289621379	-0.017634
C	-0.936244968	-1.9806645415	 1.2772873958	 0.107148
O	-0.7467713902	-2.7186348446	 2.4834050781	-0.435433
C	-0.2055598979	-0.6261998421	 1.3343744505	-0.352344
H	 0.9260214462	 1.8792983396	 0.6096282294	 0.120951
H	 0.2201885525	 1.9464375544	-1.014477196	 0.119245
H	-0.8158725297	 2.0209469737	 0.424621408	 0.118321
H	 0.1631304931	-0.1855878408	-2.0847495869	 0.077402
H	-0.3460010657	-2.6103234136	-2.0811574684	 0.081029
H	 1.2864481297	-3.9152798172	-0.6798281364	 0.110045
H	 1.6940613036	-2.3978991263	 0.2444873966	 0.118288
H	-1.0959980273	-3.7500081985	 0.0112160652	 0.088596
H	-2.0107787933	-1.7805750772	 1.131100875	 0.06521
H	-1.1130200532	-2.1986594412	 3.206373697	 0.277526
H	 0.778843503	-0.7960728603	 1.7928150644	 0.118962
H	-0.7416512133	 0.0373498797	 2.0266626705	 0.086647
120.434	138.379	197.2147	251.5127	269.4982	294.7334	368.4839	400.9519	435.9198	462.2051	511.0876	600.0841	662.7355	758.7475	837.6038	847.6364	873.2895	890.669	939.5839	958.853	987.7211	1035.5945	1045.8143	1054.6359	1059.0474	1083.807	1108.7036	1131.8988	1143.2641	1185.8666	1215.3198	1228.1869	1262.5978	1311.1517	1356.4827	1369.6899	1385.9773	1413.5616	1420.1487	1443.5815	1476.576	1482.5314	1490.3374	1497.4875	1730.8728	2955.5109	3003.5207	3009.7859	3033.9192	3051.2907	3107.6701	3136.3537	3145.9413	3153.2122	3163.6624	3224.1899	3809.4306
CC1=CC2CC2C(O)C1	CC1=C[C@H]2C[C@H]2[C@@H](O)C1	
InChI=1S/C8H12O/c1-5-2-6-4-7(6)8(9)3-5/h2,6-9H,3-4H2,1H3	InChI=1S/C8H12O/c1-5-2-6-4-7(6)8(9)3-5/h2,6-9H,3-4H2,1H3/t6-,7+,8-/m0/s1
