12
gdb 25393	3.18693	1.39636	0.97094	6.095	67.53	-0.2821	-0.1238	0.1583	1090.6675	0.077164	-472.674512	-472.667284	-472.66634	-472.707101	25.562	
O	 0.0071350101	-0.0408459863	-0.0030368771	-0.225096
C	 0.008911072	 1.1602537701	 0.0074862013	 0.09949
C	 1.2467861131	 1.9960600212	 0.0014175817	 0.319429
C	 1.2105376447	 3.3504331188	 0.0136109481	-0.237791
C	 2.4776074372	 4.012744825	 0.0055663139	 0.046855
N	 3.6194880893	 3.3990683664	-0.0123788423	-0.30178
C	 3.6511407653	 2.011578989	-0.0248852772	 0.451249
O	 4.6274760456	 1.332703975	-0.0416234993	-0.305732
O	 2.394078917	 1.3254008915	-0.0170660672	-0.232419
H	-0.9218715664	 1.7651102153	 0.0229664866	 0.103171
H	 0.2740808844	 3.891020649	 0.0285076685	 0.136867
H	 2.5117598077	 5.1021793649	 0.014592013	 0.145756
68.3934	113.9176	177.2843	222.3613	422.6134	429.3897	525.8107	560.8413	615.6823	642.0255	748.1843	798.1463	828.7952	879.9543	951.2251	1013.1417	1018.8021	1040.8519	1092.45	1212.8018	1390.3441	1414.5122	1441.1249	1578.7863	1687.301	1819.5081	1889.9015	2918.0302	3136.8961	3231.8972
O=CC1=CC=NC(=O)O1	O=Cc1ccnc(=O)o1	
InChI=1S/C5H3NO3/c7-3-4-1-2-6-5(8)9-4/h1-3H	InChI=1S/C5H3NO3/c7-3-4-1-2-6-5(8)9-4/h1-3H
