14
gdb 43594	3.36751	1.39451	1.14338	4.8918	67.15	-0.2779	0.0049	0.2828	1033.7918	0.100787	-436.65747	-436.650092	-436.649148	-436.689667	27.692	
O	 0.0347666947	-0.0188275701	-0.066770052	-0.327814
C	 0.0472653594	 1.1688598084	-0.0169563278	 0.4546
O	-1.087861133	 1.9142579153	 0.1790993365	-0.231597
C	-0.8010562521	 3.324628645	 0.1326179306	-0.08723
C	-1.3810873365	 4.0124582683	 1.2772474917	 0.326287
C	-1.847146994	 4.602979282	 2.2130557953	-0.436479
C	 0.7274703721	 3.3849330224	 0.0474753356	-0.042601
C	 1.4958766251	 2.7209618937	 1.1172847755	-0.255413
N	 1.1985772922	 2.0115888174	-0.1618816043	-0.17287
H	-1.2342023316	 3.7195090583	-0.7943157447	 0.134124
H	-2.2667193985	 5.120116088	 3.0410964933	 0.214118
H	 1.1691206359	 4.1598696917	-0.5682741935	 0.126383
H	 2.5453874654	 2.9542363253	 1.2568022837	 0.144137
H	 0.964429251	 2.3978620343	 2.0079715902	 0.154357
80.1051	131.9675	199.7812	262.1986	349.1993	454.0329	510.0357	554.7767	639.2471	672.03	688.8361	741.0995	774.8052	811.4714	849.2287	875.0235	961.458	997.132	1059.9985	1062.9529	1092.8266	1101.2258	1122.7413	1167.5849	1275.7774	1320.6327	1362.2191	1387.9972	1508.1528	1911.3181	2245.8964	3036.63	3126.7428	3181.5514	3223.6615	3499.9317
O=C1OC(C#C)C2CN12	O=C1O[C@@H](C#C)[C@H]2CN12	
InChI=1S/C6H5NO2/c1-2-5-4-3-7(4)6(8)9-5/h1,4-5H,3H2	InChI=1S/C6H5NO2/c1-2-5-4-3-7(4)6(8)9-5/h1,4-5H,3H2/t4-,5+,7?/m1/s1
