18
gdb 80448	2.55775	1.55806	1.29851	0.8692	72.39	-0.2333	0.0171	0.2504	1067.3948	0.146186	-439.090506	-439.081575	-439.080631	-439.123779	33.135	
C	 0.1113409472	 1.4288542093	-0.0891184349	-0.483165
C	 0.0044316815	-0.0524956507	 0.0041214084	 0.397637
N	-1.065893273	-0.7514470431	-0.0461898997	-0.360571
C	-0.6671172603	-2.1426044707	 0.0325364749	 0.232627
C	-1.5994901396	-3.0808476476	 0.7498094433	-0.473918
C	 0.2006909248	-2.5819939308	-1.1336089947	 0.038533
O	 0.2904991772	-1.8331731494	-2.3013076025	-0.426228
C	 0.862493272	-2.0913609693	 0.1335985523	-0.024247
O	 1.1831340442	-0.7146494907	 0.1629332994	-0.232551
H	 0.6462602166	 1.7127643374	-1.0009981522	 0.153247
H	-0.8858118724	 1.8676837604	-0.1023723381	 0.152318
H	 0.6798119449	 1.8221170945	 0.7589646887	 0.147435
H	-2.5721176414	-3.1114967708	 0.2481308766	 0.131249
H	-1.1937377882	-4.0966010236	 0.770312936	 0.115473
H	-1.762181419	-2.7546562346	 1.7820287968	 0.126289
H	 0.2572207937	-3.6586310655	-1.2874448583	 0.099016
H	-0.5381504237	-1.3494409578	-2.4015481712	 0.296044
H	 1.5166637055	-2.6984327672	 0.7465623251	 0.110813
119.2353	148.9741	158.5633	183.7363	227.8807	258.386	264.917	311.7932	380.5758	542.7531	596.4314	620.0009	659.0548	702.7342	777.5475	825.3734	896.4312	926.5567	952.6883	989.8388	1035.4285	1063.6383	1071.0406	1111.63	1114.8021	1156.0623	1237.8661	1262.481	1299.4184	1349.4415	1359.0633	1411.6194	1415.219	1438.3742	1473.7893	1478.5375	1481.1855	1498.2138	1694.7805	3035.6852	3051.8511	3103.4986	3110.1911	3111.1508	3118.2498	3165.155	3193.6787	3782.7642
CC1=NC2(C)C(O)C2O1	CC1=N[C@@]2(C)[C@@H](O)[C@H]2O1	
InChI=1S/C6H9NO2/c1-3-7-6(2)4(8)5(6)9-3/h4-5,8H,1-2H3	InChI=1S/C6H9NO2/c1-3-7-6(2)4(8)5(6)9-3/h4-5,8H,1-2H3/t4-,5+,6-/m0/s1
