14
gdb 66736	3.40823	1.76285	1.43108	1.9268	67.62	-0.2207	-0.0378	0.1829	875.8936	0.099187	-436.563591	-436.556672	-436.555728	-436.594765	26.986	
O	-0.450945925	 1.1733231801	 0.1547698624	-0.435479
C	-0.044725018	-0.0997389814	 0.0977739575	 0.409632
C	 0.8652619847	-0.8851091068	-0.8720536535	-0.124059
C	-0.0541890212	-2.0588892477	-0.890727128	-0.136169
N	 1.0175794396	-1.9709922381	 0.15952102	-0.152972
C	 0.0574946029	-1.1988467478	 1.0645485904	-0.152174
C	-1.0759029304	-1.3759150616	 0.0270746195	 0.156799
C	-2.4470849268	-0.9908737489	 0.1172063289	 0.005674
O	-2.8075687255	-0.0761851054	 0.8627953477	-0.35024
H	-1.3340311337	 1.1554525887	 0.5885953844	 0.31959
H	 1.6726196141	-0.5826781668	-1.5266935163	 0.122678
H	-0.1226680895	-2.8860485284	-1.5885826107	 0.112695
H	-0.0132282582	-1.2883667865	 2.1415458557	 0.131571
H	-3.172436053	-1.5015458394	-0.5456797979	 0.092454
124.9087	170.8992	250.1605	351.5165	372.2483	458.2327	533.5564	589.9005	655.2461	684.1533	737.9493	771.2619	784.14	860.9627	881.1363	939.6651	980.0106	983.8262	998.6422	1016.5889	1048.0914	1106.4242	1175.5324	1206.4468	1212.538	1296.3493	1349.676	1409.9143	1449.1344	1480.9182	1684.6117	2937.1706	3172.5547	3195.1816	3201.574	3466.7827
OC12C3C4N3C1C24C=O	O[C@@]12[C@@H]3[C@H]4N3[C@@H]1[C@@]24C=O	
InChI=1S/C6H5NO2/c8-1-5-2-3-6(5,9)4(5)7(2)3/h1-4,9H	InChI=1S/C6H5NO2/c8-1-5-2-3-6(5,9)4(5)7(2)3/h1-4,9H/t2-,3+,4-,5+,6+,7?/m1/s1
