21
gdb 102295	1.77553	1.21297	0.85941	3.3223	80.05	-0.2503	0.0196	0.2699	1456.1922	0.18054	-420.412336	-420.401417	-420.400473	-420.449163	38.678	
C	-0.2369825933	 1.5491427032	 0.2488861236	-0.391981
C	-0.0297585717	 0.0677984544	-0.0389551288	 0.138899
C	 1.0152649608	-0.5672233935	 0.8784338047	-0.392066
O	-1.3168425259	-0.5531488123	 0.1328270699	-0.27
C	-1.5009611768	-1.793883366	-0.5103147677	-0.008017
C	-2.7890592465	-2.4085267054	 0.0490876192	-0.167636
N	-2.5887568327	-2.6869686181	 1.4670015987	-0.516983
C	-1.5873414825	-1.6274411389	-1.9794327422	 0.272168
N	-1.6501877166	-1.4941680526	-3.1256612023	-0.327622
H	 0.7004441026	 2.0981481813	 0.1222330368	 0.119332
H	-0.9837286171	 1.9698836607	-0.4288447461	 0.130239
H	-0.5842362751	 1.6919870434	 1.2772775219	 0.122212
H	 0.2771026654	-0.0533564142	-1.0881630925	 0.094059
H	 1.9863195687	-0.0831449071	 0.7351294812	 0.121761
H	 0.7215644328	-0.4513129286	 1.9264160445	 0.12463
H	 1.1467401483	-1.6341966909	 0.6763676749	 0.123234
H	-0.6736539629	-2.4848279163	-0.2954063508	 0.122842
H	-3.617150651	-1.7191169014	-0.1809641376	 0.108955
H	-2.9830954797	-3.3476596239	-0.4791057032	 0.123053
H	-2.4538079743	-1.8069311263	 1.9548256922	 0.239472
H	-3.4208687126	-3.1177560074	 1.8560050036	 0.233449
31.736	74.7009	119.2476	136.8657	181.3347	207.49	228.1469	270.2222	277.7468	315.6154	372.1853	418.2713	457.6789	474.9509	545.5843	615.5244	805.1538	866.321	872.1095	928.1762	942.5362	951.1138	974.776	1064.698	1087.3091	1128.5398	1144.5435	1157.8364	1195.8148	1221.922	1274.2326	1341.0771	1353.4852	1368.7503	1396.5105	1408.6006	1417.7247	1429.807	1480.8562	1482.8996	1495.6896	1498.9902	1508.5358	1647.0673	2352.7482	2976.8718	3001.2385	3017.0614	3039.6833	3044.8219	3078.6134	3110.9847	3113.5027	3119.2963	3128.4618	3505.9501	3586.2064
CC(C)OC(CN)C#N	CC(C)O[C@@H](CN)C#N	
InChI=1S/C6H12N2O/c1-5(2)9-6(3-7)4-8/h5-6H,3,7H2,1-2H3	InChI=1S/C6H12N2O/c1-5(2)9-6(3-7)4-8/h5-6H,3,7H2,1-2H3/t6-/m0/s1
