20
gdb 92484	2.62472	1.64246	1.63552	2.125	73.67	-0.2106	0.0745	0.2851	973.9552	0.173794	-440.275172	-440.267577	-440.266633	-440.307158	30.019	
C	 0.0726566844	 1.4543981081	-0.1592315843	-0.330861
N	-0.0332595997	 0.0242963689	 0.0526939664	-0.054579
C	-1.416280109	-0.484370406	 0.0335084861	-0.192694
C	-1.5379586225	-1.5486540952	 1.1322790487	 0.190057
O	-0.5704125743	-2.5576497549	 0.9473011983	-0.267733
C	 0.7537665217	-2.0146670508	 1.0528360354	-0.053654
C	 0.6519011098	-0.4973773657	 1.2388407143	-0.063398
C	-0.1625266131	-0.2430453528	 2.5179692696	-0.072926
O	-1.4103592386	-0.9425691857	 2.4035213175	-0.268501
H	 1.1272345023	 1.7482568391	-0.1841241905	 0.11746
H	-0.3673697272	 1.7101123488	-1.1288145286	 0.125006
H	-0.4377765797	 2.0675745247	 0.6073128663	 0.096757
H	-2.1486879643	 0.3090810997	 0.2478578502	 0.094738
H	-1.6615612691	-0.9173079249	-0.9447043239	 0.106821
H	-2.5112967265	-2.0413755794	 1.1203535255	 0.09093
H	 1.2611861131	-2.4796860402	 1.9084667255	 0.097918
H	 1.3064587022	-2.2502466905	 0.1368244101	 0.106222
H	 1.6479555942	-0.0517942339	 1.3112351392	 0.074997
H	 0.3654404808	-0.6145701684	 3.4059721371	 0.104137
H	-0.3572844443	 0.8279500991	 2.6634870972	 0.099303
77.1475	206.3988	226.7652	298.6781	348.0595	369.23	399.046	438.7405	566.9167	583.0835	707.4165	781.4143	853.6095	861.561	875.6204	940.3417	952.1646	961.3957	1041.9075	1048.9942	1080.3457	1096.8038	1103.5196	1154.0555	1169.4481	1189.6876	1217.3448	1233.3559	1247.1301	1275.1017	1311.8582	1344.082	1353.7393	1355.7353	1396.7896	1402.8038	1411.7157	1461.4692	1485.595	1504.2755	1508.3015	1512.5362	1525.785	2926.9952	2982.8725	3004.8902	3012.8741	3032.4962	3039.6472	3054.4704	3065.2555	3077.3342	3098.2371	3111.7549
CN1CC2OCC1CO2	CN1C[C@H]2OC[C@@H]1CO2	
InChI=1S/C6H11NO2/c1-7-2-6-8-3-5(7)4-9-6/h5-6H,2-4H2,1H3	InChI=1S/C6H11NO2/c1-7-2-6-8-3-5(7)4-9-6/h5-6H,2-4H2,1H3/t5-,6+
