18
gdb 12739	2.68745	2.24928	1.85382	1.3614	67.36	-0.2416	0.0639	0.3055	840.9331	0.152685	-384.909707	-384.901922	-384.900978	-384.941426	29.471	
C	-0.5050312004	 1.4076948117	 0.002671279	-0.407137
C	 0.0928720182	 0.0254187613	-0.1274389663	 0.112079
O	 1.2908519987	-0.015014381	-0.9620891186	-0.320224
C	 2.0577158367	-0.6636621477	 0.063617717	 0.021944
C	 2.7640653388	 0.3277161941	 0.9943949267	-0.101968
O	 1.5812643115	 0.4351365173	 1.8298900244	-0.327517
C	 0.8820067989	-0.5773687224	 1.064692767	 0.376578
C	 0.2736525105	-1.6500023401	 1.9246598287	-0.484476
H	-0.7334022008	 1.8115095552	-0.9883393542	 0.12541
H	-1.4374875872	 1.3665690281	 0.5762250988	 0.115815
H	 0.18924465	 2.0786174156	 0.5128284256	 0.135456
H	-0.6471433508	-0.6858002923	-0.5229924433	 0.070401
H	 2.5751013117	-1.5613357464	-0.280585278	 0.084487
H	 3.609946673	-0.0824790735	 1.5610711933	 0.101768
H	 3.0459757409	 1.2785552798	 0.5307039723	 0.112266
H	-0.5044888527	-1.2201442635	 2.5657779611	 0.133763
H	-0.183045959	-2.431527317	 1.3099076932	 0.123568
H	 1.027417672	-2.1058367392	 2.5727804734	 0.127785
116.3546	191.6544	205.6757	217.7874	247.6979	321.1375	405.3327	411.3284	549.5291	633.3295	677.2931	831.5065	843.5633	875.2973	885.9736	918.6749	993.4456	1009.9686	1038.9015	1070.0802	1098.5732	1129.7748	1155.0537	1167.1254	1179.3564	1204.9456	1260.5967	1303.752	1338.7673	1363.2806	1384.9233	1403.7451	1413.0975	1480.582	1483.3067	1489.5362	1492.9762	1503.6909	2993.6399	3015.6451	3034.7087	3040.8884	3081.6081	3092.7193	3102.3142	3107.1608	3118.0656	3136.5473
CC1OC2COC12C	C[C@H]1O[C@H]2CO[C@@]12C	
InChI=1S/C6H10O2/c1-4-6(2)5(8-4)3-7-6/h4-5H,3H2,1-2H3	InChI=1S/C6H10O2/c1-4-6(2)5(8-4)3-7-6/h4-5H,3H2,1-2H3/t4-,5+,6+/m1/s1
