15
gdb 32031	3.78015	1.21853	0.92697	4.1181	74.33	-0.2268	-0.0401	0.1866	1202.3941	0.113502	-454.019619	-454.01134	-454.010396	-454.053586	29.284	
C	 0.0799598508	 1.4306006278	 0.0297784114	-0.318561
N	-0.0734034125	-0.0117530863	-0.0046928054	-0.353372
C	-1.270488747	-0.624008144	 0.0042914358	 0.539546
N	-2.3884431029	 0.0495879586	-0.0339602998	-0.383353
C	-3.51750706	-0.7124863427	-0.0456824257	 0.022409
C	-3.5450048826	-2.0729920575	-0.0107060664	-0.276529
C	-2.3166785836	-2.8103911083	 0.0415003457	 0.415982
O	-2.1084132436	-3.9879931415	 0.0820956153	-0.334765
O	-1.1556041872	-1.9595218556	 0.0443797673	-0.261844
H	 1.0824676648	 1.6848945962	-0.319618162	 0.134314
H	-0.6595257147	 1.8898544014	-0.6276669078	 0.166698
H	-0.0599679714	 1.8355890421	 1.0389895924	 0.139206
H	 0.7310169522	-0.6069981345	 0.1029121669	 0.268906
H	-4.4475625554	-0.1506954957	-0.0835906052	 0.12089
H	-4.4661430572	-2.6382622401	-0.0174322124	 0.120474
37.675	95.0569	161.111	187.5563	209.0679	387.3359	417.3261	446.5679	490.1988	544.8497	643.5501	731.0033	785.2978	791.2461	824.7879	833.2134	970.6966	1013.7615	1053.6113	1111.8614	1144.0729	1157.7383	1189.1947	1311.4183	1348.9968	1439.8302	1453.6287	1483.3444	1509.8201	1553.5817	1613.8319	1649.6262	1874.7303	3033.9561	3109.9903	3151.5789	3163.6545	3236.3564	3660.6437
CNC1=NC=CC(=O)O1	CNc1nccc(=O)o1	
InChI=1S/C5H6N2O2/c1-6-5-7-3-2-4(8)9-5/h2-3H,1H3,(H,6,7)	InChI=1S/C5H6N2O2/c1-6-5-7-3-2-4(8)9-5/h2-3H,1H3,(H,6,7)
