18
gdb 60671	2.10953	1.44142	1.28707	2.5184	78.32	-0.2514	-0.0269	0.2245	1115.7698	0.143544	-401.88428	-401.874544	-401.873599	-401.918999	35.397	
C	 0.2529027206	 1.4267914389	 0.352500531	-0.411386
C	-0.1338075254	-0.0222865486	-0.0227775559	-0.043497
C	 0.4678958041	-0.9336358459	 1.0684419286	 0.174554
O	-0.1447247905	-1.4835706377	 1.9389159768	-0.245418
C	-1.5892346091	-0.1632453785	-0.0935952352	 0.355867
C	-2.7821110788	-0.2718167926	-0.1964200734	-0.482535
N	 0.5986017714	-0.3718870757	-1.255014395	-0.099242
C	 0.0779746227	-1.4214648725	-2.1286127023	-0.232455
C	 0.0365661919	 0.0071700838	-2.5475004461	-0.227563
H	 1.3393303225	 1.5049457861	 0.4492844531	 0.131791
H	-0.074914077	 2.1079928131	-0.4367313649	 0.136328
H	-0.2220091506	 1.7205244948	 1.2912119431	 0.140735
H	 1.5720295228	-1.0119933715	 0.9654972271	 0.09646
H	-3.8376121121	-0.3741781017	-0.2613355854	 0.204004
H	 0.8266563745	-2.0963086261	-2.5323585964	 0.120732
H	-0.8732582407	-1.8785340531	-1.8682780099	 0.133872
H	-0.943106607	 0.4789848135	-2.5602995103	 0.127233
H	 0.7511184406	 0.3970361138	-3.266506665	 0.120521
54.8363	95.6658	139.9849	158.8306	219.6775	233.5298	271.3339	305.4052	373.092	431.2043	445.941	572.0128	600.7532	636.2333	667.072	722.527	808.0944	832.5069	907.7507	910.9539	984.0085	1002.3288	1035.341	1115.5953	1120.422	1132.3719	1151.6754	1172.7966	1187.2496	1241.3454	1308.9345	1387.5537	1401.9375	1482.4037	1483.5591	1491.5458	1511.4968	1848.5114	2227.6604	2904.285	3048.3038	3107.0733	3113.4314	3127.5219	3138.0592	3191.5528	3206.296	3497.9745
CC(C=O)(C#C)N1CC1	C[C@@](C=O)(C#C)N1CC1	
InChI=1S/C7H9NO/c1-3-7(2,6-9)8-4-5-8/h1,6H,4-5H2,2H3	InChI=1S/C7H9NO/c1-3-7(2,6-9)8-4-5-8/h1,6H,4-5H2,2H3/t7-/m0/s1
