17
gdb 54640	4.05525	1.1401	0.95589	4.2089	76.32	-0.2284	-0.0264	0.202	1206.8756	0.137515	-418.023198	-418.015221	-418.014277	-418.055928	30.496	
N	-0.0222753489	 1.3459262638	 0.1027741751	-0.543
C	 0.0525838319	-0.0256852377	 0.0460790254	 0.310962
O	 1.1211289639	-0.6132341079	 0.0615764884	-0.369582
C	-1.2524367049	-0.7257629987	 0.005353951	 0.208205
C	-1.3639492455	-2.0612820279	-0.0345561421	-0.110103
N	-2.6951418864	-2.5551627702	-0.081562346	-0.110827
C	-3.4117549605	-2.2954083158	 1.1967639917	-0.238633
C	-3.53589161	-1.3358099254	 0.0721016922	-0.011905
C	-2.6390967135	-0.0987267372	 0.0228744444	-0.38224
H	 0.8470171481	 1.8454238153	 0.0015215239	 0.258694
H	-0.8679926173	 1.8331267334	-0.1390873805	 0.255987
H	-0.5436733819	-2.7669272361	-0.0394786814	 0.139858
H	-4.2266931263	-2.9811712929	 1.4069286415	 0.126566
H	-2.8016769831	-2.0170203977	 2.0516656951	 0.127378
H	-4.4552869033	-1.3329973203	-0.503964776	 0.103297
H	-2.7904335911	 0.5761113522	 0.8747837177	 0.121234
H	-2.8444483312	 0.483312353	-0.8859566802	 0.11411
70.0764	130.5582	184.6755	287.5476	327.1922	345.8816	398.2275	481.4234	514.6554	561.1718	650.9944	708.1792	765.8529	782.7734	794.2469	879.0371	924.4699	954.7691	961.5265	1051.1805	1063.5641	1086.2729	1099.441	1110.5576	1119.5574	1168.1549	1192.5117	1253.0728	1291.08	1314.1131	1372.1762	1386.5852	1487.7178	1499.6604	1616.5037	1663.2277	1771.7866	3008.4512	3041.6428	3114.1999	3164.6685	3208.5227	3233.4559	3594.6861	3726.2757
NC(=O)C1=CN2CC2C1	NC(=O)C1=CN2C[C@H]2C1	
InChI=1S/C6H8N2O/c7-6(9)4-1-5-3-8(5)2-4/h2,5H,1,3H2,(H2,7,9)	InChI=1S/C6H8N2O/c7-6(9)4-1-5-3-8(5)2-4/h2,5H,1,3H2,(H2,7,9)/t5-,8?/m1/s1
