15
gdb 124016	4.25658	1.5429	1.33005	3.9383	70.67	-0.2463	-0.0044	0.2419	930.8879	0.116537	-412.911915	-412.905666	-412.904722	-412.942766	24.314	
C	 0.1244203909	 1.5407453235	-0.1464531972	-0.179982
N	 1.5168709329	 1.4968781931	 0.3703290513	-0.301322
C	 1.503207729	 0.01910971	 0.493304864	-0.164901
C	-0.0207563422	 0.0139427118	 0.0727080631	-0.016455
N	 0.4199478113	-0.7827438863	-1.0894278112	 0.100457
N	 0.1451998196	-1.2207257295	-2.3292658339	-0.179441
N	 1.3177807479	-1.5484271483	-2.8247568218	-0.178312
C	 2.3296324056	-1.2688484913	-1.9414801102	-0.205136
C	 1.7358200241	-0.7696691674	-0.8020652776	 0.276643
H	-0.5293026597	 2.141420676	 0.4932087422	 0.126206
H	-0.0045409941	 1.8533156583	-1.1870913615	 0.131325
H	 2.2268933858	 1.8619236082	-0.2544156913	 0.233727
H	 1.8997058785	-0.3780608399	 1.4269533539	 0.107342
H	-0.8496278685	-0.3932166419	 0.6460262189	 0.122488
H	 3.3570553489	-1.4684128465	-2.1941587588	 0.127361
111.0814	167.4162	281.6589	444.2375	456.8878	654.889	685.0908	697.8165	739.5174	804.8688	834.2252	835.5013	893.4648	936.9834	991.9068	1005.3188	1031.2624	1051.2365	1105.6035	1107.216	1149.9165	1176.5114	1192.4955	1203.0479	1262.2934	1276.6702	1290.229	1311.5357	1337.0189	1375.4292	1467.2227	1505.2969	1523.2332	3046.1904	3095.1742	3120.8142	3157.8158	3283.7018	3542.9441
C1NC2C1N1N=NC=C21	C1N[C@H]2[C@@H]1n1nncc21	
InChI=1S/C5H6N4/c1-3-5(6-1)4-2-7-8-9(3)4/h2-3,5-6H,1H2	InChI=1S/C5H6N4/c1-3-5(6-1)4-2-7-8-9(3)4/h2-3,5-6H,1H2/t3-,5+/m1/s1
