17
gdb 37814	3.06581	2.01053	1.74005	1.7586	76.77	-0.2255	0.0054	0.2309	848.8989	0.137353	-384.58392	-384.577738	-384.576793	-384.614008	26.519	
C	-0.1381591241	 1.6061258362	 0.17844305	-0.315682
C	 1.3774184173	 1.3528379658	 0.0187468862	-0.17542
C	 1.2995719739	-0.0131222337	 0.7996778298	 0.029189
O	 1.9824442043	-0.7826976506	-0.216180497	-0.350263
C	 1.1395993223	 0.1578324304	-0.9657442738	 0.432494
C	 0.6587171895	-0.2847550673	-2.3307459716	-0.410736
C	-0.586737314	-1.0859907457	-1.9215937844	-0.043485
C	-0.9680638269	-0.9119312554	-0.6445350124	-0.217974
C	-0.0599446642	 0.0656073932	 0.0118353841	 0.226193
H	-0.4717805111	 1.9832310001	 1.1489164558	 0.098907
H	-0.6261006456	 2.1559305852	-0.631513042	 0.101738
H	 2.2097840893	 2.0575313668	 0.0301679644	 0.082749
H	 1.5135035256	-0.2191729809	 1.8495978836	 0.091817
H	 0.4021374077	 0.5480473688	-2.9970386207	 0.120997
H	 1.4092049846	-0.8945431022	-2.8441802382	 0.130747
H	-1.1045558997	-1.7227486062	-2.6327837966	 0.099181
H	-1.835293309	-1.3812337044	-0.1944294073	 0.099547
212.0031	246.8239	403.6109	423.8986	469.8312	529.2376	608.7778	728.8453	738.0673	763.9857	776.7886	822.6927	839.9214	874.8665	912.146	913.7164	944.1676	953.8652	965.1034	1016.8204	1036.341	1058.3661	1084.2858	1099.0154	1142.0307	1153.5507	1176.4522	1185.3549	1211.1771	1257.9719	1269.4647	1296.731	1340.1762	1370.2998	1459.813	1511.2245	1622.7077	3034.4935	3051.0331	3081.2992	3102.299	3107.3445	3116.9022	3174.8855	3202.4093
C1C2C3OC22CC=CC132	C1[C@H]2[C@@H]3O[C@@]42CC=C[C@@]134	
InChI=1S/C8H8O/c1-2-7-4-5-6(7)9-8(5,7)3-1/h1-2,5-6H,3-4H2	InChI=1S/C8H8O/c1-2-7-4-5-6(7)9-8(5,7)3-1/h1-2,5-6H,3-4H2/t5-,6-,7+,8+/m0/s1
