15
gdb 132944	2.37599	1.74279	1.01156	6.7422	72.34	-0.2151	-0.0186	0.1965	1092.2333	0.112988	-461.969004	-461.961111	-461.960167	-462.001371	29.693	
C	-0.0197939288	 1.5049541583	 0.018622736	-0.470925
C	-0.0024324951	 0.0054179992	-0.0183677218	 0.123817
C	-0.0376985671	-0.6961864605	-1.1811950305	-0.057736
N	-0.0215718789	-2.0636715661	-1.204502862	-0.329017
C	 0.0311815459	-2.787255929	-0.0437662159	-0.102001
C	 0.068386036	-2.146832308	 1.1482164148	 0.133136
F	 0.1197863731	-2.8628385297	 2.2688256492	-0.063081
C	 0.0551231878	-0.6895659444	 1.2744457349	 0.213804
O	 0.0886621625	-0.1076532729	 2.3543958213	-0.390378
H	 0.8702964655	 1.8849248492	 0.5309167826	 0.145327
H	-0.0640669875	 1.9369391846	-0.9847587567	 0.106463
H	-0.8767498034	 1.8631128523	 0.5986455351	 0.145369
H	-0.0805207309	-0.2166377091	-2.1522888355	 0.128428
H	-0.0498071449	-2.5477461622	-2.0852391745	 0.271904
H	 0.0415251058	-3.8660743116	-0.1244822669	 0.144889
109.3583	142.0749	255.7445	274.3028	304.8082	309.7421	422.8732	464.467	489.695	510.9658	562.2916	577.9042	689.4789	782.0561	859.3309	870.8106	886.9491	967.9941	1037.3126	1063.6698	1101.689	1238.4006	1259.7922	1306.8212	1379.7204	1398.8354	1415.8374	1465.9897	1488.269	1555.377	1649.9569	1694.3416	1716.4604	3037.2009	3093.9005	3118.4062	3198.072	3224.0546	3671.1956
CC1=CNC=C(F)C1=O	Cc1c[nH]cc(F)c1=O	
InChI=1S/C6H6FNO/c1-4-2-8-3-5(7)6(4)9/h2-3H,1H3,(H,8,9)	InChI=1S/C6H6FNO/c1-4-2-8-3-5(7)6(4)9/h2-3H,1H3,(H,8,9)
