13
gdb 9586	4.33495	1.35327	1.2651	4.3481	62.13	-0.2756	-0.061	0.2146	948.3817	0.09374	-398.60512	-398.597468	-398.596524	-398.637217	27.484	
O	 0.03700491	 1.3860312395	 0.0895204826	-0.442859
C	 0.0231174057	 0.014875365	 0.0676255536	 0.357775
C	-0.4547158929	-0.7019140636	 1.2920104803	-0.33424
C	-1.3492766827	-0.7316424779	 0.0714418048	-0.270262
C	-2.5390842865	 0.0634934376	 0.0215524308	 0.313592
N	-3.5074208615	 0.6934183843	-0.0330903245	-0.320722
C	 1.0447553956	-0.5988409382	-0.8187635011	 0.104945
O	 1.7572039038	 0.0825238264	-1.5162027818	-0.270464
H	 0.5765986702	 1.6562288147	-0.6705529857	 0.306535
H	 0.021262501	-1.6320931012	 1.5820679467	 0.142053
H	-0.755309647	-0.0553612732	 2.107735286	 0.168833
H	-1.4062503667	-1.6643288007	-0.4806573431	 0.144629
H	 1.094917141	-1.7067732728	-0.8185214486	 0.100185
86.2902	133.75	201.6777	267.1801	311.4503	336.5521	394.9168	447.2784	535.8715	561.9143	656.6007	734.3732	813.7184	866.8797	910.6308	997.3655	1036.0405	1055.6222	1091.1436	1127.3324	1195.4393	1338.6288	1362.9548	1396.3089	1449.581	1487.2312	1803.3646	2358.8057	2930.3932	3143.7234	3164.0743	3243.3053	3706.5604
OC1(CC1C#N)C=O	O[C@]1(C[C@H]1C#N)C=O	
InChI=1S/C5H5NO2/c6-2-4-1-5(4,8)3-7/h3-4,8H,1H2	InChI=1S/C5H5NO2/c6-2-4-1-5(4,8)3-7/h3-4,8H,1H2/t4-,5+/m0/s1
