20
gdb 69580	3.53164	1.30591	1.17961	1.5568	86.01	-0.2216	0.0174	0.2391	1140.782	0.171673	-365.98549	-365.977472	-365.976528	-366.017519	32.533	
C	-0.053887157	 1.5440021103	 0.0449841089	-0.492133
C	 0.0884733317	 0.0453776101	-0.0052260812	 0.298806
N	-0.7683466944	-0.817334436	 0.8670822035	-0.374418
C	 0.7038391939	-0.7940477186	 1.0623962088	-0.217792
C	 1.429559256	-1.9336669965	 0.391442263	 0.390922
C	 2.7703465543	-2.4292633741	 0.897782063	-0.323721
C	 1.553265737	-3.3020150079	 1.0248242455	-0.297921
C	 1.149816779	-1.7504378722	-1.0612746873	-0.159599
C	 0.425681179	-0.6510837337	-1.2909586031	-0.130199
H	 0.822388037	 2.037971141	-0.38846619	 0.126672
H	-0.9346607682	 1.875612927	-0.5175658922	 0.124641
H	-0.163532848	 1.8964311192	 1.0760550839	 0.112307
H	-1.1832388092	-0.2233855225	 1.5855621962	 0.217419
H	 1.1029863769	-0.362314291	 1.9755317624	 0.080253
H	 3.5245363211	-2.6929675873	 0.1638670971	 0.112638
H	 3.1658086522	-1.9643019368	 1.7957552054	 0.111603
H	 1.1108514662	-3.4383708092	 2.0055025805	 0.117922
H	 1.4698715001	-4.1662465694	 0.3744779977	 0.114626
H	 1.4812736483	-2.4621842429	-1.8097123459	 0.095199
H	 0.0883966842	-0.3010297695	-2.2593826463	 0.092775
115.8342	206.0328	207.552	238.5716	308.0248	341.5871	404.2319	446.0096	525.7629	606.4479	632.2283	750.0908	774.613	775.037	828.3113	845.0464	903.8011	917.5325	923.5723	936.3541	953.2108	972.2204	991.2915	1033.0166	1058.1125	1060.943	1075.2218	1104.0589	1122.0166	1157.8995	1189.99	1266.7146	1275.9426	1329.9192	1348.4832	1374.3159	1416.3247	1443.9816	1466.2973	1485.0049	1498.6653	1500.2828	1656.54	3024.1199	3086.2528	3098.2671	3123.624	3132.926	3149.5128	3182.8753	3204.6549	3209.2092	3222.0533	3455.1266
CC12NC1C1(CC1)C=C2	C[C@]12N[C@H]1C1(CC1)C=C2	
InChI=1S/C8H11N/c1-7-2-3-8(4-5-8)6(7)9-7/h2-3,6,9H,4-5H2,1H3	InChI=1S/C8H11N/c1-7-2-3-8(4-5-8)6(7)9-7/h2-3,6,9H,4-5H2,1H3/t6-,7-/m1/s1
