18
gdb 65621	3.33412	1.32058	1.20925	2.4521	78.15	-0.2294	0.0306	0.26	1092.7936	0.14627	-401.864362	-401.85592	-401.854976	-401.897067	32.776	
C	 0.1608693466	 1.4484923392	-0.0803957428	-0.442352
C	 0.0306342707	-0.0615691608	 0.0145358033	 0.197717
O	 0.9704895673	-0.7502790172	-0.8829196631	-0.330631
C	 1.4735217793	-1.5863197377	 0.174892094	 0.112372
C	 2.7593881342	-1.0504411395	 0.8379565039	-0.188697
N	 1.9315233623	-0.1448099073	 1.6899272674	-0.320422
C	 0.6835877536	-0.7932768734	 1.2367183641	-0.104382
C	-1.3345053071	-0.5199948552	-0.2298897309	 0.340937
C	-2.459886781	-0.9079434857	-0.400344459	-0.465018
H	 1.1632621461	 1.7447203532	 0.2323828091	 0.140859
H	-0.0170612088	 1.7677537355	-1.110931001	 0.131552
H	-0.5769959705	 1.9356127391	 0.5641085714	 0.121506
H	 1.388941959	-2.6513070151	-0.0483997516	 0.087684
H	 3.2960555274	-1.8262803581	 1.3986810688	 0.098183
H	 3.4582523754	-0.5306217274	 0.1754334704	 0.115304
H	 2.1029178131	-0.2317563014	 2.6833177567	 0.224794
H	 0.0169354848	-1.2025844143	 1.9952948634	 0.083773
H	-3.4533530426	-1.2453250837	-0.5656980842	 0.196823
100.5777	138.9083	182.575	208.911	268.4374	333.1404	396.344	451.2466	473.9474	554.883	615.3098	624.8582	660.087	670.4915	789.9435	803.4687	856.8914	883.8064	931.2231	967.4276	974.4213	1012.2289	1056.8263	1068.8455	1117.0758	1146.2918	1171.9662	1189.2497	1208.6373	1235.3074	1279.735	1324.4021	1347.4797	1385.1789	1396.595	1476.2237	1487.7742	1496.8673	2228.2564	3018.4754	3048.5525	3083.4085	3092.4711	3115.6855	3120.5099	3148.1033	3500.0944	3562.0268
CC1(OC2CNC12)C#C	C[C@]1(O[C@H]2CN[C@@H]12)C#C	
InChI=1S/C7H9NO/c1-3-7(2)6-5(9-7)4-8-6/h1,5-6,8H,4H2,2H3	InChI=1S/C7H9NO/c1-3-7(2)6-5(9-7)4-8-6/h1,5-6,8H,4H2,2H3/t5-,6+,7-/m0/s1
