23
gdb 107455	2.04514	1.56173	1.24622	1.3691	85.08	-0.2472	0.0708	0.3179	1170.3894	0.204862	-388.26636	-388.256719	-388.255775	-388.300211	37.728	
C	-0.156433636	 1.540159131	 0.068435092	-0.455349
C	-0.0090127891	 0.0210060176	-0.0149871299	 0.287229
C	-1.3421266717	-0.6167844896	-0.4116776096	-0.453399
C	 1.1729983986	-0.5432894633	-0.8901194883	-0.283619
C	 1.7341989795	-1.2616174225	 0.3416966899	-0.112359
C	 2.0584490615	-0.2540381187	 1.4065117388	-0.351827
C	 0.6202179959	-0.6846243115	 1.2178710897	 0.324281
C	-0.1532218211	-1.3029538636	 2.3439929312	-0.179133
O	-0.7867719145	-0.3232552468	 3.1638904065	-0.417697
H	 0.7867046004	 2.0340606914	 0.3203052094	 0.106468
H	-0.4982570175	 1.9531652786	-0.8877602878	 0.109206
H	-0.8916294403	 1.8096800943	 0.8345018741	 0.122219
H	-1.6667217907	-0.2455082633	-1.3900887432	 0.108786
H	-1.2618580374	-1.707149114	-0.479228795	 0.109757
H	-2.1260783655	-0.3797353508	 0.3158001388	 0.127229
H	 0.8215260411	-1.216948388	-1.6752344666	 0.098805
H	 1.8403217256	 0.1989645802	-1.3416638372	 0.09092
H	 2.1554264965	-2.2600427376	 0.3544155493	 0.085307
H	 2.5404386551	-0.6528767483	 2.295016073	 0.106764
H	 2.3983387182	 0.7411908001	 1.1316583601	 0.106143
H	-0.9682005728	-1.9309320957	 1.9704882131	 0.108624
H	 0.5117908814	-1.9534964342	 2.9358825907	 0.080972
H	-0.1029317674	 0.2949125348	 3.4435645008	 0.280674
76.869	108.1266	203.4973	231.6082	248.6608	294.3314	301.6885	344.3708	356.3016	411.3119	417.3644	450.0012	469.4058	625.188	686.2806	802.3787	844.5946	866.8679	910.4681	918.554	954.6659	959.6602	978.4819	1000.6704	1020.7532	1028.3402	1049.5706	1060.4376	1081.8319	1140.2438	1175.5993	1199.353	1237.2982	1244.1019	1257.6853	1279.1546	1321.0599	1358.6005	1385.9941	1400.243	1415.8767	1430.2823	1479.8376	1484.9164	1489.4582	1498.2284	1505.282	1508.51	1515.2752	2965.9958	3022.0288	3027.6569	3040.2917	3076.0149	3089.2691	3092.3685	3095.185	3101.5677	3103.1663	3109.1309	3175.5166	3190.7616	3805.8181
CC1(C)CC2CC12CO	CC1(C)C[C@H]2C[C@@]12CO	
InChI=1S/C8H14O/c1-7(2)3-6-4-8(6,7)5-9/h6,9H,3-5H2,1-2H3	InChI=1S/C8H14O/c1-7(2)3-6-4-8(6,7)5-9/h6,9H,3-5H2,1-2H3/t6-,8-/m0/s1
