18
gdb 35470	3.93275	1.15171	0.96945	1.9186	83.34	-0.2405	0.006	0.2466	1213.9266	0.148932	-364.759157	-364.75129	-364.750346	-364.79153	31.137	
C	 0.0775910247	-1.2318855373	 0.1424494954	-0.453511
C	 0.0369129697	-0.033598419	 0.0568352895	 0.306003
C	-0.0160735888	 1.4238442952	-0.0266805137	-0.215399
C	-0.8260449348	 2.0190802192	 1.1590268873	-0.202582
C	-0.7315182029	 3.5386361577	 1.2022142244	-0.066236
N	 0.1961347805	 4.1012170316	 2.2077460041	-0.33455
C	 0.5347819319	 4.176349205	 0.7632258325	-0.068022
C	 1.6217274738	 3.291757606	 0.2728082086	-0.067214
C	 1.3774281875	 2.0365306432	-0.0991483153	-0.04539
H	 0.1139687795	-2.2908116718	 0.2115207197	 0.193559
H	-0.5427775056	 1.6810589628	-0.9593568905	 0.116105
H	-1.8682108298	 1.6952378303	 1.0831878158	 0.105118
H	-0.4215368238	 1.6138440174	 2.0898408572	 0.130451
H	-1.6538262249	 4.0837440434	 1.0184814297	 0.085178
H	-0.1461409469	 5.0092033076	 2.5161935406	 0.227686
H	 0.4782576976	 5.1588344937	 0.2984343986	 0.089146
H	 2.6275755243	 3.6989388497	 0.2133805471	 0.093995
H	 2.171912098	 1.3988092453	-0.4733007609	 0.105664
78.9257	146.4172	194.8446	265.7906	382.5314	421.888	459.0404	495.4422	539.7187	595.7583	621.463	640.3766	720.1885	738.5176	817.4957	823.9263	906.7805	925.3723	948.315	980.3012	996.976	1006.5919	1047.7748	1080.3204	1111.4512	1162.1426	1183.264	1218.4526	1241.4011	1265.4656	1288.0367	1310.1231	1338.0153	1389.901	1417.3727	1453.7661	1480.5412	1710.2001	2237.2895	2975.1972	3057.9477	3108.4975	3119.5671	3137.6403	3157.9667	3187.4904	3482.5891	3504.7335
C#CC1CC2NC2C=C1	C#C[C@H]1C[C@H]2N[C@H]2C=C1	
InChI=1S/C8H9N/c1-2-6-3-4-7-8(5-6)9-7/h1,3-4,6-9H,5H2	InChI=1S/C8H9N/c1-2-6-3-4-7-8(5-6)9-7/h1,3-4,6-9H,5H2/t6-,7+,8-/m1/s1
