20
gdb 111307	2.144	1.55142	1.20733	1.4615	74.57	-0.2291	0.0721	0.3012	1122.866	0.169519	-440.229501	-440.220158	-440.219214	-440.263067	35.866	
C	-0.3297850889	 1.548460176	 0.1669271385	-0.465458
C	-0.0962294616	 0.0469133058	 0.1335149124	 0.417731
O	-1.2440884609	-0.6732345293	 0.5513770047	-0.48895
C	 0.3777133357	-0.5717598449	-1.1913945718	-0.079687
N	 1.687611816	 0.0488599946	-1.4985612628	-0.347093
C	 1.6132067829	-1.1047578098	-0.5639533857	-0.08772
C	 1.2247798632	-0.5383392243	 0.8054297265	-0.02974
C	 2.2027894479	 0.3731284304	 1.5161871885	-0.109649
O	 1.5610893108	 0.8401816678	 2.7022063712	-0.42882
H	 0.4917576353	 2.0753228184	-0.3236443412	 0.13483
H	-1.2627421715	 1.7880219021	-0.3530284704	 0.111408
H	-0.3961630275	 1.9017746736	 1.2008311442	 0.119153
H	-1.4520111252	-0.3861079487	 1.4475713662	 0.279777
H	-0.2538882864	-0.9896209519	-1.9655090945	 0.094294
H	 1.9852177703	-0.3156705665	-2.4027609729	 0.230044
H	 2.1577339709	-2.0181004854	-0.7710494012	 0.090342
H	 0.9096069393	-1.3410945579	 1.4780666617	 0.083677
H	 3.1196743269	-0.188632332	 1.7607110134	 0.081794
H	 2.4892122228	 1.2037294602	 0.8586292503	 0.107352
H	 2.1257834899	 1.5050301318	 3.1067965527	 0.286715
99.2327	124.4389	200.7624	236.6639	247.2941	256.7951	283.2351	305.2448	375.1903	408.1434	456.7371	533.2185	543.8865	655.1505	737.3531	829.5897	847.4642	861.9442	930.2299	963.1282	986.3937	1013.7982	1015.671	1058.3079	1080.5289	1098.7574	1105.8245	1122.6336	1181.8462	1191.664	1208.5534	1247.8982	1262.1448	1285.5697	1310.6964	1348.2309	1376.6717	1399.193	1408.2553	1452.0756	1486.3816	1503.5589	1525.1244	2963.1491	3036.2139	3039.7475	3077.2666	3110.2803	3129.7827	3180.9365	3198.5131	3478.1106	3801.5613	3829.4116
CC1(O)C2NC2C1CO	C[C@@]1(O)[C@H]2N[C@H]2[C@H]1CO	
InChI=1S/C6H11NO2/c1-6(9)3(2-8)4-5(6)7-4/h3-5,7-9H,2H2,1H3	InChI=1S/C6H11NO2/c1-6(9)3(2-8)4-5(6)7-4/h3-5,7-9H,2H2,1H3/t3-,4+,5+,6+/m1/s1
