19
gdb 47521	2.54547	1.74082	1.28112	1.9487	74.65	-0.2362	-0.0143	0.2219	1019.6	0.16143	-423.0321	-423.024728	-423.023784	-423.063808	29.708	
O	-0.0025776607	-0.0392844633	-0.2916808108	-0.318898
C	 0.012112378	 1.1435669917	-0.033897975	 0.391674
C	-1.2908067907	 1.9319340287	 0.1102215893	-0.320488
C	-1.3227487202	 3.3134149383	-0.564643961	-0.08681
O	-0.4902068352	 4.304476361	 0.0107627221	-0.263899
C	 0.8937779614	 4.0337664737	 0.136201369	 0.134322
C	 1.5063514973	 3.0387596159	-0.8881774354	-0.273088
C	 1.3178112652	 1.8905344211	 0.1622916217	-0.104941
C	 1.2491685512	 3.0078001603	 1.2499202491	-0.257636
H	-2.0879950176	 1.3077879684	-0.3032259256	 0.124929
H	-1.4991915174	 2.0581282295	 1.1807646759	 0.130587
H	-1.1127433158	 3.2013102771	-1.6383308848	 0.102087
H	-2.334113153	 3.7214554754	-0.4801796286	 0.117712
H	 1.3656666956	 5.0159767594	 0.2113612051	 0.086086
H	 1.0457819519	 2.9375768304	-1.8724204166	 0.115801
H	 2.5696411133	 3.2472885167	-1.0274423796	 0.115762
H	 2.1197445946	 1.1551485612	 0.2318402266	 0.088238
H	 2.240532356	 3.2037701923	 1.666386912	 0.109812
H	 0.5352056361	 2.8989933321	 2.0688118666	 0.108752
92.3204	216.7163	251.4612	335.7514	351.8614	418.2917	437.2068	481.5329	519.4666	665.2895	718.5705	776.2162	792.5054	856.5357	889.7177	913.7963	916.8016	935.8424	980.9191	1030.9995	1056.8103	1061.4428	1092.2631	1125.7837	1165.7868	1175.7534	1228.8406	1252.785	1260.1991	1270.0149	1278.0617	1291.7392	1336.2567	1347.8927	1390.1541	1417.8326	1448.8055	1468.5842	1491.2689	1514.848	1800.3369	2999.0017	3032.9409	3066.197	3071.8028	3083.201	3085.8944	3101.2603	3109.3464	3125.6183	3126.9386
O=C1CCOC2CC1C2	O=C1CCO[C@@H]2C[C@H]1C2	
InChI=1S/C7H10O2/c8-7-1-2-9-6-3-5(7)4-6/h5-6H,1-4H2	InChI=1S/C7H10O2/c8-7-1-2-9-6-3-5(7)4-6/h5-6H,1-4H2/t5-,6+
