18
gdb 51666	4.21944	0.94455	0.88554	4.0583	72.88	-0.2352	-0.0169	0.2184	1320.9971	0.147407	-439.037537	-439.029318	-439.028374	-439.071469	30.102	
O	-0.2431013626	 0.2143516965	 0.1210503835	-0.245498
C	 0.0678832006	 1.3790925057	 0.1081214261	 0.148473
C	 1.4471617121	 1.9012865889	-0.2161976785	-0.270135
C	 1.4274977879	 2.9041758158	-1.3700073349	-0.010674
N	 0.5739510311	 4.1168176564	-1.1489019032	-0.336997
C	 1.6895778125	 5.0216158239	-1.5245035072	-0.052764
C	 2.4859124637	 5.4790537068	-0.2930609044	-0.062631
O	 3.2612309368	 4.2474017021	-0.3028962984	-0.290148
C	 2.666712692	 3.8215675105	-1.5406986171	 0.087494
H	-0.6735222639	 2.1748492273	 0.3428427449	 0.085029
H	 1.8376841002	 2.4260361962	 0.6653125126	 0.135079
H	 2.1034720638	 1.0561527115	-0.44454764	 0.116628
H	 1.1999236108	 2.3952621697	-2.316451093	 0.082401
H	-0.2210923983	 4.1716818683	-1.7739301871	 0.226339
H	 1.5125265306	 5.7213772257	-2.3414617758	 0.08409
H	 3.1362657812	 6.34783259	-0.454500807	 0.10343
H	 1.904018373	 5.6020684956	 0.6254181084	 0.114239
H	 3.4080423886	 3.5672994192	-2.300982099	 0.085646
56.6057	76.6465	122.1247	172.5817	256.4849	393.1618	431.1214	457.8229	554.8358	654.2929	739.4251	796.0605	801.4033	857.9113	879.9476	932.58	953.3648	999.6888	1016.3323	1036.9912	1060.9083	1067.023	1106.1628	1123.3115	1157.039	1184.7737	1201.1241	1213.8059	1247.4032	1282.9711	1298.6495	1340.479	1353.2141	1377.8399	1394.8214	1420.8745	1459.5203	1503.0106	1828.0693	2889.2704	3009.8429	3020.8311	3034.4824	3086.8625	3090.614	3102.6617	3110.0546	3549.2389
O=CCC1NC2COC12	O=CC[C@H]1N[C@H]2CO[C@@H]12	
InChI=1S/C6H9NO2/c8-2-1-4-6-5(7-4)3-9-6/h2,4-7H,1,3H2	InChI=1S/C6H9NO2/c8-2-1-4-6-5(7-4)3-9-6/h2,4-7H,1,3H2/t4-,5+,6+/m1/s1
