18
gdb 75023	3.18009	1.27632	0.9789	4.4316	84.08	-0.2282	-0.0488	0.1794	1210.8688	0.149264	-401.999571	-401.99129	-401.990346	-402.032403	31.596	
C	 0.0603297631	 1.571224021	 0.0126703748	-0.486612
C	-0.0083059647	 0.0743891134	-0.043089669	 0.30894
C	 0.0053151464	-0.6184787043	-1.1937966413	-0.154949
C	-0.0529962377	-2.0669215919	-1.3071174058	-0.071042
C	-0.6133629483	-2.9573832082	-0.4640683443	-0.183698
C	-1.4572043529	-2.6881591227	 0.7290571591	 0.371062
O	-2.3206011664	-3.479000742	 1.0787062573	-0.382889
N	-1.2555893545	-1.5042537577	 1.3928805278	-0.306805
C	-0.0633229495	-0.6798199278	 1.270541516	-0.287145
H	 0.9200207306	 1.90649366	 0.6079539461	 0.131073
H	 0.1405154062	 2.0130971826	-0.9835922284	 0.128851
H	-0.8327254519	 1.9852382936	 0.4991621576	 0.135455
H	 0.10228275	-0.0735468157	-2.1303518426	 0.090901
H	 0.3812461972	-2.4710634019	-2.2202912335	 0.104397
H	-0.6080004056	-4.0094231992	-0.7293300255	 0.115706
H	-1.8521724553	-1.3816320183	 2.1972841578	 0.246315
H	 0.838093568	-1.3043005938	 1.3651864424	 0.127157
H	-0.0590255547	 0.018722533	 2.1105468416	 0.113283
75.3786	162.8412	199.1837	223.2727	327.0892	337.7317	349.0615	399.1645	496.874	513.432	541.0421	655.4084	720.4278	744.5591	816.6249	838.4501	886.9778	912.7111	951.8679	998.8208	1021.9502	1065.5963	1068.6896	1139.0857	1183.9722	1247.3289	1302.4976	1327.5678	1381.5297	1390.0371	1411.8738	1433.9183	1458.5775	1477.2157	1485.2726	1488.3423	1646.2737	1705.5622	1759.4574	2988.59	3012.7756	3057.7567	3098.3559	3116.7645	3134.3597	3152.7185	3192.5627	3619.8325
CC1=CC=CC(=O)NC1	CC1=CC=CC(=O)NC1	
InChI=1S/C7H9NO/c1-6-3-2-4-7(9)8-5-6/h2-4H,5H2,1H3,(H,8,9)	InChI=1S/C7H9NO/c1-6-3-2-4-7(9)8-5-6/h2-4H,5H2,1H3,(H,8,9)
