16
gdb 53221	4.05956	0.84252	0.77153	4.489	80.48	-0.2444	-0.0297	0.2147	1492.8706	0.123985	-400.768393	-400.759451	-400.758507	-400.804255	31.352	
C	 0.0036436343	 1.5128803256	-0.0034654982	-0.497722
C	 0.0292752236	 0.0577152362	 0.0071169144	 0.036796
C	 0.0456739638	-1.1458163154	 0.0230623375	 0.108855
C	 0.0831821951	-2.6096569267	 0.0317134292	-0.209267
N	 0.5836790114	-3.1826095662	 1.2711241038	-0.313974
C	-0.3489337095	-3.965157847	 1.9261147715	 0.398218
O	-0.2156462915	-4.4846969684	 3.0120361602	-0.378402
C	-1.5232171143	-4.0179744613	 1.0002422218	-0.188653
C	-1.2958321649	-3.2466341083	-0.0599566612	-0.057648
H	 0.6938143824	 1.9185463474	-0.7509624754	 0.152285
H	-0.9986947605	 1.8893551422	-0.2344385226	 0.154243
H	 0.2929801155	 1.9179066713	 0.972227289	 0.155834
H	 0.6928512398	-2.9508127378	-0.8207865495	 0.124985
H	 1.3884947892	-2.8152632655	 1.7508689016	 0.257703
H	-2.4025906053	-4.6038095598	 1.2261915784	 0.127888
H	-1.9442378591	-3.0540525363	-0.9037788504	 0.128858
16.2738	57.329	96.1226	166.5453	257.0066	311.9281	374.6608	413.0704	446.3943	468.523	537.1465	676.864	688.7885	802.7858	815.9908	852.695	924.4153	943.2971	975.5782	1051.2539	1053.8259	1073.5419	1121.8235	1175.3684	1209.6011	1272.613	1324.0136	1357.0201	1403.4035	1414.2682	1476.1998	1477.4578	1659.3507	1826.5244	2371.9479	2969.4432	3030.2276	3092.7459	3093.4645	3225.5998	3252.5575	3665.3701
CC#CC1NC(=O)C=C1	CC#C[C@H]1NC(=O)C=C1	
InChI=1S/C7H7NO/c1-2-3-6-4-5-7(9)8-6/h4-6H,1H3,(H,8,9)	InChI=1S/C7H7NO/c1-2-3-6-4-5-7(9)8-6/h4-6H,1H3,(H,8,9)/t6-/m1/s1
