15
gdb 128906	7.02802	0.72785	0.68183	6.2371	71.81	-0.2693	-0.0153	0.254	1536.4028	0.114604	-413.007179	-412.999162	-412.998217	-413.041323	28.126	
N	-0.0479446416	-1.1640399134	-0.1237349297	-0.304947
C	-0.0439593167	-0.0099894658	-0.064057436	 0.254946
C	-0.0112704453	 1.4477396094	 0.0176483958	-0.330254
C	 1.4332538774	 2.0019181771	 0.0216295716	-0.310817
C	 1.4434378748	 3.4967152884	 0.0719967395	 0.325579
C	 2.0787273274	 4.3548405966	 0.9391879333	-0.183279
N	 1.7316232369	 5.5853290956	 0.4938371023	-0.147305
N	 0.9265250884	 5.5134518456	-0.5800468414	-0.103753
N	 0.7524818752	 4.2503102074	-0.8359197674	-0.249599
H	-0.5585697314	 1.8715645237	-0.8298514844	 0.181468
H	-0.538660875	 1.7624656771	 0.9246610152	 0.153203
H	 1.9842798206	 1.5949642391	 0.8739167995	 0.127207
H	 1.9434280918	 1.653175973	-0.8827442412	 0.145757
H	 2.719254217	 4.1995787808	 1.7908445683	 0.153722
H	 1.9923537906	 6.4892240155	 0.8550550948	 0.288073
44.2	64.9116	102.5952	197.1076	310.8194	379.4669	405.4181	513.3871	583.5982	680.822	725.7351	757.8714	771.6144	799.7499	952.4077	989.5313	1015.832	1024.2788	1042.3511	1058.1329	1132.0734	1181.8811	1271.6943	1275.4927	1304.7212	1324.7997	1353.3731	1387.3485	1469.1546	1486.6589	1489.5658	1594.9901	2362.8003	3048.0161	3059.6718	3090.4789	3110.3596	3284.5076	3657.7659
N#CCCC1=CNN=N1	N#CCCc1c[nH]nn1	
InChI=1S/C5H6N4/c6-3-1-2-5-4-7-9-8-5/h4H,1-2H2,(H,7,8,9)	InChI=1S/C5H6N4/c6-3-1-2-5-4-7-9-8-5/h4H,1-2H2,(H,7,8,9)
