18
gdb 36737	5.42728	0.7083	0.66646	3.3866	72.56	-0.2703	0.0354	0.3056	1625.5533	0.148326	-439.100033	-439.091214	-439.09027	-439.135096	30.815	
N	 0.0068641513	-1.1465061421	-0.0821087549	-0.304575
C	-0.0075195211	 0.0075993174	-0.0254807285	 0.255763
C	-0.0003245187	 1.4661427643	 0.0478250698	-0.338888
C	 1.4261539201	 2.048377144	 0.0778617413	-0.207098
C	 1.4068420112	 3.5722029832	 0.1347000918	 0.108786
C	 2.800403973	 4.2301573965	 0.0651521463	-0.134392
O	 2.5766341877	 5.3926472327	-0.7152721147	-0.229104
C	 1.6163706099	 5.0018860537	-1.6589165162	 0.024643
O	 0.7254810482	 4.1153556554	-1.0021521819	-0.274951
H	-0.5374150572	 1.8719954237	-0.8151817747	 0.172768
H	-0.5565159194	 1.7732446866	 0.9414739113	 0.15078
H	 1.9673084042	 1.6591510244	 0.9480651812	 0.12306
H	 1.9698839554	 1.7238485846	-0.8156304885	 0.124791
H	 0.8713849772	 3.9029465637	 1.0360859884	 0.087391
H	 3.1923697663	 4.5341191101	 1.037255706	 0.127033
H	 3.5258381589	 3.5597521463	-0.4227353382	 0.100427
H	 1.0716053101	 5.8868527495	-2.0007639976	 0.124251
H	 2.089009873	 4.4908930157	-2.5169822009	 0.089315
43.6555	78.1168	103.157	118.1145	219.6489	268.7084	354.8258	395.3336	445.5482	550.6294	674.1853	741.9967	768.4964	864.6011	935.9305	951.757	975.0686	1015.6095	1027.9251	1075.1546	1104.8089	1116.0145	1127.424	1177.8726	1206.7861	1217.4583	1263.3452	1275.0513	1315.2663	1334.4225	1369.6435	1373.6829	1409.3236	1436.1121	1468.6849	1483.7051	1509.8653	1547.066	2363.2553	2941.1095	2979.6683	3002.4846	3040.3891	3048.7166	3083.3159	3084.8011	3102.2043	3116.6964
N#CCCC1COCO1	N#CCC[C@H]1COCO1	
InChI=1S/C6H9NO2/c7-3-1-2-6-4-8-5-9-6/h6H,1-2,4-5H2	InChI=1S/C6H9NO2/c7-3-1-2-6-4-8-5-9-6/h6H,1-2,4-5H2/t6-/m0/s1
