21
gdb 82874	2.804	1.66204	1.35931	1.6208	81.36	-0.2327	0.0923	0.325	1047.6312	0.183576	-387.062022	-387.054196	-387.053252	-387.093776	32.055	
C	-0.196968603	 1.6343357422	-0.0603584903	-0.434314
C	 0.0414002051	 0.1304413412	-0.0275537114	 0.038011
C	 1.1139993046	-0.5732117312	-0.9161529468	-0.147173
C	 2.4235033028	 0.1202433295	-0.4990003195	-0.215452
C	 2.3404978954	-0.3997714043	 0.9495304578	 0.065126
O	 2.4814190574	-1.8348823428	 0.723684404	-0.336055
C	 1.1478959702	-1.7462305305	 0.1983835908	 0.482132
C	 0.4321507084	-3.0463844729	-0.0037359404	-0.513732
C	 0.7776817215	-0.5658185939	 1.1309041781	-0.143158
H	 0.7047867401	 2.2126441272	 0.158544161	 0.116915
H	-0.5686927022	 1.9540132664	-1.0404296808	 0.115761
H	-0.9501169588	 1.9157902699	 0.6839657889	 0.115617
H	-0.9187211292	-0.3826324222	-0.1637623241	 0.071341
H	 0.9362270483	-0.7752855521	-1.972045595	 0.058781
H	 3.3135045904	-0.2816137279	-0.9871394866	 0.105456
H	 2.4049246615	 1.2054565463	-0.6142972373	 0.095014
H	 3.0025820781	-0.0088448346	 1.72053724	 0.076258
H	 0.4031594069	-3.6224384657	 0.9259647296	 0.12826
H	-0.5947436514	-2.8775381112	-0.3418884986	 0.123661
H	 0.9437333138	-3.6473819679	-0.7633633101	 0.130317
H	 0.38567208	-0.6916312655	 2.1398938009	 0.067233
162.4842	195.0164	206.4052	238.8139	281.591	317.199	484.1121	527.4861	553.1821	598.3439	669.7365	730.8372	746.6847	817.9725	852.6052	878.6775	897.0214	919.6132	935.9971	948.9862	981.5507	1000.8832	1056.2536	1066.0353	1074.9762	1089.7642	1127.2078	1151.1691	1154.5272	1179.7905	1193.3771	1231.6709	1258.2046	1289.8631	1299.7834	1324.5776	1356.2807	1396.5541	1412.3451	1417.6006	1476.9448	1483.0301	1494.2293	1495.4555	1510.1887	3027.8607	3032.9442	3036.3232	3077.5963	3089.9097	3103.4328	3109.3835	3114.0293	3118.1382	3120.3006	3129.9027	3135.76
CC1C2CC3OC2(C)C13	C[C@H]1[C@H]2C[C@@H]3O[C@@]2(C)[C@H]13	
InChI=1S/C8H12O/c1-4-5-3-6-7(4)8(5,2)9-6/h4-7H,3H2,1-2H3	InChI=1S/C8H12O/c1-4-5-3-6-7(4)8(5,2)9-6/h4-7H,3H2,1-2H3/t4-,5+,6-,7+,8+/m0/s1
