17
gdb 51285	4.04537	0.94389	0.85656	1.8058	74.91	-0.2411	-0.0306	0.2105	1339.5211	0.134882	-421.820824	-421.81269	-421.811745	-421.854846	29.695	
O	-0.6019665236	 0.6354491401	 0.7082423907	-0.231647
C	 0.1094495207	 0.9185552115	-0.2185238531	 0.165735
C	 1.3031544013	 1.8592001384	-0.1302148595	-0.393145
C	 1.2744562249	 2.9134639593	-1.2005355646	 0.309008
C	 1.0403635417	 4.2216371245	-1.0390844133	-0.173924
C	 1.0791397982	 4.9915965446	-2.342659947	-0.286298
C	 1.4625494779	 3.9221037055	-3.3590393332	 0.047433
O	 2.7389958325	 3.3223625528	-3.1272046966	-0.254442
C	 1.5591338131	 2.6366464738	-2.648754368	-0.073679
H	-0.0715935716	 0.4898868469	-1.2313397175	 0.076174
H	 1.3123917922	 2.2987799702	 0.8700886554	 0.130726
H	 2.2072847714	 1.2409464808	-0.2409215475	 0.134959
H	 0.8814276199	 4.7071648941	-0.0821873814	 0.105536
H	 0.1046579938	 5.4359346221	-2.5833963311	 0.117184
H	 1.8070876298	 5.8114958827	-2.3218747099	 0.129339
H	 1.1700546576	 4.0091985421	-4.4017424033	 0.099745
H	 1.3744556204	 1.6695798005	-3.1083438201	 0.097294
46.0425	61.5596	137.512	228.4532	302.5682	345.4116	409.0123	443.3085	606.2006	647.9057	750.7854	798.7024	820.1649	830.0817	864.8498	883.3211	924.2354	953.5583	1008.1223	1032.1462	1047.0477	1051.5075	1102.3461	1182.6041	1184.6851	1195.2111	1256.6523	1277.3489	1288.9037	1316.235	1365.3952	1410.4606	1431.0081	1454.354	1460.1596	1693.9254	1837.315	2862.4759	3000.0422	3027.0239	3063.5512	3107.2496	3147.0027	3158.5032	3191.3148
O=CCC1=CCC2OC12	O=CCC1=CC[C@H]2O[C@@H]12	
InChI=1S/C7H8O2/c8-4-3-5-1-2-6-7(5)9-6/h1,4,6-7H,2-3H2	InChI=1S/C7H8O2/c8-4-3-5-1-2-6-7(5)9-6/h1,4,6-7H,2-3H2/t6-,7+/m1/s1
