14
gdb 15760	5.78277	1.24449	1.09106	5.4589	61.48	-0.2553	-0.024	0.2313	1043.5564	0.106911	-415.880873	-415.873063	-415.872118	-415.914114	26.688	
O	-0.1720828384	 0.0921286768	 0.4531088476	-0.254493
C	 0.0112362444	 1.1838631044	-0.0082682878	 0.166923
N	 1.2339912606	 1.7468523464	-0.3517838271	-0.357796
C	 2.5005831229	 1.149811606	-0.2867006737	 0.46035
O	 2.7108501774	 0.0007011738	-0.0046513478	-0.319177
N	 3.4872543064	 2.0866598464	-0.6710821854	-0.151174
C	 4.02883668	 3.015042651	 0.3340496127	-0.240329
C	 4.8385183602	 1.8764945928	-0.1869753884	-0.208108
H	-0.8057102322	 1.905172307	-0.2161986936	 0.085213
H	 1.2130538885	 2.6833629181	-0.7283340979	 0.26338
H	 4.2076759478	 4.0278836784	-0.014406726	 0.130788
H	 3.6458996279	 2.9337988193	 1.3481302525	 0.140238
H	 4.9898056435	 1.0200776681	 0.4629988466	 0.152865
H	 5.621767151	 2.0600129115	-0.9155178619	 0.13132
58.7199	62.6512	166.6794	198.5934	254.4846	283.1071	407.3016	574.5794	629.7771	684.2939	783.865	830.3948	912.5789	934.1237	961.6344	1029.9914	1047.8546	1113.8859	1129.1679	1140.3643	1172.4883	1179.6282	1184.311	1341.4098	1446.6553	1493.3044	1500.003	1521.83	1809.7067	1874.1437	2922.9352	3112.2584	3127.1189	3200.678	3221.0744	3616.7469
O=CNC(=O)N1CC1	O=CNC(=O)N1CC1	
InChI=1S/C4H6N2O2/c7-3-5-4(8)6-1-2-6/h3H,1-2H2,(H,5,7,8)	InChI=1S/C4H6N2O2/c7-3-5-4(8)6-1-2-6/h3H,1-2H2,(H,5,7,8)
