23
gdb 77503	1.808	1.76224	1.25459	1.7383	86.68	-0.2263	0.0882	0.3145	1193.3956	0.202482	-388.252636	-388.242366	-388.241422	-388.286798	39.052	
C	-0.2164400593	 1.5403098783	 0.7947243894	-0.434877
C	-0.1686427442	 0.0543603508	 0.4887413556	-0.05364
C	 0.9942402203	-0.4999842361	-0.3892428194	 0.384836
C	 1.4272325327	-0.100190703	-1.7657065727	-0.519368
O	 1.9257218603	-0.2285703037	 0.74065714	-0.379568
C	 0.7336696289	-0.869098551	 1.3625377805	 0.384821
C	 0.7413304807	-1.0720178189	 2.846030098	-0.519365
C	 0.7828143323	-1.9221196973	 0.2138242488	-0.031965
C	-0.3761112476	-2.8368306775	-0.1513243996	-0.448428
H	 0.7820941095	 1.9187697795	 1.0232662755	 0.13449
H	-0.6161686597	 2.1026412525	-0.0566565446	 0.110018
H	-0.8705501608	 1.7429737502	 1.650242057	 0.110016
H	-1.1619577793	-0.3404976792	 0.2577903422	 0.058509
H	 1.5642606475	 0.9836989137	-1.8317230233	 0.131388
H	 2.3737875855	-0.5839615403	-2.0260608444	 0.131227
H	 0.6732352392	-0.3968167782	-2.5022744165	 0.123139
H	 0.7905266891	-0.1125588744	 3.3704040069	 0.131385
H	-0.1693614041	-1.5907435874	 3.1632018177	 0.123138
H	 1.6044735086	-1.6740055265	 3.1466614733	 0.131229
H	 1.7303509884	-2.4694769348	 0.2394422359	 0.07305
H	-1.3422033088	-2.3269492864	-0.1872931548	 0.119401
H	-0.2071360863	-3.2937787354	-1.1328178214	 0.120283
H	-0.4606997428	-3.653838065	 0.5739497857	 0.120282
153.6465	175.1426	177.1835	182.5752	194.0299	194.2606	211.3045	215.7867	262.0918	363.2931	401.9337	467.7984	581.9431	600.0525	629.0493	654.605	706.148	767.551	781.8614	828.2132	877.5783	1009.9127	1015.4311	1025.1343	1069.7649	1077.7117	1111.2687	1123.5076	1152.2165	1159.9974	1176.4351	1187.0819	1229.684	1272.7624	1329.8283	1379.2297	1397.8899	1400.6981	1406.7273	1417.2762	1456.3323	1476.1922	1478.0466	1487.5899	1487.6746	1494.8636	1499.3382	1501.6141	1507.6264	3031.1018	3031.8204	3035.6805	3035.9506	3062.6347	3069.1103	3085.0229	3088.4377	3107.6804	3107.711	3110.5685	3110.7417	3113.7356	3131.0599
CC1C2(C)OC1(C)C2C	C[C@H]1[C@@]2(C)O[C@]1(C)[C@H]2C	
InChI=1S/C8H14O/c1-5-7(3)6(2)8(5,4)9-7/h5-6H,1-4H3	InChI=1S/C8H14O/c1-5-7(3)6(2)8(5,4)9-7/h5-6H,1-4H3/t5-,6-,7-,8+
