16
gdb 49701	3.11297	1.25521	1.13753	1.5407	72.75	-0.2566	-0.0645	0.1921	1098.0542	0.122695	-437.850069	-437.841817	-437.840873	-437.883363	29.74	
O	-0.5238416991	 0.4952628992	-0.6143985099	-0.262151
C	 0.0054957413	 1.2426036539	 0.1721064403	 0.15038
C	 1.2686779972	 2.0138383991	-0.0351408987	-0.134917
N	 2.3681054297	 1.7249224735	-0.9635337404	-0.184187
C	 1.8108752133	 1.1181095779	-2.2403556461	-0.145789
C	 0.9143047754	 2.3480873882	-2.519383854	-0.319816
C	 1.4675914888	 2.9259192396	-1.2228618352	 0.22903
C	 1.961903403	 4.3064769224	-1.0201039499	 0.079219
O	 1.7063150273	 5.2209949095	-1.7628435362	-0.250487
H	-0.4454488404	 1.4304059569	 1.1717099499	 0.096031
H	 1.65969502	 2.4172264092	 0.8976207424	 0.115246
H	 2.6397756136	 1.0086972115	-2.9407254409	 0.12319
H	 1.3109429925	 0.1639283615	-2.0891028944	 0.147313
H	 1.2207915042	 2.9382690324	-3.3833154262	 0.137338
H	-0.1617482726	 2.1760059048	-2.5562586997	 0.133739
H	 2.6096950058	 4.4325439305	-0.1241190409	 0.08586
76.5157	99.1632	188.3731	205.3646	234.6656	271.2854	351.1206	406.0656	486.164	670.1749	714.8252	734.6905	787.3384	839.0009	857.8466	932.9757	961.9861	976.2034	1021.176	1031.9345	1099.4856	1109.1602	1172.3397	1218.0259	1244.1528	1261.5769	1295.8262	1333.0544	1407.5309	1430.0104	1434.4856	1477.0804	1496.1986	1805.0939	1815.047	2886.6734	2888.4686	3091.9035	3095.7723	3129.611	3146.9789	3171.5511
O=CC1N2CCC12C=O	O=C[C@H]1N2CC[C@@]12C=O	
InChI=1S/C6H7NO2/c8-3-5-6(4-9)1-2-7(5)6/h3-5H,1-2H2	InChI=1S/C6H7NO2/c8-3-5-6(4-9)1-2-7(5)6/h3-5H,1-2H2/t5-,6-,7?/m1/s1
