17
gdb 35879	2.21868	1.57366	1.1056	4.7843	77.43	-0.2475	0.019	0.2665	1120.5464	0.136754	-380.845768	-380.836984	-380.83604	-380.880777	31.823	
C	-0.4859830751	-1.0797691414	-0.7616598042	-0.427971
C	-0.2744524643	 0.0211032891	-0.3290279017	 0.306607
C	-0.0065763722	 1.349725414	 0.1891706389	-0.170521
C	-0.2450678024	 1.5346413994	 1.7060007089	-0.232146
C	 0.609898973	 2.7761996592	 2.07386242	-0.179403
N	 1.5548145014	 3.0090254302	 0.9536301962	-0.281636
C	 1.466353375	 1.8630417687	 0.0493897524	-0.180581
C	 2.4431675634	 0.8259053641	 0.4327780801	 0.321675
N	 3.2089077322	 0.018595334	 0.7429829971	-0.327213
H	-0.6643489142	-2.0563028065	-1.1391765653	 0.202855
H	-0.6191339216	 2.0793664542	-0.3563602681	 0.109351
H	-1.3038929377	 1.6623043614	 1.9384927535	 0.118423
H	 0.1073605418	 0.6464644144	 2.2363785825	 0.139129
H	-0.0054512017	 3.6678426891	 2.2253200574	 0.110111
H	 1.1629722669	 2.6020093802	 3.0019014738	 0.128006
H	 1.3010943315	 3.8462148974	 0.4452042375	 0.232079
H	 1.6917276539	 2.1655339324	-0.9767989491	 0.131237
18.1694	93.3014	116.3404	168.6703	222.1934	298.332	428.478	474.9625	502.9207	574.9529	638.4162	647.1527	655.4923	688.922	746.455	814.9903	869.7603	898.9288	942.5543	992.5807	1054.5669	1059.4314	1070.8153	1110.8649	1199.871	1225.1042	1261.4293	1293.1317	1295.2681	1344.8649	1355.1061	1380.0138	1463.3543	1495.4497	1520.8952	2241.1814	2361.0134	3019.4746	3048.7596	3074.8173	3082.9059	3084.4464	3126.2352	3503.7045	3561.9893
C#CC1CCNC1C#N	C#C[C@H]1CCN[C@H]1C#N	
InChI=1S/C7H8N2/c1-2-6-3-4-9-7(6)5-8/h1,6-7,9H,3-4H2	InChI=1S/C7H8N2/c1-2-6-3-4-9-7(6)5-8/h1,6-7,9H,3-4H2/t6-,7-/m0/s1
