21
gdb 59533	4.13419	0.86205	0.77728	2.1524	79.68	-0.2564	0.0704	0.3268	1507.9342	0.18065	-424.194822	-424.185387	-424.184443	-424.229304	35.659	
C	 0.0822320002	 1.4774072033	-0.1493545384	-0.409227
C	 0.0068576286	-0.0428574775	-0.001479695	 0.114164
O	 0.6440972354	-0.4810959642	 1.1966111812	-0.43956
C	-1.4222928336	-0.5526420679	 0.0725251785	 0.062159
C	-2.3017526144	-0.4621782951	-1.2130766752	-0.349434
C	-2.777022972	-1.8839794291	-0.9057454058	 0.463869
C	-4.1464875522	-2.397232201	-0.8582591981	-0.266832
O	-3.2166363424	-2.8220526782	-1.8675276485	-0.272846
C	-1.6357495546	-2.0971142788	 0.0888061783	-0.333013
H	 1.1244978908	 1.8132356012	-0.2013341523	 0.104519
H	-0.4175956525	 1.8123755094	-1.0639262916	 0.122191
H	-0.3910803277	 1.9668116612	 0.7078981102	 0.123532
H	 0.4923470347	-0.5106219892	-0.8764298152	 0.059247
H	 1.5530498014	-0.1650792141	 1.1839363895	 0.28053
H	-1.9222574225	-0.0840100301	 0.9260522531	 0.077359
H	-3.0530196627	 0.3289448125	-1.2689859081	 0.104451
H	-1.6937689099	-0.4397846372	-2.1242915269	 0.110334
H	-4.4169799193	-3.1566380644	-0.125118415	 0.114217
H	-4.9715548121	-1.7812275681	-1.2151993893	 0.112169
H	-0.7963907305	-2.6262335766	-0.3737086396	 0.113123
H	-1.8676109647	-2.570198806	 1.0447490183	 0.10905
59.0089	80.7637	145.3529	244.789	268.3218	290.2672	313.8218	324.3954	350.3614	395.1799	466.5675	484.373	580.577	725.9684	824.4756	842.5161	878.2698	888.3114	901.462	962.8262	979.5786	1003.1497	1043.7917	1051.8871	1090.7045	1125.8389	1133.0352	1148.5267	1165.4587	1195.7158	1199.6378	1221.5339	1252.4106	1272.92	1287.3069	1340.339	1373.0284	1404.9022	1427.7137	1440.8308	1467.6329	1492.7446	1493.4333	1499.8578	1538.1232	2940.9929	3027.4021	3045.9423	3057.0407	3061.3027	3075.3359	3093.5121	3107.2909	3112.1136	3119.245	3161.5421	3816.8516
CC(O)C1CC2(CO2)C1	C[C@@H](O)[C@H]1C[C@]2(CO2)C1	
InChI=1S/C7H12O2/c1-5(8)6-2-7(3-6)4-9-7/h5-6,8H,2-4H2,1H3	InChI=1S/C7H12O2/c1-5(8)6-2-7(3-6)4-9-7/h5-6,8H,2-4H2,1H3/t5-,6-,7+/m1/s1
