15
gdb 9655	3.58332	1.39589	1.35289	2.8279	63.41	-0.2597	0.009	0.2687	973.0424	0.116608	-399.773602	-399.765127	-399.764183	-399.806498	30.098	
C	-0.4006563558	 1.0227723117	-0.1827690819	-0.244165
O	 0.5656559952	 0.0164871661	 0.0958630714	-0.227643
C	 1.015582563	-0.6317967917	-1.029754654	 0.097465
C	 1.5036444061	-2.029742709	-0.8487729031	-0.378889
C	 0.1822289584	-1.7982024437	-1.5794447935	 0.203952
O	-1.0117632099	-2.0494844825	-0.9107750199	-0.433653
C	 0.1473399773	-1.9929717209	-3.0107408219	 0.239196
N	 0.1202982803	-2.1508503163	-4.156957678	-0.343235
H	 0.0024166388	 1.7819577693	-0.868096571	 0.113617
H	-1.3081948673	 0.5890914202	-0.6176127486	 0.13774
H	-0.6424931078	 1.495719072	 0.7707377938	 0.134957
H	 1.5002146457	-0.0031966203	-1.7781858365	 0.113504
H	 2.3619992653	-2.3728855893	-1.4136308228	 0.142331
H	 1.3921628464	-2.4365687642	 0.1501612551	 0.14477
H	-1.1438653758	-3.0033839417	-0.865117409	 0.300054
109.8386	115.0968	151.2153	188.5115	247.3522	286.1988	305.4888	366.9438	475.7654	497.5183	581.3032	602.5039	725.6628	804.1428	868.7841	917.37	1022.5885	1069.1394	1075.5207	1128.9155	1175.6583	1183.1846	1231.7732	1252.6725	1265.7816	1352.7314	1401.0387	1458.1616	1488.2234	1493.0255	1505.4243	2341.3579	3002.5069	3075.2661	3098.8511	3135.1417	3145.0512	3244.512	3794.8062
COC1CC1(O)C#N	CO[C@H]1C[C@]1(O)C#N	
InChI=1S/C5H7NO2/c1-8-4-2-5(4,7)3-6/h4,7H,2H2,1H3	InChI=1S/C5H7NO2/c1-8-4-2-5(4,7)3-6/h4,7H,2H2,1H3/t4-,5-/m0/s1
