19
gdb 35251	3.06695	1.03242	0.87301	1.7952	82.26	-0.2579	0.0217	0.2796	1370.3698	0.158016	-385.820876	-385.812081	-385.811137	-385.855068	32.952	
C	-0.2535358625	-1.2426394891	 0.3788572376	-0.430969
C	-0.1280336551	-0.0561455823	 0.2306924047	 0.34164
C	-0.0212215497	 1.3639924071	 0.026707937	-0.163406
O	 0.5923294834	 2.1440015215	 1.0661755666	-0.24956
C	 1.2792876659	 2.0450816557	-0.1820874082	 0.052545
C	 2.5936805512	 1.3257097165	-0.2031359922	 0.016629
C	 3.2394883253	 1.0272735017	-1.5882898394	-0.235755
C	 4.6209922804	 1.3890940002	-0.9795282694	-0.210326
C	 3.8789511191	 2.1227149938	 0.1701516646	-0.230554
H	-0.3607978878	-2.2901547121	 0.5176911547	 0.202663
H	-0.9073150042	 1.8284120149	-0.4063114314	 0.114132
H	 1.246311211	 2.9644245609	-0.7733990233	 0.090065
H	 2.5157112245	 0.4140004289	 0.3940247609	 0.089592
H	 3.0999420027	 0.0263550455	-2.0022161723	 0.104921
H	 2.9266679032	 1.7600775544	-2.3399661168	 0.098805
H	 5.1490832255	 0.5015494805	-0.6196056506	 0.105623
H	 5.308193032	 1.9740774946	-1.5947525117	 0.098037
H	 3.7598640442	 3.1902133458	-0.042820515	 0.100241
H	 4.2609884306	 2.0128691416	 1.1871252641	 0.105676
54.1303	91.8159	134.6305	164.3681	233.924	307.1175	360.6	434.3588	544.1118	586.9952	622.7729	655.191	670.0801	765.2877	782.977	831.7674	861.8261	903.892	934.733	953.0905	976.736	986.5531	1045.7736	1066.6839	1097.4491	1146.7502	1194.5085	1205.75	1239.7921	1255.9951	1258.7548	1271.5435	1283.4277	1285.8403	1328.2617	1387.6972	1463.4874	1478.5978	1486.9763	1510.4149	2238.6129	3046.6707	3051.9575	3059.9557	3068.2855	3084.8508	3103.4043	3108.4064	3109.4219	3122.4321	3502.4681
C#CC1OC1C1CCC1	C#C[C@H]1O[C@H]1C1CCC1	
InChI=1S/C8H10O/c1-2-7-8(9-7)6-4-3-5-6/h1,6-8H,3-5H2	InChI=1S/C8H10O/c1-2-7-8(9-7)6-4-3-5-6/h1,6-8H,3-5H2/t7-,8+/m1/s1
