18
gdb 118942	2.52098	1.34444	1.10292	2.0114	69.39	-0.2615	0.0167	0.2782	1156.8724	0.146427	-476.199415	-476.19024	-476.189296	-476.233597	33.322	
C	 0.0822516916	 0.7220203948	 0.520149781	-0.268062
O	-0.4350193629	 0.1767899649	-0.6928494533	-0.251881
C	 0.5043169255	-0.5218811526	-1.4820857669	-0.144942
C	 0.5778187598	-2.0031476986	-1.071240616	 0.24675
O	-0.7094480421	-2.499745609	-0.8541962214	-0.461864
C	 1.4404010011	-2.900940699	-1.9855991459	-0.120566
O	 2.400786791	-3.1041898789	-0.9024490333	-0.253056
C	 1.6375348845	-2.3744838984	-0.0192998851	 0.392963
N	 1.800781162	-2.1399369665	 1.2013402041	-0.549998
H	 0.4566589436	-0.0553195059	 1.1947544752	 0.166688
H	 0.8931308188	 1.432361403	 0.3066093827	 0.112013
H	-0.7435521131	 1.2593277353	 0.9917252184	 0.129009
H	 0.1282642481	-0.477940662	-2.5110549733	 0.117826
H	 1.4959841099	-0.0498530316	-1.450808616	 0.106306
H	-1.2254966022	-1.7490824731	-0.5237655186	 0.295679
H	 0.9514352458	-3.83565754	-2.2658250928	 0.135748
H	 1.9146291816	-2.4273184169	-2.8495237818	 0.117149
H	 2.638831807	-2.5945611954	 1.5677062932	 0.230239
75.1376	104.8817	132.0348	183.8807	206.1901	264.864	297.4646	333.2018	419.6896	461.3004	512.7211	535.4531	694.6018	746.4815	765.7402	859.9956	900.2771	929.0306	963.2009	974.761	1012.6584	1083.1467	1124.8069	1150.544	1157.7425	1189.478	1222.4108	1240.0579	1250.5237	1318.6444	1346.8333	1390.0396	1439.4076	1474.6593	1487.2688	1500.8561	1505.3754	1518.3116	1818.6719	3002.5176	3009.7594	3061.8441	3067.6611	3082.7368	3129.1582	3132.8501	3474.1776	3720.8391
COCC1(O)COC1=N	COC[C@@]1(O)CO[C]1[NH]	
InChI=1S/C5H9NO3/c1-8-2-5(7)3-9-4(5)6/h6-7H,2-3H2,1H3	InChI=1S/C5H9NO3/c1-8-2-5(7)3-9-4(5)6/h6-7H,2-3H2,1H3/t5-/m1/s1
