21
gdb 108827	2.82147	1.1986	0.93645	1.4837	84.82	-0.2159	0.0303	0.2462	1316.1008	0.182616	-387.085973	-387.076933	-387.075989	-387.119668	34.529	
C	-0.1918171473	 1.5958222004	 0.0746034605	-0.388611
C	 0.017190983	 0.0750652673	 0.0155879867	-0.031406
C	 0.7963358252	-0.4041233831	-1.1959462848	-0.182607
C	 1.7937326969	-1.2321736414	-0.8734449135	 0.308303
C	 2.7484818272	-1.9084513736	-1.8023584069	-0.183949
O	 2.4181036383	-1.6001653191	-3.1443144038	-0.4138
C	 1.9065529151	-1.3953024051	 0.6100805736	-0.145233
C	 2.2622313519	-0.1248354852	 1.3587944208	-0.283876
C	 0.8148839028	-0.5132847051	 1.1865544794	-0.044239
H	 0.764370196	 2.1273743778	 0.1006450259	 0.114839
H	-0.7468620056	 1.9482313176	-0.8012369257	 0.111245
H	-0.7604977427	 1.8783361717	 0.9666817741	 0.110223
H	-0.9811595963	-0.3893813272	 0.0056546964	 0.076577
H	 0.5664258917	-0.0862635303	-2.2053810046	 0.101501
H	 3.7778614192	-1.59054821	-1.557092872	 0.096903
H	 2.7160039248	-2.9982055318	-1.6205838572	 0.091967
H	 3.0565799659	-2.0351016585	-3.7160762218	 0.288503
H	 2.172667682	-2.3565882036	 1.0386113875	 0.077558
H	 2.6767038915	-0.2274162802	 2.3567471284	 0.104935
H	 2.6683258306	 0.7005369415	 0.7832315517	 0.111157
H	 0.2746536099	-0.8168578822	 2.0759415452	 0.080014
80.4288	137.0583	171.6129	192.9365	224.4927	237.5	281.0367	393.3011	403.4503	497.192	566.5552	636.9725	688.5418	771.9714	805.1624	850.3697	860.7197	914.8227	926.9946	965.1218	1021.5676	1040.3345	1044.5276	1065.9751	1069.8863	1083.9885	1101.4984	1113.3645	1130.9169	1175.7779	1202.2541	1212.9074	1247.424	1277.5059	1309.9547	1337.086	1368.2424	1380.9023	1408.6059	1466.4539	1475.5178	1496.3084	1498.8499	1507.4565	1711.0086	2935.0844	2947.3065	2976.3024	3031.7709	3097.7789	3106.3206	3122.4284	3152.9813	3171.9125	3210.5362	3213.2952	3838.8451
CC1C=C(CO)C2CC12	C[C@H]1C=C(CO)[C@H]2C[C@@H]12	
InChI=1S/C8H12O/c1-5-2-6(4-9)8-3-7(5)8/h2,5,7-9H,3-4H2,1H3	InChI=1S/C8H12O/c1-5-2-6(4-9)8-3-7(5)8/h2,5,7-9H,3-4H2,1H3/t5-,7-,8+/m0/s1
