19
gdb 87240	4.8099	0.71307	0.69137	2.8712	78.2	-0.2399	0.0584	0.2983	1640.9813	0.155809	-422.970435	-422.960456	-422.959512	-423.005506	37.231	
O	-0.0904569932	 1.3710359087	 0.0547322433	-0.430909
C	-0.02764442	-0.0311161646	 0.0731439848	-0.006998
C	-0.6174691854	-0.7824757247	 1.2506062714	-0.388919
C	-1.3655480503	-0.7007295253	-0.0724350114	 0.446611
O	-2.4716026954	 0.1514450607	-0.133202042	-0.484194
C	-1.5363618137	-1.9270364613	-0.935034642	-0.240438
C	-2.7501284927	-2.7742124037	-0.4945789163	-0.357332
C	-2.9402018605	-3.9595319948	-1.3203164623	 0.296107
C	-3.071625002	-4.931223523	-2.015984885	-0.441357
H	 0.388259235	 1.7121923886	 0.8168866211	 0.297162
H	 0.838515388	-0.4516413125	-0.4354796036	 0.09687
H	-0.1482339188	-1.7146130029	 1.5483688179	 0.115446
H	-1.0210809312	-0.1858850126	 2.0622670667	 0.114975
H	-2.1169729636	 1.0520297625	-0.127648487	 0.290808
H	-1.6730720532	-1.6178461168	-1.976969806	 0.117338
H	-0.628575448	-2.5379441281	-0.8924170757	 0.104167
H	-2.6238582802	-3.0713801108	 0.5544726977	 0.127795
H	-3.6469321737	-2.1456571207	-0.529151562	 0.152669
H	-3.2024464211	-5.7911970686	-2.6243629895	 0.190199
59.4311	89.7538	98.3934	187.0571	256.8924	266.0885	291.0326	336.4444	358.573	405.993	453.0168	475.9302	510.225	612.0056	633.8505	645.1213	722.1034	778.9844	838.2133	874.723	927.6829	971.8424	994.14	1021.2095	1041.5091	1053.0872	1093.254	1158.1044	1185.2802	1230.2699	1273.6954	1282.4677	1300.4727	1343.8208	1369.1006	1394.4148	1428.9019	1471.7397	1482.6928	1490.2874	2238.2089	3026.3702	3044.6986	3066.7209	3093.4138	3113.1778	3125.6598	3219.1872	3508.5681	3733.3619	3814.8747
OC1CC1(O)CCC#C	O[C@H]1C[C@]1(O)CCC#C	
InChI=1S/C7H10O2/c1-2-3-4-7(9)5-6(7)8/h1,6,8-9H,3-5H2	InChI=1S/C7H10O2/c1-2-3-4-7(9)5-6(7)8/h1,6,8-9H,3-5H2/t6-,7+/m0/s1
