18
gdb 57690	2.92502	0.90365	0.81699	4.9082	79.38	-0.2736	0.0049	0.2785	1451.5801	0.14304	-401.911358	-401.900918	-401.899974	-401.948103	37.124	
C	 0.0424995928	 1.582995127	 0.0066013475	-0.421462
C	 0.0206006846	 0.0434910482	 0.0666755659	 0.177462
C	 0.8298722545	-0.485045482	 1.2665746345	-0.422398
O	-1.3356188774	-0.4600711628	 0.0851525762	-0.280826
C	-2.1288225587	-0.1068594831	 1.1938018985	-0.203163
C	-3.4610276358	-0.6907762524	 1.0047715798	 0.275763
N	-4.5205628137	-1.1346038149	 0.8906782592	-0.294438
C	 0.5845174057	-0.4982233557	-1.1750356012	 0.339856
C	 1.0849139287	-0.9205510426	-2.1812337759	-0.454494
H	 1.0626430944	 1.9305446938	-0.1729535187	 0.137942
H	-0.5930293653	 1.9353998757	-0.8089271665	 0.142634
H	-0.2989682634	 2.0260119186	 0.9469752637	 0.117514
H	 0.4891456847	-0.0409280202	 2.2067439056	 0.117795
H	 0.7420422334	-1.5721116771	 1.3292496843	 0.142347
H	 1.8845720584	-0.2289772098	 1.1412100248	 0.138122
H	-1.723224474	-0.4875751839	 2.1423658642	 0.142283
H	-2.2478427143	 0.9810937785	 1.300167082	 0.14175
H	 1.5148457055	-1.3015573172	-3.074828274	 0.203312
14.8128	89.9959	101.4457	175.1545	196.052	246.0256	254.479	278.3162	355.3767	375.3659	390.0862	451.2922	473.7606	556.9691	595.8735	634.4326	675.8217	736.8975	874.7893	920.1227	943.4301	983.062	1012.9539	1038.5006	1101.5852	1178.1272	1178.3977	1254.1788	1266.6186	1392.9151	1400.4758	1419.0472	1476.9809	1485.9505	1492.9873	1499.6933	1506.9291	2245.8188	2373.9241	2998.0713	3026.857	3046.3042	3050.3076	3117.5906	3122.9038	3136.7142	3138.9126	3501.1063
CC(C)(OCC#N)C#C	CC(C)(OCC#N)C#C	
InChI=1S/C7H9NO/c1-4-7(2,3)9-6-5-8/h1H,6H2,2-3H3	InChI=1S/C7H9NO/c1-4-7(2,3)9-6-5-8/h1H,6H2,2-3H3
