20
gdb 58146	2.04845	1.3602	1.27742	2.2554	76.21	-0.2144	-0.0423	0.1721	1163.049	0.16615	-440.279543	-440.268853	-440.267909	-440.315036	37.918	
C	 0.1721367106	 1.4286188578	-0.2040316126	-0.334672
N	 0.0190411549	 0.0051753283	 0.085246662	-0.091633
C	 0.8571212837	-0.3978168738	 1.2138446467	-0.343506
C	-1.3367271413	-0.5257919901	 0.1460819709	 0.0722
C	-2.2168659185	-0.0523159155	-1.0400207997	-0.448286
C	-1.2532045519	-2.05349541	-0.0268683868	 0.138328
O	-2.1123172281	-2.8263200104	 0.3067433831	-0.259761
C	-2.1244603342	-0.1991559891	 1.4252821093	 0.146797
O	-1.8670323723	 0.728897867	 2.1487836628	-0.262459
H	 1.239987725	 1.6379866022	-0.3252786602	 0.119378
H	-0.3152616492	 1.6885880625	-1.1458825053	 0.118864
H	-0.2177867009	 2.0814272665	 0.5898901145	 0.128285
H	 0.6239260335	 0.1351526185	 2.1470266777	 0.130697
H	 0.750466466	-1.4718964787	 1.4019812988	 0.118409
H	 1.9063240564	-0.2127299891	 0.9623495624	 0.122268
H	-1.7071063541	-0.2538687826	-1.9870670586	 0.14016
H	-3.1668289634	-0.5920441888	-1.0312764267	 0.146696
H	-2.4255621082	 1.0174141699	-0.9716326139	 0.144156
H	-0.3237879994	-2.3761335513	-0.5447796046	 0.103569
H	-2.9697546685	-0.8883762233	 1.63233905	 0.110511
66.8816	92.1455	120.5277	192.8725	199.3968	225.9632	235.3972	264.9769	285.9437	304.4396	354.2171	369.1425	404.7964	464.1299	532.1369	658.281	725.372	882.3539	924.249	941.6727	989.8196	1028.1758	1072.1451	1112.5992	1127.2318	1167.6097	1185.7941	1193.9192	1270.5963	1321.6944	1377.8928	1389.8455	1405.0477	1441.415	1472.6859	1477.0376	1488.479	1494.646	1507.4143	1512.3705	1527.2383	1812.2621	1833.2012	2899.8336	2918.2376	2996.1371	3004.0734	3045.6014	3063.5851	3075.814	3094.3735	3118.4941	3124.9688	3136.3068
CN(C)C(C)(C=O)C=O	CN(C)C(C)(C=O)C=O	
InChI=1S/C6H11NO2/c1-6(4-8,5-9)7(2)3/h4-5H,1-3H3	InChI=1S/C6H11NO2/c1-6(4-8,5-9)7(2)3/h4-5H,1-3H3
