15
gdb 50641	3.03755	1.23408	0.9055	3.6747	62.03	-0.2713	-0.0517	0.2197	1192.8917	0.111653	-494.936392	-494.9283	-494.927356	-494.970179	28.466	
O	-0.8615620299	 1.1131588219	 0.2775747113	-0.230296
C	 0.2567674521	 0.72804502	 0.0686738887	 0.13649
C	 1.4683932258	 1.6478379917	 0.0209917094	-6.*^-6
C	 1.3392905149	 2.8852117717	 0.9080464579	-0.346229
C	 2.6722886284	 3.5653027241	 1.1928410582	 0.402736
O	 2.7593568106	 4.6802954732	 1.6198157062	-0.308748
O	 3.7988009988	 2.8185969558	 1.0282319864	-0.226012
C	 3.7626342528	 1.6113235045	 0.2623180965	 0.022909
O	 2.592980129	 0.8808206864	 0.4247512594	-0.238027
H	 0.502152111	-0.339172011	-0.1195822027	 0.107402
H	 1.5950212213	 1.9494389985	-1.0364110162	 0.109263
H	 0.6567851684	 3.622721561	 0.4840754805	 0.158358
H	 0.9247097305	 2.5940599083	 1.8797661589	 0.161214
H	 3.9124834796	 1.8791862091	-0.7959142973	 0.108497
H	 4.5911127566	 0.9998395349	 0.6217170527	 0.142448
61.1418	87.601	126.4456	174.9684	269.6494	385.4861	419.3681	470.8786	512.2759	586.3398	615.2168	739.2896	800.3832	864.018	898.637	1037.6666	1046.0206	1063.8567	1100.6128	1115.0919	1163.8218	1225.2121	1257.2179	1281.0048	1292.0462	1348.2771	1372.7627	1405.0815	1451.894	1459.154	1519.7701	1844.2769	1861.327	2912.9765	2931.5364	2979.2082	3063.6112	3129.1288	3136.684
O=CC1CC(=O)OCO1	O=C[C@H]1CC(=O)OCO1	
InChI=1S/C5H6O4/c6-2-4-1-5(7)9-3-8-4/h2,4H,1,3H2	InChI=1S/C5H6O4/c6-2-4-1-5(7)9-3-8-4/h2,4H,1,3H2/t4-/m1/s1
