21
gdb 108621	2.29659	1.47294	1.09378	1.9548	84.86	-0.2145	0.0154	0.23	1219.2361	0.182179	-387.057313	-387.048401	-387.047457	-387.09111	33.769	
C	 0.2621460451	 1.5549341074	-0.1888704793	-0.37229
C	-0.0513827841	 0.0718237934	 0.0828946531	-0.320329
C	 0.6553827344	-0.4712111119	 1.2787437644	 0.256875
C	 0.2243819283	-0.9544919823	 2.4528557106	 0.219712
C	-1.1322349982	-1.1509924524	 3.0331584211	-0.520666
C	 1.5633127793	-1.318927618	 3.1336872463	-0.02296
C	 2.4172061215	-0.044010677	 2.871334874	-0.220403
C	 2.1867454201	-0.6210674701	 1.4445633858	-0.02746
O	 2.295644895	-1.9608248787	 2.0355129499	-0.286354
H	 1.3351688782	 1.7134475788	-0.3395216974	 0.119184
H	-0.255589397	 1.9045454461	-1.0873976634	 0.114635
H	-0.051799567	 2.1812653048	 0.6519272301	 0.119263
H	-1.1331728844	-0.0554586312	 0.2053117929	 0.102566
H	 0.2282542105	-0.5148797433	-0.8038587292	 0.109492
H	-1.9181630949	-0.8233848283	 2.3464234235	 0.125974
H	-1.3142973264	-2.2065322989	 3.2732770251	 0.132152
H	-1.2543192377	-0.5926475703	 3.970550091	 0.126645
H	 1.5649967175	-1.8766179089	 4.070614213	 0.073916
H	 1.9971342429	 0.9332220501	 3.1198950186	 0.092695
H	 3.4508990388	-0.1493452544	 3.2102162163	 0.103474
H	 2.848765648	-0.443273025	 0.5967425834	 0.07388
63.8992	127.7448	162.5556	190.0506	194.621	260.6095	296.724	388.7938	499.6426	582.2745	594.029	669.02	696.2673	779.4375	828.7119	839.1678	857.3033	904.701	920.1282	951.7046	992.8952	1024.2941	1047.659	1062.1312	1079.3608	1082.7988	1140.8099	1167.5322	1194.1378	1205.9423	1236.1867	1257.9264	1290.6348	1299.0498	1327.3473	1358.2088	1407.263	1413.8249	1477.7584	1478.3893	1485.0888	1488.5351	1498.4263	1506.3024	1728.4416	3004.7312	3012.47	3034.7078	3054.9662	3056.2805	3058.2618	3102.0036	3104.7563	3109.524	3118.8204	3121.8941	3130.5329
CCC1=C(C)C2CC1O2	CCC1=C(C)[C@@H]2C[C@H]1O2	
InChI=1S/C8H12O/c1-3-6-5(2)7-4-8(6)9-7/h7-8H,3-4H2,1-2H3	InChI=1S/C8H12O/c1-3-6-5(2)7-4-8(6)9-7/h7-8H,3-4H2,1-2H3/t7-,8+/m0/s1
