18
gdb 26129	2.5504	1.46262	0.98059	1.3896	75.13	-0.1883	0.0278	0.2162	1187.0984	0.149045	-435.302717	-435.293687	-435.292743	-435.336653	33.963	
C	 0.4862994378	 1.0159384688	-0.643733329	-0.414769
C	 0.0204687315	-0.0461011867	 0.3526689991	-0.000692
O	 0.0954523	 0.4354379579	 1.7058795199	-0.433522
C	-1.3487997712	-0.5797995961	 0.0692898824	 0.232356
C	-2.3107094815	-0.4094257334	-0.9085389128	 0.18051
N	-2.3152861114	 0.4266336616	-2.0324410657	-0.596636
N	-3.4266597617	-1.1630380162	-0.6340527611	-0.310582
C	-3.162787043	-1.7854986349	 0.4961863819	 0.008756
N	-1.9271431171	-1.4875660642	 0.9538823915	-0.290589
H	 1.4382647351	 1.4298442238	-0.3027626099	 0.125833
H	 0.6413110771	 0.5860232066	-1.639450361	 0.112433
H	-0.2425988386	 1.8274952417	-0.7300612478	 0.135098
H	 0.7517413618	-0.8669185215	 0.3494383966	 0.091303
H	-0.5822845533	 1.1163089674	 1.7963692317	 0.277038
H	-1.4470098392	 0.4250883567	-2.5497650065	 0.239312
H	-3.0826439682	 0.1700915725	-2.6411779068	 0.247713
H	-3.83176905	-2.4558143961	 1.0147883914	 0.128459
H	-1.5122438079	-1.7645114978	 1.8281116362	 0.267981
40.4408	146.7312	183.2107	228.569	274.4833	295.7858	331.7169	345.1487	384.5732	480.8876	506.938	516.9959	639.7378	689.4431	699.5741	742.9808	795.9595	809.5186	887.0445	960.0647	1012.5928	1051.6163	1089.6485	1093.8375	1136.404	1205.3355	1261.3012	1280.1147	1314.5355	1358.7367	1401.6436	1406.8962	1422.143	1485.8169	1494.2748	1499.1103	1519.8392	1634.535	1647.5403	3000.8807	3036.0515	3105.7595	3127.8475	3251.4287	3541.7934	3636.6585	3664.1028	3782.7965
CC(O)C1=C(N)N=CN1	C[C@@H](O)c1c(N)nc[nH]1	
InChI=1S/C5H9N3O/c1-3(9)4-5(6)8-2-7-4/h2-3,9H,6H2,1H3,(H,7,8)	InChI=1S/C5H9N3O/c1-3(9)4-5(6)8-2-7-4/h2-3,9H,6H2,1H3,(H,7,8)/t3-/m1/s1
