18
gdb 26153	1.90954	1.19659	0.74183	2.6183	81.62	-0.2237	-0.0594	0.1643	1517.35	0.143746	-439.127337	-439.116337	-439.115393	-439.164476	37.444	
C	-0.3850924535	 1.9808744945	 1.0060710818	-0.448886
C	-0.5886410979	 0.6208528203	 0.4274200418	-0.132135
N	 1.9769949582	-1.4091924702	-0.6534745361	-0.728972
H	 2.5408922374	-2.031052014	-0.0803855085	 0.231172
H	 1.0816572616	-1.8772665087	-0.7898285507	 0.273641
H	 2.4282805758	-1.3834487527	-1.5638596415	 0.231176
C	-1.7764370929	 0.0142563623	 0.2522260889	 0.144858
C	-1.9024206332	-1.35190018	-0.3349356164	 0.392981
O	-1.0868229696	-2.1352791022	-0.7386592987	-0.338428
O	-3.2581606288	-1.6558778982	-0.3653333547	-0.211204
C	-3.939619491	-0.5767301036	 0.1574539777	 0.041341
C	-3.1429358962	 0.4299555043	 0.5371031963	-0.303029
H	 0.2623899233	 1.9232016221	 1.8901753418	 0.145792
H	 0.1414025631	 2.6227955023	 0.2884781844	 0.145795
H	-1.3180982757	 2.4721155845	 1.2911151445	 0.123898
H	 0.3103706337	 0.0824318656	 0.1242890493	 0.163663
H	-5.0120542462	-0.6947062504	 0.1868995395	 0.146702
H	-3.465341968	 1.363632734	 0.9693352807	 0.121637
38.3859	94.1506	118.8111	128.7499	144.717	153.9542	179.305	192.3894	230.3443	350.7062	360.5684	373.1222	586.0832	601.3533	620.9838	736.0694	779.3547	804.2455	845.8428	879.9775	934.5689	953.395	1021.8869	1075.3359	1081.689	1118.2182	1127.7899	1175.0216	1226.1826	1343.5247	1401.992	1428.6519	1473.0022	1481.9077	1635.4722	1673.8419	1702.4	1709.3944	1855.084	3023.2864	3068.3816	3115.1671	3132.8714	3251.9241	3274.0744	3449.3111	3562.0928	3581.6524
CC([NH3+])C1=C([O-])OC=C1	CC=C1C(=O)OC=C1.N	
InChI=1S/C6H9NO2/c1-4(7)5-2-3-9-6(5)8/h2-4,8H,7H2,1H3	InChI=1S/C6H6O2.H3N/c1-2-5-3-4-8-6(5)7;/h2-4H,1H3;1H3
