17
gdb 35732	2.96898	1.31287	1.15436	1.6328	73.09	-0.2614	0.0331	0.2946	1108.1719	0.134822	-421.766525	-421.758315	-421.757371	-421.799967	30.979	
C	 0.6980628739	-0.7789100989	 0.7065785543	-0.480007
C	 0.2183596641	 0.250041954	 0.3123687664	 0.360206
C	-0.3596893247	 1.5101134765	-0.1669948234	-0.095345
C	-1.0551770827	 2.3161645216	 0.9525920554	-0.310718
C	 0.1007144252	 3.1335364843	 1.5175333402	 0.404436
C	-0.0434533526	 4.1808320239	 2.5304182767	-0.250723
O	 0.5095095769	 2.9024178682	 2.8646502257	-0.263141
C	 1.1944702082	 3.1056388432	 0.4451418919	-0.152334
O	 0.6396483107	 2.4062699205	-0.66374561	-0.248536
H	 1.1218919977	-1.6889995327	 1.0533523323	 0.203322
H	-1.0305471641	 1.3049095949	-1.0064133644	 0.1137
H	-1.8076336794	 2.9713517627	 0.5036325142	 0.115784
H	-1.5242363356	 1.697899006	 1.7183909379	 0.134191
H	 0.6577538842	 5.0148257998	 2.5525250086	 0.1158
H	-1.024431919	 4.393443273	 2.9553777725	 0.115482
H	 1.4918516463	 4.097464344	 0.093426633	 0.115089
H	 2.0757046008	 2.5896068392	 0.8502308386	 0.122793
40.2736	104.3198	177.1149	266.6193	303.1792	372.102	399.7678	433.5478	520.8464	564.1812	631.8815	672.9451	751.0805	776.9119	827.4375	841.3654	922.8448	931.5406	960.5445	986.5383	1005.0531	1079.7198	1096.4574	1127.4562	1163.7596	1192.4603	1218.5024	1238.6143	1262.8174	1310.4689	1344.1365	1366.7889	1434.297	1470.171	1505.5172	1535.709	2233.3865	3015.7794	3059.9047	3071.8525	3073.9518	3087.6719	3138.9842	3158.5161	3502.8275
C#CC1CC2(CO2)CO1	C#C[C@H]1C[C@]2(CO2)CO1	
InChI=1S/C7H8O2/c1-2-6-3-7(4-8-6)5-9-7/h1,6H,3-5H2	InChI=1S/C7H8O2/c1-2-6-3-7(4-8-6)5-9-7/h1,6H,3-5H2/t6-,7+/m0/s1
