15
gdb 24776	4.1823	1.45726	1.10477	7.1346	76.97	-0.228	-0.0328	0.1952	1040.4262	0.116016	-413.001285	-412.994426	-412.993482	-413.032878	26.042	
N	-0.0805842396	 1.287421683	 0.3440404127	-0.496603
C	-0.0024982786	 0.0462486343	 0.0777092961	 0.344159
N	 1.2571660167	-0.6107045002	-0.0992590897	-0.295525
C	 1.2833656078	-1.7645549115	-0.6560372514	 0.057061
N	 0.1217628822	-2.3617316308	-1.0803763865	-0.094866
C	-0.4512686451	-3.7118469384	-1.288744284	-0.179752
C	-1.838971728	-3.1021680847	-0.8734973531	-0.364001
C	-1.0606890211	-1.8307175266	-0.5822972733	 0.423771
N	-1.2050804483	-0.716585919	 0.0016420164	-0.336927
H	 0.8676755071	 1.6651579519	 0.3790172204	 0.220019
H	 2.2190668927	-2.3004871336	-0.806271219	 0.138033
H	-0.3619760176	-4.0687841627	-2.3164918965	 0.13882
H	-0.0630659844	-4.4619744781	-0.5948828038	 0.140365
H	-2.5628905295	-3.0194036797	-1.6859169471	 0.152068
H	-2.3152704145	-3.5584231339	-0.0049079211	 0.153379
90.6709	144.0534	208.1956	365.0365	436.0768	503.0326	535.3597	572.3677	649.2868	765.4058	787.1077	797.042	869.7081	881.2299	908.155	951.9585	958.7592	1014.0272	1055.1809	1138.7961	1151.047	1182.9316	1191.424	1238.6565	1286.0819	1295.6914	1383.397	1417.1056	1464.8634	1512.8848	1621.6713	1709.4144	1778.7074	3066.6144	3093.6916	3123.3114	3147.3781	3151.8917	3476.9726
N=C1N=CN2CCC2=N1	[NH][C@H]1N=CN2CCC2=N1	
InChI=1S/C5H6N4/c6-5-7-3-9-2-1-4(9)8-5/h3,6H,1-2H2	InChI=1S/C5H7N4/c6-5-7-3-9-2-1-4(9)8-5/h3,5-6H,1-2H2/t5-/m0/s1
