20
gdb 101913	1.94983	1.41252	1.08132	3.4108	75.95	-0.2399	-0.0131	0.2268	1227.2592	0.168774	-440.264664	-440.25477	-440.253826	-440.300106	35.654	
C	-0.1674696934	 0.2748773262	 0.8649553329	-0.484181
C	-0.6438638771	 0.342663087	-0.5673678761	 0.395382
O	-1.406706024	 1.1938477424	-0.9645884033	-0.309583
C	-0.081890129	-0.6795007569	-1.5709819579	-0.096724
C	 1.2864813128	-0.2138957822	-2.11073556	-0.076756
O	 2.2934382719	-0.2587172131	-1.120855289	-0.416059
N	 0.1104304039	-1.9984104272	-0.9663140511	-0.090155
C	-1.0808687191	-2.8309208907	-0.8071312598	-0.227071
C	-0.0716364722	-3.1495355904	-1.8518409718	-0.223036
H	-0.3590034241	-0.7129939337	 1.2938004567	 0.14196
H	 0.9185554318	 0.4166415055	 0.8745816067	 0.160773
H	-0.6604430189	 1.0496927462	 1.4530886419	 0.13276
H	-0.7958031324	-0.6969715237	-2.4104284608	 0.080346
H	 1.5472023794	-0.8475454992	-2.9740803209	 0.092541
H	 1.2149067599	 0.8190919307	-2.4634310075	 0.128301
H	 2.2033839219	-1.1233318465	-0.6980689111	 0.290461
H	-1.1301996842	-3.4150400374	 0.1069717665	 0.124435
H	-2.0314743938	-2.419988305	-1.1411505059	 0.129118
H	-0.3448892268	-2.9544065446	-2.8870253962	 0.122265
H	 0.6254585033	-3.9698221673	-1.7104384733	 0.125225
45.2379	90.0285	116.7275	155.9944	180.6449	204.5447	255.1043	319.8636	336.337	451.8228	493.7923	531.0589	543.7759	665.7092	783.0183	788.9716	861.7636	899.7022	915.921	966.6097	1017.6955	1032.0218	1052.2857	1072.1788	1108.5415	1116.8339	1127.7825	1173.1115	1178.0504	1223.6152	1257.717	1285.9652	1308.348	1350.3692	1379.5325	1389.2316	1429.8189	1462.092	1473.2361	1492.209	1505.7329	1519.6796	1808.2042	2967.4193	2981.1497	3046.7602	3090.9046	3102.6632	3106.7869	3114.3289	3156.6695	3186.6374	3200.5539	3758.474
CC(=O)C(CO)N1CC1	CC(=O)[C@@H](CO)N1CC1	
InChI=1S/C6H11NO2/c1-5(9)6(4-8)7-2-3-7/h6,8H,2-4H2,1H3	InChI=1S/C6H11NO2/c1-5(9)6(4-8)7-2-3-7/h6,8H,2-4H2,1H3/t6-/m1/s1
