19
gdb 15344	2.9493	1.45499	1.17416	1.0241	77.16	-0.2266	0.0393	0.2658	1104.2211	0.163555	-327.858091	-327.849039	-327.848095	-327.891864	33.077	
C	 0.0360134157	-2.8738266483	 1.2775518905	-0.376847
C	-0.3177934884	-1.3883426678	 1.4223432741	-0.21506
C	-1.4622969238	-0.9973929827	 0.5088149969	 0.037282
C	-2.8839637693	-1.0377781615	 0.9613605887	-0.254889
N	-2.241376035	 0.2347808457	 0.6495322507	-0.106567
C	-1.9571914858	 1.2155705171	 1.7062760691	-0.284369
C	-2.0916681615	 0.8012234645	 3.1068316185	 0.306527
C	-2.2426880461	 0.4772600561	 4.255745836	-0.46571
H	 0.8864564032	-3.1402124354	 1.9122300063	 0.113152
H	-0.8095664936	-3.5087727465	 1.5615739756	 0.119981
H	 0.3021270325	-3.1195456848	 0.2435274783	 0.115525
H	-0.5690004268	-1.1647846685	 2.4623978996	 0.119933
H	 0.5632321157	-0.7808049788	 1.1739016484	 0.096876
H	-1.2695931152	-1.2320609595	-0.539400912	 0.08517
H	-3.6831736193	-1.338771659	 0.2884225491	 0.109787
H	-3.0546876248	-1.2727039288	 2.0101285147	 0.120788
H	-0.9470872905	 1.6077539855	 1.5368686509	 0.137082
H	-2.6408856906	 2.0584284176	 1.5424678205	 0.141008
H	-2.3629983566	 0.1953027251	 5.2726893842	 0.200331
75.2668	87.1856	133.4985	180.1279	216.5508	280.1439	329.8012	331.0947	423.0942	493.4935	581.6255	612.8501	661.2335	734.8783	795.8428	821.2075	901.6586	930.9558	955.2411	999.88	1004.2832	1067.5288	1080.9677	1125.2375	1149.4516	1171.6693	1196.5685	1276.2207	1295.8877	1328.428	1346.0529	1369.2	1408.4488	1432.0611	1469.4393	1490.5378	1498.5168	1507.784	1510.4536	2222.3493	3017.1606	3021.9081	3032.5703	3054.7367	3080.8456	3090.5129	3096.2972	3107.4448	3111.1627	3180.7026	3502.3097
CCC1CN1CC#C	CC[C@H]1CN1CC#C	
InChI=1S/C7H11N/c1-3-5-8-6-7(8)4-2/h1,7H,4-6H2,2H3	InChI=1S/C7H11N/c1-3-5-8-6-7(8)4-2/h1,7H,4-6H2,2H3/t7-,8?/m0/s1
