14
gdb 42552	4.65619	1.23812	1.11292	3.8068	71.57	-0.2517	-0.0134	0.2384	1047.6805	0.100249	-399.463743	-399.456646	-399.455702	-399.495358	27.416	
O	-0.0890371233	 0.0747387937	 0.2184363749	-0.305565
C	-0.1015267045	 1.2577697946	 0.1104494048	 0.431483
C	-1.1235511663	 2.3367457913	-0.2231912134	-0.210785
C	 0.135968111	 3.0735163732	-0.8170631649	-0.03572
C	 0.4573386376	 3.4912967132	 0.5481957588	-0.038931
C	-0.9898984392	 3.2626257066	 1.0426295138	-0.218195
C	-1.7978002544	 4.4642181514	 0.9909349799	 0.308241
C	-2.4610578759	 5.4657120704	 0.9459408951	-0.426422
N	 1.029120738	 2.1878646624	 0.0520220548	-0.209306
H	-2.0879071162	 2.134847762	-0.6782799597	 0.116143
H	 0.4323753219	 3.3735788223	-1.8101286738	 0.134225
H	 1.1734813967	 4.215288101	 0.9128802948	 0.128418
H	-1.1082535676	 2.7532426512	 2.006184397	 0.122373
H	-3.0509770777	 6.3484108466	 0.9131147578	 0.204042
112.568	139.8704	177.6938	349.6417	429.9449	478.8381	533.4901	619.6736	637.8527	651.4265	717.3857	772.7064	792.0342	841.2122	871.862	896.8446	911.6221	956.3729	1008.8691	1021.4001	1050.5856	1068.6184	1138.1949	1153.9322	1186.2508	1217.2917	1235.6547	1330.3277	1349.4572	1926.4454	2238.2895	3042.2166	3181.2036	3213.3624	3248.9807	3501.9253
O=C1C2C3C(C2C#C)N13	O=C1[C@@H]2[C@H]3[C@@H]([C@H]2C#C)N13	
InChI=1S/C7H5NO/c1-2-3-4-6-5(3)8(6)7(4)9/h1,3-6H	InChI=1S/C7H5NO/c1-2-3-4-6-5(3)8(6)7(4)9/h1,3-6H/t3-,4-,5+,6-,8?/m0/s1
