18
gdb 78722	4.54622	1.17496	1.05454	1.8637	84.01	-0.2388	0.0234	0.2622	1171.5716	0.14735	-364.724694	-364.71679	-364.715846	-364.756719	31.337	
C	-0.0880328357	 1.4638168979	 0.0035753861	-0.414193
C	 0.0248247092	-0.0571678565	 0.0416561719	 0.003541
C	 0.8428063463	-0.630899013	-1.1055403867	-0.07971
N	 2.1355482353	-0.5397700462	-0.3544062258	-0.190622
C	 1.1984572274	-0.5817525381	 0.9018567278	-0.02401
C	 1.1478729465	-2.1143372085	 0.8205250339	-0.307369
C	 1.5107740395	-1.8999068908	-0.6453542042	 0.186835
C	 2.0813166298	-2.8467539064	-1.5423729803	 0.162199
C	 2.5425712172	-3.6733111908	-2.2850112268	-0.376651
H	 0.8874919216	 1.924022664	-0.1811649802	 0.136584
H	-0.7712414254	 1.7879599668	-0.7884259788	 0.117882
H	-0.4735412232	 1.8472148933	 0.9541713359	 0.116249
H	-0.9536685742	-0.5131211863	 0.2365870147	 0.071845
H	 0.7909146209	-0.3854767008	-2.1610820018	 0.09929
H	 1.5089847533	-0.0666158604	 1.8091052476	 0.087428
H	 1.9804635974	-2.5804204977	 1.3519384801	 0.12151
H	 0.2102156833	-2.6219971532	 1.0683258311	 0.101948
H	 2.9572896208	-4.3956679335	-2.9434906646	 0.187242
133.1756	133.3625	231.3887	245.6527	283.0188	388.9224	447.8156	504.6034	531.0837	587.1516	602.3352	661.2666	752.0597	761.4247	795.2888	835.492	883.7852	927.9392	953.7448	977.0716	1003.4978	1031.5637	1075.7534	1087.7868	1109.245	1143.5574	1182.9305	1200.8518	1238.9389	1267.4512	1270.2804	1283.5513	1356.7496	1398.2372	1412.6309	1495.502	1498.783	1501.1151	2236.2848	3024.4126	3033.6386	3048.9472	3098.4596	3112.1056	3115.549	3135.9377	3175.9064	3502.7462
CC1C2N3C1CC23C#C	C[C@H]1[C@H]2N3[C@@H]1C[C@@]23C#C	
InChI=1S/C8H9N/c1-3-8-4-6-5(2)7(8)9(6)8/h1,5-7H,4H2,2H3	InChI=1S/C8H9N/c1-3-8-4-6-5(2)7(8)9(6)8/h1,5-7H,4H2,2H3/t5-,6-,7-,8+,9?/m1/s1
