20
gdb 31950	2.93133	1.01138	0.80882	1.0515	84.64	-0.1951	0.033	0.228	1466.8961	0.171708	-403.191253	-403.181766	-403.180822	-403.226665	34.719	
C	 0.0853769072	 1.6978796521	 0.5092026556	-0.366519
C	 0.0645332463	 0.188491001	 0.2050158991	-0.300537
C	 0.8595528072	-0.6362993718	 1.1680491422	 0.304249
C	 2.0564217206	-1.3047298334	 1.0154479442	-0.228687
C	 2.3940581426	-1.890176339	 2.2677467395	-0.233753
C	 1.3907245462	-1.5764102307	 3.1576201824	 0.255423
C	 1.177435499	-1.9254020527	 4.5917005	-0.183968
O	 0.8237304693	-0.791052561	 5.3865244355	-0.420144
N	 0.4655074324	-0.8195718495	 2.4730257691	-0.326181
H	 1.1093226643	 2.0827488348	 0.4914265855	 0.124799
H	-0.5042147492	 2.2532064007	-0.227139457	 0.113143
H	-0.3313785603	 1.9125957429	 1.4990013004	 0.109826
H	-0.9776027951	-0.1589072254	 0.1800056791	 0.1031
H	 0.4663431781	 0.0146024552	-0.7982236235	 0.114839
H	 2.6257963588	-1.3607079643	 0.0995923531	 0.087886
H	 3.2648803999	-2.4883734494	 2.4917002073	 0.089145
H	 0.3366326382	-2.6188545298	 4.7197025084	 0.115205
H	 2.0749181411	-2.4327864621	 4.973341526	 0.102419
H	 1.5252400421	-0.1401573207	 5.2729295175	 0.28094
H	-0.3408832888	-0.4039510868	 2.9086307655	 0.258814
38.0543	63.5763	109.7452	175.8399	199.277	255.3248	352.4053	363.9107	400.3197	463.5786	522.588	603.0668	645.4111	701.9646	736.3413	781.5017	790.6708	828.2208	947.1139	966.1578	1001.4833	1013.2193	1038.8409	1062.3237	1073.5718	1084.7872	1186.8494	1206.4894	1252.6994	1287.5376	1298.1707	1352.8212	1358.0992	1406.5263	1417.0411	1448.7547	1451.314	1481.3029	1496.8881	1501.6078	1503.3922	1539.2571	1630.4679	3003.4504	3011.5244	3034.0072	3043.0596	3073.7301	3103.1221	3113.6206	3234.5465	3249.762	3665.6475	3800.1499
CCC1=CC=C(CO)N1	CCc1ccc(CO)[nH]1	
InChI=1S/C7H11NO/c1-2-6-3-4-7(5-9)8-6/h3-4,8-9H,2,5H2,1H3	InChI=1S/C7H11NO/c1-2-6-3-4-7(5-9)8-6/h3-4,8-9H,2,5H2,1H3
