21
gdb 106601	4.39345	0.87801	0.87007	0.8856	80.3	-0.2614	0.0742	0.3356	1416.7979	0.181808	-424.166224	-424.15679	-424.155846	-424.200629	35.298	
O	-0.1026563102	 1.3921925461	 0.0251683767	-0.422059
C	-0.0617789194	-0.0289700587	 0.0258178781	-0.219669
C	-1.4744152806	-0.5352235212	 0.0352589783	 0.360403
C	-2.57885518	-0.2640104775	-1.0322698922	-0.305154
C	-3.2456727435	-1.1693351267	 0.0436884341	 0.360404
C	-4.6576090102	-1.6775942202	 0.0494405686	-0.21967
O	-4.835619725	-2.4718336848	 1.2151473148	-0.422059
C	-1.9386969187	-2.0206146951	 0.0332879989	-0.305151
C	-2.5628120769	-0.2715487714	 1.1186558647	-0.279361
H	 0.8022042526	 1.7174268319	 0.0261099184	 0.287475
H	 0.4613109295	-0.4148426675	-0.8651155004	 0.083369
H	 0.4703051641	-0.4147364989	 0.9112356818	 0.085413
H	-2.9403272932	 0.764769218	-1.1063338654	 0.096182
H	-2.4237289046	-0.7093959103	-2.0202621348	 0.081079
H	-5.3536168982	-0.8224360817	 0.0363540921	 0.085413
H	-4.8412079761	-2.2639611888	-0.8663910123	 0.083369
H	-5.7421470929	-2.7922944408	 1.2231480201	 0.287475
H	-1.7373495508	-2.5961863129	-0.8759623791	 0.081078
H	-1.7325082493	-2.6046605339	 0.9337939164	 0.096183
H	-2.4001024299	-0.7262644012	 2.0991169854	 0.092642
H	-2.9255368666	 0.7560237558	 1.2027382058	 0.092641
71.6518	95.7104	137.6567	164.736	228.2732	236.6516	285.5154	336.5044	420.2855	434.0934	540.2465	557.2519	644.1816	670.062	777.967	813.5389	929.6966	946.3457	965.426	985.8169	991.5692	1046.9808	1068.2415	1073.7216	1085.1768	1118.2816	1134.2134	1135.4401	1149.3721	1149.6602	1172.0632	1177.5361	1246.5237	1254.4827	1273.9021	1283.5381	1313.1045	1351.3916	1462.69	1468.3199	1497.8517	1499.3628	1511.5056	1511.7971	1563.9709	2955.4374	2955.6388	2983.3072	2983.3097	3038.3724	3044.5589	3056.6675	3109.176	3113.4066	3122.1052	3830.0807	3830.1105
OCC12CC(CO)(C1)C2	OC[C@@]12C[C@@](CO)(C1)C2	
InChI=1S/C7H12O2/c8-4-6-1-7(2-6,3-6)5-9/h8-9H,1-5H2	InChI=1S/C7H12O2/c8-4-6-1-7(2-6,3-6)5-9/h8-9H,1-5H2/t6-,7+
