17
gdb 126324	2.87945	1.41942	1.02419	1.067	80.06	-0.2331	-0.0671	0.166	1156.0891	0.137669	-414.177672	-414.169541	-414.168597	-414.210586	30.451	
C	 0.0256482493	 1.5609961033	 0.1000870323	-0.379422
C	-0.0102807841	 0.0299021549	-0.068489318	-0.284248
C	-1.4002068453	-0.5326402042	-0.0151112705	 0.247304
C	-2.0680168176	-0.9859226298	-1.1024675206	-0.056287
N	-3.3584800662	-1.4974138362	-1.1022520937	-0.219758
N	-3.9899384927	-1.5702100055	-0.0053478513	-0.035005
N	-3.3760405629	-1.1487127775	 1.1198986761	-0.301414
C	-2.0900105064	-0.6080075469	 1.2677328965	 0.35449
N	-1.565644283	-0.2321105712	 2.3743967225	-0.548636
H	 1.0583404708	 1.9189044536	 0.0553755518	 0.117832
H	-0.5408104984	 2.0569919318	-0.6942800266	 0.115724
H	-0.3978207792	 1.8476192479	 1.0645407258	 0.151779
H	 0.45101642	-0.2511498174	-1.0211261445	 0.103101
H	 0.5754696946	-0.4263746286	 0.7366724509	 0.134905
H	-1.6100741533	-0.9728628046	-2.0860539663	 0.125472
H	-3.9608757178	-1.2521907503	 1.9379421332	 0.269397
H	-2.1934455876	-0.3701776294	 3.1672381323	 0.204766
87.9704	113.1827	178.0198	213.7871	288.2995	314.5809	428.0649	461.0213	542.4641	588.9589	613.8873	694.6133	742.7037	779.6743	796.3736	812.7273	909.1459	955.0153	983.7506	1048.1833	1074.1209	1087.1122	1110.0625	1159.4386	1227.4343	1277.2323	1291.4837	1351.4629	1394.556	1397.8592	1447.5836	1473.9401	1494.9368	1512.594	1546.7956	1637.8465	1710.793	3041.2562	3044.5145	3085.9577	3112.5235	3142.0395	3189.0036	3466.436	3600.2625
CCC1=CN=NNC1=N	CCc1cnn[nH]c1[NH]	
InChI=1S/C5H8N4/c1-2-4-3-7-9-8-5(4)6/h3H,2H2,1H3,(H2,6,7,8)	InChI=1S/C5H13N4/c1-2-4-3-7-9-8-5(4)6/h4-9H,2-3H2,1H3
