16
gdb 69067	2.62917	1.68589	1.27123	1.1355	75.99	-0.2426	0.0059	0.2484	1010.1808	0.122979	-400.715169	-400.707112	-400.706168	-400.747428	31.095	
C	-0.0761988589	 1.5318964744	-0.0944757003	-0.465225
C	 0.0306818293	 0.0341255787	-0.0235048468	 0.264642
C	-0.7979017068	-0.7892549778	 0.932649554	-0.365997
C	 0.7031578082	-0.7700892914	 1.1185909952	 0.190503
O	 1.4030341862	-1.8225162158	 0.4515535584	-0.240136
C	 1.1384250156	-1.645457572	-0.8679373096	 0.0816
N	 0.4242002538	-0.658988702	-1.2312099108	-0.292829
C	 1.3467045726	-0.2530964007	 2.2781472544	 0.231786
C	 1.8690706519	 0.212320741	 3.2564104183	-0.403397
H	 0.833918639	 1.9642462387	-0.519782014	 0.132722
H	-0.9203375683	 1.821724097	-0.7280104119	 0.134815
H	-0.2281420543	 1.95591455	 0.9015629717	 0.126141
H	-1.3612397274	-0.246435265	 1.6830950192	 0.132903
H	-1.2524433967	-1.7078208427	 0.5760361087	 0.127631
H	 1.5812740067	-2.3883762605	-1.5198748944	 0.147439
H	 2.3362829391	 0.6165730981	 4.1201979879	 0.197402
122.2484	141.875	174.105	247.0786	310.3923	369.0338	420.5806	495.3524	524.1629	568.8832	584.8309	605.455	681.736	695.3539	756.1348	797.1584	915.8411	924.5678	941.368	965.3677	976.4595	1051.4414	1098.2192	1113.3889	1142.8636	1222.7691	1293.9981	1339.0076	1361.7166	1420.7731	1464.4565	1479.4221	1496.5935	1667.7015	2238.2388	3043.2577	3112.2819	3124.7753	3131.3139	3229.2725	3230.6234	3501.6433
CC12CC1(OC=N2)C#C	C[C@]12C[C@]1(OC=N2)C#C	
InChI=1S/C7H7NO/c1-3-7-4-6(7,2)8-5-9-7/h1,5H,4H2,2H3	InChI=1S/C7H7NO/c1-3-7-4-6(7,2)8-5-9-7/h1,5H,4H2,2H3/t6-,7+/m0/s1
