14
gdb 48131	3.40204	1.19348	1.02074	1.4573	63.02	-0.2508	-0.1008	0.1501	1128.3399	0.100364	-473.842713	-473.834664	-473.83372	-473.876737	27.469	
O	-0.3231744402	 1.3360678461	-1.107905744	-0.210086
C	 0.7345459899	 1.0286649646	-0.6282142656	 0.103902
C	 1.4728118482	 1.898098026	 0.3976354362	 0.298759
O	 2.3476588265	 1.396621526	 1.0605338444	-0.275266
C	 1.0338964189	 3.3567730603	 0.5023176047	-0.096416
C	 1.5989559429	 4.0866374099	 1.7393315444	-0.130352
O	 2.4434398901	 5.1230129598	 1.1735110091	-0.211282
C	 2.3723841107	 4.9605094609	-0.1601559088	 0.136284
N	 1.6369570209	 4.0540781857	-0.6615645557	-0.282772
H	 1.2471270094	 0.0653898786	-0.8305819226	 0.113062
H	-0.055678435	 3.3971140599	 0.4156939642	 0.124559
H	 0.8342265857	 4.5679645345	 2.3513993866	 0.128481
H	 2.221515585	 3.4334790646	 2.3549483442	 0.147144
H	 2.9728569672	 5.6581907031	-0.733333277	 0.153984
49.6481	81.64	118.7632	161.6366	229.3101	295.0656	474.53	527.324	580.9	607.6686	752.746	788.1732	892.0834	947.9145	962.2271	969.4296	991.1816	1035.7546	1068.3991	1150.334	1174.5406	1229.5369	1264.2303	1311.8794	1364.5575	1371.163	1381.9907	1511.1707	1690.336	1814.9461	1825.9796	2931.5486	3070.7379	3076.2279	3130.6682	3220.4259
O=CC(=O)C1COC=N1	O=CC(=O)[C@H]1COC=N1	
InChI=1S/C5H5NO3/c7-1-5(8)4-2-9-3-6-4/h1,3-4H,2H2	InChI=1S/C5H5NO3/c7-1-5(8)4-2-9-3-6-4/h1,3-4H,2H2/t4-/m1/s1
