16
gdb 127317	3.38977	1.65708	1.12086	2.7535	78.05	-0.1983	0.0138	0.212	1031.972	0.128001	-396.956066	-396.948628	-396.947684	-396.988385	28.039	
C	-0.0138347495	 1.4619433099	 0.0043992389	-0.345679
N	-0.0089286091	 0.0174995669	 0.0027590791	-0.148379
C	-0.0586263356	-0.7992267468	-1.1103391348	-0.063315
C	-0.0373275599	-2.1332129925	-0.7548023489	-0.3551
C	 0.0296334722	-2.1271657226	 0.6658731693	 0.3782
C	 0.0460279874	-0.8030955581	 1.1089253048	 0.246114
C	 0.1121004069	-0.8580356012	 2.5166852011	-0.141924
N	 0.1353024375	-2.1279307461	 2.9207516198	-0.223995
N	 0.0847497771	-2.8874276684	 1.793822193	-0.357293
H	 0.8968714632	 1.859830874	 0.4663267169	 0.13953
H	-0.0640284318	 1.8206141417	-1.0253840074	 0.139473
H	-0.8792883489	 1.8537342961	 0.5508154991	 0.139537
H	-0.1063896986	-0.3562580489	-2.0940335574	 0.119901
H	-0.0664117057	-2.9697158684	-1.4337171018	 0.102078
H	 0.1438073357	-0.0661832291	 3.2491824508	 0.104572
H	 0.0933613191	-3.8866556264	 1.8898354075	 0.266281
53.1852	148.8625	239.3036	256.6771	335.5992	393.2302	524.4707	583.9325	621.8463	658.6749	695.4636	704.2172	749.4528	785.9326	819.8158	841.4607	970.0393	1032.2878	1086.0988	1105.9898	1130.7854	1153.0426	1224.1427	1266.6188	1301.8513	1345.8958	1389.9268	1426.3121	1457.7664	1479.5758	1482.5514	1520.7376	1532.5187	1557.6527	1617.5199	3025.0428	3077.3726	3132.9363	3242.9497	3250.4913	3267.413	3696.1931
CN1C=CC2=C1C=NN2	Cn1ccc2c1cn[nH]2	
InChI=1S/C6H7N3/c1-9-3-2-5-6(9)4-7-8-5/h2-4H,1H3,(H,7,8)	InChI=1S/C6H7N3/c1-9-3-2-5-6(9)4-7-8-5/h2-4H,1H3,(H,7,8)
