22
gdb 18397	2.99744	1.99527	1.35751	0.163	81.18	-0.2559	0.086	0.3419	986.1662	0.204053	-313.079656	-313.072346	-313.071402	-313.110685	30.19	
C	-0.0350581201	 1.5523277884	 0.0411439069	-0.326484
C	 1.2848887892	 0.8181668588	 0.0251430506	 0.018364
C	 2.2097902956	 0.7901315765	 1.2285498014	-0.2179
C	 2.8018994217	-0.6064714347	 1.4974894075	-0.17387
C	 1.8556366242	-1.5769636811	 2.2269880235	-0.17748
C	 0.5466871062	-1.958549393	 1.5125096148	-0.17387
C	-0.4087807161	-0.779794086	 1.2459820324	-0.217896
C	-0.0095368522	 0.0420966521	 0.0337431168	 0.018356
H	-0.3239065889	 2.0443257013	 0.9655825404	 0.105765
H	-0.35432573	 2.0749351459	-0.8543759953	 0.104813
H	 1.8136107308	 0.8226087705	-0.9254300098	 0.076006
H	 3.0222075842	 1.5092883852	 1.0666408781	 0.090567
H	 1.6812421888	 1.1363453652	 2.1255868618	 0.089776
H	 3.1262389083	-1.0494687027	 0.5458662045	 0.088958
H	 3.707824563	-0.5004489483	 2.1073963793	 0.08616
H	 2.4097772296	-2.4988315105	 2.4447525238	 0.08818
H	 1.6019114058	-1.1428916216	 3.2052045418	 0.089091
H	 0.7752781287	-2.4589575707	 0.5615269412	 0.088958
H	 0.0323277835	-2.7040325754	 2.1318777843	 0.08616
H	-1.4274341179	-1.1584210067	 1.0962827293	 0.090566
H	-0.4563186977	-0.1451900552	 2.1398053541	 0.089776
H	-0.2718513066	-0.427749478	-0.9115555573	 0.076005
161.5305	191.2222	292.9894	311.8838	328.9647	368.106	423.5817	503.3819	551.0196	737.3075	745.9993	807.7728	843.2041	862.5445	877.6474	898.9339	936.7988	937.5669	999.381	1032.0492	1053.1649	1060.6116	1070.1938	1077.9949	1114.4521	1139.1091	1186.9146	1210.4933	1227.6682	1240.3984	1252.5254	1288.4606	1303.3086	1340.2183	1362.9338	1379.0881	1387.8371	1390.7244	1404.2183	1431.7009	1482.5199	1482.5301	1486.2857	1487.3791	1498.0105	1505.8924	2999.6448	3009.2879	3010.45	3015.8765	3021.6177	3044.532	3048.5955	3050.5803	3053.0339	3060.1852	3120.5256	3120.7052	3132.677	3204.5082
C1C2CCCCCC12	C1[C@H]2CCCCC[C@@H]12	
InChI=1S/C8H14/c1-2-4-7-6-8(7)5-3-1/h7-8H,1-6H2	InChI=1S/C8H14/c1-2-4-7-6-8(7)5-3-1/h7-8H,1-6H2/t7-,8+
