15
gdb 61744	2.11355	1.36547	0.86138	2.0801	69.75	-0.2781	-0.0787	0.1994	1269.261	0.10786	-457.758818	-457.749009	-457.748064	-457.795391	33.181	
C	-0.2312993704	 1.5564744718	 1.6702032668	-0.398119
C	-0.1342439128	 0.559434962	 0.5267177135	 0.001407
O	 0.5603972757	-0.6134975238	 0.9612750938	-0.182588
C	 1.6449023458	-1.0207725846	 0.2660230078	 0.174802
O	 2.2660096223	-1.9952744302	 0.5563501181	-0.266525
C	-1.5169480871	 0.1534882797	-0.0173016656	 0.220103
O	-2.4858791525	 0.8646005461	 0.1172150076	-0.281384
C	-1.5662953022	-1.1035161079	-0.7360123676	 0.273718
C	-1.604604165	-2.13560525	-1.3542754855	-0.393356
H	 0.765982763	 1.8987715507	 1.9558904487	 0.127419
H	-0.8358147288	 2.4116075501	 1.3638578184	 0.150401
H	-0.7060785556	 1.0910967372	 2.5373605794	 0.147395
H	 0.4074027293	 1.0049477201	-0.3235995084	 0.118491
H	 1.8853817506	-0.3489116395	-0.5814133334	 0.082645
H	-1.6465964222	-3.0508122317	-1.8944855737	 0.225591
23.8587	39.7398	138.9357	158.1759	186.092	205.8953	264.6519	270.9292	352.1216	399.7164	495.7641	560.4276	630.5898	658.9891	720.4527	734.4792	796.4084	929.4425	1039.3221	1042.615	1084.9536	1123.7912	1177.2279	1191.5572	1325.2044	1349.2895	1407.5544	1433.6385	1481.7329	1492.3456	1776.0669	1873.8102	2212.5336	2943.8979	2980.6639	3061.0772	3137.4693	3152.511	3490.9573
CC(OC=O)C(=O)C#C	C[C@@H](OC=O)C(=O)C#C	
InChI=1S/C6H6O3/c1-3-6(8)5(2)9-4-7/h1,4-5H,2H3	InChI=1S/C6H6O3/c1-3-6(8)5(2)9-4-7/h1,4-5H,2H3/t5-/m1/s1
