21
gdb 79356	2.639	1.72217	1.52919	1.6879	79.67	-0.2513	0.0746	0.3259	986.3349	0.186866	-387.109133	-387.101823	-387.100879	-387.140509	30.477	
O	 0.1127238187	 1.3379913726	 0.2067103782	-0.452831
C	 0.0171251772	-0.0684834242	 0.0087929267	 0.153453
C	-1.4205314982	-0.5104841225	-0.1992936511	-0.100108
C	-1.6513402788	-0.5800447255	-1.7060887023	-0.062065
C	-0.3323377835	-0.2307557872	-2.3868053074	-0.240714
C	 0.7068920835	-0.5568318739	-1.2875452676	-0.05317
C	 0.9099789827	-2.0798721862	-1.2026254789	-0.220443
C	-0.4493747197	-2.816372466	-1.0375460865	-0.226672
C	-1.6123849184	-1.8451692697	-0.8840310071	-0.035538
H	-0.4715039995	 1.761476127	-0.4310608416	 0.27776
H	 0.486297676	-0.5083125466	 0.8959582528	 0.075647
H	-2.177013011	-0.143107483	 0.4854623656	 0.08118
H	-2.5883330523	-0.2638045785	-2.1507828474	 0.076382
H	-0.1527041698	-0.8020846394	-3.3046475452	 0.09426
H	-0.3061495836	 0.831121631	-2.6601915175	 0.089341
H	 1.6606806377	-0.0448672905	-1.4351143097	 0.068758
H	 1.4264779925	-2.4299599085	-2.1024083754	 0.095709
H	 1.570323389	-2.3079897915	-0.3585603871	 0.097453
H	-0.6410700951	-3.4602000599	-1.9038093817	 0.100897
H	-0.4189710416	-3.4841487993	-0.1694646323	 0.101266
H	-2.5755294457	-2.3154897181	-0.7057458847	 0.079435
117.0759	204.2573	277.2521	321.3505	354.4525	390.008	473.0541	528.6454	629.0374	720.117	756.3856	799.2181	808.7006	819.1613	837.0443	891.5726	907.9069	938.4323	976.0293	1010.8774	1029.7598	1044.804	1058.0196	1075.2524	1092.8836	1101.042	1111.541	1156.334	1173.5187	1197.9014	1241.4099	1264.0534	1272.107	1299.6156	1307.8733	1321.6676	1332.9053	1355.0891	1362.9136	1382.0135	1432.4486	1436.1574	1489.8484	1499.6421	1513.6535	3025.656	3026.8689	3038.7408	3049.1203	3052.9193	3062.6306	3079.4836	3084.7654	3140.6759	3164.2256	3175.4417	3811.1581
OC1C2C3CC1CCC23	O[C@H]1[C@H]2[C@H]3C[C@@H]1CC[C@@H]23	
InChI=1S/C8H12O/c9-8-4-1-2-5-6(3-4)7(5)8/h4-9H,1-3H2	InChI=1S/C8H12O/c9-8-4-1-2-5-6(3-4)7(5)8/h4-9H,1-3H2/t4-,5+,6-,7+,8+/m0/s1
