23
gdb 60491	5.55139	0.47571	0.45429	3.1233	85.34	-0.2504	-0.0205	0.2299	2412.9335	0.201609	-425.438908	-425.427388	-425.426444	-425.477751	39.411	
C	-0.0969791875	 1.451093962	-0.0795659116	-0.39328
C	 0.0478593512	-0.0734926245	-0.0479433677	 0.159128
C	 0.9065691179	-0.5912921314	-1.1964831849	-0.387261
O	 0.669869258	-0.52683401	 1.1511683006	-0.259313
C	-0.1279612105	-0.4672528218	 2.3108836614	-0.055392
C	 0.6115062661	-1.1918948437	 3.4301431774	-0.206358
C	-0.1669581095	-1.1677264282	 4.7549566275	-0.276334
C	 0.6277138273	-1.7827722782	 5.8843869986	 0.161228
O	 0.2432177955	-2.6724141822	 6.5977759607	-0.236184
H	 0.8855195255	 1.9255592916	 0.0124120539	 0.121865
H	-0.548277355	 1.7708984336	-1.0241019805	 0.11576
H	-0.733312878	 1.8180715767	 0.7307943061	 0.115321
H	-0.9559851409	-0.5274165995	-0.1164421476	 0.063541
H	 1.9120942741	-0.1620484833	-1.14132106	 0.122807
H	 0.9963913481	-1.6794180503	-1.14500398	 0.120955
H	 0.4674029392	-0.320471371	-2.1610674558	 0.112398
H	-0.3273208826	 0.5741037857	 2.6133152333	 0.086658
H	-1.1076333453	-0.9428224523	 2.1306110321	 0.086741
H	 0.7972031077	-2.2259550355	 3.1196440858	 0.120607
H	 1.5930346297	-0.7204250692	 3.5605724494	 0.11371
H	-0.3732250057	-0.1231352952	 5.0338059691	 0.119371
H	-1.1245009048	-1.6913444424	 4.678046128	 0.122966
H	 1.6433107392	-1.3396000809	 6.0188806341	 0.071067
32.198	45.1094	72.5272	90.2749	110.0709	154.8224	203.471	232.5298	253.3498	270.6456	370.7444	401.2117	469.4934	505.3202	537.6115	756.2589	808.2376	838.8573	922.2274	925.7098	933.5298	947.4508	1000.8684	1050.273	1105.5294	1119.1483	1152.7743	1155.3304	1174.7829	1199.3052	1217.9486	1261.1807	1291.451	1314.8609	1352.7303	1366.8881	1375.1986	1397.6465	1414.1757	1429.8283	1440.7252	1464.5927	1479.8997	1485.3139	1495.092	1497.8082	1509.9105	1528.0809	1838.5572	2849.5573	2948.2992	2955.6294	2979.3031	3005.5922	3036.9402	3038.4123	3043.1446	3078.3349	3099.2673	3108.263	3111.5214	3116.8167	3123.469
CC(C)OCCCC=O	CC(C)OCCCC=O	
InChI=1S/C7H14O2/c1-7(2)9-6-4-3-5-8/h5,7H,3-4,6H2,1-2H3	InChI=1S/C7H14O2/c1-7(2)9-6-4-3-5-8/h5,7H,3-4,6H2,1-2H3
