18
gdb 123411	4.76864	0.9115	0.87603	2.3851	76.94	-0.2556	0.0126	0.2682	1366.7672	0.150444	-398.145433	-398.137482	-398.136538	-398.179312	29.422	
C	-0.0532223267	 1.5848057774	-0.1370689196	-0.329339
C	-0.1418137372	 0.0713673648	-0.2453011542	 0.037382
C	-0.1180772984	-0.776835469	 0.9991204822	-0.252106
C	-1.3905780973	-0.6454170545	 0.1956497294	-0.277218
C	 1.3588298785	 2.0697795356	-0.0378143053	 0.360071
N	 1.84821365	 2.6338053875	 1.0577214211	-0.269564
N	 3.1335661384	 2.8844819831	 0.704091457	-0.179343
C	 3.3584527985	 2.4715609923	-0.5578544042	 0.01544
N	 2.2598091732	 1.9499564001	-1.0629100108	-0.301719
H	-0.524171542	 2.0422628932	-1.0156787771	 0.11674
H	-0.5988906423	 1.9313092826	 0.7459901281	 0.114143
H	 0.3702717003	-0.3342544929	-1.1126332836	 0.099141
H	 0.413784376	-1.7214677394	 0.9721275261	 0.108759
H	-0.0669428572	-0.2667642632	 1.955666886	 0.115565
H	-2.195643395	-0.0509292682	 0.6160382682	 0.108613
H	-1.7280864743	-1.4990492383	-0.3819487208	 0.109606
H	 3.7576728836	 3.3275542354	 1.3575860863	 0.28036
H	 4.3127263717	 2.5719603533	-1.0533033888	 0.143469
42.3883	64.1612	116.7998	279.5203	315.2364	366.1069	416.5923	531.602	680.9388	701.7338	775.1009	784.5704	814.2933	847.9366	856.7276	897.0791	959.0653	995.5384	998.9485	1007.0408	1056.3089	1077.4641	1095.7512	1120.1909	1142.3597	1173.8024	1197.6974	1224.7857	1252.9802	1292.2971	1325.5184	1357.5501	1408.7315	1465.6832	1470.9637	1473.2699	1490.2584	1508.1604	1561.1409	3034.1527	3089.5849	3127.5695	3132.9993	3156.3816	3205.2058	3220.8883	3255.244	3668.7952
C(C1CC1)C1=NNC=N1	C(C1CC1)c1n[nH]cn1	
InChI=1S/C6H9N3/c1-2-5(1)3-6-7-4-8-9-6/h4-5H,1-3H2,(H,7,8,9)	InChI=1S/C6H9N3/c1-2-5(1)3-6-7-4-8-9-6/h4-5H,1-3H2,(H,7,8,9)
