23
gdb 58970	2.2606	1.22146	0.97543	1.9792	89.57	-0.2187	0.0287	0.2474	1368.0303	0.204362	-388.309847	-388.299444	-388.2985	-388.345807	37.578	
C	 0.0294202755	 1.5891409144	 0.0172990843	-0.386471
C	 0.0569458488	 0.0482990595	-0.018912385	-0.084459
C	 0.7095815151	-0.4539668017	-1.3220271243	-0.386384
C	 0.729432435	-0.5269171387	 1.1999435797	 0.223057
C	 0.2163734874	-1.3197641954	 2.1457934925	 0.152053
C	-1.1627399508	-1.8782163987	 2.2937830681	-0.501687
C	 1.2794586555	-1.6337837858	 3.1666228403	-0.138263
O	 2.452143105	-0.9602341516	 2.732844018	-0.26465
C	 2.1810423906	-0.255405626	 1.5274903721	-0.157852
H	 1.0406003419	 2.0078976769	-0.0249294612	 0.118408
H	-0.5264011794	 1.9829568755	-0.8399844448	 0.111708
H	-0.4479869538	 1.9556986734	 0.9309586057	 0.117162
H	-0.9836512573	-0.2973854613	-0.0200510561	 0.074517
H	 1.7443915712	-0.1061566467	-1.4104423708	 0.118373
H	 0.7178667292	-1.5471710476	-1.3653580876	 0.117179
H	 0.1612184904	-0.0818388546	-2.1936865472	 0.11169
H	-1.1433253275	-2.9755693775	 2.3119671196	 0.128312
H	-1.6167098264	-1.5601722237	 3.2412354702	 0.128301
H	-1.827888441	-1.5691323833	 1.4841904584	 0.128678
H	 0.9974203545	-1.2902349515	 4.176620563	 0.095368
H	 1.4728367591	-2.7173600598	 3.243397566	 0.095562
H	 2.8636671428	-0.6035647809	 0.7356120774	 0.09979
H	 2.3854617143	 0.8176408549	 1.6733300318	 0.099609
34.1999	91.0932	134.1786	156.3931	196.8987	209.099	237.9556	254.3569	271.3052	364.4516	365.2089	488.1087	576.5902	591.7751	636.5418	810.7185	885.4579	927.4001	933.9925	958.242	961.3289	969.98	1035.6904	1047.9381	1073.3321	1093.0847	1119.6162	1125.1106	1180.8658	1186.4205	1226.7833	1233.9219	1286.8257	1337.4714	1358.5917	1379.971	1395.2359	1396.0289	1419.3425	1420.963	1479.8588	1487.9415	1491.125	1491.9923	1502.3998	1509.9251	1519.1339	1531.8923	1747.0855	2951.4117	2964.3525	2968.1765	2979.0921	3017.3251	3030.214	3030.6839	3034.6432	3059.9475	3097.065	3103.4044	3107.4609	3109.6848	3117.0444
CC(C)C1=C(C)COC1	CC(C)C1=C(C)COC1	
InChI=1S/C8H14O/c1-6(2)8-5-9-4-7(8)3/h6H,4-5H2,1-3H3	InChI=1S/C8H14O/c1-6(2)8-5-9-4-7(8)3/h6H,4-5H2,1-3H3
