21
gdb 52810	2.77704	1.08282	0.91469	0.0829	91.7	-0.2373	0.0586	0.2959	1399.8454	0.181105	-349.908246	-349.89858	-349.897636	-349.943612	35.846	
C	-0.0201485544	 1.5030850992	-0.041030213	-0.499636
C	-0.0072006497	 0.0469756839	-0.016063361	 0.039403
C	 0.0027316806	-1.1583349093	 0.0000809887	 0.063389
C	 0.0170593487	-2.6161547939	 0.0259096473	 0.142204
C	 0.9921533893	-3.1753245352	-1.0188705383	-0.447511
C	 0.2277662307	-3.2872835448	 1.4449903265	-0.279646
C	-1.1274532744	-3.9842781464	 1.3042579051	-0.036246
C	-2.2180145504	-2.9633188696	 1.1326991274	-0.291027
C	-1.3641164224	-3.3163289692	-0.0483813616	-0.067194
H	 0.7370627718	 1.8977248955	-0.7279087642	 0.145259
H	-0.9931881942	 1.8875763837	-0.367068322	 0.145963
H	 0.1840160873	 1.9221202096	 0.9507864984	 0.144878
H	 2.012236462	-2.8329179147	-0.8203033794	 0.120211
H	 0.9817228444	-4.2701529542	-1.0011177883	 0.111838
H	 0.7127819255	-2.8454044475	-2.0244708262	 0.120123
H	 1.0816924027	-3.9686085529	 1.4364233794	 0.102171
H	 0.3288322991	-2.5997152306	 2.2894135074	 0.099116
H	-1.3404622258	-5.0032614705	 1.6032389402	 0.082819
H	-3.2281187024	-3.3597014	 1.1054273144	 0.10808
H	-2.1329557013	-1.9814900696	 1.5920236251	 0.114033
H	-1.7771657273	-3.7276062736	-0.962481146	 0.081774
29.701	83.2557	106.0121	179.3982	248.0412	270.1264	289.37	327.2263	384.2067	423.6509	487.7451	531.7346	577.5564	738.0562	783.7651	810.8803	878.0031	899.3863	923.1434	966.2769	984.0259	992.9937	1030.3931	1053.2043	1053.697	1062.9068	1070.8183	1084.2422	1136.7757	1154.8964	1175.005	1201.8651	1248.3386	1293.8244	1296.4689	1356.8232	1405.4425	1414.8761	1478.0249	1479.3098	1479.3429	1488.1248	1493.8058	1496.3665	2360.7518	3023.8961	3030.713	3054.371	3083.2135	3083.6586	3102.6199	3109.2756	3110.8114	3111.4492	3170.1294	3183.2234	3202.5808
CC#CC1(C)CC2CC12	CC#C[C@@]1(C)C[C@H]2C[C@@H]12	
InChI=1S/C9H12/c1-3-4-9(2)6-7-5-8(7)9/h7-8H,5-6H2,1-2H3	InChI=1S/C9H12/c1-3-4-9(2)6-7-5-8(7)9/h7-8H,5-6H2,1-2H3/t7-,8-,9+/m1/s1
