18
gdb 78214	2.28708	1.60706	1.39722	1.8208	72.79	-0.2256	-0.0267	0.1988	1033.4182	0.145009	-439.043147	-439.034064	-439.03312	-439.076408	34.086	
C	 0.3864368883	 1.7241022743	-0.5957340126	-0.320447
N	 0.4680331286	 0.28710899	-0.3435300416	-0.086147
C	 1.7116355808	-0.461059912	-0.4193706939	-0.184971
C	 0.8875628987	-0.3505787148	 0.8686835859	-0.065561
C	 2.0220868616	 0.3691358593	 1.6245165359	 0.276069
C	 1.7885660363	 1.651945199	 2.4003743414	-0.470728
O	 2.6390218357	-0.6139534992	 2.4549571188	-0.467083
C	 2.8188573872	 0.3081941113	 0.2715156995	 0.346965
O	 3.956874693	 0.5801228059	 0.0108579086	-0.326085
H	 1.2866212126	 2.2998933526	-0.3473182377	 0.125024
H	 0.1856442445	 1.8623294025	-1.6622533657	 0.13308
H	-0.4608877164	 2.1324789132	-0.0372025685	 0.132411
H	 1.8106757451	-1.2661226321	-1.139116242	 0.114888
H	 0.2650996308	-1.1226596579	 1.3075870693	 0.117009
H	 1.2439325871	 1.4267576892	 3.3223503821	 0.133058
H	 2.751546687	 2.0981755765	 2.6751794394	 0.125689
H	 1.2253002088	 2.3958525255	 1.8354997766	 0.124565
H	 3.5455541104	-0.3266984834	 2.6184256344	 0.292263
105.7185	160.2735	175.856	191.4221	244.0702	268.9814	294.1656	331.7446	370.0071	397.4485	499.2446	571.139	672.2036	675.8973	728.6319	776.1679	885.1291	909.0666	939.0549	958.3266	970.3525	1044.0009	1087.8437	1117.2019	1141.3808	1157.235	1183.7636	1193.8746	1227.2393	1279.191	1362.4013	1372.3024	1406.3526	1456.08	1485.0695	1488.8729	1493.0338	1514.9804	1874.2347	3015.2069	3036.9729	3085.8302	3102.3444	3113.3331	3141.8779	3173.7823	3183.3962	3788.7127
CN1C2C1C(C)(O)C2=O	CN1[C@@H]2[C@H]1[C@@](C)(O)C2=O	
InChI=1S/C6H9NO2/c1-6(9)4-3(5(6)8)7(4)2/h3-4,9H,1-2H3	InChI=1S/C6H9NO2/c1-6(9)4-3(5(6)8)7(4)2/h3-4,9H,1-2H3/t3-,4+,6-,7?/m1/s1
