19
gdb 42037	3.31884	1.42872	1.06364	1.4073	70.64	-0.2516	0.0848	0.3364	1109.3949	0.162743	-460.154828	-460.147588	-460.146644	-460.186591	28.423	
C	 0.0106528549	 1.5546556213	 0.1041692921	-0.107541
O	 1.3976257282	 1.8966612898	-0.0885333869	-0.275085
C	 2.2284544119	 0.7361771201	 0.0380484648	-0.114841
C	 1.3234006536	-0.2851869562	 0.7104635292	 0.117785
O	 1.6515217926	-1.6464399258	 0.5547076568	-0.256629
C	 0.6272721359	-2.4176626242	 1.15503139	 0.013479
O	-0.6484253283	-2.187732567	 0.61541446	-0.240777
C	-1.0779577764	-0.8272053146	 0.7305556836	-0.145184
C	-0.0222291991	 0.0337776624	 0.0529166102	 0.006412
H	-0.3336782608	 1.9438147407	 1.0744596232	 0.095142
H	-0.5778597039	 2.0348302278	-0.6838071166	 0.109559
H	 2.5552083979	 0.3716154976	-0.9465076512	 0.105601
H	 3.1117973728	 1.0030227395	 0.6255924273	 0.108786
H	 1.2558474949	-0.0480093327	 1.7883767158	 0.070182
H	 0.8648678853	-3.4651041589	 0.9641513487	 0.123003
H	 0.6164842279	-2.2150978547	 2.2428724578	 0.080045
H	-2.0594407162	-0.7791457258	 0.2523881147	 0.116728
H	-1.1931974197	-0.5476822846	 1.7912295647	 0.093335
H	 0.0469947685	-0.2931090646	-0.991706424	 0.099999
117.6849	179.7083	214.29	342.7472	353.1028	376.4841	443.7881	526.4536	548.1936	666.3006	704.4941	839.1914	906.5438	930.5644	960.0981	980.8846	1016.071	1038.9951	1078.7665	1083.6691	1112.7017	1133.5695	1159.5965	1168.2079	1194.4881	1207.0996	1240.1155	1251.3269	1308.3311	1321.0061	1333.3657	1345.5435	1365.7369	1388.7589	1416.5518	1425.153	1450.1058	1499.5393	1508.2148	1524.3138	1533.1169	2922.672	2935.1529	2971.911	2988.9127	3005.6235	3042.6868	3071.8124	3081.5804	3095.502	3125.2424
C1OCC2OCOCC12	C1OC[C@@H]2OCOC[C@@H]12	
InChI=1S/C6H10O3/c1-5-2-8-4-9-6(5)3-7-1/h5-6H,1-4H2	InChI=1S/C6H10O3/c1-5-2-8-4-9-6(5)3-7-1/h5-6H,1-4H2/t5-,6+/m1/s1
