16
gdb 47182	2.27612	1.75813	1.02954	5.269	77.51	-0.2165	-0.0309	0.1855	1103.3281	0.127955	-434.114004	-434.10627	-434.105326	-434.146466	29.409	
N	-0.0498650532	 1.0110932488	-0.9868454552	-0.528539
C	 0.0323380184	 0.0603523406	-0.126814739	 0.339696
N	-1.2158899387	-0.4514634303	 0.2806296113	-0.347516
C	-1.615890208	-1.6359611937	 0.8457118981	 0.411827
O	-2.7912572999	-1.8808283553	 1.0278408245	-0.350921
C	-0.538912208	-2.6709863016	 1.1570033457	-0.291387
N	 0.5526814253	-2.1843604237	 1.9813980476	-0.293719
C	 1.4613096349	-1.2976043761	 1.4838933295	-0.005306
C	 1.26905068	-0.390638268	 0.5012504711	-0.161562
H	 0.8771729648	 1.3718732718	-1.2052488413	 0.216312
H	-1.9865113217	 0.1096814998	-0.062720865	 0.263845
H	-1.0467914778	-3.4808262401	 1.6789370886	 0.14431
H	-0.1545449254	-3.0539729327	 0.1969272834	 0.130527
H	 0.9025766078	-2.8430165697	 2.6564286121	 0.258251
H	 2.4401834695	-1.3517096253	 1.9527208473	 0.119793
H	 2.139058092	 0.1823316156	 0.2027066115	 0.094389
91.048	124.734	183.2695	314.4535	359.3042	392.6662	412.5013	486.6449	531.136	579.6587	644.6401	699.3258	728.0696	785.9891	829.3656	857.7302	870.0369	952.7381	965.715	985.954	1036.1245	1148.9933	1191.4158	1266.5647	1324.3467	1342.8746	1388.7935	1420.1132	1435.1457	1454.2671	1468.3015	1532.2772	1651.2151	1710.9741	1791.7073	2971.9157	3145.9216	3165.2733	3197.8019	3499.908	3576.3784	3650.4318
N=C1NC(=O)CNC=C1	[NH]C1=C[CH]NCC(=O)N1	
InChI=1S/C5H7N3O/c6-4-1-2-7-3-5(9)8-4/h1-2,7H,3H2,(H2,6,8,9)	InChI=1S/C5H7N3O/c6-4-1-2-7-3-5(9)8-4/h1-2,7H,3H2,(H2,6,8,9)
