19
gdb 73577	2.19748	2.13717	1.56379	2.1626	73.43	-0.2305	0.0787	0.3092	947.8559	0.159922	-422.994616	-422.987075	-422.986131	-423.026222	30.245	
C	 0.1141037096	 1.6150084272	 0.0095083316	-0.461177
C	 0.0099349205	 0.104807715	 0.0827051928	 0.398851
O	-1.3425296058	-0.2797328546	 0.140940255	-0.302176
C	-1.4827682193	-1.4681089064	 0.9271075004	-0.075504
C	-0.2946621543	-1.4980980158	 1.9205768794	-0.245405
C	 0.7755829981	-0.6385835857	 1.2381569475	-0.129057
C	 1.6694189493	-1.283074437	 0.1622077115	 0.014365
O	 0.821170231	-2.0415166414	-0.7073548157	-0.244405
C	 0.930372059	-0.6324896392	-0.9350637453	-0.032766
H	 1.1588389488	 1.9335773654	-0.0618526273	 0.115869
H	-0.4184566401	 1.9875179447	-0.8714874196	 0.129346
H	-0.3329246838	 2.0717870997	 0.8970016714	 0.123876
H	-2.4543050032	-1.4103411464	 1.4288389828	 0.095724
H	-1.4692682827	-2.3512075885	 0.2820386712	 0.116421
H	-0.5802718292	-1.0465341438	 2.8751297492	 0.104655
H	 0.035847117	-2.5209510531	 2.1180890408	 0.110271
H	 1.3206681911	 0.0229280069	 1.9138523169	 0.078271
H	 2.7085286322	-1.583988188	 0.2264857188	 0.103698
H	 1.2508758119	-0.315403049	-1.9220759313	 0.099143
134.7685	218.9705	227.7673	256.26	270.279	325.8034	462.3551	569.2318	612.1549	647.7939	703.2087	791.1298	818.4158	851.3	871.6792	893.2803	898.6432	920.4016	946.3676	992.4547	1034.3185	1049.8089	1065.9779	1097.759	1117.8875	1174.4117	1175.6973	1215.3335	1229.538	1244.8678	1255.9333	1293.3064	1306.9302	1341.3892	1378.9315	1397.6808	1408.1355	1482.4248	1485.275	1494.701	1519.8918	3037.5138	3043.4294	3057.1513	3084.3767	3097.0224	3108.6665	3111.4657	3116.5131	3168.6285	3190.5632
CC12OCCC1C1OC21	C[C@]12OCC[C@H]1[C@H]1O[C@@H]21	
InChI=1S/C7H10O2/c1-7-4(2-3-8-7)5-6(7)9-5/h4-6H,2-3H2,1H3	InChI=1S/C7H10O2/c1-7-4(2-3-8-7)5-6(7)9-5/h4-6H,2-3H2,1H3/t4-,5+,6+,7-/m0/s1
