16
gdb 45513	4.55898	1.3017	1.04061	2.4086	72.12	-0.2247	-0.0045	0.2202	1092.9547	0.128163	-434.126712	-434.119728	-434.118784	-434.158206	26.945	
O	-0.0270933703	 0.0434141416	 0.0491733036	-0.345068
C	-0.0418930816	 1.2444133464	-0.0026297433	 0.416067
C	-1.2733192681	 2.1758363474	-0.0486685947	-0.313944
N	-0.6782695444	 3.4687671075	-0.3181162906	-0.102769
C	-1.0976956615	 4.7913853978	 0.1412455262	-0.192893
C	 0.2715562655	 5.540562196	 0.0752524087	-0.165458
N	 1.3187043747	 4.4953035247	 0.1830889879	-0.373289
C	 0.6843501683	 3.4164590804	-0.0423668402	 0.499068
N	 1.0622053034	 2.0878995124	-0.0072251479	-0.430158
H	-1.9736888182	 1.8445006809	-0.8206678753	 0.14619
H	-1.7880680142	 2.1262327679	 0.9245669629	 0.133308
H	-1.8617286652	 5.2287649065	-0.5057839315	 0.117315
H	-1.4911212938	 4.7487460366	 1.1697006411	 0.100154
H	 0.3759233255	 6.0731304532	-0.8787711342	 0.114339
H	 0.3811310541	 6.2750026534	 0.8768190903	 0.115943
H	 2.0103161057	 1.7675509673	 0.1049088568	 0.281193
109.1539	184.7025	241.1779	288.1601	356.0846	516.6723	530.3067	563.2846	603.8085	686.0743	732.4472	762.9074	832.237	860.862	886.8407	929.908	1004.6834	1017.6508	1105.7841	1110.4548	1177.1044	1199.3076	1215.3203	1242.92	1261.7617	1298.592	1316.6485	1340.2216	1362.3781	1437.9904	1495.2205	1499.1002	1530.2373	1767.877	1871.3301	2974.7239	2983.078	3024.8808	3081.9057	3090.2878	3097.8422	3664.9877
O=C1CN2CCN=C2N1	O=C1CN2CC[N][C]2N1	
InChI=1S/C5H7N3O/c9-4-3-8-2-1-6-5(8)7-4/h1-3H2,(H,6,7,9)	InChI=1S/C5H7N3O/c9-4-3-8-2-1-6-5(8)7-4/h1-3H2,(H,6,7,9)
