21
gdb 64229	3.03259	0.97342	0.89419	1.8865	84.59	-0.2499	0.0562	0.3061	1400.3208	0.179815	-387.05207	-387.042126	-387.041182	-387.086671	37.912	
C	-0.0684493422	 1.5734472956	-0.1093225045	-0.44794
C	-0.0087674095	 0.0501601437	-0.0366528792	 0.380581
O	-1.2957356844	-0.5125473895	-0.2177483773	-0.477843
C	 1.1573207178	-0.5556101668	-0.8804313965	-0.278908
C	 1.9946660104	-0.6672857891	 0.4219357273	-0.23746
C	 0.6775916539	-0.5376630631	 1.2302526732	 0.026616
C	 0.6576152517	 0.2353664048	 2.5532915923	-0.400908
C	 1.4124177385	-0.4406078543	 3.6028788128	 0.29776
C	 2.0424715482	-1.0183399916	 4.4481870311	-0.438136
H	 0.9113996113	 2.0301762259	 0.0605520719	 0.121462
H	-0.4016089862	 1.8874412741	-1.1066691535	 0.105279
H	-0.7726057433	 1.9744199915	 0.6261021706	 0.124778
H	-1.7010658282	-0.1027987503	-0.9898550936	 0.272778
H	 0.8686329291	-1.5361492049	-1.2665999743	 0.107183
H	 1.5580496478	 0.051590256	-1.6968485749	 0.088928
H	 2.5824700834	-1.5739954304	 0.5704915405	 0.107726
H	 2.650653179	 0.1967113759	 0.5673683934	 0.100195
H	 0.248366002	-1.5310709434	 1.390314241	 0.09725
H	 1.0683130903	 1.2425730962	 2.4071174188	 0.12274
H	-0.3821185359	 0.3702538696	 2.8796178014	 0.136057
H	 2.5952980961	-1.5201699398	 5.2028168695	 0.19186
63.4897	112.0945	121.4259	222.3105	249.5382	272.6563	280.1883	341.6954	352.4539	376.8819	408.4307	494.5459	531.5359	611.3192	616.417	632.4598	752.3696	799.9078	876.7731	890.4859	899.1601	943.1414	959.5476	975.4223	1006.1743	1076.3886	1113.6076	1134.9841	1169.0182	1192.0623	1210.143	1234.7628	1255.0669	1270.883	1300.7916	1326.6383	1367.3022	1391.3134	1406.9675	1469.3994	1477.3972	1492.581	1497.0807	1499.8443	2237.0569	3015.4958	3022.9172	3046.1157	3053.464	3058.8788	3074.3643	3087.7467	3111.1014	3112.9964	3126.4664	3507.9073	3798.668
CC1(O)CCC1CC#C	C[C@@]1(O)CC[C@H]1CC#C	
InChI=1S/C8H12O/c1-3-4-7-5-6-8(7,2)9/h1,7,9H,4-6H2,2H3	InChI=1S/C8H12O/c1-3-4-7-5-6-8(7,2)9/h1,7,9H,4-6H2,2H3/t7-,8-/m1/s1
