15
gdb 17952	3.35934	2.31692	2.12742	1.6578	59.45	-0.2086	0.0665	0.2751	714.0016	0.120582	-399.735587	-399.729413	-399.728469	-399.76552	24.804	
O	-0.0707980183	 1.4078457651	-0.0579554411	-0.460009
C	 0.0369075023	 0.0386222784	-0.0163842327	 0.327204
C	-1.023306329	-1.0313835901	 0.0370358687	-0.103657
N	-0.4525706048	-1.7435891178	-1.1079661667	-0.309939
C	 0.7908516864	-0.9086200745	-1.0003176416	-0.093358
C	 1.8197934085	-1.578445492	-0.0959198037	-0.095794
O	 1.1139447215	-1.7977608082	 1.137216981	-0.268182
C	 0.0329795946	-0.8900887892	 1.1520831359	-0.001362
H	 0.6227012941	 1.788804395	 0.4921433012	 0.290144
H	-2.0918323792	-0.9708301382	 0.2121427595	 0.100248
H	-0.2726823372	-2.7276184109	-0.9066697999	 0.217715
H	 1.1626524615	-0.5137757688	-1.9470733346	 0.087892
H	 2.1693356468	-2.5489767538	-0.4641856956	 0.111792
H	 2.6956800125	-0.9270819433	 0.0639075857	 0.089348
H	-0.2761662396	-0.5692439015	 2.1398566639	 0.107959
216.9005	249.3199	314.5329	326.3651	415.5656	545.8834	601.9818	674.9945	736.7898	769.0338	827.1363	897.5861	922.8824	932.6382	964.4777	992.2499	1002.069	1057.4554	1066.543	1085.5968	1121.782	1158.5891	1180.6275	1236.2871	1242.1319	1269.1549	1294.8911	1328.9299	1370.5597	1379.3635	1490.4946	1510.7939	2963.198	3068.2767	3106.055	3174.7467	3194.2466	3444.318	3794.7504
OC12C3NC1COC23	O[C@@]12[C@H]3N[C@@H]1CO[C@@H]23	
InChI=1S/C5H7NO2/c7-5-2-1-8-4(5)3(5)6-2/h2-4,6-7H,1H2	InChI=1S/C5H7NO2/c7-5-2-1-8-4(5)3(5)6-2/h2-4,6-7H,1H2/t2-,3+,4-,5-/m1/s1
