17
gdb 115990	2.22371	1.42236	0.91401	2.5771	79.87	-0.235	-0.0326	0.2024	1241.7733	0.134773	-421.793839	-421.785023	-421.784079	-421.827786	32.438	
O	 0.0386099575	 1.4084663836	-0.2275719501	-0.421363
C	 0.0752688836	 0.000977788	-0.126534597	-0.055149
C	-1.3151014722	-0.5545854134	 0.194890963	-0.025574
O	-2.2274903835	-0.1067236831	-0.8161782928	-0.291643
C	-2.8204004682	-1.2157445805	-1.4891085917	-0.113598
C	-2.2584511353	-2.4294404517	-0.8146573023	-0.227749
C	-1.410898878	-2.0679548924	 0.1551674485	 0.17742
C	-0.6774776475	-2.8961666476	 1.0335306932	 0.250029
C	-0.0326097953	-3.5577449312	 1.8069031218	-0.429995
H	-0.6816246419	 1.6089525876	-0.8378128053	 0.290487
H	 0.4389478451	-0.4678042504	-1.0555120157	 0.082459
H	 0.7742188646	-0.2521786726	 0.6770300459	 0.11663
H	-1.6387702161	-0.148942812	 1.1645637069	 0.097837
H	-3.9168080719	-1.1585011965	-1.4031122906	 0.117123
H	-2.5796505328	-1.1830373853	-2.5633819399	 0.114958
H	-2.5196855436	-3.4427987432	-1.0889962852	 0.118373
H	 0.5311404854	-4.1537327692	 2.4812960709	 0.199755
73.8876	107.9484	127.0436	164.924	212.1505	325.0962	384.9371	448.4016	464.3976	537.9142	554.9094	599.4937	624.4294	644.7366	767.5129	827.3318	839.5805	948.4395	955.0103	1027.3356	1040.0321	1076.6458	1086.2614	1110.9411	1190.4189	1194.7131	1224.1246	1267.2394	1306.8301	1349.0644	1381.0688	1390.8967	1431.6481	1499.4665	1518.6738	1681.5272	2226.1707	2971.4475	2977.2014	2993.2967	3004.4728	3084.0305	3228.8261	3501.1389	3787.0146
OCC1OCC=C1C#C	OC[C@H]1OCC=C1C#C	
InChI=1S/C7H8O2/c1-2-6-3-4-9-7(6)5-8/h1,3,7-8H,4-5H2	InChI=1S/C7H8O2/c1-2-6-3-4-9-7(6)5-8/h1,3,7-8H,4-5H2/t7-/m1/s1
