21
gdb 70294	3.42768	1.28096	1.16512	1.8111	82.14	-0.256	0.083	0.3391	1156.3935	0.183018	-387.080658	-387.072492	-387.071548	-387.112873	32.997	
C	 0.0058229009	 1.517768716	-0.0017878998	-0.483647
C	 0.0328301599	 0.0087441162	 0.0008226534	 0.356912
C	-0.819323156	-0.7607501084	 0.9843035654	-0.336335
C	 0.6871240021	-0.7988795358	 1.1114143557	-0.074185
C	 1.3975603108	-1.9959842261	 0.4981966149	-0.291134
C	 0.7838100852	-2.1056844317	-0.8958810514	 0.407073
C	 1.0704494918	-3.191032123	-1.8346962965	-0.256663
O	-0.1558095536	-3.176079846	-1.0986160457	-0.272739
C	 0.3260598512	-0.7117900062	-1.3132533751	-0.341581
H	 0.9363289158	 1.9329898053	-0.4078745431	 0.110966
H	-0.8206058913	 1.9019655239	-0.6117775338	 0.117112
H	-0.1221687304	 1.9134417018	 1.0109183228	 0.113606
H	-1.3610325331	-0.1783416423	 1.7224400013	 0.103427
H	-1.3386577779	-1.6546660569	 0.6535086737	 0.133466
H	 1.1460250477	-0.2983060261	 1.9574431909	 0.076754
H	 2.4746450695	-1.7985290769	 0.4254255324	 0.101032
H	 1.2628189318	-2.9311335692	 1.0505179963	 0.111762
H	 0.9751652737	-3.0200437305	-2.9069713074	 0.108486
H	 1.7737040419	-3.9761316638	-1.5568613901	 0.10849
H	-0.5324720728	-0.7735078813	-1.9895791495	 0.109732
H	 1.134299983	-0.190019169	-1.8435256343	 0.097465
107.977	186.1684	219.5139	261.7775	316.1945	370.5678	384.614	403.4685	429.3936	513.9272	587.8233	702.0153	768.1161	819.1184	833.1048	871.7525	880.6075	921.3134	924.2916	970.0132	980.8697	997.6366	1060.278	1067.671	1081.9014	1097.3844	1111.3007	1126.709	1162.7155	1187.6061	1227.6442	1231.4995	1243.1369	1287.7996	1311.9055	1329.6582	1400.7685	1422.9587	1431.1443	1472.6902	1481.1314	1490.1519	1496.6249	1505.4163	1533.4401	3015.3886	3019.19	3027.9539	3072.4519	3074.5519	3079.1041	3083.3038	3095.3053	3126.6132	3154.88	3163.4219	3211.8272
CC12CC1CC1(CO1)C2	C[C@]12C[C@H]1C[C@]1(CO1)C2	
InChI=1S/C8H12O/c1-7-2-6(7)3-8(4-7)5-9-8/h6H,2-5H2,1H3	InChI=1S/C8H12O/c1-7-2-6(7)3-8(4-7)5-9-8/h6H,2-5H2,1H3/t6-,7+,8+/m0/s1
