17
gdb 80256	2.2247	2.08761	1.55915	4.2668	71.22	-0.2472	-0.0223	0.2249	925.9724	0.137816	-421.865429	-421.858399	-421.857455	-421.896604	28.326	
C	-0.0814017022	 1.5456308069	-0.0081213608	-0.432702
C	 0.042795876	 0.0267929397	 0.0154575943	 0.011554
C	 1.1008512103	-0.5982775473	-0.9251858644	 0.049882
O	 2.3492494012	-0.0652607359	-0.350938587	-0.248175
C	 2.1767984562	-0.0812236421	 1.00432924	 0.453274
O	 3.0126109129	 0.2679439757	 1.7846466312	-0.353502
C	 0.7524565093	-0.6202154922	 1.2502510327	-0.213079
C	 0.8223466924	-2.0756812855	 0.790372165	-0.089981
C	 1.0192968243	-2.0662885885	-0.5309001311	-0.083768
H	 0.8874131514	 2.042145207	 0.0899856382	 0.147783
H	-0.536466056	 1.8764806883	-0.9473885377	 0.122113
H	-0.722960964	 1.889929813	 0.8092519755	 0.1253
H	-0.9318467094	-0.4420012182	-0.1388964376	 0.090633
H	 1.0919913983	-0.3363592687	-1.9807692559	 0.090498
H	 0.3777070662	-0.419614545	 2.2507764848	 0.092598
H	 0.789868888	-2.924178029	 1.4601470337	 0.121708
H	 1.180112815	-2.9032219382	-1.1957799809	 0.115864
143.6758	200.4864	256.701	281.0352	399.4896	461.3651	501.9847	556.8254	660.6609	700.2329	728.4557	756.4893	818.2991	861.3268	896.0546	909.6245	930.9066	943.9443	960.1536	976.5694	1045.3927	1066.5517	1092.8766	1133.4269	1138.3528	1179.4284	1243.7651	1255.1802	1279.4037	1332.6628	1344.2942	1375.9012	1417.892	1495.7143	1499.8662	1636.4206	1888.2781	3040.4015	3084.1616	3103.5283	3124.5018	3151.7109	3156.825	3219.2187	3244.111
CC1C2OC(=O)C1C=C2	C[C@H]1[C@H]2OC(=O)[C@@H]1C=C2	
InChI=1S/C7H8O2/c1-4-5-2-3-6(4)9-7(5)8/h2-6H,1H3	InChI=1S/C7H8O2/c1-4-5-2-3-6(4)9-7(5)8/h2-6H,1H3/t4-,5-,6+/m1/s1
