14
gdb 19324	5.15266	1.68514	1.50556	2.6145	69.41	-0.2058	0.0219	0.2277	835.0217	0.106506	-341.433028	-341.426428	-341.425484	-341.463445	26.438	
C	 0.0425226646	-1.1962971371	-0.0847568851	-0.401614
C	 0.0467176342	 0.0062527208	-0.0155176294	 0.175351
C	 0.0264236346	 1.4176231246	 0.0911760202	 0.214614
N	 0.1978203904	 2.3310261214	-1.0788027518	-0.34375
C	 1.1430585064	 2.41412251	 0.0439669492	-0.127082
C	 0.4834162146	 3.2101129725	 1.2143034492	-0.055003
N	-0.8809615189	 3.6170406186	 0.7989372151	-0.30466
C	-0.6278670121	 2.2385362868	 1.2634994667	-0.132468
H	 0.043665059	-2.2559537748	-0.1517377047	 0.188666
H	 0.6494718626	 1.7718364503	-1.8037782908	 0.238913
H	 2.2030934165	 2.233100539	-0.0755599452	 0.110926
H	 1.0169651573	 3.705621074	 2.0137620303	 0.101589
H	-1.2874133873	 4.1169817599	 1.5906196875	 0.233206
H	-1.145518022	 1.794442534	 2.1028113589	 0.10131
151.1029	153.1065	367.1773	407.2315	471.5049	502.9975	551.4882	564.8632	649.6495	666.5169	740.3764	799.1352	814.9965	831.0747	867.0375	893.5991	910.9799	954.9164	1002.859	1019.0252	1080.1372	1100.7206	1146.7137	1220.0975	1233.4215	1288.8595	1317.9981	1354.2243	1398.3055	2227.9742	3201.2937	3207.8833	3217.3091	3464.6173	3469.139	3502.2953
C#CC12NC1C1NC21	C#C[C@]12N[C@H]1[C@H]1N[C@@H]21	
InChI=1S/C6H6N2/c1-2-6-4-3(7-4)5(6)8-6/h1,3-5,7-8H	InChI=1S/C6H6N2/c1-2-6-4-3(7-4)5(6)8-6/h1,3-5,7-8H/t3-,4+,5-,6+/m0/s1
