23
gdb 83364	2.02292	1.9313	1.52196	1.5229	83.88	-0.2319	0.0773	0.3091	1051.5647	0.20756	-388.318299	-388.309845	-388.308901	-388.350511	34.387	
C	-0.1385145392	 1.5587876325	-0.0538071179	-0.43727
C	 0.0565223189	 0.0457903466	-0.0005087808	 0.001491
C	 1.0749465185	-0.5781585816	-0.9866585066	-0.052323
C	 2.427376368	-0.0182398761	-0.4828591284	-0.224223
C	 2.2333397384	-0.0062444811	 1.0655084582	-0.241889
C	 0.7915439294	-0.5453611647	 1.2272891421	 0.421248
C	 0.165669506	-0.3964734032	 2.5957853848	-0.476398
O	 0.8370125918	-1.9527799438	 0.8964885598	-0.317051
C	 0.9900499008	-2.0414344361	-0.5313256323	-0.080482
H	 0.7991665105	 2.1121183889	 0.0467527703	 0.119353
H	-0.5945493384	 1.8548197126	-1.0045223381	 0.115972
H	-0.8070020766	 1.8936080724	 0.7464506338	 0.118093
H	-0.9203099784	-0.442970029	-0.0963424642	 0.070405
H	 0.883245734	-0.4319905717	-2.0514481644	 0.058933
H	 3.2646874087	-0.6472022901	-0.7983292865	 0.096514
H	 2.6141303178	 0.9848895263	-0.8753024721	 0.095565
H	 2.9324575834	-0.6645607954	 1.5865954435	 0.103314
H	 2.3433010518	 0.9976493543	 1.4875044713	 0.092263
H	 0.0916068633	 0.6584489327	 2.8770054259	 0.113425
H	-0.8364166127	-0.8350146694	 2.6102529619	 0.119746
H	 0.7695982857	-0.9083829312	 3.3512862332	 0.123611
H	 0.1240246253	-2.5636029255	-0.9613036262	 0.089311
H	 1.8928521728	-2.6169288273	-0.7733314075	 0.09039
166.9506	199.3073	204.8145	228.6393	239.6511	305.1397	343.2314	397.8148	437.1241	533.3203	586.7184	622.2024	738.7658	761.4631	810.6981	853.2189	868.2996	882.7942	938.3384	943.2655	974.0833	984.962	1018.6696	1037.6886	1054.705	1086.191	1121.5798	1136.0859	1158.014	1189.6967	1208.653	1215.3468	1254.3864	1268.7949	1279.8635	1292.5679	1329.0713	1358.6832	1372.5061	1396.0506	1411.6854	1414.8158	1476.7813	1481.9354	1496.4782	1498.307	1501.6271	1511.3729	1531.1711	2998.3355	3033.7108	3036.0821	3037.8424	3040.0125	3050.6616	3059.7976	3088.657	3093.955	3097.8171	3107.1476	3111.1258	3113.6394	3116.0901
CC1C2CCC1(C)OC2	C[C@H]1[C@H]2CC[C@]1(C)OC2	
InChI=1S/C8H14O/c1-6-7-3-4-8(6,2)9-5-7/h6-7H,3-5H2,1-2H3	InChI=1S/C8H14O/c1-6-7-3-4-8(6,2)9-5-7/h6-7H,3-5H2,1-2H3/t6-,7-,8-/m0/s1
