20
gdb 112430	2.05861	1.49031	0.97406	5.1065	75.16	-0.257	0.0521	0.3091	1264.962	0.171628	-440.352125	-440.343038	-440.342094	-440.386052	33.967	
C	 0.1109476162	 1.6409951168	 0.0558687543	-0.398643
C	 0.1114493222	 0.1095905743	 0.0952348487	-0.181865
C	 0.6003279304	-0.5257806807	-1.2161690335	-0.005576
N	 1.9899064908	-0.2215324149	-1.5306768675	-0.36468
C	 2.8352232501	-1.2248633062	-1.1009441696	 0.465703
O	 4.0275917416	-1.1872669727	-0.9773456942	-0.394422
O	 2.075465879	-2.3300435035	-0.8349304953	-0.252422
C	 0.7096186447	-2.0753335533	-1.2208050717	 0.124079
C	-0.2255840681	-2.8572565476	-0.3196548501	-0.413179
H	 1.1203928168	 2.0457291216	-0.0740210539	 0.117404
H	-0.5103649656	 2.0179362552	-0.7642636123	 0.120014
H	-0.2822830793	 2.0542599157	 0.9888449143	 0.1261
H	 0.737913765	-0.2417551228	 0.923889778	 0.115715
H	-0.9065992581	-0.2450314676	 0.2939959068	 0.105493
H	-0.0559051018	-0.2033236814	-2.0336250489	 0.087331
H	 2.3508288591	 0.7184931761	-1.5124380483	 0.257491
H	 0.5970931183	-2.4205518053	-2.257224894	 0.096164
H	-0.1100356643	-2.5672047306	 0.7270061585	 0.134476
H	-1.2659930801	-2.6945515431	-0.6181769618	 0.122848
H	-0.0104123067	-3.92538598	-0.4046136996	 0.13797
82.0641	121.5646	140.6007	198.0127	240.0474	251.1321	289.3995	353.7887	450.6107	496.7449	515.1672	549.1664	677.0994	723.2325	771.1431	784.8997	845.548	896.8523	945.7168	977.2016	1019.4864	1036.1773	1063.9336	1119.1813	1134.2488	1158.5581	1166.1077	1225.1239	1295.1382	1299.1275	1353.3354	1381.7679	1388.0088	1402.8796	1412.7985	1420.7221	1425.3291	1479.5442	1486.6401	1500.8474	1505.4824	1509.1759	1890.811	3010.8732	3029.3637	3032.142	3035.6746	3050.5286	3070.6987	3100.833	3110.5151	3121.05	3137.0242	3652.947
CCC1NC(=O)OC1C	CC[C@H]1NC(=O)O[C@H]1C	
InChI=1S/C6H11NO2/c1-3-5-4(2)9-6(8)7-5/h4-5H,3H2,1-2H3,(H,7,8)	InChI=1S/C6H11NO2/c1-3-5-4(2)9-6(8)7-5/h4-5H,3H2,1-2H3,(H,7,8)/t4-,5+/m0/s1
