20
gdb 94052	3.18335	0.99982	0.94647	4.8181	78.54	-0.2787	0.0404	0.3191	1317.6691	0.172278	-403.182683	-403.173737	-403.172792	-403.216963	33.422	
O	-0.8526226693	 1.2919907721	 0.5840290088	-0.437992
C	-0.1730061039	 0.1326024491	 0.0976906369	 0.131903
C	 0.7214674423	-0.498216523	 1.1730515583	-0.240142
C	-0.2681898818	-1.1933472336	 2.1349817914	-0.209413
C	-1.5417292512	-1.5072684901	 1.2878153897	 0.030158
C	-2.8162612668	-0.861600254	 1.8801784968	-0.356938
C	-3.1265794523	-1.3455551199	 3.2238549887	 0.257605
N	-3.3560636189	-1.7383760294	 4.2865872531	-0.316148
C	-1.2394169174	-0.940966293	-0.1256902374	-0.239238
H	-0.1912707598	 1.9265795023	 0.8779273267	 0.284356
H	 0.377599934	 0.3734305763	-0.8222734301	 0.063696
H	 1.3850467196	-1.2306900147	 0.698559079	 0.10296
H	 1.3623743154	 0.2369577315	 1.6715298915	 0.091398
H	 0.1588661403	-2.0955072581	 2.5782142791	 0.110339
H	-0.5235324574	-0.5305900526	 2.966531157	 0.116569
H	-1.7095864694	-2.5862372423	 1.2344464146	 0.087753
H	-2.684832833	 0.2250036136	 1.9101600151	 0.169535
H	-3.6786036339	-1.0650587298	 1.2348427001	 0.143267
H	-2.121710386	-0.5336964408	-0.6270382896	 0.108003
H	-0.8262448505	-1.7260110038	-0.7666759295	 0.102329
56.2575	81.3871	125.5612	177.8004	310.3115	327.3751	359.6581	395.2592	401.0837	408.0656	527.6257	660.9915	756.7779	784.9346	838.4785	855.3826	875.0819	921.0928	948.144	976.3354	999.3757	1014.8493	1024.5761	1068.6917	1108.0933	1170.3997	1186.9027	1208.1939	1241.1295	1258.4404	1281.458	1320.9346	1323.6573	1324.9918	1358.984	1367.3861	1381.595	1419.549	1472.2958	1476.7612	1488.2714	1502.273	2357.615	3003.5962	3037.7855	3045.0693	3054.2257	3062.5036	3067.0101	3078.621	3096.2142	3103.8048	3111.3117	3817.2956
OC1CCC(CC#N)C1	O[C@H]1CC[C@@H](CC#N)C1	
InChI=1S/C7H11NO/c8-4-3-6-1-2-7(9)5-6/h6-7,9H,1-3,5H2	InChI=1S/C7H11NO/c8-4-3-6-1-2-7(9)5-6/h6-7,9H,1-3,5H2/t6-,7-/m0/s1
