17
gdb 127411	3.04434	1.70614	1.12794	1.7063	75.34	-0.1969	0.0045	0.2014	1047.5032	0.139379	-414.183409	-414.175731	-414.174787	-414.215508	28.692	
C	-0.1148104582	 1.5107171829	-0.0017760417	-0.337121
N	 0.1350408618	 0.084314039	 0.0384776428	-0.164217
C	 0.7526404082	-0.5390842273	-1.1601426613	-0.165444
C	 1.3456070987	-1.9133615643	-0.6937145554	-0.360206
C	 1.5004703403	-1.6418000948	 0.7710951546	 0.274425
N	 2.0463478006	-2.1563772164	 1.8609708709	-0.30756
N	 1.6465777527	-1.3010690631	 2.80914724	-0.116305
N	 0.8905336705	-0.2454038815	 2.4119850613	-0.358679
C	 0.7922132488	-0.4855207307	 1.1146907996	 0.396438
H	 0.8043245021	 2.0998524805	-0.1621058837	 0.108517
H	-0.8160108504	 1.7401411248	-0.8097629689	 0.123505
H	-0.5640509225	 1.8235436556	 0.9434197695	 0.149894
H	 0.0111748175	-0.64721534	-1.9565204184	 0.113645
H	 1.5641507978	 0.1044669953	-1.5378109686	 0.100911
H	 0.6370194511	-2.7293145592	-0.8786210247	 0.128856
H	 2.2713317534	-2.15303811	-1.2218904376	 0.127711
H	 1.9773780377	-1.3748515705	 3.7555441917	 0.28563
132.7108	153.556	202.4384	236.7577	261.947	304.8417	380.0519	511.3772	587.4908	648.9661	674.1907	733.198	766.6814	837.9156	934.0379	975.2638	997.5163	1070.8869	1118.1599	1135.8355	1150.186	1165.3323	1191.873	1213.2966	1238.2257	1276.7813	1301.5525	1371.2729	1445.4182	1454.7703	1460.5764	1485.9523	1490.2187	1501.3075	1513.1986	1572.3268	1638.2437	2960.8284	2968.2669	3037.3637	3074.8991	3083.1437	3100.7407	3127.7363	3693.0786
CN1CCC2=NNN=C12	CN1CCc2n[nH]nc12	
InChI=1S/C5H8N4/c1-9-3-2-4-5(9)7-8-6-4/h2-3H2,1H3,(H,6,7,8)	InChI=1S/C5H8N4/c1-9-3-2-4-5(9)7-8-6-4/h2-3H2,1H3,(H,6,7,8)
