21
gdb 55687	3.16711	1.06925	1.04466	1.7365	78.99	-0.2598	0.0192	0.279	1300.4747	0.180307	-424.266312	-424.256505	-424.255561	-424.301324	36.036	
C	-1.4147620963	 1.4193923479	-1.2773747984	-0.473911
C	-1.6393836544	-0.0751384217	-1.2423259223	 0.415416
O	-2.1856600797	-0.7149789833	-2.1071855101	-0.360773
O	-1.1496845577	-0.5981094922	-0.1004748055	-0.296254
C	-1.2820382106	-2.0231555848	 0.1140486307	 0.447184
C	-0.3124925848	-2.7814097604	-0.7822963077	-0.45044
C	-1.1520953891	-2.3614107754	 1.6184642393	-0.266911
C	-2.3734251499	-3.3115047341	 1.4726318004	-0.228502
C	-2.7263020573	-2.5917477749	 0.1419260378	-0.244899
H	-1.8059477163	 1.8231576994	-2.2104158421	 0.14564
H	-1.913568583	 1.8935946068	-0.427251311	 0.146788
H	-0.3473269533	 1.6411876626	-1.1911913188	 0.147327
H	 0.7099541376	-2.4249207783	-0.620445064	 0.116985
H	-0.3397784474	-3.8501152089	-0.5479466012	 0.117987
H	-0.5769383442	-2.6507261034	-1.8332100712	 0.147927
H	-0.2011290462	-2.7834583362	 1.9528770499	 0.097778
H	-1.3877942073	-1.4844788851	 2.2259148719	 0.109789
H	-2.0761120108	-4.3519610421	 1.3195374368	 0.106612
H	-3.1205872104	-3.280865209	 2.2675108824	 0.102893
H	-3.4561013092	-1.7938068131	 0.2952765573	 0.108116
H	-3.0367140696	-3.1922387138	-0.7139873743	 0.111251
60.7416	95.712	102.5181	152.4152	172.4908	256.0509	293.6487	317.4971	376.3017	410.0534	444.5229	576.7639	613.0968	689.4361	733.0562	791.0264	870.4546	885.0043	924.475	929.1509	938.6355	961.2791	993.4041	1034.7242	1057.0496	1063.8727	1176.6061	1187.8223	1194.4996	1221.7749	1249.8136	1266.7331	1276.0896	1299.1324	1307.1878	1393.3331	1404.4679	1468.5106	1469.3479	1476.3576	1480.5294	1487.596	1503.7975	1507.1315	1812.5387	3041.2164	3056.4859	3062.7526	3069.0625	3078.8344	3107.3762	3110.9382	3121.346	3125.4061	3138.6763	3138.9825	3167.8801
CC(=O)OC1(C)CCC1	CC(=O)OC1(C)CCC1	
InChI=1S/C7H12O2/c1-6(8)9-7(2)4-3-5-7/h3-5H2,1-2H3	InChI=1S/C7H12O2/c1-6(8)9-7(2)4-3-5-7/h3-5H2,1-2H3
