14
gdb 60785	2.22249	1.33044	0.86398	1.6942	68.82	-0.2854	-0.0646	0.2209	1242.8077	0.097351	-436.656592	-436.647322	-436.646378	-436.691258	32.481	
O	 0.0762451556	 1.473851156	 0.0758178685	-0.416429
C	 0.0110967237	 0.0883458099	 0.0185237435	 0.04425
C	 0.6712754936	-0.4216520131	-1.2589234078	 0.120382
O	 1.1578062074	 0.3555184314	-2.0430127601	-0.250959
C	 0.7031960478	-0.526116601	 1.292101707	-0.360383
C	 0.057062036	-0.0591837105	 2.5155622116	 0.33609
C	-0.4828915364	 0.3233398777	 3.5158675507	-0.399466
C	 0.7034713558	-1.9958310024	 1.2246768707	 0.288426
N	 0.6965457423	-3.1466734158	 1.1256765339	-0.317276
H	 0.5601626547	 1.7467399816	-0.7221876695	 0.302254
H	-1.0329458655	-0.2642576757	 0.0201283152	 0.128164
H	 0.6750256483	-1.5133776401	-1.4285561293	 0.141948
H	 1.7467431002	-0.1843154683	 1.2796985158	 0.168357
H	-0.9575421135	 0.6654422302	 4.4027416399	 0.21464
59.3973	100.3465	126.5251	143.2511	187.2701	307.8011	339.0332	355.3739	379.7011	468.8397	509.1593	522.7722	579.0939	655.4073	667.8133	769.591	828.3041	911.4888	968.3006	1044.4751	1060.1686	1161.9704	1230.5217	1268.5486	1308.9686	1346.2065	1396.3819	1439.3042	1812.9523	2253.0924	2362.1603	2979.8255	2992.5802	3030.6531	3502.0328	3662.9163
OC(C=O)C(C#C)C#N	O[C@@H](C=O)[C@@H](C#C)C#N	
InChI=1S/C6H5NO2/c1-2-5(3-7)6(9)4-8/h1,4-6,9H	InChI=1S/C6H5NO2/c1-2-5(3-7)6(9)4-8/h1,4-6,9H/t5-,6-/m0/s1
