15
gdb 48824	2.6984	1.61208	1.16607	3.5643	65.78	-0.2657	-0.0442	0.2215	1020.0536	0.11287	-457.805504	-457.797942	-457.796997	-457.837853	27.77	
O	-0.9193868329	 1.1922452701	-0.3102340688	-0.271441
C	 0.1693994542	 0.909432324	 0.1292041106	 0.074663
C	 1.3578733077	 1.7875760491	-0.0150128703	 0.064596
C	 1.1564528416	 3.3088059574	-0.0085147609	-0.308763
C	 1.6250115832	 2.6489383067	-1.2467088886	-0.101507
C	 3.1301943946	 2.5742095094	-1.4480931295	-0.102801
O	 3.6742277433	 1.928654332	-0.2825914798	-0.23095
C	 2.6987986282	 1.3316609711	 0.4652988624	 0.404277
O	 2.9417342326	 0.560416012	 1.3478498935	-0.341903
H	 0.3586130934	-0.0339375061	 0.6788867109	 0.113479
H	 0.1140105098	 3.6036763663	 0.0315633357	 0.157842
H	 1.8468190598	 3.9006854972	 0.5836491955	 0.143979
H	 0.962907975	 2.5727629863	-2.1001441324	 0.133205
H	 3.3876184218	 1.9754770019	-2.3280054945	 0.131743
H	 3.6026471376	 3.5566702524	-1.5377361437	 0.133581
100.7107	155.3339	174.7663	219.6336	259.5557	378.8494	400.4681	552.434	630.0903	707.5636	737.9287	775.227	824.1691	883.9622	904.4936	958.8934	1018.1684	1044.0596	1055.5197	1078.7098	1091.778	1107.8104	1134.9292	1231.7175	1271.9024	1297.9063	1382.6107	1403.6725	1423.0046	1477.4587	1519.1688	1806.9287	1875.557	2943.8958	3048.9759	3095.9518	3134.8364	3199.9841	3235.3915
O=CC12CC1COC2=O	O=C[C@]12C[C@H]1COC2=O	
InChI=1S/C6H6O3/c7-3-6-1-4(6)2-9-5(6)8/h3-4H,1-2H2	InChI=1S/C6H6O3/c7-3-6-1-4(6)2-9-5(6)8/h3-4H,1-2H2/t4-,6+/m0/s1
