25
gdb 101837	4.71934	0.62855	0.60376	0.9385	90.59	-0.2427	0.087	0.3296	1989.9676	0.226792	-389.476692	-389.465702	-389.464757	-389.5138	39.95	
C	 0.1101293635	 1.4136926408	 0.2817733564	-0.390355
C	 0.3053659303	-0.0956860781	 0.1062658397	-0.169733
C	 0.6360141894	-0.5330403757	-1.3319884359	 0.025229
C	 1.9686521437	 0.0339171531	-1.8390867319	-0.390357
C	 0.6275721111	-2.059366797	-1.4230566626	-0.060441
O	 0.7748103887	-2.4446194345	-2.7810250768	-0.254066
C	 0.8134448017	-3.8230299229	-2.9641999572	 0.152453
C	 1.5315504564	-4.3139168155	-4.1775661844	-0.28886
C	 2.1231857595	-4.5538434008	-2.8011519045	-0.287772
H	 1.025589689	 1.9721863396	 0.0652309833	 0.119572
H	-0.6743399492	 1.7900832932	-0.3844391466	 0.11416
H	-0.1840885345	 1.6519936234	 1.3086988922	 0.111299
H	 1.1023890649	-0.4410195288	 0.7795908667	 0.092523
H	-0.6088711823	-0.6103055423	 0.4299116656	 0.091315
H	-0.1658020761	-0.1735922714	-1.9925639067	 0.078818
H	 2.7912329474	-0.2505821315	-1.1706277239	 0.104278
H	 2.1924400172	-0.3560361293	-2.8344923554	 0.128927
H	 1.9489948049	 1.1255101512	-1.8979317345	 0.111124
H	 1.4449065387	-2.4857435315	-0.8178695176	 0.084995
H	-0.3184725013	-2.459520331	-1.0219922465	 0.080704
H	-0.0966205872	-4.3414455706	-2.6571066834	 0.079974
H	 1.1141695104	-5.1517315481	-4.7245152173	 0.112579
H	 2.0059772175	-3.5583197755	-4.7931714358	 0.124336
H	 2.9850457137	-3.9554140695	-2.5277739003	 0.11854
H	 2.1168465525	-5.5592425875	-2.3945598927	 0.110758
44.3071	54.3382	89.8076	115.8164	147.6972	211.3907	245.1305	263.6113	285.1306	323.5687	413.6355	417.8845	473.6236	520.802	756.4837	777.3397	815.4877	818.0199	851.1783	921.3258	927.3633	969.1892	974.3165	985.3255	1024.8757	1043.3969	1051.1674	1071.2471	1095.8432	1128.594	1162.3533	1176.8372	1193.4018	1193.7648	1207.3016	1243.7463	1264.9381	1295.6635	1312.0413	1373.9437	1379.9134	1383.6182	1405.3232	1415.3326	1436.7273	1453.0118	1484.0624	1493.1361	1497.6425	1501.4672	1507.0976	1513.3551	1519.6153	2957.0395	2986.2629	3005.6542	3012.6945	3029.1027	3034.1893	3043.6473	3083.6168	3098.6831	3098.8041	3110.0405	3128.6668	3134.9968	3141.2749	3219.355	3233.9561
CCC(C)COC1CC1	CC[C@@H](C)COC1CC1	
InChI=1S/C8H16O/c1-3-7(2)6-9-8-4-5-8/h7-8H,3-6H2,1-2H3	InChI=1S/C8H16O/c1-3-7(2)6-9-8-4-5-8/h7-8H,3-6H2,1-2H3/t7-/m1/s1
