18
gdb 107812	3.45727	1.54772	1.328	1.8987	75.51	-0.2245	-0.0006	0.224	1001.4962	0.148095	-401.883002	-401.875577	-401.874633	-401.914722	29.608	
C	 0.0509399721	 1.3638250054	 0.0905815664	-0.266587
O	-0.0079557422	-0.0351670006	-0.1038861073	-0.311715
C	-1.2905226981	-0.5724307497	-0.0912230398	 0.387319
C	-2.1137360102	-0.5919560209	 1.2568482008	-0.197345
N	-2.4348882044	-2.0375280215	 1.087671741	-0.162348
C	-2.7941071594	-2.3088426692	-0.390944731	-0.067871
C	-3.1836052667	-1.1832137009	-1.2740468011	-0.075705
C	-2.2855546357	-0.1951135167	-1.1678724897	-0.18207
C	-1.3898492383	-2.1196018097	 0.0253670356	-0.110212
H	 1.1080680605	 1.6325224023	 0.1433473297	 0.132942
H	-0.4107489714	 1.9177495234	-0.738651003	 0.113281
H	-0.4392697883	 1.6660954346	 1.0273795029	 0.114249
H	-1.4414660113	-0.5133825381	 2.1152143812	 0.118995
H	-2.9677943213	 0.0835238526	 1.3660453271	 0.096434
H	-3.2256781043	-3.2965983078	-0.4927940061	 0.1008
H	-4.0990606301	-1.1663166891	-1.8516092342	 0.105384
H	-2.3572659731	 0.7914294427	-1.6080574279	 0.104522
H	-0.5794639378	-2.8409926468	 0.0185545952	 0.099929
92.1514	185.047	208.509	320.0371	369.7711	400.1842	433.3612	559.746	618.2627	666.391	719.2243	732.9283	783.8576	813.7175	852.9797	904.8472	925.2687	965.6989	987.5804	1018.6999	1025.7123	1067.4643	1073.7246	1107.3823	1139.0798	1181.1936	1182.2209	1189.6559	1228.8117	1250.721	1262.3232	1289.8785	1359.6703	1380.3234	1480.6199	1486.2387	1493.2467	1506.4832	1633.4845	2991.3119	3041.7177	3045.7727	3113.6375	3122.747	3167.6814	3195.7748	3204.3386	3226.5753
COC12CN3C(C=C1)C23	CO[C@@]12CN3[C@@H](C=C1)[C@@H]23	
InChI=1S/C7H9NO/c1-9-7-3-2-5-6(7)8(5)4-7/h2-3,5-6H,4H2,1H3	InChI=1S/C7H9NO/c1-9-7-3-2-5-6(7)8(5)4-7/h2-3,5-6H,4H2,1H3/t5-,6-,7+,8?/m0/s1
