23
gdb 86810	4.27134	0.72625	0.69217	2.3748	86.93	-0.2405	-0.0074	0.2331	1752.4645	0.203392	-388.31377	-388.303354	-388.30241	-388.350608	37.663	
C	 0.0471964203	 1.7095824125	-0.0717060375	-0.407222
C	 0.0632420087	 0.1913186807	 0.0059280254	 0.060254
C	 1.0661573459	-0.6036658877	-0.8788298655	-0.268713
C	 1.2703586641	-1.588991401	 0.3045034398	 0.069623
C	 2.6608783978	-2.1412612379	 0.568909326	-0.339918
C	 2.7404182267	-3.0587984879	 1.7847433862	 0.385939
C	 4.1277523964	-3.5406228982	 2.175305793	-0.472597
O	 1.7543330938	-3.3879911619	 2.4043449273	-0.293088
C	 0.6909646309	-0.500744413	 1.2488975511	-0.234631
H	 1.0504434981	 2.1219646578	 0.0875777945	 0.106635
H	-0.3033207504	 2.0566294507	-1.0505108384	 0.111681
H	-0.6134276862	 2.1406545045	 0.6891585477	 0.113589
H	-0.9487426741	-0.1983735614	-0.1543212517	 0.071382
H	 0.7112210147	-1.0075972439	-1.8310751276	 0.091496
H	 1.9724325672	-0.0154140979	-1.0681517006	 0.087721
H	 0.5631528697	-2.4204030981	 0.2335143769	 0.084625
H	 3.0254363592	-2.7128893521	-0.2984482183	 0.118222
H	 3.3898264063	-1.3281376944	 0.6982653039	 0.109241
H	 4.7468780411	-2.6896931113	 2.4824310814	 0.138725
H	 4.0560989684	-4.2523299509	 2.9986179437	 0.141292
H	 4.6321734955	-4.0068148015	 1.3218367915	 0.134319
H	 1.488766948	 0.1176112551	 1.6790051136	 0.084012
H	 0.0313371777	-0.8274753222	 2.0547236377	 0.107413
30.2855	58.8509	89.296	106.5951	152.0782	226.4467	278.8252	310.8751	356.7458	386.4481	434.5863	478.0918	551.4671	635.9859	778.0194	803.197	819.4056	831.7111	894.5614	915.655	943.7297	956.9962	970.3152	993.6629	1063.8361	1089.6989	1136.9663	1143.0926	1161.8069	1180.1562	1220.3672	1230.685	1254.3344	1264.5335	1275.8845	1298.3903	1342.4113	1370.4968	1380.2836	1402.2399	1412.9049	1444.5217	1464.4595	1476.4317	1477.8699	1494.5063	1496.6299	1505.1541	1808.4175	2999.4818	3019.6141	3027.772	3028.4753	3030.1783	3035.9916	3038.8239	3068.2542	3086.3102	3088.1432	3094.1176	3096.289	3114.3164	3150.937
CC1CC(CC(C)=O)C1	C[C@H]1C[C@@H](CC(=O)C)C1	
InChI=1S/C8H14O/c1-6-3-8(4-6)5-7(2)9/h6,8H,3-5H2,1-2H3	InChI=1S/C8H14O/c1-6-3-8(4-6)5-7(2)9/h6,8H,3-5H2,1-2H3/t6-,8+
