22
gdb 101916	1.84603	1.34779	0.93322	3.014	82.83	-0.2351	-0.0142	0.2209	1370.9722	0.192236	-404.344877	-404.334364	-404.33342	-404.381325	37.556	
C	-0.0968330747	 1.6599223311	-0.1323568646	-0.407538
C	 0.0028352015	 0.1334301007	-0.0680742615	-0.171529
C	-1.3553876613	-0.5904254577	 0.0384012406	-0.126274
C	-2.2484395479	-0.3444320033	-1.1718607506	 0.041947
C	-3.7271995773	-0.450230799	-1.0730318539	-0.254036
N	-3.0843490921	 0.8597724877	-1.2804781726	-0.324997
C	-1.1324740166	-2.1071328721	 0.136986434	 0.404579
C	-1.8680567797	-2.844574013	 1.2381175734	-0.489673
O	-0.4113148781	-2.6770590746	-0.6499329024	-0.317055
H	 0.9011114062	 2.1070307367	-0.1749825145	 0.117468
H	-0.6507966828	 1.9935710846	-1.0141723701	 0.143233
H	-0.5991321254	 2.0658766051	 0.7539572861	 0.105326
H	 0.5209750965	-0.2544048096	-0.9509804805	 0.125431
H	 0.6182850034	-0.1557244888	 0.7931675444	 0.094331
H	-1.8894386303	-0.245956219	 0.9351434708	 0.061998
H	-1.7829542137	-0.6335282365	-2.1117273738	 0.112023
H	-4.3085116105	-0.8163201512	-1.9141283377	 0.124505
H	-4.1621720807	-0.6627731095	-0.0988460093	 0.107621
H	-3.0668295741	 1.373941832	-0.4028335858	 0.229971
H	-1.5397616041	-2.4758020484	 2.2173628736	 0.140206
H	-2.944199141	-2.6491850745	 1.1721962565	 0.139957
H	-1.6790073073	-3.9163508105	 1.1666825181	 0.142508
32.4546	93.5351	100.1483	150.3156	163.8761	174.8335	210.261	281.943	334.6021	349.2463	361.7599	478.7227	584.7273	598.9561	754.5178	816.0752	855.4512	866.733	897.668	943.6703	961.4957	968.5171	1000.0321	1036.9401	1053.8973	1100.8533	1128.8946	1138.7309	1167.0769	1169.8646	1214.422	1252.0433	1280.2653	1290.1827	1327.0045	1340.229	1374.6627	1380.764	1411.5918	1416.7499	1461.1443	1474.4695	1489.8	1500.6231	1508.2187	1512.3681	1807.653	3006.9732	3029.0441	3029.8992	3033.1648	3078.6972	3093.6115	3098.43	3103.1725	3118.1825	3135.5904	3151.5074	3190.0183	3495.7699
CCC(C1CN1)C(C)=O	CC[C@@H]([C@H]1CN1)C(=O)C	
InChI=1S/C7H13NO/c1-3-6(5(2)9)7-4-8-7/h6-8H,3-4H2,1-2H3	InChI=1S/C7H13NO/c1-3-6(5(2)9)7-4-8-7/h6-8H,3-4H2,1-2H3/t6-,7-/m1/s1
