15
gdb 45927	3.22479	1.39851	0.98065	8.4459	79.98	-0.1742	-0.0304	0.1438	1126.3078	0.115171	-450.144451	-450.136465	-450.13552	-450.176945	30.381	
N	-0.0443543032	 1.339985414	-0.1205031938	-0.541128
C	 0.073732562	 0.0928387444	 0.089559864	 0.260009
N	-1.0530001703	-0.6265744401	 0.5302406364	-0.357085
C	-1.0823149368	-1.9550169154	 0.7955601701	 0.373331
N	-2.2237511938	-2.6392097858	 1.2334100753	-0.59491
H	-2.986508158	-2.6059778165	 0.563109504	 0.262926
H	-2.5682468028	-2.3023829379	 2.1278772837	 0.262921
N	 0.0401168149	-2.6236851778	 0.6249711151	-0.219807
C	 1.2413033538	-2.0831381655	 0.198918018	-0.229828
H	 2.0695557971	-2.7683555794	 0.1102380459	 0.121796
C	 1.3464851201	-0.7116404323	-0.094997786	 0.298246
O	 2.3530966621	-0.1079419856	-0.4810927541	-0.426489
H	 0.8770604892	 1.6648549936	-0.4299026245	 0.241996
H	-1.8966772227	-0.0825820838	 0.650479747	 0.263194
H	-0.0173891414	-3.6110444417	 0.8317543088	 0.284829
101.6848	138.1018	165.5483	318.618	332.3704	352.7802	423.698	463.1688	515.7376	551.318	603.6451	638.0137	692.2982	707.2458	759.4206	770.7469	787.2858	816.6638	925.4331	1003.8297	1097.4855	1175.0679	1205.9664	1244.4102	1288.0119	1385.2883	1411.944	1438.2532	1549.6997	1633.7795	1693.984	1699.9736	1721.216	3253.4096	3437.0054	3486.0744	3548.9298	3597.8294	3618.4749
N=C1NC(=[NH2+])N[CH-]C1=O	[NH][C]1N[C](N)N[CH]C1=O	
InChI=1S/C4H5N4O/c5-3-2(9)1-7-4(6)8-3/h1H,(H4,5,6,7,8)/q-1/p+1	InChI=1S/C4H6N4O/c5-3-2(9)1-7-4(6)8-3/h1H,(H5,5,6,7,8)
