25
gdb 77464	1.8832	1.43252	1.33196	0.2296	93.75	-0.2307	0.0812	0.3119	1247.6056	0.227232	-352.346647	-352.336121	-352.335177	-352.381003	40.294	
C	 0.1542377988	 1.6583235763	-0.3604193001	-0.426085
C	 0.2695549136	 0.1540781915	-0.1965889239	-0.094048
C	 1.5005778265	-0.6827252535	-0.4358457946	 0.295212
C	 1.5629822188	-1.7897357404	-1.4515459432	-0.496905
C	 2.7429012913	 0.0312793463	 0.1240051842	-0.323409
C	 2.1176379046	-0.0229710557	 1.5573970868	 0.000633
C	 2.0584620619	 1.2166480842	 2.4467194138	-0.420754
C	 0.8381553251	-0.6397963313	 0.9621341938	 0.272938
C	 0.023383887	-1.6809898675	 1.6816291147	-0.496347
H	 1.0890107759	 2.1837760052	-0.1565339944	 0.120907
H	-0.1355208308	 1.9033618794	-1.3888548992	 0.110142
H	-0.6118104905	 2.0743492112	 0.3038729573	 0.113747
H	-0.6162366985	-0.3544974155	-0.579902041	 0.07324
H	 1.8124118605	-1.4044278129	-2.4485277213	 0.116661
H	 2.324721044	-2.5340722446	-1.1897994778	 0.110796
H	 0.6028362435	-2.3103090481	-1.5351467715	 0.113374
H	 3.6547859632	-0.5658046026	 0.0388638735	 0.093895
H	 2.9539985848	 1.0258584228	-0.2839809881	 0.090144
H	 2.6329418918	-0.8133844636	 2.1170337882	 0.067528
H	 1.56154482	 2.0597586978	 1.961498997	 0.117072
H	 1.5139577215	 1.0025995622	 3.3736424826	 0.111327
H	 3.0672624575	 1.5404338823	 2.7278735192	 0.109672
H	-0.581589603	-1.2359116668	 2.4819393971	 0.116804
H	-0.6666643185	-2.1919964822	 1.001525998	 0.113345
H	 0.6641106511	-2.4433473345	 2.141406709	 0.110113
138.4672	168.0604	174.1938	182.4271	193.6144	202.9508	213.0658	246.2805	276.6023	320.937	341.6336	415.2391	516.9611	561.0872	584.0724	675.6834	695.8569	742.3799	828.1207	883.3563	924.2746	930.7902	979.4395	1029.0132	1035.2593	1073.8462	1076.0544	1098.5323	1118.4302	1127.6052	1136.6038	1174.7153	1214.2654	1231.7655	1252.3921	1268.6444	1329.9985	1341.5689	1380.4046	1406.9497	1409.9998	1412.193	1418.6132	1471.3368	1483.9214	1488.2948	1490.1718	1496.374	1498.1635	1499.0179	1505.7529	1509.2603	1516.2329	3011.6672	3013.6543	3017.8687	3028.5413	3030.5611	3040.5741	3066.7261	3067.86	3080.4946	3084.6563	3086.4016	3087.0254	3091.0231	3094.59	3119.6967	3130.9462
CC1C2(C)CC(C)C12C	C[C@H]1[C@@]2(C)C[C@@H](C)[C@@]12C	
InChI=1S/C9H16/c1-6-5-8(3)7(2)9(6,8)4/h6-7H,5H2,1-4H3	InChI=1S/C9H16/c1-6-5-8(3)7(2)9(6,8)4/h6-7H,5H2,1-4H3/t6-,7+,8-,9+/m1/s1
