23
gdb 115906	3.02667	1.22699	1.09005	1.2405	84.28	-0.2611	0.0753	0.3364	1223.8907	0.208958	-388.285073	-388.276714	-388.27577	-388.317839	33.539	
O	-0.1513252657	 1.5353347456	 0.2717294702	-0.422967
C	 0.0311185075	 0.1263609343	 0.1912402884	-0.09267
C	-1.3331848175	-0.5056589954	-0.08451031	 0.046101
C	-1.9074665788	-0.1126677193	-1.4748188969	-0.221038
C	-1.7202931677	-1.2040434019	-2.5599842014	-0.20523
C	-1.6753552237	-2.6095280476	-1.9381121321	 0.009054
C	-2.5346057258	-2.6711687269	-0.6394548251	-0.240173
C	-1.306810066	-2.0368221174	 0.0789274989	-0.028439
C	-0.4327181761	-2.7156864335	-1.0161608983	-0.219332
H	 0.7148128998	 1.9473322874	 0.33607387	 0.284601
H	 0.7446971025	-0.1276398266	-0.60733067	 0.083563
H	 0.4392152104	-0.2721449905	 1.1348826511	 0.079975
H	-2.0039304351	-0.096061844	 0.6820335995	 0.076558
H	-2.9796823705	 0.0712426985	-1.358546926	 0.099277
H	-1.4782526158	 0.8413572627	-1.7920536577	 0.106718
H	-2.5391020504	-1.1316112434	-3.2851912943	 0.08975
H	-0.7947915245	-1.0426212162	-3.1272018468	 0.091118
H	-1.8208926319	-3.388973508	-2.6905594428	 0.053643
H	-3.4892267187	-2.1379725996	-0.611902643	 0.08917
H	-2.6941419006	-3.703549397	-0.3166165374	 0.092228
H	-1.1195814001	-2.3175493501	 1.1194809388	 0.054211
H	-0.207393033	-3.7530135437	-0.7523386378	 0.089805
H	 0.4889629514	-2.2253409072	-1.3430252071	 0.084078
105.072	120.6154	184.8852	257.7289	289.0786	347.7472	397.2125	412.6643	450.6274	518.5413	617.1843	757.1524	798.6428	818.9615	828.7209	889.7996	896.4713	923.75	947.6371	961.8791	981.9128	998.9836	1057.0848	1068.478	1085.5345	1100.5366	1111.0471	1119.9371	1138.7954	1165.74	1203.6134	1233.6686	1255.0082	1259.3512	1266.0995	1277.9947	1295.4998	1327.6185	1331.5747	1344.5016	1357.2173	1377.1907	1394.2493	1456.0999	1482.3547	1496.9185	1503.6255	1518.9507	1525.2524	2961.665	2994.9983	3018.9465	3019.5328	3044.6022	3046.0739	3050.2605	3060.825	3062.2105	3072.2223	3095.3524	3098.2928	3104.8698	3832.899
OCC1CCC2CC1C2	OC[C@H]1CC[C@@H]2C[C@H]1C2	
InChI=1S/C8H14O/c9-5-7-2-1-6-3-8(7)4-6/h6-9H,1-5H2	InChI=1S/C8H14O/c9-5-7-2-1-6-3-8(7)4-6/h6-9H,1-5H2/t6-,7-,8+/m1/s1
