21
gdb 53556	3.67767	0.75344	0.68957	0.2603	93.81	-0.2291	0.029	0.2581	1736.1945	0.182182	-349.95336	-349.943444	-349.9425	-349.990471	35.053	
C	-0.0324520871	 1.4688229868	 0.4197786849	-0.495865
C	-0.0188366138	 0.0344600961	 0.1680834732	 0.03966
C	 0.0008846339	-1.1504567486	-0.044919339	 0.088522
C	 0.0030773444	-2.5921654899	-0.3005547187	-0.465248
C	-1.3616118251	-3.223522292	-0.1740824724	 0.363645
C	-1.9983514176	-3.9295835534	-1.1088096438	-0.174805
C	-3.3179307645	-4.4779492915	-0.6222543297	-0.242869
C	-3.547698056	-3.7044967723	 0.7035113553	-0.203074
C	-2.1529604218	-3.1717888382	 1.1161942989	-0.294488
H	 0.6720062623	 1.9943296854	-0.234693763	 0.146143
H	-1.0262276736	 1.8954494372	 0.2435228118	 0.145966
H	 0.2461048904	 1.6969172217	 1.4547167139	 0.144854
H	 0.4070846015	-2.7918611471	-1.3005532354	 0.127688
H	 0.6934242552	-3.0755168628	 0.408019286	 0.128583
H	-1.6092288108	-4.1305926362	-2.1019692943	 0.081753
H	-4.133673253	-4.3302184882	-1.3393636236	 0.099923
H	-3.2505659557	-5.5632300194	-0.4573515044	 0.101654
H	-4.2171033165	-2.8589334347	 0.5168109385	 0.105306
H	-4.0139177871	-4.318960587	 1.4777990731	 0.094066
H	-1.6775514815	-3.8080133467	 1.8778267401	 0.097456
H	-2.1917227436	-2.1631534392	 1.5408592583	 0.111133
18.8751	48.7051	66.5189	134.5518	196.7656	216.7422	276.4953	317.4284	382.2508	422.5009	480.5724	609.235	695.8277	756.448	813.9562	851.0411	868.1887	898.9673	918.5196	939.1405	980.2745	1036.7967	1053.5115	1054.219	1068.3688	1146.0429	1150.7469	1171.4473	1206.2852	1229.0763	1243.719	1289.8496	1318.7517	1325.6385	1334.0631	1370.0507	1415.5425	1460.0893	1479.2549	1479.9747	1483.9663	1489.0868	1507.3696	1721.0011	2372.4021	2986.6275	2995.9129	3000.444	3024.6533	3043.3611	3044.9462	3055.5929	3067.5785	3084.1441	3084.5919	3100.3692	3179.9933
CC#CCC1=CCCC1	CC#CCC1=CCCC1	
InChI=1S/C9H12/c1-2-3-6-9-7-4-5-8-9/h7H,4-6,8H2,1H3	InChI=1S/C9H12/c1-2-3-6-9-7-4-5-8-9/h7H,4-6,8H2,1H3
