20
gdb 54914	3.4657	1.11568	0.98613	6.8572	75.55	-0.2363	0.0326	0.2689	1252.0634	0.171345	-440.319576	-440.31074	-440.309796	-440.352782	34.309	
C	-0.6247613291	 1.4480225355	-0.1437792011	-0.462271
C	 0.1771243367	 0.1639325783	 0.0170608112	 0.290919
N	-0.6361962933	-1.0568655133	-0.1594333425	-0.543318
H	-1.0622630544	-1.0670633023	-1.0834558323	 0.240219
H	 0.603161393	-2.3021274505	 0.0932552863	 0.321672
H	-1.3966151453	-1.075630938	 0.5164839363	 0.240216
C	 1.4811752304	 0.0107361186	-0.8212966903	-0.261959
C	 2.2291125163	-0.5262975438	 0.4423548566	-0.121554
C	 1.0365077993	-0.0005000117	 1.3059754909	-0.261992
C	 2.4814798468	-2.0315960932	 0.4872104337	 0.387012
O	 3.5750625944	-2.4856162032	 0.7128403521	-0.34167
O	 1.4286292472	-2.8299083202	 0.2627363625	-0.390801
H	 0.0074872023	 2.3308007273	-0.0069283385	 0.123288
H	-1.0729589474	 1.5086105819	-1.1428294368	 0.116015
H	-1.4357727452	 1.4994252554	 0.5926114279	 0.116015
H	 1.4232213148	-0.6516349081	-1.6886930448	 0.112862
H	 1.8798334884	 0.9758822803	-1.1414695283	 0.110383
H	 3.1882213633	-0.0534591222	 0.6453194579	 0.101739
H	 1.2715133587	 0.9605087295	 1.7687722589	 0.11038
H	 0.6373691031	-0.6714888703	 2.0707839102	 0.112844
86.7855	162.6813	165.5511	242.1853	257.1594	318.1998	359.599	361.5335	419.1836	445.9099	456.2793	605.4359	658.7928	743.4454	801.4067	822.8791	848.0542	901.444	921.497	953.7479	959.9882	970.7592	997.4029	1014.1457	1064.6296	1101.2578	1115.7157	1214.6497	1218.1442	1262.6866	1265.5281	1298.979	1311.078	1316.9871	1339.2458	1413.6664	1463.1914	1479.3797	1486.1289	1489.7814	1495.0868	1643.928	1843.82	3019.9867	3061.4204	3065.8285	3085.032	3100.5861	3116.7287	3119.6906	3132.3171	3194.1143	3469.0995	3549.1089
CC1([NH3+])CC(C1)C([O-])=O	C[C@@]1(N)C[C@@H](C1)C(=O)O	
InChI=1S/C6H11NO2/c1-6(7)2-4(3-6)5(8)9/h4H,2-3,7H2,1H3,(H,8,9)	InChI=1S/C6H11NO2/c1-6(7)2-4(3-6)5(8)9/h4H,2-3,7H2,1H3,(H,8,9)/t4-,6+
