22
gdb 61825	2.01361	1.33502	0.92647	3.5325	83.57	-0.2481	0.0337	0.2818	1348.9492	0.192918	-404.370729	-404.360315	-404.359371	-404.406984	37.614	
C	-0.0921053536	 1.6368155499	 0.3136002021	-0.391105
C	 0.0584031183	 0.1470503939	-0.0214801383	 0.01101
N	 0.6893635784	-0.0184182307	-1.3326893772	-0.273015
C	 0.085412893	-0.625261935	-2.3857499033	 0.159286
O	-1.0317781881	-1.1027255494	-2.3806984113	-0.333498
C	 0.8208477117	-0.5875967893	 1.0670361321	 0.004856
C	 0.0749147176	-1.1496001677	 2.2559497072	-0.298464
C	 0.7424349055	-2.0841080985	 1.2760291333	-0.001706
C	-0.0592107101	-3.0162742298	 0.3917129276	-0.413387
H	 0.8877815266	 2.1243498123	 0.3836016	 0.106943
H	-0.6751780314	 2.1515216819	-0.4548924413	 0.124831
H	-0.594160769	 1.7618492928	 1.2771904991	 0.126821
H	-0.9345699037	-0.2916387596	-0.1373602724	 0.121664
H	 1.6269461963	 0.330082766	-1.4618517065	 0.240898
H	 0.7385015194	-0.6381537006	-3.281392259	 0.072663
H	 1.7880239288	-0.1374301389	 1.2876764315	 0.070232
H	 0.4949870353	-1.0291968026	 3.2485538033	 0.107735
H	-1.0097401768	-1.0933444728	 2.2253198158	 0.112147
H	 1.670135761	-2.5239783998	 1.6351810513	 0.07975
H	-0.9382080569	-2.5342663198	-0.0423483665	 0.143923
H	 0.5466646347	-3.384377592	-0.4430911916	 0.116853
H	-0.3984624771	-3.8872331204	 0.9635521641	 0.111562
34.4616	59.1335	135.5156	169.8519	189.1883	200.2992	234.2092	238.5977	346.2511	384.7669	404.941	457.7718	527.7804	568.598	736.3889	777.1311	831.3038	860.3225	887.2162	913.5589	956.3093	1025.0398	1027.9727	1032.8433	1069.2464	1090.2783	1115.0117	1135.1783	1150.8603	1194.2502	1200.1864	1213.058	1251.1323	1312.9994	1346.8312	1395.8934	1404.7161	1424.7224	1429.8459	1433.7454	1486.7078	1489.245	1491.3988	1493.8755	1507.7555	1529.2557	1794.8498	2929.8329	3029.6922	3034.3	3089.8179	3091.1937	3101.2732	3116.2145	3118.5915	3121.7791	3123.1623	3136.6951	3206.9659	3621.3947
CC(NC=O)C1CC1C	C[C@@H](NC=O)[C@H]1C[C@H]1C	
InChI=1S/C7H13NO/c1-5-3-7(5)6(2)8-4-9/h4-7H,3H2,1-2H3,(H,8,9)	InChI=1S/C7H13NO/c1-5-3-7(5)6(2)8-4-9/h4-7H,3H2,1-2H3,(H,8,9)/t5-,6-,7+/m1/s1
