20
gdb 120465	3.60716	0.83918	0.7368	3.8165	77.78	-0.245	0.0331	0.2781	1570.1307	0.170162	-440.304084	-440.293992	-440.293048	-440.339919	35.124	
C	 0.0606464567	 1.4434026695	-0.1084823567	-0.344672
N	 0.0044565973	 0.0063830708	-0.0661907419	-0.068131
C	-1.11109549	-0.9411838379	-0.101179878	-0.203639
C	-0.0546067734	-2.0884496839	-0.0431554654	-0.14956
C	 0.0200900123	-3.0612915855	-1.2163091565	-0.221205
C	 1.2291066215	-3.9990193078	-1.1137677568	-0.070318
O	 1.288969246	-4.922827337	-2.1897545558	-0.419732
C	 0.9916517361	-0.9452235458	-0.040334942	 0.410913
O	 2.1952816488	-0.8632439793	-0.043914592	-0.384934
H	 1.1139057612	 1.7335845462	-0.0858583578	 0.162157
H	-0.3952924973	 1.8390265841	-1.0247436533	 0.127522
H	-0.4487202532	 1.8925230238	 0.7529504328	 0.12888
H	-1.7871707691	-0.8705667156	 0.7583438006	 0.109193
H	-1.6959435797	-0.9030468417	-1.0281380296	 0.108472
H	-0.0701030064	-2.6269628709	 0.9099383252	 0.101302
H	-0.893913667	-3.6646669512	-1.269479394	 0.108269
H	 0.0814136162	-2.4947577749	-2.1564178229	 0.09025
H	 2.1512310421	-3.4083828999	-1.0273567665	 0.124852
H	 1.1472434692	-4.606672321	-0.2051959819	 0.108558
H	 1.5309422087	-4.433880252	-2.9823406775	 0.281823
63.2927	91.8738	101.8207	129.1326	155.1659	193.1659	246.6622	269.2824	296.9378	339.0636	435.2976	514.9877	666.0706	730.4095	781.413	818.0355	882.32	963.8867	977.5548	1025.924	1070.3866	1077.3221	1090.7532	1120.0226	1131.5115	1156.5674	1181.9272	1218.3148	1251.295	1293.1494	1300.4043	1316.2275	1368.1947	1403.0112	1419.5895	1425.2826	1449.4847	1482.6617	1488.3872	1512.0204	1516.4572	1534.0272	1863.3907	3007.4376	3012.7602	3018.6946	3023.9977	3051.9187	3060.3663	3063.6861	3071.7482	3080.2879	3128.4875	3820.4094
CN1CC(CCO)C1=O	CN1C[C@@H](CCO)C1=O	
InChI=1S/C6H11NO2/c1-7-4-5(2-3-8)6(7)9/h5,8H,2-4H2,1H3	InChI=1S/C6H11NO2/c1-7-4-5(2-3-8)6(7)9/h5,8H,2-4H2,1H3/t5-/m1/s1
