17
gdb 34891	2.31446	1.76487	1.23296	3.9741	76.47	-0.2509	0.0051	0.2559	1036.5779	0.136567	-380.816697	-380.808996	-380.808052	-380.848927	29.713	
N	-0.1218033172	-1.1689109305	-0.1549245013	-0.335978
C	-0.081696686	-0.0171817753	-0.0602306766	 0.308232
C	 0.0099522465	 1.4347043447	 0.0517892669	-0.212146
N	-0.2918775363	 2.0145537935	 1.4199121408	-0.132714
C	 0.7459478265	 1.4984185308	 2.3392595318	-0.247943
C	 1.118868863	 2.599394051	 1.4311477724	-0.110406
C	 1.4154131852	 2.0714421851	 0.0500304347	 0.368635
C	 2.7015873694	 1.5520982667	-0.516181257	-0.329203
C	 2.053960519	 2.7902574403	-1.0956981427	-0.33741
H	-0.6635573522	 1.8952763355	-0.6755885132	 0.135665
H	 0.5268918905	 1.7470222093	 3.3726703954	 0.133471
H	 1.1473546002	 0.5003256806	 2.1827274729	 0.139514
H	 1.3016637756	 3.614644887	 1.7677912946	 0.1092
H	 3.6014758173	 1.6702746202	 0.0782302486	 0.124169
H	 2.6615262137	 0.6347929482	-1.0943923307	 0.137165
H	 1.5856350271	 2.7165698329	-2.0721456949	 0.125298
H	 2.5144148977	 3.7521658199	-0.8940667815	 0.124451
104.4966	129.9044	188.2699	256.7062	300.5224	392.8276	478.894	489.7771	552.5977	627.8204	742.6379	765.0774	792.4399	808.2724	893.3814	927.1373	948.4162	983.9405	990.2117	1023.257	1051.9449	1059.8999	1069.9259	1084.4085	1116.4173	1139.6143	1187.2181	1215.3944	1227.7434	1255.8698	1312.7893	1331.6656	1416.0522	1463.8343	1498.6641	1507.0187	2350.7176	3078.8794	3116.4101	3126.0094	3132.4491	3167.8281	3206.3767	3209.7711	3222.4062
N#CC1N2CC2C11CC1	N#C[C@H]1N2C[C@H]2C21CC2	
InChI=1S/C7H8N2/c8-3-5-7(1-2-7)6-4-9(5)6/h5-6H,1-2,4H2	InChI=1S/C7H8N2/c8-3-5-7(1-2-7)6-4-9(5)6/h5-6H,1-2,4H2/t5-,6+,9?/m1/s1
