22
gdb 117933	3.02463	0.89653	0.78865	2.4607	80.48	-0.2287	0.0391	0.2678	1558.382	0.192174	-441.513033	-441.501764	-441.50082	-441.550534	39.052	
C	 0.0229846696	 1.5581627651	 0.1685143021	-0.369355
C	-0.0026037786	 0.0340885444	 0.0591655033	-0.309477
C	-1.4312450742	-0.5008250855	-0.0645885229	 0.421699
O	-2.3848901838	 0.2620092716	-0.1475054595	-0.395351
N	-1.6090899176	-1.8592252341	-0.0753800725	-0.080298
C	-0.5485805636	-2.8535686666	-0.0228597426	-0.350895
C	-2.9790184167	-2.3606377416	-0.1326521985	-0.165005
C	-3.5020924075	-2.5427646509	-1.5525602752	-0.071119
O	-2.7565246282	-3.5794946533	-2.1817355587	-0.418433
H	 1.0538448752	 1.9182239378	 0.2363958052	 0.100699
H	-0.454207668	 2.0178236568	-0.6994954657	 0.132679
H	-0.5231185344	 1.8954167952	 1.052680713	 0.129272
H	 0.578030737	-0.2910563837	-0.8137100846	 0.121362
H	 0.4853720107	-0.4211238104	 0.929424604	 0.11738
H	 0.4260878898	-2.3920449509	-0.1698140608	 0.132687
H	-0.5380186964	-3.3748425637	 0.9448751893	 0.118282
H	-0.7042586483	-3.5918941877	-0.8130486215	 0.155846
H	-3.0156763839	-3.321483664	 0.3925592857	 0.104253
H	-3.6240584322	-1.6474697428	 0.3842991194	 0.135206
H	-4.5730914579	-2.7973996294	-1.504507742	 0.086641
H	-3.4037636444	-1.5903788195	-2.0898527801	 0.114324
H	-2.9751109967	-3.5838357969	-3.1177340276	 0.289602
35.6318	71.4042	90.5968	113.6525	136.5364	180.6054	212.7995	229.6128	255.7707	292.3896	348.092	412.7559	445.9623	535.5421	586.1429	598.1463	749.0268	825.2324	862.7201	912.4794	986.1926	1016.0559	1081.3291	1088.3493	1095.6354	1096.772	1151.0546	1156.2627	1198.6972	1260.1612	1280.9401	1290.472	1321.5819	1363.9599	1403.0694	1413.0937	1432.4887	1447.676	1456.1426	1469.3767	1486.1814	1490.3189	1496.7006	1500.5606	1517.4504	1531.7956	1737.5021	2975.5745	3006.1787	3024.4269	3034.3206	3051.6781	3053.9239	3059.1486	3101.9898	3122.0376	3122.3814	3135.6302	3166.1312	3836.4788
CCC(=O)N(C)CCO	CCC(=O)N(C)CCO	
InChI=1S/C6H13NO2/c1-3-6(9)7(2)4-5-8/h8H,3-5H2,1-2H3	InChI=1S/C6H13NO2/c1-3-6(9)7(2)4-5-8/h8H,3-5H2,1-2H3
