16
gdb 30958	2.42358	1.42113	0.94582	4.8813	68.64	-0.2324	0.0168	0.2492	1219.9112	0.123403	-475.073467	-475.064677	-475.063732	-475.107424	31.284	
C	 0.0900832928	 1.2340748074	 0.6006155172	-0.334078
N	-0.0399756325	 0.1312709106	-0.3633478987	-0.389461
C	-1.138547442	-0.6884625011	-0.2054031865	 0.193896
C	-1.2494747205	-1.9877660323	 0.0736298209	 0.30443
C	-0.2553297373	-3.0582416035	 0.3067008751	-0.492611
O	-2.595755058	-2.3155477356	 0.1340305599	-0.248865
C	-3.3190659038	-1.176009008	-0.1103670043	 0.491856
O	-4.5064621471	-1.1065031183	-0.1306980277	-0.376851
O	-2.4454964558	-0.1579318706	-0.3232228832	-0.241847
H	 1.0230493357	 1.766457766	 0.3993729319	 0.129075
H	-0.7421550913	 1.9493139112	 0.5641874476	 0.132679
H	 0.1441788376	 0.8167516875	 1.6096383234	 0.137687
H	 0.0473714903	 0.4696110763	-1.315988179	 0.244158
H	 0.7483297805	-2.6380279424	 0.2221184091	 0.153702
H	-0.3755392429	-3.4980019857	 1.3027294301	 0.148101
H	-0.3660520955	-3.8653741216	-0.425626266	 0.148128
65.4484	128.9209	164.6506	183.8477	200.1796	252.6069	267.9827	358.2345	448.6393	590.3737	617.9316	622.626	653.5858	752.3392	782.7052	825.5467	928.4403	954.978	1030.3702	1045.7236	1072.0009	1147.0215	1169.7174	1193.7087	1282.0366	1330.8549	1421.3127	1454.1769	1472.0983	1473.8186	1487.8125	1492.0896	1519.958	1812.1131	1935.7768	3015.9184	3037.9079	3091.3979	3092.4613	3126.9821	3144.7076	3518.5597
CNC1=C(C)OC(=O)O1	CNc1c(C)oc(=O)o1	
InChI=1S/C5H7NO3/c1-3-4(6-2)9-5(7)8-3/h6H,1-2H3	InChI=1S/C5H7NO3/c1-3-4(6-2)9-5(7)8-3/h6H,1-2H3
