14
gdb 20835	5.049	1.59066	1.33683	3.1366	64.55	-0.252	-0.0899	0.1621	910.0655	0.107629	-374.886784	-374.879608	-374.878664	-374.919741	24.914	
C	-0.0024977364	 1.5365341186	 0.0109365456	-0.385259
C	 0.0124900733	-0.004219987	-0.0098138391	-0.257535
C	 0.6838621568	-0.5210253888	-1.2459890208	 0.401495
N	-0.0348728418	-0.6603554215	-2.3626109266	-0.252459
C	 0.6725427757	-1.1016685226	-3.3936718059	 0.111302
N	 1.9771868017	-1.3906236161	-3.3816938397	-0.171618
N	 2.6283974202	-1.2195924838	-2.2427261341	-0.05127
N	 2.0012307615	-0.7887829158	-1.167122829	-0.209886
H	 1.0159776771	 1.935168635	 0.000092497	 0.139328
H	-0.5378747251	 1.9317258964	-0.8572602731	 0.13612
H	-0.5016704676	 1.8958174888	 0.9145142306	 0.129207
H	 0.5513508484	-0.3842667347	 0.8616083499	 0.133792
H	-1.0125820748	-0.3846627881	 0.0100184702	 0.128348
H	 0.1594379009	-1.2482814305	-4.340966345	 0.148435
19.1491	111.7562	224.273	252.6253	304.8852	373.3239	535.8067	618.6888	705.7475	798.9183	838.708	869.1208	951.4034	981.8554	1003.226	1034.1061	1081.9334	1083.3921	1160.7535	1254.1611	1301.6982	1317.7569	1358.4458	1400.499	1427.892	1475.8165	1497.1314	1506.4293	1536.0438	1569.0083	3045.1936	3064.7983	3109.7646	3124.601	3131.4255	3173.3931
CCC1=NC=NN=N1	CCc1ncnnn1	
InChI=1S/C4H6N4/c1-2-4-5-3-6-8-7-4/h3H,2H2,1H3	InChI=1S/C4H6N4/c1-2-4-5-3-6-8-7-4/h3H,2H2,1H3
