20
gdb 98428	2.56602	1.24895	1.00727	1.7984	76.99	-0.2359	0.0127	0.2486	1275.2166	0.169547	-440.305238	-440.295114	-440.29417	-440.340275	36.752	
C	-0.0098311181	 1.3216215575	 0.1118603562	-0.241074
O	 0.133132807	-0.1012290465	 0.0316070741	-0.24543
C	 0.4677592875	-0.5754946557	-1.1904701729	 0.404047
O	 0.6294966404	 0.1450704277	-2.1488673188	-0.380327
C	 0.6053215622	-2.0682402431	-1.1771809536	 0.137059
N	 0.1444547684	-2.815443601	-0.0329197966	-0.565654
C	 0.4607623066	-2.754953924	-2.5262209374	-0.300224
C	 1.8160448317	-2.6794291216	-1.8979764531	 0.008099
C	 2.9422105523	-1.8713086027	-2.4997103585	-0.428144
H	 0.9296422336	 1.8194247059	-0.1415406187	 0.140378
H	-0.784920595	 1.6711942308	-0.5747042801	 0.14122
H	-0.2886522006	 1.5345224757	 1.1441195329	 0.130311
H	 0.6122779126	-2.4842047856	 0.8059382225	 0.233025
H	-0.8458101038	-2.6424496455	 0.1182156279	 0.229379
H	-0.0682529549	-3.700450767	-2.5171259029	 0.120379
H	 0.2632187503	-2.1019706736	-3.3685975613	 0.133687
H	 2.1250404185	-3.5896181715	-1.3916900804	 0.101647
H	 2.5750285048	-0.9508553956	-2.9558250112	 0.153696
H	 3.6887876049	-1.6055783857	-1.7428445057	 0.111538
H	 3.4501347315	-2.4597190585	-3.2717514424	 0.116387
53.9459	122.7253	151.4421	180.0661	191.2752	203.8026	244.2553	283.762	344.2075	348.9293	417.7631	444.1386	470.5428	566.9233	738.1652	796.4461	824.0329	863.5346	893.0523	907.1037	949.9947	1009.5902	1031.0417	1075.6534	1120.7215	1133.8692	1179.7787	1183.1095	1201.9047	1215.2317	1277.3398	1288.5323	1329.3609	1395.9714	1423.1411	1467.1254	1472.3723	1481.3377	1497.9322	1500.375	1504.9422	1670.3192	1789.8851	3033.5781	3051.5523	3087.5822	3126.0405	3137.0223	3142.9969	3156.4228	3156.673	3240.3129	3487.3765	3557.4076
COC(=O)C1(N)CC1C	COC(=O)[C@@]1(N)C[C@H]1C	
InChI=1S/C6H11NO2/c1-4-3-6(4,7)5(8)9-2/h4H,3,7H2,1-2H3	InChI=1S/C6H11NO2/c1-4-3-6(4,7)5(8)9-2/h4H,3,7H2,1-2H3/t4-,6-/m1/s1
