16
gdb 9656	3.37286	1.32403	1.27932	3.3283	66.08	-0.2736	0.0202	0.2938	1020.8021	0.13042	-379.908512	-379.899886	-379.898942	-379.942392	30.985	
N	-0.3063643098	 1.3735065075	-0.3281793382	-0.56479
C	-0.1265792305	-0.0290007682	-0.032006684	 0.144397
C	-0.2902581535	-0.4552369974	 1.4164287706	-0.319604
C	-1.3474886323	-0.8342154924	 0.4225743987	-0.048204
C	-2.7090925872	-0.1759091753	 0.4771793819	-0.081551
O	-3.3634968883	-0.1627460175	-0.7796717557	-0.416646
C	 0.8660936137	-0.7338243313	-0.8168901896	 0.237219
N	 1.6608471299	-1.2577416675	-1.4756787761	-0.344507
H	 0.4971009876	 1.908564893	-0.0111957891	 0.248287
H	-0.3718801813	 1.5172473211	-1.3318208162	 0.243772
H	 0.3776760159	-1.2165094664	 1.800081885	 0.14074
H	-0.5188021173	 0.3507307929	 2.1059833378	 0.133343
H	-1.3583456984	-1.8669209085	 0.0885389026	 0.119427
H	-3.3537221588	-0.7565006508	 1.1460791066	 0.117563
H	-2.6151290916	 0.8340427794	 0.8946577129	 0.106573
H	-2.9136386682	 0.4859800615	-1.3299144173	 0.283981
29.6778	103.0849	167.8022	233.3425	277.3239	294.9044	327.3281	360.6034	446.5707	506.3078	574.7654	591.5923	690.4033	795.6626	855.8896	892.9224	928.9962	961.4097	1054.5113	1071.7725	1083.5107	1091.6442	1152.234	1194.5161	1250.2406	1287.2562	1309.3156	1370.4756	1405.8978	1432.0244	1476.3961	1492.4059	1665.6846	2338.5659	3028.1733	3077.7225	3142.7147	3168.5713	3236.6083	3491.5593	3564.3115	3822.9763
NC1(CC1CO)C#N	N[C@]1(C[C@H]1CO)C#N	
InChI=1S/C5H8N2O/c6-3-5(7)1-4(5)2-8/h4,8H,1-2,7H2	InChI=1S/C5H8N2O/c6-3-5(7)1-4(5)2-8/h4,8H,1-2,7H2/t4-,5+/m0/s1
