18
gdb 62870	2.86983	1.89165	1.47966	2.9243	69.94	-0.2422	0.0571	0.2993	923.4282	0.14878	-439.015927	-439.008868	-439.007924	-439.046844	29.756	
C	-0.0342484749	 1.5705366566	 0.013513646	-0.425615
C	-0.0740179921	 0.0475207924	-0.0268874142	 0.448874
O	-1.382321473	-0.2898950436	-0.3431902214	-0.485628
C	 1.1555388794	-0.6014906592	-0.7836503847	-0.135537
N	 1.9459085887	-0.2192513621	 0.4454305322	-0.309084
C	 0.6923510623	-0.6413469383	 1.1747172044	-0.135538
C	 0.6509471142	-2.1590181556	 0.8515514765	 0.027138
O	-0.3102111842	-2.6072531801	-0.1367799105	-0.275583
C	 0.9876380292	-2.1300460346	-0.5719861317	 0.027138
H	 0.955888709	 1.9506434546	 0.2554326404	 0.138976
H	-0.3499214801	 1.9581168825	-0.9599184788	 0.119035
H	-0.7559202375	 1.923183669	 0.7566609749	 0.119035
H	-1.4193918276	-1.2574273295	-0.3716499949	 0.296629
H	 1.5174760153	-0.2514868101	-1.7505884959	 0.073375
H	 2.717943874	-0.866105617	 0.614865695	 0.2112
H	 0.5797715994	-0.3321758193	 2.2140485621	 0.073375
H	 0.9644895223	-2.9149916833	 1.563815046	 0.116105
H	 1.5938094655	-2.8608408522	-1.0969804456	 0.116105
186.9386	201.5901	319.4874	330.0103	411.5494	428.4428	478.127	550.5081	618.9573	678.3334	678.825	730.6025	767.1707	820.1769	839.6953	863.0276	890.5148	915.0222	935.1488	966.8496	988.3939	1037.9671	1071.9032	1088.6059	1108.2687	1112.1514	1153.4285	1221.1779	1232.6102	1251.7953	1266.8595	1279.2718	1292.245	1320.3921	1391.5824	1397.2104	1449.8727	1493.0398	1493.5499	3049.5978	3109.1188	3118.1601	3120.1766	3168.7126	3174.4214	3180.9754	3434.2999	3690.0614
CC1(O)C2NC1C1OC21	C[C@@]1(O)[C@H]2N[C@@H]1[C@H]1O[C@@H]21	
InChI=1S/C6H9NO2/c1-6(8)4-2-3(9-2)5(6)7-4/h2-5,7-8H,1H3	InChI=1S/C6H9NO2/c1-6(8)4-2-3(9-2)5(6)7-4/h2-5,7-8H,1H3/t2-,3+,4+,5-,6-
