18
gdb 106426	2.16527	1.76853	1.2921	1.5772	72.05	-0.2436	0.0421	0.2857	1039.1489	0.147029	-438.969573	-438.961329	-438.960385	-439.002496	31.602	
O	 0.5847411437	 0.1061709611	 0.7227600373	-0.409058
C	-0.2355907254	 0.2479339124	-0.4321391024	-0.224632
C	-1.5645721671	-0.4140803209	-0.2029342508	 0.290573
C	-2.7546290401	-0.0001264722	 0.7169356129	-0.280805
C	-3.1978506722	-1.1956467734	-0.1596452615	-0.033737
O	-2.5294349838	-0.5476583591	-1.3221531066	-0.346791
C	-1.859308234	-1.8801765642	 0.1519290385	 0.413723
C	-1.209491004	-3.1501645253	-0.1610777393	-0.345162
N	-1.4525491259	-2.718355264	 1.2533080813	-0.398482
H	 0.2127145498	 0.6601569354	 1.4169333578	 0.293111
H	-0.368670332	 1.2998459078	-0.7221206473	 0.109403
H	 0.2868148737	-0.2595377836	-1.2492730444	 0.130376
H	-2.6628851962	-0.1672577796	 1.7931588334	 0.107146
H	-3.219318021	 0.9526942652	 0.457995977	 0.104413
H	-4.1913902006	-1.61190914	-0.3168514482	 0.102578
H	-1.7947652991	-4.009456793	-0.475310052	 0.126174
H	-0.1893175555	-3.1319427874	-0.5357419556	 0.122139
H	-0.5853421903	-2.3580006092	 1.64732557	 0.23903
71.2219	130.4262	201.6237	212.8098	287.3369	338.4152	377.5519	421.0343	479.9956	596.8176	674.2263	683.67	752.5188	794.7359	896.8725	909.4839	913.1994	934.0508	973.8596	997.2279	1009.1223	1041.0737	1056.9756	1067.9029	1103.668	1122.7869	1168.2253	1195.9173	1209.833	1233.2012	1259.3047	1272.1092	1332.5523	1379.5052	1409.7184	1453.9491	1483.9674	1499.8454	1541.2688	3008.0007	3061.6844	3084.9544	3110.3259	3139.4915	3145.6467	3195.7113	3488.3713	3816.0175
OCC12CC(O1)C21CN1	OC[C@@]12C[C@@H](O1)[C@]12CN1	
InChI=1S/C6H9NO2/c8-3-5-1-4(9-5)6(5)2-7-6/h4,7-8H,1-3H2	InChI=1S/C6H9NO2/c8-3-5-1-4(9-5)6(5)2-7-6/h4,7-8H,1-3H2/t4-,5-,6+/m1/s1
