20
gdb 71642	3.06209	1.88696	1.61364	1.7248	80.15	-0.2229	0.0807	0.3036	923.4328	0.173777	-365.971495	-365.964726	-365.963782	-366.00206	29.01	
C	 0.0132570326	 1.5407935869	 0.050872778	-0.492947
C	 0.0090152036	 0.024523379	-0.0070956511	 0.32481
C	 0.3240373099	-0.6560729654	-1.3802494622	-0.286114
C	-0.7951699394	-1.6710827782	-1.0794154032	-0.046513
C	-0.5204534136	-2.6508221483	 0.0767318251	-0.05692
C	 0.1052855525	-2.0004569932	 1.2579842589	-0.030473
C	 0.8123606158	-0.6734189911	 1.1030205717	-0.2747
N	-1.3568120264	-1.8554408935	 1.0696617344	-0.161239
C	-1.3719764464	-0.7543178582	 0.0210473222	-0.029571
H	 1.026250573	 1.9391272766	-0.0812991984	 0.116211
H	-0.6145828957	 1.9706752924	-0.7370407467	 0.112863
H	-0.3633642473	 1.9012513992	 1.0149695999	 0.117688
H	 0.0539520158	-0.009496487	-2.2214236375	 0.09476
H	 1.3417092357	-1.0303980884	-1.5313241665	 0.090717
H	-1.40310323	-2.0829307228	-1.8844315895	 0.071722
H	-0.6131621741	-3.7306412493	 0.0076700119	 0.08854
H	 0.3781469658	-2.6497767763	 2.0854034705	 0.089598
H	 1.8724165071	-0.7739045129	 0.8465600648	 0.101698
H	 0.7473163142	-0.1178087757	 2.0469652087	 0.100127
H	-2.3059192431	-0.1994261138	-0.0486889409	 0.069743
210.4612	237.1624	256.6513	356.9202	405.2311	467.7343	556.6384	629.0048	699.3863	734.0522	747.6206	778.0257	835.9021	852.6737	887.9178	913.2575	926.4388	952.2241	968.06	979.6354	1006.8825	1021.8503	1041.7446	1072.3146	1104.9295	1122.952	1166.6893	1180.0854	1186.6635	1225.3777	1233.561	1244.0413	1255.4661	1271.5421	1307.2762	1343.8473	1351.4784	1410.0362	1415.059	1478.8102	1490.4895	1493.5538	1496.1476	3019.7561	3026.3486	3036.4946	3072.8783	3085.0593	3088.4889	3093.0072	3110.2535	3128.3402	3145.5041	3157.3122
CC12CC3C4C(C1)N4C23	C[C@@]12C[C@H]3[C@H]4[C@@H](C1)N4[C@@H]23	
InChI=1S/C8H11N/c1-8-2-4-6-5(3-8)9(6)7(4)8/h4-7H,2-3H2,1H3	InChI=1S/C8H11N/c1-8-2-4-6-5(3-8)9(6)7(4)8/h4-7H,2-3H2,1H3/t4-,5+,6-,7+,8+,9?/m0/s1
