14
gdb 14437	4.46467	2.27834	1.92145	1.4851	59.67	-0.2248	-0.0101	0.2147	697.644	0.108704	-378.655314	-378.64942	-378.648476	-378.684899	23.824	
O	-0.0822828574	 1.3942884084	-0.0481106361	-0.453382
C	 0.0100218998	 0.0210582451	-0.0588400378	 0.357032
C	 0.7099933863	-0.8299097662	-1.100409267	-0.242838
N	-0.2549846379	-1.9828203786	-0.7566136312	-0.181746
C	 0.427561602	-2.649470549	 0.3395693928	 0.013518
N	 0.4603082598	-2.0400436413	 1.4553630147	-0.187778
C	-0.2939852327	-0.8206196717	 1.215005898	-0.090969
C	-1.1172116429	-0.970202639	-0.0243008273	-0.092858
H	 0.6344743082	 1.7488627908	 0.4896357501	 0.295127
H	 0.503070595	-0.4854507074	-2.115107825	 0.130029
H	 1.773334566	-1.0719759043	-0.9912119084	 0.110016
H	 0.9369838249	-3.5872300443	 0.1435225534	 0.126912
H	-0.649608028	-0.2605830735	 2.0703942083	 0.107063
H	-2.1883813333	-0.9076691792	-0.1691856846	 0.109873
223.724	294.2971	344.4537	377.9885	456.6018	548.3384	611.5798	728.1815	780.3434	830.0038	837.6269	865.1348	907.8777	933.2722	955.9232	993.2226	1019.0429	1021.1628	1057.127	1077.8247	1157.1939	1166.3167	1236.5798	1240.0076	1287.2818	1290.9508	1315.1197	1438.4983	1505.9676	1657.984	3038.4711	3118.4069	3191.5094	3200.1564	3208.7383	3798.6014
OC12CN3C=NC1C23	O[C@@]12CN3[CH][N][C@@H]1[C@@H]23	
InChI=1S/C5H6N2O/c8-5-1-7-2-6-3(5)4(5)7/h2-4,8H,1H2	InChI=1S/C5H6N2O/c8-5-1-7-2-6-3(5)4(5)7/h2-4,8H,1H2/t3-,4+,5+/m1/s1
