20
gdb 82474	2.64476	1.74249	1.51425	1.2509	77.84	-0.2281	0.0779	0.3059	993.9801	0.172233	-403.105624	-403.097958	-403.097014	-403.137219	31.238	
C	 0.0192138172	 1.5393243661	-0.0224605045	-0.419646
C	 0.0782757336	 0.0159567743	 0.0102572381	 0.033585
C	 1.088903791	-0.6296825009	-0.9634856572	 0.03276
O	 2.3419107093	-0.0093884102	-0.5543792877	-0.323819
C	 2.235869591	-0.8265023018	 0.6165273051	 0.482883
C	 3.4483956567	-0.9382453376	 1.4845816047	-0.516615
C	 1.4633746156	-1.9381558617	-0.1191173013	-0.106186
N	 0.5727758299	-2.1036207961	 1.0323837907	-0.316462
C	 0.7584726296	-0.6397667508	 1.2408932796	-0.11358
H	 1.0209489406	 1.9675187508	 0.0481804458	 0.137525
H	-0.4375298845	 1.8969325367	-0.9517484101	 0.111786
H	-0.5824569817	 1.9203228084	 0.8096918394	 0.109634
H	-0.9270436373	-0.4051985657	-0.1158668841	 0.060664
H	 0.9195493668	-0.6087916981	-2.0390971339	 0.074298
H	 3.683087298	 0.0269625631	 1.9459389514	 0.127997
H	 3.2664490872	-1.6666044768	 2.2795256962	 0.140682
H	 4.31592226	-1.259648377	 0.9007698905	 0.128107
H	 1.8957766422	-2.8059289803	-0.6166272655	 0.080198
H	-0.3868663447	-2.367326026	 0.8090511178	 0.209261
H	 0.5670657695	-0.2400469965	 2.2372074548	 0.066929
169.6139	203.1765	204.2722	260.1659	286.9965	316.5205	497.497	509.9317	572.9164	608.098	714.202	746.4765	788.8971	807.6532	849.2372	875.9693	896.5974	936.1917	948.4388	987.5386	1013.6303	1031.9253	1035.0469	1079.57	1104.7777	1122.3334	1148.7932	1152.5761	1171.7976	1212.2075	1226.5872	1255.2412	1296.8279	1310.1621	1335.7788	1368.345	1376.2141	1405.7309	1418.7692	1480.1032	1492.7028	1494.3961	1507.9181	3026.1201	3036.5669	3039.2281	3092.5048	3106.5639	3113.9259	3121.1771	3124.6399	3134.4908	3135.6751	3448.8807
CC1C2OC3(C)C2NC13	C[C@H]1[C@H]2O[C@]3(C)[C@H]2N[C@H]13	
InChI=1S/C7H11NO/c1-3-4-6-7(2,9-4)5(3)8-6/h3-6,8H,1-2H3	InChI=1S/C7H11NO/c1-3-4-6-7(2,9-4)5(3)8-6/h3-6,8H,1-2H3/t3-,4+,5+,6-,7-/m0/s1
