18
gdb 98611	4.38613	1.06004	0.97034	1.2637	73.85	-0.2373	-0.0068	0.2305	1259.5199	0.148066	-439.025711	-439.017416	-439.016472	-439.059975	30.104	
C	-0.4952085008	 1.3760637319	 0.4552981799	-0.241487
O	-0.3129747524	-0.0458457465	 0.4684703896	-0.227519
C	 0.9598466764	-0.4643856213	 0.592865006	 0.430617
O	 1.9064805111	 0.2818514191	 0.6564893482	-0.365114
C	 1.0000152037	-1.9781329211	 0.61058782	-0.0615
C	 2.3335228637	-2.7531820443	 0.616824383	-0.065665
C	 2.4694916957	-2.294192591	 2.0854815259	-0.179186
N	 0.9714457313	-2.6733816538	 2.0047566298	-0.15733
C	 1.4828868937	-3.8952315062	 1.2147638598	-0.16962
H	 0.0431182162	 1.8247597206	-0.3833567371	 0.14172
H	-1.5681786543	 1.5364134064	 0.3522396896	 0.136223
H	-0.1288808634	 1.8189898261	 1.3848076575	 0.1433
H	 0.2014171462	-2.3590621784	-0.0311660671	 0.094605
H	 3.0928221829	-2.7929678899	-0.1700754833	 0.075397
H	 3.0279924245	-2.9420487586	 2.7659210594	 0.100349
H	 2.6577747099	-1.2417387465	 2.2848053394	 0.136279
H	 0.7175999096	-4.3621200729	 0.5884844872	 0.103123
H	 1.987794626	-4.6295569235	 1.8470624022	 0.10581
25.586	115.0013	130.279	168.2794	259.1172	314.9546	390.8702	429.5553	607.6239	682.3985	765.1053	775.2152	790.2751	870.4466	902.9575	915.7455	931.1687	958.3138	1027.8365	1046.4107	1083.6537	1096.8874	1127.5892	1159.8153	1177.7817	1179.5485	1201.2748	1210.6065	1224.5336	1241.8856	1250.7676	1284.1534	1415.5944	1474.3173	1481.9825	1496.0873	1515.7597	1552.2819	1810.303	3050.1808	3052.745	3059.9878	3073.3574	3081.5574	3122.3326	3127.5091	3162.098	3171.7702
COC(=O)C1C2CN1C2	COC(=O)[C@H]1[C@H]2CN1C2	
InChI=1S/C6H9NO2/c1-9-6(8)5-4-2-7(5)3-4/h4-5H,2-3H2,1H3	InChI=1S/C6H9NO2/c1-9-6(8)5-4-2-7(5)3-4/h4-5H,2-3H2,1H3/t5-/m1/s1
