23
gdb 108673	2.30911	1.32165	0.9254	1.422	89.24	-0.2243	0.0279	0.2523	1357.2936	0.205829	-388.310155	-388.300368	-388.299424	-388.344928	36.455	
C	-0.1903753494	 1.6137268175	-0.0047300107	-0.369604
C	-0.0987671118	 0.0768266351	-0.0140520532	-0.282102
C	 0.7056378685	-0.4669744183	-1.1742988519	 0.212433
C	 1.9961410523	-0.8213291747	-1.111291064	 0.177635
C	 2.8849311954	-0.7058909826	 0.0990614479	-0.486591
C	 2.7084317975	-1.3880631841	-2.3220145897	-0.140517
O	 1.8694822061	-1.7435577081	-3.3984503569	-0.244003
C	 0.9054166332	-0.7419385902	-3.6644521006	-0.088414
C	-0.0479629014	-0.5917599911	-2.4834227486	-0.2896
H	 0.7995164817	 2.0628037849	 0.1234213597	 0.118824
H	-0.6074397262	 1.995898728	-0.9421929575	 0.117186
H	-0.8311479194	 1.9636055268	 0.8110458472	 0.11181
H	 0.3106088523	-0.2652112972	 0.940819882	 0.100631
H	-1.1145177047	-0.3369265238	-0.0722552509	 0.097636
H	 3.1939406376	-1.6958742823	 0.4603821665	 0.124225
H	 3.8085416846	-0.1678477563	-0.1521099396	 0.122872
H	 2.4139066749	-0.1767594028	 0.9283237173	 0.125216
H	 3.4799479376	-0.666649846	-2.6564227639	 0.087663
H	 3.2438374686	-2.3041942563	-2.0406246262	 0.109633
H	 1.4014450844	 0.2215356587	-3.8721850943	 0.08412
H	 0.3784077723	-1.0520986406	-4.571455961	 0.102597
H	-0.7277276094	-1.4547843631	-2.4392762942	 0.11063
H	-0.6858422145	 0.2890474965	-2.6370639073	 0.097718
70.6412	105.0504	116.8982	147.4254	214.4773	232.082	321.8632	333.7196	357.1061	386.2577	460.4897	499.6209	573.9486	649.8158	700.2934	784.749	860.4011	910.1392	948.2865	958.2108	964.3246	1018.9907	1046.8047	1069.3296	1083.7316	1092.105	1145.1621	1160.2826	1167.9203	1229.0648	1245.6282	1270.3094	1303.1093	1318.2392	1351.6062	1369.6863	1388.5349	1407.5932	1408.9127	1425.6222	1468.6983	1477.9408	1483.1048	1486.8969	1498.11	1498.8633	1503.154	1512.7886	1745.5365	2909.9838	2961.4727	3003.1608	3013.48	3020.1317	3034.0019	3034.5499	3038.539	3054.4689	3076.112	3082.6498	3104.1357	3108.3785	3133.8754
CCC1=C(C)COCC1	CCC1=C(C)COCC1	
InChI=1S/C8H14O/c1-3-8-4-5-9-6-7(8)2/h3-6H2,1-2H3	InChI=1S/C8H14O/c1-3-8-4-5-9-6-7(8)2/h3-6H2,1-2H3
