19
gdb 56819	2.36911	1.26247	0.95298	2.8843	76.82	-0.2369	0.0076	0.2445	1270.3155	0.157096	-419.176529	-419.166352	-419.165407	-419.212079	36.135	
C	 0.3695137919	 1.4299911551	-1.0028559293	-0.426063
C	 0.1487942897	-0.0546735127	-0.7968199044	 0.003807
C	 0.6534197794	-1.1092779044	-1.7357726075	-0.044092
C	 1.4784724391	-0.782049538	-2.9711549832	-0.038035
O	 2.4102075173	-1.8040229876	-3.2829840515	-0.412927
C	 0.5725248891	-0.5147945903	-4.1103441379	 0.264504
N	-0.1520093289	-0.3313814974	-4.9918580138	-0.315726
N	 1.1933474787	-0.9946471444	-0.3883459261	-0.107562
C	 2.5664223227	-0.5639919916	-0.1617831384	-0.319372
H	 0.3571547007	 1.9498175751	-0.0391008354	 0.131986
H	 1.3115575339	 1.6756297626	-1.4964114466	 0.122886
H	-0.4409467849	 1.8425146649	-1.6119850392	 0.142788
H	-0.8070555801	-0.2693557528	-0.3192926978	 0.100458
H	 0.0361013488	-1.9966854544	-1.8916461756	 0.098071
H	 2.0840410321	 0.1130539808	-2.8160038023	 0.134758
H	 1.9263269605	-2.6330786484	-3.3788757109	 0.294383
H	 2.9014696787	 0.3023456093	-0.7492940171	 0.102259
H	 2.676721183	-0.3087597184	 0.8963816205	 0.127193
H	 3.2345057681	-1.3995170974	-0.3868553037	 0.140685
41.4957	98.2366	143.9244	158.2991	192.9301	199.1829	252.7629	272.06	313.2321	338.0924	460.6495	499.353	515.6274	552.7127	615.8519	740.7306	781.0736	914.8364	941.626	982.9715	1044.3626	1065.411	1084.8974	1135.7471	1149.1306	1167.9307	1177.9032	1194.9876	1248.7835	1296.9071	1353.3167	1392.4646	1410.2738	1421.2745	1432.4592	1460.619	1483.533	1497.9769	1505.5556	1511.0657	2352.4452	3001.3946	3044.3995	3074.2356	3077.2258	3100.6456	3103.4456	3105.0502	3117.9763	3134.6624	3795.3638
CC1C(C(O)C#N)N1C	C[C@H]1[C@@H]([C@@H](O)C#N)N1C	
InChI=1S/C6H10N2O/c1-4-6(8(4)2)5(9)3-7/h4-6,9H,1-2H3	InChI=1S/C6H10N2O/c1-4-6(8(4)2)5(9)3-7/h4-6,9H,1-2H3/t4-,5-,6-,8?/m0/s1
