18
gdb 19757	3.54151	2.20542	2.12965	1.6344	68.97	-0.2494	0.0784	0.3277	751.6145	0.157535	-347.81437	-347.808245	-347.8073	-347.844151	25.922	
O	 0.1414210108	 1.4046066201	 0.1604644451	-0.455907
C	 0.0481332996	 0.0001157405	 0.0143755044	 0.173755
C	-1.3615347653	-0.5352646395	-0.2096292482	-0.10873
C	-1.572187799	-0.5891761627	-1.7166766072	-0.063152
C	-0.2840279753	-0.0940729884	-2.3716883102	-0.233176
C	 0.6855358581	-0.5919184119	-1.2757297274	-0.079204
C	 0.2847896471	-2.0787739566	-1.1466602164	-0.225286
C	-1.2141576127	-1.8482490571	-0.9507578712	-0.056708
H	-0.4847696527	 1.8079682309	-0.448978238	 0.281556
H	 0.5194717622	-0.4168782367	 0.9107979272	 0.079947
H	-2.1691143842	-0.3462504025	 0.4855283719	 0.083616
H	-2.5500017128	-0.4518473033	-2.1590112072	 0.081512
H	-0.0932740367	-0.5627548649	-3.3425995004	 0.09678
H	-0.2491977873	 0.9922052214	-2.5095705327	 0.08547
H	 1.742604186	-0.3728346186	-1.4178027286	 0.066325
H	 0.5148619068	-2.6620300595	-2.0446213397	 0.094304
H	 0.7564332628	-2.5686715816	-0.2880042702	 0.096101
H	-1.9208769873	-2.6574017995	-0.8209792511	 0.082796
195.724	279.5489	327.2375	416.5973	462.9692	530.8938	654.2575	705.3002	790.2915	815.8711	824.438	876.3939	909.9253	918.6389	921.9949	941.9083	952.6102	994.5411	1025.1958	1045.9018	1066.6042	1071.0502	1081.6483	1109.5949	1148.865	1155.1294	1209.5842	1249.1861	1257.3399	1280.1825	1284.3074	1300.4757	1321.2325	1340.346	1393.3092	1432.1834	1493.5	1511.4742	3038.3184	3042.0317	3056.2627	3079.991	3082.8555	3133.0285	3194.8143	3196.158	3209.7119	3820.2576
OC1C2C3CC1CC23	O[C@H]1[C@H]2[C@H]3C[C@@H]1C[C@@H]23	
InChI=1S/C7H10O/c8-7-3-1-4-5(2-3)6(4)7/h3-8H,1-2H2	InChI=1S/C7H10O/c8-7-3-1-4-5(2-3)6(4)7/h3-8H,1-2H2/t3-,4+,5-,6+,7-/m1/s1
