15
gdb 93125	2.15996	1.77469	1.29795	4.0094	65.2	-0.2668	-0.004	0.2627	992.6737	0.113393	-453.953533	-453.945457	-453.944513	-453.98635	29.302	
O	-0.0747480003	 1.4092480802	 0.0079917691	-0.424678
C	 0.0172036792	 0.0030301531	 0.0214844223	 0.073771
C	 0.7741219187	-0.5699556817	 1.220616924	-0.207825
N	 0.5805853629	-2.0094827474	 1.3696085097	-0.253569
C	-0.4194830188	-2.5418889997	 0.8182170872	 0.138448
O	-1.4177299629	-1.9624887501	 0.081221102	-0.228397
C	-1.4236867545	-0.5332669181	 0.0555220857	-0.040906
C	-2.1792813057	-0.0119841503	 1.209056561	 0.306583
N	-2.7793675395	 0.3772397642	 2.1155081548	-0.319457
H	 0.8118965169	 1.7783760972	 0.0741445447	 0.298937
H	 0.4643107196	-0.3819035507	-0.908074911	 0.098016
H	 1.8488943301	-0.3792861646	 1.1185550604	 0.114159
H	 0.445442088	-0.0611235142	 2.1355864232	 0.148632
H	-0.5957915661	-3.6132045239	 0.8737410993	 0.142797
H	-1.9511570677	-0.244760854	-0.8572899224	 0.153491
88.7077	144.8603	163.5382	208.2695	256.4537	322.7575	408.8172	457.9348	470.282	512.9459	615.2643	650.2452	775.0177	887.2452	935.7764	954.1357	990.3782	1012.0309	1063.5179	1100.0756	1132.8388	1139.766	1224.3393	1254.1544	1304.8809	1334.2291	1358.9413	1398.7343	1402.1185	1429.378	1490.0773	1743.2832	2365.3702	2988.0137	3029.9008	3066.5754	3090.1021	3179.8175	3823.123
OC1CN=COC1C#N	O[C@H]1CN=CO[C@H]1C#N	
InChI=1S/C5H6N2O2/c6-1-5-4(8)2-7-3-9-5/h3-5,8H,2H2	InChI=1S/C5H6N2O2/c6-1-5-4(8)2-7-3-9-5/h3-5,8H,2H2/t4-,5-/m0/s1
