21
gdb 88542	3.26677	1.18913	1.10812	1.4748	83.05	-0.2264	0.0808	0.3072	1216.2495	0.182336	-387.035826	-387.027213	-387.026269	-387.069331	33.382	
C	 0.2002380813	 1.5540860348	-0.2184278886	-0.409502
C	 0.02186896	 0.0730151705	 0.0322396469	 0.020094
C	 1.1819777938	-0.8803902834	-0.0606614129	-0.310611
C	 0.5492766986	-0.6056216652	 1.2864774268	-0.138218
C	 1.2475516023	 0.154668832	 2.343787441	 0.504494
C	 2.6155252787	 0.7680927923	 2.3324745803	-0.334087
C	 2.2460431787	-0.2099997552	 3.4311095346	-0.20049
C	 1.2716232626	 0.4656378133	 4.3819298082	-0.087628
O	 0.4154660298	 0.871252852	 3.2817869971	-0.330761
H	 1.1817176622	 1.9038536699	 0.1117330758	 0.125262
H	 0.1081211412	 1.7791508448	-1.2868034645	 0.110721
H	-0.5557095338	 2.1383765498	 0.3163194976	 0.128129
H	-0.931916018	-0.3202116733	-0.3100657454	 0.084964
H	 1.0317937561	-1.8605322312	-0.4995094733	 0.110922
H	 2.1606559891	-0.4535808347	-0.2532502837	 0.110851
H	-0.0888903933	-1.3927235127	 1.6800334853	 0.08625
H	 3.3131404794	 0.3734707633	 1.6011835086	 0.115234
H	 2.7259799693	 1.8272547819	 2.5523027614	 0.110588
H	 2.7870014051	-1.1299248671	 3.6068296953	 0.099128
H	 0.7441366599	-0.2308751677	 5.0443717426	 0.104882
H	 1.6365875271	 1.321154216	 4.9637920568	 0.099776
51.2131	121.5809	177.9639	215.5663	236.0729	345.1314	369.5571	408.7806	452.2961	493.3417	680.0017	753.4868	779.0451	829.7979	842.4531	878.7813	901.108	933.4033	946.3569	969.9506	995.026	997.9731	1022.6883	1031.0086	1072.4741	1079.8763	1095.7783	1113.2219	1139.0219	1145.1999	1150.8131	1175.9588	1197.8267	1226.1516	1278.9377	1336.7085	1368.2763	1400.5086	1423.6654	1435.2693	1484.3149	1491.9831	1495.8757	1503.6135	1522.6054	3016.6714	3034.3102	3062.6222	3093.7946	3110.1363	3113.7804	3130.3377	3133.2666	3143.617	3200.1641	3209.3475	3217.342
CC1CC1C12CC1CO2	C[C@H]1C[C@H]1[C@]12C[C@H]1CO2	
InChI=1S/C8H12O/c1-5-2-7(5)8-3-6(8)4-9-8/h5-7H,2-4H2,1H3	InChI=1S/C8H12O/c1-5-2-7(5)8-3-6(8)4-9-8/h5-7H,2-4H2,1H3/t5-,6-,7+,8-/m0/s1
