16
gdb 69872	2.76351	1.65393	1.19145	3.4987	76.28	-0.2222	0.0106	0.2327	1033.4272	0.121464	-400.613259	-400.605159	-400.604215	-400.645517	31.642	
C	-0.0621723708	 1.5560088197	 0.145696532	-0.523266
C	 0.0745993648	 0.0703457321	 0.0681903168	 0.238401
N	-0.8480498413	-0.8936985908	 0.6967527834	-0.348768
C	 0.6057841657	-0.9429687066	 1.0068665356	-0.166077
C	 1.3109018835	-1.6879307521	-0.1754316649	-0.078353
O	 0.3468695408	-2.0622033892	-1.1478667166	-0.264286
C	 0.78708774	-0.6960140679	-1.1342500037	 0.298187
C	 1.3302571019	-0.0973058423	-2.2999406045	 0.176402
C	 1.7746074211	 0.4634135473	-3.2674395584	-0.374489
H	 0.8606241756	 2.0500372008	-0.1748662616	 0.13734
H	-0.8712939992	 1.9113689696	-0.5024770477	 0.138522
H	-0.2808833267	 1.8750069306	 1.1702030316	 0.120411
H	-1.2929370036	-0.4034034039	 1.474289859	 0.229778
H	 0.9899921261	-0.833484427	 2.0121542803	 0.101891
H	 2.257883373	-2.2135382986	-0.1563618427	 0.123168
H	 2.169638979	 0.9429279983	-4.1287288885	 0.191139
127.136	130.57	196.5764	243.8691	288.6639	403.3446	434.4397	484.4557	502.7688	574.1908	598.4985	599.9364	675.6458	697.3142	783.1526	815.6955	846.1417	859.8051	907.9738	932.1388	987.17	998.787	1036.0851	1083.55	1108.6332	1134.2677	1225.1683	1271.7532	1313.2711	1400.0106	1414.0003	1441.962	1479.1746	1496.8704	2235.3513	3028.4736	3092.8717	3103.9581	3194.1566	3208.6993	3458.5435	3501.3872
CC12NC1C1OC21C#C	C[C@]12N[C@H]1[C@H]1O[C@@]21C#C	
InChI=1S/C7H7NO/c1-3-7-5(9-7)4-6(7,2)8-4/h1,4-5,8H,2H3	InChI=1S/C7H7NO/c1-3-7-5(9-7)4-6(7,2)8-4/h1,4-5,8H,2H3/t4-,5+,6-,7+/m0/s1
