17
gdb 6303	3.70747	1.18043	1.02412	3.163	72.23	-0.245	0.0258	0.2707	1187.7433	0.139031	-363.868168	-363.858398	-363.857454	-363.904409	33.706	
C	-0.075978444	 1.6556446769	 0.0940137047	-0.385075
C	 0.0584602866	 0.1244583101	-0.0067445023	-0.111634
N	 0.6934330869	-0.2868480947	-1.2586969334	-0.319169
C	-0.0446862262	-0.6158594276	-2.359749546	 0.419938
C	 0.7574545952	-1.0971428457	-3.5582024725	-0.484874
O	-1.2609931893	-0.5421733489	-2.3738469235	-0.377473
C	 0.7935929459	-0.4319622562	 1.1287258813	 0.296809
C	 1.4223826581	-0.8615282411	 2.0584368523	-0.447553
H	 0.908135696	 2.1325253121	 0.0815412123	 0.118948
H	-0.6626118324	 2.0207282599	-0.7523235145	 0.139915
H	-0.5824951198	 1.9321342457	 1.0227002906	 0.129068
H	-0.9494763639	-0.3040701946	-0.0394574156	 0.147923
H	 1.6951362236	-0.3830115743	-1.2706763273	 0.249851
H	 0.6090656709	-2.1754481574	-3.6714428521	 0.154293
H	 0.3675832259	-0.6153427206	-4.4570175764	 0.153844
H	 1.8291367682	-0.8982692591	-3.4757873486	 0.113867
H	 1.9593173087	-1.2538293846	 2.886571101	 0.201322
25.5961	35.8082	86.9043	153.5479	180.4998	240.5877	293.8824	360.477	402.0321	421.725	542.7329	549.7038	605.2365	627.6293	637.6141	664.4944	843.2137	920.306	981.4225	1007.4071	1051.0867	1095.0275	1099.1815	1157.4083	1250.1514	1331.73	1363.3706	1395.4396	1402.4174	1468.8335	1483.635	1489.6458	1492.8305	1521.5925	1773.7445	2239.0433	3046.0664	3049.5313	3058.2193	3120.7192	3124.5193	3134.9027	3141.0007	3502.9368	3653.8725
CC(NC(C)=O)C#C	C[C@@H](NC(=O)C)C#C	
InChI=1S/C6H9NO/c1-4-5(2)7-6(3)8/h1,5H,2-3H3,(H,7,8)	InChI=1S/C6H9NO/c1-4-5(2)7-6(3)8/h1,5H,2-3H3,(H,7,8)/t5-/m1/s1
