20
gdb 17276	4.76219	1.07227	1.02778	1.7008	75.41	-0.255	0.0965	0.3515	1239.3541	0.176082	-348.975172	-348.966497	-348.965552	-349.00912	31.829	
C	 0.1433149832	 1.4507950201	-0.1772192751	-0.418067
C	 0.1463485923	-0.0325188549	 0.0931847736	 0.073519
O	 1.4138984179	-0.6675919543	 0.3017578116	-0.261935
C	 0.4746338594	-0.6597086816	 1.3851987967	 0.082233
C	 0.8666189976	 0.0844908905	 2.6422256041	-0.257794
C	 1.81959569	-0.7172721623	 3.5086770216	 0.037895
C	 3.2863835942	-0.7615608715	 3.1656436696	-0.243086
C	 2.8199692349	-0.0175325727	 4.3933096997	-0.282205
H	 0.8007408975	 1.9935198678	 0.5043348764	 0.126738
H	 0.4820489064	 1.6469445744	-1.200047214	 0.129166
H	-0.8709856103	 1.8533127749	-0.0793176132	 0.120691
H	-0.5158592277	-0.6021228821	-0.5636750538	 0.083608
H	 0.0295896178	-1.6405555454	 1.5746628584	 0.081637
H	 1.3339598752	 1.0374198376	 2.3756157375	 0.099085
H	-0.0439973796	 0.3221125983	 3.2099697624	 0.098903
H	 1.3958761567	-1.6369173397	 3.9055601423	 0.080175
H	 3.8217272169	-1.6946144824	 3.3013379054	 0.109266
H	 3.6127003799	-0.1838458635	 2.3081696433	 0.123169
H	 2.8439359059	 1.0674074781	 4.3716312601	 0.107711
H	 3.0341613116	-0.4436682111	 5.3673053034	 0.109294
49.1592	76.864	129.3732	170.4649	245.3468	311.2629	350.46	399.0169	484.8553	519.2251	760.7624	773.7709	799.5041	820.9721	842.1944	900.1982	925.6658	953.2821	999.4056	1008.0802	1051.948	1070.794	1074.2779	1097.845	1135.6745	1154.8773	1176.1031	1192.5051	1196.7388	1229.0236	1269.1013	1300.9272	1323.8624	1396.0895	1415.3129	1420.0645	1464.6223	1471.3403	1473.2227	1490.645	1508.9152	1512.3667	3014.5421	3038.4619	3061.3236	3077.1996	3084.3037	3097.9231	3128.4863	3131.6491	3136.4415	3140.276	3207.9891	3226.3474
CC1OC1CC1CC1	C[C@H]1O[C@H]1CC1CC1	
InChI=1S/C7H12O/c1-5-7(8-5)4-6-2-3-6/h5-7H,2-4H2,1H3	InChI=1S/C7H12O/c1-5-7(8-5)4-6-2-3-6/h5-7H,2-4H2,1H3/t5-,7+/m1/s1
