21
gdb 120579	4.12491	0.7413	0.69229	1.7315	87.24	-0.2562	0.0294	0.2856	1718.9104	0.178577	-387.048382	-387.037735	-387.036791	-387.084504	38.497	
C	 0.1237515879	 1.5494653286	-0.1788732046	-0.383854
C	 0.2080077623	 0.0271995914	-0.0479024315	-0.156573
C	 0.3567251207	-0.4394588517	 1.4085661415	-0.223553
C	 0.42571333	-1.9436559148	 1.5085023469	 0.02952
O	 1.6343413812	-2.5875117457	 1.0954553408	-0.28407
C	 1.2474757406	-2.7090753172	 2.4806325452	 0.174335
C	 2.1686292271	-2.0548474948	 3.4904160664	-0.471563
C	 0.7775420102	-4.0233309235	 2.8663501589	 0.291857
C	 0.396482477	-5.1078919601	 3.2180966743	-0.433062
H	 1.0228134385	 2.0320407329	 0.2203905745	 0.115944
H	 0.0208469156	 1.852736423	-1.2252252054	 0.115261
H	-0.7364822614	 1.9489826877	 0.3700307752	 0.113652
H	-0.6885171292	-0.4313626235	-0.4849922811	 0.098031
H	 1.0592119795	-0.3521751463	-0.6252160846	 0.117073
H	 1.2503848263	 0.0152857279	 1.8464209363	 0.102085
H	-0.501885927	-0.0912591424	 1.998932883	 0.102217
H	-0.4721004443	-2.4546792437	 1.1524974653	 0.09327
H	 2.5280378895	-1.0904766833	 3.1300117772	 0.131024
H	 1.6501940832	-1.9119109347	 4.4433630822	 0.132042
H	 3.0342425263	-2.6988668887	 3.6706819212	 0.138677
H	 0.0566771261	-6.0686487611	 3.5170785382	 0.197685
56.1412	77.6157	96.2756	149.4935	158.824	200.6096	243.9667	268.0986	316.9087	359.8986	404.6497	488.9602	551.5836	595.3622	620.4821	659.6837	686.5587	745.2904	807.2092	871.1257	901.7744	906.8537	967.9319	1042.8244	1060.1273	1091.5887	1102.9895	1149.183	1158.5029	1241.867	1261.3228	1303.6643	1326.3208	1336.0755	1385.9951	1410.878	1412.669	1456.4695	1470.3333	1484.7524	1492.7778	1498.6551	1500.3523	1509.7829	2236.2424	3019.904	3024.8221	3029.6932	3049.5415	3059.745	3075.9299	3090.2031	3099.6084	3103.8033	3114.8428	3147.7334	3501.8928
CCCC1OC1(C)C#C	CCC[C@H]1O[C@]1(C)C#C	
InChI=1S/C8H12O/c1-4-6-7-8(3,5-2)9-7/h2,7H,4,6H2,1,3H3	InChI=1S/C8H12O/c1-4-6-7-8(3,5-2)9-7/h2,7H,4,6H2,1,3H3/t7-,8-/m1/s1
