25
gdb 85940	2.40347	1.27473	1.08566	1.372	88.05	-0.256	0.0705	0.3265	1301.6268	0.228309	-389.519599	-389.509465	-389.508521	-389.553768	40.067	
C	 0.320001491	 1.7238945424	-0.0332831926	-0.396244
C	 0.0996423968	 0.2044516602	-0.013410425	-0.000146
C	 0.769139145	-0.5031010229	-1.2082071625	-0.237039
C	 2.2450445013	-0.7344443283	-0.803153881	 0.407899
C	 2.8204122681	-2.0323450625	-1.3740596571	-0.441616
O	 2.978742203	 0.3823709344	-1.3310395022	-0.469454
C	 2.2304300489	-0.7060081175	 0.7574603863	-0.274842
C	 0.7553475555	-0.5316000233	 1.1851062368	 0.053475
C	 0.569554703	 0.0990543782	 2.5642406025	-0.416907
H	 1.3827004218	 1.9782336558	-0.0650764438	 0.131635
H	-0.142668545	 2.1577447273	-0.92614171	 0.10811
H	-0.1303498355	 2.2084057649	 0.8386304559	 0.104663
H	-0.9812730423	 0.0186003887	-0.0149310137	 0.056404
H	 0.2868511243	-1.4723287867	-1.3776260455	 0.086486
H	 0.7167768425	 0.0624101912	-2.1422401034	 0.103058
H	 2.7607845647	-2.0302616248	-2.4667151261	 0.120636
H	 3.8740113598	-2.1497655939	-1.0910219368	 0.100311
H	 2.2778795316	-2.905377345	-0.9965119371	 0.111618
H	 3.8942628893	 0.2897819332	-1.0458117348	 0.27
H	 2.6788172711	-1.6032517872	 1.1964575815	 0.088097
H	 2.8265371945	 0.1492336934	 1.0943370943	 0.093149
H	 0.3013024005	-1.532575771	 1.2137314888	 0.064677
H	 1.0379555442	 1.0870909383	 2.6221085836	 0.117341
H	-0.4915895943	 0.2163179392	 2.8107532172	 0.109885
H	 1.0219727505	-0.524542104	 3.3430823846	 0.108805
67.2862	140.8615	229.1727	230.723	252.7224	274.6483	286.5116	304.715	312.5481	361.324	391.8032	434.7207	458.2465	495.0392	563.4039	640.1472	762.1846	788.21	856.0939	886.1085	907.392	931.452	939.6824	959.1983	986.2929	1037.1894	1056.9245	1071.2861	1096.5458	1114.2472	1132.5413	1171.8021	1199.3319	1240.7709	1267.2094	1285.8009	1303.4241	1319.6694	1345.0906	1370.7309	1383.7456	1391.9545	1406.0612	1411.1843	1417.0028	1476.6671	1488.1569	1491.1953	1492.5963	1495.587	1496.9162	1507.9269	1511.7266	2990.7575	3020.1201	3023.3591	3027.6722	3036.2402	3038.6634	3046.5437	3079.6624	3086.0423	3090.4005	3095.2587	3100.6722	3101.9547	3110.0004	3124.4934	3800.3332
CC1CC(C)(O)CC1C	C[C@H]1C[C@@](C)(O)C[C@H]1C	
InChI=1S/C8H16O/c1-6-4-8(3,9)5-7(6)2/h6-7,9H,4-5H2,1-3H3	InChI=1S/C8H16O/c1-6-4-8(3,9)5-7(6)2/h6-7,9H,4-5H2,1-3H3/t6-,7+,8+
