19
gdb 36136	3.89439	1.12673	1.00919	1.1975	79.89	-0.2304	0.0522	0.2826	1221.3337	0.159046	-385.847844	-385.839479	-385.838535	-385.880834	32.547	
C	-0.7596369039	 0.1086244212	 1.5145694647	-0.452203
C	-0.2701231986	 0.4372748555	 0.4670982124	 0.29765
C	 0.3277117841	 0.8428700325	-0.7978477352	-0.442114
C	 1.5736421787	 1.6944141158	-0.6467756156	 0.456893
C	 2.5954573899	 1.5029837493	 0.4424943541	-0.358671
C	 1.7934778283	 2.7961697996	 0.3486947317	-0.104026
C	 2.4038433626	 3.9429539938	-0.4396037267	-0.241693
C	 2.8597475499	 3.2566613452	-1.7472695129	-0.095792
O	 2.0391379746	 2.0998869692	-1.9136641927	-0.2996
H	-1.1996932006	-0.1874335518	 2.434402294	 0.196915
H	 0.5816073597	-0.0463246839	-1.3898242297	 0.141803
H	-0.4019987658	 1.4072335558	-1.3925089109	 0.138126
H	 2.3301715156	 0.8317208807	 1.2513655203	 0.126902
H	 3.648747847	 1.5061960085	 0.1818924625	 0.111032
H	 1.0664167226	 3.0092796714	 1.1230590996	 0.099889
H	 1.6370838477	 4.6993292985	-0.6384060523	 0.108466
H	 3.2384630498	 4.4379496286	 0.0662832846	 0.105593
H	 2.7409430917	 3.8830573233	-2.6356602246	 0.110589
H	 3.9159719469	 2.9613711168	-1.6833425531	 0.100242
66.7283	127.2887	194.2702	221.9887	305.9001	347.9543	390.4885	410.2155	494.7876	619.2219	643.668	653.2635	677.6576	709.9437	817.8133	845.7093	872.3702	918.9355	933.6392	973.7075	978.6111	1011.9093	1031.5584	1044.0001	1085.7042	1094.7303	1134.6722	1195.0264	1219.7652	1233.3988	1239.1237	1280.2323	1318.084	1352.0794	1393.7451	1402.8755	1472.5958	1487.5663	1498.3982	1529.3553	2240.4395	3006.6717	3019.8499	3045.0716	3050.5866	3081.0029	3093.3594	3134.1203	3184.3032	3223.4146	3505.2562
C#CCC12CC1CCO2	C#CC[C@]12C[C@H]1CCO2	
InChI=1S/C8H10O/c1-2-4-8-6-7(8)3-5-9-8/h1,7H,3-6H2	InChI=1S/C8H10O/c1-2-4-8-6-7(8)3-5-9-8/h1,7H,3-6H2/t7-,8+/m1/s1
