21
gdb 36394	4.83135	0.79102	0.74104	0.6277	89.49	-0.2549	0.0548	0.3097	1579.1883	0.181328	-349.898385	-349.889216	-349.888272	-349.932766	35.256	
C	-0.0402430169	-1.1717186604	-0.2215121792	-0.449207
C	-0.040277837	 0.0184461879	-0.0514095392	 0.302833
C	-0.0003813557	 1.4623539038	 0.1519041421	-0.376393
C	 1.4224946384	 2.0307554568	 0.1187818019	 0.056093
C	 2.1903727313	 2.0234334993	-1.2364572065	-0.305891
C	 2.6324497972	 3.4619794157	-0.93520797	 0.387558
C	 4.0548321117	 3.9327562761	-0.838875699	-0.31546
C	 3.1227106637	 4.5140312355	-1.8807311176	-0.331091
C	 1.5813204586	 3.5798247946	 0.1766874401	-0.330166
H	-0.0536500108	-2.2226476468	-0.3710356328	 0.193055
H	-0.605195825	 1.9573096345	-0.6202658055	 0.123888
H	-0.4711977815	 1.7109780289	 1.1126796367	 0.127922
H	 2.0206737867	 1.5513556526	 0.8985787238	 0.084427
H	 2.9725423533	 1.2704244552	-1.360753004	 0.102509
H	 1.5083544334	 1.9617644265	-2.0922112814	 0.098658
H	 4.3326792467	 4.5596696147	 0.0030025263	 0.108954
H	 4.840838581	 3.2629003236	-1.1738904663	 0.11025
H	 3.2797049685	 4.2368771947	-2.9186688671	 0.10997
H	 2.7731717365	 5.5324455353	-1.7411248318	 0.108771
H	 0.6738455892	 4.0978823055	-0.1559421289	 0.095041
H	 1.8997964006	 4.0128224359	 1.1291516683	 0.098278
53.3318	68.8411	128.2096	240.563	279.1498	307.2655	349.4131	367.5408	407.8259	459.2572	567.5159	617.0628	633.3599	736.4561	773.9935	818.2518	848.2776	883.4396	903.7821	912.4205	928.5102	949.8861	994.2266	1031.643	1051.0871	1074.6631	1078.5955	1086.4649	1127.5167	1185.8774	1187.0806	1235.1972	1245.2902	1247.5904	1258.2839	1288.9789	1327.8682	1367.5507	1391.9366	1464.1992	1468.5411	1477.3945	1499.0435	1504.5517	2236.6655	3008.964	3030.957	3038.0671	3039.3974	3067.5003	3090.5412	3100.7674	3117.9511	3122.121	3195.2768	3210.421	3507.3478
C#CCC1CC2(CC2)C1	C#CCC1CC2(CC2)C1	
InChI=1S/C9H12/c1-2-3-8-6-9(7-8)4-5-9/h1,8H,3-7H2	InChI=1S/C9H12/c1-2-3-8-6-9(7-8)4-5-9/h1,8H,3-7H2
