18
gdb 31255	2.68573	1.22689	0.8782	3.2759	77.82	-0.1739	0.0319	0.2058	1314.3218	0.148796	-435.288266	-435.278933	-435.277989	-435.323258	33.271	
C	 0.2151528339	 1.4697325215	 0.0321757944	-0.315093
N	-0.1956769034	 0.0792348216	-0.1182652819	-0.389287
C	 0.4383072892	-0.6780950147	-1.1006111323	 0.250647
C	 0.5256132305	-2.0529764789	-1.2016744399	 0.234788
C	 0.0357292099	-3.1806815524	-0.3726157899	-0.215903
O	 1.0542568841	-4.1844899325	-0.3315143551	-0.424843
N	 1.1712158272	-2.2709639872	-2.4115410003	-0.287745
C	 1.461320475	-1.0619241497	-2.9432279894	 0.007214
N	 1.0229300489	-0.0749982848	-2.187635706	-0.326038
H	 1.2752710017	 1.5925734207	 0.302242152	 0.106946
H	 0.0526429808	 1.995949475	-0.9097804077	 0.15225
H	-0.4026843311	 1.9345788575	 0.805149944	 0.108747
H	-0.2547620268	-0.4081390323	 0.7650726103	 0.225888
H	-0.2096679073	-2.810211986	 0.635715376	 0.092496
H	-0.8926084188	-3.614390661	-0.7836771477	 0.098757
H	 0.6684335862	-4.9808924251	 0.047208439	 0.287301
H	 1.4930064124	-3.1723412805	-2.7222761314	 0.268111
H	 1.9970071076	-0.9481879312	-3.873609144	 0.125761
49.9303	65.8381	149.6591	158.6227	196.2251	268.9608	295.1299	317.135	392.3217	513.9453	520.8873	592.71	649.1777	698.5819	743.182	790.9282	793.7631	957.5717	1005.2752	1028.3912	1069.123	1102.8206	1130.093	1154.3416	1192.2199	1220.0662	1244.6437	1274.0254	1337.0546	1386.0267	1447.0398	1456.4047	1466.7178	1483.8904	1503.0706	1513.3007	1517.1016	1532.6462	1652.4618	2939.7095	2979.3109	2985.7887	3086.6528	3138.4848	3251.895	3577.061	3668.5248	3815.1341
CNC1=C(CO)NC=N1	CNc1c(CO)[nH]cn1	
InChI=1S/C5H9N3O/c1-6-5-4(2-9)7-3-8-5/h3,6,9H,2H2,1H3,(H,7,8)	InChI=1S/C5H9N3O/c1-6-5-4(2-9)7-3-8-5/h3,6,9H,2H2,1H3,(H,7,8)
