20
gdb 102113	2.03477	1.3578	0.99202	2.8824	76.5	-0.2361	-0.0207	0.2154	1283.3085	0.168007	-440.247015	-440.236738	-440.235794	-440.28297	35.949	
C	 0.3847327347	 1.9140722108	-0.3805138438	-0.242292
O	-0.2416378087	 0.7505864494	-0.8858913863	-0.243319
C	 0.6655693566	-0.2980354311	-1.1753315608	 0.031755
C	 1.2032265613	-0.929531475	 0.1174587011	 0.152126
O	 2.3514285842	-1.245814311	 0.2776428174	-0.244339
C	-0.0302109498	-1.3329991123	-2.0519331928	-0.073655
N	-0.2028084822	-2.6853866867	-1.4892342363	-0.333781
C	-1.3929287904	-1.8848901895	-1.7990526047	 0.023698
C	-2.3043557594	-1.4984752827	-0.6602598006	-0.386252
H	 0.9104953983	 1.7293163095	 0.5676316666	 0.118761
H	 1.1103187204	 2.323351858	-1.0995571748	 0.113397
H	-0.4022202727	 2.6515168118	-0.2082522493	 0.132629
H	 1.5420842533	 0.0926626172	-1.7147677103	 0.084594
H	 0.4427756902	-1.0382174658	 0.9213381052	 0.085984
H	 0.251804196	-1.2650374306	-3.1001259368	 0.092379
H	-0.0266166938	-3.399090015	-2.1893783802	 0.236038
H	-1.9268082124	-2.1511671089	-2.7119497671	 0.085108
H	-1.7423215726	-1.2463664226	 0.2398325931	 0.127194
H	-2.9108543103	-0.6301491815	-0.9331846739	 0.125176
H	-2.9771535628	-2.3294065339	-0.4217811758	 0.114799
52.2417	81.6886	111.661	133.208	172.9322	181.6196	224.7505	268.1919	335.3585	368.0857	381.9412	479.6119	518.2406	659.0963	765.1491	803.1271	895.4521	949.2391	976.6799	1002.8304	1015.8701	1054.5541	1061.1087	1100.0094	1135.5215	1157.3342	1183.3462	1190.4757	1225.1449	1248.9067	1287.1175	1311.1624	1361.0316	1395.4087	1413.1432	1426.9853	1462.0373	1477.4849	1480.7354	1489.876	1499.0706	1508.9898	1838.5991	2892.9203	2981.6826	2991.0669	3032.8875	3043.3246	3094.9731	3107.7869	3122.5675	3128.0296	3146.6626	3519.7578
COC(C=O)C1NC1C	CO[C@@H](C=O)[C@H]1N[C@H]1C	
InChI=1S/C6H11NO2/c1-4-6(7-4)5(3-8)9-2/h3-7H,1-2H3	InChI=1S/C6H11NO2/c1-4-6(7-4)5(3-8)9-2/h3-7H,1-2H3/t4-,5-,6-/m0/s1
