23
gdb 111410	1.9018	1.57763	1.00673	1.0067	86.08	-0.2418	0.0786	0.3205	1296.1354	0.204918	-388.25301	-388.243161	-388.242216	-388.288407	36.317	
C	-0.3400939367	 1.5781474345	 0.0886673492	-0.393147
C	-0.0566612041	 0.076397637	-0.0306459376	-0.187664
C	 0.7584057426	-0.4942641408	 1.132897849	-0.021096
C	 0.7136310142	-2.0071931345	 1.383129053	-0.070691
C	 1.338548352	-2.7614252695	 0.2448957151	-0.280127
C	 2.2368609302	-2.1151651576	 1.2635315731	-0.07923
C	 2.3418624038	-0.6201452803	 1.0088291456	 0.114821
O	 2.958974455	-0.2981225577	-0.2152007614	-0.240558
C	 3.4873153618	 1.0072150859	-0.2860637893	-0.24778
H	 0.5835147945	 2.1634807729	 0.1502813449	 0.118902
H	-0.9049171677	 1.9461036743	-0.7737449913	 0.110936
H	-0.9256449774	 1.7984181853	 0.9885496333	 0.11178
H	-1.0110077117	-0.4630817743	-0.0840772978	 0.095129
H	 0.4649214791	-0.1252940962	-0.9724150946	 0.108474
H	 0.51591449	 0.048200288	 2.053532996	 0.061981
H	 0.0666182756	-2.4937443315	 2.1031569675	 0.081324
H	 1.2767815698	-3.8423967359	 0.3198765486	 0.107418
H	 1.3012985061	-2.3839354714	-0.7714855846	 0.121431
H	 2.9332687582	-2.6923177991	 1.8593253462	 0.081631
H	 2.8429490486	-0.0927014063	 1.8312189062	 0.063091
H	 3.976870679	 1.1055744615	-1.2583922206	 0.125771
H	 2.7125618145	 1.7826911929	-0.2052965915	 0.112712
H	 4.2331948827	 1.1840071228	 0.504432381	 0.104892
39.5363	99.7181	124.9608	145.6283	170.8391	211.781	258.7771	301.2506	362.3171	428.1116	539.3048	553.0925	686.5886	773.4867	790.0613	806.2324	826.7711	919.6126	951.6247	979.1087	1000.7244	1010.5245	1026.5813	1044.7801	1062.828	1082.2723	1093.8605	1105.5454	1150.6279	1155.821	1178.7158	1181.97	1218.2829	1237.0821	1269.4993	1300.8826	1312.1592	1327.7053	1368.9332	1392.7589	1395.4497	1410.848	1478.8145	1482.9887	1486.215	1495.1371	1498.359	1501.3007	1511.0456	2979.5903	3008.5842	3025.0538	3029.3932	3033.3437	3040.937	3067.164	3097.6776	3101.2584	3110.5507	3129.6722	3176.1433	3186.357	3212.1642
CCC1C2CC2C1OC	CC[C@H]1[C@H]2C[C@H]2[C@H]1OC	
InChI=1S/C8H14O/c1-3-5-6-4-7(6)8(5)9-2/h5-8H,3-4H2,1-2H3	InChI=1S/C8H14O/c1-3-5-6-4-7(6)8(5)9-2/h5-8H,3-4H2,1-2H3/t5-,6+,7+,8-/m0/s1
