23
gdb 99756	1.77262	1.43558	0.95449	2.8218	82.93	-0.2347	-0.0183	0.2164	1374.3861	0.201397	-425.441171	-425.429702	-425.428758	-425.477951	40.658	
C	-0.1164248539	 1.382215717	 0.3277410636	-0.243963
O	-0.1110746968	 0.0615972349	-0.167631307	-0.230094
C	-1.3489777786	-0.6070521111	-0.0687085075	 0.038921
C	-1.1876356718	-1.9549092537	-0.8058187046	 0.036053
C	-2.4346364352	-2.842944969	-0.7027465395	-0.414628
C	-0.8003086786	-1.7214272292	-2.2713895462	-0.403386
C	-1.7373732577	-0.8365736263	 1.4118212287	 0.372701
C	-3.1832501093	-0.5842168108	 1.794907097	-0.487312
O	-0.9049328585	-1.179576016	 2.2171079437	-0.309493
H	 0.8671063449	 1.8070786093	 0.1144101274	 0.131462
H	-0.8829948071	 1.9984726625	-0.1686048324	 0.09971
H	-0.2835130956	 1.4155265801	 1.4131535327	 0.119134
H	-2.1412627415	-0.0115265785	-0.5587321455	 0.056131
H	-0.3572791059	-2.460301944	-0.2971539324	 0.103981
H	-2.2815722225	-3.76841723	-1.2660420451	 0.120072
H	-2.6637064345	-3.1247730588	 0.3293429059	 0.123549
H	-3.3164231985	-2.3467178576	-1.1263463835	 0.112079
H	 0.0810581536	-1.0827263791	-2.34564258	 0.136104
H	-0.5840363316	-2.6739073775	-2.7660997282	 0.109857
H	-1.6195252137	-1.2409911838	-2.8206335364	 0.105355
H	-3.8737252193	-1.0596968473	 1.0915079248	 0.139571
H	-3.3704402567	-0.9401719271	 2.8090055384	 0.142244
H	-3.3810657712	 0.4942411762	 1.7487887462	 0.141954
58.2189	74.6518	104.7553	143.4761	179.3923	195.4946	195.8444	220.2429	275.7142	286.9888	320.0997	354.4674	407.2605	434.7864	470.1437	587.5833	627.8662	829.5876	865.7589	930.2576	945.0247	951.9812	972.4208	992.1255	1035.839	1140.4231	1144.002	1164.617	1174.7313	1187.8237	1195.5611	1236.5282	1295.2399	1344.8682	1364.0357	1375.942	1384.9868	1397.9951	1421.1333	1461.6418	1473.2148	1480.0067	1488.5267	1491.7235	1493.9012	1506.5511	1507.9284	1514.9916	1817.2214	2934.8183	2976.809	3025.727	3028.0075	3033.6581	3037.5638	3040.2624	3089.2865	3096.963	3099.389	3108.0368	3117.95	3139.6998	3151.2694
COC(C(C)C)C(C)=O	CO[C@@H](C(C)C)C(=O)C	
InChI=1S/C7H14O2/c1-5(2)7(9-4)6(3)8/h5,7H,1-4H3	InChI=1S/C7H14O2/c1-5(2)7(9-4)6(3)8/h5,7H,1-4H3/t7-/m0/s1
