17
gdb 71352	3.34812	1.57064	1.24609	1.3961	73.29	-0.2433	0.0545	0.2978	1006.0237	0.136314	-417.868728	-417.861487	-417.860543	-417.900144	29.255	
O	 0.0927059203	 1.3631795541	 0.06592862	-0.461225
C	 0.0646568914	-0.0131435776	 0.0462366921	 0.363493
C	 0.7473061263	-0.9342943233	 1.0349006821	-0.223093
N	 0.0856227691	-1.9430767485	 0.093133383	-0.153755
C	-1.1517175342	-1.0185882476	-0.0413165161	-0.202781
C	-1.0641745325	-1.0875241519	-1.5533185463	 0.424437
C	-1.8097521262	-1.781373592	-2.6070919804	-0.331433
N	-1.7197347622	-0.290083002	-2.5786025211	-0.404835
C	 0.3874260934	-1.0164627253	-1.1178756311	-0.175929
H	-0.2760839408	 1.6885837398	-0.7642002052	 0.293237
H	 1.840309353	-0.9818564777	 1.0253136192	 0.108067
H	 0.3612471908	-0.9763724533	 2.0576667634	 0.107463
H	-2.0015570367	-1.1242663793	 0.6350537321	 0.084658
H	-1.2850791777	-2.2483778245	-3.4355177811	 0.128329
H	-2.7589053908	-2.2442977448	-2.3507136584	 0.120652
H	-2.5941747775	 0.0914376825	-2.2229946988	 0.2326
H	 1.3122245343	-1.1253863585	-1.6846779734	 0.090117
111.0625	232.1603	266.5816	304.892	338.6085	404.3213	486.6556	503.9978	566.0161	677.123	730.6532	826.6536	848.6619	860.3752	885.0092	899.0551	916.434	950.038	969.275	1019.7731	1043.916	1062.7206	1087.2781	1095.3938	1109.0746	1126.465	1143.8264	1183.2469	1195.7184	1253.8995	1262.5945	1273.8516	1321.9307	1382.6811	1462.5036	1526.6045	1533.124	3048.5484	3106.6526	3110.5846	3111.7164	3122.2577	3197.5344	3482.8583	3792.6612
OC12CN3C1C1(CN1)C23	O[C@@]12CN3[C@@H]1[C@]1(CN1)[C@@H]23	
InChI=1S/C6H8N2O/c9-6-2-8-3(6)5(1-7-5)4(6)8/h3-4,7,9H,1-2H2	InChI=1S/C6H8N2O/c9-6-2-8-3(6)5(1-7-5)4(6)8/h3-4,7,9H,1-2H2/t3-,4+,5-,6+
