14
gdb 50278	2.94377	1.31916	1.12204	1.2131	67.89	-0.2702	-0.0547	0.2156	1068.8084	0.099483	-436.65267	-436.644836	-436.643892	-436.685581	28.184	
O	-0.1800505726	 0.1092604587	-0.3366933868	-0.233902
C	 0.046145331	 1.1888239202	 0.1400760896	 0.144638
C	 1.3601711206	 1.9269633406	-0.0001054452	-0.009789
O	 2.4516881691	 1.1593971101	-0.5365255529	-0.26542
C	 2.6212484451	 2.0734583344	-1.6116816433	 0.076731
C	 1.4234208359	 2.1221588074	-2.4863742796	-0.339258
C	 1.4194251865	 2.9243048655	-1.1847465873	 0.088429
C	 1.2356519376	 4.3291229712	-1.1004699673	 0.201
N	 1.0797157019	 5.4734031031	-1.0163812754	-0.341673
H	-0.7244674436	 1.7648719381	 0.7008747593	 0.098848
H	 1.6417525461	 2.4028713745	 0.9470115917	 0.126253
H	 3.6278982781	 2.3672660044	-1.8817910914	 0.140897
H	 1.5107526925	 2.740710076	-3.3731078962	 0.151867
H	 0.7871011616	 1.2469168757	-2.5706354151	 0.161379
81.0157	109.0021	166.3711	211.1022	250.6089	360.9261	449.9746	506.3042	546.2784	593.9706	720.4148	752.0834	826.9573	869.9975	896.5294	950.2967	1001.2128	1029.8962	1056.9205	1065.7945	1104.0955	1122.8166	1198.1348	1216.752	1282.672	1354.0657	1377.4153	1416.588	1466.5839	1836.7736	2346.315	2882.0501	3045.7737	3133.6409	3204.2495	3234.2227
O=CC1OC2CC12C#N	O=C[C@H]1O[C@H]2C[C@@]12C#N	
InChI=1S/C6H5NO2/c7-3-6-1-4(6)9-5(6)2-8/h2,4-5H,1H2	InChI=1S/C6H5NO2/c7-3-6-1-4(6)9-5(6)2-8/h2,4-5H,1H2/t4-,5+,6-/m0/s1
