21
gdb 91447	2.34835	1.67718	1.30261	2.8745	81.96	-0.2278	0.0013	0.2291	1083.9093	0.182933	-387.109887	-387.101247	-387.100302	-387.142595	33.852	
C	-0.1011262143	 1.5264152757	 0.0063972458	-0.421167
C	 0.0655934835	 0.0079798023	 0.037432937	 0.00193
C	 1.015141815	-0.5643814238	-1.0794073807	-0.244272
C	 2.010874636	-1.3685900904	-0.2158735558	-0.141481
C	 2.2927472138	-0.3594088211	 0.9453626087	-0.288962
C	 0.7738218522	-0.5623129669	 1.3040043974	 0.206477
C	 0.1871524977	-0.2886669677	 2.6657416171	-0.505772
C	 1.0531213344	-1.99782051	 0.8093722811	 0.407752
O	 0.780751226	-3.098420426	 1.1904038353	-0.333619
H	 0.8538708472	 2.0461447275	 0.1368922208	 0.116326
H	-0.5177950225	 1.8432220527	-0.9560543583	 0.118372
H	-0.7815569829	 1.8722632511	 0.7912478065	 0.119171
H	-0.9289481772	-0.4462263237	-0.0447958899	 0.080709
H	 0.4867308285	-1.1869882862	-1.8061442377	 0.109695
H	 1.5216270177	 0.2370983942	-1.6269165494	 0.102639
H	 2.7961946873	-1.9344991982	-0.7123997642	 0.080998
H	 2.9634544199	-0.7536326056	 1.711491913	 0.11355
H	 2.6021427029	 0.6449469196	 0.6476500689	 0.104779
H	 0.2053757328	 0.7788503844	 2.9085370593	 0.119829
H	-0.8547311434	-0.6243619386	 2.7102800597	 0.127439
H	 0.7386917255	-0.8223639694	 3.4459108754	 0.125607
126.7682	164.2519	190.3196	215.4578	235.5153	261.8445	322.9974	416.2739	438.3096	512.6252	578.0698	667.5983	686.3377	779.757	796.1577	826.1376	856.016	891.7631	931.7759	950.7064	993.7849	1007.5436	1030.5153	1066.1876	1081.7755	1093.8236	1139.8023	1160.4033	1181.0913	1211.9368	1238.0991	1248.0571	1271.8242	1317.3924	1345.9771	1381.6863	1410.2639	1415.7499	1485.9881	1489.0576	1492.0862	1498.7799	1501.1643	1510.0929	1892.9496	3029.2396	3030.0757	3033.0727	3048.2082	3068.8351	3094.931	3096.7748	3098.069	3102.9514	3105.3428	3131.1077	3145.0711
CC1CC2CC1(C)C2=O	C[C@H]1C[C@H]2C[C@]1(C)C2=O	
InChI=1S/C8H12O/c1-5-3-6-4-8(5,2)7(6)9/h5-6H,3-4H2,1-2H3	InChI=1S/C8H12O/c1-5-3-6-4-8(5,2)7(6)9/h5-6H,3-4H2,1-2H3/t5-,6-,8-/m0/s1
