17
gdb 74487	3.29973	1.30712	1.01849	0.863	78.58	-0.2247	-0.0537	0.171	1160.8359	0.13655	-418.039656	-418.031584	-418.030639	-418.072175	31.559	
N	-0.0214234319	 1.3109010788	 0.1140739714	-0.5751
C	-0.0639375999	-0.0454771177	 0.0420381567	 0.267528
N	-1.1117595471	-0.7904531881	 0.029956974	-0.312968
C	-0.7097635298	-2.1779077857	 0.0054115499	 0.364534
C	-1.5916741868	-3.1574348272	 0.7414913584	-0.311138
C	-1.5918744164	-3.1303536367	-0.7659732633	-0.310257
C	 0.8137791624	-2.2730448822	 0.0011183862	-0.43607
C	 1.2310047638	-0.8088651571	-0.0036977392	 0.34806
O	 2.3330212157	-0.318508128	-0.0548189117	-0.325902
H	 0.8638999251	 1.7330133205	-0.1193955201	 0.268967
H	-0.8556270214	 1.8298212894	-0.1053326184	 0.263652
H	-1.1130064446	-3.9923372895	 1.2424054873	 0.112348
H	-2.4520685329	-2.7452185501	 1.2553520322	 0.12549
H	-2.4525546609	-2.6996064224	-1.2640025152	 0.124446
H	-1.1138825277	-3.9468187549	-1.2970164913	 0.112141
H	 1.2237742041	-2.768043945	 0.8876594428	 0.142932
H	 1.2237555584	-2.781899384	-0.8766115899	 0.141338
73.8934	154.472	251.8563	290.5351	311.0299	354.883	431.656	465.156	481.2907	507.4219	549.8608	630.3636	668.0597	761.2028	777.724	828.853	841.1741	928.222	935.9588	988.6328	991.0124	1056.8675	1076.3209	1111.7875	1134.66	1161.368	1193.4423	1215.8734	1283.4182	1350.4523	1416.7311	1443.0738	1454.8129	1493.8079	1605.3403	1714.518	1827.0463	3055.7984	3096.8892	3132.2189	3135.7382	3219.481	3233.531	3589.4269	3712.6682
NC1=NC2(CC2)CC1=O	NC1=NC2(CC2)CC1=O	
InChI=1S/C6H8N2O/c7-5-4(9)3-6(8-5)1-2-6/h1-3H2,(H2,7,8)	InChI=1S/C6H8N2O/c7-5-4(9)3-6(8-5)1-2-6/h1-3H2,(H2,7,8)
