19
gdb 36447	2.50636	1.36338	0.9893	1.4563	80.41	-0.2444	0.0466	0.291	1219.7177	0.157712	-385.820793	-385.811912	-385.810968	-385.854737	33.461	
C	-0.5886082399	-0.1190787753	 1.1045299976	-0.456569
C	-0.0954342869	 0.4344399398	 0.1577135711	 0.29701
C	 0.538040765	 1.1257472848	-0.9580135787	-0.366266
C	 1.7346713258	 1.9731920573	-0.5100560192	 0.073164
O	 2.3669253672	 2.6204007563	-1.6375103537	-0.297071
C	 2.2034785399	 3.9340533336	-1.0529315569	-0.141422
C	 1.4717076693	 3.3319580254	 0.1410457957	 0.299446
C	 0.2351376538	 3.8312776264	 0.8243612686	-0.329664
C	 1.5399155994	 3.7208449285	 1.5828485685	-0.325458
H	-1.0349795525	-0.6193347325	 1.927934171	 0.198116
H	 0.8953316561	 0.3998018643	-1.6991056683	 0.141071
H	-0.1847631735	 1.7715511548	-1.4699979687	 0.132817
H	 2.4481170574	 1.3402548734	 0.035183735	 0.086918
H	 3.171081523	 4.4033475197	-0.8311954452	 0.102752
H	 1.6203227493	 4.600746372	-1.7011365227	 0.103097
H	-0.1217042067	 4.8218225056	 0.5594713565	 0.112925
H	-0.5461148533	 3.1153013927	 1.0548280034	 0.133421
H	 1.6316361046	 2.9269425738	 2.3172034949	 0.122327
H	 2.0665332622	 4.6344828693	 1.8406692011	 0.113384
64.4402	80.5404	149.476	205.6795	252.1122	316.3733	357.7565	367.5621	439.6729	525.8025	578.008	628.6529	647.037	773.6001	800.6704	866.9352	894.2057	910.1619	956.3878	975.9095	995.3841	1022.1324	1031.1119	1057.773	1081.9208	1091.7826	1103.036	1152.2262	1190.1892	1203.1927	1251.1047	1271.3061	1314.2836	1329.8563	1383.748	1419.9134	1460.5805	1465.5433	1506.9986	1524.8459	2235.2667	3002.3394	3011.2295	3030.5248	3045.9694	3070.4856	3123.5307	3129.0084	3205.0105	3220.8505	3505.5554
C#CCC1OCC11CC1	C#CC[C@H]1OCC21CC2	
InChI=1S/C8H10O/c1-2-3-7-8(4-5-8)6-9-7/h1,7H,3-6H2	InChI=1S/C8H10O/c1-2-3-7-8(4-5-8)6-9-7/h1,7H,3-6H2/t7-/m1/s1
