19
gdb 115451	3.27947	1.03956	0.91875	2.2179	72.54	-0.2508	-0.0312	0.2196	1338.4249	0.15766	-460.173874	-460.164575	-460.163631	-460.2092	32.573	
C	-0.1203770087	 1.4965035609	 0.1776634018	-0.386601
C	-0.0131292317	-0.0108669595	-0.0654169354	-0.205601
C	-1.3618245182	-0.6974137769	-0.0386022504	 0.222746
O	-2.1786716694	-0.2387439627	-1.1028783637	-0.251601
C	-3.1114581285	-1.2641809777	-1.3770818236	-0.126692
C	-2.4471146939	-2.5462201645	-0.7611638424	-0.019307
O	-1.216859809	-2.0905391259	-0.2585883714	-0.241275
C	-3.3436230267	-3.149685276	 0.3115107728	 0.1438
O	-3.139519575	-3.0820365166	 1.4932647647	-0.231314
H	 0.8681201407	 1.9634722227	 0.1570450828	 0.116893
H	-0.7391370216	 1.9710124608	-0.5886389662	 0.135674
H	-0.5696858252	 1.7107998047	 1.1534521298	 0.118271
H	 0.445758466	-0.2196887496	-1.0374847165	 0.11068
H	 0.6113594831	-0.4830085257	 0.7004737762	 0.115591
H	-1.8802470865	-0.5343897678	 0.9225475846	 0.08125
H	-4.0867802945	-1.0530362783	-0.914484715	 0.108747
H	-3.2470181606	-1.338416645	-2.4589125578	 0.124329
H	-2.2598186729	-3.3110256242	-1.5249164132	 0.10837
H	-4.2490502277	-3.6579245985	-0.0999347271	 0.076039
43.0047	93.5654	100.4272	123.7126	173.1528	227.5065	286.7487	325.9321	406.1128	482.9669	689.1912	703.2885	742.5946	783.8641	848.9248	894.2333	915.6859	940.8572	959.8016	1011.2796	1071.4898	1103.3553	1115.8331	1133.9098	1152.1874	1182.4977	1224.869	1272.5995	1286.0639	1331.8481	1352.2139	1354.9463	1393.4557	1411.1764	1421.4271	1446.7979	1477.1704	1500.2535	1510.0736	1525.406	1844.4017	2842.9532	2956.4684	2996.1192	3038.5241	3040.8161	3049.5392	3089.2911	3091.2886	3110.2233	3124.5241
CCC1OCC(O1)C=O	CC[C@H]1OC[C@@H](O1)C=O	
InChI=1S/C6H10O3/c1-2-6-8-4-5(3-7)9-6/h3,5-6H,2,4H2,1H3	InChI=1S/C6H10O3/c1-2-6-8-4-5(3-7)9-6/h3,5-6H,2,4H2,1H3/t5-,6-/m0/s1
