18
gdb 111486	2.83546	1.46012	1.0817	4.7845	71.19	-0.2449	-0.0271	0.2178	1112.6568	0.148996	-439.087389	-439.079512	-439.078568	-439.119959	30.557	
O	 0.1964287846	 1.3403838469	 0.0738221513	-0.428697
C	 0.1032913036	-0.0654952674	 0.0135979988	-0.065267
C	-1.3598397351	-0.5420963446	 0.0051592625	-0.119095
C	-1.5845336015	-2.0349028892	-0.109937808	-0.068833
N	-1.1642717578	-2.7623475859	 1.107548066	-0.334151
C	-2.5963940373	-2.4779019174	 0.8917795591	-0.046032
C	-3.0624456603	-1.2892324134	 1.7020809626	-0.312747
C	-2.0858985703	-0.1727749899	 1.310405601	 0.394916
O	-1.8986743957	 0.8422953406	 1.9390904755	-0.332574
H	-0.3132753525	 1.6075808326	 0.8518396611	 0.295033
H	 0.5959579812	-0.3785276308	-0.9137523458	 0.100042
H	 0.6272739514	-0.5549537799	 0.8479901672	 0.106544
H	-1.8800758746	-0.0217500991	-0.8124193158	 0.109706
H	-1.4943825226	-2.524158431	-1.07400552	 0.095201
H	-0.9639203359	-3.7322402077	 0.8788118416	 0.238082
H	-3.2739117016	-3.2980150172	 0.6814615071	 0.096298
H	-4.0778571146	-0.9814064687	 1.4199730836	 0.130322
H	-3.0478308411	-1.4456801581	 2.783507192	 0.141254
82.0084	138.6573	185.1719	236.4046	351.8749	380.9969	454.7394	474.599	562.2271	580.3551	646.0616	679.3992	752.6575	819.7039	857.0295	882.2923	921.6842	965.462	989.6015	1021.157	1060.2035	1086.53	1092.1369	1116.2552	1150.5874	1156.952	1186.5822	1212.8842	1232.917	1273.7749	1303.3171	1315.0374	1374.661	1384.8024	1424.2115	1443.5488	1459.9929	1515.7749	1821.5798	2995.9415	3015.0927	3038.2408	3062.5504	3107.5292	3164.4457	3175.9063	3513.5863	3734.4356
OCC1C2NC2CC1=O	OC[C@H]1[C@H]2N[C@H]2CC1=O	
InChI=1S/C6H9NO2/c8-2-3-5(9)1-4-6(3)7-4/h3-4,6-8H,1-2H2	InChI=1S/C6H9NO2/c8-2-3-5(9)1-4-6(3)7-4/h3-4,6-8H,1-2H2/t3-,4+,6-/m1/s1
