14
gdb 44763	2.7363	1.72442	1.26024	5.7459	66.53	-0.2589	-0.0452	0.2137	962.8644	0.101209	-436.682118	-436.675041	-436.674096	-436.713748	27.027	
O	-0.0158228862	 0.0452526891	-0.0629196547	-0.29093
C	-0.0226290526	 1.2366374704	-0.023020726	 0.420243
C	-1.188668523	 2.2442810526	 0.0583911958	-0.34085
C	-0.3187706516	 3.5114573957	 0.0379325733	 0.060479
C	 0.7067417642	 3.2692606517	-1.0916721488	-0.277537
C	 1.1778270373	 2.2364698724	-0.0306344771	 0.191006
O	 0.7271846779	 3.1584574794	 1.0135884029	-0.312194
C	 2.5236407929	 1.7323875161	 0.0762473634	 0.188715
N	 3.5990540252	 1.3146967477	 0.1321885445	-0.322255
H	-1.8783995894	 2.1328878611	-0.7823620521	 0.14058
H	-1.7404365305	 2.1340716533	 0.994532778	 0.154097
H	-0.7795404314	 4.4791144734	 0.2210284226	 0.111992
H	 0.3652108049	 2.9049524012	-2.0629562716	 0.128907
H	 1.4246214122	 4.0830888859	-1.18845603	 0.147747
124.2052	135.3505	194.3359	386.1577	390.4181	478.4977	511.3619	521.3466	606.1566	628.0106	653.9084	777.0662	836.4179	858.7799	910.2853	942.766	979.271	998.8195	1014.2763	1067.7883	1129.8043	1137.571	1205.7095	1261.8914	1267.1752	1282.3346	1322.6769	1447.6847	1485.5783	1900.0013	2366.6819	3074.9477	3081.234	3130.0415	3155.1665	3162.0775
O=C1CC2CC1(O2)C#N	O=C1C[C@@H]2C[C@]1(O2)C#N	
InChI=1S/C6H5NO2/c7-3-6-2-4(9-6)1-5(6)8/h4H,1-2H2	InChI=1S/C6H5NO2/c7-3-6-2-4(9-6)1-5(6)8/h4H,1-2H2/t4-,6+/m1/s1
