16
gdb 77335	2.43749	1.3411	1.2117	4.3201	70.25	-0.2624	-0.0018	0.2606	1094.3814	0.126249	-434.086944	-434.078564	-434.07762	-434.120471	30.392	
N	-0.2833574114	 1.6013134511	-0.4866072405	-0.514777
C	-0.0870002713	 0.2350926928	 0.0038446879	-0.081004
C	-1.4397037931	-0.5204109905	 0.0764147585	-0.180672
C	-1.4683605247	-1.2545609946	-1.2876520492	-0.102912
O	-0.09966387	-1.4833781706	-1.6340894977	-0.235576
C	 0.7290427686	-0.6454576006	-0.9373891709	 0.411868
N	 1.9785065009	-0.5713486161	-1.0807792507	-0.539372
C	-1.4883424271	-1.458459331	 1.1953904938	 0.281179
N	-1.5300431439	-2.2023667709	 2.0786893846	-0.314333
H	 0.622725599	 2.0623849721	-0.5097440214	 0.254921
H	-0.6040970354	 1.587166025	-1.4525905514	 0.233137
H	 0.4006027154	 0.2927149377	 0.9768537972	 0.138117
H	-2.2636064261	 0.1902158456	 0.1743960993	 0.147314
H	-1.9799581744	-2.2171687822	-1.2523227575	 0.148979
H	-1.9408248999	-0.6268270826	-2.052690238	 0.122404
H	 2.3088526936	-1.2136599752	-1.8027902841	 0.230727
57.6919	126.4226	149.1733	226.8568	239.092	256.9231	362.192	447.3168	478.6216	561.0413	672.592	691.5003	768.2415	830.7985	840.8324	894.9783	916.0187	963.454	978.292	1027.314	1094.2284	1107.5317	1116.4403	1206.0073	1206.4161	1242.2347	1274.4859	1297.4036	1345.1462	1400.08	1419.0284	1522.0527	1665.2475	1781.1887	2361.11	3035.5826	3095.2858	3122.2638	3127.0877	3476.1273	3477.5493	3554.9383
NC1C(COC1=N)C#N	N[C@H]1[C@@H](CO[C]1[NH])C#N	
InChI=1S/C5H7N3O/c6-1-3-2-9-5(8)4(3)7/h3-4,8H,2,7H2	InChI=1S/C5H7N3O/c6-1-3-2-9-5(8)4(3)7/h3-4,8H,2,7H2/t3-,4+/m1/s1
