18
gdb 62893	3.22728	1.51063	1.18387	2.5175	72.83	-0.235	0.0635	0.2985	1060.3189	0.145748	-438.972015	-438.963768	-438.962823	-439.00417	32.668	
C	-0.0543168897	 1.5640738627	-0.0556081456	-0.484293
C	-0.0442719701	 0.0465787097	-0.0580193489	 0.435098
O	-1.2627606072	-0.4966659342	-0.4989653945	-0.474449
C	 1.2152153583	-0.6763530392	-0.6249915697	-0.11997
O	 1.9755345464	-0.1666601863	 0.5402514014	-0.312465
C	 0.7087777141	-0.6775548675	 1.1233710699	-0.129935
C	 0.8566154635	-1.9092841542	 0.2202061132	 0.486668
C	 0.1864810278	-3.1879631031	-0.0202004142	-0.322594
N	 1.5860623552	-3.1204689192	 0.488257823	-0.403963
H	 0.9127412927	 1.9580645274	 0.2549575472	 0.15147
H	-0.2958730692	 1.9398283281	-1.0550463043	 0.124468
H	-0.8190238007	 1.9376567841	 0.6375411871	 0.108466
H	-1.9770123073	 0.0449809174	-0.1488921789	 0.28373
H	 1.6790691039	-0.5992318429	-1.6098088514	 0.09095
H	 0.5836489271	-0.6046496368	 2.2038242491	 0.094005
H	-0.5363147378	-3.5780968235	 0.6904552078	 0.12166
H	 0.0135693051	-3.4856259724	-1.0514009417	 0.116519
H	 2.254609428	-3.3225945202	-0.2509158695	 0.234634
153.2963	181.7387	232.3397	235.5301	262.4065	337.5558	348.6824	384.642	449.1284	495.2062	609.9406	649.7326	741.1942	763.5966	791.3428	862.23	874.5249	907.4699	922.7226	960.1317	969.4074	1041.5167	1071.5723	1095.8241	1118.3133	1128.032	1139.7896	1141.2325	1221.7617	1224.5047	1238.535	1248.6384	1254.7969	1391.9966	1406.2459	1455.2912	1491.662	1503.486	1536.3541	3026.5145	3090.3332	3108.6141	3109.1362	3124.7954	3159.2923	3193.0758	3501.8036	3819.9674
CC1(O)C2OC1C21CN1	C[C@@]1(O)[C@H]2O[C@@H]1[C@]12CN1	
InChI=1S/C6H9NO2/c1-5(8)3-6(2-7-6)4(5)9-3/h3-4,7-8H,2H2,1H3	InChI=1S/C6H9NO2/c1-5(8)3-6(2-7-6)4(5)9-3/h3-4,7-8H,2H2,1H3/t3-,4+,5-,6-
