15
gdb 132560	3.05496	1.37496	0.95377	0.0031	72.15	-0.2249	-0.0256	0.1993	1142.7841	0.112502	-461.989316	-461.981452	-461.980508	-462.022391	29.367	
C	 0.0049584383	 1.4870931464	-0.042467774	-0.484133
C	 0.0259277492	-0.0155403732	-0.0123322021	 0.20043
N	 0.0454628869	-0.681589207	-1.1754477785	-0.410017
C	 0.0639799551	-2.009494374	-1.1628618442	 0.430612
O	 0.0833028066	-2.6399908667	-2.3585039057	-0.42189
C	 0.0645575557	-2.7774514169	 0.0044732557	-0.215849
C	 0.0444759248	-2.098555021	 1.2126090053	-0.183124
C	 0.0251776442	-0.7119049518	 1.1917927484	 0.210737
F	 0.0054406147	-0.0228635438	 2.3430754559	-0.081613
H	 0.8716365234	 1.9049283854	 0.4807910854	 0.13991
H	 0.012293717	 1.8313914401	-1.0771268972	 0.137839
H	-0.8856110127	 1.8799178759	 0.4597011868	 0.139942
H	 0.0793465043	-1.9411071219	-3.0265529494	 0.29745
H	 0.0802252588	-3.8582984443	-0.0503009661	 0.117303
H	 0.0435609637	-2.6220155572	 2.1619038098	 0.122403
40.9833	139.724	220.6103	267.7498	344.0844	378.7124	463.589	481.455	511.4797	516.0929	589.6941	637.5841	736.4897	774.214	784.6951	851.5728	962.145	964.2227	1018.7382	1057.2558	1125.1472	1193.2453	1202.3246	1284.8058	1336.656	1371.7064	1405.2235	1461.9318	1480.2276	1493.6958	1511.4852	1642.8	1652.8672	3041.0471	3093.63	3149.5271	3200.1186	3219.6365	3775.3735
CC1=NC(O)=CC=C1F	Cc1nc(O)ccc1F	
InChI=1S/C6H6FNO/c1-4-5(7)2-3-6(9)8-4/h2-3H,1H3,(H,8,9)	InChI=1S/C6H6FNO/c1-4-5(7)2-3-6(9)8-4/h2-3H,1H3,(H,8,9)
