19
gdb 6103	3.97264	1.1643	1.10516	6.0516	68.73	-0.2477	0.0288	0.2765	1154.9541	0.16498	-402.229259	-402.220404	-402.21946	-402.262971	32.008	
C	-0.3973783436	 1.4466795117	 0.0180718494	-0.32582
N	-0.3086099871	-0.0082467515	 0.136525808	-0.082009
H	-0.762916812	-0.969496095	-1.2899993902	 0.301639
C	 0.9785248117	-0.4074651765	 0.7064558631	-0.329699
C	-1.4526194606	-0.5683733711	 0.8796972737	-0.15739
C	-1.6781075613	-2.0586894528	 0.58696676	-0.353423
C	-1.9499041567	-2.4032490066	-0.8834749745	 0.403648
O	-1.282165017	-1.661436494	-1.7791369846	-0.375123
O	-2.6872668249	-3.2942398969	-1.2131770977	-0.331728
H	 0.4394710624	 1.8163855646	-0.5808563294	 0.131214
H	-1.3280668563	 1.7206833493	-0.4856360665	 0.135882
H	-0.368563465	 1.9521038247	 0.9984296696	 0.110295
H	 1.115762432	-0.020962158	 1.7307272077	 0.111176
H	 1.0632745231	-1.4958970057	 0.7348575919	 0.134632
H	 1.7891725247	-0.0235297658	 0.0815046971	 0.133873
H	-1.3336630801	-0.4127292743	 1.9650495418	 0.10049
H	-2.3435140795	-0.0097738336	 0.5746894025	 0.121544
H	-0.8117671499	-2.6503802844	 0.9073410508	 0.132778
H	-2.52847902	-2.4245223042	 1.1660265874	 0.138021
59.4396	103.8772	141.5261	226.397	244.9176	259.1782	329.2944	371.1398	405.2948	448.2639	516.1688	577.1035	706.7026	783.9331	821.5791	933.8607	964.1559	974.7312	1041.9951	1062.4653	1072.7738	1126.5138	1165.291	1186.1643	1245.0713	1278.188	1295.3306	1304.728	1358.9378	1403.3914	1444.119	1463.0089	1475.6686	1485.3719	1490.8208	1496.5241	1503.2567	1511.624	1514.987	1860.2762	2964.5027	2965.9156	2971.4074	3043.8577	3073.2114	3079.1399	3088.2834	3117.8229	3121.7145	3130.3263	3207.7014
C[NH+](C)CCC([O-])=O	CN(C)CCC(=O)O	
InChI=1S/C5H11NO2/c1-6(2)4-3-5(7)8/h3-4H2,1-2H3,(H,7,8)	InChI=1S/C5H11NO2/c1-6(2)4-3-5(7)8/h3-4H2,1-2H3,(H,7,8)
