25
gdb 88592	2.5075	1.07291	0.89785	0.1016	93.82	-0.2354	0.0837	0.3191	1472.4311	0.227792	-352.337056	-352.32641	-352.325466	-352.373239	39.687	
C	-1.9323805799	 1.4878305335	 2.2321128292	-0.40133
C	-1.7420105137	-0.0084527273	 2.1109690513	 0.004081
C	-0.8710620382	-0.601457635	 1.0296632785	-0.312322
C	-0.4451995729	-0.7044491821	 2.4789784315	 0.005883
C	 0.7541611604	 0.0469483811	 2.9716111146	-0.033921
C	 1.1357259294	 0.1137890053	 4.4409397748	-0.031416
C	 0.3206977297	-0.5593077346	 5.525704643	-0.402525
C	 2.0096591739	-0.6514039365	 3.4661215481	-0.037966
C	 2.1631897717	-2.1576610857	 3.4953922177	-0.403798
H	-1.034527082	 2.0399581677	 1.9405259699	 0.114547
H	-2.7487160144	 1.8286114994	 1.5853754851	 0.112978
H	-2.1789880647	 1.777882244	 3.2598136948	 0.115249
H	-2.6386048623	-0.5776473871	 2.3455391839	 0.077572
H	-1.200926684	-1.4959886483	 0.5120696104	 0.103999
H	-0.3188293152	 0.0923527175	 0.4019609039	 0.104919
H	-0.5798217693	-1.6862674393	 2.9205706461	 0.073071
H	 0.9426202815	 0.9598089002	 2.4129450253	 0.07202
H	 1.5430017377	 1.0712217014	 4.7585812737	 0.075486
H	-0.1076882653	-1.5119299782	 5.2056474628	 0.113666
H	 0.9342428093	-0.7571168446	 6.4120403537	 0.112537
H	-0.5126306856	 0.0804680465	 5.8373246868	 0.115937
H	 2.9352698628	-0.1463429294	 3.1986050434	 0.076609
H	 1.2539284135	-2.6737367334	 3.8116952777	 0.114715
H	 2.4284927495	-2.5424839583	 2.504326729	 0.117049
H	 2.9595681382	-2.4517642467	 4.188357665	 0.11296
27.4285	104.2918	145.9904	161.586	177.5692	188.8934	210.474	254.7267	291.7749	376.6563	414.4288	479.1047	490.0915	597.9955	749.5915	765.836	773.9727	804.9997	854.0654	896.647	927.6243	953.8537	957.8188	996.7666	1038.5617	1046.1844	1062.6005	1070.863	1101.2199	1108.8994	1138.0916	1145.4102	1158.0844	1189.8096	1198.0965	1206.2969	1239.6576	1280.4312	1318.2274	1376.9224	1398.3453	1417.8622	1420.5282	1423.369	1425.4142	1463.9991	1488.7167	1491.4294	1492.9977	1493.7032	1501.2524	1505.2759	1515.949	3028.8398	3029.5846	3033.0789	3083.643	3084.9753	3085.5809	3102.9651	3104.382	3113.392	3119.7763	3121.9055	3126.7266	3130.3842	3139.8379	3159.2748	3204.3356
CC1CC1C1C(C)C1C	C[C@H]1C[C@H]1[C@H]1[C@@H](C)[C@H]1C	
InChI=1S/C9H16/c1-5-4-8(5)9-6(2)7(9)3/h5-9H,4H2,1-3H3	InChI=1S/C9H16/c1-5-4-8(5)9-6(2)7(9)3/h5-9H,4H2,1-3H3/t5-,6-,7+,8+,9-/m0/s1
