22
gdb 9543	3.04621	1.49233	1.32785	1.3737	77.88	-0.2612	0.0738	0.3349	1069.4504	0.199047	-350.198271	-350.188868	-350.187924	-350.231712	35.454	
C	-0.0847995397	 1.5658439408	-0.0989474046	-0.415169
C	 0.0493730338	 0.0546766341	 0.0252058339	 0.004627
C	 1.0470563212	-0.6966753158	-0.8977003625	-0.237717
C	 1.3960091328	-1.6333438898	 0.2877669084	-0.243981
C	 0.7610876872	-0.5965253941	 1.2672081827	 0.340809
C	 1.8159172215	 0.2926492444	 1.9294224467	-0.448543
C	-0.1921427506	-1.1689011588	 2.3069695056	-0.137057
O	 0.5552336377	-1.951097531	 3.230161251	-0.426294
H	 0.8849826721	 2.067360089	-0.0205994718	 0.114743
H	-0.5159312705	 1.8337641649	-1.0703092328	 0.112149
H	-0.7391225339	 1.9810484092	 0.6761145892	 0.110551
H	-0.9441392157	-0.4002374094	-0.078571913	 0.061905
H	 0.6441082056	-1.1534372367	-1.8052019203	 0.090957
H	 1.891051184	-0.0605608611	-1.1831803673	 0.096919
H	 0.8290646878	-2.5683385382	 0.2607213217	 0.094546
H	 2.449687263	-1.875196024	 0.4459635116	 0.095389
H	 2.5434348795	 0.6681625413	 1.2030427692	 0.106819
H	 1.3584097756	 1.1582793641	 2.4221931362	 0.104989
H	 2.3564405202	-0.2790566581	 2.6880796796	 0.133204
H	-0.7192947311	-0.345803508	 2.8199365245	 0.07878
H	-0.95488929	-1.7838617362	 1.8022578094	 0.07589
H	-0.0502677203	-2.2993368565	 3.8905860626	 0.286485
90.4226	118.9697	188.9765	218.7991	239.6535	255.0876	267.5833	301.3111	358.937	362.1096	439.6617	517.8017	608.6493	716.412	786.2931	885.2292	894.1642	908.8098	948.1725	957.1517	971.0769	1004.2009	1060.8438	1074.618	1112.2	1146.5548	1177.8559	1200.0869	1221.5627	1224.5757	1256.672	1264.5067	1276.8037	1307.7353	1331.2196	1376.4778	1406.0077	1409.9779	1455.2219	1480.8944	1487.596	1492.2938	1499.6052	1501.3405	1508.4	1518.8954	2947.3075	2979.8816	3015.0062	3025.0711	3031.2516	3048.301	3056.058	3085.6282	3093.2972	3093.7647	3100.1671	3111.9495	3119.4769	3832.8876
CC1CCC1(C)CO	C[C@H]1CC[C@]1(C)CO	
InChI=1S/C7H14O/c1-6-3-4-7(6,2)5-8/h6,8H,3-5H2,1-2H3	InChI=1S/C7H14O/c1-6-3-4-7(6,2)5-8/h6,8H,3-5H2,1-2H3/t6-,7+/m0/s1
