21
gdb 86402	2.74485	1.32111	1.01438	2.1889	78.01	-0.2549	0.0697	0.3246	1236.5837	0.182701	-424.225942	-424.217206	-424.216262	-424.259299	34.263	
C	-0.0195210668	 1.5668310997	 0.013552059	-0.404748
C	 0.0400551535	 0.0411905517	-0.024908888	 0.035812
C	 0.8687298127	-0.5433009625	-1.185914028	-0.2488
C	 1.1247654243	-1.9958286235	-0.7452535341	 0.072061
O	 2.1388109652	-2.6917810837	-1.4231772277	-0.446553
C	 1.4236295668	-1.824130844	 0.7500108912	 0.387258
C	 1.9461796693	-2.9150286864	 1.5701810425	-0.253781
O	 2.8329302804	-1.9069375302	 1.0521326155	-0.285466
C	 0.6725014467	-0.5951728963	 1.2473713536	-0.315202
H	 0.9862554351	 1.9934990075	 0.1018645023	 0.116829
H	-0.4755806688	 1.9708097685	-0.8963615427	 0.11524
H	-0.6082550376	 1.9209020424	 0.8667519953	 0.113214
H	-0.9850397982	-0.3410533708	-0.1215896326	 0.074912
H	 0.3685147117	-0.4729273951	-2.1550943233	 0.099372
H	 1.8328323171	-0.0231669511	-1.2663434372	 0.09908
H	 0.1988392725	-2.575326307	-0.8651733215	 0.08704
H	 2.9559954757	-2.4802756856	-0.9478405583	 0.287524
H	 1.8124855472	-2.8945470764	 2.6506735239	 0.117177
H	 2.0703954503	-3.903411497	 1.1303626273	 0.123284
H	 1.3915389362	 0.0866947794	 1.7138238677	 0.119497
H	-0.0793718034	-0.8415163897	 2.0028374951	 0.10625
57.0084	135.3995	238.0685	255.1559	276.6349	294.8369	367.2159	415.5301	435.2587	487.5884	499.4768	530.7198	599.5863	720.1075	792.8138	838.5035	895.6469	917.6571	931.703	945.1153	981.4508	1001.6053	1063.9001	1102.6131	1127.3005	1133.8242	1151.6791	1167.9976	1176.8532	1221.2705	1237.9406	1260.3616	1279.4142	1302.2656	1345.5459	1366.8786	1378.7987	1410.7779	1418.425	1449.3839	1479.522	1493.3182	1497.6309	1500.211	1523.8229	3007.1513	3011.7053	3025.3326	3030.629	3048.1732	3085.8856	3090.2683	3093.9711	3097.2989	3102.0606	3174.9604	3722.1905
CC1CC(O)C2(CO2)C1	C[C@H]1C[C@@H](O)[C@]2(CO2)C1	
InChI=1S/C7H12O2/c1-5-2-6(8)7(3-5)4-9-7/h5-6,8H,2-4H2,1H3	InChI=1S/C7H12O2/c1-5-2-6(8)7(3-5)4-9-7/h5-6,8H,2-4H2,1H3/t5-,6+,7+/m0/s1
