19
gdb 110089	1.73842	1.25604	0.84613	3.5407	79.22	-0.2537	-0.0418	0.2119	1406.0684	0.156568	-423.033934	-423.024136	-423.023192	-423.069479	34.536	
C	 0.2412031796	 1.520281221	 0.1779157115	-0.379301
C	-0.2252030924	 0.0893951458	-0.1140275664	-0.215762
C	 0.5760097092	-0.5556258921	-1.2328696877	-0.029295
C	 1.9211352336	-1.2182165563	-1.0223064293	-0.132368
C	 2.5407789983	-1.3551107839	 0.3194540285	 0.159779
O	 3.7337835194	-1.3123613983	 0.4967057286	-0.26214
C	 0.6805217472	-2.0493176187	-1.4430210675	-0.157197
C	 0.0469870931	-3.033680851	-0.5295434289	 0.161148
O	-0.3980708145	-4.0877515023	-0.9126348991	-0.260322
H	 1.2816673909	 1.5379516744	 0.5181022087	 0.130478
H	 0.1746058068	 2.1474172874	-0.7175052217	 0.122547
H	-0.3754024261	 1.9804800158	 0.9552008526	 0.123185
H	-0.1793717067	-0.5033522049	 0.8039190178	 0.107795
H	-1.2805885327	 0.0984170762	-0.4126230991	 0.116441
H	 0.5205304928	 0.0039630003	-2.1640313681	 0.113824
H	 2.6646794135	-1.0939133246	-1.8027400069	 0.122471
H	 1.8468834554	-1.4896741965	 1.1759742506	 0.077822
H	 0.7046850811	-2.4043119787	-2.4681833999	 0.123303
H	-0.0114096385	-2.7516195636	 0.5426927063	 0.077591
63.0177	72.1983	102.96	163.0893	193.1519	222.1511	263.1283	273.0861	366.7648	417.4049	431.5257	502.7795	568.5062	743.0031	817.0385	866.3692	891.992	945.0436	958.0926	1010.0842	1044.6466	1046.6063	1052.8277	1107.7677	1145.8897	1173.4585	1190.8045	1248.203	1292.667	1329.8792	1335.3883	1358.9281	1413.1434	1423.731	1434.5931	1471.2132	1491.0813	1499.1862	1507.8135	1807.4258	1815.8819	2891.1703	2914.3731	3036.217	3038.7696	3079.1311	3107.6144	3113.9645	3134.5602	3168.7646	3178.21
CCC1C(C=O)C1C=O	CC[C@H]1[C@@H](C=O)[C@H]1C=O	
InChI=1S/C7H10O2/c1-2-5-6(3-8)7(5)4-9/h3-7H,2H2,1H3	InChI=1S/C7H10O2/c1-2-5-6(3-8)7(5)4-9/h3-7H,2H2,1H3/t5-,6+,7-
