21
gdb 73717	2.65071	1.81267	1.36455	1.5598	81.06	-0.2215	0.0869	0.3084	1027.31	0.18471	-387.070587	-387.063033	-387.062089	-387.101976	31.364	
C	-0.0026261872	 1.4715498878	 0.0618620764	-0.463785
C	-0.0000682986	-0.0457624395	 0.0280288744	 0.29426
C	 1.122050853	-0.6509366935	-0.8084409868	-0.263086
C	 1.124190499	-2.1887016917	-0.9113602447	-0.205949
C	-0.2862677644	-2.7849963142	-1.0428094854	-0.217751
C	-1.1872287368	-2.1959342608	 0.0358329735	 0.09196
O	-0.4796619937	-2.0961753216	 1.3177573139	-0.308733
C	-0.5913315829	-0.6760489162	 1.2722813233	 0.058363
C	-1.3801054952	-0.6731088006	-0.0132206012	-0.184969
H	 0.9332114364	 1.8566625254	 0.4826399783	 0.118093
H	-0.1107974624	 1.8869954471	-0.9469076099	 0.117002
H	-0.8275494884	 1.859624878	 0.668989934	 0.113839
H	 1.0280962734	-0.2213719085	-1.8166427934	 0.092096
H	 2.0932697884	-0.310284225	-0.4270075047	 0.094322
H	 1.7450247992	-2.4946557703	-1.7600332936	 0.085602
H	 1.5805487023	-2.6081829554	-0.0117654113	 0.120231
H	-0.7301310638	-2.5649542572	-2.0229277597	 0.097063
H	-0.2378692415	-3.8757668077	-0.9503023853	 0.099699
H	-2.1183190281	-2.7548320117	 0.1714844676	 0.078303
H	-0.7223820752	-0.1541819693	 2.2145148871	 0.097027
H	-2.2837065235	-0.1518257849	-0.3030052728	 0.086414
171.7667	218.0021	251.0518	301.1541	306.5355	355.0579	413.8217	482.1365	549.0491	632.9364	683.1633	726.5963	818.0221	849.0022	861.8241	871.5613	903.8522	928.5619	944.8306	980.1792	1022.6679	1044.4483	1051.5825	1062.9303	1068.6497	1106.6467	1117.1345	1160.7938	1194.4078	1221.6683	1244.8236	1268.6585	1279.3869	1319.1589	1348.8387	1373.2058	1382.8386	1393.5948	1412.0977	1424.1275	1477.1558	1480.9797	1489.9879	1495.7495	1506.9816	2996.7739	3020.8141	3021.7022	3035.9589	3050.4584	3055.6536	3067.9377	3082.5919	3092.7993	3104.3857	3163.7969	3187.723
CC12CCCC3OC1C23	C[C@@]12CCC[C@H]3O[C@@H]1[C@@H]23	
InChI=1S/C8H12O/c1-8-4-2-3-5-6(8)7(8)9-5/h5-7H,2-4H2,1H3	InChI=1S/C8H12O/c1-8-4-2-3-5-6(8)7(8)9-5/h5-7H,2-4H2,1H3/t5-,6+,7-,8+/m1/s1
