23
gdb 99256	4.33521	0.59785	0.54212	3.0161	83.31	-0.2647	-0.0231	0.2416	2073.9737	0.202322	-425.455428	-425.444157	-425.443213	-425.493777	39.845	
C	-0.0953138991	 1.5582028113	 0.0744219052	-0.389823
C	-0.0205170257	 0.0258583424	 0.0331917872	 0.034368
C	 0.9235786697	-0.4976039382	 1.1255322304	-0.382864
C	-1.4326201235	-0.5766817798	 0.1311912013	-0.162492
C	-1.4945289093	-2.0920029615	-0.0783641584	-0.321052
C	-2.9036692687	-2.6344021547	-0.2079816242	 0.352413
O	-3.8703998942	-1.9368584315	-0.4356756697	-0.319952
C	-3.1048584068	-4.1382441469	-0.0562199556	-0.126791
O	-4.4277918963	-4.5041212457	-0.307029833	-0.420144
H	 0.896876771	 2.0068736704	-0.0394969402	 0.11037
H	-0.7353299159	 1.9478784614	-0.7238819673	 0.113495
H	-0.5078789683	 1.904116483	 1.0297058919	 0.113998
H	 0.3981594706	-0.2637181476	-0.9423911717	 0.070223
H	 0.5339307928	-0.2609830485	 2.1232468945	 0.113151
H	 1.0633205406	-1.5817829193	 1.0705830715	 0.109798
H	 1.9130309567	-0.0367053118	 1.0402510637	 0.113872
H	-1.8674347428	-0.3295810061	 1.1088287749	 0.10099
H	-2.0833851895	-0.1046052945	-0.6117682666	 0.117387
H	-0.9684843247	-2.3706374623	-1.004845143	 0.132159
H	-0.9822757332	-2.6438118719	 0.7189155959	 0.121544
H	-2.4108052646	-4.6586412426	-0.7362049663	 0.113083
H	-2.7939474056	-4.4138963695	 0.967044654	 0.112767
H	-4.8933671731	-3.664092976	-0.4515470143	 0.293499
17.419	49.8375	94.2558	111.5262	130.608	223.0068	239.0717	247.7086	273.0899	351.6444	400.6105	402.7715	421.7483	473.7047	497.9712	691.815	736.6508	812.3342	868.3174	901.8798	926.3533	960.0742	967.5499	996.7099	1037.509	1081.315	1138.3254	1141.6785	1156.1575	1194.7857	1221.7373	1255.0204	1291.0636	1313.7754	1320.3035	1358.8351	1372.6327	1397.9631	1401.5632	1423.7947	1451.2592	1453.7738	1483.8177	1489.2451	1492.0652	1497.5435	1505.4593	1511.5606	1794.3232	2959.0864	2987.5875	2990.2424	3003.2756	3024.6943	3026.3824	3031.8262	3054.8688	3083.8766	3089.6497	3095.6693	3100.7971	3102.7514	3676.218
CC(C)CCC(=O)CO	CC(C)CCC(=O)CO	
InChI=1S/C7H14O2/c1-6(2)3-4-7(9)5-8/h6,8H,3-5H2,1-2H3	InChI=1S/C7H14O2/c1-6(2)3-4-7(9)5-8/h6,8H,3-5H2,1-2H3
