17
gdb 124884	3.68476	1.30079	1.06158	2.0832	73.75	-0.2389	0.0078	0.2467	1130.4303	0.138483	-414.188671	-414.180801	-414.179857	-414.221829	29.509	
C	-0.046625021	 1.492922436	 0.0285691673	-0.464828
C	-0.0394264624	-0.0202334932	-0.0356408136	 0.197758
C	 0.6915181951	-0.704780421	-1.1333789866	-0.270166
N	 1.23805893	-0.7351757041	 0.2325055109	-0.337775
C	-1.2370355101	-0.6754228938	 0.5540425265	 0.364002
N	-1.6451932976	-1.8882461793	 0.2064681924	-0.276304
N	-2.720867559	-2.0704394196	 1.0061671877	-0.179073
C	-2.9224745282	-0.9839465055	 1.7758796002	 0.01211
N	-2.0036115396	-0.0762119426	 1.5173964685	-0.316107
H	 0.8602892743	 1.8970338678	-0.4326576808	 0.103513
H	-0.9114549086	 1.9073310688	-0.4993996404	 0.127296
H	-0.1012165246	 1.8372142848	 1.0648726206	 0.143031
H	 0.3311382723	-1.6613213601	-1.4972406381	 0.137241
H	 1.1710025022	-0.0758515162	-1.8797639591	 0.104524
H	 1.9828091953	-0.0461928785	 0.3195916723	 0.225811
H	-3.2429608873	-2.9297397737	 0.9560333713	 0.282686
H	-3.7301320108	-0.90158728	 2.487651211	 0.146282
32.8142	162.8907	199.6374	219.4487	323.2976	351.1893	432.407	485.1465	544.6772	560.575	681.4142	782.917	816.438	850.1188	858.2681	939.9894	972.8847	986.8732	1002.078	1014.1069	1059.2493	1107.1244	1122.9382	1151.0149	1170.8492	1248.333	1278.4219	1316.509	1322.1668	1376.624	1418.0108	1471.5765	1478.2579	1485.6705	1503.2095	1524.4661	1557.3198	3036.2499	3103.442	3110.1987	3117.6103	3205.6816	3258.1385	3481.3753	3665.2057
CC1(CN1)C1=NNC=N1	C[C@]1(CN1)c1n[nH]cn1	
InChI=1S/C5H8N4/c1-5(2-7-5)4-6-3-8-9-4/h3,7H,2H2,1H3,(H,6,8,9)	InChI=1S/C5H8N4/c1-5(2-7-5)4-6-3-8-9-4/h3,7H,2H2,1H3,(H,6,8,9)/t5-/m0/s1
