21
gdb 64390	2.19359	1.52403	1.13346	1.5195	83.79	-0.2553	0.0548	0.3102	1175.2453	0.181279	-387.077117	-387.067627	-387.066683	-387.111747	36.936	
C	-0.3177778049	 1.5364873366	-0.0995291996	-0.450973
C	 0.0333151325	 0.0534737456	-0.0482324815	 0.378133
O	-1.1688467001	-0.7330357289	-0.0260056236	-0.475212
C	 0.9339666689	-0.4186647992	-1.207097482	-0.229115
C	 1.4926749889	-1.756569847	-0.7114016014	-0.207852
C	 1.8742621059	-1.4453700777	 0.7453254199	-0.223072
C	 0.8014903572	-0.4206427746	 1.2445514049	-0.181922
C	 1.3852726456	 0.642489372	 2.0486343429	 0.330078
C	 1.8916926336	 1.5028830142	 2.7198105121	-0.477586
H	 0.5768597774	 2.1620041953	-0.056954054	 0.12797
H	-0.8484244896	 1.7639157739	-1.0322990725	 0.096013
H	-0.9658207892	 1.8071768483	 0.7383155288	 0.12797
H	-1.6720734186	-0.516079	-0.8185377789	 0.274434
H	 0.3772036663	-0.4870953377	-2.1481012939	 0.081827
H	 1.7482309923	 0.3015269798	-1.3569940433	 0.099611
H	 0.7039378122	-2.5141079467	-0.7466562172	 0.110739
H	 2.3392137955	-2.1205674211	-1.2995820701	 0.092289
H	 1.9141772912	-2.3312368043	 1.3833645582	 0.105062
H	 2.8611889134	-0.9744687913	 0.7808442721	 0.109612
H	 0.0492543884	-0.9364613193	 1.8493004098	 0.120397
H	 2.3295747931	 2.263034332	 3.3177815693	 0.191597
19.743	154.4492	197.5416	233.855	242.2013	302.9479	308.4665	369.8177	394.2543	419.9802	502.1468	540.4284	573.0759	586.7777	613.8507	635.1062	729.1709	834.4725	879.6028	892.6837	923.861	936.6578	985.9742	998.5352	1034.3447	1056.4956	1094.3581	1128.635	1180.0349	1189.9204	1211.8243	1243.6594	1294.4769	1317.9031	1334.8575	1340.7859	1353.2527	1368.4365	1412.2688	1476.7596	1486.142	1488.9678	1490.201	1504.3142	2230.803	3026.6332	3031.3139	3055.4846	3057.0281	3059.7611	3075.3097	3099.7805	3101.6568	3113.8179	3130.8982	3504.1545	3802.439
CC1(O)CCCC1C#C	C[C@@]1(O)CCC[C@H]1C#C	
InChI=1S/C8H12O/c1-3-7-5-4-6-8(7,2)9/h1,7,9H,4-6H2,2H3	InChI=1S/C8H12O/c1-3-7-5-4-6-8(7,2)9/h1,7,9H,4-6H2,2H3/t7-,8-/m1/s1
