18
gdb 124810	2.45195	1.40144	1.00185	3.5982	73.58	-0.2587	-0.0119	0.2467	1206.9299	0.1463	-439.087348	-439.078036	-439.077092	-439.121969	33.45	
C	 0.02309227	 1.441048744	-0.2645653254	-0.393249
C	 0.0359314225	-0.0300379784	 0.1816260093	 0.041581
O	 0.5760713582	-0.1517239731	 1.4831550064	-0.433987
C	-1.3425377591	-0.6365198633	 0.0929174377	 0.311388
N	-2.0250818734	-0.8099178356	 1.1972488983	-0.225458
O	-3.2457269624	-1.3495155284	 0.8218277824	-0.176251
C	-3.2512585244	-1.4855278923	-0.5137930683	 0.006481
C	-2.0834449759	-1.0566115034	-1.0592104299	 0.057223
C	-1.6676903362	-1.0445564147	-2.4963317303	-0.514377
H	 1.0317065552	 1.8520928005	-0.1738596931	 0.129996
H	-0.3052051269	 1.5471039248	-1.303817607	 0.112413
H	-0.6501658466	 2.020980024	 0.3737247857	 0.126668
H	 0.6991740131	-0.5912826801	-0.4917952118	 0.091122
H	-0.1638613773	-0.217900296	 2.0994559415	 0.299943
H	-4.1497903524	-1.9074289433	-0.9382164814	 0.152018
H	-1.5271886719	-0.025096317	-2.8719610957	 0.14101
H	-0.7212264505	-1.5762666841	-2.6435339519	 0.140381
H	-2.4208668719	-1.5269998036	-3.1245299665	 0.1331
40.479	122.7575	152.2015	178.0756	226.8467	243.1116	267.082	300.6589	361.2325	456.4161	517.0842	609.9243	620.3924	721.5325	747.9696	839.7098	900.7766	942.2982	966.2179	1019.3874	1039.2514	1067.5924	1098.3768	1116.6447	1153.7141	1199.6179	1272.5411	1307.1558	1354.9862	1394.4634	1412.2249	1424.5276	1450.9688	1483.0351	1487.2183	1491.9432	1501.5029	1516.2977	1653.9651	3006.0919	3033.8176	3038.679	3085.7311	3112.284	3116.7404	3127.5121	3259.4813	3777.616
CC(O)C1=NOC=C1C	C[C@@H](O)c1nocc1C	
InChI=1S/C6H9NO2/c1-4-3-9-7-6(4)5(2)8/h3,5,8H,1-2H3	InChI=1S/C6H9NO2/c1-4-3-9-7-6(4)5(2)8/h3,5,8H,1-2H3/t5-/m1/s1
