18
gdb 106741	2.28765	1.53003	1.09545	3.9241	73.06	-0.2475	0.0053	0.2527	1143.0162	0.14684	-439.080209	-439.071247	-439.070302	-439.114125	33.309	
C	-0.0144937233	 1.4903185107	 0.0975318241	-0.477682
C	 0.0484555261	-0.0060066347	 0.0999538465	 0.302726
C	 1.2117025573	-0.8576566899	-0.3154398978	-0.358102
C	 0.6470748872	-0.987579295	 1.105250827	 0.094522
C	 1.4266839427	-0.8785889802	 2.3836732245	-0.178122
O	 1.9572404406	-2.1395193601	 2.7607230135	-0.415222
C	-0.6503711624	-1.758766216	 0.9702907009	 0.403825
O	-1.0843569156	-2.7793929751	 1.4347891968	-0.363596
N	-1.1948022243	-0.8069083958	 0.0916385127	-0.397466
H	 0.9669101711	 1.9178471247	 0.3219677379	 0.129901
H	-0.3213164728	 1.8679435066	-0.8846605658	 0.129597
H	-0.7337358574	 1.8512305795	 0.8384950752	 0.136729
H	 1.0813653868	-1.6604539361	-1.0359136231	 0.120864
H	 2.1809340216	-0.3663341529	-0.3595343195	 0.124582
H	 2.2801919937	-0.2021271796	 2.2683098531	 0.108808
H	 0.784433794	-0.4652673723	 3.1773108859	 0.099495
H	 1.216887241	-2.7578679923	 2.7924	 0.299419
H	-1.7029453865	-1.0548202514	-0.7512823018	 0.239722
54.4241	116.7001	157.8867	209.3457	233.0778	274.3254	351.7021	382.6858	426.3302	489.6234	514.4815	578.0202	652.8938	707.2986	745.2775	836.5588	861.9119	893.2615	953.3287	973.8447	993.6551	1052.1304	1070.7487	1093.5554	1111.3404	1156.558	1228.5136	1254.9436	1314.4889	1345.5579	1373.9325	1397.521	1423.8791	1442.3717	1480.147	1493.5497	1503.8801	1508.294	1878.1782	2979.075	3034.1467	3067.501	3096.3746	3108.2429	3119.5834	3195.5888	3531.9478	3786.5509
CC12CC1(CO)C(=O)N2	C[C@@]12C[C@]1(CO)C(=O)N2	
InChI=1S/C6H9NO2/c1-5-2-6(5,3-8)4(9)7-5/h8H,2-3H2,1H3,(H,7,9)	InChI=1S/C6H9NO2/c1-5-2-6(5,3-8)4(9)7-5/h8H,2-3H2,1H3,(H,7,9)/t5-,6+/m1/s1
