23
gdb 74980	2.75515	1.36194	1.13076	0.3001	91.62	-0.2241	0.0328	0.257	1223.9578	0.206402	-351.175387	-351.166548	-351.165604	-351.208342	35.203	
C	 0.2628397547	 1.5477676714	 0.2053811787	-0.488497
C	 0.0270274932	 0.0758030256	 0.0716140046	 0.329684
C	 0.2174508237	-0.6754628667	-1.018010488	-0.184928
C	-0.1212467924	-2.1237617652	-0.8139127661	-0.086129
C	 1.090931028	-3.0822665047	-0.6167351259	-0.220825
C	 0.9675804787	-2.8856754754	 0.9186908275	-0.263413
C	-0.4274780229	-2.2018046389	 0.728292521	 0.371002
C	-1.6029058883	-3.0747698676	 1.1431009045	-0.478214
C	-0.5095629996	-0.74453786	 1.2288183791	-0.37595
H	 0.9956331103	 1.7623214252	 0.9940454263	 0.122247
H	 0.6287950713	 1.9866267145	-0.7269528517	 0.12068
H	-0.6586176383	 2.0722821976	 0.4904039531	 0.122403
H	 0.5849234754	-0.2916062702	-1.9657751502	 0.078916
H	-0.8919150728	-2.4809509166	-1.5073658716	 0.060258
H	 0.8688868018	-4.1055896115	-0.9324150408	 0.094651
H	 2.0336643313	-2.7763735476	-1.0776653514	 0.092131
H	 0.9712701589	-3.7951869775	 1.5260360032	 0.09136
H	 1.7184152081	-2.2009969352	 1.3220541089	 0.095775
H	-1.6546451227	-3.1751587879	 2.2339822181	 0.111149
H	-2.553134974	-2.6478843441	 0.8018828379	 0.110988
H	-1.5211718146	-4.0838079959	 0.7234241529	 0.109762
H	 0.0730863407	-0.5944583913	 2.1487227733	 0.094442
H	-1.5403308503	-0.444683048	 1.4727733466	 0.092508
101.0836	143.9842	191.2895	248.9727	257.4332	288.9619	337.84	374.2043	410.2483	468.5179	531.3822	625.2249	673.4084	748.0027	830.7237	852.3879	866.2293	885.9373	902.5919	946.5346	953.5686	965.6683	998.361	1007.2638	1047.3133	1050.6201	1101.9892	1125.5604	1170.3228	1178.6666	1204.5901	1223.2466	1235.3487	1264.6104	1277.2676	1284.8277	1296.5057	1341.3775	1354.3134	1412.61	1412.98	1476.3261	1479.2357	1481.8004	1487.9831	1493.8519	1495.0857	1499.0602	1714.0672	2987.1772	3014.0399	3016.8304	3020.2314	3027.6331	3049.7801	3057.2658	3058.3186	3081.5442	3086.5641	3093.751	3108.1523	3112.4184	3167.1108
CC1=CC2CCC2(C)C1	CC1=C[C@H]2CC[C@@]2(C)C1	
InChI=1S/C9H14/c1-7-5-8-3-4-9(8,2)6-7/h5,8H,3-4,6H2,1-2H3	InChI=1S/C9H14/c1-7-5-8-3-4-9(8,2)6-7/h5,8H,3-4,6H2,1-2H3/t8-,9+/m1/s1
