18
gdb 84224	3.17834	1.51448	1.32975	3.7629	77.89	-0.2124	-0.0491	0.1633	1032.9793	0.145175	-401.823919	-401.815862	-401.814918	-401.856003	31.752	
C	-0.2122815902	 1.5055361176	-0.22252795	-0.368296
C	-0.0424286676	 0.0046234234	-0.0312418345	 0.031333
N	 0.8388835096	-0.4897659657	-1.1687108331	-0.245962
C	 1.6331250268	-1.2437669622	-0.534404706	 0.262452
O	 2.9476374117	-0.8685245006	-0.2407371945	-0.300181
C	 2.3630917609	-0.7876928919	 1.1525951501	 0.432278
C	 3.3575358424	-0.5544497727	 2.2402167052	-0.4967
C	 0.776944314	-0.4152410371	 1.2230457592	-0.135243
C	 1.313754579	-1.7697324623	 0.8990819544	-0.259241
H	 0.7631258942	 1.9918454069	-0.3053870619	 0.130695
H	-0.7800232573	 1.7170085717	-1.131974503	 0.129238
H	-0.7497032958	 1.930190003	 0.6337571857	 0.106293
H	-1.0299579068	-0.4816524207	 0.0027712743	 0.084021
H	 3.8223091621	 0.4304618933	 2.1392749799	 0.146563
H	 2.8620859889	-0.6039517453	 3.2137315555	 0.135057
H	 4.1432805594	-1.3151253645	 2.2050072101	 0.14301
H	 0.4223630875	-0.1649348646	 2.2216173612	 0.090695
H	 1.1042504613	-2.7694886284	 1.2561545972	 0.113988
119.956	180.5466	200.4923	244.0572	289.9556	332.3092	396.0974	472.3018	509.1506	570.5137	613.4047	663.5144	701.2479	743.3716	813.327	834.9904	878.0384	907.547	934.9303	999.3537	1026.6722	1051.8996	1056.2363	1085.6796	1098.0182	1117.8605	1166.4538	1199.338	1243.5016	1270.0777	1343.3954	1398.0812	1401.0923	1434.3601	1470.7551	1477.7611	1494.265	1496.191	1626.5211	2975.5507	3033.5122	3043.6872	3108.5902	3115.2084	3124.0105	3130.4218	3133.562	3196.5185
CC1N=C2OC3(C)C1C23	C[C@H]1[N][C]2O[C@@]3(C)[C@@H]1[C@@H]23	
InChI=1S/C7H9NO/c1-3-4-5-6(8-3)9-7(4,5)2/h3-5H,1-2H3	InChI=1S/C7H9NO/c1-3-4-5-6(8-3)9-7(4,5)2/h3-5H,1-2H3/t3-,4+,5+,7+/m1/s1
