20
gdb 106231	2.57984	1.43631	1.22211	1.3025	78.37	-0.2376	0.0175	0.255	1137.0769	0.170923	-403.155372	-403.146511	-403.145567	-403.188977	33.149	
C	 0.3874293588	 1.4124623338	-0.3339330609	-0.372104
C	-0.2187984733	 0.1017987387	 0.1806763239	-0.270928
C	 0.5794787519	-0.5001059835	 1.3117786701	 0.315241
N	 1.8987979254	-1.0013769425	 0.9691367529	-0.296038
C	 2.0927349007	-2.0230464682	 1.6997505474	 0.081811
O	 1.112619833	-2.4176119698	 2.5534959777	-0.210736
C	 0.0730952711	-1.4588221128	 2.3871690321	-0.016658
C	 0.3995279817	-0.0364134815	 2.7559675398	-0.089945
C	 1.5190527776	 0.3573864019	 3.6913650582	-0.416627
H	 1.4148467359	 1.2509338504	-0.670915916	 0.140442
H	-0.1918750672	 1.8109903686	-1.1722586273	 0.107666
H	 0.4080812084	 2.172718766	 0.454122047	 0.112392
H	-1.2465621277	 0.2709020707	 0.524242324	 0.09234
H	-0.2762959996	-0.6265358909	-0.6374601701	 0.104086
H	 2.9841758091	-2.638584473	 1.7170865363	 0.141948
H	-0.9141619713	-1.8946730275	 2.4801662208	 0.108235
H	-0.5045906937	 0.5583118803	 2.8732402236	 0.091753
H	 2.4339883121	-0.2079006713	 3.5029592399	 0.132998
H	 1.7591443595	 1.4188819033	 3.5747771712	 0.123232
H	 1.2298674676	 0.1877399275	 4.7338469793	 0.120892
80.589	117.5784	144.6066	203.2659	216.5942	243.9222	318.2592	355.718	447.6524	549.0087	618.2483	694.3445	742.8776	762.3004	796.3255	880.375	906.2074	942.3824	956.9598	959.263	977.7097	1010.491	1052.7607	1086.5988	1111.2356	1124.6169	1141.5391	1164.9364	1237.0361	1262.251	1298.0285	1330.6983	1353.6652	1366.7958	1406.8394	1421.1118	1442.4218	1480.444	1490.6463	1495.7243	1500.7122	1509.8786	1667.4104	3025.7824	3038.0589	3040.7795	3061.5824	3099.3166	3104.414	3119.4532	3122.2918	3134.1804	3185.2999	3225.4111
CCC12N=COC1C2C	CC[C@]12N=CO[C@H]1[C@H]2C	
InChI=1S/C7H11NO/c1-3-7-5(2)6(7)9-4-8-7/h4-6H,3H2,1-2H3	InChI=1S/C7H11NO/c1-3-7-5(2)6(7)9-4-8-7/h4-6H,3H2,1-2H3/t5-,6+,7-/m1/s1
