16
gdb 56804	3.10504	1.04197	0.97144	2.8921	71.84	-0.2504	-0.0241	0.2262	1250.0617	0.123689	-437.883601	-437.874781	-437.873837	-437.918151	30.777	
O	-0.099728735	 1.4396830923	 0.0559545738	-0.399901
C	 0.0365725563	 0.0260241043	 0.0264596365	-0.135942
C	 0.7001991428	-0.4088820961	-1.224541651	 0.254408
N	 1.2486141738	-0.7260598194	-2.19106971	-0.320472
C	 0.755524117	-0.5292025987	 1.2266783139	 0.324435
C	 0.2637564454	-1.3452502671	 2.1528476571	-0.220763
C	 1.3126190158	-1.6373723919	 3.1849067966	-0.101799
O	 2.4571747966	-0.891594518	 2.7768052394	-0.262435
C	 2.1919055252	-0.2038397883	 1.5611469582	-0.165357
H	 0.7714941325	 1.8367308309	-0.0562614878	 0.30022
H	-0.986674978	-0.3620014624	 0.0136711232	 0.147854
H	-0.7369561895	-1.7582049402	 2.1844788929	 0.115985
H	 1.0044230253	-1.3262456879	 4.1950359888	 0.116292
H	 1.5583115878	-2.7098060456	 3.2365936091	 0.116369
H	 2.8859610855	-0.537401605	 0.7735559212	 0.126794
H	 2.3550070885	 0.8765090331	 1.7055813283	 0.104311
50.1102	92.8297	111.5042	171.3202	203.2953	259.8067	316.9697	362.4185	444.0997	538.2451	611.2631	714.7552	779.7008	836.867	878.6351	922.7903	943.5135	979.6888	1029.0316	1047.1979	1066.9314	1115.2842	1177.4396	1210.4341	1229.5247	1244.321	1279.6863	1331.6591	1373.693	1399.6509	1410.9199	1514.8419	1528.2929	1727.7506	2353.2108	2967.5416	2980.064	2991.4855	2998.1762	3074.9745	3215.0079	3808.05
OC(C#N)C1=CCOC1	O[C@@H](C#N)C1=CCOC1	
InChI=1S/C6H7NO2/c7-3-6(8)5-1-2-9-4-5/h1,6,8H,2,4H2	InChI=1S/C6H7NO2/c7-3-6(8)5-1-2-9-4-5/h1,6,8H,2,4H2/t6-/m0/s1
