17
gdb 126643	6.15537	0.72646	0.66908	1.1803	73.53	-0.2472	-0.0161	0.2311	1664.3608	0.134943	-455.127176	-455.118363	-455.117419	-455.162902	30.719	
C	 0.0722588006	 1.523382878	-0.1572694331	-0.382935
C	-0.8796380424	 0.7436054981	 0.7521036781	-0.154611
C	-1.2052936583	-0.6467527352	 0.2017968028	-0.150639
N	-2.1656163635	-1.3233148194	 1.0680443542	-0.364783
C	-2.0628647993	-2.5461051989	 1.2716940955	 0.547556
O	-2.9279001538	-3.2530459324	 2.0935560452	-0.194687
C	-2.4732776337	-4.5186580259	 2.0647585988	 0.105749
N	-1.4458828489	-4.7314806462	 1.3382511189	-0.112027
O	-1.1509645664	-3.4525392448	 0.7896256625	-0.256116
H	 0.2906155293	 2.5127764086	 0.2551966974	 0.115439
H	 1.0259051135	 0.9983105468	-0.2825287466	 0.115499
H	-0.358370756	 1.6670955119	-1.1547119371	 0.114939
H	-0.4420879516	 0.6342499912	 1.751617164	 0.0999
H	-1.8182836474	 1.2931101061	 0.8853082844	 0.108728
H	-1.6565918772	-0.5430510014	-0.7948259666	 0.111328
H	-0.2801347548	-1.2257182228	 0.0719863649	 0.110602
H	-2.9909991701	-5.2666430338	 2.6446098967	 0.186059
14.8701	80.073	105.9515	170.4468	234.909	241.449	305.7844	365.9616	540.8977	594.0618	710.6141	735.5082	755.5409	880.4803	886.8547	888.5253	898.6159	903.9469	948.5347	1043.475	1093.7692	1104.9373	1134.6771	1173.7488	1207.5606	1270.0053	1298.456	1319.7119	1335.6584	1406.6101	1414.4001	1486.4506	1495.7784	1500.1475	1512.6649	1673.661	1847.6059	2996.6217	3029.0019	3030.0453	3036.9029	3070.5235	3097.7036	3105.6848	3284.378
CCCN=C1OC=NO1	CCCN=c1ocno1	
InChI=1S/C5H8N2O2/c1-2-3-6-5-8-4-7-9-5/h4H,2-3H2,1H3	InChI=1S/C5H8N2O2/c1-2-3-6-5-8-4-7-9-5/h4H,2-3H2,1H3
