20
gdb 117568	2.21681	1.08756	0.77242	3.3959	80.88	-0.2807	0.0216	0.3023	1516.3914	0.169212	-403.141292	-403.131286	-403.130342	-403.177242	35.372	
C	 0.1312981806	 1.4229721673	 0.0576543375	-0.385606
C	-0.1358146533	-0.0589346711	-0.1333136887	-0.053423
O	 0.8289428798	-0.5663320604	-1.0508009693	-0.244028
C	 0.7273399484	-1.9461796771	-1.3068140514	-0.026552
C	-0.5384147394	-2.2676521288	-2.0168174245	 0.269518
N	-1.5262864349	-2.5068670856	-2.5666800922	-0.331066
C	 1.9204939354	-2.3791499931	-2.1275130986	 0.017664
C	 3.2068025653	-2.7242136348	-1.4269673445	-0.276804
C	 2.3833985463	-3.811801364	-2.0678226191	-0.265914
H	 1.139923757	 1.5868065118	 0.4470860242	 0.128342
H	 0.0385649025	 1.9541894191	-0.8934959922	 0.134252
H	-0.5883369166	 1.8473487311	 0.7637424738	 0.121419
H	-0.0544725318	-0.5995577421	 0.8238398185	 0.091336
H	-1.1510505403	-0.2256884445	-0.5215252311	 0.117393
H	 0.7136639848	-2.5144363323	-0.3604251696	 0.103561
H	 1.9913949623	-1.8703875008	-3.0829501334	 0.110495
H	 4.1345879636	-2.4265057226	-1.9014381337	 0.123525
H	 3.2249531391	-2.6690141789	-0.3436492111	 0.119018
H	 1.8459491422	-4.4938637121	-1.4172852324	 0.121632
H	 2.7394799189	-4.2656691811	-2.9850067221	 0.125236
57.1454	76.2843	94.3637	133.1567	142.4656	222.6147	257.8808	296.9242	326.0147	417.1465	443.7808	524.1612	634.1838	768.7715	823.0785	831.7052	873.0708	883.993	914.8557	959.007	1004.6034	1046.9135	1064.2299	1084.3676	1127.9806	1131.6879	1141.5974	1187.3614	1194.5487	1204.4293	1226.6074	1294.5742	1300.9608	1344.9407	1402.3203	1414.8475	1439.6224	1472.5897	1483.9851	1499.6066	1508.2165	1527.0398	2351.3146	2955.5346	2972.7217	3020.1486	3047.7997	3122.9479	3125.9682	3136.8421	3140.9992	3170.7929	3216.1735	3230.543
CCOC(C#N)C1CC1	CCO[C@@H](C#N)C1CC1	
InChI=1S/C7H11NO/c1-2-9-7(5-8)6-3-4-6/h6-7H,2-4H2,1H3	InChI=1S/C7H11NO/c1-2-9-7(5-8)6-3-4-6/h6-7H,2-4H2,1H3/t7-/m0/s1
