18
gdb 97819	4.086	0.75173	0.73689	2.1243	81.41	-0.2346	0.0203	0.2549	1594.9446	0.147367	-401.858802	-401.849859	-401.848915	-401.894134	32.243	
O	 0.4017505001	 0.7607562691	-0.8209588034	-0.400825
C	-0.0435930655	 0.2326396737	 0.4211305004	-0.195899
C	-1.3445711381	-0.4303603388	 0.3448212808	 0.034888
C	-2.4327607437	-0.9444597828	 0.2630148158	 0.116411
C	-3.7320277088	-1.5765034164	 0.1516479232	-0.151685
C	-4.6017908793	-1.2817041499	-1.1150976581	-0.263831
C	-4.5268804351	-2.7764958937	-1.4006114406	-0.008649
C	-3.1306727716	-3.2446105596	-1.4621348194	-0.236514
N	-3.7432636487	-3.0752017852	-0.1305633815	-0.132658
H	-0.2978691571	 1.3293550814	-1.1590609569	 0.286558
H	 0.7237182051	-0.4857314759	 0.7305019243	 0.144649
H	-0.0782258369	 1.0119831248	 1.1992554505	 0.119668
H	-4.3031465192	-1.4177307219	 1.0700150824	 0.113496
H	-5.6001000171	-0.9298727798	-0.8510216832	 0.116592
H	-4.1743554945	-0.6176467743	-1.8705174492	 0.110304
H	-5.3644931285	-3.3970541654	-1.7014718042	 0.097356
H	-2.960508818	-4.2885874325	-1.7057354337	 0.123374
H	-2.3345013631	-2.5690355727	-1.7657825473	 0.126765
26.2314	73.5928	96.2892	183.8941	234.2509	310.1181	333.8883	406.2902	424.3164	536.4405	598.3158	710.8907	761.6467	769.9683	784.0653	909.0355	937.6841	955.597	985.5165	1001.4095	1048.8139	1051.5226	1079.5504	1110.9265	1131.8719	1146.4166	1185.9852	1214.4101	1225.2813	1251.0629	1272.894	1353.0753	1361.2821	1368.1426	1416.6067	1486.6032	1488.8151	1502.3722	2348.1408	2977.1489	3063.6549	3066.8533	3069.5669	3112.1911	3127.3228	3166.0346	3203.6289	3816.8576
OCC#CC1CC2CN12	OCC#C[C@H]1C[C@H]2CN12	
InChI=1S/C7H9NO/c9-3-1-2-6-4-7-5-8(6)7/h6-7,9H,3-5H2	InChI=1S/C7H9NO/c9-3-1-2-6-4-7-5-8(6)7/h6-7,9H,3-5H2/t6-,7-,8?/m0/s1
