18
gdb 81568	3.27886	1.21976	0.99512	12.8547	75.79	-0.1812	-0.0033	0.1779	1199.9521	0.147424	-438.999252	-438.990946	-438.990002	-439.033169	31.246	
C	-0.1140106701	 1.639638769	 0.1873224021	-0.469735
C	-0.0034523566	 0.1274908123	 0.098611497	 0.069298
C	 1.0619896623	-0.5726439842	-0.7900662734	-0.05843
N	 2.1414484816	-0.1468821591	 0.2604434264	-0.29296
H	 2.9766303146	-0.7329438178	 0.2923495151	 0.287402
H	 2.3624971427	 0.8474288017	 0.3434258262	 0.278168
C	 0.9076014947	-0.692284072	 1.0542300433	-0.058509
C	 0.8732377237	-1.8698217218	 0.0424716911	-0.106266
C	-0.4271728813	-2.8040884593	-0.1268809589	 0.335714
O	-0.113819227	-3.9929728115	-0.1771448518	-0.440252
O	-1.5198671516	-2.2077219646	-0.1802802465	-0.457861
H	 0.8372794331	 2.1765233553	 0.303775942	 0.090811
H	-0.5936726243	 2.0311669044	-0.7148370691	 0.14952
H	-0.7438619001	 1.9173665448	 1.037841847	 0.149584
H	-0.9624035228	-0.3934781654	-0.0156108053	 0.189563
H	 1.3004583858	-0.4409083529	-1.8446263068	 0.125465
H	 0.9666729699	-0.6995831903	 2.1417820411	 0.125476
H	 1.7560277655	-2.5160214688	 0.0744830305	 0.083012
23.8842	159.1658	191.7492	194.72	290.9685	310.1232	357.7544	396.4155	586.6241	588.6049	712.816	729.7945	750.6139	794.2591	804.3739	870.4295	873.6394	925.1355	1022.8735	1029.0259	1053.2439	1061.9069	1078.4057	1113.7818	1128.8768	1135.7858	1187.7488	1225.0393	1240.1083	1243.5916	1263.4756	1299.548	1326.8333	1416.8473	1425.3256	1485.2847	1502.8044	1609.9241	1816.2795	2999.5833	3022.3136	3066.8455	3084.0279	3114.4623	3139.3209	3141.0423	3402.9961	3513.3974
CC1C2[NH2+]C1C2C([O-])=O	C[C@H]1[C@H]2[NH2][C@@H]1[C@H]2C(=O)[O]	
InChI=1S/C6H9NO2/c1-2-4-3(6(8)9)5(2)7-4/h2-5,7H,1H3,(H,8,9)	InChI=1S/C6H9NO2/c1-2-4-3(6(8)9)5(2)7-4/h2-5H,7H2,1H3/t2-,3-,4+,5-
