18
gdb 98974	3.32492	0.8743	0.72698	2.4774	70.72	-0.2745	-0.031	0.2435	1552.4428	0.144836	-476.2608	-476.250588	-476.249643	-476.297523	35.043	
C	 0.6513592875	 0.0650942832	 0.8598811127	-0.383254
C	-0.1279743907	 0.3749723262	-0.428660824	-0.240469
C	 0.6659128669	 0.1015177752	-1.6738601886	 0.399173
N	 1.0450222841	 0.9792012979	-2.4854620844	-0.483221
O	 0.9024211789	-1.300241229	-1.7471374306	-0.264959
C	 1.6080320071	-1.8934724118	-2.7280361275	 0.416547
O	 2.1300720366	-1.3494543024	-3.6717857206	-0.356568
C	 1.6852718775	-3.3945851955	-2.5160728212	-0.141363
O	 2.4093196358	-4.0110898191	-3.5389890514	-0.416149
H	 0.9447802283	-0.9870141001	 0.9002980355	 0.128875
H	 1.5561308098	 0.6766929941	 0.9248910405	 0.132986
H	 0.0334860718	 0.2795331278	 1.7359640603	 0.125264
H	-1.0421274327	-0.2296754395	-0.4588989195	 0.121695
H	-0.4162466522	 1.4270293536	-0.4643586839	 0.136874
H	 1.577642872	 0.5887318207	-3.2603237404	 0.261947
H	 2.1434680545	-3.5738690834	-1.5313264119	 0.130911
H	 0.6572384121	-3.7830073593	-2.4586340511	 0.131853
H	 2.6926134926	-3.3016262685	-4.1338226438	 0.299858
45.3758	57.2557	77.1821	105.7101	153.3225	224.1654	235.1607	327.2203	336.5905	361.7078	426.712	528.9889	563.3396	660.4825	736.1253	789.5047	823.1858	902.2592	958.8001	964.4252	1036.166	1043.3434	1096.9795	1118.7515	1132.5963	1222.9967	1244.0326	1271.4301	1302.5146	1330.3088	1357.9542	1408.1487	1459.8337	1472.8483	1493.4443	1498.3054	1508.4034	1749.6555	1822.3531	2995.131	3016.4004	3044.8455	3048.1428	3113.2939	3120.513	3134.6388	3523.6608	3731.6568
CCC(=N)OC(=O)CO	CC[C]([NH])OC(=O)CO	
InChI=1S/C5H9NO3/c1-2-4(6)9-5(8)3-7/h6-7H,2-3H2,1H3	InChI=1S/C5H9NO3/c1-2-4(6)9-5(8)3-7/h6-7H,2-3H2,1H3
