25
gdb 100063	2.48489	1.11967	1.09387	1.1572	89.08	-0.2464	0.0773	0.3237	1350.5157	0.227017	-389.479549	-389.46888	-389.467936	-389.515	40.031	
C	 0.1641086338	 1.3359042011	 0.3729775634	-0.241828
O	-0.0250893698	-0.0571371228	 0.2973643856	-0.274895
C	-1.3444822744	-0.5510865692	 0.0160494428	 0.327337
C	-2.3327903185	-0.1416163275	 1.1203035658	-0.425499
C	-1.8304379987	-0.0705789534	-1.361163973	-0.425613
C	-1.1908404593	-2.0783701167	 0.0034889316	 0.061532
C	-0.1066076184	-2.7292490045	-0.9029384691	-0.238987
C	 0.1729200324	-3.7501366267	 0.2322558134	-0.217087
C	-0.537929247	-2.7901609642	 1.2232854167	-0.238991
H	 1.2236043051	 1.4913761942	 0.5945599727	 0.124315
H	-0.0671898811	 1.8495776633	-0.5707559293	 0.104459
H	-0.425274467	 1.803616212	 1.1741189063	 0.104421
H	-2.5111959409	 0.9375914251	 1.1315666716	 0.110373
H	-3.2995837906	-0.6294657193	 0.9621997933	 0.113272
H	-1.9547257665	-0.4393043059	 2.102437251	 0.123875
H	-1.0964902877	-0.316790414	-2.1337350386	 0.123871
H	-2.7764170444	-0.5567242411	-1.6189506172	 0.113291
H	-2.0037880029	 1.0093302118	-1.3811032606	 0.110378
H	-2.1729290814	-2.515899246	-0.2081977482	 0.058861
H	-0.4206187323	-3.1198968942	-1.8742865549	 0.08585
H	 0.7328671981	-2.0451650266	-1.0451691116	 0.113601
H	-0.3886838636	-4.6785754471	 0.0916755973	 0.095068
H	 1.2155278793	-4.0052027172	 0.4364590838	 0.092913
H	 0.1722085383	-2.1243424789	 1.7185568476	 0.113618
H	-1.2010226223	-3.2300903922	 1.9726133996	 0.085863
67.5293	99.6808	107.95	172.8346	183.297	219.2779	251.6477	269.2239	317.3416	343.0553	364.3187	413.9702	488.2913	550.7598	619.1152	721.1596	786.4887	801.1416	892.8545	919.4053	926.6526	936.211	950.5695	957.9962	993.1519	1035.232	1054.0484	1105.2153	1139.3224	1181.1373	1188.9098	1192.7184	1218.4203	1220.3458	1250.2601	1258.5241	1261.4131	1270.0728	1283.5318	1292.5293	1375.7218	1391.3746	1409.8648	1473.6907	1476.2399	1477.2507	1482.812	1485.4735	1498.3673	1503.9916	1509.645	1511.5164	1517.7631	2991.6371	3034.8056	3038.7016	3043.4793	3045.564	3051.3766	3059.4366	3065.5631	3097.4832	3102.5027	3103.8589	3110.436	3116.8159	3118.7401	3120.0981	3129.014
COC(C)(C)C1CCC1	COC(C)(C)C1CCC1	
InChI=1S/C8H16O/c1-8(2,9-3)7-5-4-6-7/h7H,4-6H2,1-3H3	InChI=1S/C8H16O/c1-8(2,9-3)7-5-4-6-7/h7H,4-6H2,1-3H3
