17
gdb 28684	3.3637	1.06686	0.83764	1.2086	81.81	-0.1806	0.0464	0.227	1344.0088	0.13619	-380.869174	-380.860132	-380.859188	-380.903644	33.51	
N	 0.3447991133	 1.2807760078	-0.3222500754	-0.611338
C	 0.016345383	-0.0660109711	-0.057037317	 0.272597
C	-1.0753015296	-0.67277291	 0.5244975496	-0.209503
C	-0.8126288816	-2.0744294791	 0.5586868672	-0.232531
C	 0.422844383	-2.2835357609	-0.0060360042	 0.313697
C	 1.2237868792	-3.5433914662	-0.1878347094	-0.467954
C	 2.0247538612	-3.5535707751	-1.4113319772	 0.29349
C	 2.7029031738	-3.5220249815	-2.4035353882	-0.453018
N	 0.9228345364	-1.0509197163	-0.3612426526	-0.305658
H	 0.2102891075	 1.5243072368	-1.3001010386	 0.242326
H	-0.2394411863	 1.8999327996	 0.2263237289	 0.245438
H	-1.9671960663	-0.1701831189	 0.8670068004	 0.080184
H	-1.4624593558	-2.8441026547	 0.9479217596	 0.086651
H	 1.8985559957	-3.7067771698	 0.6666756242	 0.141746
H	 0.5352049451	-4.3962744199	-0.1886593421	 0.146682
H	 3.2911699353	-3.5192152993	-3.2875062182	 0.197708
H	 1.8138163062	-0.8939872313	-0.8023133172	 0.259483
37.1156	98.8215	120.3266	198.9817	263.6685	304.5663	334.8188	417.9141	462.7898	504.9593	618.8265	626.8346	646.25	650.6442	675.0097	742.9744	763.9259	806.8263	833.6898	938.4595	950.1389	1003.575	1021.6371	1060.3817	1155.8914	1201.3857	1213.3361	1274.7454	1297.6017	1329.5478	1449.6448	1465.7317	1470.3103	1545.6288	1629.3055	1657.6202	2236.2395	2983.2785	3056.0006	3234.8882	3250.3418	3483.4275	3504.995	3592.2128	3665.1977
NC1=CC=C(CC#C)N1	Nc1ccc(CC#C)[nH]1	
InChI=1S/C7H8N2/c1-2-3-6-4-5-7(8)9-6/h1,4-5,9H,3,8H2	InChI=1S/C7H8N2/c1-2-3-6-4-5-7(8)9-6/h1,4-5,9H,3,8H2
