17
gdb 51947	2.88009	1.03216	0.94883	1.7006	72.3	-0.2518	-0.0187	0.2331	1303.8173	0.135031	-455.126982	-455.117747	-455.116803	-455.162856	31.622	
N	-0.2355962011	 0.1400628268	 1.4043482798	-0.437538
C	-0.6920038282	-0.341752271	 0.3330902994	 0.125174
O	-0.3250719907	-1.5941061254	-0.0379975179	-0.193165
C	-1.0047371475	-2.1424728253	-1.1697861444	-0.175594
C	-2.3945797218	-2.6181784456	-0.7354578971	 0.364286
O	-3.358767455	-1.8842172913	-0.7671995126	-0.336255
N	-2.4441551885	-3.9383271023	-0.3283477813	-0.076625
C	-1.7016410242	-4.5028182388	 0.7891446227	-0.237372
C	-3.2006484765	-4.3952570937	 0.8119900139	-0.219536
H	-0.5753178358	 1.0915535039	 1.5285732433	 0.233765
H	-1.374621372	 0.1413146386	-0.3754465842	 0.112627
H	-1.1205904625	-1.3955875896	-1.9620403085	 0.132006
H	-0.3831134101	-2.966026353	-1.5238235998	 0.134546
H	-1.2339320699	-5.4660172982	 0.6062860754	 0.132477
H	-1.1314051639	-3.8159102443	 1.4071975839	 0.162145
H	-3.6520912152	-3.6306914407	 1.4379064347	 0.145725
H	-3.802100217	-5.2856886901	 0.6561191428	 0.133332
29.2689	67.5886	104.9188	114.4254	186.7079	214.8955	295.3026	331.0557	420.3263	588.1938	610.4178	682.5905	805.5231	820.4956	823.6407	940.0703	958.4362	974.3224	1015.9473	1040.4667	1060.434	1119.1511	1129.3637	1137.6382	1163.9401	1177.5239	1193.7119	1245.197	1320.7183	1375.3043	1416.782	1425.907	1492.3196	1497.4074	1524.0143	1745.2364	1788.5727	3053.2657	3063.0856	3118.3528	3121.8686	3133.4862	3205.8315	3218.5242	3519.5161
N=COCC(=O)N1CC1	[NH][CH]OCC(=O)N1CC1	
InChI=1S/C5H8N2O2/c6-4-9-3-5(8)7-1-2-7/h4,6H,1-3H2	InChI=1S/C5H8N2O2/c6-4-9-3-5(8)7-1-2-7/h4,6H,1-3H2
