17
gdb 6675	7.10173	0.69972	0.66025	4.6108	66.4	-0.2472	-0.0205	0.2267	1611.303	0.139618	-401.04784	-401.038091	-401.037147	-401.084536	32.187	
N	-0.0349788329	 1.3472673567	 0.1641060319	-0.52244
C	 0.0540567736	 0.0333744837	-0.1924174612	 0.410904
O	 1.0844259253	-0.4607137353	-0.6072433928	-0.356906
C	-1.2458188622	-0.7609588328	-0.0530768597	-0.312194
C	-0.981703584	-2.251871394	 0.1667608566	-0.178059
C	-2.2655806539	-3.0951922569	 0.1230202262	-0.282248
C	-1.970355866	-4.5725239649	 0.2540741117	 0.160324
O	-2.4672822652	-5.3078571813	 1.0672728913	-0.237359
H	 0.7733670822	 1.9336020763	 0.0356973409	 0.262245
H	-0.8893817527	 1.7628801351	 0.4896151816	 0.258432
H	-1.8645126451	-0.3482298252	 0.7527648147	 0.105187
H	-1.8145812725	-0.6166424351	-0.9822841681	 0.129041
H	-0.2732196244	-2.5900395709	-0.5958873655	 0.134932
H	-0.48071617	-2.3937736853	 1.1313937372	 0.118519
H	-2.9733395207	-2.8121139093	 0.9083348022	 0.118115
H	-2.7612027069	-2.9462874432	-0.8483985539	 0.117186
H	-1.2247189546	-4.9542787275	-0.4831034031	 0.074324
32.5771	53.8816	76.4944	103.993	116.2413	149.4861	281.9822	301.9373	454.0201	512.027	523.7113	611.2898	672.3333	745.7899	807.2799	852.4609	918.0522	995.7571	1056.262	1071.6134	1099.734	1122.9573	1179.1763	1237.2404	1282.3575	1298.5129	1324.0957	1370.5467	1407.9583	1431.1617	1462.1803	1466.7762	1500.0402	1617.6228	1798.1489	1837.5353	2854.5752	3004.1755	3018.085	3045.9637	3058.5314	3082.3235	3101.9928	3604.3379	3742.1587
NC(=O)CCCC=O	NC(=O)CCCC=O	
InChI=1S/C5H9NO2/c6-5(8)3-1-2-4-7/h4H,1-3H2,(H2,6,8)	InChI=1S/C5H9NO2/c6-5(8)3-1-2-4-7/h4H,1-3H2,(H2,6,8)
