17
gdb 69104	2.39248	1.6704	1.26913	3.8937	73.31	-0.2363	0.0146	0.2509	1030.5579	0.136799	-417.999179	-417.990954	-417.99001	-418.031828	31.327	
N	 0.2132963752	 1.4029775314	-0.1445637237	-0.574793
C	 0.0991587969	-0.0148811783	-0.0306112811	 0.258113
C	-0.2444044901	-0.8326840772	-1.2369834766	-0.365844
C	-1.2112641087	-0.8368851668	-0.0608241146	 0.243396
O	-1.0952056289	-1.9306645875	 0.8030359153	-0.292389
C	-0.0941693202	-1.6028414748	 1.7817738078	-0.088206
C	 0.9265964595	-0.6994997918	 1.0658852182	-0.283178
C	-2.4925819715	-0.2020289119	-0.1461315588	 0.230736
N	-3.503466897	 0.3577340337	-0.219982001	-0.353035
H	-0.2911114494	 1.7585347295	-0.9490606884	 0.244368
H	-0.1565400973	 1.872692918	 0.6771833101	 0.242023
H	-0.5527700285	-0.2994026737	-2.1313161763	 0.132849
H	 0.2759892868	-1.7678081756	-1.4144897086	 0.134721
H	-0.5599804423	-1.0734439114	 2.6250409159	 0.109344
H	 0.3207995846	-2.5444510079	 2.1475091105	 0.120623
H	 1.7514220328	-1.2775546567	 0.6382610649	 0.120709
H	 1.355982388	 0.048612901	 1.7361950863	 0.120561
116.3264	127.5988	158.281	220.3229	270.9963	371.0065	398.2251	432.7315	513.7963	572.2836	600.2898	618.9348	682.3683	795.715	818.7161	844.2069	891.3096	927.1196	949.1036	980.3777	1037.1637	1054.1786	1063.0417	1087.8913	1173.8591	1202.3512	1240.6266	1265.6374	1302.7108	1352.1161	1388.3916	1392.2444	1468.1268	1493.942	1518.9751	1659.3456	2339.3982	3006.7074	3058.1946	3106.2961	3116.8045	3125.8727	3220.4837	3497.2497	3586.5329
NC12CC1(OCC2)C#N	N[C@]12C[C@]1(OCC2)C#N	
InChI=1S/C6H8N2O/c7-4-6-3-5(6,8)1-2-9-6/h1-3,8H2	InChI=1S/C6H8N2O/c7-4-6-3-5(6,8)1-2-9-6/h1-3,8H2/t5-,6+/m1/s1
