20
gdb 95887	3.01215	1.12129	0.88295	2.8995	77.22	-0.239	0.0291	0.2681	1313.6799	0.172806	-440.327253	-440.318642	-440.317698	-440.360639	32.833	
O	-0.0442510934	 1.4148955381	 0.0203644915	-0.426369
C	 0.0277429288	-0.0013027838	 0.0102724072	 0.11925
C	-1.398496367	-0.5391848316	 0.1155358463	-0.195586
C	-1.4230176718	-2.0700867404	 0.0002246249	-0.212874
C	-0.7214760423	-2.5396739862	-1.2800652112	-0.170277
N	 0.6126015743	-1.9561967149	-1.3739601426	-0.036101
C	 0.6903671764	-0.5108471896	-1.2835924985	-0.208374
C	 1.7166491809	-2.7456102515	-1.4957170752	 0.148299
O	 1.7175668532	-3.9573377836	-1.5565376113	-0.342508
H	 0.8506037447	 1.7658309147	 0.0730616365	 0.284965
H	 0.6137077388	-0.3723059517	 0.8674076701	 0.072625
H	-1.8430910156	-0.2059561034	 1.0581887273	 0.10788
H	-1.9901000836	-0.089036484	-0.6928134947	 0.106199
H	-0.9198842077	-2.5179300048	 0.8658807801	 0.111488
H	-2.4554253749	-2.4346971629	 0.0053377956	 0.105322
H	-0.5984667183	-3.6229576916	-1.3084980267	 0.14722
H	-1.3079433704	-2.2363137249	-2.1598957232	 0.10528
H	 0.1771111342	-0.0412053056	-2.1357722711	 0.113432
H	 1.7436747318	-0.2113485392	-1.3247089248	 0.102477
H	 2.6456020919	-2.1413246431	-1.53431972	 0.067654
63.6649	138.1282	218.1853	284.3192	285.5822	301.7821	353.5856	358.5299	401.4413	431.5024	478.454	550.9932	718.1951	798.4566	851.7059	868.6956	912.8069	961.6731	978.9883	1029.5435	1042.1299	1087.0065	1104.7458	1126.874	1159.8432	1199.0365	1215.4031	1271.7369	1285.3982	1310.6513	1329.6463	1348.2549	1369.8986	1388.8596	1397.8641	1430.1579	1443.8156	1459.4529	1484.5852	1486.9733	1490.0117	1502.9826	1793.4286	2924.4164	2966.2091	2997.8397	3000.8722	3027.5313	3036.2155	3067.8376	3081.8494	3087.8142	3132.3993	3814.9825
OC1CCCN(C1)C=O	O[C@H]1CCCN(C1)C=O	
InChI=1S/C6H11NO2/c8-5-7-3-1-2-6(9)4-7/h5-6,9H,1-4H2	InChI=1S/C6H11NO2/c8-5-7-3-1-2-6(9)4-7/h5-6,9H,1-4H2/t6-/m0/s1
