18
gdb 18112	3.59523	2.1898	1.68364	1.4521	71.71	-0.2386	0.0258	0.2643	818.7806	0.157329	-347.821623	-347.815163	-347.814219	-347.852591	25.418	
C	 0.179995979	 1.5590060981	 0.1901160894	-0.08967
O	 1.5742674818	 1.8227823754	 0.2329891043	-0.239775
C	 2.1508987441	 0.9839287362	-0.7529076682	-0.089489
C	 1.3988423046	-0.367321598	-0.6457057258	-0.071682
C	 2.0154748922	-1.3406511172	 0.325650921	-0.068903
C	 1.2663571055	-1.5410622721	 1.4063906042	-0.05484
C	-0.0215241983	-0.7599466152	 1.371109641	-0.267176
C	 0.0400028635	 0.0321710493	 0.0331451422	-0.028795
H	-0.2648559692	 1.9526224291	 1.1081341137	 0.105305
H	-0.2811228372	 2.0770688106	-0.6680912691	 0.081242
H	 2.0167992672	 1.419600346	-1.7574477553	 0.080547
H	 3.2221037002	 0.9073783777	-0.5478010716	 0.105876
H	 1.2711838062	-0.809500238	-1.6397299914	 0.074158
H	 2.9817099593	-1.7987058902	 0.1404056169	 0.089826
H	 1.5282832604	-2.1887336496	 2.2364511507	 0.091232
H	-0.8960004107	-1.4220475961	 1.4121391464	 0.102287
H	-0.10943689	-0.0910473035	 2.2374765269	 0.106689
H	-0.817926649	-0.2097034625	-0.5972405954	 0.073167
59.4679	190.0591	293.602	388.767	444.292	579.3597	671.6943	746.8813	756.0744	796.8749	832.9984	858.3219	932.7078	950.1653	954.7865	975.8799	983.0891	1016.2936	1035.9378	1079.5737	1112.789	1126.2905	1133.3916	1194.8073	1200.3279	1218.5216	1279.1861	1289.2525	1304.6066	1324.5046	1332.8129	1352.2937	1381.1867	1406.1777	1484.6901	1504.5639	1518.6293	1695.5389	2954.6436	2961.6997	3014.9144	3038.0079	3042.8166	3086.0337	3088.7762	3090.7987	3174.5231	3200.775
C1OCC2C=CCC12	C1OC[C@H]2C=CC[C@@H]12	
InChI=1S/C7H10O/c1-2-6-4-8-5-7(6)3-1/h1-2,6-7H,3-5H2	InChI=1S/C7H10O/c1-2-6-4-8-5-7(6)3-1/h1-2,6-7H,3-5H2/t6-,7+/m1/s1
