18
gdb 128772	3.50384	1.08032	0.85134	3.0396	75.84	-0.1961	0.0406	0.2366	1340.5225	0.149198	-435.270495	-435.261445	-435.260501	-435.304592	32.815	
C	-0.8702812382	 1.3922387359	-0.3820731107	-0.224712
O	-1.002228691	-0.0027423827	-0.5324307501	-0.241353
C	-0.5937998181	-0.7206916878	 0.6307764672	-0.212802
C	-0.8153728758	-2.1789688779	 0.4139319778	 0.148764
C	-1.8987771549	-2.7637466809	-0.2278703637	 0.319338
N	-3.0268720371	-2.1797708811	-0.794835027	-0.611834
N	-1.7019642937	-4.102701042	-0.1614531179	-0.255298
N	-0.5509606667	-4.4467751347	 0.48211257	-0.248083
C	-0.0256713848	-3.2786990541	 0.8222328216	-0.086977
H	-1.2139742662	 1.8570154533	-1.3093296112	 0.126495
H	-1.4754498352	 1.7736557623	 0.4554118959	 0.107593
H	 0.1773853083	 1.6814890681	-0.2070139424	 0.110174
H	 0.4693400765	-0.5234654008	 0.8432158721	 0.100118
H	-1.1652701914	-0.3410488503	 1.4968993919	 0.096747
H	-2.8293224594	-1.2091529973	-1.0126349827	 0.26343
H	-3.3642634038	-2.6600041286	-1.620026474	 0.242821
H	-2.2992369297	-4.8293339279	-0.5166426442	 0.264078
H	 0.9152384811	-3.2520171535	 1.3547671973	 0.1015
68.9048	98.5661	137.9064	227.3203	243.6277	274.9272	307.8127	335.3648	380.7207	429.106	449.9445	671.1592	677.7375	718.636	780.756	816.5346	886.0527	950.1012	970.2449	1026.2244	1094.4249	1116.9427	1135.7353	1182.6483	1214.4696	1227.3073	1251.0626	1269.9022	1355.5298	1366.4911	1431.281	1460.7002	1479.9763	1484.6121	1503.918	1524.0523	1576.9162	1631.7436	1666.9096	2934.893	2973.8744	2984.0098	3020.8977	3114.695	3229.9407	3518.9658	3610.9202	3675.9954
COCC1=C(N)NN=C1	COCc1c(N)[nH]nc1	
InChI=1S/C5H9N3O/c1-9-3-4-2-7-8-5(4)6/h2H,3H2,1H3,(H3,6,7,8)	InChI=1S/C5H9N3O/c1-9-3-4-2-7-8-5(4)6/h2H,3H2,1H3,(H3,6,7,8)
