17
gdb 54520	3.13076	1.42674	1.14239	2.0363	69.14	-0.2425	-0.0183	0.2242	1079.4523	0.134432	-458.959419	-458.951112	-458.950168	-458.992662	30.711	
C	 0.2077885983	 1.1193951818	-0.7626963829	-0.480579
C	-0.1130962152	 0.1627666541	 0.3629847059	 0.311892
O	 0.5194620721	 0.1169395564	 1.3976818594	-0.323437
C	-1.2551384949	-0.7704986822	 0.1498576993	 0.283812
C	-1.9175631106	-1.4871723298	 1.3191849527	-0.382384
C	-1.113715745	-2.272404272	 0.32543719	 0.056087
O	-1.7540357374	-2.8550374052	-0.7745843157	-0.248426
C	-2.574294274	-1.8537999038	-1.3479514474	-0.001697
O	-2.0097490999	-0.5923905471	-1.0232396957	-0.302074
H	 1.0932368109	 1.6999598049	-0.5029253162	 0.138322
H	 0.3687182904	 0.5689986588	-1.6950980164	 0.146391
H	-0.6424013496	 1.7858534289	-0.9426484553	 0.151268
H	-1.4380574529	-1.3047650854	 2.2742666819	 0.153567
H	-2.9982963524	-1.5670501432	 1.3339947621	 0.12995
H	-0.1836035467	-2.7590584117	 0.5878271397	 0.134435
H	-2.5904662205	-1.9782831657	-2.4346640769	 0.129469
H	-3.5975081327	-1.9205272987	-0.9464729044	 0.103403
66.7947	134.6107	151.6994	184.6774	240.8708	319.3397	402.4324	452.9733	495.0726	581.3902	631.7339	727.0439	743.6833	827.8674	841.2613	922.3568	950.2329	960.2013	1011.2365	1023.5889	1059.8209	1072.4015	1075.4222	1147.2284	1158.9582	1165.4395	1221.7125	1242.9634	1323.2185	1366.6501	1391.6202	1435.5378	1449.0343	1456.6901	1467.7378	1547.5575	1788.6787	2976.4369	3046.0492	3084.7172	3107.8253	3143.0595	3159.4829	3209.5755	3241.8572
CC(=O)C12CC1OCO2	CC(=O)[C@]12C[C@H]1OCO2	
InChI=1S/C6H8O3/c1-4(7)6-2-5(6)8-3-9-6/h5H,2-3H2,1H3	InChI=1S/C6H8O3/c1-4(7)6-2-5(6)8-3-9-6/h5H,2-3H2,1H3/t5-,6-/m1/s1
