17
gdb 20140	4.73242	1.53465	1.44994	1.9712	66.62	-0.2375	0.0769	0.3144	905.2205	0.143056	-363.781424	-363.774468	-363.773524	-363.812967	26.426	
C	-0.1722174302	 0.2326518273	-0.9503469516	-0.176704
O	-1.4048931441	 0.6474053123	-0.3620784135	-0.236792
C	-0.229980547	 0.6675221928	 0.4526766002	 0.079989
C	-0.242986464	-0.2428450068	 1.6536443104	 0.019669
C	-0.3401055474	-1.7892775091	 1.5332159241	-0.285285
C	 0.9908980568	-1.8279843592	 2.2793043035	-0.004718
C	 2.0194924041	-1.0419188692	 1.5757748453	-0.238408
N	 1.0556462814	-0.3150988688	 2.4293344447	-0.153056
H	-0.1072726487	-0.8245789522	-1.1993963892	 0.115424
H	 0.2391199009	 0.9073353919	-1.7005124426	 0.117135
H	 0.1407218041	 1.6699008956	 0.6795909575	 0.103355
H	-1.0032632779	 0.1388346828	 2.3418492693	 0.099536
H	-1.1787105088	-2.1939731787	 2.1010302253	 0.117772
H	-0.3480259239	-2.2389068679	 0.5367317018	 0.107325
H	 1.2270782746	-2.4847294772	 3.1100408628	 0.09748
H	 3.0213930454	-1.0334068091	 1.9932983137	 0.122897
H	 1.9786716647	-0.9283564545	 0.4958690481	 0.114382
67.9812	151.0755	192.5227	314.8617	376.6379	475.0566	536.1432	715.8898	764.741	784.5157	802.3928	863.7647	896.6514	929.2664	949.8702	998.8894	1005.5877	1056.7741	1069.7323	1103.1366	1112.1552	1124.2829	1136.4684	1161.4387	1163.1636	1186.5755	1227.421	1264.8255	1273.0375	1298.7702	1362.6867	1385.9497	1435.1045	1489.4158	1505.7634	1530.1178	3058.2177	3064.7563	3083.5202	3089.6433	3117.6339	3124.8185	3166.4271	3171.9002	3204.9308
C1OC1C1CC2CN12	C1O[C@H]1[C@H]1C[C@H]2CN12	
InChI=1S/C6H9NO/c1-4-2-7(4)5(1)6-3-8-6/h4-6H,1-3H2	InChI=1S/C6H9NO/c1-4-2-7(4)5(1)6-3-8-6/h4-6H,1-3H2/t4-,5+,6+,7?/m0/s1
