17
gdb 17210	4.35369	1.82392	1.5704	1.0638	67.97	-0.236	0.061	0.2969	847.8817	0.14357	-363.792434	-363.785729	-363.784785	-363.823473	26.077	
C	-0.3457124614	 1.3679647858	-0.0064564768	-0.295247
N	 1.0658628155	 0.9331294812	 0.0378597698	-0.366085
C	-0.0009691831	-0.0660351304	 0.0359375226	 0.355471
C	-0.1728284877	-1.1225229342	 1.1421073425	-0.320286
C	-0.4902789164	-2.1802583568	 0.0476588603	-0.075036
C	-1.9453949003	-2.1883124776	-0.4580303409	-0.07729
O	-1.6709040423	-1.1646545317	-1.4467117264	-0.287035
C	-0.2847829819	-1.102075033	-1.0573937074	 0.015338
H	-0.6939980214	 1.8672204589	 0.8939258377	 0.119291
H	-0.7511154881	 1.7647964144	-0.9337522367	 0.121301
H	 1.480054103	 1.0034066107	-0.8898117887	 0.229705
H	 0.7623181248	-1.3153983953	 1.6738884266	 0.117575
H	-0.9654797613	-0.9423530456	 1.874301401	 0.103166
H	 0.0386274741	-3.1307165895	 0.0841280136	 0.082013
H	-2.2640235774	-3.1213733694	-0.9384220799	 0.10385
H	-2.710928576	-1.8774642272	 0.2643457151	 0.101762
H	 0.3966229801	-1.1634160503	-1.9128578924	 0.071506
72.1233	202.8218	277.6313	316.3677	369.3583	476.6857	545.6234	756.6814	787.9123	826.907	838.2359	891.4842	903.4022	932.6101	948.6872	976.9625	986.6466	1013.0675	1043.6701	1056.0184	1100.857	1123.6665	1150.7145	1158.2429	1179.8243	1213.9967	1251.677	1264.0099	1284.3354	1293.1257	1312.457	1356.1616	1410.5544	1475.3124	1513.5902	1520.4329	3011.7154	3050.4581	3054.4801	3056.512	3105.4638	3108.3099	3129.9304	3190.9834	3480.4044
C1NC11CC2COC12	C1N[C@]21C[C@H]1CO[C@@H]21	
InChI=1S/C6H9NO/c1-4-2-8-5(4)6(1)3-7-6/h4-5,7H,1-3H2	InChI=1S/C6H9NO/c1-4-2-8-5(4)6(1)3-7-6/h4-5,7H,1-3H2/t4-,5+,6-/m0/s1
