16
gdb 109488	2.1235	1.81298	1.06097	1.1782	66.17	-0.2768	-0.0195	0.2573	1105.4296	0.124909	-475.117259	-475.108909	-475.107965	-475.151123	29.65	
C	-0.1440622398	 1.5602580649	 0.0311403127	-0.387148
C	 0.0735114386	 0.0484762997	-0.0214837017	-0.159246
N	 0.7551748204	-0.4607534961	 1.1647006846	-0.191948
C	 2.0970213004	-0.7737490505	 1.2342077614	 0.393341
O	 2.9141377932	-0.6880108089	 0.3528972897	-0.355635
C	 2.297510997	-1.2532156808	 2.6666202481	-0.213605
O	 1.0081577217	-1.1579482027	 3.277942121	-0.239386
C	 0.1029469502	-0.6898212605	 2.3769321836	 0.515747
O	-1.0564352954	-0.5146001655	 2.6103369078	-0.377559
H	 0.810291154	 2.090491373	 0.0966206451	 0.13355
H	-0.6580021318	 1.8918370889	-0.8756550524	 0.128337
H	-0.7599480209	 1.8300400613	 0.8927051804	 0.14816
H	-0.8823779023	-0.4757992987	-0.0988217375	 0.140877
H	 0.6998047595	-0.2309701677	-0.8719844389	 0.144409
H	 2.6475169668	-2.2891028787	 2.6919440176	 0.160327
H	 3.0120261585	-0.6200128579	 3.2003170085	 0.159778
44.7938	116.534	143.976	208.4794	209.515	296.3122	352.5281	436.7598	584.4291	595.9451	615.6705	691.5603	751.374	774.9934	787.9129	959.7399	998.4563	1021.5508	1079.4806	1098.7156	1118.9293	1138.7785	1202.6557	1246.5482	1349.9822	1373.616	1393.5144	1410.609	1437.0287	1477.583	1487.9241	1493.2991	1505.2516	1838.6084	1907.8541	3047.9251	3064.7781	3072.5242	3113.1561	3115.9318	3123.9157	3139.585
CCN1C(=O)COC1=O	CCN1C(=O)COC1=O	
InChI=1S/C5H7NO3/c1-2-6-4(7)3-9-5(6)8/h2-3H2,1H3	InChI=1S/C5H7NO3/c1-2-6-4(7)3-9-5(6)8/h2-3H2,1H3
