19
gdb 109109	2.84708	1.25038	0.94594	2.3659	78.24	-0.249	-0.0265	0.2225	1265.8623	0.158033	-423.060651	-423.051451	-423.050506	-423.095073	33.887	
C	 0.1135026591	 1.4371482098	 0.2857128464	-0.383203
C	-0.0349991462	-0.0421056311	-0.1107353387	-0.290535
C	-1.4528467916	-0.522296295	-0.1005704587	 0.316395
C	-2.170377866	-0.9935027736	-1.1281967793	-0.195684
C	-3.5633233487	-1.4355975466	-0.7433988174	-0.370119
C	-3.463756171	-1.4036275623	 0.7800263349	 0.362169
O	-4.0811033064	-2.0547701021	 1.5834224508	-0.316688
C	-2.2885759038	-0.4936694602	 1.1637821132	-0.036982
O	-1.6266605979	-0.9429244863	 2.3222680869	-0.44343
H	 1.1652406563	 1.7369763484	 0.2621858499	 0.117006
H	-0.4400840018	 2.088044893	-0.3986662825	 0.116144
H	-0.2597561361	 1.6119438227	 1.2992275196	 0.135326
H	 0.397333647	-0.2115235012	-1.1032677852	 0.100769
H	 0.5381920367	-0.6532475812	 0.5979643448	 0.128078
H	-1.8024295989	-1.0668936263	-2.1460283089	 0.098472
H	-4.3477821567	-0.7441763901	-1.0842348843	 0.136269
H	-3.8467847454	-2.4320764876	-1.0989766751	 0.136708
H	-2.6866767009	 0.5267866676	 1.326462864	 0.095171
H	-2.2721135375	-1.4844782578	 2.7993423896	 0.294133
57.9855	69.6409	165.2345	193.066	255.4585	266.8637	292.3481	354.2464	376.6409	492.3771	532.3909	574.3249	660.1976	690.2134	791.523	801.5069	834.3866	869.6695	965.8633	973.7829	983.9581	1065.009	1078.6725	1095.536	1140.0803	1181.2863	1210.6383	1219.3415	1274.8064	1283.1083	1330.1266	1343.5283	1362.2744	1407.1449	1413.1194	1456.2877	1476.3085	1500.399	1507.0874	1702.9911	1848.7531	2910.6133	3010.0977	3027.4964	3038.7446	3067.8342	3070.8485	3109.7339	3115.0151	3187.814	3731.9736
CCC1=CCC(=O)C1O	CCC1=CCC(=O)[C@H]1O	
InChI=1S/C7H10O2/c1-2-5-3-4-6(8)7(5)9/h3,7,9H,2,4H2,1H3	InChI=1S/C7H10O2/c1-2-5-3-4-6(8)7(5)9/h3,7,9H,2,4H2,1H3/t7-/m0/s1
