14
gdb 44697	3.41917	1.42265	1.196	3.582	63.44	-0.2541	-0.0611	0.193	1004.7087	0.101004	-473.83883	-473.831729	-473.830785	-473.871341	26.426	
N	-0.2036329681	 1.3186375659	 0.3365953026	-0.5598
C	-0.0628756294	 0.0951360946	 0.1050616764	 0.488109
O	-1.0865174755	-0.7900884595	 0.2244487379	-0.232663
C	-0.6649739976	-2.1028846839	-0.1174855439	 0.06421
C	-1.0607926509	-2.5294959324	-1.5552161108	-0.37966
C	 0.3877837858	-2.2350549631	-2.0024841838	 0.374953
O	 0.9622498252	-2.2440129237	-3.0458565611	-0.261725
C	 0.819268107	-1.9075456224	-0.5338839011	-0.035338
O	 1.0924357651	-0.5412243924	-0.2790106457	-0.249635
H	 0.6723878935	 1.8126866323	 0.1872377536	 0.239916
H	-0.9106559699	-2.7857137177	 0.6950847135	 0.114403
H	-1.3270852169	-3.5860668154	-1.659292534	 0.148986
H	-1.8374277655	-1.9196702099	-2.023274759	 0.162493
H	 1.6007277373	-2.5356806323	-0.1018188845	 0.125753
48.8026	98.8093	209.5434	362.6561	417.7046	466.778	518.9269	618.3602	701.6013	711.2991	756.9033	788.5382	803.7658	867.5977	890.6538	940.1548	975.718	1009.2754	1045.636	1082.1255	1120.9485	1146.9859	1184.4873	1219.4369	1249.7549	1287.7859	1332.6006	1381.4991	1418.7599	1806.876	1911.0011	3064.7244	3100.4184	3121.7574	3128.1343	3545.6453
N=C1OC2CC(=O)C2O1	[NH][C]1O[C@H]2CC(=O)[C@H]2O1	
InChI=1S/C5H5NO3/c6-5-8-3-1-2(7)4(3)9-5/h3-4,6H,1H2	InChI=1S/C5H5NO3/c6-5-8-3-1-2(7)4(3)9-5/h3-4,6H,1H2/t3-,4+/m0/s1
