18
gdb 50079	3.15215	1.16372	0.98049	4.7083	73.42	-0.2372	-0.0164	0.2209	1226.775	0.147326	-439.040771	-439.032162	-439.031218	-439.075631	30.665	
O	-0.2814791052	 0.2855327115	 0.6009133585	-0.26832
C	 0.339212035	 0.679565451	-0.356008138	 0.17374
C	 1.3816527274	 1.7492123553	-0.2404943398	-0.12555
N	 2.3208504926	 1.8824280004	-1.3736563591	-0.333594
C	 1.4286364967	 2.994342232	-1.0830520634	-0.035532
C	 0.4044156653	 3.3767530808	-2.1239707519	 0.137057
C	 0.9648855339	 3.7468444888	-3.521229192	-0.289704
C	 0.2046318922	 2.4946142172	-3.9970383811	-0.056776
O	-0.3195310972	 2.2572636284	-2.6697717152	-0.287014
H	 0.2049056654	 0.2677943272	-1.3710423496	 0.104891
H	 1.7603314549	 1.8585239352	 0.7740579832	 0.105728
H	 3.2623286096	 2.0606737357	-1.036714892	 0.242445
H	 1.8477835357	 3.8633209883	-0.5726718523	 0.093797
H	-0.2831143407	 4.1149989909	-1.6895002632	 0.085141
H	 0.6065752287	 4.6938162277	-3.9260656763	 0.114103
H	 2.0507811568	 3.6942385543	-3.6062733907	 0.116696
H	-0.5997704166	 2.6649611829	-4.7210240207	 0.10634
H	 0.8319925152	 1.6633555325	-4.3355678366	 0.116552
42.0528	61.3148	78.6314	199.1505	236.6156	292.9852	318.7749	447.3846	529.0397	644.2169	721.7994	796.2254	823.1314	861.1023	905.5185	924.7011	948.032	987.0302	999.6579	1026.8199	1040.2995	1080.6745	1096.7099	1126.2354	1167.0678	1184.8698	1220.8358	1225.1669	1244.441	1260.1365	1276.2666	1354.0109	1360.6994	1388.1211	1416.9472	1465.8016	1483.6015	1524.6025	1813.068	2993.4616	3012.8949	3032.653	3078.4928	3086.9058	3093.3041	3134.5742	3145.8968	3516.7338
O=CC1NC1C1CCO1	O=C[C@H]1N[C@H]1[C@H]1CCO1	
InChI=1S/C6H9NO2/c8-3-4-6(7-4)5-1-2-9-5/h3-7H,1-2H2	InChI=1S/C6H9NO2/c8-3-4-6(7-4)5-1-2-9-5/h3-7H,1-2H2/t4-,5-,6-/m1/s1
