21
gdb 97968	4.77046	0.46779	0.44288	1.2388	85.26	-0.246	0.0381	0.2842	2454.32	0.179418	-424.195282	-424.18386	-424.182916	-424.235559	39.459	
C	-0.0209656738	 1.4459090938	-0.3778472128	-0.40878
C	-0.0191568477	-0.0324432802	 0.0094851248	 0.137455
O	 0.5593684343	-0.2291593102	 1.2998071627	-0.428189
C	-1.4169729645	-0.6575393303	-0.0773821023	-0.181219
C	-1.4118006158	-2.1588248333	 0.270430696	-0.359323
C	-2.7405851841	-2.7578035448	 0.2604357709	 0.000237
C	-3.8552010408	-3.2169323897	 0.25966136	 0.106964
C	-5.1863149817	-3.8195718697	 0.2110458173	-0.190702
O	-5.7081304916	-3.9422844772	-1.1067559831	-0.404095
H	 0.985875009	 1.8625491622	-0.2887871048	 0.125813
H	-0.3674529398	 1.5870068291	-1.4065696606	 0.119154
H	-0.6885742536	 2.0183257926	 0.2786608706	 0.108239
H	 0.6521804945	-0.5769153324	-0.6675842309	 0.088732
H	 0.0558553268	 0.3014977574	 1.9278750568	 0.277273
H	-2.0936076261	-0.1292898511	 0.607856838	 0.097375
H	-1.8226787785	-0.5131320109	-1.0851613239	 0.107933
H	-0.7620054155	-2.6926669054	-0.4363744083	 0.124408
H	-0.9486465975	-2.2873305342	 1.255331994	 0.142781
H	-5.1638663737	-4.7957583708	 0.7222350528	 0.114782
H	-5.9051842937	-3.1972653277	 0.7560005746	 0.135781
H	-5.030766236	-4.3686072072	-1.6419311917	 0.285382
3.714	43.124	74.1645	118.5891	136.723	202.4065	236.914	260.9523	296.8704	312.535	332.0626	369.7578	447.1628	470.8032	506.5732	575.1312	763.449	781.1364	857.6093	935.1207	957.9979	989.2339	1022.2701	1044.2821	1074.6881	1100.5725	1148.7706	1160.9013	1183.6977	1214.9177	1272.3519	1291.8303	1339.6685	1355.5238	1357.0493	1390.1647	1404.9653	1419.592	1421.3104	1470.0772	1484.2577	1493.2692	1494.1158	1495.963	2359.768	2971.4487	3014.4165	3020.3868	3023.5692	3033.9781	3058.0311	3058.9095	3078.3922	3095.7138	3119.616	3791.8165	3817.2898
CC(O)CCC#CCO	C[C@@H](O)CCC#CCO	
InChI=1S/C7H12O2/c1-7(9)5-3-2-4-6-8/h7-9H,3,5-6H2,1H3	InChI=1S/C7H12O2/c1-7(9)5-3-2-4-6-8/h7-9H,3,5-6H2,1H3/t7-/m1/s1
