17
gdb 127145	2.64054	1.508	1.0202	4.6556	72.04	-0.2229	-0.0165	0.2064	1151.6066	0.136317	-451.274957	-451.266226	-451.265282	-451.308245	32.229	
C	 0.0138891937	 1.4687862284	-0.0647704999	-0.324405
N	-0.0491207044	 0.0256449481	 0.1376715327	-0.167952
C	 0.7384147618	-0.4371741351	 1.2816879179	-0.359757
C	-1.3033963223	-0.5382568245	-0.0123282646	 0.354935
N	-2.4056955344	 0.1477025962	-0.1784115813	-0.178351
O	-3.4019798153	-0.7758489468	-0.3773829957	-0.178867
N	-2.9073344233	-2.0602497773	-0.3320188168	-0.157422
C	-1.6287074059	-1.9393114234	-0.1122200456	 0.284871
N	-0.7651530887	-3.0148602534	 0.0343088476	-0.59714
H	 1.0643267584	 1.7663284161	-0.129126862	 0.120002
H	-0.4931885086	 1.7302131509	-0.995062707	 0.1491
H	-0.4629244815	 2.0299812415	 0.7528855615	 0.125401
H	 0.4216869381	 0.0436496471	 2.2206020166	 0.12226
H	 0.6363826131	-1.516671201	 1.4021453401	 0.15195
H	 1.7924011337	-0.1980139992	 1.1114445543	 0.126814
H	-1.2036122424	-3.8907780486	-0.2221441589	 0.266163
H	 0.1068469479	-2.888310279	-0.464803149	 0.262398
77.3289	159.0893	190.0746	223.4735	259.0035	286.8314	308.3555	350.0193	380.785	460.5814	541.2383	597.49	609.1189	724.3773	748.022	812.6592	910.711	953.2946	964.5241	1038.9632	1079.5592	1127.5168	1165.8311	1181.1273	1209.4468	1249.314	1375.5551	1448.7618	1466.9435	1471.4463	1481.998	1496.4524	1501.3024	1514.9303	1594.5129	1623.9897	1666.5084	2984.323	2996.7849	3078.7186	3083.8071	3138.9404	3141.3918	3532.863	3628.4594
CN(C)C1=NON=C1N	CN(C)c1nonc1N	
InChI=1S/C4H8N4O/c1-8(2)4-3(5)6-9-7-4/h1-2H3,(H2,5,6)	InChI=1S/C4H8N4O/c1-8(2)4-3(5)6-9-7-4/h1-2H3,(H2,5,6)
