21
gdb 38133	2.66359	1.81134	1.33591	0.3371	86.62	-0.221	0.0247	0.2457	1028.8026	0.186263	-349.946231	-349.939018	-349.938074	-349.977634	30.203	
C	 0.1872620978	 1.7092146561	 0.3341840183	-0.294883
C	 1.3508997985	 0.7894643222	-0.0117634109	-0.073976
C	 2.3256276127	 0.4589135076	 1.054198244	-0.060384
C	 2.0151440412	-0.2437451273	 2.1472165629	-0.093494
C	 0.6564534002	-0.8111031287	 2.3937691752	-0.029438
C	-0.3589252703	-0.0456620099	 3.3089753259	-0.231699
C	-1.4702589931	-0.3004656671	 2.252818981	-0.226932
C	-0.3834016945	-0.7393782445	 1.2247525455	-0.037708
C	-0.0559432048	 0.2394202228	 0.1110203947	-0.033231
H	 0.1641081511	 2.1027659877	 1.3442347782	 0.117824
H	-0.1641404685	 2.4011566499	-0.4243386909	 0.107799
H	 1.7645458223	 0.8953634375	-1.0100667869	 0.081269
H	 3.3362424241	 0.8388610143	 0.9254761176	 0.083502
H	 2.7771855969	-0.4294559169	 2.9009693643	 0.081134
H	 0.7510879496	-1.8433067699	 2.7506631406	 0.072373
H	-0.5195856963	-0.4564792266	 4.309067513	 0.092526
H	-0.1036504739	 1.0122035022	 3.4109171932	 0.102346
H	-2.1388875463	-1.1192050478	 2.532244275	 0.09602
H	-2.0798084416	 0.5604326404	 1.9680102127	 0.098585
H	-0.5719028382	-1.7134744145	 0.7649839883	 0.065881
H	-0.5431025469	 0.0064775323	-0.8316854717	 0.082485
108.6659	176.583	243.0937	334.0449	413.5454	479.7696	524.3715	579.9431	675.3706	704.6305	743.9859	762.751	792.9347	833.8541	838.9086	890.1309	944.0136	949.1663	952.7699	986.1569	997.5653	1016.6058	1043.322	1057.5111	1078.2831	1099.0219	1117.5106	1131.3558	1155.4516	1191.486	1212.4799	1232.6603	1251.2779	1263.0531	1271.9245	1282.2306	1335.1929	1349.6037	1385.2043	1407.8252	1431.2764	1476.8129	1488.9046	1498.6523	1706.3264	3025.6435	3051.3416	3055.2713	3062.7849	3098.7964	3116.6799	3128.7994	3134.901	3138.5173	3148.8709	3163.8465	3218.2131
C1C2C=CC3CCC3C12	C1[C@H]2C=C[C@H]3CC[C@H]3[C@@H]12	
InChI=1S/C9H12/c1-2-7-5-9(7)8-4-3-6(1)8/h1-2,6-9H,3-5H2	InChI=1S/C9H12/c1-2-7-5-9(7)8-4-3-6(1)8/h1-2,6-9H,3-5H2/t6-,7+,8+,9-/m0/s1
