17
gdb 126907	3.28438	1.0381	0.80604	4.5359	75.45	-0.2076	-0.0076	0.2	1400.1737	0.134913	-451.30385	-451.294273	-451.293328	-451.339341	33.61	
C	 0.1267396875	 1.4843229282	 0.1717226829	-0.394726
C	-0.1998384082	 0.0228837183	-0.1171329804	-0.126037
N	 0.6636090076	-0.500854815	-1.167591163	-0.390326
C	 0.8634351066	-1.8188339175	-1.3772629702	 0.530823
C	 1.4518500984	-2.414012924	-2.493508555	 0.050022
N	 1.9061187229	-1.7428935035	-3.6403715207	-0.609854
N	 1.4806346639	-3.751350783	-2.2298050733	-0.099412
N	 1.0009620552	-4.0801702879	-1.1432040423	-0.070685
O	 0.5356932053	-2.7084127484	-0.4828698076	-0.278872
H	 1.1649127048	 1.5966049567	 0.4967312217	 0.133394
H	-0.0221542929	 2.1074596928	-0.7175105847	 0.119922
H	-0.5281178113	 1.8694797812	 0.9579827409	 0.129145
H	-0.0411921713	-0.5905163076	 0.7734812956	 0.143033
H	-1.2607661463	-0.0807982053	-0.390089011	 0.112154
H	 0.8243584725	 0.0692790583	-1.9862104562	 0.255236
H	 1.4623548412	-2.0755999188	-4.4897766526	 0.248246
H	 2.910782224	-1.8109011747	-3.766844564	 0.247938
36.8193	69.5266	100.5035	220.9327	235.3128	262.5161	267.4446	304.4473	305.7082	368.4486	534.2599	571.1102	658.5602	667.6878	748.2982	792.7215	805.4384	850.8163	918.0473	952.6874	1073.8979	1140.4358	1162.0978	1212.8433	1231.2537	1258.508	1302.3314	1386.4801	1416.6023	1480.3769	1495.6503	1499.4259	1505.2812	1520.2695	1525.2057	1639.825	1678.7466	2992.5615	3037.4016	3090.2318	3111.6928	3125.5895	3498.5327	3563.6909	3599.6145
CCNC1=C(N)N=NO1	CCNc1c(N)nno1	
InChI=1S/C4H8N4O/c1-2-6-4-3(5)7-8-9-4/h6H,2,5H2,1H3	InChI=1S/C4H8N4O/c1-2-6-4-3(5)7-8-9-4/h6H,2,5H2,1H3
