12
gdb 28664	5.97665	1.04674	0.89074	4.9262	72.84	-0.2692	-0.077	0.1922	1172.511	0.079957	-431.735325	-431.728502	-431.727557	-431.766824	25.357	
O	 0.0703884311	 1.3322503248	-0.076279643	-0.398105
C	 0.0619855725	-0.0042796183	-0.0424219066	 0.43066
C	-0.002830939	-0.7179993734	-1.2571546285	-0.083318
N	-0.0134275527	-2.0357483636	-1.2713040006	-0.277997
C	 0.0401936529	-2.6625958064	-0.0795408152	 0.190389
C	 0.104105474	-1.9470528151	 1.1162742896	-0.048196
N	 0.1149680713	-0.6136248294	 1.1335244277	-0.334202
C	 0.03006487	-4.096267081	-0.0661244799	 0.238232
N	 0.0238842784	-5.2521051164	-0.0147879861	-0.321737
H	 0.1175970698	 1.6400937813	 0.8408987244	 0.312219
H	-0.0452193007	-0.1894108345	-2.2044437239	 0.143563
H	 0.1470439624	-2.4595386379	 2.0723909623	 0.14849
98.691	157.3102	261.1715	403.7991	433.3017	454.5016	495.3686	546.5151	565.628	617.1559	668.8639	734.7638	812.6735	891.139	938.1498	971.5887	1033.2713	1170.0907	1252.4411	1284.2292	1307.5289	1364.1576	1430.0873	1515.2689	1592.1354	1624.2697	2350.3265	3182.8937	3185.8542	3754.067
OC1=CN=C(C=N1)C#N	Oc1cnc(cn1)C#N	
InChI=1S/C5H3N3O/c6-1-4-2-8-5(9)3-7-4/h2-3H,(H,8,9)	InChI=1S/C5H3N3O/c6-1-4-2-8-5(9)3-7-4/h2-3H,(H,8,9)
