22
gdb 106700	2.42929	1.49379	1.19202	1.617	86.2	-0.2247	0.0865	0.3113	1177.7793	0.193748	-367.162006	-367.152953	-367.152009	-367.195464	35.147	
C	 0.2526419119	 1.509136989	 0.2147228231	-0.371963
C	-0.1456352304	 0.0537451053	-0.0704866301	-0.294804
C	 0.5501291932	-0.5040093302	-1.2784756557	 0.342073
C	 1.9566997982	-1.0305868886	-1.3009228625	-0.3776
C	 0.8266382954	-1.9278159012	-1.7760100495	 0.24842
C	 0.5412940009	-3.2863963489	-1.1982966287	-0.494551
C	 0.4020752528	-1.4364033334	-3.1372523164	-0.093611
C	-0.9351506583	-0.8027209174	-3.091954975	-0.247238
N	 0.2240960752	-0.0046106878	-2.6432044773	-0.157854
H	 1.3237722699	 1.5871132452	 0.4261366331	 0.118311
H	 0.0368229192	 2.1440497437	-0.6493817007	 0.136135
H	-0.2941289601	 1.9050366117	 1.0759553719	 0.107055
H	 0.0875853839	-0.5756120208	 0.7970214579	 0.098925
H	-1.2326438408	-0.0076795883	-0.2116925256	 0.096383
H	 2.6751105344	-0.6221520885	-2.0070835517	 0.110537
H	 2.3725889712	-1.2912308881	-0.3310998659	 0.105217
H	 0.7078113834	-3.2980638293	-0.1161241282	 0.11824
H	-0.4952970314	-3.5906889814	-1.3807475564	 0.116778
H	 1.1946951937	-4.050947487	-1.6361668138	 0.121129
H	 0.9144615749	-1.6362885853	-4.0746150402	 0.091137
H	-1.3571232828	-0.4469281257	-4.0274295944	 0.116206
H	-1.6654957848	-1.134990813	-2.3576098439	 0.111074
77.8748	133.5105	193.0818	202.3029	228.6098	248.5423	284.9139	398.9761	413.5924	522.461	563.6646	579.4725	697.5249	755.8128	780.2756	798.4179	834.9364	851.9924	944.2998	969.8048	985.5095	1000.2094	1012.1611	1034.7265	1055.7499	1073.6356	1096.1951	1113.6108	1114.1447	1147.3572	1186.3196	1213.6739	1235.4478	1284.4765	1308.0927	1347.4345	1370.2897	1402.6677	1408.6318	1424.2612	1478.0782	1486.6455	1494.1999	1495.8037	1497.7559	1502.8165	1510.2144	3018.203	3021.071	3039.1086	3054.4642	3079.273	3096.0234	3106.4109	3107.6762	3108.3115	3117.1732	3146.0075	3193.3278	3198.1113
CCC12CC1(C)C1CN21	CC[C@@]12C[C@]1(C)[C@H]1CN21	
InChI=1S/C8H13N/c1-3-8-5-7(8,2)6-4-9(6)8/h6H,3-5H2,1-2H3	InChI=1S/C8H13N/c1-3-8-5-7(8,2)6-4-9(6)8/h6H,3-5H2,1-2H3/t6-,7-,8-,9?/m1/s1
