20
gdb 81167	2.46832	1.62095	1.25619	2.1949	79.53	-0.221	-0.0314	0.1896	1076.0838	0.17126	-403.123196	-403.114879	-403.113935	-403.156084	32.167	
C	-0.5196486406	 1.3025648948	-0.2195241641	-0.342229
N	-0.1164320581	-0.0964951444	-0.1038072685	-0.140534
C	 1.1628995955	-0.4552873236	-0.83195432	 0.010272
C	 1.9977862847	 0.0588638379	 0.372451837	-0.286668
C	 0.7361054221	-0.4473190734	 1.1093261504	 0.276135
C	 0.8149110815	-1.9855518272	 0.9063158198	-0.252899
C	 1.1604622328	-1.9788679792	-0.6209844089	-0.209171
C	 0.2909941761	 0.0254335753	 2.4538412805	 0.039278
O	 0.9990299434	 0.5918826369	 3.2487554803	-0.249245
H	 0.2673215753	 2.0506519109	-0.0323219331	 0.105864
H	-0.9022628966	 1.4656977337	-1.232287296	 0.124397
H	-1.3417339355	 1.5002628337	 0.4756932819	 0.12421
H	 1.28311765	-0.0667067922	-1.8439324499	 0.070509
H	 2.9564956695	-0.418766104	 0.5907793516	 0.100563
H	 2.1079683802	 1.1414321201	 0.407574308	 0.117843
H	 1.589769331	-2.4402992125	 1.5277526166	 0.109998
H	-0.1423821007	-2.4649470421	 1.1191781566	 0.11085
H	 0.3938461551	-2.4693945618	-1.222740803	 0.109804
H	 2.1296458932	-2.4348766821	-0.837691991	 0.100676
H	-0.7755861391	-0.2021506306	 2.6857654517	 0.080347
65.5062	162.946	197.8905	233.3882	274.9301	302.4788	337.4461	450.0942	477.1736	538.9162	659.7478	700.617	775.3111	826.8198	840.6304	863.1087	894.7196	927.2236	962.0867	964.4997	1015.8781	1035.3888	1079.9226	1113.2339	1149.9959	1165.2464	1181.3753	1198.0722	1206.2193	1223.4119	1239.4621	1261.6162	1293.3398	1306.6898	1344.4153	1416.792	1448.7626	1480.375	1482.1075	1498.8434	1501.2517	1522.5648	1822.5889	2862.5951	2973.3067	3063.7179	3067.451	3071.1032	3077.3342	3098.9612	3112.8501	3117.3208	3133.7133	3153.171
CN1C2CC1(CC2)C=O	CN1[C@H]2C[C@@]1(CC2)C=O	
InChI=1S/C7H11NO/c1-8-6-2-3-7(8,4-6)5-9/h5-6H,2-4H2,1H3	InChI=1S/C7H11NO/c1-8-6-2-3-7(8,4-6)5-9/h5-6H,2-4H2,1H3/t6-,7+/m1/s1
