19
gdb 115662	2.62101	0.93587	0.74636	2.8124	80.38	-0.2439	0.0407	0.2846	1549.4123	0.157687	-422.97732	-422.967273	-422.966329	-423.014868	34.614	
C	 0.2527439582	 1.5842350433	-0.0901814858	-0.498342
C	 0.1589481351	 0.132663339	-0.0303369668	 0.059576
C	 0.0823933033	-1.0689560101	 0.0157801312	 0.093758
C	-0.0027800579	-2.5134902221	 0.0835625065	-0.260917
C	-0.2275230732	-3.1866126384	 1.466458423	-0.078757
O	-1.3432476997	-3.9501866053	 0.9645905908	-0.302292
C	-1.3373203734	-3.227965497	-0.2951048363	 0.113204
C	-2.5981469039	-2.3874899589	-0.4096499782	-0.073168
O	-3.7359761814	-3.2213999083	-0.3052507847	-0.423388
H	 1.1630263275	 1.9036131467	-0.6093413839	 0.150412
H	-0.601867252	 2.0150645127	-0.6233154656	 0.152068
H	 0.2715369374	 2.0230158558	 0.9134948093	 0.150526
H	 0.8412882554	-2.9674339366	-0.4431729879	 0.110862
H	 0.5809826129	-3.8314405633	 1.8260034683	 0.111836
H	-0.5217612737	-2.4902083365	 2.2598043571	 0.110942
H	-1.2719570344	-3.9264570671	-1.1370231056	 0.088977
H	-2.5938741415	-1.6035073907	 0.3628463893	 0.092146
H	-2.6411683415	-1.8927035618	-1.3855798042	 0.111091
H	-3.6039811273	-3.7417217914	 0.4974372135	 0.291465
12.8872	66.6947	79.2464	109.3712	148.4496	202.4823	278.7569	308.7482	383.2318	461.7628	473.1316	487.5107	553.2217	689.5108	807.1127	873.969	921.024	946.691	1020.3728	1040.3912	1050.6233	1053.1058	1057.3728	1087.3065	1121.5346	1164.1957	1200.6716	1202.9177	1231.3145	1273.6083	1330.768	1344.9715	1370.1947	1396.5722	1415.0954	1436.1663	1477.4533	1478.0525	1498.1525	1524.5815	2367.2888	2991.4382	3027.449	3028.5223	3042.308	3062.0594	3079.4941	3084.4058	3088.8239	3089.1921	3776.5994
CC#CC1COC1CO	CC#C[C@H]1CO[C@H]1CO	
InChI=1S/C7H10O2/c1-2-3-6-5-9-7(6)4-8/h6-8H,4-5H2,1H3	InChI=1S/C7H10O2/c1-2-3-6-5-9-7(6)4-8/h6-8H,4-5H2,1H3/t6-,7-/m0/s1
