18
gdb 59230	2.52936	1.48661	1.17386	2.2647	72.33	-0.2034	-0.0319	0.1715	1105.4128	0.145451	-439.031031	-439.022102	-439.021158	-439.065107	32.476	
C	 0.0021100773	 1.4826590679	 0.0653406617	-0.327081
N	 0.0577559918	 0.0245449175	 0.0388772365	-0.078069
C	 1.0635170302	-0.5018268362	 0.9565797331	-0.330607
C	-1.2396477642	-0.5779395402	 0.1373656077	-0.071021
C	-1.4392221417	-2.0894402023	-0.0598087689	-0.015858
O	-0.9599465721	-2.763360245	 1.1032611538	-0.231003
C	-2.3041385513	-2.2324191676	 1.1370037316	-0.114145
C	-2.0889715041	-0.7553350345	 1.4750935684	 0.386907
O	-2.4828302249	-0.017313705	 2.3262523041	-0.299145
H	 0.9937272502	 1.8845151669	-0.1650377704	 0.119643
H	-0.6939555418	 1.8417139455	-0.6996538212	 0.116978
H	-0.3162844591	 1.8921048438	 1.0385934183	 0.120902
H	 0.8343113476	-0.2947586064	 2.0164932641	 0.108331
H	 1.1598908903	-1.5810747004	 0.8385199633	 0.141974
H	 2.0267905827	-0.0394882295	 0.7208745611	 0.115486
H	-1.9188420445	-0.0448161414	-0.5441331906	 0.108405
H	-1.4840696508	-2.6528070937	-0.9840942962	 0.121203
H	-3.1141536957	-2.9201969894	 1.3457292434	 0.127099
47.7099	116.813	151.8458	194.4974	229.3959	243.8947	337.4308	345.9526	398.0954	489.8311	566.4828	644.2099	715.3031	802.6992	850.9652	871.7294	894.0428	931.0265	967.8429	1021.5542	1054.4735	1069.0208	1109.4741	1120.1253	1179.1599	1187.7121	1212.277	1219.8262	1257.0201	1326.2419	1347.1799	1394.8848	1446.162	1477.5496	1481.0111	1495.1708	1502.0993	1518.4514	1897.8537	2958.5332	2969.4682	3012.4098	3061.3768	3077.7315	3101.9005	3146.5468	3193.6979	3206.8575
CN(C)C1C2OC2C1=O	CN(C)[C@H]1[C@H]2O[C@H]2C1=O	
InChI=1S/C6H9NO2/c1-7(2)3-4(8)6-5(3)9-6/h3,5-6H,1-2H3	InChI=1S/C6H9NO2/c1-7(2)3-4(8)6-5(3)9-6/h3,5-6H,1-2H3/t3-,5-,6+/m1/s1
