16
gdb 81580	3.68419	1.21285	1.01768	14.3982	66.9	-0.1699	-0.0241	0.1457	1133.4241	0.123955	-474.903473	-474.895764	-474.89482	-474.936313	29.347	
N	 0.3007285331	 0.9825098658	 0.1119568548	-0.434951
H	 0.2991818749	-0.0193574853	 0.412100979	 0.317021
H	 1.2487886828	 1.3575113061	 0.0861651879	 0.322709
H	-0.1218371855	 1.0911973006	-0.8098538737	 0.322709
C	-0.5372122874	 1.5955540967	 1.2115299699	-0.05839
C	-1.6974080939	 0.658051973	 1.600606816	 0.035379
O	-0.6693776017	-0.3704585032	 1.9979331212	-0.362711
C	-0.2122478209	 0.9465753387	 2.5715193294	 0.035378
C	-1.6570502512	 1.272034658	 3.0206332177	-0.109703
C	-2.1182868921	 2.7743558218	 3.2797574076	 0.333009
O	-2.8044620896	 2.899890917	 4.2921654327	-0.440362
O	-1.7262865302	 3.6155975156	 2.4301195372	-0.490937
H	-0.7266703452	 2.6769524211	 1.1799296302	 0.200318
H	-2.5374012914	 0.313282549	 0.9973769668	 0.113172
H	 0.7241694978	 0.946909589	 3.1296084364	 0.113173
H	-2.0230883594	 0.5871806461	 3.784069357	 0.104185
42.722	174.1573	201.3059	311.911	316.2669	377.3576	397.5862	403.1363	657.5889	676.404	721.9063	751.6775	811.6459	830.2324	842.5277	894.8593	901.6851	918.0317	961.804	1038.2033	1069.3562	1090.812	1103.1771	1143.5785	1188.4668	1208.9017	1215.7652	1242.9616	1263.9597	1305.3704	1341.1444	1364.5192	1634.5139	1667.828	1789.6384	3034.0302	3112.6499	3122.6147	3124.5992	3139.9008	3475.852	3539.1574
[NH3+]C1C2OC1C2C([O-])=O	[NH3][C@H]1[C@H]2O[C@@H]1[C@H]2C(=O)[O]	
InChI=1S/C5H7NO3/c6-2-3-1(5(7)8)4(2)9-3/h1-4H,6H2,(H,7,8)	InChI=1S/C5H7NO3/c6-2-3-1(5(7)8)4(2)9-3/h1-4H,6H3/t1-,2-,3-,4+
