18
gdb 66915	2.66593	1.75678	1.28818	2.1501	76.19	-0.2287	-0.0024	0.2263	1029.6487	0.146325	-401.913113	-401.904678	-401.903734	-401.94577	31.891	
C	-0.0060566134	 1.5313388392	-0.0564004845	-0.507294
C	-0.0434398119	 0.039242807	-0.0071368771	 0.205971
C	 0.5466941124	-1.0135881447	-0.9256483289	-0.145753
N	 1.2007009864	-0.7207296149	 0.3591176294	-0.176356
C	 0.7333457318	-2.0519202154	 0.9001721522	-0.19417
C	-0.341015968	-2.1128120057	-0.1986916147	 0.149455
C	-0.9665306629	-3.368126184	-0.7343161894	-0.509373
C	-1.2087151464	-0.8898824707	 0.1801919352	 0.36931
O	-2.3919675614	-0.7262136659	 0.2965060937	-0.342233
H	 0.9342254594	 1.8796839727	-0.4911375597	 0.136483
H	-0.8384422266	 1.9146266094	-0.6538451455	 0.137936
H	-0.0888455103	 1.952461714	 0.9505240144	 0.138832
H	 0.9758533388	-0.9033263078	-1.912614705	 0.116929
H	 1.5453926613	-2.7718621033	 0.7662908518	 0.115817
H	 0.4055435458	-2.0441207639	 1.946446354	 0.109784
H	-1.5388350845	-3.8687317436	 0.0539937863	 0.13796
H	-1.6609877904	-3.1463271437	-1.5505893405	 0.134665
H	-0.21158191	-4.0702807687	-1.1020165616	 0.122037
131.7646	154.9868	168.705	209.707	228.0416	242.5936	317.8747	434.0649	495.3469	564.5237	630.189	682.6893	754.359	770.8569	820.3563	855.4088	878.5267	892.4478	957.6915	976.1548	1020.4931	1040.3109	1071.8234	1130.9528	1139.817	1152.9903	1193.416	1240.8246	1277.3912	1364.7925	1389.5101	1414.9949	1433.8448	1480.2254	1485.0426	1489.7391	1491.1397	1509.8914	1869.1206	3032.9356	3035.8678	3043.7894	3099.011	3102.4636	3107.4255	3109.7522	3125.8371	3209.7128
CC12C3N1CC3(C)C2=O	C[C@@]12[C@H]3N1C[C@@]3(C)C2=O	
InChI=1S/C7H9NO/c1-6-3-8-4(6)7(8,2)5(6)9/h4H,3H2,1-2H3	InChI=1S/C7H9NO/c1-6-3-8-4(6)7(8,2)5(6)9/h4H,3H2,1-2H3/t4-,6+,7-,8?/m0/s1
