22
gdb 10223	3.18852	1.14897	0.89955	1.278	76.33	-0.2408	0.0879	0.3287	1366.3997	0.197318	-387.323778	-387.313155	-387.312211	-387.359818	36.466	
C	-1.0754489696	 1.465978583	 0.1401070687	-0.386275
C	-1.2431524468	 0.0133872237	-0.3097117333	-0.181269
C	 0.0024973751	-0.5438523646	-1.0071488822	 0.111524
C	-0.1864010898	-2.0173011853	-1.3683711579	-0.056711
O	 1.0498913018	-2.5769511277	-1.7622944577	-0.234611
C	 0.9401712459	-3.9241131139	-2.1544278489	-0.228884
O	 0.2304996937	 0.2546919184	-2.1582649224	-0.253757
C	 1.5707583884	 0.3180937438	-2.6059782122	-0.234566
H	-0.2680525639	 1.5611221541	 0.8751032817	 0.108648
H	-0.8311903517	 2.1028449208	-0.7131571527	 0.133634
H	-1.9927101639	 1.8432122754	 0.6021303758	 0.107936
H	-1.4780826109	-0.6234573504	 0.551295906	 0.093223
H	-2.0902130786	-0.0649135815	-1.0029266965	 0.103969
H	 0.8681487338	-0.4698010789	-0.3275067499	 0.069155
H	-0.5887644347	-2.5661695393	-0.4992815397	 0.079505
H	-0.9245064347	-2.0940587098	-2.1839410062	 0.092275
H	 0.559605617	-4.5562595145	-1.3361342194	 0.103291
H	 0.2694869383	-4.0456289664	-3.0196517785	 0.106
H	 1.9396807642	-4.2688225057	-2.4305732805	 0.126454
H	 2.243269758	 0.6712329149	-1.8086788119	 0.098899
H	 1.9341845821	-0.651915232	-2.9601234821	 0.125799
H	 1.5939234163	 1.0404241659	-3.4267521103	 0.115762
67.5715	88.0205	102.0472	111.6008	146.3838	195.748	221.0419	233.9031	274.1318	319.3014	348.8315	391.1114	502.4455	557.1701	766.4444	866.8824	921.6434	979.3925	987.5439	1040.1071	1096.6048	1125.4356	1142.1521	1149.2084	1175.8157	1184.3328	1187.3319	1225.4279	1231.1379	1266.7017	1298.0377	1313.403	1382.5997	1396.502	1408.4056	1423.2311	1475.2878	1477.1862	1480.2368	1485.0864	1486.2951	1496.0567	1498.1451	1511.4345	1517.5477	1522.7588	2948.9217	2965.559	2970.9422	2984.7412	2993.0286	3013.7886	3027.7527	3036.2905	3066.2615	3071.376	3100.4835	3112.9599	3113.4386	3129.2884
CCC(COC)OC	CC[C@@H](COC)OC	
InChI=1S/C6H14O2/c1-4-6(8-3)5-7-2/h6H,4-5H2,1-3H3	InChI=1S/C6H14O2/c1-4-6(8-3)5-7-2/h6H,4-5H2,1-3H3/t6-/m0/s1
