14
gdb 28559	2.50271	1.80042	1.05307	4.738	65.74	-0.2215	-0.0492	0.1724	1044.0188	0.102226	-470.058581	-470.050613	-470.049669	-470.092119	28.729	
N	 0.1681066887	 1.421285772	 0.023506499	-0.615099
C	-0.0232247749	 0.0285171956	-0.0138960115	 0.210485
C	-1.0814474392	-0.8185811415	-0.0437652808	-0.112497
N	-0.6919173536	-2.1581899821	-0.075403458	-0.34781
C	 0.6017890877	-2.135963723	-0.065064812	 0.481626
O	 1.4099820585	-3.18495557	-0.086026478	-0.406359
N	 1.1131490483	-0.8305338087	-0.0275411287	-0.154659
C	 2.442783195	-0.490289682	-0.0087572786	 0.185045
O	 3.3376663173	-1.3172995539	-0.0233990141	-0.342816
H	-0.2129534085	 1.8907552491	-0.7897292698	 0.256457
H	-0.2251590397	 1.8482956605	 0.8541495286	 0.256456
H	-2.1285537579	-0.5544399623	-0.0448426757	 0.119391
H	 2.3296166344	-2.8436189073	-0.0702557735	 0.32527
H	 2.6071936437	 0.5949715736	 0.0204793632	 0.144512
27.8903	136.7582	206.8727	241.9084	282.6884	324.1135	369.6318	493.3219	584.2677	612.4968	643.1676	699.1279	735.3292	744.9681	790.5847	837.5439	870.0421	1057.2074	1077.7121	1157.3995	1206.5447	1254.7581	1294.9104	1314.3565	1363.1926	1410.5299	1483.0485	1632.1513	1663.8295	1671.3691	1773.0302	3065.2506	3248.5181	3493.4031	3517.6378	3586.6456
NC1=CN=C(O)N1C=O	Nc1cnc(O)n1C=O	
InChI=1S/C4H5N3O2/c5-3-1-6-4(9)7(3)2-8/h1-2H,5H2,(H,6,9)	InChI=1S/C4H5N3O2/c5-3-1-6-4(9)7(3)2-8/h1-2H,5H2,(H,6,9)
