19
gdb 94746	3.75405	1.14757	1.00776	3.5043	80.98	-0.2576	0.0182	0.2758	1218.7239	0.161241	-382.084566	-382.076328	-382.075383	-382.117174	31.864	
C	 0.0121106386	 1.565022294	 0.0209337149	-0.40532
C	 0.0356376229	 0.0356207189	 0.0114078702	 0.033171
C	 0.8034431435	-0.5734841354	-1.1908515055	-0.237572
C	 1.3008618977	-1.9618637378	-0.7275930378	-0.278906
C	 1.4764874382	-1.7942345134	 0.7772787012	 0.219288
N	 2.1918298524	-0.541088317	 1.1430960857	-0.364487
C	 0.722864079	-0.5809759608	 1.2212293813	-0.084747
C	 1.6174313434	-2.9441440859	 1.6250890305	 0.1894
N	 1.7446489761	-3.8757348502	 2.3000286285	-0.342372
H	 1.0300297397	 1.9609187673	 0.0920667857	 0.13333
H	-0.4417729547	 1.9548404109	-0.8957172558	 0.118282
H	-0.5642452172	 1.9522472195	 0.8677147219	 0.113666
H	-0.9964150228	-0.3408120931	 0.0078699676	 0.081083
H	 0.1802750788	-0.6367548562	-2.0861245716	 0.103853
H	 1.6602011405	 0.0615132823	-1.4282395974	 0.12531
H	 0.5498094187	-2.7385498528	-0.9073215186	 0.119226
H	 2.2258476548	-2.2687554268	-1.2228409077	 0.121023
H	 2.5888778844	-0.6427817077	 2.0744797981	 0.249203
H	 0.2500400158	-0.5483993458	 2.1978449788	 0.106567
113.068	144.5233	170.0847	241.4374	264.5712	324.6636	384.1167	450.7972	526.0405	562.9584	590.5539	607.3115	683.3508	815.4889	837.9037	860.4539	924.9601	949.4808	967.1982	991.3381	1006.1486	1059.6919	1076.5681	1111.4222	1135.7653	1149.4062	1225.2824	1230.7728	1273.6738	1280.8456	1320.6644	1344.6882	1348.7235	1371.0843	1404.5934	1423.0884	1483.832	1495.5935	1499.2875	1503.387	2347.0856	3015.8806	3034.0416	3052.6143	3070.957	3099.3957	3100.6498	3110.8829	3119.3496	3165.5528	3505.4449
CC1CCC2(NC12)C#N	C[C@H]1CC[C@]2(N[C@@H]12)C#N	
InChI=1S/C7H10N2/c1-5-2-3-7(4-8)6(5)9-7/h5-6,9H,2-3H2,1H3	InChI=1S/C7H10N2/c1-5-2-3-7(4-8)6(5)9-7/h5-6,9H,2-3H2,1H3/t5-,6-,7-/m0/s1
