16
gdb 123590	4.22852	1.60721	1.3964	3.6188	74.14	-0.2135	0.0222	0.2357	916.4586	0.129537	-396.861123	-396.855146	-396.854201	-396.891409	24.802	
C	-0.0244411006	 1.5174053495	-0.0590164876	-0.166057
C	 1.5360698967	 1.3404197592	 0.0005583903	-0.188566
C	 1.138027536	 0.1645060801	 0.9643207286	-0.166054
N	-0.0966761956	-0.0152262278	 0.0630589068	-0.233749
C	 0.6143810279	-0.3466788099	-1.1829015974	 0.269094
C	 1.6850695699	 0.5116182612	-1.2643701208	 0.391435
N	 2.339659938	 0.2169438808	-2.3977911774	-0.377669
N	 1.740766981	-0.8069063946	-3.0712434741	-0.236884
C	 0.6792180638	-1.1531528311	-2.3231182076	-0.210885
H	-0.4520844726	 1.9901636247	 0.8301817942	 0.109759
H	-0.4672088027	 1.9188347905	-0.9719701032	 0.11709
H	 2.236775406	 2.1346892968	 0.2546591727	 0.079244
H	 1.7904424891	-0.7086553527	 1.0154777701	 0.117087
H	 0.8350548121	 0.4921796473	 1.9632645289	 0.109759
H	 3.1673157701	 0.6277388384	-2.7947329461	 0.271659
H	 0.0389927007	-1.9553896323	-2.6566190175	 0.114736
121.5826	306.7631	417.9395	505.2458	511.9367	560.5622	672.9085	673.7401	713.752	752.271	808.7517	823.0616	838.0544	889.1317	907.1726	968.5681	1000.5027	1025.9023	1042.8713	1068.3767	1094.0297	1110.2474	1170.4293	1192.8598	1220.1083	1234.2212	1237.1615	1295.3963	1320.4616	1355.7098	1471.1773	1487.2859	1523.5293	1546.0874	1558.7785	3050.1534	3060.7428	3126.7451	3131.9448	3136.1908	3255.1824	3672.6793
C1C2CN1C1=C2NN=C1	C1[C@H]2CN1c1c2[nH]nc1	
InChI=1S/C6H7N3/c1-5-6(8-7-1)4-2-9(5)3-4/h1,4H,2-3H2,(H,7,8)	InChI=1S/C6H7N3/c1-5-6(8-7-1)4-2-9(5)3-4/h1,4H,2-3H2,(H,7,8)
