19
gdb 110620	3.02853	1.34684	1.18448	2.2632	74.99	-0.2385	0.0787	0.3172	1125.6954	0.157524	-422.958526	-422.949906	-422.948962	-422.991808	32.468	
C	-0.3866034769	 1.0770289271	 0.124984383	-0.237586
O	 0.5309676399	 0.0318172555	-0.1305235181	-0.237685
C	 0.942471481	-0.6223693019	 1.0269318952	 0.116272
C	 0.131108144	-1.7023102918	 1.706184252	-0.155602
C	-0.5885564379	-2.5468990155	 0.6827535153	-0.046619
O	-0.0207957319	-3.8698691331	 0.6633838827	-0.296907
C	 0.6591132409	-2.8256719598	-0.054236026	 0.433418
C	 0.9321620051	-3.0083214019	-1.5112850375	-0.501856
C	 1.4646320197	-2.0141694698	 0.9488157673	-0.207309
H	 0.0501385551	 1.8474977347	 0.7784232544	 0.108035
H	-0.6360320973	 1.529146174	-0.8373453201	 0.129773
H	-1.3054243491	 0.7025521132	 0.5984623532	 0.111688
H	 1.4734884624	 0.0283502787	 1.7276227663	 0.090098
H	-0.0347294357	-1.718158021	 2.7770324783	 0.097315
H	-1.5994818919	-2.4455938102	 0.3066231354	 0.100951
H	 0.0830277223	-3.4934471468	-1.9994370581	 0.129807
H	 1.1095007624	-2.0364102785	-1.9798832794	 0.142971
H	 1.8175859621	-3.6343148158	-1.6693448093	 0.124809
H	 2.416652506	-2.306348407	 1.3760822352	 0.098427
83.3572	123.0966	166.2639	198.3972	231.0544	277.565	325.1083	383.9545	481.1443	579.6164	636.4692	681.1556	741.5508	784.4916	824.2163	861.1171	919.1581	943.623	968.8472	984.9003	1025.422	1057.5708	1079.8431	1087.1138	1095.2713	1122.1372	1180.9374	1194.0873	1195.3417	1241.0799	1272.9446	1297.7037	1319.7421	1400.4133	1421.0357	1457.5181	1484.5391	1485.9648	1489.5155	1494.082	1509.1222	2983.8016	3035.3261	3038.0879	3066.6575	3103.7753	3122.548	3129.3978	3178.3704	3187.3335	3193.2923
COC1C2C3OC3(C)C12	CO[C@H]1[C@H]2[C@@H]3O[C@]3(C)[C@@H]12	
InChI=1S/C7H10O2/c1-7-4-3(5(4)8-2)6(7)9-7/h3-6H,1-2H3	InChI=1S/C7H10O2/c1-7-4-3(5(4)8-2)6(7)9-7/h3-6H,1-2H3/t3-,4+,5-,6-,7+/m0/s1
