21
gdb 64101	3.06997	1.18585	1.07181	3.6598	78.35	-0.231	-0.0073	0.2236	1217.1199	0.182247	-424.2736	-424.264551	-424.263607	-424.306882	35.448	
C	-0.0117093275	 1.5675577739	 0.0008200574	-0.436336
C	-0.021163068	 0.0361094922	-0.0080631651	 0.35658
O	-1.3723261826	-0.4426248827	 0.0607112332	-0.463957
C	 0.6710409753	-0.512674815	-1.2717322673	-0.237153
C	 0.6925227305	-2.0520806079	-1.3018298259	-0.298075
C	 1.2876172754	-2.6349706782	-0.0269823429	 0.390575
O	 2.1445682369	-3.4882415923	-0.0372814143	-0.312415
C	 0.7050906721	-2.064509197	 1.257439447	-0.30561
C	 0.671678874	-0.5242561034	 1.2436498514	-0.211043
H	 1.0095093444	 1.9616975793	-0.0001350571	 0.11867
H	-0.5197813225	 1.9637972505	-0.8867505894	 0.104328
H	-0.5297401636	 1.9454034281	 0.886898584	 0.12465
H	-1.8551299233	-0.0748609755	-0.6873095461	 0.277634
H	 0.1606005121	-0.1303270492	-2.1652143463	 0.088565
H	 1.6961461547	-0.1242367041	-1.3131695821	 0.106934
H	-0.3418405377	-2.4118414766	-1.3719121048	 0.12318
H	 1.248721474	-2.4363112672	-2.1597798914	 0.1131
H	-0.3253694299	-2.4310962323	 1.3428637068	 0.135849
H	 1.2765688558	-2.4494939024	 2.1050987667	 0.112796
H	 1.6935165333	-0.1291443266	 1.2816461202	 0.103712
H	 0.1509118766	-0.1577792335	 2.1341280558	 0.108018
76.6955	168.4521	196.3606	237.9758	270.5634	292.5	331.9907	398.6392	403.0217	434.2961	484.6478	499.6585	529.6109	695.4966	720.199	749.2842	774.6826	887.8051	918.5715	948.3802	957.2025	1006.6531	1011.364	1035.8434	1103.5488	1120.3579	1143.8101	1157.1985	1197.612	1250.2592	1256.3583	1284.536	1321.2333	1348.784	1355.5991	1369.4304	1402.8482	1412.015	1455.0977	1468.6662	1476.1423	1491.0116	1495.8478	1497.2354	1817.7587	3017.0047	3026.8268	3034.7493	3039.8835	3042.6275	3060.2203	3083.7271	3093.476	3110.5123	3112.2196	3116.3238	3804.5446
CC1(O)CCC(=O)CC1	CC1(O)CCC(=O)CC1	
InChI=1S/C7H12O2/c1-7(9)4-2-6(8)3-5-7/h9H,2-5H2,1H3	InChI=1S/C7H12O2/c1-7(9)4-2-6(8)3-5-7/h9H,2-5H2,1H3
