15
gdb 81314	2.41704	1.77569	1.64771	4.3743	60.37	-0.2484	-0.005	0.2433	893.3696	0.113489	-494.904123	-494.896908	-494.895964	-494.93576	27.504	
O	-0.0534926756	 1.4831107494	 0.069604606	-0.41653
C	 0.0118608523	 0.0919691635	-0.0158043286	 0.101881
C	-1.3425049397	-0.6310962012	-0.1221306587	 0.030485
C	-2.3114028105	 0.1427366195	-1.0000183982	-0.068566
O	-1.708656267	 0.514534648	-2.2568852568	-0.237705
C	-0.4086771455	 0.2118016739	-2.4816884318	 0.468438
O	 0.1560249339	 0.5914447655	-3.4682647953	-0.335776
C	 0.2315679829	-0.6222057318	-1.3804013501	-0.135937
O	-0.7090709265	-1.6432781302	-0.9532321318	-0.284612
H	 0.8368351404	 1.843903248	 0.1276369451	 0.302042
H	 0.6419024012	-0.3617966119	 0.7571241979	 0.101914
H	-1.8226740002	-1.0373900839	 0.7711680544	 0.098693
H	-3.1838521561	-0.4745231804	-1.2341263936	 0.130305
H	-2.6380419313	 1.0630555614	-0.5062313597	 0.136368
H	 1.2022276717	-1.0133047899	-1.6836068088	 0.108999
119.6176	181.1851	223.5535	260.1413	346.4033	414.8037	448.5754	534.8139	581.1252	647.0652	769.402	777.3056	841.9919	879.8481	915.5662	944.8236	999.2933	1013.5189	1070.0972	1102.0774	1144.4926	1181.6795	1211.007	1226.2843	1243.7664	1266.466	1316.7931	1327.0681	1356.4553	1407.5271	1443.047	1493.3575	1863.204	3049.3739	3054.5138	3094.5228	3105.3017	3132.6819	3827.0017
OC1C2COC(=O)C1O2	O[C@H]1[C@H]2COC(=O)[C@@H]1O2	
InChI=1S/C5H6O4/c6-3-2-1-8-5(7)4(3)9-2/h2-4,6H,1H2	InChI=1S/C5H6O4/c6-3-2-1-8-5(7)4(3)9-2/h2-4,6H,1H2/t2-,3+,4-/m1/s1
