20
gdb 120539	5.49584	0.66461	0.64472	4.2284	79.31	-0.2394	0.0274	0.2669	1762.7113	0.169941	-440.280825	-440.27092	-440.269976	-440.317926	33.633	
C	-0.224001533	 1.3440827525	-0.3298340021	-0.229118
O	-0.0924501698	-0.0466080517	-0.1469071408	-0.234338
C	 0.7778005776	-0.6471566199	-1.0784762941	-0.065974
C	 0.8169588685	-2.134921835	-0.7964546083	-0.023844
C	-0.4977985079	-2.9077621505	-1.1209667499	-0.187285
N	 0.2503618562	-3.6534266562	-2.137365442	-0.033355
C	 1.5315672916	-3.0001469025	-1.8783883147	-0.197339
C	-0.065447763	-4.6298101319	-3.0125039385	 0.129686
O	 0.7206610788	-5.143222405	-3.783850295	-0.33394
H	 0.7401547806	 1.8636216864	-0.2146538343	 0.10747
H	-0.6282766582	 1.5884028461	-1.3247211966	 0.107155
H	-0.9156023158	 1.7099226388	 0.4325754888	 0.131042
H	 0.4272405889	-0.4658848957	-2.1105722559	 0.090026
H	 1.7918248866	-0.2171853378	-1.0021455804	 0.09225
H	 1.1776167324	-2.3074455991	 0.2186678242	 0.09578
H	-0.8891589532	-3.5271006636	-0.3070673647	 0.118472
H	-1.3079865359	-2.2849855238	-1.5154569525	 0.121296
H	 1.928692131	-2.4505381995	-2.739677416	 0.121191
H	 2.3064205761	-3.6802951002	-1.5111698298	 0.124693
H	-1.1371410413	-4.9123339415	-2.9479485576	 0.066131
17.4979	65.7006	94.1625	105.4143	168.3558	196.6204	231.7555	315.091	328.7558	398.6458	469.7023	545.7915	785.7475	837.9772	890.7017	920.1208	945.1534	971.2291	1034.6581	1048.2027	1093.8824	1138.0944	1149.5357	1161.8537	1178.3734	1192.0856	1205.5935	1229.0171	1253.1335	1280.1788	1287.7446	1320.9604	1363.271	1397.9914	1425.7895	1455.8943	1481.6362	1485.6565	1502.9907	1508.836	1524.0223	1531.3168	1789.9814	2915.803	2940.9073	2970.2521	2974.3863	3018.7026	3030.701	3036.7798	3075.9651	3078.8578	3106.2528	3117.9218
COCC1CN(C1)C=O	COCC1CN(C1)C=O	
InChI=1S/C6H11NO2/c1-9-4-6-2-7(3-6)5-8/h5-6H,2-4H2,1H3	InChI=1S/C6H11NO2/c1-9-4-6-2-7(3-6)5-8/h5-6H,2-4H2,1H3
