17
gdb 74829	4.34102	1.09751	0.97023	4.2651	75.98	-0.2477	-0.0385	0.2092	1222.8358	0.134116	-421.829255	-421.820961	-421.820017	-421.862208	30.873	
C	-0.0680369605	 1.4776696144	-0.074371178	-0.486466
C	-0.0543419108	-0.0159246683	-0.0311070015	 0.316829
C	-0.0877067421	-0.8621109554	-1.0688857677	-0.190884
C	 0.0532928324	-2.2726927814	-0.6165388601	-0.037678
O	 1.2736685341	-2.5507164595	 0.0829791051	-0.274871
C	 0.1344184634	-2.2318336069	 0.8755370058	 0.316077
C	 0.0381342137	-0.7676430627	 1.2887582998	-0.40226
C	-0.4330672044	-3.3251577808	 1.7174509017	 0.074738
O	-0.1787786866	-4.4941221074	 1.5860377214	-0.25375
H	 0.8590810463	 1.8909613899	 0.3423229875	 0.13685
H	-0.1743831771	 1.8491037447	-1.0966467335	 0.131178
H	-0.8895727929	 1.8847185836	 0.5284523293	 0.129648
H	-0.1703885177	-0.5799444876	-2.1114049343	 0.103958
H	-0.3647105635	-3.1188725268	-1.1534224685	 0.117183
H	 0.9076680312	-0.4535878724	 1.8787370611	 0.132671
H	-0.8493797343	-0.5922084351	 1.9127894987	 0.116839
H	-1.149820801	-2.9654528683	 2.491794683	 0.069937
85.381	133.5229	173.8526	215.9617	254.1772	314.3344	369.4398	417.4024	451.3793	520.892	673.1843	729.2437	754.0413	817.2966	851.5417	881.5126	929.5887	944.4223	965.358	1021.432	1035.5666	1068.683	1098.8005	1148.864	1193.8181	1208.0746	1269.9316	1299.206	1340.8352	1394.0713	1415.2862	1429.6632	1455.1172	1478.0043	1485.0127	1695.6136	1825.9163	2862.5405	3015.8007	3021.6672	3061.3873	3068.415	3117.7974	3168.2334	3207.8017
CC1=CC2OC2(C1)C=O	CC1=C[C@H]2O[C@]2(C1)C=O	
InChI=1S/C7H8O2/c1-5-2-6-7(3-5,4-8)9-6/h2,4,6H,3H2,1H3	InChI=1S/C7H8O2/c1-5-2-6-7(3-5,4-8)9-6/h2,4,6H,3H2,1H3/t6-,7-/m1/s1
