21
gdb 56630	2.07619	1.30015	1.10464	1.2275	84.13	-0.2551	0.0499	0.305	1265.3269	0.178333	-387.05122	-387.04056	-387.039615	-387.086777	39.182	
C	-0.4459455198	 1.3320902056	 0.0947002598	-0.405032
C	 0.1338524258	-0.0765372569	-0.1574843278	-0.220705
C	 0.9665919864	-0.1135384553	-1.3592355903	 0.335107
C	 1.6578007827	-0.1365153787	-2.3429606213	-0.479511
C	 0.9038931459	-0.6012797164	 1.0643547295	 0.399693
C	 2.1066365487	 0.2120477298	 1.4956739818	-0.470654
O	 0.0548571426	-1.0308085208	 2.1404561897	-0.310187
C	 0.8329853148	-2.023887468	 1.4514598304	 0.030393
C	 0.0986538512	-3.1224982233	 0.7264006912	-0.429125
H	 0.3451554088	 2.0793363181	 0.1929266941	 0.128262
H	-1.0873742651	 1.6306352951	-0.7381552992	 0.124963
H	-1.0413121434	 1.3241011866	 1.0118748935	 0.134566
H	-0.7163974409	-0.7483017419	-0.3112376885	 0.10826
H	 2.2616502343	-0.1627889057	-3.2160261108	 0.196109
H	 1.8066330617	 1.2117496218	 1.8240717189	 0.127559
H	 2.613989883	-0.2754453787	 2.3312366678	 0.123851
H	 2.8135845876	 0.3227143834	 0.6682541581	 0.13541
H	 1.6773346632	-2.3863174862	 2.0432412721	 0.083172
H	-0.7495689181	-2.7511558133	 0.1494424423	 0.128822
H	 0.7794600171	-3.6467394913	 0.0474015942	 0.129136
H	-0.2823832264	-3.8524877837	 1.4484037344	 0.129911
42.5521	117.406	147.7955	164.6049	190.9521	216.6657	236.8752	246.2642	294.7886	345.7347	422.9195	462.3812	488.0775	528.272	575.7141	628.3579	640.5033	714.3817	767.9129	860.2378	900.0848	938.4626	997.8746	1018.4547	1058.0514	1083.6963	1100.2858	1122.8193	1138.9383	1171.7259	1265.2296	1289.9315	1324.7575	1367.5852	1401.7412	1409.9993	1413.7054	1462.2394	1479.8502	1487.0802	1492.3596	1497.7608	1506.9319	1515.2407	2232.3154	3040.8533	3045.0497	3049.6889	3057.9693	3074.2405	3101.2328	3113.2848	3126.5072	3127.548	3130.6503	3138.6455	3503.9609
CC(C#C)C1(C)OC1C	C[C@@H](C#C)[C@@]1(C)O[C@H]1C	
InChI=1S/C8H12O/c1-5-6(2)8(4)7(3)9-8/h1,6-7H,2-4H3	InChI=1S/C8H12O/c1-5-6(2)8(4)7(3)9-8/h1,6-7H,2-4H3/t6-,7-,8+/m0/s1
