18
gdb 38280	3.74982	1.68251	1.6094	1.8997	75.49	-0.2187	0.0573	0.2761	890.7637	0.151011	-401.772237	-401.766346	-401.765402	-401.802086	26.101	
C	-0.0845840366	 1.6560957327	 0.0370494545	-0.230053
C	 1.4525824303	 1.4398941871	 0.0866541506	-0.010436
O	 1.143117151	 0.2173703434	 0.8809123278	-0.293156
C	-0.0377003744	 0.1004124238	 0.0080184618	-0.062319
C	 0.620448832	-0.1186400187	-1.3841264777	 0.257803
C	 1.4407078654	-0.9805316089	-2.3965661477	-0.255549
N	 1.9157031836	 0.4643532415	-2.7268539673	-0.18989
C	 0.4402447213	 0.8211220188	-2.6149248571	-0.194041
C	 1.9403649692	 0.590539016	-1.1364087135	 0.059167
H	-0.4265520988	 1.9944266481	 1.0156678301	 0.118916
H	-0.5669063259	 2.2271193729	-0.7531175947	 0.10376
H	 2.1304653617	 2.1232881393	 0.5950478089	 0.093978
H	-0.8236953381	-0.5326535919	 0.4150787379	 0.088517
H	 2.2240600361	-1.6307707395	-2.0031016775	 0.115566
H	 0.9120254093	-1.4374224623	-3.2374539284	 0.104765
H	-0.1616210355	 0.4484301672	-3.4486746617	 0.094241
H	 0.2797449362	 1.8890691561	-2.4753161658	 0.105232
H	 2.7796222232	-0.0008477055	-0.7669192504	 0.0935
261.5859	315.424	418.7602	477.7542	489.9833	598.8948	633.7319	678.6166	746.677	774.0542	839.2859	849.5981	854.979	888.2141	914.9902	919.6185	965.3596	984.9841	998.7809	1025.5211	1030.6992	1067.5622	1075.7195	1108.9242	1127.4847	1158.7847	1167.7388	1182.3613	1195.3492	1201.6289	1225.4498	1258.3623	1271.3052	1283.914	1293.7585	1413.3011	1498.5884	1513.0741	1550.3285	3056.6259	3063.1864	3090.2155	3096.7126	3134.8553	3137.4428	3139.5167	3143.0282	3163.4552
C1C2OC1C13CN(C1)C23	C1[C@H]2O[C@@H]1[C@@]13CN(C1)[C@@H]23	
InChI=1S/C7H9NO/c1-4-6-7(5(1)9-4)2-8(6)3-7/h4-6H,1-3H2	InChI=1S/C7H9NO/c1-4-6-7(5(1)9-4)2-8(6)3-7/h4-6H,1-3H2/t4-,5+,6+/m1/s1
