16
gdb 22184	2.20507	1.18989	0.81714	2.6377	74.41	-0.248	-0.0295	0.2185	1341.8977	0.119391	-437.815145	-437.805125	-437.804181	-437.851785	34.722	
O	-0.2748505739	 1.5926906473	-1.2410234414	-0.38916
N	-0.1674179626	 0.1970604766	-1.2127802149	-0.163288
C	-0.9070469636	-0.3211642933	-0.3075728981	 0.333109
C	-0.8701413794	-1.8197077719	-0.1949647275	-0.35034
C	-0.1220060844	-2.3410801874	 1.0314183469	 0.168676
O	-0.3454923495	-3.4026634382	 1.5467306795	-0.240961
C	-1.7835311903	 0.521901877	 0.6068313444	-0.439105
C	-2.3337448742	-0.1952050517	 1.7475988037	 0.254281
C	-2.7785542074	-0.7924560029	 2.6905270565	-0.401892
H	 0.3360192616	 1.8323744022	-1.9460851791	 0.313291
H	-1.8734423094	-2.255386691	-0.1874478772	 0.14267
H	-0.3340562476	-2.2067516109	-1.0702260652	 0.148796
H	 0.6978406264	-1.6791306478	 1.3908581919	 0.085923
H	-1.1958599768	 1.3849815015	 0.9413314979	 0.167697
H	-2.5929314271	 0.9539088383	 0.0016965301	 0.163484
H	-3.1668697517	-1.3235312377	 3.5243718724	 0.20682
28.8436	55.9626	73.6705	124.8015	176.8025	255.4438	321.9247	338.867	362.1634	426.4351	437.0436	510.5491	551.7588	635.736	657.9532	665.6527	735.3043	833.0671	925.531	981.8774	1004.8323	1031.9583	1051.4189	1191.6482	1221.3335	1265.0456	1301.2501	1310.6162	1402.0206	1419.399	1435.713	1444.7892	1717.1058	1837.7764	2243.4952	2878.0232	3019.8691	3043.8388	3057.1294	3105.3195	3504.3005	3820.3379
ON=C(CC=O)CC#C	ON=C(CC=O)CC#C	
InChI=1S/C6H7NO2/c1-2-3-6(7-9)4-5-8/h1,5,9H,3-4H2	InChI=1S/C6H7NO2/c1-2-3-6(7-9)4-5-8/h1,5,9H,3-4H2
