20
gdb 101215	4.31701	0.83072	0.81074	3.5789	76.46	-0.2541	0.0229	0.277	1491.0634	0.170035	-440.313233	-440.3037	-440.302756	-440.347905	35.321	
C	 0.0867366991	 1.5728842095	-0.0076539729	-0.381599
C	 0.0174288674	 0.0443512855	-0.0070621353	-0.189818
C	-1.4224811474	-0.4884835113	 0.0357683282	 0.120391
O	-2.1948222205	-0.0075837524	-1.0539758743	-0.434042
C	-1.4679239243	-2.0175607201	 0.1001579623	 0.027441
C	-2.8613530081	-2.6993589829	-0.0311488938	-0.405538
C	-2.2688743569	-3.4258629668	-1.2581205515	 0.420792
O	-2.6087649251	-4.3023780822	-2.0019119457	-0.343902
N	-1.1003271819	-2.6810395886	-1.171441268	-0.345651
H	 1.1194348636	 1.9228943459	-0.0946507361	 0.110977
H	-0.4899949848	 1.9804243061	-0.8415168093	 0.134244
H	-0.3297280784	 1.9850462202	 0.9181145181	 0.115111
H	 0.508736835	-0.3504545669	-0.9079423783	 0.086521
H	 0.5709856102	-0.3600776968	 0.850611927	 0.09375
H	-1.9181572522	-0.1018147473	 0.9364128753	 0.091566
H	-1.8994790786	-0.4933832682	-1.8350628391	 0.284126
H	-0.8882824122	-2.3806397166	 0.9565970334	 0.084814
H	-3.1471772684	-3.3657883784	 0.783647904	 0.132023
H	-3.6747167694	-2.0128679191	-0.2682229325	 0.148948
H	-0.187565767	-2.9160161295	-1.5378489815	 0.249844
73.3446	81.2016	114.6248	178.0525	214.6963	270.1893	294.6734	347.1919	417.8089	460.0602	469.478	518.2197	576.6864	666.3957	736.8855	779.1112	817.8599	890.7943	937.5183	976.0346	979.8229	1011.7679	1050.6541	1072.6413	1094.5193	1125.6207	1151.9882	1166.4787	1206.116	1248.4982	1261.3162	1312.5056	1328.058	1365.5846	1377.1718	1393.1485	1406.9128	1426.5575	1449.8987	1480.5339	1495.4061	1509.2975	1900.3608	3004.5161	3026.0957	3037.4338	3040.5939	3052.3097	3095.8262	3103.894	3126.8543	3159.0424	3587.0644	3767.3776
CCC(O)C1CC(=O)N1	CC[C@@H](O)[C@H]1CC(=O)N1	
InChI=1S/C6H11NO2/c1-2-5(8)4-3-6(9)7-4/h4-5,8H,2-3H2,1H3,(H,7,9)	InChI=1S/C6H11NO2/c1-2-5(8)4-3-6(9)7-4/h4-5,8H,2-3H2,1H3,(H,7,9)/t4-,5-/m1/s1
