18
gdb 9487	2.92856	1.64921	1.54293	1.9303	73.71	-0.2489	0.0278	0.2767	957.2722	0.151143	-347.756837	-347.748035	-347.747091	-347.790028	32.596	
C	-0.4421373755	 1.3926966315	 0.0016235581	-0.417583
C	 0.080752856	-0.031140938	-0.0886988737	-0.067113
C	 1.4249341698	-0.2909735051	-0.7955961038	-0.084208
O	 1.944023768	-1.0162624568	 0.3369939692	-0.312357
C	 0.7788054893	-0.696034413	 1.1539161395	 0.220076
C	 1.1757836267	 0.214672497	 2.3147961488	-0.432506
C	 0.1133487646	-1.8997915554	 1.6428264698	 0.319828
C	-0.4548011603	-2.8790170227	 2.0478683771	-0.469574
H	 0.3226739016	 2.0917302573	 0.3524670726	 0.120877
H	-0.7746623872	 1.7356339588	-0.9842038602	 0.12215
H	-1.3000265537	 1.4597017553	 0.6787419017	 0.1255
H	-0.7026488042	-0.6913147532	-0.4663359503	 0.09457
H	 1.3927005853	-0.9097999749	-1.6992460357	 0.106335
H	 2.014817248	 0.6122854398	-1.0047970911	 0.095111
H	 1.6999227734	 1.0998848714	 1.9466649877	 0.119402
H	 0.2968223032	 0.5293963757	 2.885206308	 0.124899
H	 1.8462375762	-0.3283199791	 2.9859842428	 0.13688
H	-0.9480396213	-3.7503506987	 2.4022375594	 0.197712
52.8221	146.0486	179.6758	209.4726	223.7859	279.2354	326.5729	372.4182	443.1484	527.4929	542.8198	616.5576	626.2345	663.106	740.7583	881.6906	898.6957	921.981	936.52	1012.8404	1024.8399	1105.6387	1128.4292	1150.518	1171.4234	1197.1815	1221.7999	1291.5771	1338.9479	1383.937	1402.7899	1414.7943	1476.62	1484.1759	1498.3552	1503.9625	1528.042	2230.2376	3003.7191	3034.3208	3046.4075	3056.2374	3084.6155	3097.6963	3112.2437	3123.343	3130.0108	3500.5748
CC1COC1(C)C#C	C[C@H]1CO[C@]1(C)C#C	
InChI=1S/C7H10O/c1-4-7(3)6(2)5-8-7/h1,6H,5H2,2-3H3	InChI=1S/C7H10O/c1-4-7(3)6(2)5-8-7/h1,6H,5H2,2-3H3/t6-,7+/m0/s1
