18
gdb 125927	4.49755	1.16506	0.97629	3.286	79.8	-0.2402	0.0254	0.2657	1240.0409	0.148764	-398.134694	-398.126331	-398.125387	-398.168157	30.526	
C	-0.5456762599	 1.553865132	-0.2703628328	-0.401426
C	 0.046596622	 0.1922114258	 0.0334064528	 0.055453
C	 0.8024363343	-0.5853216233	-1.1333957546	-0.393727
C	 2.0125890874	-0.5080737698	-0.2152682484	 0.358751
N	 3.2206111416	-0.8521201045	 0.1847009408	-0.41113
C	 3.2353679603	-0.2871210723	 1.4485939629	 0.331691
C	 4.4328246591	-0.3618047984	 2.3360896503	-0.480577
N	 2.1142366513	 0.3423763979	 1.8325117779	-0.341049
N	 1.37121999	 0.195493584	 0.7085913959	 0.074356
H	 0.1719036553	 2.1810095023	-0.8074095439	 0.133043
H	-1.443386738	 1.4424935512	-0.8867344486	 0.12995
H	-0.8293513296	 2.066883684	 0.6531334307	 0.143751
H	-0.6672765374	-0.4471348874	 0.5616334048	 0.114221
H	 0.4221540403	-1.5900492926	-1.3285954052	 0.139007
H	 0.8732753577	-0.0304291904	-2.0717444052	 0.134391
H	 5.2747878525	 0.186931847	 1.9014634191	 0.137443
H	 4.2023950918	 0.0642523233	 3.3139269391	 0.137921
H	 4.7527946912	-1.4005509889	 2.4614462343	 0.137932
53.4043	103.6684	180.497	209.5868	247.5623	283.4776	337.7072	415.6383	513.4083	599.8044	686.7554	709.771	736.002	789.5282	872.372	915.5105	974.155	1022.4513	1038.3205	1063.304	1067.1863	1098.8911	1138.2356	1176.6175	1213.9874	1242.1514	1285.7533	1306.6727	1368.2883	1399.9998	1412.5919	1463.7093	1473.5406	1477.4827	1485.7153	1494.9396	1503.7543	1509.6917	1582.2073	3041.6145	3045.6146	3067.085	3075.782	3101.9989	3115.8581	3121.9257	3131.3015	3144.4894
CC1CC2=NC(C)=NN12	C[C@H]1Cc2nc(C)nn12	
InChI=1S/C6H9N3/c1-4-3-6-7-5(2)8-9(4)6/h4H,3H2,1-2H3	InChI=1S/C6H9N3/c1-4-3-6-7-5(2)8-9(4)6/h4H,3H2,1-2H3/t4-/m0/s1
