15
gdb 35538	4.72388	1.10278	0.98926	6.2253	70.68	-0.2752	-0.0137	0.2615	1151.685	0.114483	-416.791406	-416.78429	-416.783346	-416.823251	26.936	
N	-0.1827626534	-1.1290551934	-0.3494361943	-0.317818
C	-0.0488473144	 0.0065314313	-0.1854105605	 0.300721
C	 0.0604046591	 1.44736086	 0.0458967943	-0.120549
C	-0.7027921267	 1.8955065113	 1.3677651768	-0.269609
C	 0.0934276265	 3.1661007432	 1.6934848455	-0.155677
C	 1.0362182103	 3.5086978152	 2.8879624368	-0.126524
O	 2.2206142442	 3.3524879909	 1.9965287588	-0.265371
C	 1.3931874271	 2.7773532846	 1.0835302878	 0.448728
N	 1.4929266715	 1.8474792777	 0.2341473279	-0.304512
H	-0.3663998121	 1.9552156735	-0.8296707674	 0.134308
H	-1.77096198	 2.0459736256	 1.2041608733	 0.12904
H	-0.5681207723	 1.122054239	 2.1287751499	 0.140559
H	-0.3524328187	 4.0709230907	 1.2735988043	 0.121885
H	 0.9828321221	 4.5233909229	 3.2824009419	 0.140743
H	 1.0843450168	 2.7656628375	 3.686923375	 0.144076
89.0338	160.8535	216.611	321.4837	336.4853	457.9912	490.2875	556.2581	610.5785	684.0994	755.6024	807.6659	828.5435	911.3124	916.268	958.5348	963.354	1043.2074	1062.9704	1099.6753	1140.8207	1160.8667	1205.9347	1215.4626	1258.9895	1275.6738	1338.9893	1346.4737	1374.8853	1483.5423	1497.6857	1765.7094	2365.5848	3019.4042	3074.4097	3078.3681	3085.828	3136.4539	3156.1357
N#CC1CC2COC2=N1	N#C[C@H]1C[C@H]2CO[C]2[N]1	
InChI=1S/C6H6N2O/c7-2-5-1-4-3-9-6(4)8-5/h4-5H,1,3H2	InChI=1S/C6H6N2O/c7-2-5-1-4-3-9-6(4)8-5/h4-5H,1,3H2/t4-,5+/m0/s1
