12
gdb 48148	3.38089	1.01967	0.86865	3.5438	64.91	-0.2767	-0.0992	0.1776	1264.7678	0.07343	-472.603242	-472.594306	-472.593361	-472.638487	29.947	
N	 0.2838231144	 1.3693743186	-1.3323283542	-0.442922
C	-0.0389976018	 0.3687479687	-0.6363407175	 0.259457
O	-1.3719801609	-0.0370954728	-0.7097350298	-0.219195
C	-2.095788669	-0.1323824699	 0.441908595	 0.356061
O	-1.7224308978	 0.1715339314	 1.5336797768	-0.301121
C	-3.4874867626	-0.6821408036	 0.088385715	 0.085219
O	-4.3165330332	-0.8665400232	 0.9313796389	-0.19395
C	 0.8118246771	-0.4645180903	 0.1523361699	 0.330414
C	 1.5653691748	-1.1595107125	 0.7805537858	-0.477533
H	 1.2862695723	 1.5431844676	-1.262803006	 0.25289
H	-3.6443286685	-0.8857994453	-0.9885370311	 0.122411
H	 2.2252347051	-1.7698024788	 1.3483811873	 0.228269
43.4098	54.8569	116.5412	135.1249	195.2558	263.5027	292.5693	402.4191	481.882	575.0998	618.5219	664.2425	679.831	690.162	785.7583	838.3622	900.4311	951.9416	1015.9236	1034.8861	1171.5584	1305.4377	1399.5274	1718.7259	1846.746	1860.4965	2233.342	2954.8537	3494.5445	3506.123
N=C(OC(=O)C=O)C#C	[NH][C](OC(=O)C=O)C#C	
InChI=1S/C5H3NO3/c1-2-4(6)9-5(8)3-7/h1,3,6H	InChI=1S/C5H3NO3/c1-2-4(6)9-5(8)3-7/h1,3,6H
