19
gdb 78168	1.96321	1.71896	1.19733	3.2324	75.44	-0.2336	-0.012	0.2215	1110.8987	0.15906	-423.043089	-423.034483	-423.033539	-423.076416	32.89	
C	-0.0103356669	 1.6628316897	 0.0487117841	-0.424812
C	 0.0541164533	 0.1547607416	-0.0835364839	-0.022034
C	 0.6134745182	-0.6150149959	-1.2356568535	-0.060743
C	 1.3026737893	-0.7083470073	 0.1198650803	-0.176981
C	 2.6401482436	-0.0549149308	-0.0107463173	 0.425174
O	 3.5313326207	-0.093343448	 0.8011784612	-0.333797
C	 2.7348731858	 0.6136307286	-1.3934081646	-0.377763
C	 1.5470796359	 0.0808644619	-2.2254594871	 0.104958
O	 1.9476063824	-0.9289857614	-3.1453505877	-0.437836
H	 0.8316084481	 2.1796779506	-0.4149609435	 0.122453
H	-0.9248510315	 2.0417253545	-0.4206614351	 0.124677
H	-0.034035622	 1.9537938939	 1.1038068935	 0.131469
H	-0.8165399354	-0.3277828443	 0.3552413118	 0.102176
H	 0.0538419054	-1.4499412523	-1.6408073642	 0.104704
H	 1.232772819	-1.5641330744	 0.7795857527	 0.10611
H	 2.7369747295	 1.7026363173	-1.2795206209	 0.129061
H	 3.6892093695	 0.3395303436	-1.8521190312	 0.12855
H	 1.0287041591	 0.8913357269	-2.7587884955	 0.070743
H	 2.5203287861	-0.5217256642	-3.8029069594	 0.283892
74.9538	114.6265	155.8334	227.805	285.4389	313.6407	379.2125	392.5308	454.6982	537.984	581.4655	611.2583	695.7751	729.991	802.5752	837.4456	893.0189	925.7106	956.5222	968.8818	1013.3042	1050.7759	1055.816	1081.2875	1127.0371	1136.3345	1182.2903	1193.1409	1219.4273	1236.6214	1259.6526	1324.8254	1347.063	1358.9659	1415.3797	1425.6297	1433.9276	1447.7129	1492.9323	1504.4881	1828.9798	2984.9075	3040.7659	3057.9617	3096.7419	3102.7558	3122.6144	3140.8089	3182.7633	3196.5085	3818.2838
CC1C2C1C(=O)CC2O	C[C@H]1[C@@H]2[C@H]1C(=O)C[C@H]2O	
InChI=1S/C7H10O2/c1-3-6-4(8)2-5(9)7(3)6/h3-4,6-8H,2H2,1H3	InChI=1S/C7H10O2/c1-3-6-4(8)2-5(9)7(3)6/h3-4,6-8H,2H2,1H3/t3-,4+,6-,7+/m0/s1
