17
gdb 31554	3.29163	1.15586	0.86645	2.1972	74.21	-0.1787	0.0405	0.2193	1320.6017	0.135606	-455.186499	-455.177139	-455.176195	-455.220613	33.384	
C	 0.0082755041	 1.3723579287	-0.1077286508	-0.319502
N	-0.0803034278	-0.0540032075	 0.1554591831	-0.38667
C	-1.2908970797	-0.6717407278	 0.0581859137	 0.498346
N	-2.4686372132	-0.1149539067	 0.0230126601	-0.438778
C	-3.3279955007	-1.2034513814	-0.0053013259	 0.251602
O	-4.6663912772	-1.0252294229	-0.0431625647	-0.438846
C	-2.6504979786	-2.3730671945	 0.0029730222	 0.211842
C	-3.0057346504	-3.8086613285	-0.0252021189	-0.503362
O	-1.2897320718	-2.0154009295	 0.0442274314	-0.24094
H	 1.0089499023	 1.7181620161	 0.1596975033	 0.126975
H	-0.1936475422	 1.6303860855	-1.1564789531	 0.124502
H	-0.7220966457	 1.8942823538	 0.5136545248	 0.158835
H	 0.6983396208	-0.6233111237	-0.138174787	 0.2534
H	-4.8127864786	-0.0723288499	-0.0348165733	 0.301246
H	-2.6015916717	-4.3224328922	-0.9068093903	 0.126799
H	-2.6458521434	-4.345398859	 0.8616980797	 0.128445
H	-4.0946413963	-3.8985530605	-0.0538085842	 0.146104
95.4375	128.9598	151.1066	180.2128	197.2061	240.4746	245.8733	316.83	366.6446	379.4267	482.7441	543.1468	651.3539	679.9773	694.2059	756.5789	822.7959	973.0333	1005.0473	1069.6887	1096.6096	1144.728	1155.3085	1184.3867	1200.6071	1315.2372	1338.6043	1399.4986	1428.7206	1454.8213	1471.5646	1484.9797	1496.4753	1510.6584	1544.4934	1669.9957	1764.2661	3009.7593	3012.4388	3054.3633	3099.4496	3121.8184	3142.0808	3627.4941	3815.0616
CNC1=NC(O)=C(C)O1	CNc1nc(O)c(C)o1	
InChI=1S/C5H8N2O2/c1-3-4(8)7-5(6-2)9-3/h8H,1-2H3,(H,6,7)	InChI=1S/C5H8N2O2/c1-3-4(8)7-5(6-2)9-3/h8H,1-2H3,(H,6,7)
