20
gdb 101378	3.64424	0.99755	0.88105	2.5776	74.35	-0.244	0.0612	0.3052	1346.2725	0.171085	-440.224914	-440.215967	-440.215023	-440.258818	33.908	
O	-2.3762113035	 1.6550676275	 0.9789077844	-0.42805
C	-2.441282801	 0.2475112701	 1.0726420648	-0.052987
C	-1.4824906133	-0.4142606454	 0.0859386699	 0.089098
O	-0.1902002626	 0.0994286329	 0.400957187	-0.457515
C	-1.4640387097	-1.9289361246	 0.1916951801	 0.040559
C	-2.6043951768	-2.8149573117	-0.3803013293	-0.294185
C	-1.5254195477	-3.4821672844	-1.2316545265	-0.006948
C	-0.8450267705	-2.4910745632	-2.0789056054	-0.244715
N	-0.4120148113	-2.6098955936	-0.6662683414	-0.171714
H	-1.4380031171	 1.8771407138	 1.017007701	 0.294517
H	-2.1994878321	-0.1012317454	 2.0902237154	 0.088037
H	-3.473410367	-0.0433057175	 0.8501385179	 0.105808
H	-1.7740546591	-0.0975235179	-0.9283220164	 0.069571
H	 0.4606343723	-0.4527654788	-0.0479566879	 0.301018
H	-1.2349258622	-2.1981417388	 1.2269727569	 0.094291
H	-3.0538790826	-3.4655281318	 0.3708794935	 0.11712
H	-3.4040201186	-2.3173303953	-0.9380184254	 0.108996
H	-1.3928886004	-4.551472466	-1.358175295	 0.101329
H	-0.083536449	-2.8479556346	-2.7650982918	 0.126047
H	-1.3784641378	-1.6070288952	-2.4190422717	 0.119723
71.0776	108.5646	131.7787	195.9297	247.6346	335.3761	349.718	394.4989	410.4216	458.3738	508.5814	580.6933	731.3388	761.1632	784.2015	854.3459	892.3974	942.4756	969.2566	989.5025	1040.4194	1061.9074	1077.2266	1080.967	1107.3866	1117.2594	1123.5582	1134.3962	1189.2959	1212.8819	1229.5511	1269.7548	1283.6568	1295.536	1315.0334	1361.1288	1367.5216	1407.386	1422.3345	1447.6796	1490.3512	1498.3571	1508.5833	2966.3142	2979.3028	3054.8756	3063.816	3075.2964	3115.0621	3123.6167	3168.3605	3203.071	3792.3301	3796.2415
OCC(O)C1CC2CN12	OC[C@@H](O)[C@H]1C[C@H]2CN12	
InChI=1S/C6H11NO2/c8-3-6(9)5-1-4-2-7(4)5/h4-6,8-9H,1-3H2	InChI=1S/C6H11NO2/c8-3-6(9)5-1-4-2-7(4)5/h4-6,8-9H,1-3H2/t4-,5+,6+,7?/m0/s1
