16
gdb 69912	2.84451	1.75582	1.40875	3.0926	68.03	-0.242	-0.0136	0.2284	939.5171	0.124481	-437.828404	-437.821223	-437.820278	-437.859873	28.327	
C	-0.0045124699	 1.492861014	 0.0102196874	-0.500273
C	 0.0534175466	-0.0074028051	-0.0028880776	 0.306881
N	-0.8126279927	-0.8575806506	 0.8400575849	-0.352803
C	 0.6541190694	-0.8946380008	 1.037514051	-0.126508
C	 1.3444984478	-1.9419835075	 0.1471923291	-0.055876
O	 0.3771987564	-2.1649669993	-0.9158317344	-0.256723
C	 0.521034722	-0.7624425843	-1.2677186635	-0.099945
C	 2.0290551146	-1.0008412565	-0.9049266554	 0.435837
O	 3.1081219977	-0.7636251595	-1.3354464412	-0.304296
H	 0.8943601335	 1.9243299351	-0.4441757879	 0.139624
H	-0.8708180852	 1.8607268652	-0.5511517013	 0.134966
H	-0.0781780989	 1.8770399584	 1.0327274651	 0.12353
H	-1.2030379523	-0.264978051	 1.5714843611	 0.233337
H	 1.1147257918	-0.5367539828	 1.9501489361	 0.107082
H	 1.7835732186	-2.8467362171	 0.5603206551	 0.109579
H	 0.1479347107	-0.4986895183	-2.2548963785	 0.105588
117.8106	189.3484	221.4428	300.0507	362.3648	440.3797	513.3026	537.0815	590.4027	703.4692	731.6239	745.7889	843.5695	876.0768	892.3133	903.2311	923.141	951.6446	983.6046	1020.8193	1056.2937	1074.4784	1113.7752	1132.2859	1135.8301	1183.2313	1219.3363	1274.2942	1303.3537	1336.2745	1409.2011	1428.3765	1485.8173	1500.2553	1926.7664	3027.1515	3090.2131	3100.6595	3155.8247	3161.7012	3193.7746	3484.3344
CC12NC1C1OC2C1=O	C[C@]12N[C@H]1[C@H]1O[C@@H]2C1=O	
InChI=1S/C6H7NO2/c1-6-4(7-6)3-2(8)5(6)9-3/h3-5,7H,1H3	InChI=1S/C6H7NO2/c1-6-4(7-6)3-2(8)5(6)9-3/h3-5,7H,1H3/t3-,4-,5+,6-/m0/s1
