21
gdb 84039	2.59577	1.42233	1.14904	1.1873	78.08	-0.2357	0.0691	0.3048	1146.5421	0.184905	-424.209159	-424.20102	-424.200076	-424.241504	32.628	
O	-0.0940490367	 1.4585710477	 0.0610079455	-0.411285
C	-0.005748374	 0.0631136337	-0.0111103869	 0.051919
C	-1.3022944005	-0.6935331687	 0.0166994608	-0.039629
C	-2.6436029753	 0.0196817336	 0.0838457258	-0.234157
C	-3.6458414237	-0.4756312737	-0.9728756881	-0.190465
C	-3.3699573264	 0.0272414782	-2.3957177019	-0.064287
O	-2.1823698238	-0.4514315236	-3.0006087331	-0.241343
C	-0.9837555167	 0.0902052674	-2.4659942302	-0.109352
C	-0.4741390907	-0.6673376492	-1.2577236371	-0.080072
H	 0.6467209285	 1.8315034021	-0.4282000146	 0.290422
H	 0.8406998677	-0.3588822106	 0.5305013511	 0.085513
H	-1.2748726893	-1.6365335779	 0.5562337693	 0.08507
H	-3.0647752574	-0.1283771478	 1.0850755733	 0.094422
H	-2.4969543089	 1.0994302214	-0.0234396071	 0.117941
H	-3.6765675039	-1.5723512035	-0.9796462167	 0.099551
H	-4.6543387866	-0.1334163084	-0.7039093793	 0.089194
H	-4.1807387617	-0.296639973	-3.0575037446	 0.100283
H	-3.3670561291	 1.1316221209	-2.3933382999	 0.082034
H	-0.2451597323	 0.0326877174	-3.2736709882	 0.098609
H	-1.1233296251	 1.1525617268	-2.2201796071	 0.092701
H	 0.0541451659	-1.5863852728	-1.4961691609	 0.082932
111.2767	169.3178	254.3048	267.7692	313.5737	328.4902	344.0272	401.1025	499.4413	539.6052	585.0673	621.698	749.2282	789.0012	820.7719	875.105	908.2956	926.751	953.7469	996.1805	1035.693	1043.0437	1057.9729	1097.6037	1120.4405	1141.3736	1167.5008	1185.6967	1234.8091	1242.8279	1260.2517	1284.6276	1297.6648	1333.4352	1346.9009	1377.3264	1384.1577	1397.2824	1406.9887	1424.9119	1459.4876	1475.7728	1488.3952	1494.5249	1505.3494	2950.3663	3001.4151	3014.3841	3035.9586	3056.8588	3058.7915	3064.9682	3081.1145	3094.1574	3132.8953	3146.316	3807.9659
OC1C2CCCOCC12	O[C@H]1[C@H]2CCCOC[C@@H]12	
InChI=1S/C7H12O2/c8-7-5-2-1-3-9-4-6(5)7/h5-8H,1-4H2	InChI=1S/C7H12O2/c8-7-5-2-1-3-9-4-6(5)7/h5-8H,1-4H2/t5-,6+,7-/m0/s1
