18
gdb 55259	3.17314	1.15669	0.95217	1.8468	74.05	-0.2369	-0.0176	0.2193	1270.2624	0.14623	-439.134136	-439.124833	-439.123888	-439.169595	32.576	
C	 0.2508838308	 0.6424932229	 0.9950338074	-0.470423
C	-0.1023076551	 0.1355611546	-0.3839290839	 0.378604
O	 0.602286583	 0.3112230724	-1.3503962821	-0.294829
C	-1.4418054637	-0.6209984659	-0.498024139	-0.10367
C	-1.6463547435	-1.3116955868	-1.863805134	-0.130644
O	-1.7447566659	-2.7146441011	-1.5261016471	-0.249423
C	-1.6481127833	-2.7896324856	-0.1756368351	 0.415914
C	-1.7298307258	-4.1667827337	 0.3878427519	-0.471934
N	-1.5018607977	-1.7129089089	 0.4908152951	-0.327982
H	 1.2131117082	 1.1546880488	 0.9695421248	 0.136698
H	-0.5264514406	 1.3276397124	 1.3527816508	 0.137824
H	 0.2725964918	-0.1960434465	 1.6967850786	 0.166242
H	-2.2326839845	 0.1086551922	-0.2759216345	 0.101907
H	-2.5675465638	-1.0165971108	-2.3714493962	 0.116015
H	-0.7919815418	-1.1590269639	-2.5264403357	 0.145822
H	-2.677360034	-4.6352065369	 0.1045212913	 0.148048
H	-0.9257045391	-4.7876431245	-0.0192641269	 0.150086
H	-1.6493571249	-4.1267560289	 1.4733499844	 0.151746
31.4332	70.6014	124.7377	140.5973	165.7971	244.5667	317.7247	335.625	405.5138	522.8103	583.0222	614.9883	681.4003	739.1204	803.9212	923.7408	944.867	968.793	982.9322	1015.4203	1054.7122	1068.3286	1084.7092	1093.8267	1200.639	1216.6847	1247.6839	1284.9368	1349.0867	1377.1663	1381.6155	1416.37	1463.323	1467.9583	1475.0819	1475.8456	1523.6048	1724.4588	1814.7746	3008.5392	3043.4488	3052.7441	3070.0641	3110.7471	3110.8495	3125.8749	3159.2011	3167.6736
CC(=O)C1COC(C)=N1	CC(=O)[C@H]1COC(=N1)C	
InChI=1S/C6H9NO2/c1-4(8)6-3-9-5(2)7-6/h6H,3H2,1-2H3	InChI=1S/C6H9NO2/c1-4(8)6-3-9-5(2)7-6/h6H,3H2,1-2H3/t6-/m1/s1
