16
gdb 49402	4.12611	1.42682	1.30485	3.645	70.83	-0.2412	-0.0235	0.2177	967.3147	0.125193	-400.690979	-400.684391	-400.683446	-400.722384	26.089	
O	-0.9385826178	 1.0456563046	-0.4177271426	-0.251089
C	 0.1595014923	 0.8710250167	 0.0424020562	 0.174324
C	 1.2534512355	 1.9197728937	 0.0633521677	-0.069975
C	 1.4656676776	 2.501815873	 1.4574949967	-0.096949
C	 2.4388846053	 1.6208953429	 2.2077338131	-0.09324
C	 2.9165010379	 2.9150865337	 1.5807495507	-0.104085
C	 3.6145625427	 2.1006016926	 0.4575821527	-0.061844
C	 3.146107687	 0.8297126291	 1.0708964039	-0.068498
N	 2.5621738204	 1.3046021385	-0.2015709399	-0.128401
H	 0.4461244563	-0.0928876158	 0.5203137192	 0.079465
H	 1.0318369579	 2.6860554465	-0.6840882474	 0.1047
H	 0.6942725866	 3.0467908905	 1.9865981093	 0.109314
H	 2.3554017582	 1.3394463278	 3.2468828794	 0.099959
H	 3.2599915205	 3.8288280709	 2.042778581	 0.101134
H	 4.5125518494	 2.3575569059	-0.088084885	 0.103208
H	 3.5877085502	-0.1562826707	 1.125139375	 0.101978
73.0109	144.0019	252.6913	428.043	499.025	575.4909	712.8669	726.9822	771.3728	797.2568	800.0623	825.7922	866.166	889.1425	902.122	940.5686	964.9617	980.645	1001.0316	1015.8908	1034.5768	1050.5063	1066.6852	1087.8007	1113.2969	1199.016	1205.5509	1248.6034	1250.8475	1265.3872	1285.905	1308.763	1377.1537	1422.5599	1835.8879	2879.4609	3088.372	3197.155	3203.5567	3209.3344	3222.1735	3233.6963
O=CC1C2C3C2C2C3N12	O=C[C@H]1[C@H]2[C@@H]3[C@H]2[C@H]2[C@@H]3N12	
InChI=1S/C7H7NO/c9-1-2-3-4-5(3)7-6(4)8(2)7/h1-7H	InChI=1S/C7H7NO/c9-1-2-3-4-5(3)7-6(4)8(2)7/h1-7H/t2-,3-,4+,5-,6+,7-,8?/m0/s1
