16
gdb 52919	6.03015	0.9065	0.88775	2.0813	84.32	-0.2054	0.0285	0.2338	1347.4743	0.123233	-363.463513	-363.455644	-363.4547	-363.497806	28.943	
C	 0.0063791463	 1.455544409	 0.0006160937	-0.517382
C	 0.0119662758	 0.0012130502	-0.0014673716	 0.373861
C	 0.0166599655	-1.2058861573	-0.004299245	-0.484858
C	 0.0038286909	-2.6158093029	-0.0141115082	 0.381675
C	 0.8118442564	-3.6273934574	 0.847095659	-0.175597
C	-0.3436784898	-4.6434168234	 0.691433239	-0.051535
C	-1.1166561061	-3.6918487551	-0.1450241918	-0.144695
N	-0.1796795021	-4.6649851844	-0.8062516838	-0.180791
C	 0.937249515	-3.6381121395	-0.6473637917	-0.074588
H	 0.5803574557	 1.8614618556	-0.8401697358	 0.149189
H	-1.0157379999	 1.8420437167	-0.0817896615	 0.151892
H	 0.4370943386	 1.8587240709	 0.9242780043	 0.148322
H	 1.5242517386	-3.4051601316	 1.6280164603	 0.108588
H	-0.6447598582	-5.517111086	 1.2561273479	 0.103115
H	-2.1680645413	-3.6281360128	-0.397618513	 0.101594
H	 1.7738550746	-3.513152632	-1.3228570418	 0.11121
15.3969	98.1506	102.4454	274.1223	304.4612	436.9361	489.8167	505.3379	655.7961	736.7335	766.9202	780.9865	843.9834	868.8974	875.7393	907.9516	911.4702	964.9236	993.8156	1003.1333	1003.2517	1025.7853	1052.9246	1054.7785	1105.8672	1135.6322	1201.7335	1247.1022	1277.8095	1314.8001	1406.8806	1435.4617	1474.2817	1478.8068	2353.3336	3022.6195	3081.1858	3085.0671	3180.3916	3193.9199	3196.0092	3228.5432	15.3747	98.1496	102.4445	274.123	304.4615	436.936	489.8172	505.3382	655.7961	736.7337	766.9202	780.9864	843.9832	868.8974	875.7393	907.9517	911.4703	964.9235	993.8156	1003.1332	1003.2516	1025.7852	1052.9251	1054.779	1105.867	1135.6321	1201.7333	1247.1021	1277.8094	1314.8	1406.8809	1435.4615	1474.2825	1478.8076	2353.334	3022.6195	3081.1858	3085.067	3180.3916	3193.9199	3196.0092	3228.5432
CC#CC12C3C4C1N4C23	CC#C[C@@]12[C@H]3[C@H]4[C@@H]1N4[C@@H]23	
InChI=1S/C8H7N/c1-2-3-8-4-5-7(8)9(5)6(4)8/h4-7H,1H3	InChI=1S/C8H7N/c1-2-3-8-4-5-7(8)9(5)6(4)8/h4-7H,1H3/t4-,5-,6+,7-,8-,9?/m0/s1
