12
gdb 130304	3.53628	1.67799	1.13933	1.7778	62.82	-0.249	-0.0506	0.1983	953.9378	0.079772	-468.747542	-468.741145	-468.740201	-468.778259	24.786	
N	 0.0131664624	 1.358507365	 0.1511799862	-0.594704
C	 0.0676815026	-0.0110043896	 0.0377163654	 0.2813
N	-1.0273344098	-0.754455411	 0.0012818245	-0.213241
O	-0.6334039911	-2.1220701588	-0.0216314903	-0.242148
C	 0.7049291057	-2.1263271774	-0.0187547343	 0.291145
C	 1.2067902161	-0.8664906147	 0.0188720641	 0.249105
O	 2.5486993176	-0.8777284044	 0.023586382	-0.236572
N	 2.9378770329	-2.2317552982	-0.0125676832	-0.118862
C	 1.844286758	-2.966872651	-0.0360527828	-0.115335
H	 0.7583394585	 1.8555099128	-0.3141105152	 0.269799
H	-0.8997368893	 1.7456845118	-0.0450696512	 0.271284
H	 1.9375522765	-4.0417929745	-0.0645851252	 0.158229
181.3835	253.617	273.7057	324.6446	433.8969	537.6226	595.4513	620.0896	641.0883	657.6848	677.4279	759.4773	818.2588	862.8185	886.3314	920.0433	967.1559	1131.9244	1145.4487	1212.2818	1322.8763	1425.4339	1443.8344	1527.115	1594.5993	1639.7153	1665.9283	3261.7321	3564.8606	3669.4384
NC1=NOC2=C1ON=C2	Nc1noc2c1onc2	
InChI=1S/C4H3N3O2/c5-4-3-2(8-7-4)1-6-9-3/h1H,(H2,5,7)	InChI=1S/C4H3N3O2/c5-4-3-2(8-7-4)1-6-9-3/h1H,(H2,5,7)
