22
gdb 113228	2.95665	1.06778	0.99441	1.5036	83.58	-0.2268	0.0815	0.3083	1335.7895	0.192083	-404.286034	-404.276182	-404.275238	-404.320925	36.771	
C	 1.4121754352	-0.5682972449	 1.1670164501	-0.236312
O	 1.6660387272	-1.7981116616	 0.5165000812	-0.233108
C	 1.5149154085	-1.7186124677	-0.8653094726	 0.092401
C	 1.3473077876	-3.0107568665	-1.6006348211	-0.35793
C	 0.1806451995	-2.0388247379	-1.5189716387	 0.301912
C	-0.9902690685	-2.4299445482	-0.6368642145	-0.487074
N	-0.0257929933	-1.3015224766	-2.747582635	-0.105397
C	-1.2036804571	-1.5460325671	-3.5697067141	-0.22682
C	-1.0387579015	-0.2587589226	-2.8330780341	-0.233966
H	 2.0934856236	 0.2206614776	 0.8144602913	 0.109237
H	 0.378967529	-0.2271185165	 1.0104562408	 0.107416
H	 1.5783028091	-0.7280774792	 2.2349988092	 0.12582
H	 2.1015409818	-0.9346281874	-1.34474584	 0.089164
H	 1.8460087751	-3.121422823	-2.5558194323	 0.117151
H	 1.2860925001	-3.908063574	-0.9945535255	 0.118068
H	-0.614765894	-2.8259203936	 0.3090745124	 0.138047
H	-1.6343290021	-1.5759682061	-0.400600722	 0.114022
H	-1.610193571	-3.2033845406	-1.1029301035	 0.11761
H	-1.0274789913	-1.5992743973	-4.6408417413	 0.114149
H	-1.968917343	-2.2260706134	-3.2025914394	 0.111707
H	-1.6993582784	-0.087007283	-1.9863280805	 0.109756
H	-0.7350652863	 0.6439425794	-3.3566179604	 0.114147
49.3666	108.2659	135.8545	170.7794	226.2455	235.0925	281.0126	295.361	345.5988	397.7848	462.4171	487.8243	540.0708	674.4988	800.8183	813.6669	834.929	891.8235	912.716	945.692	983.608	1025.0979	1037.9092	1065.5675	1074.0337	1109.3984	1114.3923	1118.9826	1131.8144	1167.0235	1173.0074	1182.0886	1185.1307	1221.2998	1251.5817	1306.5314	1346.0243	1394.1823	1408.1736	1465.7618	1482.5899	1486.5132	1490.8936	1502.1197	1506.7755	1510.6518	1521.4255	2984.8944	3034.0301	3036.3047	3089.7824	3101.4355	3102.5885	3104.959	3117.373	3127.9532	3140.4597	3176.4746	3191.215	3234.8073
COC1CC1(C)N1CC1	CO[C@H]1C[C@]1(C)N1CC1	
InChI=1S/C7H13NO/c1-7(8-3-4-8)5-6(7)9-2/h6H,3-5H2,1-2H3	InChI=1S/C7H13NO/c1-7(8-3-4-8)5-6(7)9-2/h6H,3-5H2,1-2H3/t6-,7-/m0/s1
