18
gdb 103262	2.78624	1.26805	1.10884	4.3889	72.3	-0.2401	0.0068	0.2469	1160.1454	0.146283	-439.074814	-439.065984	-439.06504	-439.108276	33.429	
C	 0.1070549665	 1.4010515558	-0.2839608458	-0.401841
C	-0.0045575596	-0.0610219108	 0.1678871568	-0.248888
C	-1.4155546273	-0.6059188353	 0.0656294961	 0.393525
O	-2.3561726101	 0.0560135025	 0.8698179685	-0.466107
C	-2.020617715	-1.2052670761	-1.1833012514	-0.091172
N	-1.0730736708	-2.008494394	-1.9541821123	-0.34168
C	-0.7452006272	-2.8140024338	-0.8445850544	 0.407954
O	 0.0595970686	-3.6909200658	-0.7092095246	-0.3451
C	-1.7618630073	-2.0963012247	 0.0304144703	-0.278301
H	 1.141818846	 1.7484324184	-0.2201464793	 0.128224
H	-0.2248067945	 1.5260399174	-1.3207068033	 0.117625
H	-0.4917446527	 2.0676300286	 0.3468849254	 0.114783
H	 0.6751925385	-0.6813195973	-0.4228127961	 0.115704
H	 0.3164206982	-0.1540104321	 1.2115727154	 0.120548
H	-2.4184127705	 0.9683979309	 0.5664780958	 0.290438
H	-2.9778772888	-0.9097663014	-1.5928286455	 0.115339
H	-0.3815826166	-1.6348000375	-2.5944779011	 0.242345
H	-2.4591698774	-2.5152384749	 0.7407981455	 0.126603
76.7254	117.0057	181.1195	233.575	245.8913	276.6861	313.7724	407.5704	446.4284	464.0543	543.0925	607.1188	687.0348	720.3263	778.0842	786.2219	847.4901	892.9783	926.9291	970.8114	1006.9116	1024.5977	1040.8946	1069.2305	1099.6885	1128.3006	1150.8645	1239.4776	1267.1157	1280.8249	1311.9801	1330.5405	1358.5745	1408.8129	1418.6988	1474.8745	1500.4172	1509.6335	1895.1456	3030.0969	3049.4438	3082.6784	3105.5573	3112.2979	3200.95	3236.5987	3547.8883	3805.7383
CCC1(O)C2NC(=O)C12	CC[C@@]1(O)[C@H]2NC(=O)[C@@H]12	
InChI=1S/C6H9NO2/c1-2-6(9)3-4(6)7-5(3)8/h3-4,9H,2H2,1H3,(H,7,8)	InChI=1S/C6H9NO2/c1-2-6(9)3-4(6)7-5(3)8/h3-4,9H,2H2,1H3,(H,7,8)/t3-,4-,6-/m0/s1
