22
gdb 122903	5.03498	0.5569	0.51845	4.068	84.79	-0.2704	0.0372	0.3076	2149.3004	0.191971	-404.367848	-404.356727	-404.355783	-404.405351	38.331	
C	 0.0611550853	 1.4771893351	-0.0016897971	-0.383414
C	-0.03519294	-0.0502589115	-0.0179782656	-0.18502
C	-1.4753417589	-0.5402497223	 0.0276633126	-0.036746
O	-1.4756153113	-1.9564308816	 0.0138031061	-0.251719
C	-2.7636806353	-2.51689977	 0.049043037	-0.054311
C	-2.5979413393	-4.0471543801	 0.0735459981	-0.150299
C	-1.8539707108	-4.5324148276	 1.3315270637	-0.388555
C	-3.9110787858	-4.6854413555	-0.0477832292	 0.256138
N	-4.9521036231	-5.1802437383	-0.1327031214	-0.32057
H	 1.1042486896	 1.8036871392	-0.035543384	 0.120858
H	-0.4529010661	 1.9197743675	-0.861978093	 0.119029
H	-0.3885962373	 1.8967521429	 0.9048832003	 0.118672
H	 0.4407626525	-0.4525031566	-0.9195098123	 0.109056
H	 0.5039226426	-0.4748033356	 0.8366795328	 0.107869
H	-1.9806028854	-0.1706836465	 0.9362266434	 0.08978
H	-2.0421070146	-0.1530303467	-0.8361704026	 0.09023
H	-3.3178657431	-2.1874890224	 0.9436620752	 0.10332
H	-3.350860623	-2.2155473314	-0.8327199097	 0.10727
H	-2.0139418942	-4.3214490957	-0.813621352	 0.13684
H	-1.6856956726	-5.6110898661	 1.2945163291	 0.134226
H	-0.8923334091	-4.0207844718	 1.3937864797	 0.144671
H	-2.4316337803	-4.305926495	 2.2324365889	 0.132672
45.2903	59.1709	82.6767	126.1747	155.3422	170.9489	215.8101	228.5438	235.7755	290.6751	359.2174	383.0758	495.2481	555.0556	577.3405	766.0712	827.8783	900.7578	910.36	935.0498	942.6459	1012.2628	1056.8838	1086.7439	1122.6404	1154.2789	1161.7556	1168.8384	1196.5967	1260.9922	1271.9202	1306.0366	1315.7562	1334.245	1342.125	1394.6245	1408.1301	1415.1533	1451.3347	1492.0915	1493.6618	1501.0357	1501.2353	1506.0969	1515.1032	1535.1962	2358.7315	2951.8808	2968.313	2981.706	3000.7369	3033.4593	3039.7108	3044.6972	3054.8735	3073.0554	3101.7137	3111.181	3127.2482	3150.2071
CCCOCC(C)C#N	CCCOC[C@@H](C)C#N	
InChI=1S/C7H13NO/c1-3-4-9-6-7(2)5-8/h7H,3-4,6H2,1-2H3	InChI=1S/C7H13NO/c1-3-4-9-6-7(2)5-8/h7H,3-4,6H2,1-2H3/t7-/m0/s1
