19
gdb 97567	3.27533	0.73763	0.63561	4.1619	81.7	-0.2324	0.0248	0.2571	1782.3207	0.158079	-419.212815	-419.20198	-419.201036	-419.250653	37.863	
C	 0.4263861721	 1.5356782646	 0.3290892322	-0.364785
C	-0.2203429879	 0.268864803	-0.2606520327	-0.317898
C	 0.5241002103	-0.2824816248	-1.3892833841	 0.079741
C	 1.1719024451	-0.7338163249	-2.3006694239	 0.056441
C	 1.9310512869	-1.28933775	-3.4182580151	-0.237966
N	 2.2274644767	-2.7108941337	-3.2245392473	-0.505373
C	 1.2684915945	-1.0154319567	-4.8058487557	 0.399452
N	 0.5783948354	 0.1467459616	-4.9106865112	-0.522112
O	 1.4497861062	-1.7846235317	-5.7297961866	-0.366556
H	 1.4400228857	 1.3257877011	 0.6801479522	 0.134523
H	 0.4869499456	 2.328619982	-0.421491022	 0.124154
H	-0.1628861158	 1.9054735909	 1.1731823812	 0.118572
H	-0.300999028	-0.498570244	 0.5195482793	 0.13798
H	-1.249672587	 0.4901566496	-0.5707227126	 0.128254
H	 2.894672497	-0.7575692294	-3.4746908153	 0.13581
H	 1.3660724743	-3.1834150126	-2.9614311677	 0.228893
H	 2.4646826429	-3.0755336157	-4.1471044806	 0.244452
H	 0.3195049362	 0.6558415654	-4.0820847738	 0.264607
H	 0.1174438399	 0.3528238255	-5.7821419264	 0.26181
17.4224	50.427	88.0106	107.3088	196.2848	212.4301	250.9109	291.0685	323.8565	335.1124	415.8283	447.7239	470.7796	526.7411	555.9829	619.4798	690.6278	784.9885	788.8079	848.6132	957.1099	982.4816	1071.6931	1099.7012	1104.4206	1104.9054	1186.2777	1211.2532	1286.3876	1292.3255	1342.7666	1350.5765	1403.4681	1409.6152	1475.0929	1495.1665	1505.2845	1606.6888	1663.4071	1800.2153	2357.978	2977.6324	3022.2581	3045.937	3050.5719	3119.2756	3126.0624	3462.0817	3542.7326	3589.5817	3723.1416
CCC#CC(N)C(N)=O	CCC#C[C@@H](N)C(=O)N	
InChI=1S/C6H10N2O/c1-2-3-4-5(7)6(8)9/h5H,2,7H2,1H3,(H2,8,9)	InChI=1S/C6H10N2O/c1-2-3-4-5(7)6(8)9/h5H,2,7H2,1H3,(H2,8,9)/t5-/m1/s1
