23
gdb 121415	3.94263	0.77398	0.68034	0.3973	82.32	-0.2435	0.0772	0.3207	1681.9984	0.207116	-425.432463	-425.422991	-425.422047	-425.467193	35.534	
O	-0.117668445	 1.4985587249	 0.1216066005	-0.420554
C	 0.0393086082	 0.0915623934	 0.004530782	-0.086087
C	-1.3563798341	-0.5223407006	-0.0375772762	-0.182267
C	-1.3853316687	-2.0565853332	-0.0388425729	 0.007831
C	-2.8157203194	-2.5900825565	 0.1564200333	-0.207672
C	-2.8532509412	-4.120100675	 0.0503403495	-0.213481
C	-2.1734444538	-4.5716332562	-1.2429134538	-0.06347
O	-0.8502198324	-4.0725259106	-1.3378864726	-0.247298
C	-0.8045770484	-2.6569192167	-1.329844955	-0.074311
H	 0.7560326247	 1.9000196237	 0.1162533098	 0.285135
H	 0.6052401779	-0.1642722415	-0.904629535	 0.087859
H	 0.5978584956	-0.3197718712	 0.8619320087	 0.085354
H	-1.9050379147	-0.1508899164	 0.8365732578	 0.104651
H	-1.8849400071	-0.1347194373	-0.9182582991	 0.101874
H	-0.7686182782	-2.4243245313	 0.7942956835	 0.07411
H	-3.2149521976	-2.2566378554	 1.121027431	 0.094057
H	-3.4655717513	-2.1555652581	-0.6172526173	 0.093248
H	-2.3244152412	-4.5662692665	 0.9015635288	 0.102134
H	-3.8848514281	-4.4899334135	 0.0771431736	 0.09238
H	-2.0922540429	-5.6614553661	-1.2942975138	 0.102921
H	-2.7655564612	-4.2354761181	-2.1130273535	 0.080827
H	-1.3577415216	-2.2528623208	-2.1981203672	 0.080328
H	 0.2494793305	-2.3943440469	-1.4560294021	 0.102431
72.5368	81.4832	120.934	193.2514	237.927	270.811	308.3109	332.635	365.6319	439.3248	457.3897	504.4004	608.9765	783.6461	821.9874	862.7755	879.5878	917.0625	943.0597	987.3357	1005.7562	1031.666	1052.1353	1068.7027	1108.604	1119.8038	1144.2216	1181.1398	1197.6516	1225.4928	1235.7094	1259.201	1301.6594	1310.6109	1313.6896	1331.8248	1351.0117	1360.0447	1377.2725	1384.9272	1403.3646	1421.616	1464.8684	1477.9868	1485.0884	1490.5984	1494.872	1504.8178	1528.5972	2935.7163	2949.0176	2961.7565	2992.7071	2998.1124	3008.2059	3025.452	3027.2849	3057.9827	3067.2016	3073.0973	3080.8714	3084.1191	3830.1062
OCCC1CCCOC1	OCC[C@H]1CCCOC1	
InChI=1S/C7H14O2/c8-4-3-7-2-1-5-9-6-7/h7-8H,1-6H2	InChI=1S/C7H14O2/c8-4-3-7-2-1-5-9-6-7/h7-8H,1-6H2/t7-/m1/s1
