16
gdb 133111	2.59243	1.50556	0.95916	3.9598	76.48	-0.2164	-0.0017	0.2147	1165.5349	0.125523	-442.087382	-442.079338	-442.078394	-442.120173	29.815	
C	-0.011639072	 1.4516031953	 0.1148308428	-0.326217
N	-0.0761541058	 0.0204754353	-0.0792704716	-0.379555
C	 0.5734532371	-0.6247513412	-1.0939321306	 0.270871
C	 1.1928471105	 0.0061967285	-2.1820640572	-0.231406
C	 1.7943913319	-0.7728865234	-3.1661483592	 0.011762
N	 1.8406371311	-2.1058458872	-3.1618046778	-0.293796
C	 1.2571064537	-2.715990886	-2.1200162381	-0.088394
C	 0.6352572462	-2.0286259068	-1.1031568163	 0.163915
F	 0.0675906272	-2.6860848561	-0.0722686742	-0.097946
H	 1.017005553	 1.8179633954	 0.2456867317	 0.128092
H	-0.455765511	 1.9834093293	-0.7346017065	 0.138948
H	-0.5854935869	 1.7114960357	 1.006159356	 0.134666
H	-0.3217141707	-0.5512091097	 0.7109318792	 0.253648
H	 1.2054392525	 1.0861275953	-2.2621591526	 0.096659
H	 2.2716890683	-0.281902197	-4.0111923127	 0.103479
H	 1.2825596249	-3.8022696973	-2.0862727329	 0.115275
87.8066	149.6774	194.3753	205.8079	304.9334	318.1742	388.4847	456.5008	514.952	536.1731	603.5956	623.6544	759.7299	792.1428	834.1193	858.018	937.3571	979.9339	1076.1122	1089.6969	1154.21	1163.2662	1215.4836	1232.147	1301.4592	1326.2585	1377.3365	1455.9883	1472.375	1479.4632	1485.8568	1524.6859	1563.4833	1614.9693	1652.0292	2997.1234	3058.8858	3130.1498	3152.7547	3163.7501	3206.9622	3658.3567
CNC1=CC=NC=C1F	CNc1ccncc1F	
InChI=1S/C6H7FN2/c1-8-6-2-3-9-4-5(6)7/h2-4H,1H3,(H,8,9)	InChI=1S/C6H7FN2/c1-8-6-2-3-9-4-5(6)7/h2-4H,1H3,(H,8,9)
