19
gdb 120282	3.26364	0.99375	0.88416	2.0004	70.48	-0.2521	0.0662	0.3183	1341.0502	0.158321	-460.109992	-460.101014	-460.10007	-460.144193	33.363	
O	 0.1280887643	 1.4266688667	 0.1685813868	-0.418735
C	 0.0453930055	 0.0234403111	-0.0318453251	-0.06608
C	-1.378193544	-0.5136470662	 0.1425966832	-0.219414
C	-1.4564672618	-2.0303789165	 0.0245418806	-0.076432
C	-2.8367120917	-2.6957303874	 0.054514064	 0.011642
O	-3.5443346457	-2.2776388447	-1.1277459101	-0.262444
C	-2.6197740767	-3.3757429542	-1.2311118749	-0.020814
C	-1.2452846641	-2.711256394	-1.4036288922	 0.106267
O	-1.1088892485	-1.8803486998	-2.5241632774	-0.427837
H	-0.355241086	 1.8524164533	-0.5464245954	 0.280421
H	 0.4308579043	-0.2675841107	-1.0189604385	 0.110276
H	 0.7052473604	-0.419417149	 0.7234577698	 0.103688
H	-1.7547396059	-0.1979528798	 1.1234166127	 0.105602
H	-2.0352192968	-0.0553198479	-0.6070013325	 0.088509
H	-0.7902027209	-2.5103224225	 0.7508646206	 0.079012
H	-3.4419805995	-2.9923591877	 0.9032182389	 0.10905
H	-3.004345606	-4.3099348257	-1.6236732566	 0.109317
H	-0.406314211	-3.4101134324	-1.4102719383	 0.09551
H	-1.9559871559	-1.4259734628	-2.6204620055	 0.29246
82.3877	91.1656	108.6974	185.6322	244.6327	284.0777	293.512	381.3568	448.439	499.9388	607.3057	648.8444	717.2622	771.2908	812.9148	860.3033	875.7093	902.2429	937.4428	1001.3545	1019.2389	1055.1179	1062.1814	1074.7416	1113.8241	1123.5698	1155.9494	1204.8864	1227.2269	1239.0155	1261.6159	1291.1231	1304.7997	1309.874	1369.2838	1382.8786	1406.3894	1420.2425	1440.8542	1488.2196	1516.1196	3008.6024	3027.2544	3042.6431	3053.0943	3077.7354	3097.6639	3181.5426	3196.7041	3770.0122	3817.8683
OCCC1C2OC2C1O	OCC[C@H]1[C@H]2O[C@H]2[C@H]1O	
InChI=1S/C6H10O3/c7-2-1-3-4(8)6-5(3)9-6/h3-8H,1-2H2	InChI=1S/C6H10O3/c7-2-1-3-4(8)6-5(3)9-6/h3-8H,1-2H2/t3-,4+,5-,6+/m1/s1
