19
gdb 108830	2.98035	1.20052	0.94869	1.8246	77.31	-0.2322	0.0104	0.2427	1270.2828	0.15848	-423.008814	-422.999994	-422.99905	-423.042405	32.944	
C	-0.1069211088	 1.5841054559	 0.1126005245	-0.391928
C	 0.0078021664	 0.0555219197	 0.0103314318	-0.061679
C	 0.7814921981	-0.4215994178	-1.2072896187	-0.175097
C	 1.8004138268	-1.2274870996	-0.8947074838	 0.310237
C	 2.7765704256	-1.8759588154	-1.8197986715	-0.189962
O	 2.3973697888	-1.6273291709	-3.1603725312	-0.412569
C	 1.8861931129	-1.3769610036	 0.5932634632	-0.084478
O	 2.1478967088	-0.1253173527	 1.2742725114	-0.258596
C	 0.7938150923	-0.5753649866	 1.1623412894	 0.03535
H	 0.8877044213	 2.0278360338	 0.2044543182	 0.136728
H	-0.5922341559	 2.00070635	-0.7753621059	 0.113985
H	-0.6979176805	 1.8763345925	 0.9866899696	 0.112716
H	-1.0052571152	-0.3728821798	 0.0009882102	 0.081828
H	 0.5456583085	-0.0955521156	-2.2129421038	 0.111924
H	 3.788326256	-1.4869220238	-1.6079090378	 0.106788
H	 2.8149987311	-2.9598395319	-1.60642818	 0.093536
H	 3.0764629558	-1.98983394	-3.7359249117	 0.29079
H	 2.312950456	-2.2558044598	 1.0697140699	 0.089326
H	 0.3056733423	-0.8118098445	 2.1045964963	 0.091102
83.0091	135.2103	170.7258	188.5795	223.949	241.4384	291.3895	396.5191	421.7856	523.9233	580.7362	651.3807	720.75	815.6227	850.1586	874.2757	879.7239	918.0678	938.2187	1016.7476	1030.8447	1045.3049	1069.3014	1094.8662	1114.6268	1123.768	1181.3792	1216.5965	1246.7051	1256.7268	1278.4571	1302.8539	1325.3731	1357.4336	1398.8822	1418.9495	1468.0182	1494.1303	1503.8387	1507.7003	1708.8896	2936.0903	2952.8042	2998.2368	3038.0636	3103.4253	3125.1134	3138.763	3152.2618	3213.0373	3839.8259
CC1C=C(CO)C2OC12	C[C@H]1C=C(CO)[C@H]2O[C@@H]12	
InChI=1S/C7H10O2/c1-4-2-5(3-8)7-6(4)9-7/h2,4,6-8H,3H2,1H3	InChI=1S/C7H10O2/c1-4-2-5(3-8)7-6(4)9-7/h2,4,6-8H,3H2,1H3/t4-,6-,7+/m0/s1
