17
gdb 85991	2.43619	1.26917	1.21818	2.9747	70.86	-0.2535	-0.0615	0.192	1143.9503	0.13149	-458.976275	-458.966678	-458.965734	-459.011028	33.692	
C	-0.6923679948	 1.2131561615	-0.4286746428	-0.408475
C	-0.0266704839	-0.1170114332	-0.1230339043	 0.03376
O	 1.1788800547	-0.3642419105	-0.893782728	-0.34132
C	 2.0427851123	-0.4959588443	 0.2595250389	 0.183781
C	 2.6579363816	-1.8770175582	 0.4385757319	-0.436447
C	 3.0865671722	 0.612677004	 0.2820286771	 0.124325
O	 4.056357868	 0.6082024792	 0.99201108	-0.236804
C	 0.8053948013	-0.2080655616	 1.1614870473	 0.290755
O	 0.6065657358	-0.1156554835	 2.330227069	-0.262355
H	-0.0010563714	 2.0472427647	-0.2780499077	 0.129195
H	-1.0326530555	 1.229312276	-1.4678732884	 0.142064
H	-1.5587684808	 1.3533580512	 0.2245395373	 0.141376
H	-0.7399080225	-0.9457829339	-0.2297264811	 0.115448
H	 3.2606565837	-2.1292436578	-0.4385358417	 0.140779
H	 3.3063887027	-1.8639928141	 1.3174469294	 0.16098
H	 1.8870853361	-2.6408729575	 0.5650466371	 0.126211
H	 2.8560829307	 1.4419776682	-0.421738714	 0.096728
66.7551	82.66	160.3103	189.7281	200.1001	204.5078	246.1778	261.3653	326.7607	417.2707	474.5962	517.6804	673.9585	714.5058	735.068	851.2306	872.0364	957.5327	976.3046	990.0505	1050.3751	1072.5239	1116.5687	1141.6597	1187.8796	1201.6338	1276.6512	1347.2787	1383.9581	1397.7548	1403.2279	1479.1718	1481.8105	1488.5765	1493.5561	1819.8124	1925.9816	2900.9133	3018.6921	3043.9792	3050.4863	3121.9502	3123.8401	3126.0934	3144.4566
CC1OC(C)(C=O)C1=O	C[C@H]1O[C@@](C)(C=O)C1=O	
InChI=1S/C6H8O3/c1-4-5(8)6(2,3-7)9-4/h3-4H,1-2H3	InChI=1S/C6H8O3/c1-4-5(8)6(2,3-7)9-4/h3-4H,1-2H3/t4-,6+/m1/s1
