17
gdb 47767	2.01854	1.68829	1.23228	4.7683	72.99	-0.2515	-0.0399	0.2116	1068.4238	0.138075	-418.040044	-418.031999	-418.031054	-418.072948	30.044	
O	 0.0308756014	-0.027569109	-0.0684685387	-0.294264
C	-0.0259898595	 1.1718102936	 0.0083132548	 0.393342
C	-1.310011993	 1.974938129	 0.0241650016	-0.285879
C	-1.2737335335	 3.0554884061	-1.0771774192	-0.175721
N	-0.0714175511	 3.8635918212	-0.9178938243	-0.275605
C	 1.1479332653	 3.0996228916	-1.1088175455	-0.191389
C	 1.2641747884	 2.0359003088	 0.0159021433	-0.22485
C	 1.4553681223	 2.657293672	 1.3249461224	 0.279189
N	 1.6091037283	 3.1288974451	 2.3691330818	-0.32511
H	-2.1543312568	 1.2949420442	-0.1036275817	 0.126814
H	-1.3916658865	 2.4742411748	 0.9967589211	 0.153547
H	-1.3298032629	 2.5588046556	-2.0636589401	 0.095661
H	-2.1506213974	 3.7022891954	-0.9851491171	 0.118631
H	-0.0891971541	 4.6716106516	-1.527525792	 0.233908
H	 1.1850009709	 2.5553476763	-2.0709577567	 0.100836
H	 2.0094260463	 3.7714031403	-1.0709065158	 0.130025
H	 2.1014551418	 1.3607852435	-0.1816703839	 0.140865
79.8441	131.1274	138.1678	231.5437	341.5199	381.7189	402.4113	457.9793	479.4607	552.7041	614.1942	671.4585	750.402	804.8729	863.1169	889.4197	932.3096	984.3287	1030.5767	1061.7294	1092.9315	1126.9951	1177.4544	1198.8314	1234.3152	1263.5036	1280.0754	1323.558	1334.0757	1363.0012	1421.2499	1456.6395	1478.9262	1497.5877	1514.2071	1835.5087	2354.6334	2929.505	2931.449	3049.9476	3084.0459	3085.005	3091.2945	3127.1467	3557.0125
O=C1CCNCC1C#N	O=C1CCNC[C@H]1C#N	
InChI=1S/C6H8N2O/c7-3-5-4-8-2-1-6(5)9/h5,8H,1-2,4H2	InChI=1S/C6H8N2O/c7-3-5-4-8-2-1-6(5)9/h5,8H,1-2,4H2/t5-/m1/s1
