15
gdb 10649	3.08386	1.67179	1.31762	4.1159	62.39	-0.2556	0.0179	0.2735	932.4536	0.118384	-399.786804	-399.778789	-399.777845	-399.819037	29.599	
O	 0.7299970082	-0.090955987	-0.6971351511	-0.41591
C	-0.1778122262	 0.2839442199	 0.3343825584	-0.165445
C	-1.5474382998	-0.3967341197	 0.2023892595	 0.067652
C	-2.0571672359	-0.8377217286	-1.1765640396	-0.363783
C	-1.5959199623	-1.8772506575	-0.2011076845	 0.135749
O	-0.4316798554	-2.6025046083	-0.3641489349	-0.423682
C	-2.5122735471	 0.0742009639	 1.1554207358	 0.232949
N	-3.2776461203	 0.4598890723	 1.9339793322	-0.339298
H	 0.5472037435	 0.4411732038	-1.4776571523	 0.301948
H	 0.2876001361	-0.028136229	 1.2738770468	 0.149518
H	-0.3041936387	 1.3724779796	 0.3690648168	 0.130375
H	-3.1162957549	-0.7309702807	-1.3794390453	 0.143317
H	-1.4073573124	-0.6267174606	-2.0190091296	 0.112234
H	-2.3584484071	-2.4803140803	 0.2797011842	 0.133458
H	 0.2488665824	-2.002843168	-0.7055746364	 0.300916
109.9699	150.3643	170.9502	224.0174	274.862	349.0802	403.0988	464.6084	480.9668	550.7574	571.8735	600.6056	697.1756	803.8296	860.5161	924.5215	1005.2195	1022.1077	1051.2264	1068.6438	1115.0813	1165.768	1219.4419	1229.7448	1281.0741	1351.7872	1393.5199	1417.1027	1455.0899	1482.7249	1503.613	2341.6505	3035.0277	3095.7971	3140.0401	3180.4742	3232.8546	3708.244	3831.0193
OCC1(CC1O)C#N	OC[C@]1(C[C@H]1O)C#N	
InChI=1S/C5H7NO2/c6-2-5(3-7)1-4(5)8/h4,7-8H,1,3H2	InChI=1S/C5H7NO2/c6-2-5(3-7)1-4(5)8/h4,7-8H,1,3H2/t4-,5+/m1/s1
