19
gdb 12268	3.30483	1.43891	1.18567	3.5178	73.83	-0.2386	0.0389	0.2775	1103.8997	0.165042	-365.096966	-365.088025	-365.087081	-365.131095	31.536	
C	-0.2360339981	 1.54412065	 0.0144394785	-0.378161
C	 0.1621729144	 0.065379603	 0.035747607	-0.156414
N	 0.7550779025	-0.3869573972	-1.2012559267	-0.070036
C	 0.2217369186	-0.5552549697	-2.556408217	-0.192566
C	 1.6307535368	-1.0797600786	-2.9764517996	-0.130976
C	 2.4108285303	-0.2878071499	-4.016731838	-0.401634
C	 2.0203272379	-0.8321474106	-1.4975057543	 0.401407
O	 3.0129825999	-0.951859477	-0.824835357	-0.383488
H	 0.6359142042	 2.1778384785	-0.1715259523	 0.131099
H	-0.9776051698	 1.7452223687	-0.765486264	 0.119767
H	-0.6746817973	 1.8332856837	 0.974404439	 0.121478
H	 0.9119176287	-0.1188503498	 0.8116408518	 0.140824
H	-0.7131967805	-0.5555154117	 0.2722254623	 0.106621
H	-0.5970615034	-1.2809396862	-2.6264899715	 0.10559
H	-0.0813557921	 0.3807277139	-3.0398571569	 0.107319
H	 1.6270045125	-2.1468778296	-3.2175695301	 0.100586
H	 2.3941384086	 0.7837692937	-3.7909147887	 0.12129
H	 3.4564943251	-0.6089733924	-4.0310734144	 0.139119
H	 1.9968437716	-0.4305350089	-5.020042878	 0.118177
56.9634	76.982	133.6424	185.3924	213.7039	230.5809	280.5991	371.4043	377.4141	523.5789	637.8936	731.1516	761.8732	794.747	851.7833	916.4556	934.7885	992.3422	1053.2339	1087.4601	1100.634	1116.7444	1146.9147	1175.6417	1208.0465	1243.6454	1269.2932	1334.203	1360.1761	1388.509	1406.0247	1409.5616	1431.9843	1480.9299	1492.7556	1495.6212	1497.0703	1503.8664	1527.9907	1869.4619	3008.7857	3022.6677	3034.7118	3038.9344	3062.1919	3074.285	3085.0114	3103.6472	3110.9988	3113.1073	3119.6472
CCN1CC(C)C1=O	CCN1C[C@@H](C)C1=O	
InChI=1S/C6H11NO/c1-3-7-4-5(2)6(7)8/h5H,3-4H2,1-2H3	InChI=1S/C6H11NO/c1-3-7-4-5(2)6(7)8/h5H,3-4H2,1-2H3/t5-/m1/s1
