22
gdb 55847	2.97624	1.01976	0.9625	2.0969	83.71	-0.2524	0.0326	0.2849	1389.0887	0.191427	-404.354569	-404.344122	-404.343178	-404.390068	38.43	
C	-0.1360227773	 1.3263284875	 0.189190265	-0.444714
C	-0.0905802468	-0.1481406449	-0.0884136228	 0.409695
N	 0.7915229883	-0.6715300473	-0.8323594119	-0.520785
O	-1.1113142413	-0.7757637433	 0.5768478879	-0.244454
C	-1.1708934515	-2.1775453013	 0.4964147598	 0.063065
C	-2.5034136985	-2.7907699307	 0.8006747027	-0.366654
C	-1.9498455269	-2.8538356977	-0.6128473362	 0.30961
C	-2.6115740451	-1.9895698126	-1.668020535	-0.454568
C	-1.4282365803	-4.1877287905	-1.1118249835	-0.454148
H	 0.6696016912	 1.8242014227	-0.3482560917	 0.146941
H	-1.1003168474	 1.7400515712	-0.1223528132	 0.137096
H	-0.0365838401	 1.5128394095	 1.2630126141	 0.138888
H	 0.6675410119	-1.679541928	-0.9228220685	 0.219233
H	-0.2743737599	-2.6678411342	 0.8716896152	 0.101234
H	-2.5265770381	-3.6928479751	 1.4026968394	 0.113898
H	-3.3176568563	-2.0989230466	 0.9868968378	 0.124065
H	-2.9293350176	-1.0287032342	-1.2569760644	 0.125289
H	-1.9266858	-1.7895129388	-2.4994819391	 0.124407
H	-3.4952254935	-2.4927326269	-2.0763185687	 0.115852
H	-2.2471013645	-4.8086912626	-1.4934141562	 0.120832
H	-0.7084719818	-4.0513194447	-1.9276442302	 0.120866
H	-0.9310130645	-4.7509549612	-0.3155858506	 0.114352
68.278	75.4536	119.7169	145.3955	195.8862	230.3664	240.081	288.9062	335.8678	355.7395	391.4148	456.2104	507.1306	566.0442	626.691	717.5734	794.6091	852.201	887.8835	915.9559	922.7813	973.7114	990.3795	1010.3513	1045.5759	1054.8177	1075.7747	1099.203	1107.5552	1143.4628	1155.9448	1183.4227	1282.0692	1317.9464	1339.9036	1398.7124	1408.4056	1420.4919	1424.2085	1474.4116	1477.8852	1482.7821	1484.8092	1491.1375	1503.3574	1511.8722	1738.9392	3021.1683	3031.4859	3050.5382	3082.6607	3089.6843	3096.9155	3107.9905	3117.484	3122.4572	3133.4167	3169.7769	3221.832	3489.9446
CC(=N)OC1CC1(C)C	C[C]([NH])O[C@H]1CC1(C)C	
InChI=1S/C7H13NO/c1-5(8)9-6-4-7(6,2)3/h6,8H,4H2,1-3H3	InChI=1S/C7H13NO/c1-5(8)9-6-4-7(6,2)3/h6,8H,4H2,1-3H3/t6-/m0/s1
