22
gdb 79405	2.32584	1.56443	1.44335	1.8189	86.8	-0.2207	0.0897	0.3104	1103.2969	0.192776	-367.137732	-367.128635	-367.12769	-367.170653	35.613	
C	-0.1275984322	 1.5486464721	-0.0442548026	-0.427347
C	-0.0078877368	 0.0396643855	 0.0603560406	 0.013771
N	 1.18195687	-0.5918609478	-0.6648063765	-0.203676
C	 2.0833553205	-0.2955156366	 0.5621524401	-0.050953
C	 2.584027413	-1.7381628121	 0.6013073936	-0.317157
C	 1.0855062711	-1.8269583877	 0.2862802489	 0.338323
C	 0.2728833155	-3.0379892596	-0.0693957751	-0.521421
C	 0.7121151287	-0.6272049041	 1.2380523825	 0.277132
C	 0.3579738921	-0.6623399074	 2.7031942164	-0.531391
H	 0.7877560419	 2.0592070767	 0.2697374792	 0.114886
H	-0.3382603368	 1.8417128735	-1.0781073224	 0.126149
H	-0.9484429024	 1.9152068742	 0.5820245804	 0.114156
H	-0.9520630519	-0.43251729	-0.2417794714	 0.060079
H	 2.656196331	 0.6306246172	 0.6194049108	 0.076532
H	 3.2608976586	-2.0338146079	-0.2058148883	 0.101421
H	 2.9156670745	-2.1282864732	 1.5674850977	 0.092126
H	 0.2693723216	-3.7538085147	 0.7599563753	 0.121012
H	-0.7663249418	-2.7783763719	-0.2953174401	 0.123712
H	 0.6958422889	-3.5364931896	-0.9476177308	 0.131433
H	 1.1001748439	-1.225399922	 3.2802468827	 0.119351
H	 0.3077506361	 0.3487189907	 3.1227748378	 0.122187
H	-0.6175552055	-1.1365412954	 2.8606338913	 0.119677
179.4482	185.6646	188.0682	192.612	199.8542	216.9579	274.092	322.263	376.7298	486.9415	531.3712	613.1738	644.214	704.5514	750.4363	841.1284	847.6743	863.1235	880.5585	905.4857	960.168	1002.5199	1020.9627	1034.023	1067.3357	1097.0388	1131.6379	1142.731	1169.0272	1182.5338	1197.7742	1224.9397	1234.4962	1264.9143	1318.492	1332.9524	1399.8001	1405.4628	1411.1028	1422.07	1482.8105	1484.48	1488.7144	1490.2656	1493.1458	1495.5681	1497.3142	3016.4817	3022.3909	3031.909	3033.9154	3048.9812	3088.6803	3090.4571	3097.6003	3099.2608	3103.4695	3104.5802	3111.4709	3112.9599
CC1N2C3CC2(C)C13C	C[C@H]1N2[C@@H]3C[C@@]2(C)[C@]13C	
InChI=1S/C8H13N/c1-5-8(3)6-4-7(8,2)9(5)6/h5-6H,4H2,1-3H3	InChI=1S/C8H13N/c1-5-8(3)6-4-7(8,2)9(5)6/h5-6H,4H2,1-3H3/t5-,6-,7+,8-/m1/s1
