23
gdb 64252	3.02141	1.19157	1.13467	1.7112	85.	-0.2545	0.0762	0.3307	1237.3698	0.205243	-388.297096	-388.287896	-388.286952	-388.330622	36.347	
C	 0.4077076324	 1.2956210254	 0.3475291328	-0.422328
C	-0.0977545614	-0.1086808523	-0.0318547693	 0.293565
C	-1.6210696755	-0.0891630962	-0.1872701287	-0.442449
C	 0.6140222769	-0.6144699361	-1.3169907235	-0.231805
C	 1.9916569831	-1.14817344	-0.8596732432	-0.303385
C	 1.8329679033	-1.4135644531	 0.6426915394	 0.444294
C	 2.7257780568	-2.2725902384	 1.4246474081	-0.257966
O	 2.8385864357	-0.8488865523	 1.5010152664	-0.277659
C	 0.3802868165	-1.147787915	 1.0112366011	-0.30226
H	 1.4915667455	 1.3133208643	 0.4930905101	 0.134612
H	 0.1575913505	 2.0227681354	-0.4329633368	 0.106337
H	-0.0537462858	 1.6356646894	 1.2810737245	 0.110625
H	-1.9284845471	 0.6076880337	-0.9753254568	 0.110089
H	-2.007305714	-1.0806039162	-0.4489239921	 0.105792
H	-2.1105517805	 0.2273815317	 0.7406806554	 0.110627
H	 0.0252246076	-1.4289704047	-1.7549391701	 0.091704
H	 0.6946441596	 0.1659487532	-2.079682677	 0.095348
H	 2.2848800949	-2.0479358289	-1.4083847084	 0.103014
H	 2.789353032	-0.4131524566	-0.9989984261	 0.120618
H	 2.3583299528	-2.7626245207	 2.3268284739	 0.106694
H	 3.5544997718	-2.7821667662	 0.9325793873	 0.107068
H	 0.2855509963	-0.8113892136	 2.0473669772	 0.104689
H	-0.2020433714	-2.0722728229	 0.9009863756	 0.092776
60.3305	144.6676	225.2282	229.0016	277.9704	286.0031	336.7465	368.6385	386.757	412.3107	429.9799	504.934	579.0737	738.0622	769.2777	806.7121	830.7968	886.1711	921.4752	927.1328	953.2633	963.9075	981.3432	984.7259	1016.2835	1064.6059	1094.7231	1129.8461	1148.5739	1184.8266	1187.2841	1229.5439	1237.2733	1260.6856	1289.3002	1296.1357	1318.398	1347.559	1405.5881	1419.2563	1430.6632	1471.6469	1481.0868	1483.5845	1493.2561	1504.961	1508.3853	1510.2122	1533.0543	3018.9372	3021.5012	3028.9745	3035.1689	3057.2373	3068.5458	3078.2394	3086.9886	3089.4101	3092.5886	3096.0232	3101.5852	3113.9989	3151.0029
CC1(C)CCC2(CO2)C1	CC1(C)CC[C@]2(CO2)C1	
InChI=1S/C8H14O/c1-7(2)3-4-8(5-7)6-9-8/h3-6H2,1-2H3	InChI=1S/C8H14O/c1-7(2)3-4-8(5-7)6-9-8/h3-6H2,1-2H3/t8-/m1/s1
