22
gdb 115791	3.81785	1.01882	0.90575	1.0715	81.86	-0.2379	0.0756	0.3135	1362.2836	0.19527	-404.34098	-404.33185	-404.330906	-404.374559	35.24	
C	 0.0049527171	 1.4995947237	-0.0378027157	-0.465918
C	-0.0325207919	-0.0049180873	 0.0499465548	 0.342699
C	-1.3143087078	-0.7375561787	-0.3367869335	-0.280333
C	-1.1540265223	-2.1688962993	 0.2222383641	-0.244349
C	-0.2096248409	-2.0256301318	 1.4424104897	 0.020711
C	 0.5993729728	-3.279026372	 1.7495341433	-0.089451
O	-0.3135296046	-4.3329665404	 2.0242645562	-0.422694
C	 0.6369298894	-0.8028287213	 1.1155226557	-0.084534
N	 1.236837461	-0.7014546527	-0.2294620774	-0.377873
H	 0.972542896	 1.8801657227	 0.2983129231	 0.126472
H	-0.1454408884	 1.8348553396	-1.0707174487	 0.116274
H	-0.7827326124	 1.9495551433	 0.5771735851	 0.110862
H	-2.1643199326	-0.2302840585	 0.1368279755	 0.100908
H	-1.5005867906	-0.7228246157	-1.4172683356	 0.096522
H	-2.1061238744	-2.6281640494	 0.492093025	 0.115109
H	-0.7009457666	-2.8311888641	-0.5243922293	 0.098219
H	-0.8057862559	-1.7920820813	 2.3353318186	 0.081223
H	 1.2419792953	-3.5238765608	 0.8872689258	 0.081529
H	 1.2638941485	-3.0934149137	 2.6086658712	 0.08639
H	 0.1917264173	-5.1318554691	 2.2001871027	 0.287062
H	 1.2204089038	-0.3405219727	 1.9080859047	 0.080417
H	 1.0885325371	-1.5530953405	-0.7659026052	 0.220759
87.4824	134.4667	187.5383	203.0807	220.7749	271.5025	307.0665	348.3459	404.8616	439.8858	500.9144	573.3373	669.1618	696.9169	809.1008	833.5608	854.5666	924.3429	950.2584	976.3773	1005.6375	1017.1942	1041.1085	1070.1874	1076.7572	1083.1841	1109.9647	1126.5213	1171.1071	1196.5462	1239.418	1247.6691	1258.9918	1279.0818	1307.3812	1322.5718	1324.31	1343.3736	1373.1023	1412.9225	1443.8947	1459.8679	1487.4455	1490.9057	1501.1681	1508.3569	1521.3044	2958.3392	2985.819	3017.1951	3024.0658	3029.3007	3042.3367	3063.8152	3086.053	3116.7712	3120.4218	3137.3912	3487.415	3830.9655
CC12CCC(CO)C1N2	C[C@]12CC[C@@H](CO)[C@H]1N2	
InChI=1S/C7H13NO/c1-7-3-2-5(4-9)6(7)8-7/h5-6,8-9H,2-4H2,1H3	InChI=1S/C7H13NO/c1-7-3-2-5(4-9)6(7)8-7/h5-6,8-9H,2-4H2,1H3/t5-,6+,7-/m0/s1
