21
gdb 114129	4.13058	0.89102	0.8224	1.7564	79.46	-0.24	0.0775	0.3175	1461.4429	0.181184	-424.175533	-424.165946	-424.165001	-424.210188	35.44	
C	 0.1171228334	 1.3070377792	 0.2286349297	-0.257081
O	 0.0142175109	-0.0420924181	-0.193398769	-0.282061
C	-1.2711852937	-0.5354685774	-0.1290398666	 0.461698
C	-1.8868884635	-1.0023434635	 1.1590420746	-0.34398
C	-1.6797445431	-1.9892050421	 0.0214428659	-0.183279
C	-2.7453461149	-1.8137601412	-1.0714144756	 0.04107
C	-4.1855081584	-2.1574008394	-0.7429122348	-0.093875
O	-4.980449546	-1.7807218492	-1.8600851449	-0.422106
C	-2.346581982	-0.3023283584	-1.2021321028	-0.318836
H	 1.1705948416	 1.5860627141	 0.1544727845	 0.125643
H	-0.4742555844	 1.9792130741	-0.409260521	 0.112368
H	-0.2176217029	 1.4289329875	 1.2684774662	 0.10943
H	-1.1741207644	-1.1217066727	 1.9690020142	 0.114222
H	-2.8788910794	-0.6874330055	 1.47329015	 0.101381
H	-1.0532521122	-2.8630425098	 0.1531207785	 0.091891
H	-2.4633171087	-2.3524700194	-1.980477158	 0.086127
H	-4.2677260394	-3.2377823519	-0.5383243278	 0.084254
H	-4.5079831017	-1.6284515747	 0.1672767864	 0.081736
H	-5.9016543081	-1.9548783319	-1.6467988537	 0.285874
H	-3.1247632865	 0.4314015916	-0.9703670993	 0.094805
H	-1.9198074465	-0.0730730412	-2.1803563864	 0.110721
73.1778	92.0007	134.6711	156.3746	195.3155	250.7512	278.7076	337.0564	389.4021	413.8738	449.2385	533.7795	638.1287	697.2784	834.7407	868.598	896.9059	927.5439	954.7405	969.4844	1015.2059	1033.9828	1060.036	1077.638	1083.5773	1092.4398	1117.58	1164.4444	1181.4129	1201.452	1219.7512	1233.2816	1254.1822	1264.6023	1268.4293	1303.11	1368.0393	1381.3429	1461.8954	1473.6612	1482.5791	1488.1381	1505.0594	1508.6623	1520.5012	2962.7539	2990.4062	2994.2854	3042.981	3054.3563	3067.9142	3109.0522	3119.0807	3119.9804	3183.8641	3202.3548	3830.7658
COC12CC1C(CO)C2	CO[C@]12C[C@H]1[C@@H](CO)C2	
InChI=1S/C7H12O2/c1-9-7-2-5(4-8)6(7)3-7/h5-6,8H,2-4H2,1H3	InChI=1S/C7H12O2/c1-9-7-2-5(4-8)6(7)3-7/h5-6,8H,2-4H2,1H3/t5-,6+,7-/m1/s1
