14
gdb 131630	2.43266	1.45558	0.91758	5.8541	72.96	-0.2346	-0.008	0.2266	1180.61	0.100702	-432.826968	-432.818566	-432.817622	-432.860982	29.883	
O	-0.1287607597	 1.4733238646	 0.2056324071	-0.427833
C	 0.0330710771	 0.0837087468	-0.0359032416	-0.218336
C	-1.3243908717	-0.5334793082	-0.002623217	 0.251113
C	-1.7767625911	-1.8417149362	 0.0215853128	 0.110615
N	-3.1531788597	-1.8182349956	 0.0239732009	-0.269085
N	-3.5577766804	-0.5873435776	 0.0061372713	-0.122296
N	-2.4570148983	 0.1942563952	-0.0157212414	-0.208828
C	-1.008233917	-3.0264094771	 0.0417602828	 0.279056
C	-0.3289178886	-4.0199945344	 0.0593722746	-0.448783
H	 0.7187694402	 1.9078160576	 0.0757849747	 0.302996
H	 0.4992828813	-0.1030946317	-1.015812068	 0.129089
H	 0.6705130412	-0.3965790675	 0.7209913536	 0.132173
H	-2.5291913248	 1.200021368	-0.0082443549	 0.293864
H	 0.2573550718	-4.905117044	 0.0755923049	 0.196254
35.9383	113.7043	176.3155	203.8042	220.9054	262.8697	400.857	485.3969	562.3203	572.374	615.2916	621.6402	678.8802	711.6722	738.5479	756.8763	1022.5105	1038.3109	1051.6461	1078.3124	1171.6987	1205.7281	1232.9171	1266.7183	1289.7973	1380.8042	1454.8146	1497.7891	1513.6608	1605.5464	2239.6573	2981.4748	3010.7331	3503.1662	3656.4018	3844.0543
OCC1=C(N=NN1)C#C	OCc1c(nn[nH]1)C#C	
InChI=1S/C5H5N3O/c1-2-4-5(3-9)7-8-6-4/h1,9H,3H2,(H,6,7,8)	InChI=1S/C5H5N3O/c1-2-4-5(3-9)7-8-6-4/h1,9H,3H2,(H,6,7,8)
