14
gdb 28834	3.19094	1.45663	1.10425	6.2057	77.46	-0.2311	-0.0696	0.1614	1048.4165	0.102326	-432.903058	-432.895514	-432.89457	-432.935106	28.501	
N	 0.1051916549	 1.2866463343	 0.3515038661	-0.535186
C	-0.0371812319	-0.0228608853	 0.0107344446	 0.38258
C	-1.275157023	-0.6407632085	-0.0227082722	-0.17804
C	-1.4919702443	-2.0260905729	-0.2223073203	 0.014825
N	-0.68463672	-3.0373201043	-0.0720253019	-0.277302
C	 0.6257014649	-2.9039589812	 0.3197481353	 0.332935
O	 1.1886720635	-3.6366843709	 1.1059517034	-0.329037
C	 1.4196492461	-1.8353572128	-0.3765054072	-0.056661
N	 1.1485246482	-0.5850596983	-0.4126299507	-0.245037
H	 0.9530651745	 1.7486076173	 0.0675637516	 0.272203
H	-0.7065399432	 1.8537569582	 0.5251974714	 0.268376
H	-2.1561326595	-0.0072647632	 0.0291029029	 0.08904
H	-2.5069532619	-2.2957945113	-0.5241777471	 0.116918
H	 2.3577919719	-2.157724681	-0.8324139657	 0.144385
84.5579	162.6074	277.5899	315.7731	353.0794	377.8385	395.1285	451.7728	494.1309	563.8981	626.9023	727.651	762.0264	784.7726	812.6601	891.7436	900.971	955.3453	998.5583	1029.4485	1129.7674	1220.1733	1355.6206	1360.6623	1428.4068	1449.5999	1545.7035	1624.5206	1649.2107	1692.1867	1771.6262	3097.192	3116.3945	3162.8958	3608.2908	3737.1674
NC1=CC=NC(=O)C=N1	Nc1ccnc(=O)cn1	
InChI=1S/C5H5N3O/c6-4-1-2-7-5(9)3-8-4/h1-3H,6H2	InChI=1S/C5H5N3O/c6-4-1-2-7-5(9)3-8-4/h1-3H,6H2
