18
gdb 105822	2.49048	1.54798	1.25462	1.7926	72.09	-0.2227	0.0576	0.2803	1069.7468	0.145933	-438.963464	-438.954923	-438.953979	-438.996582	32.36	
C	-0.0191287215	 1.3511445549	 0.2275450238	-0.259836
O	-0.0793111474	-0.0137811297	-0.1669978143	-0.271077
C	-1.341961723	-0.54735927	-0.0563042117	 0.38056
C	-1.8870807155	-1.0851333083	 1.221765914	 0.004563
O	-3.0393063402	-0.6411457559	 1.8864089108	-0.418903
C	-1.7577458589	-2.0148397335	 0.0272533787	-0.170869
N	-2.6914693872	-1.8821825591	-1.1545647423	-0.143713
C	-3.7367255096	-0.851232645	-0.9158190069	-0.253363
C	-2.3558621726	-0.4206705651	-1.2158102374	-0.112115
H	 1.0146441517	 1.6748380876	 0.0909670632	 0.130129
H	-0.6763923098	 1.9795337629	-0.3891004968	 0.117345
H	-0.3046904373	 1.4741000649	 1.2808769832	 0.12072
H	-1.0490840716	-1.2851499201	 1.8960151558	 0.104451
H	-3.3899258733	-1.3850667891	 2.3897296754	 0.289577
H	-1.1736446427	-2.9260468052	 0.0762955738	 0.111165
H	-4.4407140878	-0.8159011931	-1.7437551261	 0.117959
H	-4.1551067635	-0.7087455719	 0.068943429	 0.148629
H	-2.0486731199	 0.0257520155	-2.1564891921	 0.10478
74.6837	157.6121	168.4425	195.908	273.8519	309.9758	357.6658	374.2698	431.8377	516.8235	599.7863	676.0269	717.2986	756.9493	805.8775	864.7802	903.3782	965.6033	989.5492	1016.7462	1046.7939	1049.724	1094.5116	1122.6373	1126.9886	1149.2541	1179.6969	1196.7431	1225.5417	1243.7237	1252.3139	1291.8619	1335.4884	1361.3892	1460.8298	1486.6899	1490.5436	1503.1357	1509.1578	2998.0989	3054.6687	3067.937	3126.0785	3127.55	3160.3202	3184.2709	3262.8014	3791.4952
COC12C(O)C1N1CC21	CO[C@]12[C@@H](O)[C@H]1N1C[C@@H]21	
InChI=1S/C6H9NO2/c1-9-6-3-2-7(3)4(6)5(6)8/h3-5,8H,2H2,1H3	InChI=1S/C6H9NO2/c1-9-6-3-2-7(3)4(6)5(6)8/h3-5,8H,2H2,1H3/t3-,4+,5-,6-,7?/m0/s1
