14
gdb 24540	3.97805	1.68609	1.18418	4.7642	80.27	-0.2025	-0.0805	0.122	953.3413	0.104587	-399.584584	-399.578582	-399.577638	-399.614813	24.331	
O	-0.027954133	 1.3502316445	 0.0100904997	-0.195899
C	 1.1157493154	 2.0404020739	 0.0021870448	 0.0532
C	 2.3505599815	 1.4670542532	-0.0133085314	-0.174663
C	 2.478636968	 0.0471801295	-0.0220812319	-0.217492
C	 1.3370251411	-0.6974735142	-0.0144347004	 0.218487
C	 0.9672157696	-2.0812117957	-0.0177135688	-0.144551
N	-0.3433311892	-2.2200496717	-0.0057095168	-0.233637
C	-0.9311083409	-0.9539718493	 0.0068651133	-0.188484
C	 0.0456997093	-0.0089943756	 0.0021985619	 0.270826
H	 0.9372716462	 3.1081020771	 0.0096085144	 0.147938
H	 3.2193595063	 2.1118430573	-0.0186550523	 0.121974
H	 3.4643641363	-0.4079550139	-0.0343167954	 0.127646
H	 1.6344832688	-2.9334383755	-0.028736635	 0.105284
H	-2.0034250293	-0.8371312694	 0.018106038	 0.109371
185.03	261.8389	378.6716	420.845	529.7344	556.2359	606.0165	643.4823	727.2443	733.8843	787.3411	807.5981	830.3363	868.6775	915.6241	926.6887	973.4175	1039.9667	1079.6501	1097.5269	1197.365	1220.9552	1279.9109	1295.3303	1317.5421	1374.8895	1440.9493	1471.4464	1554.2877	1598.185	1690.6793	3182.3319	3211.5733	3216.4972	3233.665	3252.8102
O1C=CC=C2C=NC=C12	o1cccc2cncc12	
InChI=1S/C7H5NO/c1-2-6-4-8-5-7(6)9-3-1/h1-5H	InChI=1S/C7H5NO/c1-2-6-4-8-5-7(6)9-3-1/h1-5H
