18
gdb 126879	3.96958	1.07699	0.90857	1.2684	86.35	-0.2048	-0.0521	0.1527	1305.2855	0.149683	-398.13965	-398.131416	-398.130471	-398.172798	30.997	
C	-0.236700934	 1.4054079583	 0.131474544	-0.370775
C	 0.248368136	-0.0440818679	-0.0331261613	-0.155518
N	 0.8820970427	-0.5611330127	 1.1660791896	-0.323869
C	 0.1627468628	-1.0686641151	 2.1000131493	 0.401869
N	-1.2382685815	-1.1879292116	 2.0938945488	-0.307541
N	-2.0250757302	-1.7578920416	 3.0267450186	-0.180137
C	-1.4324865188	-2.2327523931	 4.0788911727	-0.004729
C	-0.0097248579	-2.1683911567	 4.2685816439	-0.109632
C	 0.7578731388	-1.6036715765	 3.312251642	-0.117025
H	 0.5951931471	 2.0447076582	 0.4397909542	 0.131201
H	-0.6409790577	 1.7907427733	-0.8103140963	 0.111215
H	-1.0169561253	 1.4884663102	 0.8957536807	 0.109412
H	-0.5871756739	-0.6769464023	-0.3868595244	 0.072286
H	 0.9934788673	-0.0719391472	-0.8361376579	 0.104856
H	-1.755366173	-0.8407575559	 1.303075378	 0.272643
H	-2.0818979498	-2.6842936866	 4.8201646741	 0.124301
H	 0.4258836573	-2.5763227547	 5.1741923544	 0.113451
H	 1.8357407801	-1.5260701679	 3.3844948395	 0.127992
79.3901	98.3633	170.1549	211.5654	284.198	347.276	405.8482	479.9015	526.7601	593.362	612.582	643.4852	732.1054	781.8815	818.4286	836.2347	903.245	915.1824	998.4063	1018.5353	1021.29	1051.2995	1112.7505	1123.7967	1172.1062	1185.0309	1280.2425	1296.0471	1363.7292	1391.1718	1402.728	1423.7594	1454.5496	1489.7729	1502.5755	1533.0107	1595.2114	1661.6988	1707.2042	2919.2401	3034.0576	3045.802	3101.4912	3117.2266	3186.1522	3201.5639	3220.1981	3652.8327
CCN=C1NN=CC=C1	CC[N]C1=CCC=NN1	
InChI=1S/C6H9N3/c1-2-7-6-4-3-5-8-9-6/h3-5H,2H2,1H3,(H,7,9)	InChI=1S/C6H10N3/c1-2-7-6-4-3-5-8-9-6/h4-5,9H,2-3H2,1H3
