16
gdb 124160	6.67843	0.73019	0.66178	3.142	86.42	-0.2043	0.0102	0.2145	1663.4133	0.125094	-396.928477	-396.919242	-396.918298	-396.964427	32.447	
C	 0.0340407604	 1.4500459927	 0.0314317223	-0.509322
C	 0.022485405	-0.0039884144	 0.0094074265	 0.22655
C	 0.0248705291	-1.2095890238	-0.0101732811	-0.077645
C	-0.0131654137	-2.6272490524	-0.0326801014	 0.214247
N	 1.1068907409	-3.3576917033	-0.042829277	-0.307079
N	 0.6607730834	-4.6360036972	-0.060834159	-0.247773
C	-0.6937108364	-4.7401448851	-0.0525274142	 0.390728
N	-1.3250049701	-5.9839224324	-0.1331293343	-0.617297
C	-1.1754978972	-3.4482762454	-0.0342310651	-0.394369
H	 1.0595524695	 1.8354255526	 0.0366620151	 0.15188
H	-0.4722542898	 1.8675236208	-0.8464946354	 0.147263
H	-0.4714900557	 1.8412044961	 0.9218516179	 0.146644
H	 1.3284704591	-5.3844207017	-0.1367419283	 0.269871
H	-1.0097273823	-6.640605973	 0.5718786426	 0.250817
H	-2.3304189131	-5.8944891994	-0.0725974202	 0.257021
H	-2.204526549	-3.1308110741	-0.0089751285	 0.098464
12.3529	87.1201	92.7207	165.7709	233.5326	287.4407	335.9431	380.8871	444.9602	455.057	518.1329	553.951	662.9762	712.3202	725.6902	764.6864	794.3088	949.8563	1035.1181	1052.1671	1052.7521	1057.3361	1113.6869	1165.0124	1214.8683	1322.2669	1412.1133	1422.4677	1476.0458	1477.452	1493.0686	1504.2061	1619.8404	1660.0482	2365.6165	3022.8786	3079.9765	3087.2288	3271.3418	3527.7463	3626.46	3672.5729
CC#CC1=NNC(N)=C1	CC#Cc1n[nH]c(N)c1	
InChI=1S/C6H7N3/c1-2-3-5-4-6(7)9-8-5/h4H,1H3,(H3,7,8,9)	InChI=1S/C6H7N3/c1-2-3-5-4-6(7)9-8-5/h4H,1H3,(H3,7,8,9)
