12
gdb 43567	2.16826	1.65561	1.06235	3.5186	64.9	-0.2876	-0.0259	0.2617	1061.4642	0.075916	-435.472099	-435.464119	-435.463175	-435.505287	28.18	
O	-0.0024787353	 0.0735298583	-0.5318589599	-0.288533
C	 0.0214555323	 1.1739161442	-0.1054666322	 0.477358
O	-1.0263581486	 1.9177447116	 0.3911351757	-0.232094
C	-0.1723519291	 3.0603689453	 0.695420927	-0.028316
C	-0.1476575485	 3.3730448434	 2.1173327557	 0.317915
N	-0.124641386	 3.6510090876	 3.2377425908	-0.301341
C	 1.0634507918	 2.303670997	 0.0998835119	-0.417722
C	 2.2062457608	 2.0283859679	 0.9336030357	 0.344402
C	 3.1490697273	 1.7956470001	 1.6391622403	-0.409939
H	-0.4879338726	 3.9341364894	 0.1215014186	 0.155382
H	 1.3594183495	 2.7293002721	-0.864233283	 0.161592
H	 3.9797530484	 1.5870547931	 2.2682758894	 0.221297
76.3765	100.958	139.39	206.6474	275.2028	376.7638	426.518	484.1228	522.5084	614.0414	649.9186	682.1901	704.4493	782.6534	808.5161	912.0246	939.8766	1045.7692	1104.3529	1107.3594	1162.5159	1258.8507	1311.9534	1368.0921	1970.4465	2250.4713	2370.9757	3069.7927	3101.504	3499.1656
O=C1OC(C#N)C1C#C	O=C1O[C@@H](C#N)[C@H]1C#C	
InChI=1S/C6H3NO2/c1-2-4-5(3-7)9-6(4)8/h1,4-5H	InChI=1S/C6H3NO2/c1-2-4-5(3-7)9-6(4)8/h1,4-5H/t4-,5+/m1/s1
