20
gdb 118321	2.40425	0.96646	0.72761	1.5421	77.21	-0.254	-0.0462	0.2078	1576.5607	0.168616	-440.339377	-440.32896	-440.328016	-440.375783	36.905	
C	 0.0310837004	 1.6848721535	 0.0155911558	-0.38
C	 0.118566621	 0.1571607345	 0.0540825873	-0.18491
C	 0.587499068	-0.4422006275	-1.2771010684	-0.185571
C	 0.6643815555	-1.9709028377	-1.2595927639	-0.201578
C	-0.7108968714	-2.6218959226	-1.2841334636	 0.151675
O	-0.9120114297	-3.8116034584	-1.2154401788	-0.264517
C	 1.5708683227	-2.5258641789	-2.3966367923	 0.381685
N	 1.6613871667	-3.8822178041	-2.4200887383	-0.520172
O	 2.1792014743	-1.7895934916	-3.1448879574	-0.347567
H	 1.0030727118	 2.1283699885	-0.2257545739	 0.121478
H	-0.6823419275	 2.0211469802	-0.744755775	 0.117228
H	-0.2924396632	 2.0901310075	 0.9790680839	 0.114369
H	 0.8102833611	-0.1525226649	 0.8491860244	 0.100016
H	-0.8608166295	-0.2557011857	 0.3329898396	 0.093772
H	-0.0835757146	-0.1256825324	-2.0871075242	 0.102997
H	 1.5725761379	-0.0518583342	-1.5441873269	 0.130554
H	 1.1339873967	-2.3156062112	-0.3265350035	 0.133631
H	-1.5619079909	-1.9142158995	-1.383639549	 0.101755
H	 0.9646588523	-4.4280036458	-1.9323860911	 0.274872
H	 2.1451933385	-4.2942303399	-3.2023541547	 0.260283
56.47	70.5246	85.0246	113.2835	157.6542	240.098	242.8702	312.8443	330.3396	340.6006	425.9176	482.9899	573.4782	620.0085	620.9523	723.6483	737.5096	780.9261	855.6709	908.6014	983.6385	1007.5172	1049.4958	1089.5749	1112.1308	1155.0007	1159.9699	1211.2731	1244.594	1301.762	1323.1388	1327.0075	1345.7739	1395.1409	1414.5808	1420.2007	1484.7732	1493.7796	1499.0748	1510.2706	1622.714	1802.4151	1807.7918	2902.4941	3007.4221	3011.8664	3025.7453	3032.6411	3039.8937	3097.6056	3105.1028	3106.9038	3550.1123	3693.0556
CCCC(C=O)C(N)=O	CCC[C@@H](C=O)C(=O)N	
InChI=1S/C6H11NO2/c1-2-3-5(4-8)6(7)9/h4-5H,2-3H2,1H3,(H2,7,9)	InChI=1S/C6H11NO2/c1-2-3-5(4-8)6(7)9/h4-5H,2-3H2,1H3,(H2,7,9)/t5-/m0/s1
