21
gdb 74007	2.46258	1.56111	1.16714	1.4333	86.76	-0.2192	0.021	0.2402	1151.7782	0.182223	-387.082259	-387.073398	-387.072454	-387.115322	34.639	
C	-0.0486199642	 1.4789965126	 0.0857556029	-0.493581
C	-0.013554208	-0.0079908466	-0.0636925361	 0.143246
C	-1.0222427718	-0.861349984	-0.2244588675	 0.220405
C	-2.4690327019	-1.1388416485	 0.1227295936	-0.327953
C	-1.9390613854	-2.4985739683	 0.72139788	-0.285388
C	-0.6204265772	-2.3034467856	-0.1175960602	 0.369792
O	-0.7006548728	-2.9633225501	-1.3787276431	-0.493483
C	 0.8152392782	-2.2428746061	 0.4465771634	-0.287563
C	 1.2889546248	-0.8104101611	 0.0470434228	-0.294719
H	 0.5145465143	 1.9703165018	-0.7184699929	 0.128828
H	-1.072062842	 1.8630603651	 0.0588293078	 0.122498
H	 0.4160772615	 1.7976782053	 1.0279637842	 0.120602
H	-2.9738213233	-0.4444723454	 0.79883062	 0.103281
H	-3.1038294607	-1.3134367797	-0.7507850353	 0.119304
H	-1.7681598369	-2.4305360835	 1.798434382	 0.101081
H	-2.524075098	-3.3939430966	 0.492572738	 0.090511
H	-0.6422062877	-3.9104076493	-1.2114121849	 0.272948
H	 0.8080219515	-2.3329660411	 1.5380278655	 0.095553
H	 1.4558562249	-3.0344300654	 0.0463346913	 0.087883
H	 1.8509647063	-0.8132347732	-0.8965097683	 0.110801
H	 1.9562200185	-0.3761706006	 0.8010849769	 0.095954
100.3897	147.6046	172.7694	208.5957	269.4127	297.8095	317.2903	388.4702	400.7868	495.1839	554.8073	591.2787	684.9345	702.5864	757.4696	802.2321	880.9018	917.0279	929.6347	930.6627	955.0094	969.6712	1028.2069	1058.4336	1105.3597	1117.6166	1123.7655	1160.4777	1189.6732	1198.1175	1222.5245	1226.2049	1244.8343	1269.1089	1301.6595	1326.3884	1381.5571	1411.8242	1458.8497	1469.1466	1475.24	1480.0272	1487.0028	1491.0742	1770.6165	3012.3756	3017.8963	3040.5393	3050.9317	3055.0139	3057.0856	3057.9294	3093.2715	3103.0851	3108.2391	3121.9823	3795.871
CC1=C2CCC2(O)CC1	C[C]1[C]2CC[C@]2(O)CC1	
InChI=1S/C8H12O/c1-6-2-4-8(9)5-3-7(6)8/h9H,2-5H2,1H3	InChI=1S/C8H12O/c1-6-2-4-8(9)5-3-7(6)8/h9H,2-5H2,1H3/t8-/m1/s1
