13
gdb 132842	3.16187	1.4781	1.00724	2.5198	69.79	-0.2664	-0.0876	0.1788	1061.489	0.089743	-460.771356	-460.764337	-460.763393	-460.80323	25.742	
F	-0.088932887	 0.0232332831	 0.0062027807	-0.03849
C	-0.0438038387	 1.3460785166	 0.0115722704	 0.191339
C	-1.2403621164	 2.0569781891	 0.0300987731	-0.078479
N	-1.2895372266	 3.3879047674	 0.0367122307	-0.258415
C	-0.1322799399	 4.0570906319	 0.0248322843	 0.005014
C	 1.1049469233	 3.4262331141	 0.0060559114	-0.187467
C	 1.1747832689	 2.0300883731	-0.0010342322	 0.056397
C	 2.5044483726	 1.366167636	-0.020979394	 0.096249
O	 2.7004378299	 0.1776418511	-0.0277713619	-0.246806
H	-2.1799981481	 1.5112342738	 0.0396878948	 0.134581
H	-0.2018265564	 5.1408589916	 0.030605887	 0.123632
H	 2.0218528385	 4.0080880896	-0.0031978217	 0.119776
H	 3.3481127698	 2.0930301424	-0.0294929825	 0.08267
89.1248	194.3136	201.1156	274.8794	403.4877	416.1302	453.1133	577.7211	594.0024	664.8707	763.6794	780.4205	856.792	893.2516	952.5911	987.1724	1039.7302	1085.8153	1190.8364	1225.3431	1273.1543	1292.8998	1324.3395	1432.7768	1455.6076	1517.7497	1603.0764	1632.1214	1815.6554	2876.4624	3168.3441	3171.2062	3184.9974
FC1=CN=CC=C1C=O	Fc1cnccc1C=O	
InChI=1S/C6H4FNO/c7-6-3-8-2-1-5(6)4-9/h1-4H	InChI=1S/C6H4FNO/c7-6-3-8-2-1-5(6)4-9/h1-4H
