19
gdb 55032	2.97108	1.10413	0.98845	2.7895	78.42	-0.2273	0.0147	0.2419	1280.6874	0.159005	-419.193316	-419.184213	-419.183269	-419.227655	33.955	
N	-0.6140314324	 0.4710081562	-2.1856030132	-0.537343
C	-0.6379942115	-0.891359857	-2.2768325779	 0.421125
O	 0.0738583033	-1.5045007304	-3.0541247195	-0.372821
C	-1.6255869579	-1.5522069744	-1.3534091086	-0.112658
C	-2.1064672517	-2.9210867082	-1.7227137532	-0.241987
N	-1.2538218172	-2.7419348075	-0.5674089243	-0.101751
C	 0.0950860558	-3.250244978	-0.6079986147	 0.068055
C	 0.9267262219	-3.0308554013	 0.6262495537	-0.276297
C	 0.3845115957	-4.405271042	 0.3114090754	-0.278936
H	 0.0749707283	 0.9658141207	-2.7282965425	 0.262506
H	-1.0961248705	 0.9657672021	-1.456066441	 0.26138
H	-2.2995830092	-0.8797065394	-0.8258239992	 0.082262
H	-3.1383428118	-3.1971653125	-1.5212456663	 0.113443
H	-1.6653977436	-3.3396845964	-2.6246060531	 0.138763
H	 0.6026486306	-3.2229381793	-1.5677385557	 0.121607
H	 1.9873883571	-2.8443132774	 0.5012915927	 0.111506
H	 0.4593765082	-2.4918424458	 1.4424259099	 0.113154
H	-0.4373208946	-4.7642286578	 0.9200103069	 0.116993
H	 1.0688190096	-5.1721372317	-0.0336621595	 0.110997
54.9535	81.5305	155.6066	196.0395	220.1685	273.2247	298.6373	393.7462	415.0921	497.4065	584.5842	641.7982	701.0174	755.7246	783.4278	814.4139	839.3502	894.7954	919.2055	962.9595	1008.0283	1022.9186	1055.6026	1074.0269	1083.2007	1100.799	1123.2563	1143.1841	1152.7834	1191.3065	1199.5476	1228.8981	1289.8854	1333.4508	1395.9693	1428.818	1456.7243	1489.1655	1499.6483	1617.5639	1779.4708	3099.1538	3115.6885	3136.7764	3140.5123	3154.4643	3193.1755	3220.5458	3234.6297	3603.2732	3738.836
NC(=O)C1CN1C1CC1	NC(=O)[C@H]1CN1C1CC1	
InChI=1S/C6H10N2O/c7-6(9)5-3-8(5)4-1-2-4/h4-5H,1-3H2,(H2,7,9)	InChI=1S/C6H10N2O/c7-6(9)5-3-8(5)4-1-2-4/h4-5H,1-3H2,(H2,7,9)/t5-,8?/m1/s1
