17
gdb 62321	3.90029	1.30942	1.14358	5.3448	76.46	-0.231	0.0185	0.2495	1071.6267	0.135841	-380.786433	-380.778527	-380.777583	-380.818729	30.624	
C	-0.0930069423	 1.6251019601	-0.0390701414	-0.446404
C	 0.0949152291	 0.1010677911	 0.0347168342	 0.14596
C	-1.0420652837	-0.6067588761	-0.5271864553	 0.23158
N	-1.9543353629	-1.1579108677	-0.9778189343	-0.348544
C	 1.3606844635	-0.7302368929	-0.2029441279	-0.087637
C	 2.6502239584	-0.1658934283	 0.4550799634	-0.079463
N	 2.344798266	 1.1122053377	 1.14254887	-0.339262
C	 2.0039420637	-0.181626679	 1.7821908459	-0.079447
C	 0.695992434	-0.7462736127	 1.1619039774	-0.087617
H	 0.6968979052	 2.091342512	-0.6262752802	 0.140715
H	-1.055919171	 1.8480180794	-0.506746424	 0.125131
H	-0.0748762747	 2.072627318	 0.953702239	 0.140652
H	 1.3765969869	-1.5107149125	-0.9522728607	 0.116778
H	 3.6572855188	-0.4234144321	 0.1560924113	 0.107355
H	 3.2137215146	 1.4334434886	 1.5695034499	 0.236067
H	 2.391978094	-0.454263785	 2.7542926284	 0.107353
H	 0.1230504105	-1.5409212408	 1.6214308343	 0.116783
96.6982	158.6137	165.4541	234.0158	294.4624	344.2508	461.0721	539.4783	560.4998	592.1095	698.1564	725.2854	761.3717	771.861	853.2211	889.3326	905.4368	919.2482	926.9162	986.9539	1012.6223	1012.897	1042.0513	1090.8063	1114.0001	1114.9569	1161.9842	1241.1427	1244.0655	1276.3108	1305.434	1345.1481	1385.1561	1424.0519	1484.9719	1489.6415	2344.8318	3061.3993	3140.3763	3164.5533	3193.8507	3203.4153	3204.0954	3214.9724	3470.312
CC1(C#N)C2C3NC3C12	C[C@@]1(C#N)[C@H]2[C@H]3N[C@H]3[C@@H]12	
InChI=1S/C7H8N2/c1-7(2-8)3-4(7)6-5(3)9-6/h3-6,9H,1H3	InChI=1S/C7H8N2/c1-7(2-8)3-4(7)6-5(3)9-6/h3-6,9H,1H3/t3-,4+,5-,6+,7-
