19
gdb 72443	2.36954	2.15138	1.51884	1.2568	72.67	-0.2451	0.0827	0.3279	932.329	0.161206	-423.012356	-423.005333	-423.004388	-423.043251	29.334	
C	-0.047563524	 1.4944745202	 0.0136132613	-0.49823
C	 0.0080787374	-0.0214603769	 0.0314333316	 0.236315
C	 0.7996295286	-0.6826107484	-1.1294563463	-0.093965
O	 1.0629935894	-2.0266020815	-0.6837033552	-0.280992
C	 0.4868889185	-2.1250204258	 0.6371208493	 0.049323
C	 0.7134779718	-0.7256926444	 1.2169551047	-0.266463
C	-1.029064511	-2.1505043632	 0.4004648414	 0.032215
O	-1.8019495068	-1.2889808877	 1.2506460147	-0.265021
C	-1.3351509364	-0.7737391924	-0.0017488902	 0.024508
H	 0.9578382494	 1.927871221	 0.0464093437	 0.118202
H	-0.5398857724	 1.8641597371	-0.8932154987	 0.116734
H	-0.6075471944	 1.8756207792	 0.8733588168	 0.130207
H	 0.2324164518	-0.7081920795	-2.0686998699	 0.097586
H	 1.7502923779	-0.1647800796	-1.3125172333	 0.097848
H	 0.9342639343	-2.9802340202	 1.1421467407	 0.077
H	 1.7759837824	-0.4807541525	 1.2789188793	 0.10023
H	 0.222846121	-0.5552246349	 2.173305418	 0.123189
H	-1.5317714572	-3.0280923979	 0.0080462477	 0.104488
H	-2.1021705402	-0.5108412228	-0.7255933956	 0.096826
219.304	227.5403	266.635	313.9813	360.1773	406.0462	476.6342	554.7522	597.2262	611.5038	787.2061	805.4233	865.3021	877.3204	901.3697	906.2916	912.9669	951.7703	964.7298	986.6481	1011.165	1014.3643	1043.9536	1100.1711	1116.1426	1176.249	1198.2154	1208.6775	1246.8147	1265.1921	1271.6334	1293.66	1301.4716	1337.9884	1373.0138	1416.5506	1419.1771	1479.9746	1494.4349	1498.5575	1521.9929	3007.921	3028.1944	3046.2882	3086.2889	3091.0729	3103.3813	3128.8786	3148.6783	3160.504	3177.9454
CC12COC(C1)C1OC21	C[C@@]12CO[C@@H](C1)[C@H]1O[C@@H]21	
InChI=1S/C7H10O2/c1-7-2-4(8-3-7)5-6(7)9-5/h4-6H,2-3H2,1H3	InChI=1S/C7H10O2/c1-7-2-4(8-3-7)5-6(7)9-5/h4-6H,2-3H2,1H3/t4-,5+,6+,7-/m0/s1
