19
gdb 17581	2.65313	2.44548	1.82365	1.682	75.17	-0.2248	0.0887	0.3135	846.1435	0.16519	-327.873805	-327.866099	-327.865155	-327.90511	30.316	
C	-0.0095338827	 1.5757918547	 0.0101093513	-0.494447
C	-0.0350662701	 0.0744337208	 0.0832452977	 0.275823
C	 1.124822506	-0.8102735743	-0.3414919223	-0.375758
C	 0.5923384037	-0.9327443545	 1.0559379969	 0.322751
C	 1.4005703324	-0.7821931304	 2.3084238019	-0.494907
N	-0.5953704472	-1.8283632639	 1.0206497418	-0.155133
C	-1.7224428417	-1.0151738791	 1.5205007587	-0.247211
C	-1.2697573576	-0.7903955964	 0.1289489174	-0.090838
H	 0.9798983553	 1.9662904486	 0.2703998415	 0.11762
H	-0.2436149738	 1.9309275142	-1.0009728653	 0.121316
H	-0.7369000204	 2.0231608398	 0.6964917555	 0.116785
H	 0.9737941778	-1.6226594649	-1.0478276494	 0.110973
H	 2.0807442121	-0.3015462313	-0.4339282838	 0.105017
H	 2.1488219589	 0.0087695119	 2.1985992356	 0.120483
H	 0.7689458376	-0.5322232487	 3.167823057	 0.118447
H	 1.928727483	-1.7139449813	 2.5409349158	 0.132046
H	-2.6289429683	-1.594809805	 1.6689272418	 0.116465
H	-1.5344880924	-0.2582202091	 2.2786549377	 0.109949
H	-1.8617535128	-1.1014263713	-0.7277317998	 0.090618
171.8311	190.0519	198.3772	226.3437	256.572	370.2687	409.7349	492.7556	562.5251	582.7461	676.8631	756.7447	774.4904	818.4133	839.4105	946.8852	962.7078	980.1365	995.3418	1027.7241	1053.8297	1068.1335	1097.7599	1112.542	1114.0175	1154.0924	1189.4427	1217.5619	1246.6025	1290.2127	1360.1176	1395.1706	1412.5643	1428.8079	1480.3445	1486.4154	1493.2242	1494.0595	1498.0236	1508.0134	3020.6608	3028.2566	3079.1573	3088.8673	3095.4118	3104.0124	3105.8696	3108.2645	3146.6531	3194.606	3197.3603
CC12CC1(C)N1CC21	C[C@@]12C[C@]1(C)N1C[C@@H]21	
InChI=1S/C7H11N/c1-6-4-7(6,2)8-3-5(6)8/h5H,3-4H2,1-2H3	InChI=1S/C7H11N/c1-6-4-7(6,2)8-3-5(6)8/h5H,3-4H2,1-2H3/t5-,6-,7-,8?/m0/s1
