18
gdb 124465	3.21998	1.25322	1.12134	6.1519	72.51	-0.2701	-0.0037	0.2664	1143.4225	0.148388	-431.43725	-431.428455	-431.427511	-431.470657	32.898	
C	-0.141855557	 1.5664759159	-0.073349491	-0.401982
C	-0.0187358966	 0.0424222362	 0.1173706601	 0.118789
C	 0.7874344638	-0.2752007486	 1.3890227579	-0.411983
N	-1.3817944933	-0.5315466184	 0.1219231592	-0.550659
H	-1.9824599451	 0.0351155545	 0.7132855422	 0.235717
H	-0.9441489861	-1.2226915337	-2.248404122	 0.290663
H	-1.3626020233	-1.4570994631	 0.5436485783	 0.234472
C	 0.6856894807	-0.5333720048	-1.0859396434	 0.471624
N	 1.9778958391	-0.5629666373	-1.3411387095	-0.303121
N	 2.1065451656	-1.1440323271	-2.5660595572	-0.107703
N	 0.9541780302	-1.4652498172	-3.0530532938	-0.096866
N	 0.047766031	-1.0852782085	-2.1319392267	-0.256726
H	 0.8456694161	 2.0159036709	-0.1958427581	 0.149736
H	-0.7442329989	 1.7975067558	-0.9561196102	 0.12946
H	-0.6208140164	 2.0169572869	 0.8031136698	 0.115883
H	 0.3011802515	 0.1758033368	 2.2598312988	 0.109343
H	 0.8514883102	-1.3565603194	 1.5474708795	 0.120098
H	 1.8074759686	 0.1088391411	 1.3124331462	 0.153255
60.8449	148.6841	196.2896	233.0442	268.2576	288.0887	323.6737	351.7866	361.8201	458.7413	498.522	608.6691	667.073	755.3351	783.1087	835.4364	925.8654	939.2314	977.0291	1013.7134	1031.0299	1052.1828	1073.1191	1090.6804	1099.5895	1204.781	1232.0071	1262.0357	1314.257	1371.8158	1397.1592	1416.6969	1438.2545	1477.3566	1484.4406	1497.6307	1502.8843	1570.1511	1657.1929	3034.7917	3039.5338	3105.9099	3111.1382	3128.9936	3139.2534	3483.3712	3564.5653	3658.8402
CC(C)([NH3+])C1=N[N-]N=N1	CC(C)(N)c1nnn[nH]1	
InChI=1S/C4H8N5/c1-4(2,5)3-6-8-9-7-3/h5H2,1-2H3/q-1/p+1	InChI=1S/C4H9N5/c1-4(2,5)3-6-8-9-7-3/h5H2,1-2H3,(H,6,7,8,9)
