16
gdb 87345	1.79826	1.61903	1.05914	2.1097	73.05	-0.2406	0.0087	0.2492	1160.6872	0.121417	-437.846946	-437.837522	-437.836578	-437.881526	34.161	
O	-0.0891047105	 1.3033024635	 0.1014569235	-0.417966
C	-0.0616433321	-0.0835112365	 0.1313907997	 0.095964
C	-0.7288205687	-0.8849226719	 1.1951018588	-0.345044
C	-1.3303035394	-0.888005696	-0.21287023	 0.07315
N	-2.5066176927	-0.0779685841	-0.3943420508	-0.353435
C	-3.684027087	-0.2652187118	 0.2879576292	 0.145831
O	-3.838730772	-0.9930887296	 1.238617265	-0.299584
C	-1.2218382092	-2.0586723574	-1.0371164927	 0.322479
C	-1.1095710357	-3.0237732474	-1.7466625191	-0.458561
H	-0.9360338148	 1.5921638141	 0.4606606219	 0.285957
H	 0.8634179784	-0.4530087386	-0.2949543015	 0.130107
H	-0.2674354842	-1.8069796531	 1.5273437473	 0.140552
H	-1.3127872695	-0.3720423875	 1.950149908	 0.143946
H	-2.5616410851	 0.4435057033	-1.2584283454	 0.255757
H	-4.4882327808	 0.3771283708	-0.1253780983	 0.081628
H	-1.0226352565	-3.8838167479	-2.3633615355	 0.199218
46.8835	130.6773	149.4789	164.1403	199.4065	213.8664	297.5969	360.3268	445.7781	479.2048	548.1405	564.8875	576.9283	596.4875	662.7477	672.7063	786.2569	851.9727	887.3805	965.9604	1005.7927	1033.9302	1054.3218	1104.4375	1129.4	1180.6477	1237.9415	1295.7281	1338.9674	1432.9456	1439.4406	1477.0949	1500.4063	1821.4188	2231.01	2927.8323	3152.1841	3193.0429	3244.4605	3502.2233	3591.131	3800.7136
OC1CC1(NC=O)C#C	O[C@H]1C[C@]1(NC=O)C#C	
InChI=1S/C6H7NO2/c1-2-6(7-4-8)3-5(6)9/h1,4-5,9H,3H2,(H,7,8)	InChI=1S/C6H7NO2/c1-2-6(7-4-8)3-5(6)9/h1,4-5,9H,3H2,(H,7,8)/t5-,6+/m0/s1
