15
gdb 132947	2.36888	1.78865	1.02019	5.0585	76.1	-0.1757	-0.005	0.1708	1071.5928	0.114493	-458.123671	-458.115909	-458.114965	-458.155533	30.564	
N	 0.0532308925	 1.3687074465	-0.0222279098	-0.587387
C	-0.0121701539	-0.0130349664	 0.0203476327	 0.248625
C	-1.1705115463	-0.7288053001	 0.0446022826	-0.091655
N	-1.1606734267	-2.1061939017	 0.1410556483	-0.33417
C	 0.0105867509	-2.7975202766	 0.2239271928	-0.10227
C	 1.1868174691	-2.1250005727	 0.1985782827	 0.155499
F	 2.3372849867	-2.8148760119	 0.2635990801	-0.090323
C	 1.2891353835	-0.6913661945	 0.0832600947	 0.16535
N	 2.3710782999	 0.017423169	 0.0221095137	-0.60028
H	 0.9923786777	 1.6735816038	-0.2564393852	 0.26797
H	-0.6785505891	 1.8424974303	-0.5285955398	 0.239722
H	-2.1476855064	-0.266493267	-0.002334792	 0.113407
H	-2.0321568542	-2.6040377392	 0.1702917787	 0.266957
H	-0.0404801912	-3.8746769184	 0.3044516004	 0.137305
H	 3.1923473972	-0.5845582412	 0.06783816	 0.211251
119.3328	257.9091	299.9834	307.1878	328.7081	338.0051	368.8017	469.7973	502.7076	519.1703	534.1101	572.9558	652.0384	706.468	767.6524	802.5285	831.7591	845.9982	880.3123	986.5716	1066.5391	1144.1251	1227.8295	1269.2606	1305.7665	1343.6504	1401.7401	1455.6265	1558.1446	1604.8443	1630.3125	1670.9592	1694.9126	3215.0116	3228.9226	3487.7279	3514.7149	3656.9091	3687.679
NC1=CNC=C(F)C1=N	NC1=CNCC(=C1[NH])F	
InChI=1S/C5H6FN3/c6-3-1-9-2-4(7)5(3)8/h1-2H,7H2,(H2,8,9)	InChI=1S/C5H7FN3/c6-3-1-9-2-4(7)5(3)8/h2,8-9H,1,7H2
