18
gdb 106433	2.67576	1.35271	1.07201	4.8626	76.93	-0.2598	0.018	0.2777	1170.7497	0.146732	-401.90259	-401.894079	-401.893135	-401.936009	31.824	
C	 0.0674197022	 1.5173163638	 0.0590203892	-0.384847
C	 0.0213706608	-0.0104200331	-0.0562495658	-0.319181
C	 0.6304306875	-0.5126288856	-1.3293506862	 0.426341
C	 0.3293877758	-0.1792042362	-2.818701828	-0.275131
C	 1.6212402656	-1.0187595089	-2.7448154965	 0.049567
O	 2.0639520054	-0.205789411	-1.6001571079	-0.331401
C	 0.9150733747	-1.9961615699	-1.7613522288	-0.219
C	 1.7468682482	-2.7979196923	-0.8829704362	 0.281829
N	 2.3769628542	-3.4644872122	-0.1796583646	-0.325617
H	 1.0963150481	 1.8779300533	-0.0191788333	 0.145641
H	-0.5192113352	 1.9944571263	-0.7324259241	 0.119879
H	-0.3390355164	 1.8418536222	 1.0205044055	 0.121764
H	 0.558818137	-0.472821795	 0.7799216331	 0.134894
H	-1.0132152138	-0.3720582748	-0.0073988931	 0.112603
H	-0.5580798271	-0.617637765	-3.2819986549	 0.103608
H	 0.4864981143	 0.86363068	-3.0912536847	 0.122797
H	 2.3548202643	-1.2551644331	-3.5136121413	 0.117034
H	 0.0691893346	-2.5693075285	-2.1487867424	 0.11922
71.8215	113.0561	172.3247	188.2321	217.4197	324.8609	370.1004	429.5653	492.889	557.5692	626.3547	682.7508	732.933	768.6058	805.8752	895.9212	903.7378	939.0363	967.5773	989.9714	1040.015	1060.1734	1073.8666	1104.894	1128.9022	1145.5833	1195.1711	1215.2358	1235.9245	1284.1914	1321.5018	1357.829	1394.7357	1413.2196	1471.0941	1495.0624	1497.6312	1507.775	2359.9573	3033.7222	3045.2551	3068.3413	3072.4062	3088.7845	3114.5413	3128.2125	3141.1293	3162.1338
CCC12CC(O1)C2C#N	CC[C@@]12C[C@@H](O1)[C@H]2C#N	
InChI=1S/C7H9NO/c1-2-7-3-6(9-7)5(7)4-8/h5-6H,2-3H2,1H3	InChI=1S/C7H9NO/c1-2-7-3-6(9-7)5(7)4-8/h5-6H,2-3H2,1H3/t5-,6-,7+/m1/s1
