19
gdb 91507	2.50077	1.44381	1.10963	3.7057	76.91	-0.2361	-0.0106	0.2255	1149.2263	0.15766	-423.020076	-423.010992	-423.010048	-423.054088	33.914	
C	 0.0357194392	 1.3796357192	-0.460232646	-0.500377
C	-0.0436031404	 0.0291810336	 0.2299287826	 0.274206
O	 0.8727510328	-0.4049867868	 0.8990698143	-0.326268
C	-1.2983322308	-0.7400731972	 0.0451312504	 0.280408
C	-1.7503415287	-1.7101404292	 1.1237098218	-0.311803
C	-1.4270959101	-2.2716176875	-0.208627971	-0.087799
C	-2.5834313607	-2.0272221889	-1.1813211987	-0.272477
C	-2.426218867	-0.4813836358	-0.9461556043	 0.009959
O	-3.5034839289	 0.2394908046	-0.3876685798	-0.43456
H	 0.9180668792	 1.9160831468	-0.1098329562	 0.139704
H	 0.1087998773	 1.2451202961	-1.5461065312	 0.137561
H	-0.8700182578	 1.964866691	-0.2697375566	 0.147656
H	-1.0003575481	-1.8535387141	 1.8929880243	 0.14284
H	-2.7801993227	-1.6557071207	 1.463428249	 0.125348
H	-0.592466181	-2.9426666936	-0.3654778453	 0.109984
H	-2.375378899	-2.3210535438	-2.2121682951	 0.104927
H	-3.546222296	-2.4460804598	-0.872288417	 0.10356
H	-2.0562306597	 0.0094797923	-1.8561444387	 0.071436
H	-4.1838270074	 0.3410481939	-1.0613701623	 0.285694
58.7889	109.3988	158.79	183.1468	203.8593	294.7097	328.2644	371.4372	413.3186	475.018	568.3052	602.4933	635.9806	700.0055	811.0936	836.9987	857.5836	929.9358	951.7925	970.3346	1011.866	1033.5273	1051.6205	1073.0421	1086.3161	1123.0822	1130.9702	1193.3652	1209.0678	1236.9337	1248.1755	1301.5021	1324.7644	1371.9315	1388.9346	1434.5451	1466.1329	1471.2899	1475.7515	1493.1388	1779.6725	3008.7491	3035.0455	3052.146	3097.0237	3114.8716	3129.9646	3153.3482	3202.2727	3231.6635	3812.5898
CC(=O)C12CC1CC2O	CC(=O)[C@]12C[C@H]1C[C@H]2O	
InChI=1S/C7H10O2/c1-4(8)7-3-5(7)2-6(7)9/h5-6,9H,2-3H2,1H3	InChI=1S/C7H10O2/c1-4(8)7-3-5(7)2-6(7)9/h5-6,9H,2-3H2,1H3/t5-,6-,7-/m1/s1
