23
gdb 103356	2.91229	1.40934	1.2533	0.2267	89.29	-0.2204	0.0159	0.2363	1145.6253	0.20634	-351.122063	-351.113325	-351.112381	-351.155305	35.246	
C	 0.8822162533	-0.5854252189	 1.1939933656	-0.384092
C	-0.0007500971	-0.0141503383	 0.0754183934	-0.246581
C	-1.4429064699	-0.5716702827	 0.0384518054	 0.372561
C	-2.2420876338	 0.0903405022	 1.163508949	-0.468569
C	-2.0819045735	-0.6188012266	-1.4218868206	-0.115554
C	-1.2081808254	-1.8988544731	-1.666812562	-0.221578
C	-1.5790943349	-2.1496606983	-0.1664618171	-0.106379
C	-3.0984417517	-2.2996980221	-0.3179005725	-0.090556
C	-3.4271815569	-1.299241359	-1.1414248318	-0.090619
H	 1.8655865343	-0.1046487553	 1.1909572663	 0.110933
H	 0.4454271588	-0.4304392809	 2.1851387388	 0.118155
H	 1.040928714	-1.6611116339	 1.0663659087	 0.117909
H	-0.0716859943	 1.0742764923	 0.198952239	 0.091544
H	 0.5102959962	-0.1642744893	-0.878330399	 0.09557
H	-2.2807649833	 1.1754053792	 1.0110902695	 0.10779
H	-3.2656817016	-0.2786769092	 1.2230872947	 0.117135
H	-1.7671375713	-0.0813703164	 2.1353235618	 0.110754
H	-2.0574685054	 0.2458978722	-2.0870934501	 0.052158
H	-1.6040343997	-2.618505157	-2.3856422244	 0.090568
H	-0.1502650998	-1.7176146237	-1.8609017225	 0.0942
H	-1.0453593215	-2.8665440529	 0.4582340607	 0.054088
H	-3.721649383	-3.0430832211	 0.158914692	 0.095056
H	-4.3929803132	-0.999271497	-1.5229111251	 0.095507
47.5743	154.3494	191.1507	211.6041	288.7919	326.5262	390.3209	413.4433	513.8687	524.9653	566.6157	613.8042	731.1612	734.0047	780.6189	825.5029	829.5849	882.7948	893.7695	904.2227	915.7528	936.7422	979.5093	1000.2345	1012.5915	1047.9418	1054.7741	1091.6957	1108.1949	1127.9971	1155.551	1173.5938	1213.2839	1217.058	1242.4972	1243.4149	1271.3117	1315.9066	1330.9832	1361.3007	1403.1047	1412.6958	1479.5357	1491.6281	1497.0211	1503.1714	1509.8874	1528.5054	1620.5413	3024.4698	3033.7637	3037.2221	3070.8123	3084.9594	3088.7101	3100.4505	3102.9182	3109.0481	3112.4365	3137.446	3141.6324	3215.3108	3242.5945
CCC1(C)C2CC1C=C2	CC[C@@]1(C)[C@H]2C[C@@H]1C=C2	
InChI=1S/C9H14/c1-3-9(2)7-4-5-8(9)6-7/h4-5,7-8H,3,6H2,1-2H3	InChI=1S/C9H14/c1-3-9(2)7-4-5-8(9)6-7/h4-5,7-8H,3,6H2,1-2H3/t7-,8+,9+
