18
gdb 33801	3.49489	1.394	1.19095	4.0542	75.66	-0.2212	0.0199	0.2411	1055.6297	0.151244	-398.095488	-398.088125	-398.08718	-398.127096	29.375	
N	 0.0119441644	-1.1725715904	-0.1082161141	-0.335513
C	-0.0339208812	-0.0190760841	-0.0522704981	 0.224032
C	-0.0310038362	 1.4388450225	 0.0360682244	 0.152452
C	-0.1594361956	 2.1371344171	 1.4197196535	-0.207603
N	 0.7430449581	 3.2265210463	 0.9061528472	-0.118437
C	 1.3309022797	 2.1962136938	-0.0189294241	-0.203449
C	-0.0616789689	 4.1634865836	 0.0933342126	-0.171255
C	-1.2472878488	 3.457543019	-0.6266185484	-0.18661
N	-1.0117397561	 2.0212298504	-0.8833172116	-0.324503
H	-1.1549585326	 2.4381879258	 1.7494179633	 0.126693
H	 0.3399739197	 1.5764586941	 2.2122706604	 0.130924
H	 2.1527100941	 1.6686045487	 0.4738842194	 0.123085
H	 1.6511085884	 2.5635043682	-0.9979709764	 0.105467
H	-0.4483321	 4.9541666993	 0.7456450709	 0.110761
H	 0.6196774327	 4.6389080634	-0.6200868297	 0.110636
H	-2.1481794775	 3.5510132721	-0.0101331312	 0.121501
H	-1.4786383998	 3.9475364802	-1.5757678737	 0.11323
H	-0.6955870505	 1.8725993801	-1.8355180643	 0.228589
143.5004	152.0816	202.7951	325.2862	412.7632	439.0736	446.6365	543.9498	561.3409	564.6626	646.903	766.546	796.4944	812.0745	886.6122	915.8053	927.3702	946.6936	970.4556	1015.4558	1030.8491	1067.9302	1106.0779	1159.094	1189.4909	1221.7132	1251.793	1270.0847	1281.5885	1287.9408	1311.4942	1362.8423	1383.4085	1471.2794	1485.4686	1497.896	1503.7643	1525.6372	2355.0923	3033.2383	3037.9349	3046.9119	3077.5693	3078.9367	3097.1626	3110.4225	3139.538	3526.9389
N#CC12CN(C1)CCN2	N#C[C@@]12CN(C1)CCN2	
InChI=1S/C6H9N3/c7-3-6-4-9(5-6)2-1-8-6/h8H,1-2,4-5H2	InChI=1S/C6H9N3/c7-3-6-4-9(5-6)2-1-8-6/h8H,1-2,4-5H2
