18
gdb 19754	3.63519	2.19485	2.13354	1.4676	68.93	-0.2275	0.093	0.3205	759.8585	0.156832	-347.80555	-347.799402	-347.798458	-347.835425	25.699	
C	-0.1467026833	 1.5671335105	-0.0169406065	-0.419253
C	 0.0350802229	 0.0510875489	-0.009484675	 0.033312
C	 0.9469725394	-0.5276801775	-1.0905287336	-0.11552
C	 2.3627300033	-0.6037111261	-0.501647197	-0.111252
C	 2.2841382298	-0.078992786	 0.9271303975	-0.230546
C	 0.8368073381	-0.5580651909	 1.172387279	 0.03989
O	 0.9052895791	-1.9497530627	 0.8106687979	-0.261427
C	 1.4566385042	-1.8130809753	-0.4886477141	 0.083618
H	 0.8084620706	 2.0982728308	-0.0563281505	 0.119839
H	-0.7273974448	 1.8789468896	-0.8912127297	 0.117645
H	-0.6876556934	 1.9056239072	 0.8738932014	 0.113529
H	-0.9465547322	-0.4363463938	-0.0421794331	 0.077677
H	 0.7627886384	-0.4069964947	-2.1498483733	 0.083454
H	 3.2524122197	-0.5464158619	-1.1136159765	 0.085912
H	 2.9885312575	-0.5779566715	 1.5985924966	 0.105318
H	 2.4060549876	 1.002442688	 1.0166626485	 0.101685
H	 0.4216524576	-0.4568430914	 2.1733376118	 0.076035
H	 1.6248571256	-2.7443960331	-1.0099899332	 0.100084
185.0848	238.5968	283.9316	449.6465	510.4598	577.8113	659.9427	710.3079	764.9161	804.1047	810.9686	868.2094	898.8622	920.468	950.9063	968.549	978.4301	992.5231	1031.2018	1040.3381	1056.0315	1079.8025	1092.9973	1107.8237	1133.1657	1158.5735	1215.8198	1243.3349	1268.1393	1282.8218	1310.452	1336.4944	1378.0394	1382.4566	1414.0506	1485.198	1496.0931	1509.6785	3033.1412	3039.3342	3067.0142	3094.1331	3109.5138	3121.0793	3144.4569	3200.6099	3209.6514	3226.0421
CC1C2C3CC1OC23	C[C@H]1[C@H]2[C@H]3C[C@@H]1O[C@@H]23	
InChI=1S/C7H10O/c1-3-5-2-4-6(3)7(4)8-5/h3-7H,2H2,1H3	InChI=1S/C7H10O/c1-3-5-2-4-6(3)7(4)8-5/h3-7H,2H2,1H3/t3-,4-,5+,6+,7-/m1/s1
