23
gdb 63983	2.84515	1.43266	1.26595	1.5509	84.51	-0.2383	0.0802	0.3185	1141.0745	0.206647	-388.308539	-388.299852	-388.298908	-388.341182	34.918	
C	 0.2328552107	 1.4932363994	-0.1642442585	-0.441015
C	 0.063982183	-0.005939153	 0.0294138199	 0.42657
C	-1.4055953466	-0.4115540242	-0.0752175104	-0.423175
O	 0.8561961396	-0.7609722129	-0.938966362	-0.350829
C	 1.3990503528	-1.6161938357	 0.0944465003	 0.137587
C	 2.9178034451	-1.5338636225	 0.1967611081	-0.220522
C	 3.1782806958	-0.1705964138	 0.8657346605	-0.21123
C	 2.0034773028	-0.0075495532	 1.8577417064	-0.234692
C	 0.8002441036	-0.7136366635	 1.2061650102	-0.109731
H	 1.2789490665	 1.7992632462	-0.1037690644	 0.120659
H	-0.1454651805	 1.7819519812	-1.15054242	 0.122184
H	-0.3349078608	 2.0482028814	 0.5903500412	 0.113402
H	-1.8053558242	-0.1397107867	-1.0573012613	 0.11918
H	-1.5228055317	-1.4918394324	 0.051710641	 0.114855
H	-2.0051051444	 0.0905665747	 0.6923540559	 0.109538
H	 1.0195060093	-2.6404878185	 0.0025903518	 0.062963
H	 3.2737939407	-2.3521596575	 0.83594092	 0.092905
H	 3.3980573192	-1.6408008901	-0.7801847819	 0.106615
H	 4.1528971123	-0.1164830858	 1.3583854139	 0.092625
H	 3.1540416328	 0.6178184812	 0.1077300236	 0.113372
H	 2.241981003	-0.5194084041	 2.7974697269	 0.096523
H	 1.8024655686	 1.0376209255	 2.1114447638	 0.098615
H	 0.1333180323	-1.1722702158	 1.9384044153	 0.063601
116.0536	182.2045	186.2623	236.5841	268.1068	296.0267	338.1392	380.6625	401.566	485.1758	580.3789	603.2429	705.8191	812.7485	831.0114	846.1381	883.6508	896.7679	906.5068	930.7941	940.2024	965.1005	980.0169	997.3324	1047.4943	1062.563	1087.8	1126.2365	1183.1681	1185.9587	1200.2689	1219.3794	1255.9924	1281.3325	1297.0331	1323.6077	1327.631	1336.5462	1364.4479	1373.7695	1399.7753	1413.5835	1470.3526	1471.271	1479.3155	1485.826	1495.6104	1500.3329	1507.451	3023.2918	3030.1572	3035.4294	3038.9116	3040.1219	3058.1574	3082.6348	3089.0764	3092.9738	3098.9197	3105.1077	3105.6437	3111.1382	3128.6809
CC1(C)OC2CCCC12	CC1(C)O[C@H]2CCC[C@@H]12	
InChI=1S/C8H14O/c1-8(2)6-4-3-5-7(6)9-8/h6-7H,3-5H2,1-2H3	InChI=1S/C8H14O/c1-8(2)6-4-3-5-7(6)9-8/h6-7H,3-5H2,1-2H3/t6-,7+/m1/s1
