15
gdb 98011	4.65215	0.60725	0.59175	15.7708	91.8	-0.2015	-0.0767	0.1249	1859.6946	0.10994	-453.917607	-453.906925	-453.90598	-453.955558	34.73	
C	 0.0277885986	 1.4344262017	-0.1350885128	-0.359625
N	-0.0734936384	-0.0130978035	-0.1411710095	-0.295489
C	-1.2001036219	-0.7143353072	 0.0643762447	 0.252203
N	-2.3486638515	-0.0542827363	 0.2981077919	-0.526443
H	-3.1863602592	-0.5888906383	 0.4519532008	 0.305248
H	-2.4039918324	 0.9486539851	 0.3294226433	 0.283251
C	-1.1790019921	-2.0929674367	 0.0356418514	 0.056862
C	-1.1485361869	-3.3169614195	 0.0079507462	 0.050615
C	-1.109443476	-4.8321039154	-0.0278592595	 0.290009
O	-1.315015924	-5.2729201754	-1.1613499293	-0.416676
O	-0.8789733771	-5.3167472521	 1.0825005059	-0.416783
H	 1.0635161827	 1.7098180975	-0.3323863902	 0.169243
H	-0.5970894722	 1.8837430603	-0.9163258124	 0.156353
H	-0.2546035723	 1.8526345826	 0.8386070041	 0.15628
H	 0.7526699728	-0.5633315529	-0.3105132146	 0.294951
37.8052	49.4159	57.8267	94.842	120.4852	180.738	223.5632	236.3132	288.9709	319.4505	449.7257	552.8102	568.4939	583.4264	599.5817	708.1456	746.1952	776.3897	899.6867	1040.6025	1146.558	1148.5348	1185.1298	1301.9791	1388.4429	1446.0098	1487.3206	1512.431	1541.9824	1611.1034	1661.7826	1781.565	2232.7252	3020.6239	3076.5416	3155.0316	3621.1854	3656.838	3747.957
CNC(=[NH2+])C#CC([O-])=O	CNC(=[NH2])C#CC(=O)[O]	
InChI=1S/C5H6N2O2/c1-7-4(6)2-3-5(8)9/h1H3,(H2,6,7)(H,8,9)	InChI=1S/C5H6N2O2/c1-7-4(6)2-3-5(8)9/h7H,6H2,1H3
