16
gdb 11264	5.7806	1.26201	1.06435	4.3342	74.47	-0.2223	-0.0447	0.1776	1076.5843	0.131277	-342.798452	-342.790836	-342.789891	-342.830425	27.657	
C	 0.02038901	 1.4295726189	 0.0302709637	-0.321012
N	-0.0747402556	-0.0099125515	 0.1323462064	-0.070616
C	-1.4293973251	-0.5555102674	 0.2178849666	-0.193555
C	-1.2298598296	-1.8552647091	 0.9388365321	-0.16996
C	-0.0045083293	-1.9035742141	 1.4730068096	 0.208363
C	 0.7525227168	-0.6271570341	 1.1676789947	-0.254703
C	 0.5377225869	-2.953489899	 2.2584159258	 0.204681
N	 1.0072971713	-3.793417936	 2.9034051724	-0.333142
H	 1.0626636455	 1.7236685373	-0.1285441513	 0.126927
H	-0.5578516276	 1.7793963359	-0.8308270982	 0.125177
H	-0.3504098193	 1.9594667268	 0.9287293448	 0.096147
H	-2.1271312071	 0.0885502265	 0.7927329002	 0.100398
H	-1.8737608162	-0.6810911072	-0.7794377553	 0.121076
H	-1.9911259131	-2.6188227523	 1.0279667405	 0.129513
H	 1.7734018111	-0.8114872851	 0.8094255677	 0.127043
H	 0.8393156113	-0.0131882596	 2.0856840203	 0.103663
95.5336	150.0501	182.4508	230.0661	304.3079	339.5501	392.2456	487.824	566.7213	572.3145	657.1334	848.3232	877.0573	896.6386	977.4686	1028.4005	1038.7664	1069.6248	1139.5191	1172.0071	1197.3138	1203.849	1214.9343	1276.0836	1285.9336	1369.4573	1385.0123	1462.0554	1489.1481	1502.9539	1505.7095	1524.4154	1684.9264	2341.0356	2883.9197	2908.3923	2925.4771	3011.4071	3029.5691	3061.259	3104.2506	3230.9203
CN1CC=C(C1)C#N	CN1CC=C(C1)C#N	
InChI=1S/C6H8N2/c1-8-3-2-6(4-7)5-8/h2H,3,5H2,1H3	InChI=1S/C6H8N2/c1-8-3-2-6(4-7)5-8/h2H,3,5H2,1H3
