23
gdb 59212	3.10949	1.16174	1.04944	1.7403	84.92	-0.232	0.0823	0.3143	1282.3888	0.206644	-388.272425	-388.263686	-388.262742	-388.30582	34.537	
C	 0.4684447589	 1.383642718	-0.3350364187	-0.385761
C	 0.0350072331	-0.0736215407	-0.1114506354	-0.018353
C	 0.4221790044	-0.9438227215	-1.3177298313	-0.388013
C	 0.6558682264	-0.6277525431	 1.1736948422	 0.065934
C	 0.103470603	-0.1280723295	 2.5598959998	-0.093643
C	-1.0218474863	-1.2016714613	 2.4099215938	-0.246296
C	 0.1514076482	-1.9768389355	 1.7671655691	 0.08284
O	 1.046043777	-2.1898087432	 2.8735916675	-0.283734
C	 1.0549889416	-0.8809631903	 3.4963193508	-0.085483
H	 1.5576494815	 1.4552051435	-0.4390995268	 0.112875
H	 0.0209263119	 1.7896558132	-1.2482349839	 0.110116
H	 0.1704202582	 2.0274288493	 0.4982464973	 0.112382
H	-1.0586998389	-0.084835913	-0.0295116512	 0.07205
H	 1.510643092	-0.9706717155	-1.4467466029	 0.114652
H	 0.0762787602	-1.9755463884	-1.2017573719	 0.113829
H	-0.0112637401	-0.5472601826	-2.2417919796	 0.109863
H	 1.7489918018	-0.5917459327	 1.0819466841	 0.065423
H	-0.0997249867	 0.9195721113	 2.7804298973	 0.068799
H	-1.4515411222	-1.6270178793	 3.3202156334	 0.097383
H	-1.8080286222	-0.9149857626	 1.713196842	 0.105039
H	 0.046170979	-2.9022358462	 1.202683427	 0.075864
H	 2.0736397356	-0.4751799549	 3.504869776	 0.097445
H	 0.6910625335	-0.953788225	 4.5283061715	 0.096788
56.1481	155.7	195.3783	221.4591	250.4971	299.7403	350.2909	418.0487	441.6829	485.5776	509.9075	656.919	822.1901	841.7113	863.2994	880.9962	909.0519	918.9481	927.9313	945.4861	960.158	966.8397	998.4658	1028.3235	1033.3207	1072.244	1099.7608	1123.3727	1131.0937	1162.9001	1182.3626	1201.8663	1221.6063	1239.6953	1261.4948	1267.1224	1284.7375	1318.9647	1343.0218	1363.7106	1399.4334	1406.2097	1422.4771	1486.7063	1491.7544	1493.9618	1504.3943	1509.7334	1528.3099	3017.5351	3019.7308	3025.2652	3028.0629	3034.7636	3058.3243	3075.2456	3090.0571	3097.377	3101.193	3103.9766	3118.5799	3131.1917	3149.753
CC(C)C1C2CC1OC2	CC(C)[C@H]1[C@H]2C[C@@H]1OC2	
InChI=1S/C8H14O/c1-5(2)8-6-3-7(8)9-4-6/h5-8H,3-4H2,1-2H3	InChI=1S/C8H14O/c1-5(2)8-6-3-7(8)9-4-6/h5-8H,3-4H2,1-2H3/t6-,7-,8-/m0/s1
