20
gdb 72232	2.51496	1.92808	1.34529	0.316	77.89	-0.2147	0.0684	0.2831	1006.7657	0.172042	-403.109031	-403.101119	-403.100175	-403.140721	32.23	
C	 0.0589589261	 1.4411461635	 0.0629279723	-0.483066
C	 0.0369227523	-0.0667646244	-0.0148381384	 0.299691
C	 0.0001259953	-0.7577646063	-1.3805160432	-0.308991
C	-0.7732278277	-2.0711344978	-1.0686080467	-0.161845
N	-0.703857901	-2.2566585438	 0.3978494365	-0.118129
C	 0.7504188249	-2.3128690016	 0.8120623118	-0.251015
C	 0.7005975293	-0.8282236209	 1.127349131	 0.332427
O	 1.5050086672	-0.1536311515	 2.0247917804	-0.460635
C	-0.8058241552	-0.8758645477	 0.9539234384	-0.182903
H	 0.9797835203	 1.8456463716	-0.3716392846	 0.1229
H	-0.7867039405	 1.8684523681	-0.4873725366	 0.111516
H	 0.0101000072	 1.788851619	 1.0974222349	 0.126417
H	-0.5208126897	-0.137003273	-2.117162917	 0.096695
H	 1.0034684946	-0.9507334062	-1.775338091	 0.101038
H	-1.8274390324	-1.9728309682	-1.347606174	 0.104059
H	-0.3722528027	-2.9516012788	-1.5785559636	 0.102253
H	 0.8627318453	-2.9342125408	 1.7082232649	 0.09688
H	 1.4454013235	-2.6692318186	 0.0421073539	 0.098192
H	 1.3991599976	-0.5609851669	 2.8920693199	 0.28659
H	-1.6496327643	-0.5314305057	 1.539439441	 0.087927
184.3915	201.4558	213.094	273.8169	295.3854	344.4045	375.2865	453.5303	459.6402	589.0862	613.4458	688.198	725.6633	764.6568	830.646	871.8677	908.8444	933.5873	939.1642	962.0674	987.5192	1014.3856	1049.2894	1076.0348	1118.2019	1139.3155	1166.4282	1179.6045	1215.6912	1231.5368	1241.3287	1262.5585	1286.6393	1307.6341	1337.1819	1358.5966	1417.5866	1440.3618	1488.6791	1490.7063	1499.5243	1502.2619	1520.76	3017.4393	3030.8464	3038.6165	3048.3378	3064.2946	3073.6215	3087.3411	3100.8343	3121.9074	3184.7979	3789.5297
CC12CCN3CC1(O)C23	C[C@@]12CCN3C[C@]1(O)[C@@H]23	
InChI=1S/C7H11NO/c1-6-2-3-8-4-7(6,9)5(6)8/h5,9H,2-4H2,1H3	InChI=1S/C7H11NO/c1-6-2-3-8-4-7(6,9)5(6)8/h5,9H,2-4H2,1H3/t5-,6+,7+/m1/s1
