19
gdb 53794	2.80688	1.25704	0.99191	1.543	77.27	-0.2347	-0.0697	0.1651	1250.1667	0.15588	-423.051866	-423.041928	-423.040984	-423.0877	35.642	
C	 1.7862856612	 1.0246773812	-2.4904584437	-0.479529
C	 1.6650093926	-0.4793731715	-2.463548947	 0.3052
O	 2.606953805	-1.2345266444	-2.5274932702	-0.28511
C	 0.2172337276	-1.0301612345	-2.4574962695	 0.231922
O	-0.6103985606	-0.3980814682	-3.0867373633	-0.322276
C	-0.0980868306	-2.3170985248	-1.7687701424	 0.228744
C	 0.9263894247	-2.9751369227	-0.8623118101	-0.47745
C	-1.5767320635	-2.4616896497	-1.409989992	-0.276854
C	-1.0401043043	-3.2229448209	-2.5701938649	-0.268646
H	 1.1600641106	 1.4304552462	-3.2888233391	 0.168574
H	 1.4042396437	 1.442565343	-1.5512051982	 0.14469
H	 2.8301443259	 1.3096385152	-2.6237816689	 0.140628
H	 1.2553261098	-2.2977253185	-0.0667218177	 0.11655
H	 0.482142904	-3.8514603403	-0.3806471673	 0.109238
H	 1.8115785053	-3.2911985461	-1.4153437059	 0.150646
H	-1.7940712266	-2.9921497673	-0.4897906438	 0.11768
H	-2.2068788751	-1.6065625964	-1.6236033447	 0.137453
H	-1.3086638402	-2.8815288896	-3.5629282386	 0.136331
H	-0.8712289095	-4.2895437108	-2.4712766125	 0.12221
34.2243	44.4292	129.2787	178.629	226.4013	247.4885	294.2595	304.2221	347.0961	367.002	384.635	541.8047	584.9697	643.0692	739.6034	794.4451	816.9124	819.6613	923.0596	956.4002	961.6628	1027.1562	1048.4229	1076.7329	1080.0565	1090.5714	1120.8925	1205.1016	1230.6137	1308.6781	1339.9781	1376.6534	1422.9293	1453.6602	1459.2271	1461.3358	1483.843	1489.4038	1503.219	1752.1483	1804.5293	3039.1735	3042.3108	3097.3845	3113.7928	3139.1084	3140.7045	3142.7757	3163.6272	3228.1797	3242.0241
CC(=O)C(=O)C1(C)CC1	CC(=O)C(=O)C1(C)CC1	
InChI=1S/C7H10O2/c1-5(8)6(9)7(2)3-4-7/h3-4H2,1-2H3	InChI=1S/C7H10O2/c1-5(8)6(9)7(2)3-4-7/h3-4H2,1-2H3
