21
gdb 73629	2.2013	1.87353	1.43292	1.4013	82.13	-0.2368	0.0255	0.2623	1030.5922	0.18488	-387.112457	-387.104587	-387.103643	-387.144751	31.509	
C	-0.1394983301	 1.4944869997	 0.0927433555	-0.469995
C	 0.0378440107	-0.0202609719	-0.0264382272	 0.32197
C	-1.3042434987	-0.7791050674	 0.0094229915	-0.130961
O	-1.0177636932	-2.0471100847	 0.5749072306	-0.246543
C	-0.1530073762	-1.7844007454	 1.6696216952	-0.093746
C	 0.8000633861	-0.6549105518	 1.1965732652	-0.105882
C	 2.1003158414	-1.1414017315	 0.615358674	-0.076658
C	 2.1536727139	-1.0083325906	-0.7075050521	-0.0577
C	 0.9018500005	-0.3937473619	-1.2744623196	-0.313006
H	 0.831699189	 2.000188134	 0.1123558913	 0.120948
H	-0.7032378846	 1.8960517867	-0.7574587604	 0.114312
H	-0.6775775755	 1.7636917316	 1.0083632065	 0.111374
H	-2.0345260181	-0.2336927824	 0.6330342337	 0.076551
H	-1.7483710091	-0.940661282	-0.9766510707	 0.104769
H	-0.7351390924	-1.4548912421	 2.5463580134	 0.081352
H	 0.3611894636	-2.7148683684	 1.9243390321	 0.106084
H	 0.9577222071	 0.066116122	 2.0068340155	 0.069826
H	 2.8811649409	-1.5725290297	 1.2336263608	 0.08918
H	 2.9852118882	-1.3142843662	-1.33370805	 0.091217
H	 0.381352624	-1.1035116082	-1.9305379021	 0.109635
H	 1.1170513522	 0.4886326901	-1.8912064033	 0.097272
65.564	188.3406	251.4466	262.6072	313.2716	336.1373	414.1344	452.6013	569.3694	596.9297	684.6238	755.6148	764.07	831.3987	854.4725	931.4585	939.5078	950.424	965.2288	978.9661	990.5945	1006.9996	1032.0512	1088.9435	1097.3041	1126.1412	1139.6372	1177.1977	1193.8725	1217.2589	1250.9061	1285.5794	1291.6225	1310.1041	1337.1727	1353.7506	1375.0373	1402.3937	1416.1192	1485.0381	1494.9559	1498.022	1505.1529	1518.1621	1693.8396	2946.7161	2962.7266	3014.3514	3022.7961	3036.6323	3040.9823	3086.1552	3088.2334	3091.5066	3096.4602	3173.1158	3199.3374
CC12COCC1C=CC2	C[C@]12COC[C@H]1C=CC2	
InChI=1S/C8H12O/c1-8-4-2-3-7(8)5-9-6-8/h2-3,7H,4-6H2,1H3	InChI=1S/C8H12O/c1-8-4-2-3-7(8)5-9-6-8/h2-3,7H,4-6H2,1H3/t7-,8+/m1/s1
