17
gdb 24314	2.78085	2.39726	1.50766	3.5707	77.56	-0.2021	-0.0171	0.185	868.1755	0.140252	-380.836982	-380.830821	-380.829877	-380.867191	25.669	
C	-0.1524905594	 1.5146779728	-0.0851985236	-0.3278
C	 1.4088213133	 1.735682963	 0.0760828617	 0.003385
C	 2.1455936068	 1.7894936018	 1.4511569084	-0.236601
C	 3.0956948392	 0.5117126553	 1.4366928283	-0.290537
C	 2.2001910203	-0.4645840406	 0.7069815721	 0.055764
C	 1.2379003835	-1.395241847	 1.0667705765	-0.104332
N	-0.0188304064	-1.0594229776	 0.5459254878	-0.270248
C	 0.219674705	 0.0139740136	-0.1770651171	 0.16824
N	 1.5601327138	 0.3016955675	-0.2489641193	 0.051401
H	-0.7585951327	 1.7344777376	 0.7948071689	 0.140414
H	-0.58674065	 1.9929167387	-0.9647318412	 0.128233
H	 1.8535808516	 2.4100504037	-0.6605223447	 0.095264
H	 2.6935001414	 2.7238877409	 1.6005575934	 0.108949
H	 1.4314272868	 1.6844371388	 2.2735075115	 0.124205
H	 4.0240262263	 0.7343295638	 0.899726168	 0.120623
H	 3.3564672804	 0.1853841374	 2.4444679534	 0.123495
H	 1.3414145701	-2.2571386398	 1.7105125359	 0.109545
180.1277	295.7893	307.4876	365.9044	530.6014	581.0626	641.9798	685.8311	695.5021	743.7142	780.586	845.0205	850.2243	858.3442	896.9866	929.734	1002.0042	1012.8035	1057.4555	1071.7909	1115.2995	1125.5869	1175.0931	1189.2654	1212.9407	1238.7299	1247.6693	1291.8926	1300.2447	1319.6291	1341.4908	1364.3125	1461.6939	1466.0308	1482.7071	1490.6369	1528.6707	3048.6178	3058.2951	3066.6977	3082.3694	3109.2335	3127.7656	3144.4829	3241.2
C1C2CCC3=CN=C1N23	C1[C@H]2CC[C]3[CH][N][C]1N23	
InChI=1S/C7H8N2/c1-2-6-4-8-7-3-5(1)9(6)7/h4-5H,1-3H2	InChI=1S/C7H8N2/c1-2-6-4-8-7-3-5(1)9(6)7/h4-5H,1-3H2/t5-/m1/s1
