17
gdb 15819	3.53777	1.47239	1.27341	2.0328	66.22	-0.2382	-0.0056	0.2326	1015.3112	0.141118	-400.976707	-400.968066	-400.967122	-401.010664	29.75	
C	-0.6157359099	 0.3636155553	 0.440072062	-0.243324
O	 0.376228833	 0.1550503647	 1.4328555476	-0.240638
C	 1.5760302327	-0.4134225917	 0.930323033	-0.154908
C	 1.3683424091	-1.9118836766	 0.6974767484	 0.355089
O	 0.9587759191	-2.3620823299	-0.3519024165	-0.3386
N	 1.6872846992	-2.7067737051	 1.7900350529	-0.073192
C	 1.0568304558	-2.6147003794	 3.0969367191	-0.231463
C	 0.8788132337	-3.8216436898	 2.2194272306	-0.219823
H	-0.9181595677	-0.5708885573	-0.0476452657	 0.134572
H	-1.4762920885	 0.8065205313	 0.9468136411	 0.126381
H	-0.2575733577	 1.0578710218	-0.3344516071	 0.111794
H	 1.8733760652	 0.0533720788	-0.0180787119	 0.111912
H	 2.3457425733	-0.2372014946	 1.6861372019	 0.11792
H	 1.7265771397	-2.6629337581	 3.9512159777	 0.127671
H	 0.2223887104	-1.9274250439	 3.1970753817	 0.148634
H	-0.0747260301	-3.9577065405	 1.716595214	 0.138751
H	 1.4153028625	-4.7364914054	 2.4530835213	 0.129223
51.0623	98.8742	120.9618	170.279	204.302	229.5355	303.8882	373.3065	449.6367	598.037	672.5532	797.5331	817.7185	929.3348	948.2772	972.0323	1015.363	1059.471	1111.9232	1128.3927	1134.3307	1165.2352	1175.9188	1184.4169	1198.7168	1222.6605	1302.7166	1373.2737	1414.3828	1473.3188	1484.5275	1489.3772	1497.9807	1514.7274	1523.6925	1782.7906	2994.0158	3020.2131	3063.1474	3103.1957	3115.4085	3118.7241	3122.1569	3201.5178	3214.8174
COCC(=O)N1CC1	COCC(=O)N1CC1	
InChI=1S/C5H9NO2/c1-8-4-5(7)6-2-3-6/h2-4H2,1H3	InChI=1S/C5H9NO2/c1-8-4-5(7)6-2-3-6/h2-4H2,1H3
