18
gdb 49520	2.86391	1.68787	1.39849	4.1663	76.47	-0.2378	0.0268	0.2646	971.6961	0.149898	-401.919382	-401.912467	-401.911523	-401.950766	28.007	
O	-0.0185669108	-0.0051253541	 0.2577715356	-0.335564
C	 0.0313450912	 1.1996926609	 0.1211924202	 0.117798
N	 1.1460685986	 1.9069337483	-0.1888568328	-0.014707
C	 2.587153733	 1.5936340441	-0.1142645351	-0.039498
C	 2.777101935	 2.9166261994	-0.934107012	-0.212131
C	 1.5468155319	 3.3211256741	-0.0517196181	-0.051992
C	 2.2051505609	 3.3798732594	 1.35394685	-0.045229
C	 1.9081368701	 2.2727990904	 2.3328979198	-0.3099
C	 2.9901423052	 2.0753764884	 1.3056576795	-0.03591
H	-0.8610044257	 1.8587660777	 0.1707566157	 0.068441
H	 2.9132823817	 0.6158557644	-0.460363794	 0.10498
H	 3.7047571666	 3.4717603057	-0.7835913336	 0.102832
H	 2.5285097029	 2.806120388	-1.9909487552	 0.112051
H	 0.831259954	 4.091037586	-0.3380570656	 0.089248
H	 2.6340749698	 4.3164768892	 1.6889428414	 0.095583
H	 2.2541022587	 2.4445257058	 3.347275397	 0.116224
H	 0.9876651288	 1.7040488697	 2.2798254322	 0.140512
H	 4.0287681581	 1.9988344627	 1.6027219351	 0.097262
92.5061	173.553	276.9906	365.6647	384.0877	481.6554	571.7646	635.6414	685.8381	752.3885	790.7368	794.2363	827.223	853.9643	885.6339	920.5323	975.7317	1005.5997	1020.8635	1031.0153	1063.2008	1071.9226	1080.5491	1086.4462	1095.7256	1112.1377	1173.0926	1183.0502	1223.7128	1239.1163	1258.2796	1272.1444	1300.13	1352.0743	1403.1648	1437.9673	1483.6835	1490.8409	1784.7485	2911.4703	3075.9901	3129.8141	3139.2844	3148.4443	3158.0217	3183.2432	3191.965	3221.6324
O=CN1C2CC1C1CC21	O=CN1[C@H]2C[C@@H]1[C@H]1C[C@@H]21	
InChI=1S/C7H9NO/c9-3-8-6-2-7(8)5-1-4(5)6/h3-7H,1-2H2	InChI=1S/C7H9NO/c9-3-8-6-2-7(8)5-1-4(5)6/h3-7H,1-2H2/t4-,5+,6+,7-
