21
gdb 103450	2.61835	1.38989	1.19462	1.2066	83.16	-0.2172	0.0196	0.2368	1156.4398	0.182448	-387.088853	-387.080083	-387.079139	-387.121914	34.627	
C	-0.1903165037	 1.5559076411	-0.0301855458	-0.397515
C	 0.1189421324	 0.0582313564	 0.0898060955	-0.237252
C	 0.7057382628	-0.5273856589	-1.178157897	 0.406909
O	 1.9202196014	 0.0710020521	-1.5721700593	-0.475186
C	 0.7104774374	-1.9912408374	-1.5054262019	-0.102787
C	-0.2527975662	-2.946967345	-0.7988486719	-0.287609
C	-1.6226486124	-2.4671183058	-1.2356339934	-0.077656
C	-1.5471131271	-1.4402444348	-2.0878703398	-0.082951
C	-0.1394772497	-1.0341818974	-2.3507570657	-0.157759
H	 0.7148957705	 2.1372252322	-0.2372450397	 0.110022
H	-0.9103642592	 1.7473764358	-0.8335750851	 0.116673
H	-0.6163344484	 1.9439722876	 0.8995232721	 0.115794
H	 0.8372850005	-0.1053584666	 0.9029176651	 0.101468
H	-0.7949457531	-0.4782564854	 0.3557011623	 0.107762
H	 1.7231307677	 0.9619045671	-1.8806554638	 0.28107
H	 1.6464025337	-2.373822408	-1.8941854175	 0.095
H	-0.0741644313	-3.9872605009	-1.1013184581	 0.107964
H	-0.1398142914	-2.9253194675	 0.2935181868	 0.109749
H	-2.5406892037	-2.9074783577	-0.8627795032	 0.092375
H	-2.3969740137	-0.9354776338	-2.5341054584	 0.09115
H	 0.1714699237	-0.7211046031	-3.3421379213	 0.082779
76.8918	155.7054	197.5137	248.6989	265.1516	289.7919	330.8528	385.2772	414.5955	488.8194	540.0836	665.1895	716.6506	748.2051	791.1876	791.938	855.6155	878.7041	932.4336	940.1244	961.306	988.1942	1004.7027	1012.911	1027.2995	1065.7201	1077.9802	1105.1683	1130.1455	1170.8806	1186.8386	1271.4236	1278.2228	1294.5734	1305.8822	1318.0752	1362.9387	1378.936	1403.9772	1439.8	1470.8973	1484.2243	1500.8527	1511.9167	1662.4778	3014.2958	3029.9642	3034.0216	3037.2336	3086.8927	3106.0195	3109.7887	3160.4227	3182.1232	3186.0594	3207.1274	3802.5496
CCC1(O)C2CC=CC12	CC[C@@]1(O)[C@H]2CC=C[C@@H]12	
InChI=1S/C8H12O/c1-2-8(9)6-4-3-5-7(6)8/h3-4,6-7,9H,2,5H2,1H3	InChI=1S/C8H12O/c1-2-8(9)6-4-3-5-7(6)8/h3-4,6-7,9H,2,5H2,1H3/t6-,7+,8+/m1/s1
