18
gdb 106586	2.7637	1.4292	1.27448	1.4298	71.62	-0.2424	-0.0084	0.234	1053.1435	0.148583	-439.022897	-439.015019	-439.014074	-439.055174	31.376	
O	 0.0168031155	 1.3960819121	-0.0403941175	-0.419618
C	 0.0531118237	-0.0212503054	 0.0061492123	-0.183474
C	-1.3376131512	-0.5993235074	-0.021347346	 0.206769
N	-2.2467217812	-0.2720803248	 1.1607856169	-0.351309
C	-3.0857952323	-1.3906549699	 0.5648948903	-0.114703
C	-3.4513027559	-0.7504924851	-0.7763092858	-0.087765
C	-2.2884350128	-0.2189122353	-1.166063817	-0.10665
C	-1.7353759477	-2.1153908052	 0.1895729871	 0.106047
O	-1.6446081064	-3.0581649907	-0.8235032305	-0.429712
H	-0.6741190697	 1.6738083354	 0.5732255559	 0.294627
H	 0.6205513754	-0.3545903386	-0.8698114341	 0.116872
H	 0.5900715796	-0.382651943	 0.8991891297	 0.084981
H	-1.7942231063	-0.6504221903	 2.0006920835	 0.209133
H	-3.8647265917	-1.8377204804	 1.1810000355	 0.073947
H	-4.4233843708	-0.7405306518	-1.2471561263	 0.114242
H	-2.0283345192	 0.360198639	-2.0396992538	 0.121599
H	-1.2443324332	-2.5468909402	 1.0678109696	 0.089952
H	-2.0862030559	-2.6783666284	-1.5961448997	 0.275063
88.1781	148.1776	247.304	269.2242	313.0261	400.9255	426.1252	492.004	554.8225	578.4228	606.9251	676.6866	747.4865	785.8829	822.6088	840.8702	876.9212	915.5127	921.8324	941.4616	982.9795	1042.7389	1070.4484	1082.1146	1136.7281	1142.8456	1172.2137	1198.5547	1222.1688	1253.9118	1269.1414	1277.3249	1329.2057	1361.672	1383.514	1439.2345	1447.8171	1508.062	1616.1901	2965.1793	3066.7535	3072.9226	3132.5036	3230.7733	3257.1351	3378.1404	3739.0967	3786.7501
OCC12NC(C=C1)C2O	OC[C@@]12N[C@@H](C=C1)[C@H]2O	
InChI=1S/C6H9NO2/c8-3-6-2-1-4(7-6)5(6)9/h1-2,4-5,7-9H,3H2	InChI=1S/C6H9NO2/c8-3-6-2-1-4(7-6)5(6)9/h1-2,4-5,7-9H,3H2/t4-,5+,6-/m0/s1
