25
gdb 58437	2.31014	1.31226	1.22605	0.1971	92.05	-0.2445	0.0849	0.3294	1251.3953	0.228505	-352.335989	-352.32613	-352.325186	-352.370117	38.719	
C	 0.2101130472	 1.3517487579	 0.3149097338	-0.397953
C	-0.1415040186	-0.1022713338	-0.0394049987	-0.031239
C	-1.6574678499	-0.2793092404	-0.2234059222	-0.397943
C	 0.648827373	-0.6075693201	-1.2503571193	 0.379165
C	 0.3833739881	 0.1287142192	-2.5593705393	-0.473261
C	 2.0790941556	-1.0844713886	-1.1400277968	-0.104161
C	 2.3706221444	-1.8322559103	 0.1683369112	-0.248111
C	 1.2201457283	-2.8366169783	-0.1632402608	-0.248117
C	 0.9458191753	-2.0739346538	-1.4667120185	-0.104158
H	 1.2907828225	 1.4802085098	 0.4356702735	 0.113788
H	-0.1256584229	 2.0497254787	-0.4593917825	 0.1129
H	-0.2721283839	 1.6495016135	 1.252033946	 0.106581
H	 0.1436987769	-0.7135119929	 0.8231697118	 0.074044
H	-2.0480580628	 0.3706708258	-1.013610208	 0.112899
H	-1.9070116255	-1.312618279	-0.485947601	 0.11379
H	-2.1916525162	-0.0267749006	 0.6987051184	 0.10658
H	 0.6360502515	 1.1913919982	-2.4850904872	 0.116021
H	 0.9862558644	-0.2948243727	-3.3688284036	 0.112464
H	-0.6666232747	 0.0544817031	-2.8604372768	 0.116019
H	 2.8435712674	-0.690665911	-1.8010816661	 0.074535
H	 3.3488980564	-2.3181138394	 0.1576824132	 0.099735
H	 2.2869073058	-1.2569247513	 1.0960327509	 0.096076
H	 1.6011401182	-3.8439086206	-0.3459964068	 0.099729
H	 0.3929385499	-2.9103064212	 0.5501571455	 0.096082
H	 0.7156670594	-2.5485719421	-2.4144717469	 0.074535
55.1321	174.8365	201.2414	209.9822	224.8419	244.7028	293.1102	293.7497	312.6866	350.3179	445.435	498.9956	504.4949	646.7062	746.4688	783.9849	827.1811	839.5908	885.9696	925.9003	928.2477	947.8208	964.4608	976.2354	1001.4198	1024.1272	1031.2836	1060.4227	1079.5193	1120.1369	1120.2841	1150.4358	1185.8934	1201.6694	1222.9668	1251.0885	1261.1552	1291.5069	1307.7887	1350.858	1355.44	1395.9633	1413.0705	1421.8317	1423.7059	1483.3466	1487.556	1488.4784	1500.5758	1505.1885	1507.849	1508.8261	1514.1579	3027.85	3029.801	3035.0509	3043.8154	3044.7267	3052.5007	3090.4248	3091.0497	3097.7156	3098.1407	3099.5477	3101.1123	3104.7376	3110.1518	3157.5153	3169.1203
CC(C)C1(C)C2CCC12	CC(C)[C@@]1(C)[C@H]2CC[C@@H]12	
InChI=1S/C9H16/c1-6(2)9(3)7-4-5-8(7)9/h6-8H,4-5H2,1-3H3	InChI=1S/C9H16/c1-6(2)9(3)7-4-5-8(7)9/h6-8H,4-5H2,1-3H3/t7-,8+,9-
