21
gdb 72404	2.8607	1.54148	1.43833	1.4971	77.19	-0.2455	0.0807	0.3263	1048.7006	0.182955	-424.260081	-424.251748	-424.250804	-424.292264	33.428	
C	-0.0872819599	 1.4512312983	 0.0345072329	-0.488483
C	 0.0334760611	-0.0525097811	-0.0020784629	 0.354457
C	 0.6910129264	-0.6802496098	-1.2580076534	-0.256323
C	 0.1017321864	-2.1178064611	-1.2203888047	-0.256381
C	-0.7845864804	-2.025509027	 0.0441007557	 0.47054
C	-1.8924444564	-3.0297287566	 0.2224561572	-0.475247
O	 0.0920536001	-2.0455441054	 1.1852754403	-0.307925
C	 0.6480021658	-0.7284955336	 1.2448026242	-0.108571
O	-1.260504694	-0.6905683436	 0.0011047869	-0.304231
H	 0.9049185288	 1.9134218898	 0.0496587886	 0.122089
H	-0.6195270068	 1.8155068783	-0.8488095597	 0.128532
H	-0.6323494832	 1.7754486763	 0.9256212623	 0.129031
H	 0.376763345	-0.1388408962	-2.1539359195	 0.101851
H	 1.7828986907	-0.6551177344	-1.2133021523	 0.099973
H	-0.5006131293	-2.3354759477	-2.1062246683	 0.101143
H	 0.8566054522	-2.8989056059	-1.1125271396	 0.107859
H	-1.4740813248	-4.0372638553	 0.2879840834	 0.130097
H	-2.4409391278	-2.8170034776	 1.1425461989	 0.134257
H	-2.5808944194	-2.9884213049	-0.6250514459	 0.125397
H	 1.7432411097	-0.7698195507	 1.2150932559	 0.09578
H	 0.3337014959	-0.2325812018	 2.1720319298	 0.096154
158.1557	184.6955	194.284	232.1576	279.3967	300.6262	361.8679	415.0381	433.6581	583.3462	599.2097	630.0734	653.7963	780.8103	847.2162	854.965	861.783	883.4534	913.6377	916.4348	974.2513	994.1158	1021.3925	1038.6823	1096.9142	1137.2918	1171.3693	1182.9074	1211.8954	1229.2597	1245.2704	1265.8684	1272.8759	1320.5354	1349.4696	1388.5234	1413.1882	1427.3886	1477.0815	1481.8358	1485.1605	1488.4732	1495.4821	1500.2952	1526.3792	3013.0934	3041.6652	3055.731	3056.6334	3059.5809	3069.6108	3102.3168	3112.7294	3118.7462	3124.1156	3133.5307	3139.6954
CC12CCC(C)(OC1)O2	C[C@@]12CC[C@@](C)(OC1)O2	
InChI=1S/C7H12O2/c1-6-3-4-7(2,9-6)8-5-6/h3-5H2,1-2H3	InChI=1S/C7H12O2/c1-6-3-4-7(2,9-6)8-5-6/h3-5H2,1-2H3/t6-,7+/m1/s1
