17
gdb 7527	3.7421	1.27146	1.22243	3.4742	67.07	-0.2561	0.0232	0.2793	1061.4978	0.139811	-400.97486	-400.966126	-400.965182	-401.008032	31.806	
C	 0.0186419511	 1.5720421926	-0.3963120014	-0.444678
C	-0.0135194038	 0.1055896626	-0.0418131091	 0.383838
C	 1.2373628004	-0.7280600843	-0.1245437055	-0.372528
C	 0.6215587621	-0.4091756365	 1.2227101975	 0.042711
O	 1.2149638165	 0.5291989542	 2.0687244052	-0.419137
O	-1.1715138028	-0.5783472829	-0.4873515595	-0.222321
C	-2.2981424842	-0.3828451719	 0.2340769559	 0.108948
N	-3.3901527097	-0.8752391877	-0.1629262802	-0.443285
H	 0.9229085494	 2.036769041	-0.0002733314	 0.137077
H	-0.0074355586	 1.6993827447	-1.4826784466	 0.131962
H	-0.8417823219	 2.0987627196	 0.0297964534	 0.122005
H	 1.1391944165	-1.7402566225	-0.4992894272	 0.133258
H	 2.1522901609	-0.2117978487	-0.3943448083	 0.119442
H	 0.1030446732	-1.2269941547	 1.7228830203	 0.101931
H	 2.0343487665	 0.1515439661	 2.4055723981	 0.293441
H	-2.1353858604	 0.2028836711	 1.1477814786	 0.099042
H	-4.1293422352	-0.6523607826	 0.5007496403	 0.228294
81.0517	134.4509	162.647	202.1538	230.0578	280.5097	299.7326	385.8316	409.723	465.7365	511.1385	590.9814	756.3888	823.9642	826.2825	912.2277	939.3356	957.7154	1027.7057	1043.7065	1054.2419	1098.1465	1108.6348	1132.878	1183.8603	1248.5153	1286.1619	1298.5607	1328.9928	1413.2333	1415.6124	1417.6762	1478.3035	1487.3036	1504.9078	1743.2114	3038.5262	3043.5359	3104.5455	3105.4568	3138.1797	3144.6876	3234.2238	3514.415	3804.9664
CC1(CC1O)OC=N	C[C@]1(C[C@H]1O)O[CH][NH]	
InChI=1S/C5H9NO2/c1-5(8-3-6)2-4(5)7/h3-4,6-7H,2H2,1H3	InChI=1S/C5H9NO2/c1-5(8-3-6)2-4(5)7/h3-4,6-7H,2H2,1H3/t4-,5-/m1/s1
