13
gdb 53929	1.86645	1.62543	1.29307	6.4363	64.52	-0.2758	-0.0423	0.2336	1036.1926	0.087113	-448.926319	-448.916892	-448.915948	-448.96077	33.206	
N	-0.0381346173	 1.314989272	-0.4216580868	-0.541373
C	 0.0790721796	 0.0395125948	 0.0491324441	 0.316364
N	 1.0883283495	-0.5986976497	 0.4787399248	-0.485584
C	-1.2815750378	-0.7176542194	 0.0390299462	 0.03957
O	-2.1728237126	-0.2215942555	-0.9473762207	-0.434089
C	-1.0574388797	-2.1676200319	-0.1431854473	 0.309797
N	-0.9581391434	-3.2935052703	-0.3758339801	-0.319595
C	-1.9389673137	-0.4732454698	 1.3411842488	 0.342915
N	-2.4322033563	-0.2495639154	 2.3599945283	-0.309622
H	 0.7040825255	 1.9722805983	-0.2488974941	 0.268459
H	-0.9565076191	 1.6835055218	-0.6091325416	 0.27775
H	 1.9360791152	-0.0308288415	 0.4973988633	 0.222253
H	-1.8510750997	-0.5138732333	-1.8101697148	 0.313155
44.86	125.5046	147.7923	174.2343	225.1087	262.7632	295.1255	353.877	408.709	417.8498	482.1529	500.4525	533.1028	572.3838	617.486	675.1075	706.9328	859.0359	1015.5955	1052.337	1075.1373	1116.0057	1119.5675	1367.0607	1392.0909	1618.1469	1751.4622	2371.7987	2375.5521	3476.6636	3595.927	3720.6753	3787.7221
NC(=N)C(O)(C#N)C#N	NC(=N)C(O)(C#N)C#N	
InChI=1S/C4H4N4O/c5-1-4(9,2-6)3(7)8/h9H,(H3,7,8)	InChI=1S/C4H4N4O/c5-1-4(9,2-6)3(7)8/h9H,(H3,7,8)
