13
gdb 131585	4.66151	1.0117	0.83559	2.3247	63.07	-0.2819	-0.0928	0.1891	1254.8175	0.087236	-489.856699	-489.848553	-489.847609	-489.890361	28.056	
O	 0.0499748352	 1.3666643201	 0.0085437563	-0.39418
C	-0.0128434734	-0.0309376902	 0.0017828523	-0.179286
C	-1.4698239875	-0.4608695279	 0.0112914763	 0.28666
O	-2.4043646601	 0.3013891574	 0.0227365779	-0.269408
C	-1.7143500677	-1.9296571214	 0.0059703056	 0.317212
C	-2.8775801059	-2.6393342214	 0.0120567612	-0.168624
N	-2.5312408173	-3.9669589513	 0.0024407086	-0.106351
N	-1.2812111059	-4.1041358682	-0.008453076	 0.003751
O	-0.6967360131	-2.7944998485	-0.0066817779	-0.221099
H	 0.9762308173	 1.6249244963	 0.0011921152	 0.300146
H	 0.4600476568	-0.4859695513	-0.8858583821	 0.129852
H	 0.4742790678	-0.4951123879	 0.8769169639	 0.129852
H	-3.8984645262	-2.3008372656	 0.0221681388	 0.171475
65.6181	94.7392	138.6538	193.0302	231.2085	281.6185	368.3108	468.2725	529.1638	634.961	693.5168	705.2744	759.9196	871.6807	958.6434	983.8829	1011.44	1072.9923	1120.3719	1152.206	1220.9703	1249.2941	1265.4848	1357.0146	1435.2158	1452.3136	1488.1677	1590.2943	1809.755	2959.9876	2981.5906	3307.4517	3838.9526
OCC(=O)C1=CN=NO1	OCC(=O)c1cnno1	
InChI=1S/C4H4N2O3/c7-2-3(8)4-1-5-6-9-4/h1,7H,2H2	InChI=1S/C4H4N2O3/c7-2-3(8)4-1-5-6-9-4/h1,7H,2H2
