16
gdb 61341	3.39494	0.83614	0.72767	3.0038	76.63	-0.2762	-0.0919	0.1843	1508.4744	0.120656	-400.738086	-400.728234	-400.72729	-400.773727	34.4	
C	 0.1035202465	 1.6607810239	 0.1009223739	-0.398337
C	 0.0369880506	 0.12147983	 0.0266099694	-0.173912
C	 0.6477878103	-0.4213276578	-1.2829828745	-0.308674
C	-0.1934561579	-0.1433496266	-2.5066003304	 0.285882
O	-1.2897375125	 0.3567821428	-2.5087525465	-0.265288
C	 0.4292190632	-0.5668045914	-3.7826006724	 0.235275
N	 0.9290307245	-0.8993014791	-4.7708205339	-0.290243
C	 0.7061737124	-0.4929168481	 1.171436373	 0.295955
C	 1.279098293	-0.9909727351	 2.1031959491	-0.432197
H	 1.1424930017	 2.0033239692	 0.0741738863	 0.126358
H	-0.4411429275	 2.1058410694	-0.7345521133	 0.139801
H	-0.3436308967	 2.014303633	 1.0327901023	 0.135881
H	-1.0198046511	-0.1725036344	 0.0390925705	 0.131803
H	 1.6548222112	-0.0175474321	-1.4502218562	 0.154234
H	 0.7814545897	-1.5104072415	-1.2303200289	 0.162887
H	 1.7700686426	-1.432170282	 2.9352409016	 0.200575
43.124	76.881	101.741	179.7615	200.5728	224.357	268.0855	277.6397	336.038	441.0884	513.4411	531.7483	583.6015	617.8893	637.6744	652.1706	801.7009	859.7675	892.9066	944.2641	1043.7463	1086.1107	1105.5555	1135.1554	1234.1979	1295.5306	1335.7726	1380.4645	1408.8449	1434.9779	1495.9989	1501.9526	1797.6454	2238.5545	2337.6144	3028.9934	3036.7616	3050.0143	3064.1966	3123.7468	3138.6507	3502.775
CC(CC(=O)C#N)C#C	C[C@@H](CC(=O)C#N)C#C	
InChI=1S/C7H7NO/c1-3-6(2)4-7(9)5-8/h1,6H,4H2,2H3	InChI=1S/C7H7NO/c1-3-6(2)4-7(9)5-8/h1,6H,4H2,2H3/t6-/m1/s1
