19
gdb 70547	2.78154	1.48029	1.15546	4.4646	75.23	-0.2605	0.0155	0.276	1106.4809	0.160015	-423.065032	-423.056899	-423.055955	-423.097536	31.591	
C	-0.0994264552	 1.5368412799	 0.0289245698	-0.464871
C	 0.0257679109	 0.0286724866	 0.0429803597	 0.321516
C	-0.8446128204	-0.7720634749	 0.9893482521	-0.338424
C	 0.6437002451	-0.6686959959	 1.2231677651	-0.073794
C	 1.541876067	-1.8453633147	 0.9207471293	-0.099826
O	 1.0681025296	-2.6644817923	-0.158004561	-0.223005
C	 0.5553395134	-2.1051970466	-1.2848387989	 0.399095
O	 0.2626539966	-2.8153793123	-2.2068819074	-0.325328
C	 0.3793295589	-0.5942211646	-1.2990088731	-0.403231
H	 0.8282334287	 2.0097179487	-0.3148955673	 0.117326
H	-0.9045557641	 1.8603931467	-0.6410104839	 0.123723
H	-0.3216420427	 1.9239661397	 1.0281342166	 0.117435
H	-1.4957288393	-0.2201954297	 1.6582970483	 0.113925
H	-1.25127999	-1.7213348083	 0.6571350639	 0.135034
H	 0.9852425111	-0.0623473655	 2.0575530097	 0.091968
H	 2.5577763592	-1.4985754661	 0.6847704521	 0.113562
H	 1.6137842187	-2.5267034349	 1.7734262853	 0.128562
H	-0.3704632901	-0.3768502384	-2.0647705503	 0.136452
H	 1.3251164626	-0.1617677774	-1.65773139	 0.129881
95.9051	159.1374	213.9757	239.5529	284.7207	350.1333	363.9703	439.6006	483.1722	530.6519	601.0894	697.4065	744.4245	777.5527	820.9155	891.0373	906.0189	961.7101	977.6031	1011.8739	1041.7364	1062.7082	1096.2708	1111.4725	1118.3908	1141.1173	1200.606	1227.1259	1249.7941	1284.8247	1318.6138	1346.2119	1411.3645	1422.2039	1428.3047	1465.6365	1489.3026	1494.8465	1508.9121	1516.4057	1848.9972	3008.4771	3011.2787	3022.3319	3081.8998	3082.8908	3092.1262	3101.3164	3134.5006	3148.963	3219.4178
CC12CC1COC(=O)C2	C[C@]12C[C@H]1COC(=O)C2	
InChI=1S/C7H10O2/c1-7-2-5(7)4-9-6(8)3-7/h5H,2-4H2,1H3	InChI=1S/C7H10O2/c1-7-2-5(7)4-9-6(8)3-7/h5H,2-4H2,1H3/t5-,7+/m0/s1
