16
gdb 29911	3.41232	1.30843	0.95152	2.0453	82.83	-0.1852	0.0298	0.215	1188.2813	0.123316	-400.755957	-400.746934	-400.74599	-400.789893	33.128	
C	 0.0252022293	 1.4573631096	 0.0370113652	-0.341222
N	-0.0161429178	 0.0099229084	-0.0121111389	-0.050544
C	-0.0650056135	-0.7743236279	-1.1608997951	-0.099685
C	-0.0280280276	-2.0885100452	-0.7928718607	-0.290036
C	 0.0527215197	-2.1378271806	 0.6418904516	 0.050932
C	 0.1075872346	-3.2342034059	 1.5247879915	 0.197026
C	 0.1565984647	-4.1341317516	 2.3287915001	-0.469606
C	 0.0610916675	-0.8156425081	 1.063071808	 0.285463
O	 0.1289032007	-0.2886617579	 2.3025586424	-0.441169
H	 1.0489296372	 1.8361707094	-0.0604235385	 0.141382
H	-0.5809713421	 1.8644229993	-0.7753333105	 0.140848
H	-0.3832931436	 1.7984044228	 0.9893374872	 0.159703
H	-0.1264337016	-0.3066561107	-2.1296036307	 0.11952
H	-0.0632545621	-2.9413199327	-1.451507582	 0.104783
H	 0.1995743127	-4.9411024568	 3.0166640474	 0.180841
H	 0.146623092	-1.0295179521	 2.9227517829	 0.311766
55.3242	108.721	120.8853	199.1564	284.0235	288.3378	382.3695	409.5476	419.5679	493.4735	520.2311	575.6048	609.4212	644.7187	670.2906	719.8696	728.6007	765.869	799.2857	1008.8926	1056.0403	1109.0632	1150.9955	1200.3118	1242.009	1304.7873	1367.0006	1386.2503	1454.1224	1489.8851	1508.7591	1544.028	1589.7617	1598.5405	2212.8987	3036.6427	3108.1716	3148.947	3258.0931	3278.2746	3502.7866	3777.9495
CN1C=CC(C#C)=C1O	Cn1ccc(C#C)c1O	
InChI=1S/C7H7NO/c1-3-6-4-5-8(2)7(6)9/h1,4-5,9H,2H3	InChI=1S/C7H7NO/c1-3-6-4-5-8(2)7(6)9/h1,4-5,9H,2H3
