23
gdb 106278	2.6219	1.30686	1.05969	1.5659	86.69	-0.2274	0.0916	0.3189	1283.3822	0.203358	-388.25145	-388.24153	-388.240586	-388.285694	37.937	
C	-0.0930669073	 1.5413315541	-0.1244921123	-0.37956
C	-0.0765204796	 0.0124865702	-0.0166341288	-0.318026
C	-1.446667759	-0.5803214363	 0.1376382855	 0.422251
C	-2.5560707293	-0.2796978056	 1.1788057574	-0.305773
C	-3.1545907809	-1.1623124535	 0.0563860845	 0.397852
C	-4.5814661801	-1.5210451819	-0.2200068242	-0.513863
O	-2.4475605392	-0.3052211343	-0.9355597101	-0.382462
C	-1.8911413349	-2.0746696961	 0.1262161123	-0.052859
C	-1.5386912552	-2.9418262092	-1.0673451791	-0.433976
H	 0.9149325852	 1.9326111234	-0.2897395213	 0.110013
H	-0.7277031363	 1.8589928527	-0.9561014611	 0.13908
H	-0.485472818	 1.9983990123	 0.7895765037	 0.116992
H	 0.3883636304	-0.4218762158	-0.9104406525	 0.110384
H	 0.53224272	-0.3063221549	 0.839141977	 0.102662
H	-2.4568144051	-0.7106813749	 2.1793164259	 0.085622
H	-2.9149746496	 0.7505808244	 1.1904245564	 0.099343
H	-5.1917028144	-0.6183427198	-0.3210065956	 0.131851
H	-4.6637927269	-2.0987302615	-1.145931887	 0.131485
H	-4.9865370635	-2.122917791	 0.5998258493	 0.123636
H	-1.7571569209	-2.599568005	 1.0790844181	 0.058887
H	-1.684954621	-2.3867831808	-1.9966196604	 0.134012
H	-0.4951963402	-3.2722778166	-1.0189325232	 0.111656
H	-2.1625634041	-3.84211574	-1.0964839845	 0.110791
80.462	138.8409	180.3401	191.1898	196.784	217.2669	252.435	282.3802	327.122	392.4562	465.5369	525.7639	591.8788	647.1286	675.1342	707.2537	755.4006	799.7921	810.4474	901.062	951.384	971.5104	1015.9766	1024.4544	1048.9332	1070.8213	1084.4802	1132.5706	1140.5291	1153.236	1175.0713	1180.2567	1206.0852	1263.1815	1297.7215	1344.7412	1376.5636	1396.5233	1406.081	1409.3297	1425.1116	1469.9661	1477.9405	1487.57	1491.8869	1496.9022	1506.3819	1506.767	1512.2955	3024.5004	3031.2516	3037.2744	3040.7497	3041.8033	3056.5183	3059.6089	3087.252	3108.6473	3110.7438	3112.0537	3123.3036	3129.4262	3137.9142
CCC12CC(C)(O1)C2C	CC[C@@]12C[C@@](C)(O1)[C@H]2C	
InChI=1S/C8H14O/c1-4-8-5-7(3,9-8)6(8)2/h6H,4-5H2,1-3H3	InChI=1S/C8H14O/c1-4-8-5-7(3,9-8)6(8)2/h6H,4-5H2,1-3H3/t6-,7-,8+/m1/s1
