14
gdb 61150	3.41407	0.98927	0.85691	3.8287	69.5	-0.2973	-0.0711	0.2263	1290.5502	0.099877	-432.902238	-432.892973	-432.892029	-432.937373	31.07	
C	-0.2553489044	 1.3747962146	 0.0691257981	-0.366801
N	-0.0472881158	-0.0618548763	-0.0557459704	-0.114159
C	 0.0172777259	-0.8446373064	 1.1705939232	-0.30907
C	-1.2470659021	-0.808632025	 1.9179317854	 0.273299
N	-2.2374129046	-0.7569928835	 2.5096626333	-0.292738
C	 0.0924753395	-0.7386705896	-1.2334427574	 0.382111
O	 0.2650842045	-1.935436443	-1.3365355499	-0.344781
C	 0.0316811982	 0.0988781777	-2.4453824798	 0.218184
N	-0.001188521	 0.6888241025	-3.4383540437	-0.318948
H	 0.5692928471	 1.8302123363	 0.6290547758	 0.14643
H	-0.3018717383	 1.8307545509	-0.9191503457	 0.184788
H	-1.1936374774	 1.5762774964	 0.595783669	 0.167935
H	 0.2542583053	-1.8745687401	 0.8932776516	 0.206793
H	 0.8178214732	-0.4649958444	 1.8175364905	 0.166957
46.2169	73.025	123.9217	155.2958	178.8323	261.2863	318.7883	344.4725	373.3566	377.7095	484.0231	548.0861	657.8678	744.3514	755.4858	911.8297	957.4676	1027.9433	1140.0379	1157.9979	1225.4772	1291.7147	1373.9268	1432.2808	1460.7812	1476.6393	1483.4727	1526.7646	1763.0118	2350.9266	2366.9828	3034.92	3038.991	3096.4412	3117.8639	3162.6755
CN(CC#N)C(=O)C#N	CN(CC#N)C(=O)C#N	
InChI=1S/C5H5N3O/c1-8(3-2-6)5(9)4-7/h3H2,1H3	InChI=1S/C5H5N3O/c1-8(3-2-6)5(9)4-7/h3H2,1H3
