16
gdb 55331	2.34197	1.52475	1.01089	3.1024	69.81	-0.243	0.004	0.247	1135.9692	0.125526	-434.081438	-434.072832	-434.071888	-434.115976	31.104	
N	 0.0689605181	 1.3069945475	 0.1914416517	-0.540102
C	-0.0819887871	 0.1083860411	-0.4255641579	 0.396929
O	 0.5494920387	-0.2293686631	-1.409009817	-0.368316
C	-1.1193267191	-0.881803747	 0.1127776992	-0.047342
N	-0.5084922672	-2.0629244766	 0.7566891361	-0.293164
C	-1.6756863674	-2.2305107109	 1.6404040392	-0.166318
C	-2.0569209575	-0.7401641515	 1.3685705595	-0.219535
C	-1.6353973087	 0.181713708	 2.4076179017	 0.303796
N	-1.3038354829	 0.9379545491	 3.2184579121	-0.336704
H	 0.8284933427	 1.8842778116	-0.1360441454	 0.263509
H	-0.2968617769	 1.4927232164	 1.112066944	 0.283804
H	-1.7558048481	-1.1312544046	-0.7491013782	 0.106575
H	-0.2850657792	-2.8312351643	 0.1347709542	 0.238724
H	-2.4599669403	-2.8993524115	 1.2595466608	 0.10877
H	-1.4367853706	-2.5002000237	 2.6720676226	 0.13269
H	-3.1051902945	-0.5519118106	 1.1328238573	 0.136684
21.8906	110.03	147.7789	211.6748	228.2171	311.0019	408.059	432.798	447.8673	541.7204	579.9827	631.3351	713.7563	736.8653	791.6667	825.8352	941.0646	974.3997	1005.1818	1039.9642	1086.0917	1102.4135	1123.4755	1136.4594	1184.6794	1247.8316	1321.4463	1349.4389	1357.1823	1374.4478	1400.7552	1519.9305	1634.5995	1793.3294	2345.5751	2994.1879	3006.478	3093.5086	3108.9287	3547.779	3571.9338	3697.8543
NC(=O)C1NCC1C#N	NC(=O)[C@H]1NC[C@H]1C#N	
InChI=1S/C5H7N3O/c6-1-3-2-8-4(3)5(7)9/h3-4,8H,2H2,(H2,7,9)	InChI=1S/C5H7N3O/c6-1-3-2-8-4(3)5(7)9/h3-4,8H,2H2,(H2,7,9)/t3-,4+/m1/s1
