16
gdb 24697	3.70786	1.60912	1.13967	1.1887	78.32	-0.2182	-0.0201	0.1981	1021.9219	0.128345	-400.819546	-400.812949	-400.812005	-400.850885	25.786	
C	 0.0584417513	 1.3682623087	-0.2059567028	-0.099367
C	 1.4782305224	 1.8500856866	 0.1774742856	-0.345027
C	 2.1067998081	 0.5676230314	 0.67330195	 0.236901
N	 3.3668781712	 0.3732886408	 1.0214913846	-0.333635
C	 3.6722312694	-0.8596176105	 1.4627142758	-0.044201
C	 2.7440783981	-1.891780803	 1.5667490269	-0.091625
C	 1.4128487971	-1.6785068839	 1.197911987	-0.241175
C	 1.1088182625	-0.4086940848	 0.7390773995	 0.377279
O	-0.107890349	 0.0266379545	 0.3337603202	-0.283579
H	-0.7409894568	 1.9861812561	 0.2075362996	 0.124347
H	-0.072912607	 1.3054465499	-1.2914203018	 0.120512
H	 2.0153215298	 2.2795675992	-0.6719004028	 0.132087
H	 1.4584347962	 2.6075362342	 0.9687075704	 0.130856
H	 4.7078841864	-1.0228844126	 1.7461698259	 0.102524
H	 3.0590206987	-2.8627148456	 1.9331110651	 0.10113
H	 0.6613525016	-2.456478921	 1.2628181369	 0.112975
73.473	190.6672	274.0448	417.8327	442.2259	545.7484	564.6174	620.8247	692.9846	745.9455	797.3942	821.7861	842.9224	875.6132	934.0354	959.7101	973.9692	1000.2033	1061.6586	1071.2166	1123.7422	1178.0113	1201.6369	1239.4463	1258.6893	1272.2975	1306.6724	1352.622	1397.6713	1466.0573	1486.0506	1501.1737	1522.2522	1622.0189	1639.1287	3045.6114	3047.0682	3093.7422	3113.2304	3166.2701	3190.2342	3206.3196
C1CC2=NC=CC=C2O1	C1Cc2ncccc2O1	
InChI=1S/C7H7NO/c1-2-7-6(8-4-1)3-5-9-7/h1-2,4H,3,5H2	InChI=1S/C7H7NO/c1-2-7-6(8-4-1)3-5-9-7/h1-2,4H,3,5H2
