16
gdb 18046	3.6072	2.34189	1.71332	3.1433	64.69	-0.228	0.0336	0.2616	775.2038	0.133866	-379.90329	-379.896912	-379.895968	-379.933993	24.458	
C	 0.04245953	 1.5660510837	 0.1818339946	-0.181993
N	 1.4939219543	 1.5163917951	-0.1079312105	-0.313958
C	 1.3560074171	 0.1644680948	-0.7065426823	-0.021916
C	 2.4213009564	-0.8491878464	-0.3173301659	-0.161971
N	 2.3237336125	-1.3426429543	 1.0496525787	-0.263599
C	 1.2347821699	-1.2047545126	 1.669387488	 0.13946
O	 0.0608914445	-0.6385383437	 1.2815816137	-0.24458
C	-0.004114812	 0.0304234044	 0.0237903557	 0.118412
H	-0.2186640081	 1.9535513311	 1.1712137474	 0.114688
H	-0.5675666294	 2.0702666478	-0.5810558094	 0.093002
H	 1.8469326619	 2.2354533776	-0.7291706766	 0.219403
H	 1.2091249379	 0.1771627382	-1.7965821058	 0.066227
H	 2.3705820502	-1.7132114374	-0.9948618872	 0.109082
H	 3.4160496612	-0.4087775761	-0.4548132069	 0.113254
H	 1.1223525266	-1.5831911296	 2.6838024289	 0.121766
H	-0.8425043931	-0.3986787126	-0.5260526322	 0.092725
101.0459	138.7415	329.3406	375.713	482.5466	496.4127	624.4839	657.2652	785.929	805.2746	860.6281	899.7936	946.2567	960.7115	986.8026	1009.3263	1036.9906	1053.307	1105.6011	1115.5795	1154.806	1176.5263	1228.5908	1246.5751	1282.9757	1327.2426	1356.9442	1370.2793	1383.8347	1395.6293	1420.3146	1469.6419	1506.5284	1746.8802	2983.2065	3000.6176	3013.6883	3050.7961	3079.2587	3102.4054	3158.2105	3533.4975
C1NC2CN=COC12	C1N[C@H]2CN=CO[C@@H]12	
InChI=1S/C5H8N2O/c1-4-5(2-7-4)8-3-6-1/h3-5,7H,1-2H2	InChI=1S/C5H8N2O/c1-4-5(2-7-4)8-3-6-1/h3-5,7H,1-2H2/t4-,5-/m0/s1
