18
gdb 6465	3.70058	1.44453	1.3029	4.2568	67.89	-0.2693	0.0152	0.2845	1017.5859	0.1523	-384.986329	-384.977926	-384.976982	-385.019128	31.137	
C	 0.0530090382	 1.6183401256	 0.0231198501	-0.3936
C	 0.0370226575	 0.1140312645	-0.2660454865	-0.220025
C	-1.3166116613	-0.5569478068	-0.0488391276	 0.425964
C	-2.4433551721	-0.0204196729	-0.914751712	-0.442241
C	-1.2644750142	-2.095811377	 0.1008943511	-0.477341
C	-1.6536105937	-1.8153380487	 1.550298709	 0.443751
O	-1.8683860006	-2.4367531958	 2.5413729371	-0.321218
O	-1.6994677144	-0.457576596	 1.3885583765	-0.276168
H	 1.0719150077	 2.0092389632	-0.0478153218	 0.119259
H	-0.5636746617	 2.1793679702	-0.6850427697	 0.119896
H	-0.3180324708	 1.818990589	 1.0322494574	 0.142218
H	 0.3499652594	-0.079953473	-1.300105509	 0.10462
H	 0.7680202594	-0.3861869713	 0.3801433231	 0.106501
H	-2.2014043845	-0.1505891248	-1.9747428554	 0.125091
H	-3.3760342938	-0.5514797561	-0.7054827506	 0.128267
H	-2.6108385802	 1.0432305528	-0.7288362842	 0.138657
H	-2.0101519993	-2.661230151	-0.4609469169	 0.138092
H	-0.2838931256	-2.5600920418	-0.0201721705	 0.138275
80.5185	108.5314	201.0889	220.3045	252.5093	335.4934	336.301	395.9455	451.8007	527.3325	549.5535	631.8247	777.3648	809.7536	846.4565	887.6571	944.2273	973.3175	1004.5573	1031.8075	1065.7669	1093.489	1101.829	1191.7685	1231.5416	1250.6227	1273.7047	1331.7209	1381.458	1410.13	1414.7549	1457.375	1472.2242	1487.8901	1492.7615	1505.3095	1509.5331	1934.4292	3025.1957	3042.9772	3045.6726	3063.2303	3084.6003	3112.6576	3114.472	3121.4823	3127.6762	3141.2513
CCC1(C)CC(=O)O1	CC[C@@]1(C)CC(=O)O1	
InChI=1S/C6H10O2/c1-3-6(2)4-5(7)8-6/h3-4H2,1-2H3	InChI=1S/C6H10O2/c1-3-6(2)4-5(7)8-6/h3-4H2,1-2H3/t6-/m0/s1
