22
gdb 113952	3.8619	0.78231	0.74704	1.4816	83.89	-0.2272	0.0886	0.3158	1634.3594	0.192991	-404.283232	-404.273494	-404.27255	-404.318827	35.487	
C	 0.104270539	 1.0469257153	-0.5689097357	-0.229837
O	-0.2013152935	 0.1601691796	 0.4875427621	-0.236443
C	-1.3743942182	-0.5601784032	 0.2700812027	 0.111062
C	-1.327742951	-1.8109824346	-0.5748317339	-0.323028
C	-1.4874775401	-1.8969860116	 0.9341677749	-0.039943
C	-0.3679170454	-2.423469003	 1.8038497759	-0.162202
N	-0.4994675967	-3.8663430587	 1.9960311966	-0.061299
C	 0.2050518723	-4.7192026878	 1.0457381811	-0.214203
C	 0.6977244009	-4.5669933485	 2.4429102692	-0.220761
H	 1.028564711	 1.5636601567	-0.2998239983	 0.125888
H	 0.2513648189	 0.5129095777	-1.5188287128	 0.108155
H	-0.691595298	 1.7935879683	-0.7129864782	 0.105701
H	-2.2697723929	 0.0616430831	 0.2115000193	 0.082931
H	-2.1699905124	-2.054589163	-1.213078185	 0.110194
H	-0.3571761981	-2.079958514	-0.9789404743	 0.113605
H	-2.4760520512	-2.1624129869	 1.2970825176	 0.09552
H	 0.6064366635	-2.1419101512	 1.3718863617	 0.088792
H	-0.4230983486	-1.9556360966	 2.7946503406	 0.106361
H	-0.3171658008	-5.6199470523	 0.7358999527	 0.113318
H	 0.7893455302	-4.2396285916	 0.2619625096	 0.105805
H	 1.607481178	-3.9849379355	 2.5856204163	 0.106768
H	 0.5417614132	-5.3532903421	 3.1762912278	 0.113617
46.3566	85.5992	104.3469	115.9942	201.0212	221.2138	277.6692	322.0997	375.0557	434.1126	486.4475	585.2988	763.5794	784.0457	829.759	845.9347	884.1068	906.9809	921.9698	1012.2009	1015.3712	1031.5991	1051.5326	1062.9317	1102.4865	1111.2986	1117.8445	1135.6109	1150.4084	1170.7296	1173.7908	1183.3075	1202.6614	1227.874	1259.5147	1281.0738	1321.8081	1349.3588	1392.3732	1426.3578	1472.0788	1485.5025	1487.0415	1491.0289	1497.3732	1508.6674	1522.1487	2970.3947	2981.7371	3032.0419	3044.6797	3079.6171	3090.5906	3096.4165	3117.0488	3130.5274	3154.6016	3173.1142	3187.7621	3218.9867
COC1CC1CN1CC1	CO[C@H]1C[C@H]1CN1CC1	
InChI=1S/C7H13NO/c1-9-7-4-6(7)5-8-2-3-8/h6-7H,2-5H2,1H3	InChI=1S/C7H13NO/c1-9-7-4-6(7)5-8-2-3-8/h6-7H,2-5H2,1H3/t6-,7-/m0/s1
