20
gdb 126599	5.3679	0.67034	0.65459	6.3538	80.39	-0.2462	0.0201	0.2664	1772.8949	0.172089	-399.351701	-399.342475	-399.341531	-399.388045	32.429	
C	-0.0492139509	 1.5758468605	-0.0361822397	-0.382442
C	 0.0000596128	 0.0461202473	-0.0017088721	-0.166071
C	 0.7333477743	-0.4985011343	 1.2285078967	-0.167219
C	 0.7758170654	-2.0305193983	 1.2518097477	-0.190294
N	 1.4701794285	-2.5672390992	 2.4154231727	 0.001015
C	 2.8043604126	-2.8280718083	 2.556214713	 0.01546
N	 3.0781392883	-3.2485008649	 3.7649699996	-0.223966
N	 1.8881607417	-3.2681227034	 4.4660287829	-0.223953
C	 0.9534103277	-2.8586095108	 3.6466648795	 0.01546
H	 0.9586812357	 2.0043794015	-0.0518298549	 0.120694
H	-0.578014538	 1.9344965511	-0.9241179812	 0.119131
H	-0.5647290401	 1.9754573439	 0.8437502631	 0.120685
H	-1.0221202485	-0.3545685877	-0.0224949696	 0.101421
H	 0.4901681491	-0.3258760977	-0.9112350017	 0.101421
H	 1.7602241225	-0.1131448592	 1.2545874091	 0.112572
H	 0.2461619226	-0.1415926491	 2.1444275121	 0.112532
H	-0.2388619446	-2.4417763147	 1.2482105071	 0.12944
H	 1.2771322233	-2.4132804176	 0.3569042073	 0.129426
H	 3.5142383324	-2.7025098939	 1.7527223365	 0.137347
H	-0.0961664148	-2.762007195	 3.8797904518	 0.13734
18.1919	74.267	81.6867	101.5959	216.3142	246.6209	324.4236	332.7238	427.4234	654.8299	697.2126	736.3471	737.7612	793.1633	817.2404	846.6054	912.9763	937.8854	959.4502	1015.328	1024.9521	1064.0116	1086.9574	1125.5718	1130.7905	1209.5929	1227.0272	1238.8466	1292.6662	1305.0799	1328.7425	1381.1248	1381.9472	1401.1711	1405.2285	1414.6907	1480.7605	1486.0337	1496.9902	1499.2675	1500.3443	1511.9043	1553.9517	3013.4781	3027.4917	3034.4317	3040.254	3049.8863	3066.362	3096.8944	3102.1263	3108.8328	3257.3179	3261.6131
CCCCN1C=NN=C1	CCCCn1cnnc1	
InChI=1S/C6H11N3/c1-2-3-4-9-5-7-8-6-9/h5-6H,2-4H2,1H3	InChI=1S/C6H11N3/c1-2-3-4-9-5-7-8-6-9/h5-6H,2-4H2,1H3
