18
gdb 10893	2.89743	1.92552	1.50205	3.4055	72.68	-0.233	-0.0062	0.2268	924.6913	0.152695	-347.807222	-347.799133	-347.798189	-347.839326	30.501	
C	-0.091305472	 1.6104827919	 0.0192623763	-0.419802
C	 0.0741192945	 0.0958699526	 0.0316037297	-0.165265
C	 1.1330852635	-0.5977538986	-0.8719372922	 0.420715
O	 1.2629751334	-0.6612827714	-2.0629416434	-0.327767
C	 1.7745450096	-1.2945990807	 0.285980649	-0.226991
C	 2.1575214528	-0.2477929547	 1.3313237914	-0.330399
C	 0.7250472758	-0.6367592383	 1.2303573346	 0.347428
C	-0.0481558462	-1.2806508726	 2.3444205209	-0.496877
H	 0.8324147916	 2.1265851096	 0.2972589143	 0.118942
H	-0.3701927526	 1.9474885914	-0.9839321484	 0.136874
H	-0.8765732619	 1.9311799268	 0.7118728562	 0.118524
H	-0.8847673015	-0.3826775937	-0.2108144884	 0.099377
H	 2.2140664401	-2.2848984264	 0.2954375403	 0.106073
H	 2.7027174193	-0.6605600159	 2.1750382471	 0.122143
H	 2.5113056513	 0.730665992	 1.0204804498	 0.122366
H	-0.4920516597	-0.5247065299	 3.0029372778	 0.127687
H	-0.8631369071	-1.901616813	 1.9563980829	 0.124057
H	 0.5969916291	-1.9147988389	 2.9608689121	 0.122915
105.9424	179.5191	192.122	210.7465	248.7052	279.9231	351.3829	484.9477	495.798	581.0857	649.8853	708.3219	745.3853	789.5257	885.3221	916.2576	968.505	988.0045	1022.6325	1061.9319	1064.4233	1093.3959	1105.5037	1111.9881	1153.2273	1193.4619	1239.4832	1278.9907	1339.0635	1395.3241	1407.8617	1426.3394	1485.5165	1493.0791	1496.4536	1498.1194	1508.3805	1877.6237	3021.1326	3025.1263	3036.5872	3084.5584	3100.1111	3102.3909	3110.8408	3120.6953	3188.4759	3201.4516
CC1C(=O)C2CC12C	C[C@H]1C(=O)[C@H]2C[C@@]12C	
InChI=1S/C7H10O/c1-4-6(8)5-3-7(4,5)2/h4-5H,3H2,1-2H3	InChI=1S/C7H10O/c1-4-6(8)5-3-7(4,5)2/h4-5H,3H2,1-2H3/t4-,5+,7-/m0/s1
