15
gdb 49695	3.15071	1.31409	1.13646	2.3621	72.68	-0.2721	-0.0661	0.206	1070.227	0.112319	-416.773789	-416.765861	-416.764917	-416.806562	28.845	
O	-0.4775130412	 0.4492195611	-0.5974001032	-0.260507
C	 0.0880637277	 1.1298909221	 0.2238987704	 0.147395
C	 1.3185611354	 1.95154258	 0.0046152467	-0.129024
N	 2.4034746215	 1.7173301395	-0.9724698449	-0.168405
C	 1.8198648232	 1.1222159308	-2.2395267741	-0.14914
C	 0.8949355312	 2.3411691497	-2.4648105843	-0.306767
C	 1.4748391369	 2.8965008817	-1.1581918925	 0.17569
C	 1.8648727178	 4.2587557947	-0.9411992236	 0.223853
N	 2.1475964473	 5.369471041	-0.7841111682	-0.329999
H	-0.2968946129	 1.2071237341	 1.2637822532	 0.103984
H	 1.7343034491	 2.3370428279	 0.9322842186	 0.132482
H	 2.6263183858	 1.0444223704	-2.9693704406	 0.129539
H	 1.341747334	 0.156007534	-2.0960954309	 0.150196
H	 1.1740477038	 2.9492597534	-3.3254115096	 0.138304
H	-0.1798139096	 2.1600383797	-2.4700855369	 0.1424
85.816	129.2611	168.4591	213.2034	252.5628	347.601	365.0992	526.9426	544.9382	584.3334	694.3238	752.932	797.7136	842.0327	843.8587	928.1952	969.5127	978.2782	1040.3633	1092.2674	1107.6192	1175.7885	1216.6428	1223.2072	1260.1859	1294.5419	1314.2143	1413.2293	1433.8115	1477.5892	1497.8235	1807.0239	2349.3379	2900.1239	3094.882	3099.3634	3151.8185	3152.802	3174.7365
O=CC1N2CCC12C#N	O=C[C@H]1N2CC[C@@]12C#N	
InChI=1S/C6H6N2O/c7-4-6-1-2-8(6)5(6)3-9/h3,5H,1-2H2	InChI=1S/C6H6N2O/c7-4-6-1-2-8(6)5(6)3-9/h3,5H,1-2H2/t5-,6-,8?/m1/s1
