17
gdb 89946	3.21834	1.30938	1.09454	3.0625	73.01	-0.2572	0.0116	0.2688	1102.6921	0.137752	-417.980832	-417.973082	-417.972138	-418.013206	29.996	
O	 0.4218933754	 0.9100859246	-0.7000902115	-0.432502
C	 0.0263617721	-0.2473973755	-0.0370881558	 0.178287
C	 0.1474851268	-0.2982780982	 1.5271393416	-0.333195
C	-1.371056031	-0.6535415204	 1.6442211505	 0.188144
C	-2.3051215509	 0.5796640374	 1.7857173514	-0.212745
N	-2.1489506225	 0.8687809303	 0.3345835968	-0.334136
C	-1.5092462878	-0.445956107	 0.0856101621	-0.098359
C	-1.7329442647	-1.8625573507	 2.3370039093	 0.186625
N	-2.0266251111	-2.8366618309	 2.8883804044	-0.343813
H	-0.2665986171	 1.5616296602	-0.4861390357	 0.282199
H	 0.5260164084	-1.0979195238	-0.5087157142	 0.099283
H	 0.818145746	-1.0688116217	 1.9097034834	 0.129628
H	 0.4055364908	 0.6594033968	 1.985057628	 0.116159
H	-3.3215528912	 0.2916759668	 2.0736680585	 0.125282
H	-1.954485404	 1.377598495	 2.4482163293	 0.121235
H	-3.0195690068	 1.0174533562	-0.1591033966	 0.239896
H	-2.0320510024	-1.1310854792	-0.5834172414	 0.088013
84.4936	150.6751	180.5786	274.6838	328.9651	395.7038	457.3185	541.0455	564.5445	576.5133	610.3694	680.0323	741.3384	813.0105	854.3398	894.9826	949.0704	953.711	1009.6245	1018.7125	1043.1111	1069.7433	1129.5498	1145.0289	1172.4039	1176.9737	1214.9107	1252.234	1271.8363	1305.9357	1332.6839	1359.2936	1379.0221	1453.9949	1472.4704	1514.6252	2346.7957	3035.6642	3073.4927	3076.0272	3087.7559	3103.391	3137.7483	3564.8102	3666.9694
OC1CC2(CNC12)C#N	O[C@H]1C[C@]2(CN[C@@H]12)C#N	
InChI=1S/C6H8N2O/c7-2-6-1-4(9)5(6)8-3-6/h4-5,8-9H,1,3H2	InChI=1S/C6H8N2O/c7-2-6-1-4(9)5(6)8-3-6/h4-5,8-9H,1,3H2/t4-,5-,6+/m0/s1
