17
gdb 39021	3.04593	1.81001	1.3327	4.8311	72.23	-0.2329	0.0285	0.2615	952.9172	0.139588	-417.974567	-417.967892	-417.966948	-418.005495	26.881	
C	 0.0827895514	 1.5865928761	 0.0491714821	-0.118087
O	 1.5349443401	 1.4108368498	-0.1159798893	-0.269513
C	 1.4139712479	 0.0842019602	 0.2103517715	 0.450741
N	 2.2823272293	-0.7111421119	 0.6367720263	-0.30616
C	 1.6987713964	-1.9558222076	 1.15469019	-0.171421
C	 0.2946107117	-1.8097320838	 1.7575490095	-0.029577
N	 0.0325312982	-0.5953121836	 2.5500616467	-0.32474
C	-0.6513266958	-0.7679842902	 1.2578205386	-0.077404
C	-0.0887669037	 0.048868589	 0.1242592802	-0.152269
H	-0.1241434154	 2.120144071	 0.9796826871	 0.133012
H	-0.3551822647	 2.099930193	-0.8087278915	 0.119132
H	 1.6629317331	-2.7257880659	 0.3700826025	 0.106929
H	 2.3758374281	-2.3373380659	 1.9274655219	 0.117868
H	-0.1357302876	-2.7442582981	 2.1118342883	 0.088977
H	-0.6053981424	-0.8019389974	 3.313191344	 0.23578
H	-1.7166878085	-0.9836685098	 1.2572223345	 0.086074
H	-0.4348293181	-0.3550169948	-0.8328804926	 0.110657
150.2422	197.0658	283.8298	335.9307	429.5411	466.5162	508.9211	639.1446	704.2295	762.0651	773.6167	799.5046	849.0338	903.4209	926.7436	961.0989	973.4091	1020.1661	1056.5138	1067.9986	1090.7638	1118.9388	1154.427	1156.0063	1177.0274	1194.651	1232.8442	1241.6379	1266.7246	1329.3123	1360.4984	1375.5179	1390.5437	1447.8781	1490.2813	1507.3165	1824.726	3002.8534	3052.8799	3060.464	3069.2179	3126.1482	3135.7657	3140.3438	3516.106
C1OC2=NCC3NC3C12	C1O[C]2[N]C[C@H]3N[C@H]3[C@@H]12	
InChI=1S/C6H8N2O/c1-4-5(8-4)3-2-9-6(3)7-1/h3-5,8H,1-2H2	InChI=1S/C6H8N2O/c1-4-5(8-4)3-2-9-6(3)7-1/h3-5,8H,1-2H2/t3-,4-,5+/m1/s1
