17
gdb 15248	2.72416	1.68374	1.27065	4.2572	66.38	-0.2432	0.0121	0.2553	999.0252	0.140473	-400.985887	-400.977003	-400.976059	-401.019522	31.025	
C	 0.1099016202	 1.4342584563	 0.4018875594	-0.410011
C	-0.1154315639	 0.0036237014	-0.0330931727	-0.017562
C	 0.4906365122	-0.6236435231	-1.2728332855	-0.016325
C	 1.4127603937	 0.1194998524	-2.2044589878	-0.105895
O	 2.339062561	-0.8294338024	-2.7177992159	-0.416629
N	 0.9290257168	-0.9904042338	 0.0576774053	-0.062892
C	 2.1842366066	-0.8695394375	 0.6137336944	 0.134286
O	 2.4178772538	-0.3576369568	 1.6846868727	-0.311121
H	 1.085511434	 1.8186153764	 0.1007370684	 0.131609
H	-0.6672832731	 2.0795441569	-0.0202768177	 0.12069
H	 0.0596129231	 1.500538684	 1.4918247498	 0.1517
H	-1.0965266932	-0.3832587306	 0.2425287625	 0.104168
H	-0.0916786983	-1.3945026043	-1.7767540192	 0.10748
H	 0.8147507669	 0.5720722697	-3.0112522419	 0.100005
H	 1.9293293894	 0.9308649395	-1.6741553712	 0.098432
H	 2.9291423193	-0.376288861	-3.3278738075	 0.293044
H	 2.9508728314	-1.3636758573	-0.0108467032	 0.099021
84.5577	120.0091	143.4492	155.1656	197.7102	260.5253	273.9222	300.7225	411.3694	489.7031	542.2776	634.8274	798.0824	816.1929	903.9614	991.865	1034.3555	1061.4865	1072.3612	1081.8049	1093.8335	1159.1695	1181.7909	1192.566	1250.5234	1267.9883	1377.5938	1385.5094	1417.7391	1419.2674	1445.9436	1474.5752	1485.5057	1503.4486	1511.9547	1785.843	2972.7076	2979.5233	3027.2845	3049.4829	3101.9208	3116.7191	3117.9686	3141.7334	3825.393
CC1C(CO)N1C=O	C[C@H]1[C@@H](CO)N1C=O	
InChI=1S/C5H9NO2/c1-4-5(2-7)6(4)3-8/h3-5,7H,2H2,1H3	InChI=1S/C5H9NO2/c1-4-5(2-7)6(4)3-8/h3-5,7H,2H2,1H3/t4-,5+,6?/m0/s1
