14
gdb 28626	5.34039	1.05258	0.87927	3.9506	77.81	-0.2428	-0.0565	0.1862	1220.0897	0.102805	-432.948615	-432.940801	-432.939857	-432.981345	28.043	
N	-0.0261042729	 1.3326740673	 0.0083826196	-0.54358
C	-0.0022670509	-0.0148825574	 0.0008816723	 0.46965
N	-1.1960700167	-0.6442219755	 0.0042703564	-0.322976
C	-1.1409618277	-1.9674919751	-0.0033743453	-0.042408
C	 0.0553324968	-2.6893051407	-0.0142743127	 0.101334
C	 0.0839112832	-4.1541270762	-0.0225461882	 0.082165
O	 1.0911634859	-4.8276146354	-0.0318576533	-0.281972
C	 1.2272225958	-1.9160987791	-0.0167687517	-0.031156
N	 1.2205324612	-0.5954066074	-0.0094177379	-0.315674
H	 0.8399499984	 1.8407953475	 0.0061765865	 0.275566
H	-0.9084719872	 1.8117269056	 0.0161103085	 0.274796
H	-2.0967291978	-2.4919022701	-0.0007561991	 0.121556
H	-0.9236333693	-4.6300768804	-0.0191227111	 0.068017
H	 2.1943618211	-2.4131653131	-0.025100964	 0.144681
89.503	110.0022	179.9511	187.5447	314.6767	395.6222	426.613	439.7592	538.4514	583.4402	645.8722	665.6973	822.3685	838.354	891.0986	980.0657	1023.8624	1031.7931	1045.2494	1048.4044	1248.2062	1293.2512	1321.5062	1399.2432	1417.8312	1454.2594	1507.5439	1575.0846	1634.8703	1652.5182	1789.832	2866.7988	3132.4184	3170.0217	3631.7371	3772.6239
NC1=NC=C(C=O)C=N1	Nc1ncc(C=O)cn1	
InChI=1S/C5H5N3O/c6-5-7-1-4(3-9)2-8-5/h1-3H,(H2,6,7,8)	InChI=1S/C5H5N3O/c6-5-7-1-4(3-9)2-8-5/h1-3H,(H2,6,7,8)
