21
gdb 62470	2.3642	1.45723	1.2401	2.6023	82.72	-0.2342	-0.018	0.2162	1141.7092	0.17995	-387.0937	-387.084146	-387.083201	-387.128096	36.297	
C	-0.2641469898	 1.4558151168	 0.076547054	-0.434908
C	-0.0472045977	-0.0589154847	 0.0228263671	 0.1002
C	-1.3254606614	-0.7967052491	-0.3847942242	-0.434885
C	 1.1707604866	-0.4548903863	-0.8465520957	 0.400802
O	 1.412679178	-0.3294590379	-2.012503904	-0.30899
C	 1.9343114958	-1.0589880534	 0.3443935626	-0.455482
C	 0.7321918869	-0.6724378592	 1.2246304692	 0.338029
C	 0.8004017093	-0.1408081156	 2.6251677347	-0.324747
C	 0.1660705648	-1.4861268041	 2.3498801152	-0.324761
H	 0.6485629446	 1.9843417098	 0.3679134707	 0.118493
H	-0.5749062751	 1.8296493368	-0.9039696937	 0.131262
H	-1.0460553261	 1.7106052861	 0.8008961591	 0.114815
H	-1.6560372964	-0.4649880721	-1.3739449703	 0.131255
H	-1.1719088476	-1.8793918384	-0.4233650646	 0.118485
H	-2.133259793	-0.5968458909	 0.3282934831	 0.114816
H	 2.1348128425	-2.1307759116	 0.2412704526	 0.1304
H	 2.8796516651	-0.551759598	 0.5648621953	 0.130411
H	 1.7681022785	-0.1197126242	 3.1166988284	 0.113215
H	 0.1471381204	 0.6821682147	 2.8976525127	 0.11419
H	-0.9129166133	-1.5660340751	 2.4376078752	 0.114187
H	 0.702635828	-2.3793842837	 2.6543169525	 0.113217
32.6033	161.2347	201.4967	208.873	212.389	245.6707	272.9576	298.0091	355.4199	452.9713	499.3353	515.0187	540.7447	665.629	735.5638	782.5551	827.3803	869.0729	931.635	952.2593	957.5633	965.4262	991.2317	1020.404	1046.8704	1054.7926	1081.943	1140.3217	1181.9052	1187.1406	1189.1183	1202.8151	1214.4753	1291.5424	1367.1668	1392.9774	1414.3885	1438.5439	1466.3832	1480.9271	1483.0633	1495.5513	1502.6681	1509.4356	1888.2095	3027.2173	3030.4744	3042.4296	3091.0815	3095.3884	3097.9415	3109.0472	3111.9873	3121.5076	3125.1141	3198.1889	3212.9734
CC1(C)C(=O)CC11CC1	CC1(C)C(=O)CC21CC2	
InChI=1S/C8H12O/c1-7(2)6(9)5-8(7)3-4-8/h3-5H2,1-2H3	InChI=1S/C8H12O/c1-7(2)6(9)5-8(7)3-4-8/h3-5H2,1-2H3
