19
gdb 65543	2.90139	1.51667	1.31031	1.0614	80.74	-0.2541	0.0367	0.2908	1039.9338	0.1596	-385.843239	-385.835253	-385.834308	-385.875199	32.588	
O	-0.0692747147	 1.3753505041	 0.0128027207	-0.482079
C	-0.008287422	-0.0501138723	 0.0105405241	 0.248397
C	 0.4865647503	-0.6453693127	 1.3890634834	-0.276204
C	-0.817442774	-1.3265810523	 1.8420501838	-0.015195
C	-1.260953061	-2.0488037574	 0.535835318	-0.234733
C	-1.4580192199	-0.5905509107	 0.0352155005	-0.031328
C	-1.8888300487	-0.2542086347	 1.4918740286	-0.239125
C	 0.771264362	-0.5185724203	-1.1352317384	 0.264667
C	 1.4357284032	-0.8732855724	-2.0732121263	-0.453185
H	 0.8183600504	 1.7073408294	-0.1581283564	 0.280544
H	 1.3154407034	-1.3471974083	 1.2697787005	 0.105791
H	 0.8000321068	 0.1700626884	 2.0465348022	 0.101894
H	-0.8017254139	-1.8340573587	 2.8068590152	 0.060299
H	-0.5349253479	-2.6801532762	 0.0163857949	 0.100689
H	-2.2117153108	-2.5749647995	 0.6443458401	 0.09927
H	-2.0632956654	-0.3393630398	-0.8345597865	 0.072668
H	-2.9050925408	-0.5943164788	 1.7030010519	 0.094133
H	-1.7429703486	 0.7679773483	 1.8443500917	 0.109703
H	 2.0132497416	-1.1894182961	-2.9066094279	 0.193794
128.5073	148.7908	226.595	264.2695	325.4526	443.7179	446.5789	475.6057	506.7673	549.3294	616.9293	621.7117	661.4015	736.1824	823.3126	850.3775	853.9023	878.0032	912.8375	948.6263	994.1057	1001.3363	1021.9431	1029.3191	1053.768	1088.6488	1098.5293	1141.6162	1156.4583	1212.6613	1229.2107	1242.6944	1268.2079	1276.9034	1286.8152	1322.6868	1371.3309	1483.3786	1487.2178	1523.8669	2227.0892	3059.6418	3060.9677	3071.9597	3110.5912	3113.87	3121.8301	3130.2117	3135.3904	3500.3909	3814.9415
OC1(CC2CC1C2)C#C	O[C@]1(C[C@@H]2C[C@H]1C2)C#C	
InChI=1S/C8H10O/c1-2-8(9)5-6-3-7(8)4-6/h1,6-7,9H,3-5H2	InChI=1S/C8H10O/c1-2-8(9)5-6-3-7(8)4-6/h1,6-7,9H,3-5H2/t6-,7+,8-/m0/s1
