19
gdb 93016	2.856	1.31919	0.99415	2.9356	78.04	-0.2429	0.0078	0.2507	1198.7026	0.159825	-423.020187	-423.012078	-423.011134	-423.052653	32.023	
O	-0.0999981722	 1.4523812987	 0.0508145096	-0.4374
C	 0.0361214469	 0.039388053	 0.018104292	 0.113837
C	 0.7606018511	-0.5036542456	 1.25950151	-0.290325
C	 0.6115140671	-1.9976668508	 1.3923469438	-0.088356
C	-0.3204987909	-2.6961232906	 0.7425264491	-0.092109
C	-1.3075752162	-2.0604769848	-0.1648934035	 0.410772
C	-1.7277466513	-2.7688685926	-1.3916077885	-0.240193
O	-2.5811150375	-2.7281843722	-0.2519077511	-0.292226
C	-1.3712251857	-0.5482179752	-0.076640274	-0.294938
H	 0.7812988294	 1.8369316643	 0.0969215152	 0.280336
H	 0.6030177957	-0.268315782	-0.8768078421	 0.069084
H	 1.8249648796	-0.2337321715	 1.2229166353	 0.095063
H	 0.3507096156	 0.0007502508	 2.1464245998	 0.122143
H	 1.304940508	-2.5105889816	 2.0535421365	 0.095313
H	-0.4043258505	-3.7727080847	 0.8609416751	 0.096994
H	-2.0603812472	-2.1886589031	-2.2522490766	 0.113266
H	-1.3045326472	-3.7451623271	-1.6269984857	 0.109997
H	-1.9308504024	-0.2670250369	 0.8238098055	 0.118675
H	-1.8989237922	-0.1245625881	-0.9350102206	 0.110065
101.5922	146.9217	273.4781	278.9425	287.3257	372.4385	394.2675	421.8345	438.0107	481.9406	538.7964	658.1499	750.7933	799.7228	840.9697	895.0654	917.6068	932.6309	962.9134	970.1655	1002.3791	1072.2376	1082.0005	1094.7997	1131.9284	1154.5529	1158.3659	1184.4495	1232.8818	1267.1021	1290.147	1326.2164	1332.1572	1370.6828	1386.7103	1433.3017	1441.584	1476.9071	1495.088	1525.044	1713.3155	2955.9785	3004.6419	3034.8717	3042.0565	3072.2981	3100.1578	3155.7513	3159.3846	3179.605	3815.0637
OC1CC=CC2(CO2)C1	O[C@H]1CC=C[C@]2(CO2)C1	
InChI=1S/C7H10O2/c8-6-2-1-3-7(4-6)5-9-7/h1,3,6,8H,2,4-5H2	InChI=1S/C7H10O2/c8-6-2-1-3-7(4-6)5-9-7/h1,3,6,8H,2,4-5H2/t6-,7+/m0/s1
