18
gdb 115173	2.43239	1.52372	1.13123	2.324	69.46	-0.2504	0.0181	0.2686	1117.4386	0.147575	-476.224107	-476.21535	-476.214405	-476.25761	32.315	
C	-0.2529279347	 0.596922175	-0.5310830723	-0.244205
O	-0.480402963	-0.1566553617	 0.6502460469	-0.251624
C	 0.6620046029	-0.3592747291	 1.444454814	 0.052796
C	 0.1907692667	-0.8377151622	 2.8243899561	-0.104732
O	 0.039856384	-2.2745965559	 2.7211024056	-0.238067
C	 0.6875021265	-2.7161048846	 1.6193470504	 0.405279
N	 0.6391602331	-3.8682362534	 1.1079106271	-0.573611
C	 1.4948671857	-1.5889660739	 1.0101300733	 0.055194
O	 1.7044034366	-1.7576559088	-0.359965303	-0.43448
H	 0.4297121363	 0.0837662917	-1.2134392504	 0.143216
H	-1.2265062814	 0.7253439878	-1.0098169998	 0.126875
H	 0.155174747	 1.5908804609	-0.2901410617	 0.100826
H	 1.2636197311	 0.557506587	 1.5126312829	 0.077526
H	 0.9178606691	-0.6119297832	 3.6114713541	 0.118603
H	-0.7808513202	-0.4148123485	 3.0819027073	 0.138962
H	 0.0179050771	-4.4971615201	 1.6153676117	 0.232592
H	 2.4590925262	-1.5387154404	 1.5480587161	 0.094602
H	 1.4484465871	-2.6750544805	-0.5460770085	 0.300247
83.7027	127.8179	165.1034	187.9655	241.5106	289.0211	305.9244	383.7202	405.0559	485.2917	546.5109	609.3136	721.2479	790.5454	829.7511	863.5321	877.2475	953.8851	980.6293	1017.1431	1096.0536	1098.8712	1154.4025	1177.0745	1181.2388	1220.0771	1230.8008	1240.0681	1267.1654	1314.936	1360.2826	1388.3828	1419.8439	1443.0334	1479.2816	1482.3466	1503.274	1519.9732	1786.8286	2941.0849	2987.0903	3014.4159	3055.3423	3088.5652	3132.0318	3135.0398	3501.6437	3693.8526
COC1COC(=N)C1O	CO[C@H]1CO[C]([NH])[C@H]1O	
InChI=1S/C5H9NO3/c1-8-3-2-9-5(6)4(3)7/h3-4,6-7H,2H2,1H3	InChI=1S/C5H9NO3/c1-8-3-2-9-5(6)4(3)7/h3-4,6-7H,2H2,1H3/t3-,4-/m0/s1
