19
gdb 63732	2.71999	1.28972	1.17095	3.2859	77.	-0.2379	-0.0374	0.2005	1163.167	0.156437	-423.016568	-423.007264	-423.00632	-423.05065	34.379	
C	-0.5034890201	 1.5551567709	 0.1395994653	-0.439182
C	 0.036138464	 0.1352169005	-0.0326911134	 0.188638
C	-1.065671988	-0.9180936439	 0.1286034389	-0.435575
C	 0.9679881068	-0.0985482963	-1.2780245844	-0.398746
C	 2.0836753415	-0.5845174018	-0.3406887943	 0.349874
C	 2.9927905398	-1.7390135736	-0.4504362298	-0.248652
O	 3.4745093397	-0.3998409829	-0.5090845589	-0.256385
C	 1.2620788962	-0.1702890721	 0.8713866164	 0.308385
O	 1.473761696	-0.0743989255	 2.0452443829	-0.311415
H	 0.2881551606	 2.302866927	 0.0293939727	 0.122496
H	-1.2769899528	 1.7675688308	-0.6065193707	 0.119014
H	-0.9436180028	 1.6784290155	 1.1340511069	 0.134443
H	-1.8544521589	-0.7642982774	-0.6160156755	 0.121428
H	-0.6770179916	-1.9338596242	 0.0012407213	 0.117489
H	-1.5171514954	-0.85321202	 1.1234281191	 0.134036
H	 0.609990063	-0.8256285847	-2.0097205541	 0.1113
H	 1.235553385	 0.8282845933	-1.7914171316	 0.122365
H	 3.2619221989	-2.2944332783	 0.4464565815	 0.135484
H	 3.0223335281	-2.2928337474	-1.3879344424	 0.125002
47.2943	160.9568	204.331	209.5155	227.2123	234.0312	277.9988	281.3287	320.1845	390.6331	509.88	567.9442	709.3875	730.6485	769.4264	842.598	870.3254	907.8535	931.6219	966.3373	970.1582	1004.9723	1025.128	1114.5326	1133.3989	1149.8518	1158.2675	1197.6882	1213.3949	1238.6203	1289.1547	1396.7412	1408.2662	1418.4229	1479.7701	1483.1252	1485.2763	1501.9986	1505.6362	1518.0018	1887.376	3027.9268	3031.3458	3069.0438	3083.6614	3096.2502	3100.2664	3106.4074	3110.0517	3124.296	3179.271
CC1(C)CC2(CO2)C1=O	CC1(C)C[C@]2(CO2)C1=O	
InChI=1S/C7H10O2/c1-6(2)3-7(4-9-7)5(6)8/h3-4H2,1-2H3	InChI=1S/C7H10O2/c1-6(2)3-7(4-9-7)5(6)8/h3-4H2,1-2H3/t7-/m0/s1
