19
gdb 67103	2.55678	2.07733	1.75438	1.465	78.62	-0.2251	0.0906	0.3158	896.3238	0.160271	-385.797778	-385.790812	-385.789868	-385.828623	29.062	
C	-0.0650735825	 1.521741069	-0.0763828584	-0.527147
C	-0.0847149553	 0.0197664827	-0.0904575224	 0.334951
C	 0.8294393138	-0.9530414403	-0.903620588	-0.163205
C	 1.9514934104	-0.9298245492	 0.2094177155	-0.34471
C	 0.6056142384	-0.9210831138	 0.9430800615	 0.426933
O	-0.0312215139	-0.8918579083	 2.1888964831	-0.350385
C	-1.4199407908	-0.9245149591	 1.7170859003	-0.1114
C	-1.2752177954	-0.9453402122	 0.1615987659	-0.19469
C	-0.0753425037	-1.891490347	-0.0566986116	-0.076962
H	 0.9618799918	 1.9038387266	-0.0947996983	 0.121831
H	-0.589575383	 1.9398669321	-0.9427466969	 0.119767
H	-0.5465900653	 1.9119166635	 0.8274040529	 0.12552
H	 0.9842101947	-0.9775132486	-1.9805503945	 0.079528
H	 2.5653835355	-1.8302404276	 0.3024508651	 0.103714
H	 2.5680083826	-0.0284561061	 0.2725704084	 0.103612
H	-1.9061469531	-1.824240485	 2.1101756068	 0.108382
H	-1.9439107174	-0.0393916834	 2.0933872782	 0.108647
H	-2.2022562284	-0.9627041862	-0.415706374	 0.063673
H	-0.0285388385	-2.9788301771	 0.0017294565	 0.071941
183.8862	210.0508	241.3233	287.8111	430.2226	452.5454	488.2799	651.5048	687.3525	714.6607	738.1974	803.3862	836.1755	850.654	879.5849	909.4453	926.5441	927.8516	959.7872	987.2073	998.4123	1053.5358	1088.7967	1111.6614	1121.729	1126.1062	1150.0741	1162.9973	1174.5578	1205.0944	1217.7055	1251.5821	1280.957	1295.4776	1336.5322	1380.265	1411.5435	1484.7263	1493.3372	1506.435	1511.825	3023.884	3035.0932	3049.4699	3081.7144	3087.8008	3089.9991	3091.5591	3110.7849	3115.6119	3135.2788
CC12C3CC11OCC2C31	C[C@@]12[C@H]3C[C@]41OC[C@@H]2[C@@H]34	
InChI=1S/C8H10O/c1-7-4-2-8(7)6(4)5(7)3-9-8/h4-6H,2-3H2,1H3	InChI=1S/C8H10O/c1-7-4-2-8(7)6(4)5(7)3-9-8/h4-6H,2-3H2,1H3/t4-,5+,6+,7-,8-/m0/s1
