21
gdb 121403	4.22558	0.88465	0.77148	1.1445	76.65	-0.2362	0.0946	0.3308	1527.946	0.182582	-461.358053	-461.348893	-461.347949	-461.392662	33.666	
C	 0.0120086545	 1.5011080275	-0.0741017773	-0.38629
C	 0.0447827035	-0.0137193598	 0.0176710198	-0.041467
O	 0.7161564489	-0.5133616177	-1.1376510875	-0.249424
C	 0.7688706542	-1.8894708047	-1.2242555279	 0.212311
C	 1.3435695511	-2.2660343927	-2.5881596019	-0.11388
O	 1.5143076402	-3.6704089746	-2.6845236218	-0.251691
C	 2.3485741632	-4.1647094505	-1.648437319	-0.075175
C	 1.7720103234	-3.7976650797	-0.2859420098	-0.080557
O	 1.6109033335	-2.3901075437	-0.1905350903	-0.268405
H	 1.0277214806	 1.9052868606	-0.1052125259	 0.129873
H	-0.5131028689	 1.8230932495	-0.9779125561	 0.124925
H	-0.5017194581	 1.9215761245	 0.7955751908	 0.116015
H	 0.5689581605	-0.3431855997	 0.9223556799	 0.114975
H	-0.9760825247	-0.4266188773	 0.0537906865	 0.088112
H	-0.2365632621	-2.3414617831	-1.1023579309	 0.053916
H	 0.660309109	-1.9701923948	-3.3878070706	 0.114052
H	 2.2998516855	-1.7354496032	-2.715820719	 0.102766
H	 2.4001964193	-5.2502937055	-1.7757914905	 0.108062
H	 3.3642689399	-3.7470749282	-1.7419655601	 0.096131
H	 0.8042475439	-4.3069273636	-0.1466081829	 0.095769
H	 2.4438585828	-4.0963221333	 0.5243759245	 0.109982
53.9077	92.5177	108.7804	206.4042	248.6422	256.0097	324.9831	373.1944	378.1123	461.5742	511.4905	555.2288	644.6173	818.8341	847.5798	884.5372	898.0501	931.9517	1004.5431	1064.7883	1069.3572	1102.0832	1110.2366	1141.6948	1146.4467	1166.2385	1185.3853	1198.4965	1245.2225	1291.7748	1294.3288	1316.1663	1332.6019	1372.973	1392.1622	1401.1875	1411.8043	1421.6784	1451.4961	1480.3199	1484.2169	1486.3806	1492.751	1500.7128	1528.0055	2898.7801	2972.5543	2981.1212	2982.9887	2995.9354	3045.197	3054.919	3086.5826	3087.4302	3106.5194	3119.7756	3122.9003
CCOC1COCCO1	CCO[C@H]1COCCO1	
InChI=1S/C6H12O3/c1-2-8-6-5-7-3-4-9-6/h6H,2-5H2,1H3	InChI=1S/C6H12O3/c1-2-8-6-5-7-3-4-9-6/h6H,2-5H2,1H3/t6-/m1/s1
