19
gdb 106823	2.44723	1.47677	1.10513	2.1087	71.43	-0.2512	0.0663	0.3174	1133.1023	0.158738	-460.139416	-460.130534	-460.12959	-460.17287	33.629	
O	-0.0197857856	 1.2950997244	-0.4662549983	-0.426311
C	-0.0183128017	-0.017074466	 0.088611481	-0.182125
C	-1.4252243459	-0.5331689509	 0.0725075195	 0.295431
C	-2.0043269247	-1.1340281516	-1.1976029755	-0.385994
C	-1.7463042241	-2.0055830731	 0.0014323229	 0.299599
O	-0.7261718204	-2.955269206	 0.0047323806	-0.469045
C	-2.9222678812	-2.2096050451	 0.9476052079	-0.134328
O	-3.496115591	-0.9221083747	 1.1204573968	-0.257471
C	-2.4520699614	 0.0493942762	 1.0285573193	-0.140041
H	 0.8748748207	 1.6434627949	-0.4056117451	 0.286154
H	 0.6266165465	-0.7001334805	-0.4827084637	 0.096272
H	 0.3562413536	-0.0030901199	 1.1252225512	 0.087589
H	-3.0293180573	-0.9008518721	-1.4683611114	 0.121984
H	-1.3126778914	-1.2342739462	-2.027197555	 0.114472
H	-0.9509299741	-3.6399013749	-0.6340159208	 0.28872
H	-3.7076573988	-2.869375574	 0.5622501986	 0.100785
H	-2.5424158601	-2.629381946	 1.8935871073	 0.096373
H	-1.9851450292	 0.2265372723	 2.0119186908	 0.088324
H	-2.905723104	 0.9839091432	 0.687143734	 0.119612
69.762	140.5498	207.1832	235.4436	268.1326	277.5996	301.6328	347.4641	374.4718	434.2689	515.4442	583.2497	660.9874	706.3488	795.976	904.1888	925.8595	942.4772	960.0997	982.7447	1036.8053	1061.0679	1067.7392	1081.3649	1106.8704	1164.7562	1206.9703	1217.0418	1233.4537	1256.2161	1269.2548	1304.8605	1330.0463	1358.8926	1382.9862	1415.0121	1464.0338	1490.6545	1507.6513	1517.5871	1523.215	2963.5508	2969.1878	2975.9683	3014.4276	3061.2479	3087.1785	3126.3711	3219.5735	3805.7312	3824.2859
OCC12CC1(O)COC2	OC[C@@]12C[C@]1(O)COC2	
InChI=1S/C6H10O3/c7-2-5-1-6(5,8)4-9-3-5/h7-8H,1-4H2	InChI=1S/C6H10O3/c7-2-5-1-6(5,8)4-9-3-5/h7-8H,1-4H2/t5-,6+/m1/s1
