18
gdb 77244	2.32328	1.1533	0.9669	4.7435	71.14	-0.2339	0.0309	0.2648	1279.4049	0.144815	-476.218499	-476.208534	-476.20759	-476.253806	36.058	
C	-0.1270390164	 1.5178377367	 0.1311194056	-0.446127
C	 0.0339601024	 0.0201642509	 0.0476771691	 0.331721
O	-1.1073620541	-0.6834010662	-0.3650198418	-0.453344
C	 1.3540650581	-0.6060634112	-0.3432217262	-0.031131
O	 2.4380095223	 0.2582770411	-0.5585667824	-0.426956
C	 0.833832998	-0.7509301973	 1.0780293632	-0.034648
N	 1.5586963119	-0.0696135622	 2.1018243841	-0.284462
C	 1.3421796137	-0.2739342711	 3.4292472048	 0.153306
O	 0.496665155	-1.0062369036	 3.895315868	-0.321051
H	 0.7959845258	 2.0096208612	 0.4414424931	 0.125905
H	-0.4033073681	 1.9251790373	-0.8486068718	 0.112948
H	-0.9190062404	 1.7686593537	 0.842837474	 0.13607
H	-1.2851562011	-0.4485650463	-1.2835512278	 0.281675
H	 1.3078948302	-1.4793656318	-0.9913143917	 0.101869
H	 3.2482411871	-0.2564336872	-0.4718910912	 0.297158
H	 0.4227791025	-1.7009940276	 1.3974947736	 0.138009
H	 2.3193709501	 0.5247522501	 1.8090951134	 0.248166
H	 2.047849123	 0.3146382634	 4.0493976342	 0.070892
33.6684	123.9207	157.7264	184.1954	203.4689	234.1042	272.3233	295.9464	346.1836	357.6781	400.4231	498.4286	518.1402	587.8284	608.579	714.0083	772.2451	843.8135	921.3669	973.8837	1022.3229	1028.636	1054.395	1085.8937	1126.4435	1147.9403	1218.5409	1237.7937	1248.8692	1303.7221	1327.1812	1356.587	1416.287	1430.9516	1461.1365	1483.9709	1497.7987	1537.5695	1807.5286	2931.6316	3035.6426	3100.8173	3121.0887	3142.6673	3196.7026	3619.2402	3781.067	3796.2003
CC1(O)C(O)C1NC=O	C[C@@]1(O)[C@@H](O)[C@H]1NC=O	
InChI=1S/C5H9NO3/c1-5(9)3(4(5)8)6-2-7/h2-4,8-9H,1H3,(H,6,7)	InChI=1S/C5H9NO3/c1-5(9)3(4(5)8)6-2-7/h2-4,8-9H,1H3,(H,6,7)/t3-,4+,5+/m1/s1
