19
gdb 51046	2.40179	1.38246	1.14659	3.6291	75.83	-0.25	-0.0223	0.2276	1152.9937	0.156613	-423.036244	-423.026923	-423.025979	-423.070918	33.324	
O	-1.0282470502	 1.4083101097	-0.519695885	-0.244222
C	 0.0172734443	 0.8683499545	-0.2607186137	 0.173375
C	 1.3801982003	 1.5038061538	-0.4285340975	-0.393242
C	 1.3438301471	 2.8696454181	-1.0964738929	 0.243092
C	 0.5696846041	 4.0312440582	-0.3883463878	-0.252105
C	 1.75744649	 4.9893830716	-0.6606840075	-0.219556
C	 2.6397786449	 3.7604783399	-0.9992789032	-0.275087
C	 0.9437697047	 2.7466374815	-2.5498006641	 0.153612
O	 0.878868537	 1.710101173	-3.1607648711	-0.275035
H	 0.0394819983	-0.1663810762	 0.1500999748	 0.083966
H	 1.8344663544	 1.5654496472	 0.5711067779	 0.117548
H	 2.0021751357	 0.8033712323	-1.0004692181	 0.140651
H	-0.4045430768	 4.2910551675	-0.8061687482	 0.121513
H	 0.4354679025	 3.8177717053	 0.6747463651	 0.108448
H	 1.5877302413	 5.6304242804	-1.5298018608	 0.11124
H	 2.0880600717	 5.6206252839	 0.1666112272	 0.105529
H	 3.2620093868	 3.4413741196	-0.1588961803	 0.110338
H	 3.2714358269	 3.8167209117	-1.8899186316	 0.112102
H	 0.7345380771	 3.7185934478	-3.0534346631	 0.077833
78.277	87.2023	110.0079	141.4799	150.8873	263.371	275.1359	343.8601	375.3975	481.222	613.561	689.3043	727.4811	776.2855	825.0687	852.2805	896.1922	927.5002	943.6526	950.3863	984.0798	1015.7887	1063.8413	1094.2732	1151.1844	1212.1359	1216.4344	1238.0623	1254.5001	1277.6025	1288.7939	1330.7916	1354.0631	1417.4083	1422.8857	1441.6314	1474.8323	1485.0747	1505.8802	1818.6752	1830.4594	2865.387	2877.6039	3016.5612	3056.068	3060.4208	3065.0359	3072.0749	3100.5422	3115.5797	3129.0346
O=CCC1(CCC1)C=O	O=CCC1(CCC1)C=O	
InChI=1S/C7H10O2/c8-5-4-7(6-9)2-1-3-7/h5-6H,1-4H2	InChI=1S/C7H10O2/c8-5-4-7(6-9)2-1-3-7/h5-6H,1-4H2
