16
gdb 72677	2.42726	1.51154	1.4545	3.1376	69.36	-0.2701	-0.0156	0.2545	999.9751	0.123082	-437.855692	-437.847528	-437.846584	-437.888426	30.16	
C	-0.1500691662	 1.5696661781	-0.0249839842	-0.4786
C	 0.0225994867	 0.0803869001	 0.0314174125	 0.32607
C	-1.1847084233	-0.8687969465	 0.1539685716	-0.118174
O	-0.5104774295	-1.6613225362	 1.1724680219	-0.324565
C	 0.629736778	-0.7928656607	 1.1803883641	 0.212683
C	 1.6922335215	-1.1807224996	 0.1350954184	-0.124626
O	 1.0071120358	-0.4279014237	-0.8922426198	-0.320587
C	 1.0320069224	-0.3461518974	 2.4971336978	 0.23852
N	 1.3676999485	 0.0407356176	 3.5335169568	-0.334584
H	 0.8091791182	 2.0764609589	 0.1076248144	 0.142902
H	-0.5530522115	 1.855643006	-1.0028505042	 0.143603
H	-0.8428451911	 1.9133427505	 0.7482215971	 0.13874
H	-2.0988732444	-0.4158198024	 0.5543511601	 0.118288
H	-1.4058183682	-1.4477003336	-0.7471292951	 0.124887
H	 2.6936872091	-0.7794798393	 0.3271022751	 0.125833
H	 1.740297174	-2.2533305918	-0.0751450666	 0.12961
111.7456	117.4618	176.6954	202.222	264.8091	341.9144	378.7455	394.0175	537.8985	553.2392	565.4004	675.9633	713.3168	858.6339	895.6226	930.63	965.2907	991.0925	1013.5604	1046.5473	1111.0384	1140.9117	1153.0853	1175.9251	1207.3796	1233.7228	1271.6357	1344.4792	1362.0033	1414.0196	1478.0846	1485.0589	1502.0616	1504.7604	2354.2883	3033.7179	3035.1015	3042.0236	3099.3826	3101.923	3112.0224	3129.1286
CC12COC1(CO2)C#N	C[C@]12CO[C@]1(CO2)C#N	
InChI=1S/C6H7NO2/c1-5-3-9-6(5,2-7)4-8-5/h3-4H2,1H3	InChI=1S/C6H7NO2/c1-5-3-9-6(5,2-7)4-8-5/h3-4H2,1H3/t5-,6-/m0/s1
