15
gdb 128226	2.78826	1.51514	0.98779	3.4462	74.98	-0.2211	-0.0482	0.1728	1129.0164	0.114299	-450.138418	-450.130367	-450.129423	-450.171453	29.127	
C	 0.0767907598	 1.4447368212	 0.0082510769	-0.329081
N	-0.0611307573	 0.008430983	 0.0014005364	-0.354643
C	-1.2371281896	-0.6446338858	 0.0091952339	 0.219877
C	-2.5032971079	-0.1061641818	 0.020887008	-0.085983
N	-3.6445254447	-0.860221154	 0.0272190873	-0.193717
N	-3.600018885	-2.1310708837	 0.0229259754	-0.078853
N	-2.3589329707	-2.7103542425	 0.011776773	-0.297389
C	-1.1253306287	-2.1052999469	 0.0041963295	 0.437564
O	-0.065107421	-2.7160819534	-0.0052245067	-0.408162
H	 1.1370544401	 1.7006473451	-0.0017074074	 0.143642
H	-0.3958016764	 1.898184944	-0.8727986619	 0.140645
H	-0.3771169814	 1.8886506617	 0.9039464711	 0.140455
H	 0.748980256	-0.5945513079	-0.0038674198	 0.271578
H	-2.6726220692	 0.9638117316	 0.0257027779	 0.116193
H	-2.3840162241	-3.7216424006	 0.0091149062	 0.277875
89.7929	107.9485	169.0562	184.958	261.0433	346.8183	457.9058	496.7533	522.8872	560.013	616.0252	638.2076	745.5765	779.3268	796.377	882.8426	928.6015	1051.438	1074.6161	1155.7949	1159.0938	1201.836	1261.2892	1319.3526	1384.1953	1411.5348	1464.9148	1481.1045	1512.128	1519.8984	1568.9483	1642.6497	1765.5532	3008.6798	3054.3628	3139.1322	3202.0103	3602.2023	3606.7905
CNC1=CN=NNC1=O	CNc1cnn[nH]c1=O	
InChI=1S/C4H6N4O/c1-5-3-2-6-8-7-4(3)9/h2H,1H3,(H,5,8)(H,6,7,9)	InChI=1S/C4H6N4O/c1-5-3-2-6-8-7-4(3)9/h2H,1H3,(H,5,8)(H,6,7,9)
