18
gdb 14225	4.67583	1.70099	1.50051	1.8914	71.27	-0.2414	0.0812	0.3225	891.5206	0.154121	-347.753617	-347.746461	-347.745517	-347.784391	28.772	
C	 0.0455005699	 1.4381861002	 0.078864255	-0.50385
C	-0.0142934089	-0.0584197207	-0.0019805064	 0.347725
C	-1.2576304859	-0.9229746611	-0.2409004244	-0.285449
C	-0.3932564107	-2.1181491072	 0.2315452258	-0.103192
C	 0.5730124214	-1.0800365947	 0.9449793722	-0.153907
C	 1.1951392068	-0.9006505184	-0.4333427497	-0.153579
C	 0.6807403537	-2.2667140338	-0.8844918224	 0.162524
O	 1.5974695285	-3.3211231016	-0.6891063563	-0.447867
H	 1.0279711891	 1.778583183	 0.4233407048	 0.11842
H	-0.1402873049	 1.8986225692	-0.8986687683	 0.121519
H	-0.7051214507	 1.825244532	 0.7774052552	 0.118263
H	-2.0485931613	-0.674671625	 0.47400234	 0.095097
H	-1.6826040187	-0.975601574	-1.2514342863	 0.086578
H	-0.8332015349	-3.0095176664	 0.6746840712	 0.072088
H	 0.9730196743	-0.9796380993	 1.9439703338	 0.087652
H	 2.1398276413	-0.4337388486	-0.6866072501	 0.08358
H	 0.3147600788	-2.3823367161	-1.9105904207	 0.077588
H	 2.0140335121	-3.1827825176	 0.1703169166	 0.27681
179.5584	211.4799	238.8668	298.3052	329.5357	390.3799	436.4784	484.833	615.934	749.0041	796.8405	818.3999	840.7262	882.3924	900.2498	920.7409	935.7392	962.9312	1013.9538	1024.2483	1026.4782	1079.5999	1102.6659	1132.2218	1149.0131	1166.3764	1194.4344	1232.793	1245.6879	1282.2515	1291.8581	1302.269	1402.6547	1422.7698	1437.1392	1486.3029	1498.0324	1504.8205	3018.0876	3022.2027	3052.9496	3080.164	3082.0658	3092.6514	3137.428	3184.0006	3215.414	3778.5805
CC12CC3C1C2C3O	C[C@]12C[C@@H]3[C@H]1[C@H]2[C@H]3O	
InChI=1S/C7H10O/c1-7-2-3-4(7)5(7)6(3)8/h3-6,8H,2H2,1H3	InChI=1S/C7H10O/c1-7-2-3-4(7)5(7)6(3)8/h3-6,8H,2H2,1H3/t3-,4+,5+,6+,7+/m1/s1
