16
gdb 10111	3.18058	1.43143	1.03284	3.6821	67.61	-0.2517	-0.0461	0.2056	1091.3254	0.127632	-383.710346	-383.701577	-383.700633	-383.743922	31.286	
O	 0.3382956881	 1.3376975985	 0.2052246302	-0.422204
C	 0.1483484472	 0.0021489599	-0.1757361095	-0.064604
C	-1.3382207653	-0.464405247	-0.0871947926	-0.215724
C	-2.1799475713	-0.1836514644	-1.3556312796	-0.29726
C	-2.3644773294	 1.2433611082	-1.8000834438	 0.153829
O	-1.7770747982	 2.2162209328	-1.3874922893	-0.245492
C	-1.4081411746	-1.8952736065	 0.1986195274	 0.311116
C	-1.4423965238	-3.0796951027	 0.4022046489	-0.441834
H	-0.2700549653	 1.879812078	-0.3196438639	 0.300715
H	 0.5234219244	-0.2078573437	-1.1925791913	 0.08313
H	 0.737672928	-0.6062932073	 0.5154123894	 0.120383
H	-1.774239393	 0.088231994	 0.755178213	 0.125922
H	-1.7511378108	-0.7200401564	-2.2164371462	 0.149869
H	-3.1849069966	-0.6123084801	-1.2435776689	 0.142127
H	-3.1260214619	 1.3613349438	-2.6013350175	 0.10164
H	-1.4747733473	-4.1214151372	 0.6057133235	 0.198386
72.3058	110.515	154.3186	167.5885	215.2263	248.2328	319.9685	408.2141	500.295	516.8184	595.3194	637.3066	644.5648	657.0694	745.4602	845.6181	935.6444	956.1899	1019.7242	1091.1451	1105.3231	1112.1357	1209.649	1268.8543	1275.5431	1319.1855	1367.6489	1397.9959	1424.7004	1440.1292	1472.5777	1508.8598	1813.9411	2234.2237	2901.9747	2952.0889	3010.242	3031.0549	3049.7758	3089.753	3504.4128	3692.5807
OCC(CC=O)C#C	OC[C@@H](CC=O)C#C	
InChI=1S/C6H8O2/c1-2-6(5-8)3-4-7/h1,4,6,8H,3,5H2	InChI=1S/C6H8O2/c1-2-6(5-8)3-4-7/h1,4,6,8H,3,5H2/t6-/m1/s1
