16
gdb 47149	3.40717	1.12279	0.85335	2.7171	78.61	-0.2476	-0.027	0.2206	1288.4198	0.123883	-400.742266	-400.733961	-400.733017	-400.775747	30.785	
N	 0.151224319	 1.1748568731	-0.9342995579	-0.554036
C	 0.099302296	 0.0187198505	-0.4199527026	 0.357902
O	 1.0741239441	-0.9413721499	-0.5073592147	-0.248527
C	 0.6506970967	-2.1121705261	 0.2009872076	-0.1395
C	-0.7044173379	-1.7673520337	 0.740387964	-0.208919
C	-1.0178370954	-0.5239497647	 0.3738556223	 0.258689
C	-2.2424743902	 0.3010521244	 0.6445594654	-0.473399
C	-3.2539134033	-0.3790876581	 1.4432683489	 0.298796
C	-4.0790282559	-0.9521283258	 2.1024838646	-0.434392
H	 1.0287632078	 1.3136632702	-1.4364724601	 0.224901
H	 0.6334530623	-2.9629736335	-0.4931711568	 0.131304
H	 1.3823386443	-2.3374670855	 0.9883635697	 0.131306
H	-1.3086817008	-2.4422175578	 1.3307714801	 0.131935
H	-1.9333120781	 1.2347730028	 1.1329307537	 0.162805
H	-2.6660507224	 0.6226043785	-0.3162290968	 0.1628
H	-4.8199237863	-1.4423477945	 2.6840345326	 0.198335
50.742	115.7536	175.0108	245.7917	246.6265	331.6066	383.201	409.7245	531.1612	618.6779	641.5863	659.3192	719.5213	777.7494	836.2182	837.3733	872.4112	944.4134	958.9567	960.5842	1007.7826	1031.5977	1088.6198	1156.7256	1195.8432	1221.7831	1244.5702	1302.6732	1381.8218	1404.271	1449.5866	1501.0544	1714.9831	1756.8911	2243.8791	3014.4311	3025.5269	3043.3103	3045.6163	3238.0015	3486.6643	3506.0998
N=C1OCC=C1CC#C	[NH]C1=C([CH]CO1)CC#C	
InChI=1S/C7H7NO/c1-2-3-6-4-5-9-7(6)8/h1,4,8H,3,5H2	InChI=1S/C7H7NO/c1-2-3-6-4-5-9-7(6)8/h1,4,8H,3,5H2
