20
gdb 39829	2.78157	1.74443	1.37303	1.4396	81.65	-0.2257	0.0773	0.3029	1009.3516	0.173002	-365.954761	-365.947577	-365.946632	-365.986011	30.264	
C	-0.1323527974	 1.4003231164	 0.1295932519	-0.314781
C	 1.2716864293	 0.8699467353	-0.0382478007	 0.006228
C	 0.1104120359	-0.0908705076	 0.0616490883	-0.124603
C	 0.0138360173	-0.7715836705	-1.2892777773	 0.371676
C	-0.3707124433	-2.2265813734	-1.3807015668	-0.331173
C	-1.3085228206	-1.1687292959	-1.9056034299	-0.306879
C	 1.1576155783	-0.2381900611	-2.130463714	-0.109226
C	 1.1819824955	 1.1950677501	-2.5276415438	-0.258918
N	 1.9270819821	 0.7463879788	-1.3434099966	-0.106828
H	-0.3697391529	 1.8169711648	 1.1033333771	 0.110147
H	-0.6459579901	 1.8915920528	-0.6878746551	 0.116106
H	 1.9732070722	 1.0088821138	 0.7762416363	 0.095965
H	-0.065139024	-0.6904767763	 0.9487724099	 0.085729
H	 0.1557914085	-2.8469330606	-2.0991116556	 0.113658
H	-0.6381354655	-2.7397140847	-0.4627100683	 0.113244
H	-2.2118213312	-0.9592889953	-1.3425614371	 0.114152
H	-1.4181173049	-1.070537061	-2.9805577962	 0.113028
H	 1.7365811816	-0.9601298934	-2.7037175923	 0.087266
H	 1.8111117426	 1.5145415454	-3.3547125003	 0.112185
H	 0.2799274566	 1.7852047924	-2.4054269095	 0.113024
122.3771	193.0047	283.5056	332.1269	367.6952	471.7092	505.8752	557.437	662.0344	698.3922	770.0627	778.3221	805.9751	823.3489	853.6334	908.5644	914.9504	950.8175	956.0994	986.5436	1011.5458	1030.2464	1048.1367	1057.24	1072.9029	1085.5247	1090.7462	1106.1016	1112.5265	1128.8962	1160.2636	1189.7474	1203.2295	1275.2542	1280.8876	1286.5436	1333.5332	1357.2418	1414.8011	1467.465	1474.6704	1502.315	1519.0064	3111.1819	3117.2721	3123.24	3129.2641	3136.3253	3157.0549	3172.9091	3197.9001	3202.8003	3219.1308	3220.8727
C1C2C1C1(CC1)C1CN21	C1[C@H]2[C@@H]1C1(CC1)[C@H]1CN21	
InChI=1S/C8H11N/c1-2-8(1)5-3-6(5)9-4-7(8)9/h5-7H,1-4H2	InChI=1S/C8H11N/c1-2-8(1)5-3-6(5)9-4-7(8)9/h5-7H,1-4H2/t5-,6+,7-,9?/m1/s1
