20
gdb 15136	8.38463	0.65464	0.63796	2.8077	76.99	-0.2473	-0.0187	0.2286	1736.9624	0.17553	-349.005089	-348.995915	-348.994971	-349.040359	32.173	
O	-0.3588488867	 0.1012455177	-0.1469654057	-0.237819
C	-0.036826723	 1.2528928538	-0.0072689769	 0.159536
C	 1.3567441908	 1.7996766171	-0.2094733968	-0.27325
C	 1.3822390212	 2.9289698562	-1.2545449182	-0.183289
C	 2.7671016223	 3.5730478672	-1.4039058262	-0.203375
C	 2.7973176718	 4.6755720435	-2.4408420169	 0.032504
C	 2.3847020438	 6.0803435943	-2.0746497238	-0.255159
C	 3.8319691182	 5.7685830012	-2.3700883548	-0.276046
H	-0.7893216868	 2.0241783519	 0.2856669157	 0.067711
H	 1.6985443701	 2.1990530956	 0.7571619202	 0.115468
H	 2.0194018336	 0.9751181154	-0.4888805498	 0.120563
H	 1.0584147641	 2.5299848803	-2.2242783462	 0.11015
H	 0.6518402162	 3.7013978105	-0.9810093368	 0.105526
H	 3.0846132869	 3.9794798058	-0.4338297603	 0.091987
H	 3.501161028	 2.7986521748	-1.6648153769	 0.100927
H	 2.5229932925	 4.3515472597	-3.4423148634	 0.082495
H	 1.8242881388	 6.6641906627	-2.7963391764	 0.111941
H	 2.1117725742	 6.2743584042	-1.0419317477	 0.10777
H	 4.5266122225	 5.7542826077	-1.5363130257	 0.1101
H	 4.2603962616	 6.1366512903	-3.2957289535	 0.112258
51.8423	54.5397	96.1757	127.8909	136.6864	271.6127	291.7799	392.4646	436.4352	522.8926	741.9035	773.9583	801.5313	820.8091	834.4499	901.1259	922.3706	972.1361	999.4853	1043.8515	1048.1352	1066.8852	1078.6087	1110.757	1141.1916	1165.6991	1198.5189	1221.481	1231.7671	1253.3513	1292.6043	1330.3818	1332.5403	1383.631	1418.9491	1430.9325	1464.1417	1469.1701	1482.2626	1502.5333	1508.367	1836.255	2843.7701	3005.6762	3006.493	3022.4966	3036.1109	3062.2432	3096.0463	3126.6411	3129.03	3133.1683	3204.7717	3220.0267
O=CCCCC1CC1	O=CCCCC1CC1	
InChI=1S/C7H12O/c8-6-2-1-3-7-4-5-7/h6-7H,1-5H2	InChI=1S/C7H12O/c8-6-2-1-3-7-4-5-7/h6-7H,1-5H2
