19
gdb 91744	3.16552	1.38735	1.2917	2.5199	69.25	-0.2474	0.0659	0.3134	1042.7755	0.161535	-460.1697	-460.162035	-460.161091	-460.201665	30.95	
O	 0.0701128234	 1.3686374451	-0.2512431234	-0.432566
C	 0.0042017204	-0.0247318736	-0.0123516035	 0.125809
C	 0.5863565272	-0.4991035494	 1.3561724136	-0.279879
C	-0.6159045743	-1.2599720035	 1.9517638836	 0.036437
O	-1.303811331	-1.7529372434	 0.779504682	-0.284644
C	-1.4648045138	-0.4786283118	 0.1331111289	 0.056589
C	-2.1662087588	 0.387943253	 1.2014220021	-0.273485
C	-1.6717686988	-0.290145878	 2.5166345606	 0.16617
O	-2.6986291542	-0.9933287068	 3.1902307678	-0.448837
H	 0.9912961362	 1.6091793673	-0.3857100361	 0.28886
H	 0.4682564552	-0.5793700108	-0.8375740989	 0.075237
H	 1.4484815466	-1.1576230707	 1.2309016618	 0.105409
H	 0.8880141541	 0.3576445967	 1.966081218	 0.104231
H	-0.3814555496	-2.0893549013	 2.6185777849	 0.081412
H	-2.0000929	-0.6064740958	-0.806888407	 0.081606
H	-1.8848471029	 1.4384080634	 1.1225981933	 0.128815
H	-3.2539006176	 0.3099508814	 1.1417296537	 0.103934
H	-1.2618967054	 0.4177326855	 3.2408960219	 0.084989
H	-3.0021019266	-1.6738178872	 2.5763774066	 0.279912
92.413	194.2765	253.3299	267.8635	377.5822	395.1664	443.2863	458.825	525.7282	535.9254	664.4487	763.5064	795.4929	833.3112	845.8671	866.4308	928.1642	960.1125	983.8422	989.0282	1014.2338	1018.2508	1044.6096	1094.1846	1116.0372	1142.6166	1181.6832	1205.712	1238.156	1247.9832	1268.5104	1285.3257	1303.7732	1315.8992	1335.8867	1351.4514	1361.989	1423.3843	1437.576	1481.0024	1490.0754	3017.8536	3060.5557	3081.7128	3089.8289	3111.9369	3126.2567	3131.1563	3141.4784	3780.4983	3831.4443
OC1CC2OC1CC2O	O[C@H]1C[C@@H]2O[C@H]1C[C@H]2O	
InChI=1S/C6H10O3/c7-3-1-5-4(8)2-6(3)9-5/h3-8H,1-2H2	InChI=1S/C6H10O3/c7-3-1-5-4(8)2-6(3)9-5/h3-8H,1-2H2/t3-,4+,5-,6-/m0/s1
