17
gdb 64592	3.83454	1.17699	1.1571	2.9251	70.77	-0.252	-0.0367	0.2152	1101.4134	0.135571	-458.957778	-458.949773	-458.948829	-458.990401	30.05	
O	-0.0779416324	 1.413528066	-0.0128493202	-0.468974
C	-0.0625965721	 0.0315046279	-0.0039767874	 0.366058
C	 1.0319149075	-0.5500327933	-0.8098473511	 0.098848
O	 1.8209144078	 0.1488288677	-1.4064077678	-0.29223
C	-0.4654706769	-0.7471642416	 1.2448235022	-0.159345
C	-1.2051326839	 0.0563257911	 2.3002430103	-0.085026
O	-2.2841990697	 0.7026665085	 1.6404146792	-0.248411
C	-2.5977225723	 0.0289929459	 0.4298872553	-0.08503
C	-1.3633197964	-0.7647102237	 0.0388228807	-0.159323
H	 0.6739634555	 1.6625591971	-0.5748581559	 0.298123
H	 1.089753383	-1.6572692235	-0.8368197266	 0.091887
H	 0.1209558557	-1.6052627629	 1.5542775241	 0.101006
H	-1.5639636976	-0.6258338604	 3.0875254342	 0.0965
H	-0.5907784039	 0.8337328267	 2.765430671	 0.124207
H	-3.4451435193	-0.6628392847	 0.5608870452	 0.096493
H	-2.87809707	 0.7888301588	-0.3064698176	 0.124221
H	-1.4796170149	-1.6365639995	-0.5954870755	 0.100995
94.7584	170.5317	173.412	181.7009	297.2412	314.0259	387.4419	422.4893	544.3476	592.584	720.0515	744.6312	788.1005	837.4523	870.3794	924.4675	985.4426	995.9768	1005.4403	1034.9358	1042.2821	1071.3962	1120.9549	1129.9645	1144.9327	1231.5505	1233.6841	1302.0425	1313.5412	1331.992	1356.8244	1387.1324	1416.6582	1472.4351	1505.0362	1517.3201	1790.5626	2928.0257	2973.7324	2979.9954	3072.7846	3075.8777	3166.5248	3174.2722	3683.8807
OC1(C=O)C2COCC12	O[C@@]1(C=O)[C@H]2COC[C@@H]12	
InChI=1S/C6H8O3/c7-3-6(8)4-1-9-2-5(4)6/h3-5,8H,1-2H2	InChI=1S/C6H8O3/c7-3-6(8)4-1-9-2-5(4)6/h3-5,8H,1-2H2/t4-,5+,6-
