16
gdb 98727	2.34525	1.21239	0.99424	3.9121	72.32	-0.2602	-0.0367	0.2235	1225.1522	0.121757	-437.828719	-437.819617	-437.818672	-437.863138	33.05	
O	-0.3784895772	 1.6293432641	-0.1540916601	-0.425628
C	-1.1489810877	 0.6063788913	-0.7143280603	-0.142489
C	-1.256985082	-0.5703951885	 0.2380335536	 0.365824
O	-0.7430219947	-0.5094980558	 1.3370884187	-0.334419
C	-2.0296784907	-1.7882525854	-0.164841816	-0.123878
N	-2.8002177894	-1.7398354199	-1.4084485733	-0.320614
C	-1.6489512651	-2.6498488763	-1.3513445974	-0.236946
C	-0.5221923183	-2.3916270359	-2.2040922511	 0.369972
C	 0.4331134248	-2.2269254401	-2.914526155	-0.413837
H	-0.1432839683	 1.3143077133	 0.7331140295	 0.291794
H	-2.1742937806	 0.940382947	-0.9434055765	 0.125014
H	-0.7258710207	 0.2592389524	-1.6679035277	 0.136388
H	-2.415385888	-2.3388281243	 0.690404765	 0.116625
H	-3.670614562	-2.2564172769	-1.3175531378	 0.251381
H	-1.8565426383	-3.7080296819	-1.2020234575	 0.129089
H	 1.2749120382	-2.0678923732	-3.5428396342	 0.211722
60.2661	80.802	141.8745	175.3678	226.9923	261.117	334.4631	405.977	466.4457	505.929	535.5174	575.3446	632.6386	649.2564	674.2738	796.4762	813.9544	859.2123	940.2778	987.6223	1022.564	1041.2596	1120.8962	1143.8765	1190.3656	1218.3141	1240.928	1258.1721	1317.0921	1393.9336	1438.2151	1450.5435	1480.73	1781.9865	2242.9908	2985.2519	3025.8016	3122.0735	3142.0664	3500.7306	3516.4501	3687.2905
OCC(=O)C1NC1C#C	OCC(=O)[C@H]1N[C@H]1C#C	
InChI=1S/C6H7NO2/c1-2-4-6(7-4)5(9)3-8/h1,4,6-8H,3H2	InChI=1S/C6H7NO2/c1-2-4-6(7-4)5(9)3-8/h1,4,6-8H,3H2/t4-,6-/m0/s1
