19
gdb 117216	4.00357	0.73223	0.70901	2.373	73.43	-0.2512	-0.0293	0.2218	1648.9169	0.155895	-460.153172	-460.143017	-460.142073	-460.189402	35.457	
C	 0.3483859723	 1.3732455	-0.6413377607	-0.433477
C	-0.0129441994	 0.0317367072	-0.0624369456	 0.086282
O	 1.0324011342	-0.9097682071	 0.1263117406	-0.233229
C	 0.3806433054	-0.4311179452	 1.2976645008	-0.048663
C	 1.1736484409	 0.4424798816	 2.2350573444	 0.360301
O	 2.1746554412	 1.0290841426	 1.8870309321	-0.313442
C	 0.6133092048	 0.5442044767	 3.6409730469	-0.295614
C	 1.3628899169	 1.536581966	 4.5163016112	-0.077259
O	 0.7380826234	 1.5238115281	 5.7911256842	-0.424759
H	 1.2580629568	 1.7622091991	-0.1833221727	 0.165146
H	 0.5115324782	 1.2742396853	-1.7195923569	 0.131932
H	-0.4710289843	 2.0845176647	-0.4919008317	 0.119374
H	-0.9349328217	-0.4100863665	-0.4481892441	 0.097733
H	-0.2719607171	-1.1560454842	 1.7867758985	 0.097042
H	-0.4508806293	 0.8123384634	 3.5879643408	 0.132682
H	 0.6362098671	-0.4525471642	 4.1027336969	 0.138567
H	 2.4209999194	 1.246595486	 4.5749979602	 0.107841
H	 1.3287516909	 2.5344126066	 4.0553778543	 0.100901
H	 1.2147875104	 2.1327437497	 6.3624838507	 0.288641
42.3696	69.5131	104.4234	129.8972	179.3521	217.25	262.9335	272.7837	325.2059	372.1655	407.6529	442.401	588.8753	714.0218	788.2595	806.279	837.9074	897.6167	972.1149	1015.2106	1022.6515	1056.2489	1066.3236	1094.1991	1106.5094	1168.1736	1172.8845	1207.1173	1255.0704	1287.2299	1301.4774	1341.8173	1393.2249	1414.2365	1446.3139	1449.6589	1470.2648	1492.0006	1503.6932	1522.5759	1798.092	2996.2163	3022.5146	3025.8154	3041.2591	3057.4808	3079.0674	3100.9908	3101.3686	3157.3435	3832.0927
CC1OC1C(=O)CCO	C[C@H]1O[C@H]1C(=O)CCO	
InChI=1S/C6H10O3/c1-4-6(9-4)5(8)2-3-7/h4,6-7H,2-3H2,1H3	InChI=1S/C6H10O3/c1-4-6(9-4)5(8)2-3-7/h4,6-7H,2-3H2,1H3/t4-,6-/m1/s1
