15
gdb 35452	2.5448	1.4127	1.09975	1.1935	79.12	-0.238	0.01	0.248	1112.5477	0.109736	-383.371248	-383.363003	-383.362059	-383.404001	31.578	
C	-0.0282800595	-1.2256949433	-0.0532906735	-0.439721
C	 0.0058952317	-0.0265620006	 0.0183533911	 0.341849
C	 0.0526120893	 1.4212603961	 0.0920549814	-0.120431
O	-0.1355896939	 1.9614812942	 1.4368088783	-0.284553
C	 1.0762519601	 2.702143622	 1.3386529226	 0.054063
C	 2.2517864338	 1.8006398847	 1.1958904815	-0.342767
C	 1.4194640284	 2.1345562768	-0.0381641838	 0.096422
C	 1.9239517584	 2.7240407813	-1.2242746421	 0.186635
C	 2.3363688351	 3.2133114583	-2.2437879758	-0.401128
H	-0.0605877812	-2.2856040419	-0.1172406367	 0.206721
H	-0.6846620171	 1.8719592269	-0.5809034284	 0.121076
H	 1.085659528	 3.7182053667	 1.7137022495	 0.123332
H	 3.2224308087	 2.2847257712	 1.2028369411	 0.13432
H	 2.2161473959	 0.7983895978	 1.6121978854	 0.13426
H	 2.7026234723	 3.6472281598	-3.1409184707	 0.189921
93.398	131.5235	160.0379	209.7526	314.9463	426.0395	448.3244	475.4166	526.6759	552.9484	574.3298	632.4024	652.4515	663.2191	677.8722	742.8604	833.1573	891.7716	941.5106	972.6429	1004.6013	1019.4873	1042.3405	1090.1529	1101.1833	1198.3878	1222.4762	1278.8943	1354.6947	1385.352	1472.5122	2233.4282	2238.7129	3052.2517	3126.8439	3196.0009	3226.2794	3500.7959	3502.9768
C#CC1OC2CC12C#C	C#C[C@H]1O[C@H]2C[C@@]12C#C	
InChI=1S/C8H6O/c1-3-6-8(4-2)5-7(8)9-6/h1-2,6-7H,5H2	InChI=1S/C8H6O/c1-3-6-8(4-2)5-7(8)9-6/h1-2,6-7H,5H2/t6-,7+,8+/m1/s1
