16
gdb 26703	2.27199	1.63812	0.96141	1.4861	69.46	-0.1666	0.0528	0.2194	1162.845	0.124608	-471.211891	-471.202341	-471.201396	-471.245723	35.078	
N	 0.0405150928	 1.3767416597	 0.0044601089	-0.598492
C	-0.0797801145	-0.0069526896	-0.0016583597	 0.167541
C	-1.1727105651	-0.8159985542	 0.0081121254	 0.224327
N	-2.5184650728	-0.4588319502	 0.075740521	-0.620145
C	-0.708324001	-2.1837388825	 0.0025547509	 0.020352
N	-1.556621856	-3.3175305608	-0.081141376	-0.628567
C	 0.6475142672	-2.0943957808	-0.0008477029	 0.351245
O	 1.5786334216	-3.0717696367	-0.0360377546	-0.440952
O	 1.078682547	-0.8192357678	-0.0071369142	-0.230937
H	 0.5547503945	 1.7449329234	-0.7895949178	 0.237198
H	 0.4507064612	 1.753669912	 0.853942283	 0.23838
H	-2.6759187643	 0.4964229107	-0.2188538955	 0.245533
H	-3.1000434861	-1.1040465565	-0.4460798453	 0.247424
H	-1.9450209739	-3.5638352752	 0.8254187086	 0.241459
H	-1.0448851658	-4.1252546053	-0.4183999209	 0.242619
H	 2.4341659552	-2.6584902661	-0.1984805909	 0.303013
111.5953	140.3422	174.8067	187.8835	219.5011	273.1383	278.437	299.0334	344.8303	363.052	398.4257	550.9891	620.6886	624.1538	632.7829	686.0473	738.3047	766.8121	782.9002	844.4254	915.7798	1057.5144	1096.2162	1157.6156	1208.4124	1253.3142	1287.2783	1349.0761	1386.9672	1493.6915	1626.1043	1650.2271	1654.5987	1718.9488	1761.3147	3476.4669	3482.2969	3523.0618	3536.8998	3576.6678	3625.5208	3820.6561
NC1=C(N)C(N)=C(O)O1	Nc1c(N)c(N)c(O)o1	
InChI=1S/C4H7N3O2/c5-1-2(6)4(8)9-3(1)7/h8H,5-7H2	InChI=1S/C4H7N3O2/c5-1-2(6)4(8)9-3(1)7/h8H,5-7H2
