15
gdb 33591	4.05018	1.52798	1.38107	1.9516	75.53	-0.2273	0.0182	0.2455	931.8004	0.113755	-379.526392	-379.519984	-379.51904	-379.557018	26.459	
C	 0.001010803	-1.0998016428	-0.0379719323	-0.336257
C	-0.0010382857	 0.1016517169	 0.0248915673	 0.015935
C	 0.0405326642	 1.5164245324	 0.098040958	 0.354405
C	-0.9200661387	 2.4054459872	 0.8276967649	-0.073711
C	-0.0246403892	 3.6420959668	 1.0425304318	-0.064244
N	 1.3255171911	 3.0955753427	 1.3987948601	-0.325215
C	 1.262758685	 2.46929609	 0.0408592076	-0.136258
C	 0.2193642281	 3.4950028492	-0.4917862321	-0.000801
N	-0.8903635803	 2.4464981783	-0.6673937371	-0.220085
H	-0.0068108667	-2.1601265692	-0.0929677746	 0.183088
H	-1.7744878401	 2.0432277546	 1.383960954	 0.114922
H	-0.4015110329	 4.5133396133	 1.5738534332	 0.08779
H	 1.996685392	 3.8645480343	 1.3596240544	 0.217335
H	 2.1806531486	 2.1421968851	-0.4414073686	 0.092156
H	 0.3674115717	 4.2785887812	-1.2320804965	 0.09094
144.9972	157.5504	417.1929	473.905	513.4527	546.9231	593.9549	624.94	672.1271	755.7799	763.1278	807.6965	825.7391	842.6022	870.096	875.9093	905.932	929.2554	974.3911	978.1358	1022.4889	1064.8569	1114.6034	1130.5603	1168.5666	1187.4872	1201.9117	1230.1514	1256.8904	1308.3938	1344.6915	1391.7626	2238.0736	3135.4176	3147.1079	3157.1464	3209.2384	3446.8242	3502.7236
C#CC12C3C4NC1C4N23	C#C[C@@]12[C@H]3[C@H]4N[C@@H]1[C@H]4N23	
InChI=1S/C7H6N2/c1-2-7-5-4-3(8-5)6(7)9(4)7/h1,3-6,8H	InChI=1S/C7H6N2/c1-2-7-5-4-3(8-5)6(7)9(4)7/h1,3-6,8H/t3-,4-,5+,6+,7-,9?/m0/s1
