15
gdb 125784	3.4897	1.6011	1.10508	3.2763	73.16	-0.2121	0.0073	0.2195	1036.6826	0.11474	-416.819196	-416.812025	-416.811081	-416.850627	27.77	
C	-0.0168235244	 1.4988846324	-0.0110508959	-0.500737
C	-0.0079865875	 0.006254088	 0.0636955136	 0.242348
N	-0.0401649287	-0.6861603724	-1.0576198081	-0.217871
O	-0.0228258957	-2.0784417068	-0.6983834019	-0.259011
C	 0.0189683026	-2.094747198	 0.6290806255	 0.484453
C	 0.0316763948	-0.8475739887	 1.2073481814	 0.133798
C	 0.076961492	-1.0612798724	 2.625237843	-0.355859
C	 0.0888314562	-2.420647037	 2.809708379	-0.051083
N	 0.0524869132	-3.0705151278	 1.5672157019	-0.413722
H	 0.8797996435	 1.9154541339	 0.4597607023	 0.137879
H	-0.0520806772	 1.8246179923	-1.0521462257	 0.15053
H	-0.8844441761	 1.9078867747	 0.5172096765	 0.137848
H	 0.0984053641	-0.3254459336	 3.4133067994	 0.10631
H	 0.1198676031	-3.0035385528	 3.7159563241	 0.129165
H	 0.0524375299	-4.0636189818	 1.4165278548	 0.275953
145.5094	175.3271	247.733	255.7618	366.5413	414.3757	516.7056	605.1493	606.1273	614.8232	688.634	691.4763	767.7107	772.7907	818.922	869.6604	929.7798	1024.5049	1048.4431	1063.4797	1081.8809	1159.5995	1237.101	1313.2509	1363.7409	1412.4905	1454.3199	1480.4094	1497.0231	1513.5108	1526.8001	1578.4155	1623.6139	3041.1446	3097.016	3140.856	3254.5123	3275.0784	3690.7954
CC1=NOC2=C1C=CN2	Cc1noc2c1cc[nH]2	
InChI=1S/C6H6N2O/c1-4-5-2-3-7-6(5)9-8-4/h2-3,7H,1H3	InChI=1S/C6H6N2O/c1-4-5-2-3-7-6(5)9-8-4/h2-3,7H,1H3
