19
gdb 89127	4.90045	0.58432	0.55324	5.4016	74.32	-0.2671	0.0121	0.2792	1940.9768	0.157346	-460.161594	-460.151813	-460.150869	-460.198038	34.275	
O	-0.2955763513	 1.5268862792	 0.1106000685	-0.41408
C	-0.1456320013	 0.1436737527	-0.0185996203	 0.093111
C	-0.5915931609	-0.762157041	 1.1016687876	-0.328052
C	-1.4043408712	-0.6591809779	-0.1797877159	-0.025175
C	-2.7571674174	 0.020430164	-0.1719052739	-0.214701
C	-3.8500758685	-0.9009588125	 0.3609030345	-0.082433
O	-5.106194018	-0.2110776081	 0.4304647409	-0.172843
C	-6.0365383334	-0.4947542264	-0.4970351682	 0.170909
O	-7.0968939832	 0.0527510876	-0.5431153682	-0.27607
H	 0.3556710075	 1.839950156	 0.7466843583	 0.291457
H	 0.7189822397	-0.166861193	-0.604998682	 0.090226
H	-0.0314379949	-1.668144633	 1.3054141873	 0.114449
H	-1.0015618388	-0.2722923841	 1.9796033095	 0.117742
H	-1.3262637073	-1.5073375272	-0.855837266	 0.089234
H	-2.7160859069	 0.9254712769	 0.4394826122	 0.13216
H	-3.0220104056	 0.3414155018	-1.1872137298	 0.108354
H	-3.9530383715	-1.7976172148	-0.2651981461	 0.106477
H	-3.6223667121	-1.2290084337	 1.3789705061	 0.127049
H	-5.7135018547	-1.2906982564	-1.1982924545	 0.072186
35.6952	60.3645	85.1244	124.7637	169.3916	236.7199	301.6891	334.1969	378.0744	384.8487	470.5915	574.2524	672.9989	764.8487	786.8483	840.7165	895.3919	950.7643	990.9365	1036.4264	1043.9957	1049.8815	1071.1637	1087.2694	1134.8891	1141.6298	1178.0135	1206.6653	1239.6246	1267.1829	1300.045	1308.9014	1332.2191	1396.2505	1412.4057	1427.5822	1435.58	1486.8	1494.9818	1511.3694	1866.493	2932.7359	3018.9551	3035.5428	3090.8503	3098.363	3109.8401	3127.975	3136.878	3217.2537	3811.0946
OC1CC1CCOC=O	O[C@H]1C[C@H]1CCOC=O	
InChI=1S/C6H10O3/c7-4-9-2-1-5-3-6(5)8/h4-6,8H,1-3H2	InChI=1S/C6H10O3/c7-4-9-2-1-5-3-6(5)8/h4-6,8H,1-3H2/t5-,6+/m1/s1
