16
gdb 125972	3.76792	1.28599	1.11028	3.3069	71.57	-0.2448	-0.0084	0.2364	1098.5846	0.125288	-434.044377	-434.036681	-434.035737	-434.077198	28.147	
C	-0.1137387446	 1.2754066428	 1.3932308779	-0.414568
C	 0.0696695564	-0.1078193373	 0.8201803868	 0.005044
C	 0.1248527457	-0.3346287085	-0.6565166279	-0.243106
N	 1.3263122633	-0.4850154597	 0.1529504969	-0.170297
C	 2.3747504502	 0.3778216763	 0.0125946637	 0.509484
N	 2.8785561412	 0.8792881442	-1.0848493896	-0.346653
C	 3.9569671411	 1.5658309344	-0.5923304225	 0.048167
N	 4.1266809606	 1.5209629362	 0.6996870869	-0.127218
O	 3.0513491854	 0.7080041478	 1.1227618175	-0.215718
H	 0.2427730057	 2.0463724452	 0.7039814311	 0.136741
H	-1.1752214616	 1.4567607748	 1.5882711912	 0.131747
H	 0.4298032227	 1.3842297318	 2.3364332319	 0.149203
H	-0.3218576036	-0.9163161974	 1.4331686986	 0.113702
H	-0.2548029714	-1.2558576964	-1.0873771722	 0.134267
H	 0.0774188118	 0.5364915844	-1.3042812265	 0.146044
H	 4.6380030772	 2.1237547014	-1.2195458839	 0.143161
65.2404	110.0551	172.6056	228.5757	284.3978	382.2797	423.3388	557.1249	573.4929	645.653	778.6009	815.031	886.901	897.9907	915.9923	934.6874	976.0599	1005.498	1042.3395	1050.8305	1136.2396	1143.4749	1163.3015	1194.0176	1209.9824	1241.968	1292.0113	1372.4439	1401.5826	1423.6619	1486.7439	1494.8411	1513.6252	1551.4357	1625.6328	3042.3314	3112.829	3115.2275	3119.8627	3142.8103	3211.0198	3253.1581
CC1CN1C1=NC=NO1	C[C@H]1CN1c1ncno1	
InChI=1S/C5H7N3O/c1-4-2-8(4)5-6-3-7-9-5/h3-4H,2H2,1H3	InChI=1S/C5H7N3O/c1-4-2-8(4)5-6-3-7-9-5/h3-4H,2H2,1H3/t4-,8?/m0/s1
