16
gdb 124408	3.35819	1.18281	1.01068	6.0158	74.82	-0.2499	0.0134	0.2633	1179.7299	0.12426	-396.903934	-396.895539	-396.894595	-396.937914	30.44	
C	 0.0468312876	 1.4754273871	-0.1514730099	-0.379123
C	 0.013164711	-0.0494006715	 0.0655650472	-0.167172
C	 0.7039893063	-0.4337944193	 1.2957677461	 0.329313
C	 1.2856857055	-0.7135630523	 2.3081389049	-0.438991
N	-1.363799493	-0.5586676807	 0.0561743712	-0.005798
C	-2.2750585186	-0.5830573288	 1.0757926347	 0.027998
N	-3.4294830598	-1.0351112782	 0.658232748	-0.227484
N	-3.2945226843	-1.3200493113	-0.6873034007	-0.228041
C	-2.0645618308	-1.0280624819	-1.0202266639	 0.023855
H	 1.0821047926	 1.8218612055	-0.1958000303	 0.14084
H	-0.4554432112	 1.7296575618	-1.0882718471	 0.136399
H	-0.4580611201	 1.9883316031	 0.6704062263	 0.144502
H	 0.5165068244	-0.5341845685	-0.7791677587	 0.136569
H	 1.7995260307	-0.9773660988	 3.2001455835	 0.214952
H	-2.035131654	-0.281729621	 2.0828408036	 0.151591
H	-1.6285214863	-1.1385824152	-2.0015502449	 0.140588
33.3653	106.0116	157.9273	193.6707	236.0458	321.4842	378.9473	465.6893	541.	646.8651	658.8665	682.1516	695.5738	714.8936	818.5854	851.8762	869.6623	957.4265	998.0939	1023.7212	1076.5092	1092.0619	1126.1868	1200.9477	1228.7157	1275.4021	1325.3931	1371.5316	1407.5178	1415.5155	1487.4965	1491.8613	1500.2601	1542.4804	2245.8356	3042.2174	3052.8627	3135.1901	3139.5812	3258.7537	3275.9547	3499.7221
CC(C#C)N1C=NN=C1	C[C@@H](C#C)n1cnnc1	
InChI=1S/C6H7N3/c1-3-6(2)9-4-7-8-5-9/h1,4-6H,2H3	InChI=1S/C6H7N3/c1-3-6(2)9-4-7-8-5-9/h1,4-6H,2H3/t6-/m0/s1
