18
gdb 45415	2.64496	1.71755	1.69398	3.8906	74.71	-0.2273	-0.0006	0.2267	922.1125	0.151756	-402.001532	-401.994564	-401.99362	-402.032731	28.561	
O	-0.0006601575	-0.0495368745	-0.0359663892	-0.389332
C	-0.0077521332	 1.1636472959	 0.0057088724	 0.406494
N	-1.123453391	 1.9477224935	 0.1023007095	-0.284279
C	-0.9240102278	 3.4005399846	 0.0378167282	-0.063792
C	-0.1050188944	 3.7805709281	 1.3056500869	-0.187594
C	 1.1930841496	 2.9290176717	 1.2898108224	-0.215599
C	 1.2334380791	 2.0717384492	-0.0212330219	-0.170729
C	 1.0774583055	 3.0276095206	-1.1884551983	-0.081652
C	-0.0533737792	 3.7316510755	-1.1634524116	-0.063177
H	-2.0331129566	 1.5278308952	 0.0005066107	 0.249891
H	-1.8962069676	 3.8931096439	 0.0173857316	 0.07674
H	 0.1143549487	 4.8514203793	 1.2975873385	 0.103709
H	-0.7035232486	 3.5666216897	 2.1954473598	 0.104785
H	 2.0820181145	 3.5637570547	 1.3236192314	 0.107011
H	 1.2350841243	 2.2630930521	 2.155980149	 0.116014
H	 2.1255552356	 1.4503172163	-0.0749953578	 0.08773
H	 1.8467644535	 3.1168691283	-1.9465688704	 0.103979
H	-0.333704655	 4.495693616	-1.8785278313	 0.099803
92.5508	217.9817	344.9326	378.2981	414.4606	438.945	459.6899	589.1829	611.3458	654.6992	721.2412	792.796	800.9261	835.2717	855.0775	878.9746	945.9345	958.4515	968.5051	1005.3222	1026.0435	1042.4434	1087.4866	1125.6749	1155.2283	1183.3667	1252.4517	1259.6055	1269.2063	1300.0534	1319.2942	1350.5347	1360.9996	1381.2687	1436.9292	1485.5128	1505.1597	1678.0699	1815.4098	3053.0824	3064.1957	3092.9659	3112.1781	3113.0391	3132.8569	3187.8246	3211.8098	3645.7835
O=C1NC2CCC1C=C2	O=C1N[C@H]2CC[C@@H]1C=C2	
InChI=1S/C7H9NO/c9-7-5-1-3-6(8-7)4-2-5/h1,3,5-6H,2,4H2,(H,8,9)	InChI=1S/C7H9NO/c9-7-5-1-3-6(8-7)4-2-5/h1,3,5-6H,2,4H2,(H,8,9)/t5-,6+/m0/s1
