15
gdb 44724	2.55164	1.62302	1.15907	6.4965	69.69	-0.2568	-0.0423	0.2145	1032.819	0.112858	-416.788458	-416.780878	-416.779934	-416.821104	28.346	
O	 0.0454314154	 0.0088050341	-0.3941120568	-0.277506
C	-0.0028204381	 1.154115384	-0.0660180403	 0.420743
C	-1.1160600443	 2.0835818604	 0.4655797524	-0.333609
C	-0.038791314	 3.1821128212	 0.6373346906	-0.013546
N	 0.7020240826	 3.0186473451	 1.9161975818	-0.310003
C	 1.8863399649	 2.4578292921	 1.2235812247	-0.13918
C	 2.4805858389	 1.2712294207	 1.8434415388	 0.314039
N	 2.9712757508	 0.3487131215	 2.3363598994	-0.316754
C	 1.0410169611	 2.3008209692	-0.0762622373	-0.190881
H	-1.8437120057	 2.3026070809	-0.3250887868	 0.134338
H	-1.6401283879	 1.7605959486	 1.3669691647	 0.145415
H	-0.2732537074	 4.2020039342	 0.3320672687	 0.088473
H	 0.8812984927	 3.8658283941	 2.4406029045	 0.236729
H	 2.6896625876	 3.1866557679	 1.0548711039	 0.126147
H	 1.5319632534	 2.515135176	-1.0238909184	 0.115596
71.7621	89.5852	193.4655	275.6195	373.129	429.8278	475.247	543.1986	544.5945	608.6009	666.9135	735.7852	800.7898	846.6437	911.5757	933.519	991.899	1004.1535	1032.4674	1059.7388	1081.3016	1090.3423	1134.2585	1181.4617	1196.9873	1238.946	1268.7401	1309.1744	1365.0218	1395.1315	1422.0063	1902.551	2360.0508	3017.9012	3048.334	3110.5909	3128.8861	3137.4759	3561.0857
O=C1CC2NC(C#N)C12	O=C1C[C@H]2N[C@@H](C#N)[C@@H]12	
InChI=1S/C6H6N2O/c7-2-4-6-3(8-4)1-5(6)9/h3-4,6,8H,1H2	InChI=1S/C6H6N2O/c7-2-4-6-3(8-4)1-5(6)9/h3-4,6,8H,1H2/t3-,4+,6+/m1/s1
