21
gdb 96342	2.19501	1.67302	1.35673	1.9702	73.54	-0.249	0.0751	0.3241	1072.0485	0.182333	-461.369323	-461.360318	-461.359374	-461.402163	35.473	
C	 0.0437427548	 1.5097312108	-0.0347305525	-0.409385
C	-0.0417367654	-0.0126140914	 0.0398683717	 0.316679
C	-1.5142491913	-0.4517627433	 0.0124742258	-0.435628
O	 0.665641553	-0.4817949403	-1.135258895	-0.28887
C	 0.8942324315	-1.8634445457	-1.1693485115	 0.005585
O	 1.6408742616	-2.3185213354	-0.0659540134	-0.249958
C	 0.9334034253	-2.0698288953	 1.1470810479	-0.128417
C	 0.7135778527	-0.5585951896	 1.2856359367	 0.117832
O	 1.9720785289	 0.0736144021	 1.4495738565	-0.440234
H	 1.084372262	 1.8323018856	-0.0227193285	 0.13248
H	-0.4324797585	 1.8625577147	-0.9537468081	 0.115438
H	-0.466977692	 1.9630592865	 0.8203042571	 0.111043
H	-1.9832834223	-0.0971765803	-0.9097507074	 0.127972
H	-1.6491027263	-1.5343727915	 0.0633203364	 0.115699
H	-2.051724803	-0.0130812043	 0.8588821254	 0.121196
H	-0.0553009747	-2.4236109852	-1.2245665043	 0.082476
H	 1.4917358073	-2.0595594868	-2.0623616682	 0.11979
H	-0.012410512	-2.6314836693	 1.1630144635	 0.094811
H	 1.568131616	-2.4278554312	 1.9606300236	 0.120937
H	 0.1365074847	-0.3387098195	 2.1905772762	 0.082502
H	 2.5180870576	-0.2341471805	 0.7146575882	 0.288053
137.4314	172.5882	203.1263	231.6282	246.9086	309.5226	342.0638	367.9015	401.6673	418.474	447.5545	489.6803	541.8672	598.903	703.7399	797.1317	840.0646	900.7979	921.4046	937.548	976.1289	1005.8675	1026.198	1063.42	1092.8386	1117.7028	1183.1766	1193.35	1227.4725	1240.9765	1272.8941	1289.8294	1321.0646	1343.9188	1385.5082	1397.8724	1413.1858	1431.8214	1440.9091	1476.6392	1481.5413	1490.422	1497.4542	1511.2379	1523.3562	2952.983	2998.3502	3046.179	3050.9461	3060.3312	3106.3144	3108.4898	3112.8984	3120.3129	3128.0976	3157.5058	3777.6969
CC1(C)OCOCC1O	CC1(C)OCOC[C@H]1O	
InChI=1S/C6H12O3/c1-6(2)5(7)3-8-4-9-6/h5,7H,3-4H2,1-2H3	InChI=1S/C6H12O3/c1-6(2)5(7)3-8-4-9-6/h5,7H,3-4H2,1-2H3/t5-/m1/s1
