21
gdb 74709	2.8864	1.50714	1.20084	1.1516	84.42	-0.228	0.0191	0.247	1119.5558	0.184126	-387.078593	-387.07059	-387.069646	-387.110703	32.221	
C	 0.0063463084	 1.4959092367	 0.1315255421	-0.470773
C	-0.0508707345	-0.0005966193	-0.0361751542	 0.279993
C	-1.1880092086	-0.6863907302	 0.1146266221	-0.159064
C	-1.3355957971	-2.179351919	-0.0119243487	-0.057211
C	-0.1076311153	-2.9591183959	 0.5518283915	-0.26378
C	 0.5128006716	-2.9002664283	-0.8685930633	 0.136965
C	-0.9236399076	-2.7081440337	-1.426144099	-0.224208
O	 1.355182568	-1.7933937988	-1.1446360865	-0.272069
C	 1.3005964893	-0.6382935617	-0.3261630985	-0.159813
H	 0.7494252777	 1.7844462287	 0.8871384417	 0.122178
H	 0.3060746634	 1.9901030543	-0.8017784471	 0.125461
H	-0.9598955245	 1.902924454	 0.4399156786	 0.121748
H	-2.0965107174	-0.1284218659	 0.3313964164	 0.07611
H	-2.315534322	-2.4939360006	 0.3536094788	 0.061011
H	 0.4425703648	-2.5231110639	 1.3878336434	 0.103027
H	-0.3700238719	-3.990359783	 0.8031657782	 0.100334
H	 1.0682387804	-3.7784150256	-1.2094618283	 0.074834
H	-1.3982892943	-3.665938362	-1.6606249216	 0.092317
H	-1.024847866	-2.0233446923	-2.2698309616	 0.101065
H	 1.9243176852	 0.0907144559	-0.8555037549	 0.109422
H	 1.8086953704	-0.8249843095	 0.6362135408	 0.102452
124.8284	155.8326	204.9506	313.0709	331.1107	344.5031	373.2335	420.3591	474.9844	541.2741	615.3843	776.0849	795.0112	809.6148	838.2377	882.3953	886.7302	922.1785	948.8389	994.1373	1005.314	1027.865	1062.9609	1080.0471	1085.1709	1087.3649	1141.5231	1157.8676	1199.8874	1216.0602	1251.8313	1267.6648	1278.8846	1293.8018	1363.1289	1366.0691	1384.5057	1410.0379	1417.402	1459.0758	1477.2648	1482.3197	1490.1504	1500.2691	1729.733	2946.6042	3011.06	3051.1439	3055.0248	3056.8317	3059.7481	3069.9897	3079.9637	3113.1628	3120.1781	3125.7595	3143.7177
CC1=CC2CC(C2)OC1	CC1=C[C@@H]2C[C@@H](C2)OC1	
InChI=1S/C8H12O/c1-6-2-7-3-8(4-7)9-5-6/h2,7-8H,3-5H2,1H3	InChI=1S/C8H12O/c1-6-2-7-3-8(4-7)9-5-6/h2,7-8H,3-5H2,1H3/t7-,8+
