16
gdb 17526	4.66042	1.76885	1.64786	2.2304	63.15	-0.2351	0.062	0.2971	818.7967	0.130731	-383.663924	-383.657202	-383.656258	-383.694847	26.352	
O	-0.0135186912	 1.4300969011	-0.1080745416	-0.416327
C	 0.0800808101	 0.0189670717	-0.0243291269	-0.189238
C	-1.2827353343	-0.5897375866	 0.1227126049	 0.41549
C	-2.2257562558	-0.3727619051	 1.3375735581	-0.256595
C	-2.9796363183	-1.5894917929	 0.8025901824	-0.121027
C	-2.8411903561	-1.4794549164	-0.7253450414	 0.104866
O	-2.1513160556	-0.265618552	-1.0190801809	-0.346
C	-1.7434070525	-2.0998007931	 0.063795467	-0.215897
H	-0.6380075048	 1.6210752257	-0.8180546086	 0.299572
H	 0.5778619835	-0.4099556394	-0.9079604285	 0.097757
H	 0.6927462566	-0.2107067587	 0.8538001737	 0.112758
H	-1.7208126945	-0.5971276258	 2.2806617447	 0.10467
H	-2.7335228071	 0.5941842807	 1.3903476495	 0.105159
H	-3.7588502173	-2.1722442125	 1.2765962256	 0.093633
H	-3.540113138	-1.8779613286	-1.4483592379	 0.109938
H	-1.2311510547	-3.050984088	 0.0321346198	 0.10124
86.8921	161.6472	297.769	365.7875	414.6579	460.9259	548.0308	687.067	757.1742	769.6717	783.4445	814.4129	860.3344	913.482	931.6645	963.8595	996.3191	1021.529	1033.3637	1054.4503	1061.1675	1080.5058	1096.4003	1143.7684	1177.3898	1223.2562	1229.5254	1289.9042	1333.6521	1356.1382	1384.9894	1441.0837	1486.9335	1494.6264	2986.4301	3056.8499	3076.8433	3118.0575	3199.9275	3206.2467	3221.858	3796.3489
OCC12CC3C(O1)C23	OC[C@@]12C[C@H]3[C@@H](O1)[C@@H]23	
InChI=1S/C6H8O2/c7-2-6-1-3-4(6)5(3)8-6/h3-5,7H,1-2H2	InChI=1S/C6H8O2/c7-2-6-1-3-4(6)5(3)8-6/h3-5,7H,1-2H2/t3-,4+,5-,6-/m1/s1
