17
gdb 59015	3.65145	1.08597	0.86566	2.8899	70.23	-0.2448	-0.0158	0.229	1298.4311	0.135914	-455.199732	-455.191009	-455.190065	-455.23353	32.178	
C	 0.025598169	 1.5441498478	 0.4805723012	-0.400609
C	-0.0733034845	 0.1189266333	-0.0487962547	 0.024587
O	 0.775959764	-0.7978570472	 0.6401635262	-0.42984
C	-1.4959917194	-0.3973037233	-0.0547488222	 0.354711
N	-2.557161045	 0.3163390269	-0.1101048019	-0.308238
C	-3.6769703301	-0.627812619	-0.1381837664	-0.303608
C	-3.0688079481	-2.0371883522	-0.0619223009	 0.400813
O	-3.6005463557	-3.118239593	-0.032343583	-0.357993
N	-1.7034717247	-1.7734399658	-0.0302118568	-0.362735
H	 1.0560964147	 1.898666433	 0.4034817411	 0.125649
H	-0.6338506309	 2.2048779028	-0.0854684834	 0.154259
H	-0.2895814476	 1.5885542836	 1.5290180718	 0.118191
H	 0.2851948719	 0.0903053439	-1.0862494872	 0.123968
H	 0.641448821	-0.6685065771	 1.5861246876	 0.287595
H	-4.3617616624	-0.4569568009	 0.6996116596	 0.149082
H	-4.2640719744	-0.5150514819	-1.056671245	 0.150788
H	-0.9715753179	-2.457700171	 0.0742960039	 0.27338
53.3727	117.8379	176.1929	208.0034	232.5894	316.0275	346.3385	418.1283	441.231	525.1625	531.639	587.1616	605.7414	687.5364	762.5258	874.5908	896.9749	967.0286	975.4302	1023.4312	1052.0788	1077.3334	1137.1568	1171.3924	1178.8478	1233.3537	1280.6162	1293.0578	1343.5782	1404.2068	1411.9347	1433.0229	1440.2565	1486.1113	1490.8115	1695.9467	1855.6283	3029.7768	3044.3648	3051.0497	3085.4817	3117.1377	3146.2162	3657.4616	3795.7634
CC(O)C1=NCC(=O)N1	C[C@@H](O)C1=NCC(=O)N1	
InChI=1S/C5H8N2O2/c1-3(8)5-6-2-4(9)7-5/h3,8H,2H2,1H3,(H,6,7,9)	InChI=1S/C5H8N2O2/c1-3(8)5-6-2-4(9)7-5/h3,8H,2H2,1H3,(H,6,7,9)/t3-/m1/s1
