17
gdb 26672	2.22079	1.64202	0.95487	0.9074	73.29	-0.1675	0.0492	0.2167	1195.286	0.135264	-455.164564	-455.154684	-455.15374	-455.199003	35.49	
C	 0.1886293585	 1.4660199261	-0.0202488113	-0.497067
C	-0.0533153975	 0.0032445433	-0.0239027135	 0.267991
C	-1.1557841471	-0.7868966842	 0.0834112062	 0.132846
N	-2.4988638268	-0.4428480345	 0.2753017188	-0.619423
C	-0.7144471835	-2.16358941	 0.0247068663	 0.019712
N	-1.5933975132	-3.2791149334	 0.0375290623	-0.627584
C	 0.6345299357	-2.0940048341	-0.1152328822	 0.347787
O	 1.552173622	-3.0727971652	-0.2425273379	-0.438036
O	 1.0711361885	-0.8221875439	-0.159968127	-0.239634
H	 0.8840003316	 1.7691316401	 0.7732466109	 0.128669
H	 0.599799613	 1.8330867933	-0.9702894037	 0.123075
H	-0.7544661499	 1.9907852949	 0.1583620147	 0.124704
H	-2.7697469857	 0.4095079247	-0.197138015	 0.238338
H	-3.0951721667	-1.2075388347	-0.0231467243	 0.248705
H	-1.7437451641	-3.6328801014	 0.9784096444	 0.242052
H	-1.2187641872	-4.0447364277	-0.5118849904	 0.242939
H	 2.3959262123	-2.6602381132	-0.4607248281	 0.304925
91.1982	130.6553	142.8123	184.3909	197.4512	237.7002	256.499	292.8231	305.1155	321.4633	381.4302	548.3246	610.2311	615.1967	630.9615	691.1169	743.3228	793.0906	836.2777	906.7464	971.4327	1062.8018	1087.8029	1160.9267	1181.5607	1244.1125	1260.0068	1335.2537	1385.6744	1421.2099	1468.117	1481.4835	1498.8272	1641.0228	1652.1897	1696.2984	1747.6458	3004.7656	3045.2422	3106.574	3484.2849	3516.4251	3570.1702	3615.9002	3817.6483
CC1=C(N)C(N)=C(O)O1	Cc1c(N)c(N)c(O)o1	
InChI=1S/C5H8N2O2/c1-2-3(6)4(7)5(8)9-2/h8H,6-7H2,1H3	InChI=1S/C5H8N2O2/c1-2-3(6)4(7)5(8)9-2/h8H,6-7H2,1H3
