18
gdb 61941	2.15838	0.98354	0.71877	4.4428	78.98	-0.2653	0.0231	0.2884	1552.7554	0.144045	-401.918535	-401.908209	-401.907265	-401.955237	35.931	
C	 0.0059370727	 1.5175980552	 0.0331566756	-0.408054
C	 0.0108504749	-0.0114015966	-0.0134329495	 0.148747
C	-1.4216783559	-0.5698979151	-0.0843150336	-0.348869
C	-1.4601236309	-2.0251476862	 0.0379824058	 0.269286
N	-1.4888417195	-3.1735344409	 0.1594071834	-0.30604
O	 0.6729929952	-0.5022499139	-1.1684383103	-0.255395
C	 2.0815596909	-0.6115216325	-1.0326577432	-0.216975
C	 2.6561706061	-1.1005543975	-2.2777380561	 0.28379
C	 3.1578191142	-1.499757281	-3.2926252233	-0.411736
H	 1.0258605943	 1.9111396486	 0.0443806484	 0.128627
H	-0.5055794708	 1.9232216228	-0.8450259446	 0.133512
H	-0.4993239164	 1.8796311671	 0.9340919635	 0.122943
H	 0.497074929	-0.4086399074	 0.891014508	 0.090271
H	-2.0352214393	-0.1314136739	 0.7095729083	 0.149341
H	-1.8636865526	-0.2785048538	-1.0433805345	 0.162692
H	 2.5326018463	 0.3617415599	-0.7823013751	 0.121392
H	 2.3296927819	-1.3018935676	-0.2100951888	 0.131963
H	 3.5940403098	-1.8590338274	-4.1918587738	 0.204505
33.8091	61.2574	95.3995	126.7785	163.8849	220.9826	276.0794	319.311	327.8148	389.8249	405.3678	451.0038	538.8043	572.7457	613.2622	681.6287	853.2227	885.5483	916.2224	970.597	979.3368	1030.7211	1074.0548	1112.8057	1121.9408	1153.5362	1254.3692	1257.843	1310.1757	1365.7946	1380.2941	1408.3821	1433.2131	1452.7848	1489.4615	1492.7027	1503.4157	2250.4808	2367.4838	2969.3574	2987.9036	2994.1692	3041.9245	3053.0067	3096.9863	3115.5207	3121.4081	3505.8714
CC(CC#N)OCC#C	C[C@@H](CC#N)OCC#C	
InChI=1S/C7H9NO/c1-3-6-9-7(2)4-5-8/h1,7H,4,6H2,2H3	InChI=1S/C7H9NO/c1-3-6-9-7(2)4-5-8/h1,7H,4,6H2,2H3/t7-/m0/s1
