16
gdb 30087	2.52162	1.85137	1.07468	3.7664	76.97	-0.2029	-0.0308	0.1721	1067.2565	0.125891	-434.087417	-434.07931	-434.078366	-434.120412	30.049	
C	-0.4113401558	 1.3862116783	 0.0249772777	-0.326107
N	-0.0231135826	-0.0153500859	-0.0195200203	-0.117361
C	 0.0458533947	-0.7129833476	-1.2155880263	-0.064534
C	 0.400812738	-1.9961632429	-1.2604971446	-0.042458
O	 0.7199651429	-2.7054352039	-0.1238582444	-0.234141
C	 0.6768967574	-2.0926592655	 1.0952802035	 0.342631
N	 0.9629457595	-2.7115972774	 2.1610739975	-0.51354
C	 0.2781215163	-0.6393361599	 1.1767288704	 0.308658
N	 0.2136747915	 0.0048350584	 2.2761158178	-0.537095
H	 0.3868136377	 1.9885930824	 0.4681586704	 0.153197
H	-0.6144154995	 1.7292028858	-0.9903947489	 0.123962
H	-1.3023896311	 1.515111052	 0.6460703053	 0.153167
H	-0.2024451961	-0.1664880731	-2.1137145282	 0.135766
H	 0.4731962889	-2.5923705297	-2.1555710547	 0.139394
H	 1.213744331	-3.6805842668	 1.963858081	 0.232024
H	 0.4710766073	-0.6278820739	 3.0338538539	 0.246436
78.9334	114.3188	137.9796	197.1035	332.6548	376.344	478.5211	479.4656	525.0181	531.3522	558.4802	707.4939	708.2055	774.1071	842.8777	862.8655	870.5316	904.5221	985.2013	1002.8875	1098.9345	1122.9222	1154.1469	1219.0236	1261.4693	1284.4504	1352.5162	1431.3079	1442.0203	1465.5012	1478.9022	1517.0174	1690.5007	1723.7221	1746.5564	3046.6946	3106.7412	3146.2724	3238.9913	3273.0732	3493.4772	3496.6504
CN1C=COC(=N)C1=N	CN1C=COC(=C1[NH])[NH]	
InChI=1S/C5H7N3O/c1-8-2-3-9-5(7)4(8)6/h2-3,6-7H,1H3	InChI=1S/C5H7N3O/c1-8-2-3-9-5(7)4(8)6/h2-3,6-7H,1H3
