15
gdb 123650	4.01882	1.57228	1.22859	3.9888	70.32	-0.2511	-0.0096	0.2414	960.7526	0.116166	-416.773635	-416.76753	-416.766586	-416.804041	24.866	
C	-0.0513303055	 1.5502698545	 0.0022782815	-0.367637
C	 1.4468054584	 1.9122093732	-0.0409644971	-0.024333
N	 2.1864738136	 1.4848772549	 1.1565427056	-0.323585
C	 2.2922001849	 0.6720258101	-0.0860276366	-0.216225
C	 1.3229969411	-0.4467295299	-0.0539232222	 0.454306
N	 1.4021638128	-1.7469058691	-0.0876369222	-0.263763
O	 0.0652016234	-2.166915086	-0.004237593	-0.177909
C	-0.7470534286	-1.0866012619	 0.0769015079	-0.078048
C	-0.0091188547	 0.0455500977	 0.0406349719	 0.14766
H	-0.5337331919	 1.9947388695	 0.8785170129	 0.132842
H	-0.5656766221	 1.926838099	-0.8889932205	 0.120504
H	 1.7551385615	 2.8194406274	-0.5496088465	 0.09748
H	 3.0304692535	 2.0462557468	 1.2503114278	 0.238352
H	 3.2348691366	 0.609512936	-0.6149585289	 0.110175
H	-1.8002974629	-1.3111725723	 0.1408479594	 0.150179
163.7319	241.535	364.3452	436.1958	447.2844	593.017	606.5373	702.6378	748.4766	783.443	821.649	828.2612	846.8795	884.4639	888.7875	936.9693	959.8932	995.9427	1060.079	1108.9429	1123.8791	1132.2391	1176.6659	1195.9525	1221.1627	1277.7594	1303.3028	1353.929	1394.2709	1419.7568	1475.1146	1568.4773	1675.6312	3043.4023	3084.3745	3169.2007	3198.0147	3265.4005	3493.5089
C1C2NC2C2=NOC=C12	C1[C@H]2N[C@H]2c2nocc12	
InChI=1S/C6H6N2O/c1-3-2-9-8-5(3)6-4(1)7-6/h2,4,6-7H,1H2	InChI=1S/C6H6N2O/c1-3-2-9-8-5(3)6-4(1)7-6/h2,4,6-7H,1H2/t4-,6-/m1/s1
