20
gdb 45576	2.74089	1.5168	1.17632	2.7713	78.94	-0.2561	0.0293	0.2853	1106.0072	0.174306	-403.172658	-403.164986	-403.164042	-403.205166	30.269	
N	-0.0630235146	 1.2500432609	-0.4268191264	-0.551075
C	-0.0082589087	 0.0422438693	-0.0919072878	 0.429517
O	 1.0552421267	-0.7316435857	 0.3167840423	-0.271481
C	 0.1656169465	-1.8667869352	 0.6348019605	 0.10467
C	 0.1457892716	-2.1481473586	 2.1443567785	-0.218483
C	-1.2662364356	-2.141044436	 2.7531709515	-0.194556
C	-2.033844309	-0.8729423217	 2.3595293472	-0.200632
C	-2.2972567821	-0.8504532922	 0.8480494058	-0.222382
C	-1.0275067347	-1.0723369451	 0.0257137316	-0.145017
H	 0.8568243858	 1.6919316573	-0.3800108495	 0.22498
H	 0.4770040466	-2.7382357925	 0.0546514367	 0.0912
H	 0.6501668896	-3.096099859	 2.3566688925	 0.101223
H	 0.7414886876	-1.3630236274	 2.6226604221	 0.121487
H	-1.8285745943	-3.0230322953	 2.4166520854	 0.094951
H	-1.1853050724	-2.2232897121	 3.8421327763	 0.099979
H	-2.9868608459	-0.8196655609	 2.8961799147	 0.097449
H	-1.4562987784	 0.0129046242	 2.6551786655	 0.108913
H	-3.0175563642	-1.6419352297	 0.6061507782	 0.097493
H	-2.7526003694	 0.0961512977	 0.5390690213	 0.124662
H	-1.2810456451	-1.4412046779	-0.9725509563	 0.107103
77.952	95.4119	206.8982	322.2679	373.4454	427.25	455.2946	468.3144	580.2849	645.6975	744.9079	772.1334	783.2108	853.6654	864.7313	877.8659	890.8797	950.3955	959.8235	1002.536	1024.8536	1055.1824	1080.7246	1105.1147	1138.9857	1152.2217	1171.3212	1226.603	1247.9917	1284.5931	1292.1962	1326.8557	1339.9332	1354.2293	1371.0625	1381.6621	1387.7431	1395.9776	1480.2978	1486.4732	1492.2705	1501.5828	1819.7385	3013.8139	3023.0073	3028.2003	3042.4765	3063.9637	3069.7476	3073.3519	3078.219	3080.785	3094.0224	3473.4253
N=C1OC2CCCCC12	[NH][C]1O[C@H]2CCCC[C@@H]12	
InChI=1S/C7H11NO/c8-7-5-3-1-2-4-6(5)9-7/h5-6,8H,1-4H2	InChI=1S/C7H11NO/c8-7-5-3-1-2-4-6(5)9-7/h5-6,8H,1-4H2/t5-,6+/m1/s1
