18
gdb 106199	3.47053	1.49552	1.44606	1.3047	73.72	-0.224	0.0759	0.2999	981.363	0.148538	-401.87085	-401.863641	-401.862697	-401.902576	28.609	
C	-0.2309588968	 1.3091959875	 0.0122637265	-0.261138
O	 0.2183561696	-0.0346491876	-0.0814091456	-0.285922
C	 0.7617374241	-0.5072419152	 1.0831325251	 0.447007
C	 0.0134190164	-0.9247964426	 2.3318246188	-0.170322
C	 0.7941822457	-0.4648963692	 3.5473168946	-0.170642
N	 2.182066654	-0.5280191159	 3.0605650159	-0.117056
C	 2.300215054	-1.6302829555	 2.0866416789	-0.05427
C	 0.8668151723	-1.9288386248	 1.5603314453	-0.193981
C	 2.207511695	-0.2206808609	 1.6211451789	-0.153616
H	 0.5887352181	 1.9932658761	 0.2720312118	 0.115948
H	-0.6234987849	 1.5815796719	-0.9696138666	 0.130059
H	-1.0254285635	 1.41344206	 0.7637021627	 0.11329
H	-1.0653328454	-1.0158639294	 2.3013429118	 0.095728
H	 0.5558471046	 0.5605456068	 3.8488357736	 0.105015
H	 0.6810378174	-1.1248804495	 4.413318284	 0.108142
H	 3.1356523551	-2.3153122727	 2.1465658429	 0.095804
H	 0.4992361089	-2.8443321535	 1.1213400162	 0.099645
H	 2.9462026952	 0.4584979344	 1.2145234852	 0.096309
90.0766	161.73	169.1151	354.4096	383.3292	419.8873	545.1812	615.8943	734.4873	754.1879	772.3993	772.6292	822.1708	853.5815	886.3687	927.8584	941.0285	964.7478	984.8152	999.2944	1025.2589	1052.7267	1062.009	1088.8101	1129.5659	1174.9079	1179.1699	1206.4161	1213.8721	1227.1486	1234.4224	1272.0091	1298.4228	1329.4685	1429.8214	1486.4223	1496.2653	1498.5891	1505.8037	2996.496	3046.2826	3051.4709	3091.8395	3126.0625	3189.0515	3200.8552	3202.4483	3231.634
COC12C3CN4C(C13)C24	CO[C@@]12[C@@H]3CN4[C@@H]([C@H]13)[C@@H]24	
InChI=1S/C7H9NO/c1-9-7-3-2-8-5(4(3)7)6(7)8/h3-6H,2H2,1H3	InChI=1S/C7H9NO/c1-9-7-3-2-8-5(4(3)7)6(7)8/h3-6H,2H2,1H3/t3-,4-,5+,6+,7+,8?/m1/s1
