17
gdb 27164	2.98775	1.39655	1.00462	1.6026	75.72	-0.1879	0.0277	0.2156	1149.9301	0.139252	-414.192796	-414.184691	-414.183746	-414.225704	30.669	
N	-0.0279472247	 1.3573203959	-0.2054078118	-0.594022
C	-0.0495800444	-0.0312058396	-0.0851801655	 0.21791
C	-1.1343514732	-0.8776674446	 0.0400513033	 0.224033
N	-0.5573681866	-2.1332139909	 0.2467459393	-0.302813
C	 0.7855176275	-1.9792620748	 0.2094380629	 0.008448
N	 1.1309376812	-0.7241451867	 0.009699385	-0.305422
C	-2.5908002848	-0.6687051907	 0.0438836041	-0.147864
C	-3.2279724185	 0.192398253	-0.9889029111	-0.233091
N	-3.4428579988	-1.2599721209	-1.0262597131	-0.31749
H	 0.8178404862	 1.6774239734	-0.6580461415	 0.249457
H	-0.8516220951	 1.7476550734	-0.640613869	 0.239088
H	-1.0632662052	-2.9936052067	 0.3744909626	 0.266816
H	 1.4692688708	-2.8066571771	 0.3265243008	 0.129296
H	-3.0886506701	-0.7130512773	 1.0123397234	 0.103367
H	-4.1030435588	 0.7810421073	-0.7298099793	 0.12311
H	-2.5895113953	 0.6358872764	-1.7484975924	 0.110238
H	-2.8328324203	-1.6562983001	-1.7387143077	 0.22894
74.5618	130.8102	158.2669	249.8492	293.3136	347.1613	399.8923	471.4715	504.7558	615.7377	667.3674	692.2923	729.8421	768.8074	804.5113	830.4501	876.1675	956.6163	960.3986	1004.9233	1050.1751	1107.5745	1131.1682	1145.2183	1179.956	1194.8999	1246.7194	1286.2717	1305.2718	1319.6501	1380.0662	1430.9604	1494.9441	1503.581	1518.7691	1622.2855	1657.6797	3097.6243	3110.9234	3196.4709	3250.9441	3486.3191	3551.1548	3654.1497	3664.5582
NC1=C(NC=N1)C1CN1	Nc1c([nH]cn1)[C@H]1CN1	
InChI=1S/C5H8N4/c6-5-4(3-1-7-3)8-2-9-5/h2-3,7H,1,6H2,(H,8,9)	InChI=1S/C5H8N4/c6-5-4(3-1-7-3)8-2-9-5/h2-3,7H,1,6H2,(H,8,9)/t3-/m1/s1
