12
gdb 49751	3.61859	1.31864	0.96646	2.5704	65.12	-0.2645	-0.1164	0.1481	1089.1586	0.077524	-472.6921	-472.684784	-472.68384	-472.724282	26.167	
O	-0.0543976796	-0.069696498	-0.0017009932	-0.293932
C	-0.0407069844	 1.1340686373	 0.0078056559	 0.173993
N	 1.1368433553	 1.879157826	 0.0005997652	-0.153717
C	 2.4294267402	 1.3305647615	-0.0178253658	 0.019378
C	 3.3990471071	 2.2646216941	-0.0211493945	-0.287357
C	 2.7666702752	 3.587362451	-0.0040634119	 0.303848
O	 3.2347377473	 4.6959080524	-0.0004234099	-0.280838
C	 1.2246441899	 3.2929094645	 0.0105516001	 0.336569
O	 0.3049442316	 4.0571187349	 0.0267058551	-0.295422
H	-0.9285781429	 1.7833482188	 0.0221986727	 0.140282
H	 2.503571756	 0.252016303	-0.0269526598	 0.187137
H	 4.4621128443	 2.0833065943	-0.0340998738	 0.150059
89.2409	171.4026	196.8565	268.1551	312.7228	347.8375	405.5467	547.8234	567.6549	678.6545	744.2748	758.7213	831.3946	854.5106	968.368	985.8681	1042.9188	1050.6821	1133.8812	1249.3952	1307.246	1387.7272	1421.554	1626.7281	1809.6422	1831.9938	1876.5801	3044.2428	3247.212	3270.3434
O=CN1C=CC(=O)C1=O	O=CN1C=CC(=O)C1=O	
InChI=1S/C5H3NO3/c7-3-6-2-1-4(8)5(6)9/h1-3H	InChI=1S/C5H3NO3/c7-3-6-2-1-4(8)5(6)9/h1-3H
