21
gdb 93561	3.37828	1.00308	0.80849	2.9986	87.58	-0.2379	-0.0442	0.1937	1466.5651	0.181688	-387.137451	-387.127923	-387.126979	-387.172189	35.123	
C	-0.0790378167	 1.578878823	-0.0138423162	-0.398358
C	 0.038634544	 0.0506327278	 0.0170479443	-0.013404
C	 0.7748371265	-0.5590209457	-1.20720684	-0.22312
C	 1.5502228633	-1.7850677975	-0.6651444071	-0.334327
C	 1.6645970748	-1.4853076689	 0.8198167688	 0.219414
C	 0.8352069055	-0.4944928349	 1.1746327582	-0.128722
C	 2.5257973181	-2.2120821887	 1.7916671523	 0.289644
C	 3.3725484899	-3.3513189341	 1.250842274	-0.487846
O	 2.5557283618	-1.9071312752	 2.968281214	-0.311749
H	 0.9111635124	 2.0454682644	-0.0538590595	 0.119062
H	-0.6430521733	 1.9083670484	-0.8925587346	 0.116637
H	-0.5939859826	 1.9569945397	 0.8752733686	 0.118014
H	-0.9813836007	-0.361960357	 0.0815039938	 0.087347
H	 0.0975986885	-0.8095520267	-2.0277589064	 0.09929
H	 1.48783613	 0.1799506003	-1.5907289161	 0.104198
H	 0.9939479886	-2.7189777334	-0.8284575973	 0.108633
H	 2.5185792222	-1.9165577321	-1.1594015404	 0.104914
H	 0.7263592503	-0.1447250929	 2.1954696963	 0.118888
H	 4.0890911696	-2.9761242044	 0.5107722614	 0.137991
H	 3.9118112255	-3.8258728711	 2.0710553595	 0.138416
H	 2.748503362	-4.0917871512	 0.7376428563	 0.135076
54.6655	114.5673	131.1855	158.745	175.7652	236.2352	298.9164	360.829	372.6141	471.5977	497.7664	585.4161	613.0985	621.8847	807.815	844.7977	878.9155	911.7834	929.8203	966.532	979.053	996.8326	1022.7911	1042.4571	1090.741	1110.874	1131.4469	1200.7762	1219.2619	1265.7182	1275.4088	1308.2988	1321.3804	1338.8338	1366.6204	1382.9299	1409.5893	1462.0211	1475.5195	1485.3837	1496.2956	1499.1391	1502.791	1665.43	1773.8433	2969.217	3007.5041	3030.2483	3033.4627	3040.4978	3064.1099	3092.3256	3096.8928	3101.8985	3102.7533	3153.5917	3202.806
CC1CCC(=C1)C(C)=O	C[C@H]1CCC(=C1)C(=O)C	
InChI=1S/C8H12O/c1-6-3-4-8(5-6)7(2)9/h5-6H,3-4H2,1-2H3	InChI=1S/C8H12O/c1-6-3-4-8(5-6)7(2)9/h5-6H,3-4H2,1-2H3/t6-/m0/s1
