17
gdb 26244	3.79318	1.06671	0.85651	1.9868	71.42	-0.1978	0.0358	0.2336	1309.9543	0.136105	-455.180564	-455.171622	-455.170678	-455.214382	33.186	
C	 0.0782818336	 1.5011988773	 0.5331137348	-0.392213
C	-0.1309321616	 0.2128773989	-0.2553756286	 0.011435
O	 0.7388095404	-0.8451272912	 0.1636647837	-0.434933
C	-1.5606691318	-0.252524003	-0.2094345994	 0.324039
N	-2.639770671	 0.4661205649	-0.0223607918	-0.30948
C	-3.7064546605	-0.4101915857	-0.1168587337	-0.23776
C	-3.2385883557	-1.6748719228	-0.3616541514	 0.356634
O	-3.8051429601	-2.8939083384	-0.5274891927	-0.435343
N	-1.8752947948	-1.5740069713	-0.424612491	-0.330613
H	 1.1144866801	 1.8347572287	 0.4359625028	 0.116513
H	-0.5942117176	 2.2810083769	 0.1691308505	 0.148313
H	-0.1487935333	 1.343838916	 1.5933943592	 0.112981
H	 0.1598421164	 0.3836564443	-1.30075491	 0.108451
H	 0.622054689	-0.9487070896	 1.1154934194	 0.279628
H	-4.72846463	-0.0842125155	 0.0008549131	 0.097601
H	-4.7586101292	-2.8000071576	-0.4386879099	 0.31101
H	-1.2144486638	-2.322087202	-0.5552745451	 0.273738
52.9733	142.8295	165.4866	224.8929	247.9889	297.4412	341.3293	348.7972	395.7155	479.0433	512.2854	565.1282	633.5541	675.5182	707.709	755.244	770.3633	892.0998	986.6955	1037.6661	1048.9646	1082.0442	1121.6821	1144.8003	1181.1855	1221.4045	1284.9913	1289.0344	1348.1585	1402.0913	1414.5932	1440.6371	1484.562	1488.6043	1509.8485	1558.5174	1633.4696	3016.7027	3041.376	3113.5235	3140.4473	3245.5085	3665.9911	3788.2035	3843.8899
CC(O)C1=NC=C(O)N1	C[C@@H](O)c1ncc(O)[nH]1	
InChI=1S/C5H8N2O2/c1-3(8)5-6-2-4(9)7-5/h2-3,8-9H,1H3,(H,6,7)	InChI=1S/C5H8N2O2/c1-3(8)5-6-2-4(9)7-5/h2-3,8-9H,1H3,(H,6,7)/t3-/m1/s1
