19
gdb 108864	2.5021	1.21058	0.99456	2.1105	73.1	-0.2487	0.0023	0.251	1248.1418	0.158912	-460.15918	-460.149954	-460.14901	-460.1933	34.597	
O	 0.1750709548	 1.3631841695	 0.3264827624	-0.404159
C	 0.0121401552	-0.0392575872	 0.2825266384	-0.165916
C	-1.4111616909	-0.4950928335	 0.1644657102	 0.270328
C	-2.5151124884	 0.2525729614	 0.2292102881	-0.206354
C	-3.7611508661	-0.5642851464	-0.0587865092	 0.10275
O	-4.2272224934	-0.3458852457	-1.3886010982	-0.440388
C	-3.2605441421	-2.0068789291	 0.1782039107	-0.248398
C	-1.7660667445	-1.9415769984	-0.1616013878	-0.001927
O	-1.6389764682	-2.1980045361	-1.5730115686	-0.436387
H	-0.2493781999	 1.7283127433	-0.4574751084	 0.285768
H	 0.6113871817	-0.4876366547	-0.5330466515	 0.079138
H	 0.4514950346	-0.4214411796	 1.2138319703	 0.129801
H	-2.539970063	 1.3250667075	 0.3830869431	 0.102032
H	-4.6057081327	-0.303677712	 0.5854279173	 0.082325
H	-3.5208469249	-0.6540646322	-1.9712152026	 0.279255
H	-3.3826798293	-2.2791535419	 1.2308606213	 0.104505
H	-3.7905409758	-2.7361041363	-0.4378487569	 0.116555
H	-1.1673989866	-2.6722812459	 0.400040259	 0.067426
H	-0.7193318604	-2.0671063027	-1.8264729176	 0.283644
80.4524	93.96	135.37	186.8078	270.3432	299.3077	338.7169	353.3574	398.5193	452.9825	472.7525	493.0097	588.7423	695.5135	785.7703	812.7783	872.2454	909.312	931.9819	975.048	983.4447	1000.9801	1044.492	1063.5076	1089.3838	1145.4564	1186.8305	1210.3851	1222.0763	1260.2835	1284.5126	1308.6478	1335.3285	1344.9154	1386.2239	1395.8343	1422.7322	1446.8942	1470.7887	1486.4735	1709.2653	2917.2522	3002.7696	3032.2009	3061.6389	3076.7704	3124.4867	3203.1516	3768.9623	3807.6081	3813.9873
OCC1=CC(O)CC1O	OCC1=C[C@@H](O)C[C@H]1O	
InChI=1S/C6H10O3/c7-3-4-1-5(8)2-6(4)9/h1,5-9H,2-3H2	InChI=1S/C6H10O3/c7-3-4-1-5(8)2-6(4)9/h1,5-9H,2-3H2/t5-,6-/m1/s1
