17
gdb 71066	2.45439	1.80837	1.52369	3.3293	74.03	-0.2033	-0.0498	0.1535	957.4524	0.134396	-417.868418	-417.860265	-417.859321	-417.900458	31.749	
C	-0.0480654485	 1.427976848	-0.1911952421	-0.499224
C	-0.1011437007	-0.0586235166	-0.0749006965	 0.394655
O	 0.6381096509	-0.8161904955	-1.1563185692	-0.300199
C	 0.0518007835	-1.9013520641	-0.4972466965	 0.185339
N	 0.7246470028	-2.7089879077	 0.21117235	-0.234227
C	 0.3166475615	-2.2593804795	 1.5930143662	-0.177441
C	-0.3401313385	-0.8783838701	 1.3282194712	-0.164156
C	-1.1545426457	-1.0544685748	 0.0966016472	 0.172519
N	-2.5540629928	-1.0187813709	-0.0918430062	-0.623218
H	 0.964106665	 1.8023014339	-0.0145638096	 0.145269
H	-0.3637893327	 1.7396691241	-1.1913250699	 0.140906
H	-0.7205634735	 1.8777431154	 0.5440363203	 0.141566
H	-0.3607865212	-2.935223802	 2.1387990064	 0.104698
H	 1.2539775961	-2.1964673658	 2.1536272659	 0.133403
H	-0.6870104935	-0.2485628071	 2.1456515217	 0.094357
H	-2.7989492825	-1.0083720202	-1.0770373785	 0.24338
H	-3.0059473101	-1.8232375771	 0.3311373796	 0.242372
162.374	179.5332	204.8512	240.9392	270.5027	297.5054	318.8575	470.1241	489.6817	569.3454	596.6023	634.8042	685.6591	720.4616	809.3894	830.4572	889.251	911.4427	944.4318	950.7773	1022.5251	1034.1578	1046.7834	1089.9902	1142.8549	1175.1644	1234.9325	1246.3891	1283.4307	1334.7707	1405.5303	1466.7204	1484.6049	1491.5211	1527.2336	1619.3665	1655.4179	2975.6635	3045.1548	3078.9841	3115.5576	3127.067	3138.3671	3497.5958	3576.2507
CC12OC3=NCC1C23N	C[C@@]12O[C]3[N]C[C@@H]1[C@@]23N	
InChI=1S/C6H8N2O/c1-5-3-2-8-4(9-5)6(3,5)7/h3H,2,7H2,1H3	InChI=1S/C6H8N2O/c1-5-3-2-8-4(9-5)6(3,5)7/h3H,2,7H2,1H3/t3-,5+,6-/m0/s1
