18
gdb 106648	2.69378	1.30869	1.05338	3.497	73.	-0.2412	0.0051	0.2463	1196.3321	0.146846	-439.087558	-439.078592	-439.077648	-439.121315	33.382	
C	 0.0591530009	 1.5084250314	 0.0936595542	-0.38045
C	-0.1330957985	 0.0010613035	-0.1238175344	-0.288146
C	 0.6966948965	-0.5369842638	-1.2410268058	 0.456473
C	 2.1281612202	-0.9331312581	-1.2690654436	-0.363531
C	 1.0495905454	-1.9463199333	-1.6962623711	 0.030069
N	 0.9255436998	-3.1938308239	-1.0437544995	-0.599964
C	 0.5112291007	-1.4837040542	-3.0337498326	 0.411161
O	 0.2223844783	-1.9544579915	-4.0861979051	-0.33428
O	 0.3193462774	-0.1720418268	-2.6107039194	-0.305701
H	 1.0985407027	 1.7402931195	 0.3460744946	 0.121432
H	-0.2009408054	 2.0669323664	-0.8099984952	 0.139558
H	-0.576610119	 1.8648703512	 0.9090996242	 0.117515
H	 0.1301753847	-0.5541220134	 0.7838673283	 0.120399
H	-1.1867690237	-0.2153654371	-0.3360321291	 0.115837
H	 2.8026906453	-0.5010619499	-2.0010349543	 0.13133
H	 2.5696623424	-1.1885215113	-0.3100322498	 0.134568
H	 0.0326816375	-3.6315034491	-1.2451840309	 0.247141
H	 1.6559871148	-3.8375428798	-1.3303096506	 0.246589
75.5617	114.5046	145.3287	208.3981	249.8411	273.3199	296.5132	374.1849	417.0795	481.2371	552.7279	653.3421	689.9336	743.8358	766.1446	783.8403	804.4957	861.8716	922.6607	965.8327	991.101	1000.4782	1054.7342	1078.9458	1104.9675	1107.536	1204.1496	1268.163	1302.06	1341.4839	1386.469	1411.4202	1425.1326	1471.6618	1496.5138	1504.226	1516.1139	1665.7573	1931.6975	3035.2278	3042.5855	3074.5643	3114.1945	3120.5415	3123.7399	3218.7028	3504.5936	3580.7226
CCC12CC1(N)C(=O)O2	CC[C@@]12C[C@]1(N)C(=O)O2	
InChI=1S/C6H9NO2/c1-2-5-3-6(5,7)4(8)9-5/h2-3,7H2,1H3	InChI=1S/C6H9NO2/c1-2-5-3-6(5,7)4(8)9-5/h2-3,7H2,1H3/t5-,6+/m1/s1
