16
gdb 72969	2.65027	1.55302	1.2094	4.1112	69.71	-0.2588	0.0009	0.2597	1038.0155	0.122674	-437.846632	-437.838148	-437.837204	-437.87937	31.7	
C	-0.0685698331	 1.6001998162	 0.0477257636	-0.509584
C	 0.0214963024	 0.1037870429	 0.0547041148	 0.183979
C	-1.1540083113	-0.8692387645	-0.0234272632	-0.149213
O	-0.4687710751	-1.8299915409	 0.8440780186	-0.304723
C	 0.6055182192	-0.9133006679	 1.0143912124	-0.022232
C	 1.2606068605	-0.7239426171	-0.3427972359	 0.231133
O	 1.2015150957	-1.7333672074	-1.2973061575	-0.466241
C	 2.5082926285	 0.000983055	-0.3367420651	 0.260546
N	 3.4950892458	 0.6040198386	-0.310379374	-0.342828
H	 0.9008971799	 2.0560703622	 0.2642114289	 0.156532
H	-0.3941482705	 1.9634518517	-0.9333089792	 0.138642
H	-0.7865272244	 1.9526834639	 0.7956512493	 0.129405
H	-2.0548636727	-0.4971856447	 0.4730833969	 0.128373
H	-1.3963426458	-1.2927076106	-1.0020341895	 0.12947
H	 1.1111544734	-0.8687844584	 1.9722220386	 0.132872
H	 0.8259295274	-2.5045578388	-0.8486901787	 0.303869
128.0991	146.2508	178.5317	233.4131	254.9414	277.1249	318.8666	397.2379	453.2217	490.4596	552.4609	577.8096	681.7655	697.4875	785.1899	910.032	920.9179	975.7224	986.248	1011.8019	1046.6201	1095.7609	1126.9183	1168.2062	1198.351	1225.5881	1275.3675	1303.4237	1393.7053	1420.0819	1434.346	1489.3897	1494.9155	1500.9303	2350.3192	3034.5967	3052.4801	3096.1858	3112.1196	3122.3119	3185.9098	3742.5667
CC12COC1C2(O)C#N	C[C@]12CO[C@H]1[C@]2(O)C#N	
InChI=1S/C6H7NO2/c1-5-3-9-4(5)6(5,8)2-7/h4,8H,3H2,1H3	InChI=1S/C6H7NO2/c1-5-3-9-4(5)6(5,8)2-7/h4,8H,3H2,1H3/t4-,5+,6-/m1/s1
