22
gdb 93273	2.20167	1.62953	1.20026	2.9492	82.47	-0.2534	0.0339	0.2873	1150.717	0.19407	-404.386435	-404.376897	-404.375952	-404.420063	36.634	
C	-0.3372120227	 1.4461838695	-0.0557079804	-0.426641
C	 0.0659649543	-0.0253331937	-0.0149398547	-0.009428
C	 1.0559751094	-0.4327537235	-1.1122441411	-0.10949
O	 1.6820889623	-1.6352887459	-0.6393300782	-0.246938
C	 1.5366170118	-1.743446665	 0.7147528526	 0.402084
N	 1.9882900453	-2.6982828555	 1.406392458	-0.548326
C	 0.7758603788	-0.5417590858	 1.2680750981	 0.173998
C	 1.8107868741	 0.4561994727	 1.8314699085	-0.429502
C	-0.2002507032	-0.959640368	 2.3709590155	-0.43336
H	 0.5307251179	 2.1084592093	 0.0168111278	 0.122997
H	-0.8543135303	 1.6791002595	-0.9926602889	 0.118898
H	-1.0193509807	 1.6931117801	 0.7638383383	 0.12509
H	-0.8368177136	-0.6362415783	-0.1452489961	 0.083476
H	 0.5820655763	-0.6548468228	-2.0718508504	 0.116906
H	 1.8253750194	 0.3338370548	-1.2753145557	 0.10641
H	 2.4848621986	-3.3693442658	 0.8179561479	 0.218952
H	 2.5184965354	 0.796664211	 1.06856769	 0.11539
H	 1.3151701268	 1.3369402815	 2.2509194562	 0.115586
H	 2.3858332681	-0.0263852629	 2.6258514504	 0.139775
H	 0.3399197734	-1.434410357	 3.1935119364	 0.142174
H	-0.7389624758	-0.0898531026	 2.7625909421	 0.106395
H	-0.9347756455	-1.6793449918	 1.9970778639	 0.115555
84.6248	177.9465	206.3239	215.7989	227.4132	262.074	280.6816	289.8844	302.1894	363.9531	463.1371	525.8829	561.7226	655.1896	698.0153	710.374	821.6028	890.6788	905.8973	949.656	958.3303	965.5598	1002.971	1018.9316	1072.9439	1083.7327	1116.0604	1157.0915	1193.7798	1212.3029	1246.1294	1248.1393	1301.4486	1355.4173	1368.3152	1396.3495	1406.0179	1411.1328	1427.7135	1478.3514	1488.631	1495.8809	1499.4313	1508.508	1509.6455	1525.6492	1771.644	3011.1641	3022.5009	3034.4519	3035.4733	3039.7162	3093.3455	3098.9428	3102.2515	3105.3149	3111.0215	3121.2921	3126.2755	3472.0092
CC1COC(=N)C1(C)C	C[C@H]1CO[C]([NH])C1(C)C	
InChI=1S/C7H13NO/c1-5-4-9-6(8)7(5,2)3/h5,8H,4H2,1-3H3	InChI=1S/C7H13NO/c1-5-4-9-6(8)7(5,2)3/h5,8H,4H2,1-3H3/t5-/m0/s1
