20
gdb 57608	3.29694	0.99752	0.93979	4.0348	78.84	-0.2804	0.0307	0.3111	1319.6147	0.168907	-403.149042	-403.139271	-403.138327	-403.183602	36.03	
C	-0.1177229045	 1.6977954526	 0.0277405047	-0.428108
C	 0.0970008115	 0.1753626416	 0.0563767047	 0.220706
C	 0.8889788897	-0.2404440484	 1.304765912	-0.446902
C	-1.2757397274	-0.566417076	 0.0363643915	-0.351042
C	-2.1321152888	-0.2439966796	 1.1744723132	 0.26662
N	-2.7981696745	 0.0253180431	 2.0801219642	-0.321499
C	 0.7964066099	-0.2399286804	-1.2353291169	 0.07078
C	 2.2280966042	-0.5369455929	-1.3622737871	-0.190004
O	 1.2573145083	-1.5884743947	-1.3332057817	-0.246817
H	 0.843290724	 2.2208954396	 0.0102370789	 0.122365
H	-0.6855560378	 2.0065106575	-0.8571290379	 0.116231
H	-0.6690215765	 2.0297271343	 0.9121020259	 0.145302
H	 0.2894897118	-0.0864185991	 2.2061607287	 0.142302
H	 1.1695994273	-1.2962488383	 1.2521563072	 0.136566
H	 1.7990855895	 0.356891708	 1.4093081638	 0.118062
H	-1.8205368387	-0.3184611809	-0.8823678786	 0.144932
H	-1.0998025233	-1.6474276338	 0.0207652274	 0.166952
H	 0.2852332815	 0.1081261689	-2.1369834027	 0.091943
H	 2.7206110165	-0.3860400745	-2.3216590662	 0.120339
H	 2.8798235774	-0.4832421471	-0.4939815411	 0.121272
69.9919	92.2645	138.5213	215.4116	229.1077	262.5904	286.8024	313.492	351.8417	376.1571	401.5272	443.4842	507.2581	596.3114	736.9283	826.9311	868.2504	897.3477	940.2497	949.2159	955.8775	972.4953	1023.731	1057.392	1103.3158	1155.7862	1167.108	1180.4024	1211.5003	1244.4854	1281.4452	1316.537	1343.1055	1397.9574	1411.6277	1441.4154	1463.0636	1488.3604	1493.4059	1505.3747	1517.0274	1533.3075	2357.6339	3032.9054	3040.6419	3044.8576	3071.5645	3085.7193	3097.0757	3101.1088	3114.5086	3117.7282	3122.949	3186.5055
CC(C)(CC#N)C1CO1	CC(C)(CC#N)[C@H]1CO1	
InChI=1S/C7H11NO/c1-7(2,3-4-8)6-5-9-6/h6H,3,5H2,1-2H3	InChI=1S/C7H11NO/c1-7(2,3-4-8)6-5-9-6/h6H,3,5H2,1-2H3/t6-/m1/s1
