17
gdb 63737	2.79303	1.30267	1.16997	2.0619	70.16	-0.2359	-0.0473	0.1885	1120.9109	0.13265	-458.940361	-458.931301	-458.930357	-458.974343	33.26	
C	-0.5687593655	 1.5082740847	 0.1389079694	-0.455027
C	 0.0654697402	 0.1398481073	-0.0378162683	 0.281914
O	-0.8842597562	-0.9170017801	 0.0300564506	-0.467742
C	 0.989081482	-0.095340736	-1.2727777082	-0.371841
C	 2.1092436898	-0.5864729615	-0.3394242785	 0.334237
C	 3.0424715163	-1.7175254759	-0.4671340191	-0.242445
O	 3.4966303212	-0.3672670955	-0.501923317	-0.254799
C	 1.2896927828	-0.1865091453	 0.8780749063	 0.289664
O	 1.4750976967	-0.1428461082	 2.0595107461	-0.30692
H	 0.1709067358	 2.3077017495	 0.0320932268	 0.126799
H	-1.3576525036	 1.6565514016	-0.6047329464	 0.132104
H	-1.0089535348	 1.595174841	 1.1385918281	 0.127227
H	-1.2654048194	-0.9100834599	 0.9162348761	 0.289178
H	 0.5991512579	-0.8285069831	-1.9792685619	 0.128671
H	 1.2525222095	 0.826595906	-1.7958586902	 0.124047
H	 3.3205300537	-2.283166344	 0.4203816759	 0.136504
H	 3.0822151735	-2.2543891107	-1.4137724298	 0.128427
42.2559	155.5954	206.4571	213.289	231.1689	263.4685	278.5296	336.8514	352.4937	392.8086	524.1931	583.365	708.1896	737.2743	799.1552	836.6504	878.9484	901.5443	940.1134	963.1621	988.2319	1096.8766	1109.4748	1133.7643	1154.6817	1170.9873	1180.4011	1218.6767	1267.3969	1361.6446	1403.7559	1413.4846	1463.6339	1487.0138	1487.7052	1518.5312	1889.3413	3032.2591	3080.4011	3086.4196	3102.7384	3115.4523	3144.5395	3182.4042	3791.3424
CC1(O)CC2(CO2)C1=O	C[C@@]1(O)C[C@]2(CO2)C1=O	
InChI=1S/C6H8O3/c1-5(8)2-6(3-9-6)4(5)7/h8H,2-3H2,1H3	InChI=1S/C6H8O3/c1-5(8)2-6(3-9-6)4(5)7/h8H,2-3H2,1H3/t5-,6+/m1/s1
