18
gdb 33666	3.0727	1.48155	1.40935	1.7191	83.03	-0.2275	0.0315	0.2591	1011.1873	0.149276	-364.740644	-364.733399	-364.732455	-364.772024	29.675	
C	 0.0102820133	-1.1747548966	 0.0085391609	-0.370517
C	 0.0012343785	 0.028939028	 0.0084223792	 0.108951
C	-0.0167951177	 1.4463740447	 0.0071470105	 0.248829
C	-0.7368098785	 2.4862127434	 0.8606633354	-0.148187
C	 0.5978443274	 3.1906907461	 1.0339288907	-0.18362
N	 1.2180768682	 2.3047193468	-0.0202885947	-0.169453
C	 1.1547234587	 2.9842618289	-1.3296251514	-0.172176
C	-0.3483436892	 3.3074799227	-1.5931323557	-0.255077
C	-1.0471868079	 2.3622551314	-0.6215318183	-0.091102
H	 0.0238281014	-2.2362490935	 0.0110385826	 0.181979
H	-1.488387287	 2.3099406825	 1.6208017674	 0.10154
H	 0.6475515674	 4.2639295962	 0.8165896746	 0.098766
H	 1.0606955123	 2.9995236457	 2.0056048274	 0.116386
H	 1.7970952131	 3.8691855715	-1.3217614328	 0.104912
H	 1.5376191421	 2.2932379198	-2.0872949168	 0.114265
H	-0.5870181354	 4.3565881465	-1.3894906327	 0.105669
H	-0.6396072743	 3.1027603538	-2.6272667163	 0.106373
H	-2.0162129425	 1.9416040221	-0.86280795	 0.102463
127.9388	156.0212	240.9915	377.3837	396.2661	499.8917	515.9965	542.6236	561.8258	657.701	673.1405	711.6794	748.8014	820.2528	845.2139	888.3381	894.1701	933.2633	938.2256	966.0784	1008.8132	1028.1672	1058.4383	1092.0828	1118.7498	1129.0734	1191.2378	1206.6041	1230.7213	1263.0728	1293.9563	1302.6078	1311.987	1345.0284	1419.4071	1486.9644	1496.8184	1516.6601	2232.8408	3033.1595	3045.5745	3052.9443	3085.8338	3091.5901	3106.6236	3182.8347	3193.9402	3502.9747
C#CC12C3CN1CCC23	C#C[C@@]12[C@H]3CN1CC[C@@H]23	
InChI=1S/C8H9N/c1-2-8-6-3-4-9(8)5-7(6)8/h1,6-7H,3-5H2	InChI=1S/C8H9N/c1-2-8-6-3-4-9(8)5-7(6)8/h1,6-7H,3-5H2/t6-,7+,8-/m1/s1
