15
gdb 68940	2.34975	1.70009	1.21087	2.8032	69.64	-0.2464	-0.0424	0.204	1012.8337	0.110315	-457.761452	-457.753143	-457.752199	-457.795003	30.471	
O	-0.2938305669	 1.2533059268	-0.0123675995	-0.423359
C	-0.0047625922	-0.0668153587	 0.0315034761	 0.411901
C	-0.186746408	-0.9499399655	 1.1718546249	-0.38537
C	-1.1555279363	-1.2847932909	 0.0173147192	-0.00872
C	-2.5648946576	-0.9475061391	 0.1517275307	 0.065681
O	-2.9660901183	-0.1369518418	 0.9706955638	-0.309951
C	-0.4306519335	-1.8011492695	-1.1749857516	 0.359222
O	-0.7422921293	-2.5866110593	-2.0272954828	-0.312853
C	 0.7139063168	-0.7457768718	-1.1272569453	-0.398463
H	-0.9562535876	 1.4504681906	 0.6664348023	 0.31445
H	 0.56162321	-1.6957760967	 1.4268686829	 0.13818
H	-0.7216392926	-0.5311512868	 2.0199105882	 0.155432
H	-3.2472483012	-1.4121504015	-0.5859154662	 0.107874
H	 0.7024295932	-0.1483377485	-2.0419017706	 0.153522
H	 1.7308258934	-1.0926868175	-0.9239632924	 0.132454
38.5109	108.0323	181.0955	242.219	296.2044	370.1361	411.4996	436.4853	476.3557	496.316	550.9807	627.9701	639.789	715.0631	824.2564	901.3304	965.7089	974.674	1021.0556	1040.7869	1086.8865	1111.8026	1146.0859	1202.6232	1214.4788	1315.5074	1410.1797	1420.1942	1439.5614	1455.9978	1501.2234	1738.2777	1862.4477	2948.5686	3064.358	3111.0515	3128.8786	3202.9341	3743.2404
OC12CC1(C=O)C(=O)C2	O[C@@]12C[C@]1(C=O)C(=O)C2	
InChI=1S/C6H6O3/c7-3-5-2-6(5,9)1-4(5)8/h3,9H,1-2H2	InChI=1S/C6H6O3/c7-3-5-2-6(5,9)1-4(5)8/h3,9H,1-2H2/t5-,6-/m0/s1
