18
gdb 91445	2.50944	1.7219	1.31704	1.4627	71.9	-0.2419	-0.0094	0.2324	1006.5215	0.148354	-439.079173	-439.071082	-439.070138	-439.111512	31.484	
C	 0.0214142152	 1.5126638203	 0.0480037945	-0.507122
C	-0.0321798691	 0.0124426354	 0.0763269441	 0.155674
N	 0.5367200724	-0.8026843136	-1.0923540195	-0.370175
C	-0.3203387663	-1.9386224946	-0.5580799123	-0.131912
C	 0.3874054676	-2.22339154	 0.7735584671	-0.254243
C	 0.6894304117	-0.7492493483	 1.2162479028	 0.141044
O	 2.0632510377	-0.4419613137	 1.2588000953	-0.440851
C	-1.3085195773	-0.8209470989	-0.169241001	 0.391069
O	-2.4734529433	-0.5874788443	-0.3075866402	-0.328663
H	 1.0553173395	 1.8615512142	 0.1164437603	 0.139185
H	-0.4340185904	 1.9150495089	-0.8618775174	 0.124716
H	-0.53017315	 1.9176116852	 0.9023247152	 0.139488
H	 0.1279698578	-0.4577478693	-1.9615210737	 0.235443
H	-0.5658347765	-2.7593079299	-1.2291295696	 0.094552
H	-0.2474977454	-2.7671064012	 1.4775961113	 0.116075
H	 1.3210276055	-2.7748251511	 0.6387359871	 0.116436
H	 0.2849844523	-0.5025184725	 2.2003035451	 0.094362
H	 2.3866047584	-0.5766507064	 0.3571020308	 0.284922
126.5367	152.8519	183.2128	214.499	282.9833	330.6178	445.2547	471.8212	510.2623	532.2717	625.6384	696.2114	738.2014	753.9363	811.6017	857.4704	888.0355	924.31	935.6321	991.57	1034.043	1052.5717	1075.0714	1116.8199	1130.8817	1162.1582	1197.698	1226.3599	1254.5528	1297.3828	1304.8624	1320.0308	1362.2203	1412.761	1444.6829	1479.587	1483.8135	1489.2609	1883.8339	3042.5778	3066.6717	3093.5759	3110.726	3120.9817	3121.9933	3147.5149	3463.6091	3750.5764
CC12NC(CC1O)C2=O	C[C@@]12N[C@@H](C[C@H]1O)C2=O	
InChI=1S/C6H9NO2/c1-6-4(8)2-3(7-6)5(6)9/h3-4,7-8H,2H2,1H3	InChI=1S/C6H9NO2/c1-6-4(8)2-3(7-6)5(6)9/h3-4,7-8H,2H2,1H3/t3-,4+,6+/m0/s1
