25
gdb 96338	2.07639	1.56357	1.15426	1.4251	87.88	-0.2581	0.0735	0.3316	1222.9311	0.229705	-389.522227	-389.51252	-389.511575	-389.555565	39.005	
C	-0.1743697047	 1.5827384361	 0.0371751976	-0.419105
C	-0.0244770462	 0.0485952492	 0.0139278633	 0.281045
C	-1.4299979985	-0.5793962794	 0.0156378464	-0.425493
C	 0.7357016347	-0.4181559718	-1.2520660576	-0.215269
C	 2.2190766058	-0.0236277206	-1.2765893537	-0.205071
C	 2.9451574976	-0.5266715978	-0.0218624447	-0.196251
C	 2.2317831868	-0.0511540536	 1.2508689877	-0.236828
C	 0.7523647796	-0.4576375716	 1.253468911	 0.139551
O	 0.0806611371	 0.0189328775	 2.4163974716	-0.450201
H	 0.7849336055	 2.1043868754	-0.0188122681	 0.106547
H	-0.7775559403	 1.9134483598	-0.8152900161	 0.102648
H	-0.6720663013	 1.9028080803	 0.9551137136	 0.131109
H	-1.9981532078	-0.2604742794	-0.8651676601	 0.101519
H	-1.3730675372	-1.6739093462	-0.0023628987	 0.100624
H	-1.9865464778	-0.2857754752	 0.9089788063	 0.127739
H	 0.6638388879	-1.5131187172	-1.3178588231	 0.086247
H	 0.2232050227	-0.0257347623	-2.1388392134	 0.088442
H	 2.6940173705	-0.4297535301	-2.1769636003	 0.089455
H	 2.3182321043	 1.0667446767	-1.3440759075	 0.097764
H	 2.9693120796	-1.6252482615	-0.0349359095	 0.092462
H	 3.9889203919	-0.1939305314	-0.0184520673	 0.091049
H	 2.7194994225	-0.4743172988	 2.1397900463	 0.076583
H	 2.305256075	 1.0387330992	 1.345254194	 0.104492
H	 0.707429125	-1.5616007729	 1.2290869189	 0.052939
H	 0.5789708271	-0.2724225444	 3.1860907434	 0.278004
126.7864	176.4449	224.7619	248.9545	250.5981	262.1888	287.585	318.3918	349.3055	372.1157	424.6288	435.5287	475.8455	533.7007	570.697	709.1858	797.919	849.1421	855.8577	919.7833	929.2254	947.814	972.3789	982.7456	1019.5358	1032.1859	1062.0756	1085.1527	1105.1101	1154.6417	1166.9394	1197.1309	1212.6803	1256.9733	1268.8148	1291.6898	1325.7363	1347.1319	1364.5491	1375.0944	1380.629	1394.1022	1395.1129	1407.0063	1440.3082	1476.3419	1481.9451	1486.9731	1492.2087	1495.8106	1500.538	1508.5339	1521.0536	2929.4544	3004.9171	3008.5776	3015.3734	3026.1567	3027.3165	3041.3339	3051.8747	3057.4433	3063.6397	3072.2707	3088.357	3103.8237	3120.7572	3129.5041	3820.3822
CC1(C)CCCCC1O	CC1(C)CCCC[C@H]1O	
InChI=1S/C8H16O/c1-8(2)6-4-3-5-7(8)9/h7,9H,3-6H2,1-2H3	InChI=1S/C8H16O/c1-8(2)6-4-3-5-7(8)9/h7,9H,3-6H2,1-2H3/t7-/m1/s1
