15
gdb 48001	3.24945	0.72857	0.62554	3.7889	81.59	-0.2624	-0.0694	0.193	1688.1381	0.109858	-420.598992	-420.589836	-420.588892	-420.634608	31.037	
O	-0.0302750868	-0.1045088685	 0.5886956458	-0.228373
C	 0.0345382564	 1.0041083757	 0.1084052884	 0.021202
C	 1.2320831091	 1.8001327256	 0.0563120492	 0.019249
C	 2.2210062084	 2.4943443464	-0.0023038985	 0.125018
C	 3.421488455	 3.2667475813	-0.0585643022	-0.197464
C	 3.7127942192	 4.1386429501	-1.2554467754	-0.293123
C	 3.3899612804	 4.8065215875	 0.0578835698	-0.10248
C	 2.0893978577	 5.5100614133	 0.2045077243	 0.165856
O	 1.9408283356	 6.5115886948	 0.8566278655	-0.254985
H	-0.8539566071	 1.4952729408	-0.3381569364	 0.100644
H	 4.2802558028	 2.8112334611	 0.4248461537	 0.142128
H	 4.7362962947	 4.1863642031	-1.6069113764	 0.146079
H	 2.9567095069	 4.1729609471	-2.0319680729	 0.145509
H	 4.2034073142	 5.2498467429	 0.6207419838	 0.126083
H	 1.2460286934	 5.0446694689	-0.3518692987	 0.084657
45.6808	69.7113	103.133	130.5242	177.8555	235.1952	314.9876	321.65	458.0753	490.0876	573.6591	613.0893	765.9752	818.3456	866.2723	884.3335	934.9265	1018.9439	1040.7852	1059.7888	1086.4451	1123.6043	1159.0756	1181.5789	1232.3296	1337.6678	1385.6502	1422.6832	1440.4469	1478.5321	1764.3061	1826.2877	2317.341	2892.2976	2918.2792	3146.0805	3157.5872	3189.0331	3239.8141
O=CC#CC1CC1C=O	O=CC#C[C@H]1C[C@H]1C=O	
InChI=1S/C7H6O2/c8-3-1-2-6-4-7(6)5-9/h3,5-7H,4H2	InChI=1S/C7H6O2/c8-3-1-2-6-4-7(6)5-9/h3,5-7H,4H2/t6-,7-/m0/s1
