15
gdb 77646	2.19758	1.46242	1.31693	4.6006	68.63	-0.2378	-0.0095	0.2283	1044.8792	0.111738	-453.891281	-453.882614	-453.88167	-453.924548	31.569	
N	-0.0707525795	 1.4620005643	 0.0776303686	-0.521091
C	-0.1069608743	 0.0314012378	 0.0068534064	-0.140199
C	-1.367632917	-0.7748812804	 0.042415021	 0.270463
O	-1.6643262647	-1.764954047	 0.9392909338	-0.435404
C	-2.4325123046	-0.1556571977	-0.8502724424	-0.152179
O	-1.4976058014	-0.0416844817	-1.9627681626	-0.320873
C	-0.4943576079	-0.7652528043	-1.2457859964	 0.250092
C	 0.305556419	-1.7334727865	-1.9068051138	 0.212338
N	 0.9829681616	-2.5269880458	-2.4106172841	-0.35112
H	 0.8670969247	 1.7900727835	-0.135205226	 0.245282
H	-0.6750699123	 1.8494490284	-0.6429056074	 0.252562
H	 0.695788368	-0.453172759	 0.5594958349	 0.123206
H	-1.2338635307	-1.5730650174	 1.7788643955	 0.305289
H	-3.2310771375	-0.8635061139	-1.0925651204	 0.139634
H	-2.8542344134	 0.8102361597	-0.553281657	 0.122002
97.8172	145.8224	148.8891	200.2866	252.1867	270.8494	294.9339	375.7217	446.4902	521.6645	548.4901	601.6067	665.2612	727.1028	763.0504	811.301	904.8014	962.7264	1008.8658	1051.4977	1088.3056	1102.399	1149.8588	1196.543	1216.0205	1261.1693	1310.9942	1339.3937	1401.4155	1492.0088	1524.3447	1668.099	2333.2209	3044.4204	3102.9508	3145.8547	3489.1436	3563.3231	3818.6954
NC1C2(O)COC12C#N	N[C@H]1[C@@]2(O)CO[C@@]12C#N	
InChI=1S/C5H6N2O2/c6-1-5-3(7)4(5,8)2-9-5/h3,8H,2,7H2	InChI=1S/C5H6N2O2/c6-1-5-3(7)4(5,8)2-9-5/h3,8H,2,7H2/t3-,4-,5-/m0/s1
