17
gdb 48138	3.00323	1.18033	0.9369	0.9214	68.95	-0.2552	-0.1008	0.1544	1228.7992	0.135431	-458.981092	-458.97244	-458.971496	-459.016161	30.106	
O	-0.7742674171	 1.3864677499	-0.3821511255	-0.217549
C	 0.353490388	 0.9709199534	-0.4364375384	 0.092769
C	 1.5922690892	 1.8483123092	-0.1959732482	 0.268157
O	 2.6781578461	 1.3336097596	-0.3350759842	-0.277538
C	 1.3382563058	 3.293178502	 0.1612435784	-0.102252
C	 2.5975222742	 4.0812881178	 0.587930842	-0.263825
C	 2.6767987158	 5.2210639003	-0.4479577579	-0.078029
O	 1.3503957743	 5.3928587726	-0.9291930088	-0.231568
C	 0.8134620262	 4.0982551205	-1.0768213599	-0.102945
H	 0.6094688241	-0.0829486677	-0.6735086727	 0.112522
H	 0.5611380445	 3.3135923251	 0.9297883003	 0.113816
H	 2.4724476707	 4.4775078805	 1.5977666655	 0.113624
H	 3.4854635954	 3.4465870413	 0.572254412	 0.130799
H	 3.0086291999	 6.1752512644	-0.0330735134	 0.114412
H	 3.3512253171	 4.9461647787	-1.2745036319	 0.098127
H	 1.1656331977	 3.6335431404	-2.0134888806	 0.094697
H	-0.2743696418	 4.1666854822	-1.1084070968	 0.134782
39.1276	48.2132	120.804	154.1664	228.7281	274.8202	298.2448	492.2591	540.1957	615.417	631.3137	693.9316	780.1308	866.9503	929.8241	943.3784	971.0978	984.2722	1034.5384	1066.0917	1103.0779	1123.1833	1172.3458	1216.0434	1240.4284	1255.2095	1290.3522	1318.6321	1357.0264	1361.2277	1365.4429	1404.6226	1491.2158	1507.8954	1524.1824	1798.6022	1820.7585	2929.5486	2958.2196	2981.17	3071.6163	3081.0636	3104.8128	3126.2386	3130.8411
O=CC(=O)C1CCOC1	O=CC(=O)[C@H]1CCOC1	
InChI=1S/C6H8O3/c7-3-6(8)5-1-2-9-4-5/h3,5H,1-2,4H2	InChI=1S/C6H8O3/c7-3-6(8)5-1-2-9-4-5/h3,5H,1-2,4H2/t5-/m0/s1
