17
gdb 128366	6.47107	0.87765	0.78177	4.5607	75.26	-0.2058	0.036	0.2418	1456.7392	0.135646	-451.310676	-451.301231	-451.300287	-451.345564	32.959	
C	 0.0448342659	 1.3994464699	 0.0792015034	-0.324763
N	-0.0003664255	-0.0599284212	 0.0948880884	-0.398382
C	-1.22578971	-0.659666015	-0.0043833037	 0.517988
N	-2.3617911574	-0.0326062043	 0.021523584	-0.228764
O	-3.3466713188	-1.0841104135	-0.0036339835	-0.260523
C	-2.7278574958	-2.3029940373	-0.0446229425	 0.537351
N	-1.3642394268	-2.021136966	-0.1124345788	-0.444254
N	-3.2471164994	-3.4496823175	-0.0247374538	-0.391773
C	-4.6972079136	-3.5402369698	 0.061117789	-0.322612
H	 1.0731237187	 1.7168530732	 0.2615343028	 0.129406
H	-0.308723466	 1.8272956066	-0.867260075	 0.137156
H	-0.5919678873	 1.7802651447	 0.8799917475	 0.165318
H	 0.7194685834	-0.5111222981	-0.45176368	 0.25027
H	-0.667452687	-2.7107578875	 0.1110066882	 0.277347
H	-5.1339251246	-2.816745493	 0.7623629222	 0.120536
H	-5.1671268228	-3.3721547232	-0.917468363	 0.119545
H	-4.9697028232	-4.547166008	 0.3884461148	 0.116151
49.9847	80.7766	138.5459	159.041	172.6699	241.2897	268.5112	348.6534	379.109	393.0639	512.1124	598.9409	668.6717	692.9234	738.701	759.4039	919.815	943.001	1005.9519	1073.0917	1106.8154	1125.8286	1151.3035	1160.9029	1182.1236	1257.5815	1310.6424	1432.116	1447.523	1455.7231	1483.6087	1492.5905	1501.8809	1512.0054	1579.1425	1681.6673	1814.9414	3000.1086	3026.7229	3049.7034	3097.1586	3107.8794	3146.713	3593.307	3679.4483
CNC1=NOC(N1)=NC	CNc1noc(=NC)[nH]1	
InChI=1S/C4H8N4O/c1-5-3-7-4(6-2)9-8-3/h1-2H3,(H2,5,6,7,8)	InChI=1S/C4H8N4O/c1-5-3-7-4(6-2)9-8-3/h1-2H3,(H2,5,6,7,8)
