17
gdb 47367	2.44787	1.43948	1.14439	4.3594	73.85	-0.2606	0.0063	0.2669	1113.3656	0.135939	-421.835384	-421.82714	-421.826196	-421.868661	31.058	
O	-0.0569210369	 0.0410571991	 0.6279238013	-0.314386
C	-0.0827818634	 1.1284237877	 0.1234202712	 0.407521
C	-1.3667190283	 1.9300753777	-0.042156749	-0.322509
C	-1.3139510833	 3.0703322848	-1.0630807231	-0.226901
C	-0.0009562892	 3.8305891389	-0.8934311407	-0.225524
C	 1.1759033682	 2.8671202293	-1.0901528692	-0.049322
O	 1.1005828569	 1.7130321172	-0.2200546604	-0.230761
C	 1.304619504	 2.4259672793	-2.4806779425	 0.355468
C	 1.4072042445	 2.0764792094	-3.625538531	-0.47735
H	-2.1637717157	 1.2134739805	-0.2516663615	 0.1396
H	-1.5760176188	 2.3368027069	 0.9566392223	 0.140371
H	-1.3700387602	 2.6707742635	-2.0815048925	 0.126248
H	-2.1731616891	 3.7344574404	-0.9313450923	 0.107338
H	 0.092998033	 4.6489024682	-1.6126523596	 0.121573
H	 0.0676540375	 4.2605263611	 0.1128057285	 0.110873
H	 2.1085177153	 3.3561301808	-0.7907271934	 0.127845
H	 1.5086605454	 1.7592227352	-4.6344143681	 0.209915
67.8453	85.7912	165.9983	231.3626	316.8613	400.5419	410.6092	476.0401	512.9675	576.0852	597.7563	641.5098	678.497	712.1663	760.182	832.3815	887.9096	918.7337	948.8309	997.4668	1054.1993	1083.1619	1099.0621	1163.7935	1181.2678	1247.3324	1284.2883	1329.4316	1355.5125	1363.4549	1387.8582	1391.5777	1458.681	1479.9961	1501.0963	1849.2115	2237.5448	3030.066	3039.5577	3049.6367	3059.7375	3091.0966	3100.5901	3112.0547	3500.5954
O=C1CCCC(O1)C#C	O=C1CCC[C@@H](O1)C#C	
InChI=1S/C7H8O2/c1-2-6-4-3-5-7(8)9-6/h1,6H,3-5H2	InChI=1S/C7H8O2/c1-2-6-4-3-5-7(8)9-6/h1,6H,3-5H2/t6-/m0/s1
