13
gdb 124252	2.84612	1.58259	1.02347	3.1759	64.4	-0.264	-0.0948	0.1692	1063.8063	0.087648	-489.883266	-489.87545	-489.874506	-489.916224	27.771	
C	-0.0229529422	 1.4860774923	 0.0475727346	-0.488975
C	-0.0539354677	-0.0169967339	 0.0138253262	 0.33036
O	-0.1144632549	-0.715190962	 1.0232798849	-0.356715
C	-0.0118280721	-0.7114514092	-1.2628176905	 0.153673
C	-0.0333695972	-2.0723169504	-1.4388951448	 0.328863
O	-0.0945100735	-3.0327580837	-0.5354988168	-0.385533
N	 0.0216914786	-2.3132354513	-2.7866327293	-0.177018
N	 0.0733724312	-1.2121852398	-3.4106492165	 0.008362
O	 0.0550564685	-0.1489068934	-2.4850027717	-0.21801
H	 0.8872813281	 1.8552173805	-0.4372945323	 0.161656
H	-0.8686631233	 1.8932946206	-0.5170701124	 0.16165
H	-0.0623872613	 1.8306454809	 1.0809262969	 0.154746
H	-0.1231561441	-2.5714665405	 0.3289737716	 0.32694
80.6551	109.7743	164.8785	180.0685	310.2622	346.2661	460.9479	509.9788	565.4888	648.3429	672.8838	700.5603	721.0475	761.4193	768.3042	959.7622	1008.7221	1044.7528	1100.9393	1210.4556	1277.7589	1372.4312	1393.2975	1438.5758	1459.4022	1467.7889	1528.13	1627.0636	1730.7513	3043.8433	3104.8691	3162.4507	3541.0326
CC(=O)C1=C(O)N=NO1	CC(=O)c1c(O)nno1	
InChI=1S/C4H4N2O3/c1-2(7)3-4(8)5-6-9-3/h8H,1H3	InChI=1S/C4H4N2O3/c1-2(7)3-4(8)5-6-9-3/h8H,1H3
