15
gdb 25573	4.41002	0.97914	0.8328	3.8843	68.29	-0.2142	-0.0231	0.1911	1304.7489	0.112647	-453.97519	-453.96702	-453.966076	-454.009227	28.899	
O	 0.5863714538	 0.9930116338	 1.2413773346	-0.239167
C	 0.612593684	 1.767370284	 0.3246832867	 0.185962
C	 1.2503029886	 1.4351340447	-1.0239408287	-0.255296
N	 1.3877348012	 2.6115076312	-1.863844904	-0.400255
C	 2.3404148714	 3.5279310323	-1.518900193	 0.502413
N	 2.964273636	 3.6197203053	-0.3834357612	-0.346976
C	 3.7626519138	 4.7529868449	-0.5440572228	-0.10452
C	 3.5773289401	 5.2718567532	-1.7737747919	-0.055881
O	 2.6456633901	 4.4786618737	-2.4269207096	-0.202245
H	 0.1407842998	 2.7725664435	 0.3727371308	 0.094689
H	 2.2037787293	 0.9255352334	-0.8347591457	 0.149417
H	 0.5846426462	 0.7298870057	-1.5327180268	 0.139609
H	 1.2496834409	 2.4942891334	-2.8550035909	 0.261271
H	 4.4120364545	 5.0998838589	 0.2438247128	 0.126678
H	 3.9655179102	 6.1050213619	-2.3312689104	 0.144304
46.7756	72.3465	128.4742	191.9914	275.9102	356.1848	395.2183	453.8326	612.6668	632.0685	679.1878	697.0589	761.59	791.4644	864.0053	927.8542	966.7124	1027.828	1070.9658	1099.743	1123.5963	1141.6826	1183.259	1259.1111	1277.3422	1331.7813	1366.8974	1406.8851	1445.2476	1526.631	1586.0053	1661.4408	1846.6317	2906.2132	3028.0939	3088.8884	3265.9112	3312.2378	3636.7951
O=CCNC1=NC=CO1	O=CCNc1ncco1	
InChI=1S/C5H6N2O2/c8-3-1-6-5-7-2-4-9-5/h2-4H,1H2,(H,6,7)	InChI=1S/C5H6N2O2/c8-3-1-6-5-7-2-4-9-5/h2-4H,1H2,(H,6,7)
