16
gdb 26529	2.42278	1.85521	1.05897	3.1283	78.04	-0.2033	-0.0239	0.1794	1081.437	0.125907	-434.106308	-434.098125	-434.097181	-434.13897	30.829	
C	 0.1006336734	 1.5167740376	 0.0586164919	-0.498966
C	-0.0388629621	 0.0330604379	 0.043642741	 0.287026
C	-1.185382372	-0.6817432886	 0.0375017745	 0.163075
N	-2.4589469464	-0.1326915443	 0.0714048215	-0.597314
C	-1.1120357789	-2.151045552	 0.047768392	 0.319162
N	-2.1995808229	-2.8275789175	 0.0331016209	-0.547885
N	 0.1659698856	-2.7295488879	 0.0653947852	-0.328598
C	 1.1801671483	-1.9577154902	 0.0571174794	 0.109319
O	 1.1842605566	-0.6181662836	 0.04021381	-0.21147
H	 0.9394118017	 1.8104759867	 0.6970320427	 0.145702
H	 0.2895230581	 1.9290738258	-0.9409661759	 0.139728
H	-0.8089583027	 1.9761587999	 0.4536423542	 0.143028
H	-2.6018193376	 0.7000942579	-0.4792756255	 0.245278
H	-3.1547266986	-0.8512098772	-0.0972019107	 0.27011
H	-1.98292397	-3.8246154601	 0.0425540514	 0.221681
H	 2.1939246273	-2.3477783343	 0.0606927276	 0.140123
108.2723	116.4849	171.4357	278.5927	306.3439	346.9476	361.2202	510.8034	516.6529	522.5564	524.3523	542.6402	676.5953	703.5581	797.3263	886.314	888.9731	915.318	957.846	1009.4906	1057.013	1073.4776	1198.829	1224.8678	1246.9479	1301.6701	1404.2312	1417.6528	1458.7334	1481.4935	1486.3584	1622.3632	1661.3122	1685.0037	1722.5522	3023.2889	3086.2146	3125.8109	3187.1099	3484.0285	3524.6711	3651.4701
CC1=C(N)C(=N)N=CO1	C[C@@H]1C(=C([NH])N=CO1)N	
InChI=1S/C5H7N3O/c1-3-4(6)5(7)8-2-9-3/h2,7H,6H2,1H3	InChI=1S/C5H8N3O/c1-3-4(6)5(7)8-2-9-3/h2-3,7H,6H2,1H3/t3-/m1/s1
