19
gdb 95894	3.16607	1.10949	0.86862	2.7529	81.75	-0.251	-0.0557	0.1953	1330.7939	0.159009	-423.056157	-423.047521	-423.046577	-423.08962	32.246	
C	 0.0228678777	 1.5310731211	-0.0486342696	-0.39732
C	 0.0085779458	 0.0032834301	 0.0119125387	 0.093351
O	 0.5881877713	-0.4663840447	-1.1928202299	-0.262351
C	 0.9211644876	-1.8470468372	-1.1642959332	-0.094509
C	 2.021447544	-2.1241741633	-0.1396832097	-0.305467
C	 1.6522180782	-1.4799883375	 1.1708868166	 0.198349
C	 2.3087254028	-1.9296345408	 2.4102672681	 0.092479
O	 3.1456752967	-2.8023515361	 2.46253127	-0.273342
C	 0.7143488229	-0.5246977202	 1.2299869155	-0.14689
H	 1.0518113336	 1.9001881543	-0.0697099301	 0.13132
H	-0.4861353469	 1.866266047	-0.9555913159	 0.133316
H	-0.4886739734	 1.9572657111	 0.8192275434	 0.117432
H	-1.0462846005	-0.3319879393	 0.0674619773	 0.084618
H	 0.028559358	-2.4494627462	-0.9287776022	 0.092446
H	 1.2420442533	-2.1018216766	-2.1775475669	 0.112876
H	 2.1656771891	-3.2001274075	 0.0052511453	 0.126581
H	 2.9812417393	-1.730358155	-0.4955188002	 0.126539
H	 1.9708771532	-1.3970039492	 3.32838486	 0.065851
H	 0.4261975673	-0.09731691	 2.1891389926	 0.104722
91.7964	103.1231	188.5634	214.1794	239.4106	282.8928	346.4959	388.9336	441.5737	470.9898	562.5117	616.5152	727.6452	798.6061	827.9368	879.2531	906.0005	947.7429	1001.2138	1029.1295	1042.4799	1080.2947	1100.2576	1121.9647	1171.6905	1193.5934	1235.3697	1286.0049	1313.0252	1345.5898	1352.7754	1390.6351	1404.7373	1409.5496	1428.2127	1468.2861	1482.8599	1497.0397	1502.3584	1702.5975	1789.9526	2871.4799	2904.0836	2974.7341	3038.2785	3047.1631	3081.5751	3095.9384	3123.8477	3130.9835	3145.0172
CC1OCCC(C=O)=C1	C[C@H]1OCCC(=C1)C=O	
InChI=1S/C7H10O2/c1-6-4-7(5-8)2-3-9-6/h4-6H,2-3H2,1H3	InChI=1S/C7H10O2/c1-6-4-7(5-8)2-3-9-6/h4-6H,2-3H2,1H3/t6-/m1/s1
