19
gdb 98414	2.61087	1.21762	0.96043	3.4077	73.58	-0.2347	-0.0239	0.2108	1283.8955	0.155822	-460.16752	-460.157748	-460.156804	-460.202226	36.392	
C	 0.0295027615	 1.5445718307	 0.0418025735	-0.380805
C	 0.0404625093	 0.0218897428	-0.0592989039	-0.283002
C	 0.6868896414	-0.4913816397	-1.3306528101	 0.345815
O	 1.1215664123	 0.2669200233	-2.1887022969	-0.372747
C	 0.8209167494	-1.9639493318	-1.48914745	 0.194198
O	 0.3901342069	-2.7718995684	-0.4325543155	-0.453043
C	 0.77349174	-2.5353309559	-2.9110824156	-0.375188
C	 2.0940552731	-2.4394062226	-2.2227791999	 0.13199
O	 3.079818016	-1.5646088208	-2.6166381701	-0.418437
H	 1.0469227716	 1.9434450916	 0.0278046163	 0.133527
H	-0.5049078837	 1.9906268916	-0.8007587363	 0.130455
H	-0.4545598662	 1.8636173452	 0.9688185936	 0.111326
H	 0.5592223217	-0.4439419908	 0.7876847843	 0.143732
H	-0.9781353957	-0.3890508511	-0.0114500527	 0.113048
H	-0.5461564298	-2.9652302004	-0.5567382807	 0.287008
H	 0.3105982295	-3.5119733549	-3.0068242989	 0.121603
H	 0.5644758294	-1.8238541319	-3.7031140892	 0.13683
H	 2.5061174086	-3.3518885397	-1.8045936024	 0.128134
H	 2.6462216047	-0.7107271773	-2.7906237055	 0.305557
59.4122	81.8061	175.2238	191.7692	207.0953	270.5863	311.419	317.8628	346.7784	428.9202	467.3776	480.613	562.3249	564.8703	614.5713	726.6397	776.5242	819.8676	834.0951	909.3002	972.7943	997.4112	1023.1884	1057.6025	1089.8974	1096.5106	1116.3424	1181.3022	1239.0638	1268.5269	1291.2495	1339.0774	1360.1594	1390.7201	1414.0804	1433.7316	1439.6192	1479.2038	1492.2016	1497.6535	1736.0535	3019.1326	3052.2562	3059.1641	3123.9221	3127.6073	3127.7807	3178.4507	3228.9236	3632.6287	3784.7592
CCC(=O)C1(O)CC1O	CCC(=O)[C@@]1(O)C[C@H]1O	
InChI=1S/C6H10O3/c1-2-4(7)6(9)3-5(6)8/h5,8-9H,2-3H2,1H3	InChI=1S/C6H10O3/c1-2-4(7)6(9)3-5(6)8/h5,8-9H,2-3H2,1H3/t5-,6+/m1/s1
