21
gdb 109606	1.87384	1.32084	0.99815	5.6161	83.98	-0.2542	0.0327	0.287	1327.9581	0.181145	-383.272061	-383.261396	-383.260451	-383.307747	38.529	
C	 0.7714811556	-0.3170013019	-0.8276212775	-0.38096
C	 0.0908225324	-1.6748240818	-0.6111526677	-0.217062
C	-1.3755897372	-1.5346391388	-0.2592463357	-0.032403
C	-2.1986752685	-2.6212361316	 0.3702963937	-0.067577
C	-1.6576016837	-3.990327425	 0.7176507682	-0.429157
C	-1.827079756	-1.386684358	 1.2073071169	 0.115505
N	-0.9048836437	-1.4775650397	 2.3035994592	-0.578669
C	-2.9035894956	-0.439835337	 1.4322586588	 0.28636
N	-3.7682671734	 0.3131858891	 1.5886299233	-0.356904
H	 1.8229344382	-0.4418132753	-1.1025608644	 0.118026
H	 0.2795807113	 0.2451356928	-1.6281398603	 0.126382
H	 0.7300111716	 0.3016746056	 0.0754460576	 0.123541
H	 0.1750613597	-2.2768405606	-1.5246720786	 0.1096
H	 0.6219476213	-2.234402363	 0.165448453	 0.093795
H	-1.9209538901	-0.8927013292	-0.9464503521	 0.107601
H	-3.2402817234	-2.6368901195	 0.0628587466	 0.111912
H	-0.6199220722	-3.9638868092	 1.0575449226	 0.118895
H	-2.2591694266	-4.4585755892	 1.5042300504	 0.131665
H	-1.6963838465	-4.644608326	-0.1594418246	 0.132469
H	-0.8373897547	-2.4072539732	 2.6935090666	 0.24299
H	 0.0192858116	-1.1326535686	 2.0831197941	 0.243992
71.1022	93.8041	127.0354	159.2751	166.0161	180.5499	210.4105	250.0588	307.901	311.7938	431.4157	464.9908	543.4618	578.6661	581.0107	666.0692	696.0258	770.4692	787.6391	834.4016	953.798	981.9591	1030.2949	1050.5023	1057.7318	1069.6931	1124.5287	1137.8745	1187.3876	1240.0125	1249.6678	1295.6269	1317.9401	1337.6331	1394.1303	1412.6375	1418.5411	1441.403	1484.6743	1496.029	1499.7977	1502.0734	1505.7526	1653.9299	2344.166	3030.6279	3035.3647	3039.2464	3069.8057	3096.8521	3102.9056	3110.7165	3121.4459	3140.6048	3156.0445	3551.0468	3638.9836
CCC1C(C)C1(N)C#N	CC[C@H]1[C@@H](C)[C@]1(N)C#N	
InChI=1S/C7H12N2/c1-3-6-5(2)7(6,9)4-8/h5-6H,3,9H2,1-2H3	InChI=1S/C7H12N2/c1-3-6-5(2)7(6,9)4-8/h5-6H,3,9H2,1-2H3/t5-,6+,7-/m1/s1
