16
gdb 66886	2.65195	2.09689	1.46305	1.9249	73.59	-0.2428	-0.0298	0.213	906.8758	0.12549	-396.887462	-396.880333	-396.879389	-396.918786	27.975	
C	 0.0490147941	 1.5359241771	 0.0918351322	-0.504325
C	 0.0678410708	 0.0413229151	-0.013667612	 0.250017
C	-0.9590048617	-0.8719163755	 0.743889097	-0.064479
N	-1.5088058174	-2.0373651891	 0.0673816936	-0.183177
C	-0.4969591004	-2.630691269	-0.4215427559	 0.001375
N	 0.7947502896	-1.9961316237	-0.1885686435	-0.224009
C	 0.4901294572	-1.0651910994	 0.964113062	-0.084279
C	 0.7202952674	-0.7714583113	-1.0577859823	 0.341135
N	 1.2035381058	-0.5209336496	-2.1880727133	-0.546773
H	 1.0467445442	 1.949556793	-0.0836788017	 0.141739
H	-0.6268738331	 1.9651675647	-0.6541578626	 0.146848
H	-0.2902562095	 1.8598690967	 1.0802188054	 0.123895
H	-1.5962004934	-0.3580400346	 1.4523364394	 0.114602
H	-0.542946937	-3.5159464866	-1.0450599536	 0.136166
H	 1.1035573684	-1.0418254668	 1.855569874	 0.120012
H	 1.676994525	-1.3384304609	-2.5768629388	 0.231252
143.1768	166.4123	231.8777	238.6883	376.356	432.8577	497.6424	644.1325	670.635	722.2645	751.7242	813.3252	840.1004	847.7351	882.2787	899.418	922.5074	934.7916	952.2476	1003.6181	1023.6346	1040.4254	1078.249	1100.007	1180.3789	1203.4021	1249.3661	1293.4239	1321.3422	1402.1155	1425.5219	1481.8541	1494.9688	1655.4764	1807.489	3040.0605	3108.9925	3112.4731	3197.1013	3209.2098	3216.1636	3470.2774
CC12C3N=CN(C13)C2=N	C[C@]12[C@H]3[N][CH]N([C@@H]13)[C]2[NH]	
InChI=1S/C6H7N3/c1-6-3-4(6)9(2-8-3)5(6)7/h2-4,7H,1H3	InChI=1S/C6H7N3/c1-6-3-4(6)9(2-8-3)5(6)7/h2-4,7H,1H3/t3-,4+,6-/m0/s1
