22
gdb 80404	2.75598	1.40194	1.2507	1.3259	81.03	-0.2131	0.0658	0.2789	1136.092	0.194219	-404.334211	-404.325186	-404.324242	-404.367348	35.86	
C	 0.138727006	 1.7617882838	-0.1166611286	-0.446644
C	 0.0093357514	 0.2570564926	-0.0602588143	 0.019677
C	 0.4618338816	-0.6762617817	-1.1280746527	-0.049567
C	 1.4061623779	-0.1916544685	-2.2169802651	-0.274398
C	 2.7394014165	 0.1881466478	-1.5158968261	 0.381264
C	 3.9314386216	-0.6040646596	-2.0610016253	-0.438154
O	 2.9548260042	 1.5858132262	-1.7602460052	-0.455987
C	 2.4846521609	-0.1177427663	-0.0014699054	-0.221782
N	 1.1353803013	-0.6693353862	 0.191850094	-0.119715
H	 0.9812206573	 2.1030865594	-0.7198670093	 0.155322
H	-0.7783349091	 2.1909663386	-0.5355996931	 0.116079
H	 0.2548031694	 2.1713338447	 0.894012656	 0.11592
H	-0.8720846774	-0.0651317013	 0.494158003	 0.084319
H	-0.1400457578	-1.5548191965	-1.3493338527	 0.081794
H	 1.5656202487	-0.9853879737	-2.9519992986	 0.101606
H	 1.0291267128	 0.6796623238	-2.7591906045	 0.12318
H	 4.077983775	-0.3885039171	-3.1233636255	 0.124436
H	 4.852972887	-0.3405099154	-1.5270158083	 0.105482
H	 3.776275033	-1.680790173	-1.938936327	 0.122907
H	 3.7746667592	 1.8393758176	-1.3227533727	 0.275495
H	 3.1970381061	-0.8665329255	 0.3618107613	 0.098803
H	 2.6311830845	 0.7894977003	 0.5950237601	 0.099963
74.0326	153.872	225.6025	242.0985	284.2016	305.1436	334.3451	363.964	413.5058	437.6419	450.17	525.8647	612.051	696.0911	736.4251	757.8722	800.796	876.2635	912.5469	925.7368	949.1759	964.0607	1006.7948	1030.6211	1052.2155	1110.7264	1115.3857	1148.3628	1157.5105	1176.5084	1180.6305	1216.0609	1281.54	1304.5744	1316.5735	1329.8393	1362.3268	1388.0931	1405.0058	1425.7125	1436.384	1483.8868	1492.0944	1494.5989	1498.3929	1507.2061	1516.6277	3021.9333	3028.4947	3032.4381	3059.7293	3070.7986	3082.3844	3089.6158	3096.2239	3101.0643	3115.2548	3126.7012	3142.8129	3805.592
CC1C2CC(C)(O)CN12	C[C@H]1[C@H]2C[C@@](C)(O)CN12	
InChI=1S/C7H13NO/c1-5-6-3-7(2,9)4-8(5)6/h5-6,9H,3-4H2,1-2H3	InChI=1S/C7H13NO/c1-5-6-3-7(2,9)4-8(5)6/h5-6,9H,3-4H2,1-2H3/t5-,6+,7+,8?/m0/s1
