16
gdb 57225	2.95083	0.81933	0.7453	5.0637	89.68	-0.2816	-0.0432	0.2384	1545.3051	0.121184	-363.56881	-363.558923	-363.557979	-363.603652	35.552	
C	-0.0203779258	 1.5465918126	-0.0020854294	-0.396239
C	-0.0070693623	-0.0072081692	 0.0027117182	-0.178065
C	 0.7548172734	-0.5286856186	 1.252540761	-0.396239
C	-1.3861664319	-0.5164021412	 0.0125586315	 0.362584
C	-2.5172815041	-0.918058274	 0.0470711034	-0.477361
C	 0.6706842379	-0.4865465654	-1.2088540817	 0.232579
C	 1.2527109532	-0.8661164909	-2.1968678096	-0.054531
C	 1.9070279577	-1.2971090429	-3.3150857432	 0.206808
N	 2.4654377536	-1.6628233706	-4.2658910796	-0.335645
H	 1.0037431301	 1.9284208595	-0.0142383235	 0.133222
H	-0.5505667811	 1.9261542424	-0.8774318249	 0.144373
H	-0.5257901071	 1.9054617933	 0.8979155677	 0.135778
H	 0.2511472448	-0.1745464811	 2.155386834	 0.135772
H	 0.7740465645	-1.6199407418	 1.2663829515	 0.14437
H	 1.7822220797	-0.1556464735	 1.2457239788	 0.133221
H	-3.5163005026	-1.2789907185	 0.0672084059	 0.209372
70.5166	89.8492	170.8009	176.4987	229.9107	237.1377	246.9244	285.3178	337.7848	424.8315	482.9437	513.6147	555.1374	581.4458	595.9456	633.7973	645.4432	659.7188	817.6876	942.1937	943.0015	1038.2064	1073.231	1130.8978	1214.807	1267.5885	1393.7959	1416.8438	1477.8945	1481.9357	1492.0589	1506.1099	2240.684	2264.5062	2401.1814	3050.0494	3053.0212	3130.5031	3135.007	3141.8683	3143.0907	3499.7864
CC(C)(C#C)C#CC#N	CC(C)(C#C)C#CC#N	
InChI=1S/C8H7N/c1-4-8(2,3)6-5-7-9/h1H,2-3H3	InChI=1S/C8H7N/c1-4-8(2,3)6-5-7-9/h1H,2-3H3
