20
gdb 26656	2.18191	1.59657	0.93955	1.3625	85.28	-0.1777	0.0384	0.2161	1281.8443	0.16926	-403.196811	-403.186419	-403.185475	-403.231973	37.112	
C	 0.1508757055	 1.4608344407	-0.1135733427	-0.494517
C	-0.0518047763	-0.0112548138	-0.0547620524	 0.244536
C	-1.1545620266	-0.8018258905	 0.0709270214	 0.158212
C	-2.5887520996	-0.400842617	 0.2149990982	-0.517906
C	-0.6674683562	-2.1610670234	 0.0528573119	 0.024732
N	-1.48461176	-3.2916793944	 0.2449190527	-0.608994
C	 0.6866948029	-2.0963853514	-0.0845877829	 0.296825
C	 1.7639207059	-3.1169703854	-0.1502957829	-0.500804
O	 1.0717088877	-0.7771848122	-0.1422440552	-0.229776
H	 0.8286845361	 1.803235797	 0.6770056753	 0.134377
H	 0.5858961569	 1.7715963775	-1.0711830052	 0.132635
H	-0.8014869567	 1.9814865017	 0.0077684434	 0.12913
H	-3.1924560494	-0.7106511655	-0.6487777252	 0.116803
H	-3.0404053948	-0.863221079	 1.1005408762	 0.134813
H	-2.697938059	 0.6826265158	 0.3107794748	 0.122879
H	-2.3175620878	-3.2641758109	-0.3321932	 0.239794
H	-0.9952745938	-4.1588512894	 0.0607129187	 0.235614
H	 2.454485345	-2.912617256	-0.976501625	 0.13346
H	 2.3608686857	-3.1646324651	 0.7699938056	 0.131881
H	 1.3362400646	-4.1112136886	-0.3141876268	 0.116307
93.4681	108.5154	126.9872	140.8465	170.3666	199.652	247.0985	254.7483	281.6532	319.8292	354.2831	515.9615	569.749	603.1235	621.2737	678.8003	730.4332	785.0259	846.4505	937.4331	993.5492	1034.4562	1054.5814	1060.8356	1065.5641	1146.8003	1192.1562	1229.0518	1281.1576	1315.9556	1409.207	1415.3534	1424.4149	1464.2621	1469.079	1471.2502	1481.0161	1491.218	1496.0834	1501.1548	1640.0222	1653.4282	1714.0982	3012.0999	3012.9054	3025.1389	3062.2789	3063.4243	3071.8675	3099.4411	3110.559	3127.7348	3515.0403	3605.5217
CC1=C(C)C(N)=C(C)O1	Cc1c(C)c(N)c(C)o1	
InChI=1S/C7H11NO/c1-4-5(2)9-6(3)7(4)8/h8H2,1-3H3	InChI=1S/C7H11NO/c1-4-5(2)9-6(3)7(4)8/h8H2,1-3H3
