21
gdb 115823	4.26832	1.00213	0.93687	0.5788	79.28	-0.2573	0.0884	0.3457	1344.803	0.182739	-424.215455	-424.206539	-424.205594	-424.250048	33.388	
C	 0.080292998	 1.184510326	 0.5261612732	-0.242052
O	-0.1020320004	-0.2066634872	 0.3366057354	-0.245281
C	-1.3514927111	-0.5364392643	-0.216553236	 0.228422
C	-1.3838944635	-2.0659799689	-0.4210768833	-0.361147
C	-2.4472248038	-2.5383837825	 0.5690443033	 0.373002
C	-3.6166063057	-3.3821644976	 0.1327898416	-0.306678
C	-2.5601587203	-3.9545322912	 1.0515487808	-0.322969
C	-2.6496532577	-1.3476298729	 1.4907868513	-0.169657
O	-2.4223317124	-0.2153470599	 0.6517542802	-0.253862
H	 1.0771854992	 1.3219931277	 0.9508391446	 0.123428
H	 0.0215986125	 1.7285653217	-0.4293173142	 0.103033
H	-0.6690096434	 1.5994984305	 1.2099319983	 0.125182
H	-1.518090621	 0.0514261566	-1.1303841275	 0.068242
H	-1.6319144717	-2.3248380701	-1.4533244121	 0.107348
H	-0.3929607821	-2.4672212097	-0.1943737266	 0.121657
H	-4.5940965784	-3.163682176	 0.5512485665	 0.111998
H	-3.6395379156	-3.7299605764	-0.8952364886	 0.110771
H	-1.8724478672	-4.6901443515	 0.6472284301	 0.113829
H	-2.8242224245	-4.1230467661	 2.0912226962	 0.112076
H	-3.6606269555	-1.2677014295	 1.8993514094	 0.104575
H	-1.9310882554	-1.3601201086	 2.3240079774	 0.098084
24.5478	113.3592	144.5505	202.9693	260.0977	271.0601	313.2808	375.9406	408.9192	546.4645	569.762	747.5263	777.4548	786.5715	836.3101	895.5782	902.8428	943.7622	969.527	985.4534	1013.2043	1040.1819	1057.3169	1064.795	1079.1709	1098.1411	1136.8888	1180.6127	1187.1433	1196.6266	1228.9189	1240.7427	1275.1591	1292.3344	1341.4148	1365.0022	1392.9776	1410.7309	1467.15	1474.159	1483.1021	1483.735	1503.997	1514.0887	1516.9394	2986.5842	2991.288	3006.0777	3064.2391	3064.6003	3089.013	3111.578	3120.326	3122.9788	3124.5022	3198.1061	3213.1907
COC1CC2(CC2)CO1	CO[C@H]1CC2(CC2)CO1	
InChI=1S/C7H12O2/c1-8-6-4-7(2-3-7)5-9-6/h6H,2-5H2,1H3	InChI=1S/C7H12O2/c1-8-6-4-7(2-3-7)5-9-6/h6H,2-5H2,1H3/t6-/m1/s1
