14
gdb 19274	3.33163	1.96163	1.40131	2.6129	58.33	-0.2324	-0.0379	0.1945	869.3372	0.104977	-419.622903	-419.615426	-419.614482	-419.655171	26.276	
C	 0.1247008999	 1.3094066357	-0.1304130034	-0.24577
O	-0.3061043036	 0.0104667496	 0.2449559273	-0.241616
C	 0.5303038884	-0.5976627246	 1.1701256868	 0.015565
C	 0.1611308803	-2.0282504653	 1.561254842	-0.009989
O	 0.35667921	-2.8419280415	 0.4132987331	-0.222299
C	 1.5111615505	-2.5616481135	 1.2359840882	-0.113225
C	 1.9453383219	-1.1783139707	 0.7612405301	 0.38711
O	 2.9589322283	-0.6961828427	 0.3546886898	-0.298679
H	 1.1147133428	 1.2869446481	-0.6015186795	 0.139763
H	-0.6082141873	 1.6903434621	-0.8441006055	 0.13463
H	 0.163670661	 1.9835553083	 0.7390144269	 0.108409
H	 0.6923999006	 0.0347402647	 2.0633479519	 0.091008
H	-0.52834291	-2.3724371697	 2.3219279519	 0.124727
H	 2.0591148073	-3.3997968306	 1.6479568704	 0.130366
82.6626	115.2459	166.6016	206.6769	253.3797	357.7047	477.9146	554.4077	655.8532	729.123	816.6642	851.7429	895.7849	923.1722	972.0554	1026.2741	1031.3648	1064.2929	1158.2416	1181.0953	1208.3085	1210.839	1240.0023	1264.564	1348.8387	1375.751	1481.8906	1488.1166	1510.6557	1900.1238	2937.4364	2988.7714	3062.1969	3131.4234	3199.0549	3211.5212
COC1C2OC2C1=O	CO[C@H]1[C@H]2O[C@H]2C1=O	
InChI=1S/C5H6O3/c1-7-3-2(6)4-5(3)8-4/h3-5H,1H3	InChI=1S/C5H6O3/c1-7-3-2(6)4-5(3)8-4/h3-5H,1H3/t3-,4+,5-/m1/s1
