14
gdb 33269	13.17997	0.45268	0.45213	7.0227	110.3	-0.2524	-0.0715	0.1809	2291.0225	0.101011	-362.3716	-362.363063	-362.362119	-362.405863	30.038	
N	 0.0726940971	-6.2798566857	-0.0429327175	-0.331758
C	 0.0603001455	-5.1158178867	-0.0335923239	 0.072096
C	 0.0471819957	-3.7577439862	-0.0222991808	 0.417797
C	 0.0365038688	-2.5406037424	-0.0116577844	-0.178868
C	 0.0248566931	-1.1924164965	 0.0003570934	-0.263049
C	 0.0232086113	 0.0226527253	 0.0169437614	 0.309877
C	 0.0095188261	 1.4456204809	 0.0282397402	-0.209689
C	 0.4936685127	 2.2046441742	 1.261459823	-0.249558
C	 1.3239448175	 2.2225058816	 0.0192792633	-0.249553
H	-0.8148299329	 1.8966931519	-0.5162621273	 0.132122
H	-0.0656245347	 3.0931226089	 1.5303002563	 0.134314
H	 0.8372686736	 1.6100507997	 2.0990318203	 0.140976
H	 2.2370720246	 1.6401682113	 0.0047828188	 0.140977
H	 1.3465983815	 3.1235091638	-0.5825168328	 0.134317
56.9516	61.4382	147.0327	156.05	266.4658	270.5644	420.3096	482.2384	522.0246	559.8471	575.6406	634.1167	637.8304	781.0791	819.9406	829.6329	875.599	962.1258	1063.9311	1085.4468	1108.6341	1109.12	1201.6893	1208.1321	1302.5077	1411.2037	1467.7573	1495.4883	2211.949	2330.7673	2351.0378	3147.405	3149.3529	3153.5398	3233.4926	3248.217
N#CC#CC#CC1CC1	N#CC#CC#CC1CC1	
InChI=1S/C8H5N/c9-7-3-1-2-4-8-5-6-8/h8H,5-6H2	InChI=1S/C8H5N/c9-7-3-1-2-4-8-5-6-8/h8H,5-6H2
