20
gdb 12568	3.09438	1.92956	1.31199	1.9761	71.38	-0.2479	0.0808	0.3287	984.6986	0.17812	-386.149616	-386.141612	-386.140668	-386.181857	30.46	
C	 0.0849095316	 1.5517449732	 0.0020332598	-0.397058
C	-0.0033037644	 0.0365080599	 0.0230406673	 0.214663
O	 0.6230022797	-0.4475638719	-1.1424142533	-0.246619
C	 0.133600116	-1.6555852659	-1.7071348035	-0.064597
C	-0.1157680353	-2.799624106	-0.7082759566	-0.227939
C	 0.8285571767	-2.7934818846	 0.5024145265	-0.194751
C	 0.4439804727	-1.7477763758	 1.5567342195	-0.067125
O	 0.6638606013	-0.3997947261	 1.1830445165	-0.238576
H	 1.1358788833	 1.8484844827	-0.0435536528	 0.135386
H	-0.4317022218	 1.9462500802	-0.8759110582	 0.117336
H	-0.3627415373	 1.9705161403	 0.906147314	 0.11965
H	-1.0565212993	-0.2977796899	 0.0507207792	 0.050822
H	-0.7847996206	-1.4624692133	-2.2837153629	 0.090008
H	 0.9075711492	-1.9498558512	-2.4234667856	 0.110355
H	-1.1499745499	-2.7652304863	-0.3434081298	 0.100185
H	-0.025374623	-3.7437649574	-1.2581660265	 0.10022
H	 0.7900425512	-3.7749255032	 0.9911593406	 0.095525
H	 1.8652676906	-2.6291120722	 0.1880403564	 0.114228
H	-0.6154847867	-1.8927772255	 1.8326700714	 0.082474
H	 1.0413630759	-1.8923504267	 2.4621923179	 0.105812
84.1956	161.1007	208.4017	216.5573	309.8936	335.3305	363.6543	388.4532	525.1644	561.1056	628.5897	774.4565	822.4289	844.4264	862.4999	942.8884	965.9543	979.715	1038.1385	1086.2444	1109.5882	1118.8587	1144.9703	1160.0189	1174.772	1233.5956	1261.9781	1302.2924	1314.0845	1366.8959	1378.119	1383.1305	1394.4387	1419.0797	1420.0464	1423.8102	1471.0669	1481.671	1486.4373	1490.2596	1499.9351	1510.4248	2933.4598	2952.464	2979.6496	3025.2412	3030.8648	3053.9802	3055.2706	3075.4279	3077.5658	3082.8122	3136.6357	3137.6643
CC1OCCCCO1	CC1OCCCCO1	
InChI=1S/C6H12O2/c1-6-7-4-2-3-5-8-6/h6H,2-5H2,1H3	InChI=1S/C6H12O2/c1-6-7-4-2-3-5-8-6/h6H,2-5H2,1H3
