18
gdb 35383	3.98789	1.29739	1.17512	4.1967	79.75	-0.304	0.0385	0.3425	1073.3495	0.150908	-364.795882	-364.789066	-364.788122	-364.82725	27.487	
N	-0.0933638596	-1.1699490284	-0.1182432116	-0.332531
C	-0.0618832652	-0.0156808456	-0.0563527028	 0.267804
C	-0.0066346153	 1.4408363052	 0.0284721271	-0.174889
C	-0.5117970684	 2.0159021767	 1.3963930384	-0.269906
C	 0.7442165688	 2.7662768581	 1.832708307	 0.007033
C	 1.3987877248	 3.4504902434	 0.5884954551	-0.071473
C	 2.7937645864	 3.2175564589	 1.2165926436	-0.240538
C	 2.0071914527	 1.9118429939	 1.4852559781	-0.052777
C	 1.4327823967	 1.9916949304	 0.0357107345	 0.001951
H	-0.577808316	 1.8474934177	-0.8127859361	 0.121249
H	-1.3755681855	 2.6728311895	 1.2617721932	 0.112092
H	-0.7957070483	 1.2252646	 2.0953524097	 0.126279
H	 0.7178330361	 3.3078652358	 2.7796156706	 0.071607
H	 1.0353935753	 4.3354374322	 0.0622158574	 0.07269
H	 3.6400361845	 3.1502543416	 0.5276641679	 0.09661
H	 3.0451619613	 3.8266050403	 2.0889831611	 0.095984
H	 2.3492174442	 1.0119654801	 1.9981305733	 0.086036
H	 2.0726468076	 1.7472690302	-0.8127960265	 0.08278
94.1795	157.1675	290.7394	358.2265	412.8594	488.5734	563.1242	676.0148	716.5709	772.5897	813.273	836.3222	875.5578	891.902	915.6082	946.458	973.3266	988.2298	1009.4885	1028.4924	1041.1912	1066.9342	1089.3063	1110.781	1126.5078	1139.4486	1191.5985	1206.5552	1230.6154	1238.0393	1251.952	1264.5873	1281.1318	1301.7537	1338.6304	1367.1305	1495.764	1520.7043	2353.1604	3052.2261	3053.5258	3063.7891	3090.6051	3103.0754	3109.0335	3110.0587	3113.6592	3120.6168
N#CC1CC2C3CC2C13	N#C[C@H]1C[C@@H]2[C@H]3C[C@@H]2[C@@H]13	
InChI=1S/C8H9N/c9-3-4-1-5-6-2-7(5)8(4)6/h4-8H,1-2H2	InChI=1S/C8H9N/c9-3-4-1-5-6-2-7(5)8(4)6/h4-8H,1-2H2/t4-,5-,6-,7+,8+/m1/s1
