15
gdb 25605	7.24399	0.74933	0.68195	5.4658	68.78	-0.2087	-0.0248	0.184	1532.9169	0.112186	-453.974722	-453.966307	-453.965363	-454.009832	29.02	
O	-0.1792211341	 0.1921792517	 0.5556637871	-0.239944
C	 0.068308889	 1.1106365035	-0.1794229968	 0.139305
C	 1.3755613719	 1.8775254173	-0.1422842726	-0.15463
O	 1.3032557154	 2.8757740651	-1.1467373688	-0.286708
C	 2.3852692904	 3.6754575169	-1.2717261217	 0.383081
C	 2.5165043476	 4.6981702117	-2.1790964363	-0.220944
N	 3.77595221	 5.2116720531	-1.9232379979	-0.233378
C	 4.3173576291	 4.4959394184	-0.908630261	 0.019341
N	 3.4961631646	 3.5517960604	-0.4892324662	-0.336117
H	-0.6480628279	 1.4722261977	-0.949935454	 0.094262
H	 1.5213442977	 2.3154548009	 0.8536370817	 0.146147
H	 2.2144510732	 1.1907190333	-0.313890114	 0.146019
H	 1.8674848677	 5.0878652542	-2.9422446551	 0.13506
H	 4.2070518881	 5.9805612126	-2.4076596818	 0.271176
H	 5.3013185571	 4.6956499632	-0.5135085228	 0.137332
37.2649	44.3444	93.206	122.1733	307.5979	322.4887	397.1042	511.6504	579.4788	651.5008	664.8543	724.3041	734.5644	753.2765	794.7946	946.7891	988.5001	1053.6179	1081.7499	1104.3358	1109.4828	1152.2145	1230.0554	1249.5389	1328.6814	1337.5872	1361.1756	1408.9728	1473.3249	1482.2877	1519.8678	1623.6383	1845.5005	2896.2508	3023.6512	3059.6734	3259.6509	3297.0014	3671.9514
O=CCOC1=CNC=N1	O=CCOc1c[nH]cn1	
InChI=1S/C5H6N2O2/c8-1-2-9-5-3-6-4-7-5/h1,3-4H,2H2,(H,6,7)	InChI=1S/C5H6N2O2/c8-1-2-9-5-3-6-4-7-5/h1,3-4H,2H2,(H,6,7)
