17
gdb 79107	2.60613	2.04346	1.57117	2.6623	72.78	-0.2156	0.014	0.2296	897.1645	0.137716	-417.964702	-417.957687	-417.956743	-417.995927	28.056	
C	-0.1541698557	 1.5291642098	 0.0474081767	-0.333516
N	 0.0997954989	 0.0938585863	-0.0228750853	-0.077857
C	 0.7204947303	-0.4637569451	-1.2118936497	-0.060283
C	 2.2451334633	-0.3548479068	-1.1534620583	 0.067876
O	 2.8246281014	 0.6086249867	-0.2856778531	-0.243626
C	 2.3108380211	 0.4064824837	 0.9770443958	 0.428216
N	 2.6833238164	 1.003969051	 2.0236075125	-0.549999
C	 1.1548290487	-0.5551139544	 0.8331177355	-0.109986
C	 1.5530162627	-1.4287685494	-0.3832582578	-0.15072
H	 0.7151065237	 2.1604420729	-0.1858923029	 0.118883
H	-0.9524085042	 1.7670196327	-0.6634364366	 0.121233
H	-0.5093070126	 1.7803617248	 1.0507840066	 0.135342
H	 0.1693354457	-0.6015917809	-2.1367201854	 0.101334
H	 2.8532282623	-0.5571649494	-2.0254959647	 0.117309
H	 3.4498228962	 1.6483482553	 1.8190436716	 0.223879
H	 0.7967646172	-0.9860397943	 1.7653057705	 0.100669
H	 1.7030136748	-2.4972213229	-0.4299299456	 0.111246
139.4186	170.0628	215.437	309.5008	414.331	425.7976	578.0907	608.5976	682.7929	714.9076	755.7083	791.5878	813.6875	873.7253	877.2279	905.0597	911.0786	986.1373	993.8949	1020.0803	1047.1893	1070.2631	1092.4013	1123.3577	1160.6483	1188.8078	1213.7307	1220.394	1249.7694	1257.1155	1286.2892	1342.2041	1396.6846	1446.7372	1484.005	1508.8129	1777.8065	3000.3223	3075.4983	3113.8079	3145.9596	3162.6226	3206.2526	3226.3829	3466.1204
CN1C2C3OC(=N)C1C23	CN1[C@H]2[C@H]3O[C]([NH])[C@@H]1[C@@H]23	
InChI=1S/C6H8N2O/c1-8-3-2-4(8)6(7)9-5(2)3/h2-5,7H,1H3	InChI=1S/C6H8N2O/c1-8-3-2-4(8)6(7)9-5(2)3/h2-5,7H,1H3/t2-,3-,4+,5+/m1/s1
