19
gdb 90334	2.85688	1.52079	1.25951	2.3658	78.13	-0.227	0.0042	0.2311	1059.9516	0.158388	-422.996752	-422.988254	-422.98731	-423.029338	32.934	
C	-0.1141979025	 1.6692314716	-0.1646070689	-0.431256
C	 0.0435431994	 0.1615026882	-0.0044727912	 0.350446
O	 1.0750567128	-0.3259170911	-0.8555600079	-0.321529
C	 2.127216952	-0.8401336676	-0.0194228636	-0.123955
C	 1.4947652104	-1.0500423904	 1.3485071323	-0.237816
C	 0.3326852644	-0.4093288017	 1.3539125557	 0.205202
C	-1.1231938506	-0.6027125574	 1.6970824393	-0.372544
C	-1.3288692395	-0.5985450863	 0.1222877551	 0.075465
O	-2.4369411821	 0.0734219301	-0.4150132789	-0.427316
H	 0.8370832106	 2.1672491347	 0.042201686	 0.113884
H	-0.4165437344	 1.9003405042	-1.1894390688	 0.134318
H	-0.8785009332	 2.0697100177	 0.505885517	 0.119436
H	 2.4841301042	-1.7888629919	-0.4417411355	 0.109462
H	 2.9809015434	-0.1432070266	-0.0153378636	 0.102604
H	 1.8962290283	-1.7337386214	 2.0861540669	 0.102388
H	-1.4000924847	-1.4952681015	 2.260968593	 0.109808
H	-1.6051538927	 0.2774503657	 2.1331194417	 0.119793
H	-1.2157027249	-1.6151067805	-0.2743369136	 0.08372
H	-3.2202483608	-0.4689323457	-0.279551285	 0.287891
117.0425	188.8103	206.3601	231.9385	251.4882	255.6298	295.3007	388.9428	460.4814	492.7001	633.2725	663.8981	701.3543	792.3768	796.165	817.3219	895.442	908.4936	931.0352	973.9736	1025.0065	1025.8122	1071.1377	1102.4039	1124.7113	1138.6633	1163.456	1192.7825	1202.1954	1211.4093	1241.2136	1283.6179	1323.8095	1365.9969	1398.723	1416.3617	1479.012	1480.6965	1488.5097	1517.9677	1730.9153	2970.6189	3027.0265	3032.1367	3047.5503	3059.1607	3121.9039	3123.4453	3127.58	3209.3715	3819.0677
CC12OCC=C1CC2O	C[C@@]12OC[CH][C]1C[C@H]2O	
InChI=1S/C7H10O2/c1-7-5(2-3-9-7)4-6(7)8/h2,6,8H,3-4H2,1H3	InChI=1S/C7H10O2/c1-7-5(2-3-9-7)4-6(7)8/h2,6,8H,3-4H2,1H3/t6-,7-/m1/s1
