16
gdb 97024	2.17494	1.60201	0.93397	6.5587	80.62	-0.1919	0.0165	0.2084	1203.3072	0.126231	-396.980728	-396.972114	-396.971169	-397.014408	31.361	
C	 0.1509256788	 1.3251509443	-0.1707388249	-0.345006
N	-0.2153307	-0.0397564866	 0.1646230845	-0.394006
H	-0.520128268	-0.6049856503	-0.6144472372	 0.265829
C	 0.5215766363	-0.7581325062	 1.0762535906	 0.335111
N	 1.230250062	-0.178646615	 2.0848233563	-0.316083
C	 1.813720291	-1.158791287	 2.8847335855	-0.085208
C	 1.4764937248	-2.3731873869	 2.3702327303	-0.252113
C	 0.6562280329	-2.1410204048	 1.2124919113	 0.087172
C	 0.0786520058	-3.0739418476	 0.3300374056	 0.174425
N	-0.4114645907	-3.8066482084	-0.4263566159	-0.382664
H	 1.1980974349	 1.4323563661	-0.4921238024	 0.126323
H	-0.4970851529	 1.6731670237	-0.9769170983	 0.1457
H	-0.0189890398	 1.9912076933	 0.6839508867	 0.129061
H	 1.2891146318	 0.8103617693	 2.2495752411	 0.266719
H	 2.4169519066	-0.884635681	 3.7333512352	 0.128335
H	 1.7710532162	-3.338620663	 2.7483159215	 0.116405
62.527	117.3242	161.6152	173.1608	231.492	294.8885	414.103	439.2223	511.8425	533.0119	563.2943	619.8404	632.5798	659.5252	735.7059	752.6351	830.8987	911.8886	1040.9886	1086.3704	1097.0425	1149.2603	1167.921	1203.4342	1285.1914	1331.7913	1380.7166	1451.0857	1465.6543	1489.3692	1517.7776	1553.0977	1563.7718	1638.4875	2319.3517	2987.4085	3051.8703	3131.3796	3265.3623	3287.8063	3606.729	3691.7471
C[NH+]=C1NC=C[C-]1C#N	CNc1[nH]ccc1C#N	
InChI=1S/C6H6N3/c1-8-6-5(4-7)2-3-9-6/h2-3H,1H3,(H,8,9)/q-1/p+1	InChI=1S/C6H7N3/c1-8-6-5(4-7)2-3-9-6/h2-3,8-9H,1H3
