18
gdb 42412	4.44788	0.92814	0.82356	2.1844	74.62	-0.2566	0.0317	0.2883	1418.85	0.146768	-439.073239	-439.064417	-439.063472	-439.108513	31.495	
O	-0.0139298849	 0.0809476485	 0.3347008679	-0.386266
C	-0.0043274531	 1.2803353938	 0.2153250394	 0.469592
O	 1.0580304861	 2.0144600085	-0.1927830886	-0.2559
C	 2.2490460516	 1.2827159758	-0.4178382739	 0.16444
C	 3.467013802	 2.1147196411	-0.6428291049	-0.300839
C	 3.3063819598	 1.3233415782	 0.6424268734	-0.27889
N	-1.0617916029	 2.1247420905	 0.5296737878	-0.123283
C	-1.685929016	 3.0129239874	-0.4357679419	-0.223521
C	-2.4113394115	 1.8189037709	 0.108140998	-0.216442
H	 2.0907972042	 0.3691354584	-0.9773050773	 0.119652
H	 4.1858990007	 1.7820238273	-1.3827697666	 0.120128
H	 3.342983677	 3.1896275135	-0.579057671	 0.127872
H	 3.0779316216	 1.8847511534	 1.5409653031	 0.127805
H	 3.9091227655	 0.4359118413	 0.7977900745	 0.122936
H	-1.9210204203	 4.009790514	-0.0746110844	 0.12914
H	-1.3343166002	 2.9663424435	-1.4626916258	 0.134904
H	-2.5437615307	 0.9609954138	-0.5451449699	 0.139522
H	-3.1792285789	 1.9475901501	 0.8649466501	 0.129151
26.3404	79.7398	86.329	149.2285	223.1638	265.7722	362.136	419.6808	496.6274	600.8414	754.6142	783.4685	806.2971	822.3175	833.3408	854.1835	942.2851	971.5171	991.9721	1030.0638	1049.0399	1058.8668	1074.5698	1115.258	1131.2627	1135.5378	1167.8734	1177.5304	1183.3347	1191.9164	1221.7835	1246.8402	1370.7128	1416.5872	1455.6076	1497.9093	1500.4565	1526.2134	1815.8535	3114.879	3119.5906	3141.483	3144.3855	3190.8603	3198.7987	3212.528	3225.0293	3239.0953
O=C(OC1CC1)N1CC1	O=C(OC1CC1)N1CC1	
InChI=1S/C6H9NO2/c8-6(7-3-4-7)9-5-1-2-5/h5H,1-4H2	InChI=1S/C6H9NO2/c8-6(7-3-4-7)9-5-1-2-5/h5H,1-4H2
