15
gdb 12254	3.26773	1.59194	1.20238	2.3762	57.2	-0.2528	-0.0053	0.2475	976.3089	0.119004	-436.944631	-436.936562	-436.935618	-436.977481	28.712	
N	 0.2201133171	 1.4741567806	 0.2188376374	-0.51356
C	 0.0443277036	 0.0529295874	 0.0451550871	-0.18121
C	-1.3649102442	-0.5704215588	 0.2249552597	 0.100972
C	-2.5668121792	 0.3520905982	 0.2287590552	-0.060068
O	-3.7674412699	-0.3747445411	 0.0671736398	-0.41735
O	-1.2351535705	-1.2278965163	-1.089544841	-0.268669
C	-0.0432366264	-0.5924447763	-1.3571545609	 0.418386
O	 0.5727488345	-0.5974605387	-2.3731968867	-0.319571
H	 1.2046453708	 1.7081374522	 0.2708753558	 0.250136
H	-0.1656029377	 1.9969588205	-0.5601449466	 0.245836
H	 0.7840560797	-0.4749246094	 0.6529933253	 0.127077
H	-1.4598576841	-1.3331563951	 1.0013670312	 0.105944
H	-2.6261242314	 0.8679700607	 1.1917634806	 0.131313
H	-2.4515758065	 1.1201781858	-0.5525618471	 0.085045
H	-3.6886057956	-0.8685269696	-0.7574620098	 0.29572
80.1983	118.7621	166.6828	191.205	241.3414	302.2763	411.3331	449.9508	472.9379	575.666	699.4337	762.4348	808.6383	845.0774	868.5329	946.1835	1006.1849	1078.2182	1089.111	1124.3692	1175.2288	1202.5686	1220.0837	1231.9829	1297.6821	1347.8797	1401.1273	1427.4459	1433.1692	1490.1594	1671.716	1932.8221	2980.2139	3080.965	3089.2713	3100.2897	3519.4037	3598.3461	3797.904
NC1C(CO)OC1=O	N[C@H]1[C@@H](CO)OC1=O	
InChI=1S/C4H7NO3/c5-3-2(1-6)8-4(3)7/h2-3,6H,1,5H2	InChI=1S/C4H7NO3/c5-3-2(1-6)8-4(3)7/h2-3,6H,1,5H2/t2-,3+/m1/s1
