19
gdb 39600	3.35292	1.49652	1.09566	1.9333	75.82	-0.2421	0.0115	0.2536	1090.754	0.162707	-423.0277	-423.020784	-423.019839	-423.058794	28.441	
C	-0.0188750017	 1.5803003923	-0.0045215939	-0.326686
C	 1.4811994272	 1.8474901495	-0.0704710215	-0.053221
C	 2.1969072589	 0.819823145	 0.3942604147	-0.149756
C	 1.2561658607	-0.2302024605	 0.923174983	 0.132949
O	 1.6096614572	-1.598006947	 0.8151034394	-0.263172
C	 0.5430377695	-2.3567646734	 1.3482110962	 0.016953
O	-0.6901132669	-2.1530473499	 0.7021111517	-0.246454
C	-1.1372820775	-0.7914629605	 0.7284688285	-0.14674
C	-0.0226263684	 0.0473116023	 0.1221864437	 0.052854
H	-0.4595752928	 2.070229888	 0.877124485	 0.108589
H	-0.5644404994	 1.949445431	-0.8786689719	 0.108166
H	 1.8902386798	 2.789741216	-0.4168521591	 0.099446
H	 3.2738627136	 0.7713265324	 0.4963585972	 0.105509
H	 1.0708210457	-0.0186424155	 1.9973859523	 0.067455
H	 0.796978712	-3.4085579415	 1.2070931081	 0.118764
H	 0.4402873579	-2.126271541	 2.4263106949	 0.075874
H	-2.0675578152	-0.7693235014	 0.1543899759	 0.11105
H	-1.35999738	-0.4789255236	 1.7622755278	 0.088739
H	 0.1694949994	-0.3631153222	-0.8764825318	 0.099678
176.5395	197.3059	324.7671	352.1438	374.321	432.6174	451.6197	533.1292	569.5348	680.8168	733.954	779.0432	855.8743	919.0487	928.8194	948.1921	964.2699	1008.0963	1025.6533	1058.4639	1068.7062	1107.845	1127.5915	1131.2779	1161.8339	1185.6413	1197.3693	1243.8668	1286.8111	1294.8233	1321.6985	1336.224	1351.634	1376.3952	1394.9332	1420.2849	1444.9587	1489.6501	1499.7449	1507.5934	1658.209	2873.5553	2916.9212	2972.0106	2998.9605	3042.3007	3071.9196	3089.0422	3120.657	3192.7429	3220.6452
C1C=CC2OCOCC12	C1C=C[C@@H]2OCOC[C@@H]12	
InChI=1S/C7H10O2/c1-2-6-4-8-5-9-7(6)3-1/h1,3,6-7H,2,4-5H2	InChI=1S/C7H10O2/c1-2-6-4-8-5-9-7(6)3-1/h1,3,6-7H,2,4-5H2/t6-,7+/m1/s1
