23
gdb 59255	2.40534	1.25305	1.05976	1.6908	85.75	-0.2276	0.077	0.3045	1303.5063	0.20393	-388.257956	-388.24803	-388.247086	-388.292722	37.358	
C	-0.2675954834	 1.4145135768	 0.1030876856	-0.388639
C	 0.0648104573	-0.0686123459	-0.1174917216	 0.007985
C	 0.9026599266	-0.2721634038	-1.3876931308	-0.386315
C	 0.7671842787	-0.6388914808	 1.1026632856	-0.067273
C	 0.0529958543	-1.1969866626	 2.298721605	 0.02552
O	-1.1615667389	-1.8552862232	 1.9180996847	-0.286883
C	-0.4018184481	-2.8333900642	 1.1612225118	-0.135571
C	 0.916843667	-2.1148459597	 1.4518307854	 0.236937
C	 2.2276977646	-2.7986273511	 1.7104747267	-0.500441
H	 0.645529809	 2.0087594497	 0.2314020755	 0.106249
H	-0.8130814857	 1.827341079	-0.7520133182	 0.107923
H	-0.8849377162	 1.5511032773	 0.9962325902	 0.119326
H	-0.8841995341	-0.6032646257	-0.2361017868	 0.090461
H	 1.8628713002	 0.2529086858	-1.3147006399	 0.10816
H	 1.1165708168	-1.3322235895	-1.5588260868	 0.109784
H	 0.381559229	 0.1137542047	-2.2703752949	 0.109332
H	 1.6645462197	-0.0881601488	 1.3901455777	 0.078057
H	 0.1299726393	-0.8404028753	 3.3206387735	 0.09678
H	-0.4625217472	-3.8172804101	 1.6427755347	 0.103485
H	-0.737230199	-2.9144909725	 0.1202262035	 0.102312
H	 2.6821647424	-3.1600787407	 0.7798709123	 0.122522
H	 2.9433719524	-2.1143948301	 2.177219728	 0.121438
H	 2.1053470654	-3.6600741394	 2.3773380486	 0.11885
47.9972	121.8941	164.2083	189.7221	226.832	239.9587	250.9851	291.6696	329.4561	348.8137	416.4218	488.7789	588.2683	629.9106	794.2113	806.2259	862.6894	908.6107	928.8075	934.4882	941.5011	967.4989	992.0522	1003.2648	1011.7494	1067.7901	1084.2526	1134.3071	1143.1095	1162.2777	1171.1527	1197.6216	1247.0997	1269.7337	1300.285	1313.9706	1348.4668	1381.7287	1397.009	1417.2761	1418.2637	1474.4103	1486.5734	1486.7892	1491.7736	1498.8555	1503.8573	1509.9288	1517.507	3013.6999	3020.1844	3021.2707	3025.194	3042.1163	3061.0041	3076.4789	3085.1019	3092.0778	3096.1445	3097.997	3102.1968	3105.3849	3165.898
CC(C)C1C2OCC12C	CC(C)[C@H]1[C@H]2OC[C@@]12C	
InChI=1S/C8H14O/c1-5(2)6-7-8(6,3)4-9-7/h5-7H,4H2,1-3H3	InChI=1S/C8H14O/c1-5(2)6-7-8(6,3)4-9-7/h5-7H,4H2,1-3H3/t6-,7+,8-/m0/s1
