17
gdb 69563	2.69925	1.58276	1.37523	0.7056	67.36	-0.2387	0.057	0.2957	988.039	0.13459	-458.886383	-458.878573	-458.877629	-458.918088	31.348	
O	-0.0655696985	 1.4301509206	 0.0717227428	-0.460851
C	-0.0087128972	 0.0500739926	 0.0504136539	 0.382744
C	-0.297533861	-0.7757861956	-1.1633118285	-0.364045
C	-1.1747368341	-0.9427198002	 0.0602593938	-0.154618
C	-0.4940034715	-1.7695751296	 1.1687785368	 0.377587
O	-1.3513892509	-1.9710334364	 2.2435195924	-0.474408
C	 0.5442192835	-2.8528243637	 0.7779889638	-0.16483
O	 1.5876375426	-1.8517289255	 0.6632428857	-0.295014
C	 0.7096325613	-0.7968511914	 1.1327216238	-0.057254
H	 0.6104480471	 1.7715582314	-0.5245803542	 0.288574
H	-0.783153666	-0.2206755212	-1.9602449826	 0.11685
H	 0.388237379	-1.5470869766	-1.4977200163	 0.128705
H	-2.2430810243	-0.7705718865	 0.0288205408	 0.106408
H	-0.8394577137	-2.3101905448	 2.9861849368	 0.284189
H	 0.755871947	-3.5574786196	 1.595065006	 0.091644
H	 0.3917134935	-3.4144785277	-0.1501077291	 0.109591
H	 1.0878391931	-0.2465354557	 1.9978608141	 0.084731
150.352	250.0193	262.1854	278.1639	303.2643	339.9208	367.4055	403.6318	481.6392	510.2942	599.6654	653.8506	768.4354	809.1642	848.0208	882.9344	938.6173	967.5381	975.5577	993.71	1002.4969	1033.8419	1069.9671	1083.248	1086.4822	1145.2648	1156.4302	1201.0446	1218.2595	1263.6526	1276.1353	1310.6109	1354.9081	1393.9335	1405.1974	1495.1016	1513.9534	2998.5683	3065.5879	3088.8547	3127.7363	3199.5144	3213.8887	3788.3357	3800.6084
OC12CC1C1(O)COC21	O[C@]12C[C@H]1[C@@]1(O)CO[C@@H]21	
InChI=1S/C6H8O3/c7-5-1-3(5)6(8)2-9-4(5)6/h3-4,7-8H,1-2H2	InChI=1S/C6H8O3/c7-5-1-3(5)6(8)2-9-4(5)6/h3-4,7-8H,1-2H2/t3-,4+,5-,6+/m1/s1
