15
gdb 13751	3.66144	1.40313	1.18342	5.0902	63.87	-0.2451	-0.0455	0.1996	1026.1487	0.116363	-399.794802	-399.78639	-399.785446	-399.829552	28.882	
C	 0.3787170036	 1.5871803921	 0.0478688412	-0.489597
C	-0.5664203623	 0.4117375816	-0.0902193334	 0.421874
O	-1.3836134772	 0.1278770449	 0.7536873023	-0.302663
C	-0.4273639504	-0.3895911235	-1.3632438674	-0.128562
N	-0.4468474236	-1.8520839764	-1.2258609139	-0.310204
C	-1.5650229084	-1.2140742854	-1.9176773728	-0.125795
C	-2.9042522	-1.311839072	-1.2453190437	 0.1729
O	-3.9280781321	-1.0573434499	-1.829224423	-0.260896
H	 1.4194249895	 1.2452312146	 0.0023815742	 0.145834
H	 0.2376320926	 2.2852371444	-0.7858880017	 0.146207
H	 0.1984639361	 2.100472067	 0.9923754212	 0.150912
H	 0.2425503433	 0.0353476251	-2.1082776323	 0.099799
H	 0.1968192751	-2.2754063792	-1.8891225808	 0.249515
H	-1.6220708348	-1.2493105081	-3.0040099272	 0.112031
H	-2.8722396315	-1.6574135052	-0.1978406826	 0.118647
16.8019	63.5646	144.5669	213.2922	234.8656	305.7486	345.5115	384.9132	502.6622	612.1535	620.1846	771.6073	821.9294	904.5783	924.6086	967.2805	992.8653	1035.0737	1050.0368	1112.6949	1178.9685	1191.8054	1215.2116	1230.5516	1363.01	1379.517	1414.9024	1455.6093	1464.3161	1473.3638	1812.3719	1818.1839	2997.3943	3032.5241	3091.3571	3125.3314	3138.5704	3158.6966	3510.7143
CC(=O)C1NC1C=O	CC(=O)[C@H]1N[C@H]1C=O	
InChI=1S/C5H7NO2/c1-3(8)5-4(2-7)6-5/h2,4-6H,1H3	InChI=1S/C5H7NO2/c1-3(8)5-4(2-7)6-5/h2,4-6H,1H3/t4-,5+/m0/s1
