19
gdb 79937	2.88997	1.61416	1.49658	1.3188	80.59	-0.2184	0.0053	0.2238	977.5684	0.161128	-385.848796	-385.841479	-385.840535	-385.880101	30.202	
O	-0.0475026612	 1.4024992864	-0.1307827013	-0.427158
C	-0.0459717015	 0.0104497506	-0.002722928	 0.122141
C	-0.3808415657	-0.6994713888	 1.2923917805	-0.133875
C	-1.1471019447	 0.1597032897	 2.2574535734	-0.283835
C	-2.3769276076	 0.386452177	 1.7838810464	 0.279034
C	-3.4266879519	 1.4604503919	 1.5929632559	-0.314828
C	-3.2747332183	 1.1495953283	 0.0563215119	-0.261465
C	-2.6299353716	-0.2442188792	 0.4395718738	-0.028793
C	-1.2945828239	-0.8336528836	 0.0319017575	-0.140653
H	-0.3860147869	 1.7644701816	 0.6970538222	 0.281441
H	 0.7749545453	-0.4148774884	-0.5732026977	 0.102489
H	 0.2669306416	-1.4979758787	 1.6404553349	 0.085495
H	-0.6818480687	 0.6360201853	 3.1139372653	 0.096978
H	-4.4154267626	 1.1666196746	 1.9608884078	 0.1144
H	-3.2042968874	 2.4696800877	 1.9463081156	 0.109759
H	-4.1979799708	 1.1107984574	-0.5248992195	 0.102215
H	-2.5536407619	 1.8085907467	-0.4257051938	 0.134301
H	-3.4137560914	-1.0107544771	 0.459172149	 0.080224
H	-1.2816170608	-1.7519540714	-0.5441784338	 0.082129
152.9264	177.896	285.3733	294.0184	306.4231	377.7034	561.6912	571.6963	656.9771	679.6697	713.1966	746.9415	778.5312	808.5768	831.8888	869.8094	895.7687	926.2362	952.3359	975.2892	1011.6193	1042.1242	1053.5218	1071.9915	1093.0186	1097.2221	1124.4801	1180.0293	1198.6508	1221.0142	1238.577	1248.6986	1278.1462	1316.0171	1322.8569	1342.1755	1370.2549	1436.3144	1478.6759	1490.8231	1695.974	3027.726	3048.712	3080.8629	3106.8994	3144.5867	3154.4174	3158.3882	3173.0197	3186.3938	3770.7506
OC1C2C=C3CCC3C12	O[C@H]1[C@H]2[CH][C]3CC[C@H]3[C@@H]12	
InChI=1S/C8H10O/c9-8-6-3-4-1-2-5(4)7(6)8/h3,5-9H,1-2H2	InChI=1S/C8H10O/c9-8-6-3-4-1-2-5(4)7(6)8/h3,5-9H,1-2H2/t5-,6+,7-,8+/m1/s1
