17
gdb 104961	2.1226	1.6004	1.06843	3.4258	74.65	-0.2434	-0.0848	0.1586	1142.6565	0.13435	-418.003605	-417.994213	-417.993269	-418.038158	33.616	
C	-1.3723358549	 0.0165927862	 0.0418585223	-0.339112
N	 0.0899826511	-0.0249904698	 0.0180484614	-0.359239
C	 0.6851472146	-0.6268839281	-1.1324277508	 0.204317
C	 1.9606405115	-1.4564739858	-0.9056164632	-0.279805
C	 0.6798745872	-2.1479850758	-1.2072405435	-0.271787
C	 0.6717601565	 0.0772007202	-2.4489869544	 0.261696
O	 1.0166497868	-0.3960351769	-3.5066169118	-0.29782
C	 0.2453177699	 1.4992461152	-2.3922803545	 0.223027
N	-0.0728543556	 2.6111571808	-2.3730496321	-0.31826
H	-1.8292207995	 0.5900033291	-0.7785567552	 0.119165
H	-1.7618951143	-1.0053079042	 0.0003937852	 0.128349
H	-1.6968059924	 0.4607119459	 0.9865565753	 0.130118
H	 0.4877548076	 0.8865469095	 0.2126385893	 0.235494
H	 2.7135091534	-1.4096449965	-1.6834821066	 0.142723
H	 2.3174112818	-1.4534145177	 0.1167620859	 0.138026
H	 0.1628151338	-2.6447823531	-0.3955838096	 0.136177
H	 0.5530862024	-2.5771288288	-2.1939029377	 0.146931
46.8129	118.7996	141.1759	179.4001	206.1568	253.3338	268.2515	313.6312	365.7051	456.8996	476.555	547.3034	673.4228	702.678	752.6776	792.02	838.1725	884.6805	964.7572	981.9101	1046.5424	1084.8747	1100.3701	1103.2168	1151.8323	1190.0284	1208.8674	1293.6398	1331.8107	1442.3408	1456.6018	1471.0234	1485.7029	1492.7733	1521.4153	1766.7285	2332.9684	2991.4851	3075.3044	3117.2249	3149.5522	3151.585	3243.0707	3256.3837	3543.2606
CNC1(CC1)C(=O)C#N	CNC1(CC1)C(=O)C#N	
InChI=1S/C6H8N2O/c1-8-6(2-3-6)5(9)4-7/h8H,2-3H2,1H3	InChI=1S/C6H8N2O/c1-8-6(2-3-6)5(9)4-7/h8H,2-3H2,1H3
