19
gdb 22635	3.83353	1.08296	0.97092	1.6889	80.46	-0.2303	0.0056	0.236	1260.1803	0.15981	-419.165568	-419.157056	-419.156112	-419.198432	33.046	
C	 0.0265712911	 1.4930088956	-0.0529652734	-0.464803
C	-0.0256945967	-0.0094008951	 0.0570021237	 0.337219
C	-1.2858661236	-0.7414219169	-0.4065675822	-0.287185
C	-1.2596201533	-2.1306876899	 0.2796384535	-0.338416
C	-0.2791733276	-1.970130145	 1.4259989288	 0.43312
N	-0.1731728768	-2.6679496312	 2.4874515642	-0.245966
O	-1.10552729	-3.7217003757	 2.4983962718	-0.393818
C	 0.572410928	-0.7808898786	 1.1951592098	-0.156514
N	 1.24438079	-0.7165805511	-0.1274461639	-0.370783
H	 0.9806759783	 1.8715147035	 0.3211304616	 0.132575
H	-0.0727061637	 1.8085908091	-1.0980595844	 0.120513
H	-0.7854521794	 1.9569903899	 0.5171069522	 0.117294
H	-2.1660052454	-0.1757003116	-0.0815013541	 0.111923
H	-1.3382643978	-0.8089248209	-1.4989578786	 0.105223
H	-2.2366128228	-2.4425874506	 0.6545953905	 0.139261
H	-0.9308571419	-2.9276324318	-0.3972553402	 0.126271
H	-0.9393564665	-4.128826322	 3.3550688626	 0.306955
H	 1.1125350508	-0.3363413849	 2.0230932977	 0.098169
H	 1.1256093373	-1.5904449626	-0.6360866996	 0.228963
91.0223	162.6396	199.7803	215.927	279.8889	344.6265	366.0294	385.0417	445.3891	470.5735	576.6737	594.9233	686.2888	708.8354	797.2611	820.0394	864.6799	915.9865	961.6164	996.144	1009.4723	1012.8075	1052.4069	1086.1297	1114.5669	1153.6741	1183.7002	1237.5663	1242.5712	1267.4773	1291.7497	1316.9991	1331.7433	1403.895	1413.3818	1436.7034	1477.6209	1487.1715	1493.1319	1500.8754	1745.8261	3030.6637	3038.8231	3046.0441	3075.1288	3092.1108	3109.9828	3124.9276	3183.7895	3483.9473	3820.2628
CC12CCC(=NO)C1N2	C[C@]12CCC(=NO)[C@H]1N2	
InChI=1S/C6H10N2O/c1-6-3-2-4(8-9)5(6)7-6/h5,7,9H,2-3H2,1H3	InChI=1S/C6H10N2O/c1-6-3-2-4(8-9)5(6)7-6/h5,7,9H,2-3H2,1H3/t5-,6+/m1/s1
