16
gdb 32278	2.59475	1.48936	0.95181	3.0879	74.4	-0.2293	-0.0141	0.2152	1164.4515	0.125495	-437.936807	-437.92869	-437.927745	-437.969742	30.25	
O	 0.0047864225	 1.4534259819	 0.0420477153	-0.419911
C	 0.0177563558	 0.04004556	-0.0139254207	-0.163804
C	-1.3969855233	-0.4746736556	-0.0040224366	 0.193922
C	-2.5088748325	 0.3571947693	 0.0524239449	-0.186333
C	-3.7860218437	-0.2010276097	 0.0577174429	-0.013276
N	-4.0144078246	-1.5143370121	 0.0109185101	-0.268947
C	-2.9497704991	-2.3150693138	-0.0433027374	-0.099311
C	-1.6361075804	-1.8520068948	-0.0531053195	 0.263653
O	-0.5543490162	-2.682838763	-0.1088690307	-0.442889
H	 0.9152002012	 1.7605162144	 0.0330405007	 0.293826
H	 0.5244339268	-0.3273351486	-0.9210437224	 0.113135
H	 0.5619626635	-0.3966501361	 0.8391382879	 0.113138
H	-2.3690479298	 1.4297697696	 0.0916141452	 0.121965
H	-4.6628573997	 0.439580644	 0.1016344658	 0.104025
H	-3.1421138246	-3.388500019	-0.0814441571	 0.089451
H	-0.8587448158	-3.5964960365	-0.1383825484	 0.301356
66.8954	170.8801	200.0478	219.0559	271.2357	327.1973	376.4486	454.8746	511.2326	530.6385	582.5773	623.719	752.3151	786.8423	857.6239	860.1496	918.2728	978.6584	1040.9149	1071.2625	1097.1321	1160.3964	1207.7189	1226.7556	1232.3902	1251.582	1311.5954	1325.7806	1352.9743	1451.5408	1458.3636	1503.3678	1535.5789	1618.8218	1643.4938	2968.7991	2986.903	3109.2077	3161.2444	3223.637	3811.5756	3846.1375
OCC1=CC=NC=C1O	OCc1ccncc1O	
InChI=1S/C6H7NO2/c8-4-5-1-2-7-3-6(5)9/h1-3,8-9H,4H2	InChI=1S/C6H7NO2/c8-4-5-1-2-7-3-6(5)9/h1-3,8-9H,4H2
