16
gdb 28820	3.55665	1.26027	0.93592	3.4064	85.07	-0.2464	-0.0892	0.1572	1203.6796	0.125168	-400.790474	-400.78252	-400.781576	-400.823814	29.315	
C	-0.1864782308	 1.5001381293	 0.0385184612	-0.464652
C	-0.0441737799	-0.0023735727	-0.0302190426	 0.306937
N	-0.1072689282	-0.529033483	-1.2145204633	-0.321259
C	-0.0045801455	-1.8619852026	-1.5174888026	-0.000228
C	 0.1793424241	-2.9791929531	-0.7681297384	-0.147851
C	 0.3367552824	-3.1445529795	 0.6758146948	 0.328689
O	 0.4954565308	-4.2550824289	 1.169104924	-0.362603
C	 0.3048619866	-1.9620695887	 1.5555802991	-0.156451
C	 0.1457631646	-0.6564666149	 1.2533155597	-0.082065
H	 0.7019819969	 1.9529586783	 0.4949625454	 0.139729
H	-0.3252689127	 1.906274017	-0.9626116199	 0.147305
H	-1.0407692334	 1.780156122	 0.6666050082	 0.139681
H	-0.0925989487	-2.0297756611	-2.5903793238	 0.117514
H	 0.220892837	-3.9243342615	-1.3034945565	 0.118274
H	 0.4334164516	-2.2315885411	 2.6013484546	 0.127636
H	 0.1592759153	 0.0328496702	 2.0952590704	 0.109342
32.4546	139.3607	182.6227	282.9011	322.6051	368.4883	379.4283	393.0177	516.4063	622.5333	676.3901	691.8291	743.9686	840.3045	871.5026	903.7688	917.2968	972.0911	1031.2427	1053.6863	1058.984	1082.323	1219.6336	1246.1958	1303.6999	1341.8421	1398.2803	1446.5182	1463.8169	1472.1997	1480.5963	1567.4079	1630.376	1674.5683	1721.7129	3029.0555	3080.868	3131.6933	3143.5072	3161.2917	3171.5944	3174.1343
CC1=NC=CC(=O)C=C1	Cc1nccc(=O)cc1	
InChI=1S/C7H7NO/c1-6-2-3-7(9)4-5-8-6/h2-5H,1H3	InChI=1S/C7H7NO/c1-6-2-3-7(9)4-5-8-6/h2-5H,1H3
