16
gdb 104966	2.60721	1.38732	1.01411	3.0915	72.42	-0.2577	-0.0692	0.1886	1154.909	0.122181	-437.826505	-437.817395	-437.816451	-437.860731	33.099	
O	 1.061693275	 0.3971278082	-0.2879076716	-0.422251
C	 0.1226309545	-0.6528949986	-0.3733498332	-0.144768
C	-1.2729524433	-0.234540723	 0.0579158155	 0.173904
C	-2.1474769202	-1.2387980291	 0.7407091299	-0.28216
N	-1.6082391561	-0.1173218761	 1.4973042297	-0.328449
C	-1.8752220714	 0.8450294724	-0.7947920014	 0.2338
O	-1.2553127827	 1.3341250982	-1.7231280891	-0.328067
C	-3.2186995931	 1.286603237	-0.4765213983	 0.270145
C	-4.3411133969	 1.6576762956	-0.252017965	-0.401412
H	 0.7878651969	 1.0462336981	-0.9482196056	 0.300079
H	 0.0714121825	-1.0695870838	-1.3902603118	 0.105889
H	 0.4765366755	-1.4491506748	 0.2917539148	 0.098358
H	-3.2218888278	-1.2127610728	 0.5870283545	 0.135351
H	-1.723583468	-2.2315982419	 0.8740966018	 0.123828
H	-0.7940000954	-0.3941490671	 2.0419684492	 0.248216
H	-5.3290507895	 1.9951338577	-0.0508179296	 0.217536
51.6451	107.9816	134.8253	197.0508	228.2381	290.1663	305.8476	335.8609	441.5508	502.2286	516.8112	604.2016	651.6934	679.7232	707.2119	743.8993	814.7225	893.4154	936.5711	972.5818	1010.2091	1053.9963	1084.7359	1126.0807	1142.5524	1215.4337	1252.6699	1338.7704	1386.1846	1392.6346	1437.7095	1486.8775	1504.7329	1731.538	2216.6218	2995.089	3061.8584	3108.3509	3199.8964	3493.2257	3494.9499	3781.0302
OCC1(CN1)C(=O)C#C	OC[C@]1(CN1)C(=O)C#C	
InChI=1S/C6H7NO2/c1-2-5(9)6(4-8)3-7-6/h1,7-8H,3-4H2	InChI=1S/C6H7NO2/c1-2-5(9)6(4-8)3-7-6/h1,7-8H,3-4H2/t6-/m1/s1
