23
gdb 111504	1.96263	1.82734	1.10583	1.0825	85.02	-0.248	0.076	0.324	1199.604	0.206556	-388.283978	-388.274892	-388.273948	-388.31754	35.223	
C	-0.8113906218	 0.9673501194	 0.1882330921	-0.234266
O	 0.4004688765	 0.3126748177	-0.1037880766	-0.238095
C	 0.9498258743	-0.3835356161	 1.0060698023	 0.088899
C	 0.1754670934	-1.6549093885	 1.3883534009	-0.06472
C	-0.4416843417	-2.442724477	 0.2578068368	-0.273368
C	 0.9073029094	-2.8428389369	 0.7860051517	-0.034996
C	 2.1382130527	-2.3118236538	 0.0496909481	-0.24485
C	 2.3630701268	-0.8912939072	 0.6264551363	 0.025777
C	 3.1801925008	 0.0499419144	-0.2550867149	-0.403376
H	-0.6874683958	 1.6983978532	 1.00358379	 0.100112
H	-1.1217805377	 1.4976724671	-0.7158078375	 0.121687
H	-1.6036738224	 0.2616226853	 0.4766015468	 0.111313
H	 0.9979355095	 0.3083962863	 1.8617826368	 0.054676
H	-0.2784416254	-1.713930968	 2.3710889199	 0.077577
H	-1.291024971	-3.0734994111	 0.4984077139	 0.102842
H	-0.4900075152	-1.9671709614	-0.716112456	 0.121951
H	 0.9882938048	-3.7728687587	 1.3375948989	 0.079406
H	 3.0131839104	-2.948709817	 0.2091858859	 0.094157
H	 1.9700676859	-2.2679761258	-1.0331566852	 0.101794
H	 2.8836486353	-1.0225764838	 1.5844482858	 0.071638
H	 2.6763298616	 0.2234647274	-1.2088190678	 0.130119
H	 3.3246416119	 1.0228959805	 0.2263298636	 0.107658
H	 4.1700057678	-0.3726867459	-0.458091062	 0.104066
86.0098	121.3069	186.3181	203.1247	223.907	258.7083	297.3075	356.2564	394.458	484.8261	556.6121	619.1386	683.996	771.8549	816.548	834.6666	895.9449	918.3373	925.6883	941.2872	965.549	1017.8123	1042.8022	1045.6023	1076.1774	1109.2471	1110.387	1137.7166	1149.0107	1181.2552	1183.6397	1195.7194	1214.4438	1239.0854	1288.4757	1299.861	1328.8847	1359.4399	1360.9587	1384.8923	1388.8857	1409.6525	1475.9138	1483.5345	1486.3134	1493.0541	1499.5727	1502.9532	1511.0553	2969.1029	2975.3962	3014.8561	3027.4214	3033.8406	3036.7324	3083.1039	3095.8642	3109.139	3125.0064	3128.5616	3162.2535	3171.4872	3216.6105
COC1C2CC2CC1C	CO[C@H]1[C@H]2C[C@H]2C[C@H]1C	
InChI=1S/C8H14O/c1-5-3-6-4-7(6)8(5)9-2/h5-8H,3-4H2,1-2H3	InChI=1S/C8H14O/c1-5-3-6-4-7(6)8(5)9-2/h5-8H,3-4H2,1-2H3/t5-,6-,7+,8-/m1/s1
