17
gdb 71566	3.03261	1.68972	1.50701	3.6229	71.3	-0.2265	-0.0156	0.2109	934.2811	0.136369	-421.801214	-421.794126	-421.793182	-421.832415	28.538	
C	-0.136530162	 1.49969133	 0.0698988845	-0.511557
C	 0.006983875	 0.0103457886	 0.0655131879	 0.483226
O	-1.2269633479	-0.7421914301	 0.1736931784	-0.336289
C	-0.356953913	-1.8707165356	 0.50786094	-0.052721
C	 0.742215485	-0.9045491605	 1.0824555517	-0.133062
C	 1.9774994699	-0.9566034785	 0.1593901155	-0.261594
C	 0.9425786297	-0.7374074475	-0.9928884061	-0.254764
C	 0.2351930114	-2.0911309129	-0.8980769547	 0.487033
O	 0.1612155832	-3.0134818239	-1.6564799728	-0.335319
H	 0.8452404002	 1.9830242337	 0.0694488609	 0.129234
H	-0.6805683997	 1.8311086879	-0.8206309028	 0.140153
H	-0.6893400499	 1.8277498568	 0.9548972868	 0.135672
H	-0.8407533342	-2.6815331142	 1.0464333779	 0.099292
H	 0.775306909	-0.7316374959	 2.1568410412	 0.0877
H	 2.6209565213	-0.0868726842	 0.3117416059	 0.115211
H	 2.5869312534	-1.8634539559	 0.122425606	 0.117232
H	 1.2079293585	-0.3447258477	-1.9705508301	 0.090554
142.714	201.1525	250.6136	262.8306	400.9996	454.0069	486.7679	558.8033	641.4053	712.2394	761.6025	777.8746	809.7251	854.7058	855.9843	886.1698	915.8818	954.5223	968.9855	996.9137	1063.8642	1095.7056	1100.5158	1136.6407	1151.2835	1172.146	1191.6543	1205.6042	1258.866	1267.5067	1282.5713	1355.7153	1418.1264	1475.2053	1491.087	1499.1349	1895.9756	3039.3212	3060.3186	3110.4072	3116.1069	3118.5356	3132.1491	3162.9462	3163.8116
CC12OC3C1CC2C3=O	C[C@]12O[C@@H]3[C@H]1C[C@H]2C3=O	
InChI=1S/C7H8O2/c1-7-3-2-4(7)6(9-7)5(3)8/h3-4,6H,2H2,1H3	InChI=1S/C7H8O2/c1-7-3-2-4(7)6(9-7)5(3)8/h3-4,6H,2H2,1H3/t3-,4+,6+,7+/m0/s1
