15
gdb 14121	3.91449	1.79985	1.4179	13.1766	62.61	-0.1795	-0.0181	0.1614	863.1813	0.119887	-399.730154	-399.723043	-399.722099	-399.761907	26.27	
O	-0.0105634708	 0.0456456709	 0.4316466674	-0.483942
C	 0.0948376793	 1.2080988228	 0.0022834881	 0.297023
O	 1.0417906448	 1.9223541509	-0.3515014624	-0.480419
C	-1.2768960044	 1.9381246694	-0.0365075377	 0.239918
C	-1.5870463068	 3.195707827	-0.789196755	-0.336082
C	-1.6144021978	 3.2430808991	 0.6987525012	-0.078954
N	-2.913115209	 2.6515936677	 1.2079608292	-0.281745
H	-2.9374391839	 2.5579872454	 2.2219704089	 0.312788
H	-3.7705521617	 3.1176501255	 0.9025726426	 0.297956
C	-2.5495367851	 1.3131007494	 0.5027764605	-0.248379
H	-0.6818579175	 3.634446635	-1.1995007495	 0.179292
H	-2.4968576127	 3.3313794813	-1.3723409918	 0.103622
H	-1.0493947825	 3.8821814767	 1.3634265067	 0.149789
H	-3.340117579	 0.998998545	-0.1826044334	 0.143664
H	-2.3294174731	 0.5512631439	 1.2490624152	 0.185468
74.4122	137.5892	169.5368	289.3402	360.1393	452.8711	493.9818	698.4349	728.1218	767.1052	770.0747	819.0817	837.7057	876.7834	915.9924	933.176	968.806	1029.295	1068.8263	1077.752	1166.8852	1207.3855	1212.4974	1236.164	1247.5211	1308.1032	1329.105	1360.3473	1454.6508	1492.8363	1628.0636	1797.5845	3081.4417	3091.1329	3176.7427	3204.9251	3215.8333	3419.6009	3524.3336
[O-]C(=O)C12CC1[NH2+]C2	[O]C(=O)[C@]12C[C@H]1[NH2]C2	
InChI=1S/C5H7NO2/c7-4(8)5-1-3(5)6-2-5/h3,6H,1-2H2,(H,7,8)	InChI=1S/C5H7NO2/c7-4(8)5-1-3(5)6-2-5/h3H,1-2,6H2/t3-,5+/m1/s1
