20
gdb 76502	2.93074	1.33019	1.17429	1.6128	79.18	-0.2285	0.0654	0.2939	1142.3603	0.170261	-403.08047	-403.07175	-403.070805	-403.113467	33.711	
C	-0.0997941553	 1.5426435798	-0.0326760028	-0.417725
C	 0.0256623517	 0.0363253818	 0.0334972736	-0.125405
C	 1.3861661545	-0.6425514545	-0.0973845562	-0.020271
O	 2.5530772069	 0.1275077223	-0.1581999077	-0.421062
C	 0.6797900338	-0.6382230279	 1.2105423572	 0.355946
C	 1.2256935162	-0.063631685	 2.5208114712	-0.332913
C	 0.6407790526	-1.3186700657	 3.1696158417	-0.023928
C	-0.7904004163	-1.4736044202	 2.8473359262	-0.234748
N	 0.197669099	-1.9004638945	 1.832210289	-0.17286
H	 0.7977222127	 2.0271237105	 0.3603752486	 0.130788
H	-0.2367221147	 1.8826014802	-1.0657197454	 0.112635
H	-0.9588249194	 1.8974834048	 0.5466708169	 0.117373
H	-0.7966287955	-0.5221066298	-0.4091596944	 0.089596
H	 1.4218152943	-1.5920023663	-0.6313220358	 0.094952
H	 2.6366041298	 0.4766165321	-1.0517536612	 0.290497
H	 2.3164672015	-0.0277863033	 2.5285388681	 0.129585
H	 0.8336970683	 0.8953276735	 2.8733961495	 0.101368
H	 1.141400074	-1.9340973592	 3.9096155838	 0.096204
H	-1.3214633997	-2.3092624561	 3.2927856116	 0.11789
H	-1.4020734342	-0.5962778126	 2.6469488561	 0.112078
123.2748	143.2986	172.6416	182.3548	235.7888	292.4482	313.7125	391.5725	441.4673	538.9018	577.3343	595.0924	759.1394	775.5658	796.0575	838.2316	876.9822	923.4708	934.2348	997.5557	1013.3987	1049.7132	1052.3878	1066.1174	1107.7107	1119.0561	1134.1087	1143.1523	1153.6381	1181.7496	1192.594	1228.4397	1257.2118	1277.9986	1315.6799	1360.2516	1374.0151	1411.6937	1476.9921	1486.9942	1497.8326	1503.8901	1509.2446	3029.6102	3051.9894	3085.3814	3103.1631	3104.0809	3114.8052	3118.7531	3134.9483	3166.3704	3197.8536	3806.1986
CC1C(O)C11CC2CN12	C[C@H]1[C@@H](O)[C@]21C[C@H]1CN21	
InChI=1S/C7H11NO/c1-4-6(9)7(4)2-5-3-8(5)7/h4-6,9H,2-3H2,1H3	InChI=1S/C7H11NO/c1-4-6(9)7(4)2-5-3-8(5)7/h4-6,9H,2-3H2,1H3/t4-,5-,6+,7+,8?/m0/s1
