19
gdb 123736	4.8556	0.9661	0.92306	1.9509	82.06	-0.236	0.0267	0.2626	1321.5311	0.162625	-382.084728	-382.076987	-382.076042	-382.117762	29.742	
C	-0.1353350836	 1.5064359166	 0.0528249195	-0.212966
C	 1.3909878234	 1.5024056006	-0.2241602532	-0.226452
C	 1.4856013688	 0.1294598886	 0.513237608	-0.056569
C	-0.0519956824	-0.024313416	 0.2900151359	-0.226456
C	 2.4164088084	-0.9194552712	 0.0109146349	 0.339159
N	 3.3059263897	-1.484156028	 0.8297528817	-0.297859
N	 3.9680474737	-2.3696081963	 0.0595564102	-0.183115
C	 3.5317113402	-2.3891386476	-1.2226014837	-0.018225
C	 2.5202369773	-1.4585269485	-1.2980837939	-0.291237
H	-0.3775560465	 2.0454211978	 0.9734354575	 0.101676
H	-0.7959015378	 1.8635433343	-0.740650156	 0.093424
H	 1.6065029416	 1.3905276287	-1.2912432569	 0.099543
H	 1.993755558	 2.3252754678	 0.1677373475	 0.098089
H	 1.6950050735	 0.2888953823	 1.5742922921	 0.08173
H	-0.6366837959	-0.4578057667	 1.1050315231	 0.098088
H	-0.261497092	-0.585865474	-0.6256254505	 0.099543
H	 4.6997290889	-2.9222961848	 0.4719432858	 0.272807
H	 3.9644893113	-3.0466939628	-1.9601464278	 0.129617
H	 1.9402742031	-1.2043053705	-2.1705422941	 0.099204
49.7832	115.4702	142.084	241.0019	386.8578	392.2227	497.2575	558.2723	662.7214	712.868	728.0555	769.9076	794.0628	842.7354	862.5479	908.618	934.4576	944.2188	947.731	979.6637	1023.2537	1029.2557	1071.5888	1109.5166	1123.8116	1196.2714	1202.8967	1239.5085	1252.7547	1261.7628	1273.3381	1287.3854	1302.0351	1339.229	1415.0225	1477.4597	1477.48	1487.1106	1492.5932	1508.7491	1575.2769	3051.5874	3053.5501	3059.1208	3073.3219	3098.7911	3106.3109	3120.0888	3253.2101	3272.5338	3678.8411
C1CC(C1)C1=NNC=C1	C1CC(C1)c1n[nH]cc1	
InChI=1S/C7H10N2/c1-2-6(3-1)7-4-5-8-9-7/h4-6H,1-3H2,(H,8,9)	InChI=1S/C7H10N2/c1-2-6(3-1)7-4-5-8-9-7/h4-6H,1-3H2,(H,8,9)
