20
gdb 6760	5.4715	0.69725	0.65706	0.8781	82.38	-0.2414	0.0402	0.2816	1794.5699	0.174002	-348.970049	-348.959624	-348.958679	-349.007951	35.372	
C	 0.470475329	 1.3946124785	 0.0184110073	-0.217463
O	 0.6209639304	-0.0049417413	 0.0363365817	-0.227323
C	 0.1236390932	-0.6064114236	-1.1452187136	-0.200563
C	 0.2968549408	-2.0514069067	-1.0883317743	-0.051424
C	 0.4240384619	-3.2486016525	-1.0645519438	 0.189168
C	 0.6032771248	-4.699894942	-1.0168843916	-0.12729
C	 1.7288478846	-5.1557659323	-1.9663472229	-0.374053
C	 0.8616644679	-5.1721802126	 0.4281452592	-0.372816
H	 1.0183128384	 1.8563552321	-0.8190856391	 0.103049
H	-0.5874682645	 1.6933878554	-0.0604055504	 0.10309
H	 0.8758331471	 1.7759561183	 0.9582941288	 0.129582
H	-0.9452566709	-0.3606540031	-1.2767322277	 0.110804
H	 0.6469203828	-0.1994033582	-2.0288056138	 0.110715
H	-0.3325662535	-5.1648749774	-1.3579109479	 0.103433
H	 1.5295918405	-4.8401380555	-2.9938628024	 0.121623
H	 2.6875928086	-4.7262849973	-1.659861978	 0.12514
H	 1.8198617623	-6.246678712	-1.9508516064	 0.110922
H	 0.0470264219	-4.8716435729	 1.09189052	 0.125515
H	 0.9515016035	-6.2627735924	 0.4588175518	 0.110673
H	 1.7895563712	-4.7390645046	 0.8138112931	 0.127217
7.2216	69.9994	73.5256	132.5303	198.4131	227.6885	230.9304	264.3663	291.591	340.8877	369.4265	438.6127	534.4037	572.2646	734.3948	888.0346	931.4213	964.4684	975.8597	1028.658	1069.259	1120.3026	1139.4283	1158.5832	1182.7499	1210.5303	1220.3302	1254.7657	1324.3931	1351.0615	1395.374	1411.4685	1417.5386	1477.7936	1484.1348	1485.3647	1489.0747	1496.4648	1498.2251	1510.1293	1517.046	2368.9822	2938.798	2954.8476	2965.4355	3002.4365	3006.6807	3035.668	3039.3816	3107.1065	3112.2017	3117.9362	3118.2165	3121.576
COCC#CC(C)C	COCC#CC(C)C	
InChI=1S/C7H12O/c1-7(2)5-4-6-8-3/h7H,6H2,1-3H3	InChI=1S/C7H12O/c1-7(2)5-4-6-8-3/h7H,6H2,1-3H3
