20
gdb 75307	2.44074	1.88005	1.2791	2.1032	79.88	-0.2085	0.0192	0.2277	1039.0084	0.17167	-403.122928	-403.114815	-403.11387	-403.154862	32.895	
C	-0.0517682238	 1.5011357498	 0.0504410298	-0.513643
C	-0.0189427956	 0.0026806	-0.0102936905	 0.271762
C	-0.0284310528	-0.7183054091	-1.1347624584	-0.176923
C	 0.0270540352	-2.2291051831	-1.035359716	-0.219572
N	 0.0846837679	-2.7084987454	 0.3619559576	-0.122561
C	 1.1124864249	-1.89738554	 1.1126744871	-0.196992
C	 0.0455380417	-0.7995913804	 1.2956145124	 0.296526
O	 0.1375851567	-0.034982417	 2.4678023967	-0.483628
C	-0.9603088419	-1.9782720456	 1.1681535172	-0.227782
H	 0.8020334742	 1.8948256957	 0.6129575132	 0.140411
H	-0.0385415881	 1.932200925	-0.953736643	 0.125286
H	-0.9545381571	 1.8732290109	 0.5550718426	 0.112638
H	-0.066783136	-0.252719669	-2.1170986779	 0.081718
H	-0.8480287443	-2.6854464373	-1.5174024079	 0.110943
H	 0.9041960961	-2.6214860069	-1.5674259831	 0.112133
H	 1.3620469435	-2.3999184795	 2.0518226486	 0.10844
H	 2.0203422153	-1.6491997745	 0.5578580752	 0.103029
H	-0.6146344841	 0.5648218095	 2.5099366693	 0.277227
H	-1.91115949	-1.8017467664	 0.6581522773	 0.096475
H	-1.1225982118	-2.4988731167	 2.1170116197	 0.104513
133.8741	200.854	249.2456	284.5182	298.805	358.5436	382.5181	418.3592	420.9055	492.3194	592.4191	617.5536	708.0632	754.1131	802.6597	808.3934	888.5198	918.2481	941.9084	985.1385	1006.5422	1021.1734	1048.2574	1054.9277	1074.3835	1112.8132	1143.0961	1206.1924	1217.4451	1242.2531	1268.1662	1273.4828	1285.058	1339.5756	1354.1648	1360.3053	1412.2337	1476.2586	1476.9667	1485.2382	1490.8228	1514.3806	1721.3382	3008.5136	3009.9188	3037.2603	3041.1472	3051.9002	3067.0829	3106.7432	3114.6364	3117.2309	3148.7721	3809.2737
CC1=CCN2CC1(O)C2	CC1=CCN2C[C@]1(O)C2	
InChI=1S/C7H11NO/c1-6-2-3-8-4-7(6,9)5-8/h2,9H,3-5H2,1H3	InChI=1S/C7H11NO/c1-6-2-3-8-4-7(6,9)5-8/h2,9H,3-5H2,1H3
