21
gdb 76145	2.18849	1.40868	1.15042	3.1835	80.25	-0.2367	0.0458	0.2825	1206.8829	0.180509	-420.437605	-420.427178	-420.426234	-420.472464	38.645	
C	 0.1744267602	 1.4009113876	-0.2640596426	-0.410271
C	-0.0264901371	-0.0714615378	 0.0100837487	-0.053292
N	 1.0123655985	-1.0657229219	-0.2685418105	-0.154857
C	 2.2686396119	-0.8287959875	-0.8275324326	 0.402265
N	 2.198676375	-0.3197212852	-2.1130761383	-0.538266
O	 3.3192415529	-1.0790420673	-0.2711701056	-0.383514
C	 0.6593959344	-0.8270552101	 1.1248006486	 0.296368
C	 1.6375901423	-0.132914011	 2.0538609939	-0.443637
C	-0.0929046298	-1.9733424304	 1.7765186419	-0.441629
H	 1.1712519626	 1.7486115668	 0.0117388383	 0.135527
H	 0.0350497243	 1.62042221	-1.3275068763	 0.122878
H	-0.5632072703	 1.9848885394	 0.2966883462	 0.12375
H	-1.0246001296	-0.4239927862	-0.2549336728	 0.085598
H	 1.3571577097	-0.5004787649	-2.637715351	 0.25491
H	 3.0586144715	-0.4091757949	-2.6323032517	 0.259134
H	 2.1666728961	 0.6931551799	 1.5792098521	 0.128853
H	 1.1030162728	 0.2510394063	 2.9296214608	 0.10954
H	 2.3950896713	-0.8427682805	 2.3955020888	 0.143517
H	 0.607203331	-2.7301465042	 2.1459565101	 0.128394
H	-0.6818432793	-1.6145819095	 2.6277433357	 0.114877
H	-0.7668696484	-2.4545107485	 1.0633193663	 0.119855
73.938	144.4024	150.5431	167.1682	172.4405	199.2744	239.0668	275.2593	332.9496	387.5212	433.5808	457.4963	481.8287	510.7629	569.2415	588.7708	707.9527	735.9326	785.8238	837.9739	955.537	976.47	997.1034	1030.0013	1033.7567	1109.406	1133.2273	1145.0507	1169.4891	1183.963	1274.6397	1320.9881	1399.1709	1409.0934	1413.2677	1429.928	1442.9351	1470.8538	1478.3848	1484.8551	1494.7239	1500.6574	1512.8206	1615.2574	1791.5099	3033.2308	3041.2066	3046.5511	3086.5913	3098.7476	3099.4894	3115.5522	3120.3786	3135.5037	3150.9668	3580.5344	3700.6072
CC1N(C(N)=O)C1(C)C	C[C@H]1N(C(=O)N)C1(C)C	
InChI=1S/C6H12N2O/c1-4-6(2,3)8(4)5(7)9/h4H,1-3H3,(H2,7,9)	InChI=1S/C6H12N2O/c1-4-6(2,3)8(4)5(7)9/h4H,1-3H3,(H2,7,9)/t4-,8?/m1/s1
