19
gdb 122106	2.41166	0.94872	0.83517	2.5183	74.64	-0.259	0.026	0.285	1462.9891	0.155858	-460.098555	-460.087962	-460.087017	-460.136308	37.217	
O	-0.0953832543	 1.4984428953	-0.3621370081	-0.418362
C	-0.0774826187	 0.1222853982	-0.0326724788	-0.070593
C	-1.4870092504	-0.4456782555	 0.0578179768	-0.074034
O	-2.0902376977	-0.2060162215	-1.2072233375	-0.280469
C	-3.4496694384	-0.6326395686	-1.3325844534	-0.095177
C	-4.3860996722	 0.3709089798	-0.624428963	-0.067302
O	-4.1436710464	 1.6899468655	-1.046280198	-0.413114
C	-3.7481927976	-0.7488861915	-2.7574032933	 0.335993
C	-4.0299236036	-0.8607906556	-3.9191378577	-0.430762
H	-0.492600082	 1.5571644326	-1.2380214498	 0.293304
H	 0.5015168152	-0.4590306519	-0.7657690735	 0.101983
H	 0.4172505815	 0.03041529	 0.9393781289	 0.11472
H	-1.4617009587	-1.5244406657	 0.2781224111	 0.096132
H	-2.0371650045	 0.0605320604	 0.8632026447	 0.105845
H	-3.5695760578	-1.6206863403	-0.8586754368	 0.099043
H	-5.4246798762	 0.1288274071	-0.8675632631	 0.123407
H	-4.2650362925	 0.2604218137	 0.4652597242	 0.090565
H	-3.1881154835	 1.8178667741	-1.0045652863	 0.28668
H	-4.2736973123	-0.953431376	-4.9487393265	 0.202143
13.3243	49.2324	109.6453	113.2189	171.9864	212.732	263.3976	290.9522	340.6265	394.7085	420.5626	426.5943	499.4697	569.0821	624.2723	675.239	718.7395	838.6261	861.6791	909.4532	933.852	1044.1267	1064.2469	1083.9934	1102.7027	1127.1943	1129.4607	1222.3286	1233.8595	1265.0534	1303.2031	1343.2198	1391.2133	1395.3334	1410.6235	1430.2754	1432.6322	1494.8024	1502.7516	1511.6484	2246.1454	2967.3266	2977.1014	2986.825	2997.134	3034.5386	3087.1975	3090.7441	3503.3772	3786.6408	3810.5471
OCCOC(CO)C#C	OCCO[C@@H](CO)C#C	
InChI=1S/C6H10O3/c1-2-6(5-8)9-4-3-7/h1,6-8H,3-5H2	InChI=1S/C6H10O3/c1-2-6(5-8)9-4-3-7/h1,6-8H,3-5H2/t6-/m1/s1
