18
gdb 28472	3.04999	1.33655	0.94009	1.7732	83.01	-0.2223	-0.013	0.2093	1232.1726	0.148677	-402.036825	-402.028429	-402.027485	-402.069504	32.127	
C	-0.0156282588	 1.506278039	-0.0369992569	-0.503287
C	 0.0190142568	 0.0015119991	 0.0132564818	 0.194148
C	 0.0406624266	-0.7485303789	-1.1559587731	-0.066997
N	 0.071744868	-2.0859375101	-1.2086805823	-0.380497
C	 0.0824091063	-2.7324344069	-0.0520637673	 0.431991
O	 0.1137500288	-4.0830067769	-0.0914627308	-0.421591
C	 0.0631086137	-2.0952747457	 1.1915455878	-0.291181
C	 0.0309246205	-0.7090022467	 1.2335274185	 0.25572
C	 0.0093024995	 0.0152586861	 2.5534626646	-0.494962
H	 0.8517444396	 1.9536878252	 0.4633173488	 0.127658
H	-0.019312689	 1.8602136477	-1.0715159056	 0.125297
H	-0.9071558026	 1.9129193353	 0.4556160142	 0.127672
H	 0.0324959198	-0.2404120429	-2.1185446954	 0.100801
H	 0.1226013085	-4.3161348217	-1.0301080382	 0.294989
H	 0.0734888022	-2.6892779823	 2.0981271856	 0.100946
H	 0.8726068067	 0.6831198763	 2.6550577441	 0.135813
H	-0.8844282101	 0.6428629149	 2.6483669931	 0.135806
H	 0.0221754743	-0.6854356116	 3.3913889112	 0.127674
134.7212	145.2969	182.0868	211.2346	288.66	324.2943	341.6909	454.0515	468.2251	520.2805	527.5106	556.724	631.8958	759.6065	774.655	775.1976	887.4618	949.9943	971.7972	1024.0153	1025.4506	1047.7022	1075.4336	1151.4132	1203.4656	1236.0923	1306.9805	1327.3418	1361.3348	1408.8108	1423.7791	1456.0868	1477.0892	1491.5444	1492.3452	1502.8655	1527.8134	1613.8317	1663.0419	3021.813	3030.07	3068.5652	3080.7671	3109.5629	3121.7951	3143.2588	3195.4729	3768.6523
CC1=CN=C(O)C=C1C	Cc1cnc(O)cc1C	
InChI=1S/C7H9NO/c1-5-3-7(9)8-4-6(5)2/h3-4H,1-2H3,(H,8,9)	InChI=1S/C7H9NO/c1-5-3-7(9)8-4-6(5)2/h3-4H,1-2H3,(H,8,9)
