23
gdb 115506	3.70871	0.88505	0.75792	1.0642	82.87	-0.2501	0.0911	0.3412	1605.5827	0.204985	-425.446362	-425.436199	-425.435255	-425.482466	36.487	
C	 0.0076390005	 1.5744905688	 0.137729697	-0.38219
C	 0.0549633327	 0.0444025278	 0.1570136356	-0.203687
C	-1.3234415886	-0.5962768221	 0.1185280426	 0.118898
C	-1.3396581354	-2.1398663437	 0.1650535692	-0.107764
O	-2.4228681499	-2.4643224257	 1.0279263352	-0.272771
C	-3.037167635	-1.2462883803	 1.4299260438	 0.235253
C	-3.5104051206	-1.3321154174	 2.868402417	-0.20166
C	-4.5771238676	-2.4104118439	 3.0707943532	-0.383613
O	-2.0583675724	-0.2468758267	 1.2882815739	-0.268729
H	 1.0146725012	 1.9995183325	 0.1820715997	 0.112257
H	-0.4715219432	 1.9440651247	-0.7756518107	 0.113197
H	-0.5618868848	 1.9521836456	 0.9909238597	 0.137518
H	 0.6284571122	-0.326582067	-0.7020521364	 0.099295
H	 0.5694056985	-0.307511863	 1.0593701387	 0.107057
H	-1.8734172951	-0.2469447037	-0.7721577192	 0.06679
H	-1.4908173546	-2.581311864	-0.8276560606	 0.100244
H	-0.4101316907	-2.5415747311	 0.5886937885	 0.100325
H	-3.8858819922	-1.0347290549	 0.7489934183	 0.053652
H	-2.6326273133	-1.5298465603	 3.4926988684	 0.107293
H	-3.8981276497	-0.3467480097	 3.1504376517	 0.105229
H	-4.8987022845	-2.4488862768	 4.1153860248	 0.113109
H	-5.4632582197	-2.2141699993	 2.4568833624	 0.113625
H	-4.1893626679	-3.3945114095	 2.7946038073	 0.136671
46.8621	76.1457	91.7307	120.3577	187.6612	205.4109	233.904	251.3846	375.2071	401.9996	468.8944	488.1765	657.7934	714.9091	779.5951	788.5678	875.5821	888.0593	948.5677	968.988	987.0595	1017.4144	1039.1989	1059.3518	1107.5744	1119.2601	1142.8608	1146.9617	1169.1634	1190.7001	1224.3385	1282.8868	1299.4209	1321.1036	1329.2541	1351.2865	1374.4229	1394.0953	1407.4858	1408.8345	1416.7586	1449.9489	1474.3616	1478.2647	1497.8069	1497.9429	1508.5369	1510.4475	1528.2328	2900.2838	2953.4514	3012.2675	3026.2697	3037.8102	3038.5553	3044.2769	3051.8498	3065.7636	3084.6255	3103.9152	3106.4282	3123.6315	3123.9738
CCC1COC(CC)O1	CC[C@H]1CO[C@@H](CC)O1	
InChI=1S/C7H14O2/c1-3-6-5-8-7(4-2)9-6/h6-7H,3-5H2,1-2H3	InChI=1S/C7H14O2/c1-3-6-5-8-7(4-2)9-6/h6-7H,3-5H2,1-2H3/t6-,7+/m0/s1
