18
gdb 47001	2.67679	1.78718	1.42817	4.8266	70.94	-0.2282	0.0241	0.2522	957.0809	0.151811	-439.131708	-439.1246	-439.123656	-439.163299	28.066	
O	 0.0052069851	-0.0802502594	 0.1452122603	-0.375602
C	-0.02404505	 1.1304348325	 0.0514530562	 0.400886
N	-1.1942941202	 1.8415276168	-0.0225852757	-0.307412
C	-1.327238499	 3.2927765822	 0.0657780064	-0.168426
C	 0.0377720689	 3.976976033	-0.0917785782	-0.050594
C	 0.6509989159	 3.7196052698	-1.4813515973	-0.068308
O	 1.3860703066	 2.495296935	-1.3718464188	-0.268726
C	 1.2390546019	 2.0036250865	-0.0358202909	 0.008711
C	 1.0605481017	 3.2640518365	 0.8126030995	-0.253745
H	-2.0299206199	 1.2781057382	 0.0423641723	 0.246416
H	-2.0136685326	 3.6465069856	-0.7138906664	 0.112644
H	-1.765630146	 3.5747570211	 1.0347286355	 0.107874
H	-0.0709361796	 5.0431774298	 0.1179634963	 0.082198
H	-0.1110725715	 3.6246641929	-2.2643773315	 0.105379
H	 1.3413777679	 4.5222852017	-1.7703464516	 0.103455
H	 2.1026314806	 1.3809795774	 0.1976871035	 0.100476
H	 1.9993304767	 3.8203155336	 0.8855137826	 0.111335
H	 0.6862445838	 3.0647975069	 1.8204532179	 0.113438
105.7911	145.4588	244.8437	355.0766	393.8107	423.4761	476.9487	578.1604	617.9206	716.5817	736.4357	817.1425	820.8263	889.1968	908.9647	937.7747	952.7167	979.5936	994.5708	1053.6197	1076.5888	1100.6907	1136.3448	1145.9026	1188.7535	1226.0132	1268.6926	1301.3007	1323.6487	1326.4376	1337.6191	1348.0589	1385.4569	1402.5908	1479.3216	1493.038	1524.5598	1532.6784	1804.9824	2989.407	3015.4114	3033.3962	3053.4349	3058.3472	3093.8772	3110.2328	3125.9373	3605.8116
O=C1NCC2COC1C2	O=C1NC[C@@H]2CO[C@H]1C2	
InChI=1S/C6H9NO2/c8-6-5-1-4(2-7-6)3-9-5/h4-5H,1-3H2,(H,7,8)	InChI=1S/C6H9NO2/c8-6-5-1-4(2-7-6)3-9-5/h4-5H,1-3H2,(H,7,8)/t4-,5+/m1/s1
