18
gdb 63855	2.2896	1.59209	1.27911	4.2548	76.87	-0.276	-0.0023	0.2736	1069.4004	0.14589	-401.931979	-401.923254	-401.92231	-401.964898	33.206	
C	-0.0484185085	 1.5385589041	 0.103438209	-0.453393
C	-0.0145580812	 0.0199497451	-0.0207211179	 0.230041
C	-1.3865977028	-0.5724491751	-0.333316468	-0.456573
C	 1.1231947175	-0.5821824634	-0.940139513	-0.298346
C	 1.713279866	-1.2781686709	 0.2873396582	-0.051892
O	 2.0318034332	-0.2685653499	 1.2467560816	-0.27918
C	 0.6719621797	-0.7104672583	 1.1724547211	 0.321651
C	 0.0546215259	-1.2251123528	 2.3552539613	 0.197369
N	-0.4976507189	-1.6273985228	 3.2886702791	-0.343606
H	 0.9317566424	 1.9268743907	 0.3903462078	 0.137402
H	-0.3331007026	 1.9935131806	-0.8514380721	 0.119651
H	-0.7797105208	 1.8550531878	 0.8550887461	 0.125928
H	-1.7547945034	-0.1904978327	-1.2909932776	 0.125045
H	-1.3515733613	-1.6651261435	-0.3962424561	 0.122031
H	-2.1141956591	-0.3051851483	 0.4400466455	 0.136216
H	 0.73029708	-1.2762166927	-1.6862011916	 0.117444
H	 1.7950429853	 0.1335766131	-1.418720994	 0.120618
H	 2.2440204085	-2.2194754609	 0.3674502506	 0.129593
112.9242	133.6204	193.2395	229.8539	260.1616	293.2379	326.4747	359.1465	429.3399	486.937	533.7806	575.7733	610.156	647.1692	804.5999	837.3852	907.0612	925.7806	949.5386	963.4822	977.6147	1021.6064	1040.409	1109.7637	1126.5581	1192.032	1227.9047	1264.1339	1274.2015	1290.4785	1398.2206	1408.2483	1423.4961	1474.5882	1484.1044	1487.0981	1500.7119	1510.6481	2352.8089	3030.5995	3035.0473	3072.0286	3097.2678	3102.3897	3105.7741	3123.6192	3131.0667	3196.392
CC1(C)CC2OC12C#N	CC1(C)C[C@H]2O[C@@]12C#N	
InChI=1S/C7H9NO/c1-6(2)3-5-7(6,4-8)9-5/h5H,3H2,1-2H3	InChI=1S/C7H9NO/c1-6(2)3-5-7(6,4-8)9-5/h5H,3H2,1-2H3/t5-,7-/m1/s1
