17
gdb 70200	3.49287	1.35936	1.15335	3.8333	68.66	-0.2425	0.0024	0.245	1078.3534	0.13537	-458.973426	-458.965501	-458.964557	-459.005761	30.462	
C	-0.1486505105	 1.5316333548	-0.0060483921	-0.450989
C	-0.0040017052	 0.0337128544	 0.0255848786	 0.407035
C	-0.7922753176	-0.7999487524	 1.0224241108	-0.395723
C	 0.7116920488	-0.6527501096	 1.1449170111	 0.045258
O	 1.5593337623	-1.7511183722	 0.8627497653	-0.215218
C	 1.5186259458	-2.3624561307	-0.343401021	 0.393743
O	 2.2204332672	-3.310435968	-0.5609294221	-0.316819
C	 0.5321026156	-1.8236275284	-1.3728242879	-0.244114
O	 0.2361486175	-0.4461556349	-1.2705623341	-0.282401
H	 0.7392476286	 1.9893211288	-0.4521931942	 0.135879
H	-1.0199416677	 1.8161551838	-0.6040917981	 0.134828
H	-0.2783050796	 1.931269702	 1.0029923485	 0.122069
H	-1.4179889181	-0.2850405691	 1.7432511504	 0.127247
H	-1.1694472837	-1.7702894504	 0.7199487683	 0.131398
H	 1.1326522257	-0.0876825608	 1.9680816676	 0.121234
H	 0.9744909831	-1.9823477417	-2.3572581935	 0.155791
H	-0.3798499223	-2.4393547455	-1.3201194877	 0.130784
88.8419	185.6984	206.9829	234.0393	307.2767	374.438	386.2543	466.9664	501.8778	543.8976	596.3962	678.2439	738.1468	799.8497	831.0457	894.1007	910.3872	955.4551	1017.428	1035.5464	1058.1433	1117.5387	1124.752	1137.0425	1156.6082	1226.8746	1263.897	1276.3322	1338.5879	1384.7082	1410.3065	1428.0001	1475.2145	1479.0468	1488.5417	1506.4482	1854.1849	2984.4688	3042.9926	3112.9667	3124.7582	3127.3383	3140.1448	3181.1357	3227.7994
CC12CC1OC(=O)CO2	C[C@]12C[C@H]1OC(=O)CO2	
InChI=1S/C6H8O3/c1-6-2-4(6)9-5(7)3-8-6/h4H,2-3H2,1H3	InChI=1S/C6H8O3/c1-6-2-4(6)9-5(7)3-8-6/h4H,2-3H2,1H3/t4-,6+/m1/s1
