18
gdb 76951	2.9994	1.16433	1.02948	2.0715	74.04	-0.256	-0.0031	0.253	1208.204	0.146021	-439.05338	-439.044456	-439.043512	-439.087388	31.874	
C	 0.1324904333	 1.4075391448	-0.2613217958	-0.409502
C	-0.0912369304	-0.0685713966	-0.0325813214	-0.073516
N	 0.9849409827	-1.0231260857	-0.2355747834	-0.11334
C	 2.2152674817	-0.813934826	-0.8229118109	 0.141137
O	 2.396858648	-0.1932776882	-1.8427718726	-0.298422
C	 0.560170376	-0.7894373137	 1.1130619075	 0.245873
C	 1.341786873	-0.2168889331	 2.2987688534	-0.140996
O	 0.7199569638	-1.176111342	 3.178813285	-0.27098
C	 0.0164914124	-1.8236180319	 2.0949146211	-0.139749
H	 1.0777715575	 1.743522183	 0.1737582887	 0.126985
H	 0.1641923002	 1.6305275871	-1.3305178709	 0.15555
H	-0.681030505	 1.9823350199	 0.1925161935	 0.125568
H	-1.063727338	-0.4420560508	-0.3533518104	 0.10666
H	 3.0224915098	-1.3508853514	-0.2872706632	 0.085907
H	 2.4314998507	-0.3402648922	 2.2570363524	 0.11332
H	 1.1072628691	 0.8178208725	 2.577239643	 0.116085
H	-1.0690328287	-1.8282245257	 2.2490501287	 0.11367
H	 0.3677423838	-2.8487044699	 1.9228586253	 0.11575
83.4714	107.7839	144.0512	183.1429	194.183	235.1487	254.4551	383.5975	408.9454	483.3652	538.2508	664.981	811.4517	852.7183	887.9426	945.6182	988.1661	992.9469	1029.0749	1033.5951	1064.4802	1111.7219	1138.8333	1141.0201	1147.2504	1161.3551	1198.2623	1245.691	1302.3669	1349.0131	1375.78	1415.2046	1422.3439	1479.0723	1486.9087	1503.1854	1510.973	1529.2016	1793.591	2943.1375	3010.0167	3021.6345	3045.7124	3056.9767	3065.6097	3103.8375	3120.2603	3129.4788
CC1N(C=O)C11COC1	C[C@H]1N(C=O)C21COC2	
InChI=1S/C6H9NO2/c1-5-6(2-9-3-6)7(5)4-8/h4-5H,2-3H2,1H3	InChI=1S/C6H9NO2/c1-5-6(2-9-3-6)7(5)4-8/h4-5H,2-3H2,1H3/t5-,7?/m1/s1
