16
gdb 13974	6.1343	1.07301	1.00002	2.0499	76.46	-0.2311	0.0287	0.2597	1206.3508	0.129025	-346.544145	-346.536083	-346.535139	-346.577801	28.751	
C	 0.0057428198	 1.4898730481	 0.0948348953	-0.51173
C	-0.0358816731	 0.0386425901	 0.0112242599	 0.277627
C	-0.0779512149	-1.1644874317	-0.0456683795	-0.184037
C	-0.0809128654	-2.5814961971	-0.1568153372	 0.296417
C	 0.7588618811	-3.4692707686	-1.1002327137	-0.3133
C	-0.4058332095	-4.5189664019	-1.0853253516	-0.24219
C	-1.1711906849	-3.5905763214	-0.1349887755	-0.054762
O	-0.3509190998	-3.3851463458	 1.0129231614	-0.286715
H	 0.9372034351	 1.8840871772	-0.3260847326	 0.152125
H	-0.8268762673	 1.9467020338	-0.4516663231	 0.150853
H	-0.0557656333	 1.8248392698	 1.1360911348	 0.155909
H	 0.9086027281	-3.0198617009	-2.0836658336	 0.115828
H	 1.7190751283	-3.7838899794	-0.6865788934	 0.11317
H	-0.8833930015	-4.6268293877	-2.061802508	 0.108539
H	-0.1785039553	-5.5061839284	-0.6769112564	 0.114177
H	-2.2404664175	-3.4601973063	-0.0106144468	 0.108089
29.2302	98.4134	107.4715	241.1411	306.3568	341.1467	422.0322	491.8372	527.5603	544.573	728.2053	773.6812	864.1206	893.0873	926.054	932.9858	981.9868	1034.6953	1051.8782	1053.7349	1065.4907	1141.2465	1177.459	1212.3324	1221.2598	1269.2559	1285.4591	1410.7591	1433.826	1464.8643	1475.1688	1476.9302	1487.7946	2367.8248	3027.3582	3068.1897	3076.9083	3087.9826	3091.15	3120.7737	3139.2601	3184.142
CC#CC12CCC1O2	CC#C[C@]12CC[C@H]1O2	
InChI=1S/C7H8O/c1-2-4-7-5-3-6(7)8-7/h6H,3,5H2,1H3	InChI=1S/C7H8O/c1-2-4-7-5-3-6(7)8-7/h6H,3,5H2,1H3/t6-,7+/m1/s1
