21
gdb 11571	5.62374	0.97651	0.88438	2.0979	75.96	-0.2292	0.0681	0.2973	1363.6114	0.187278	-366.230166	-366.220755	-366.219811	-366.264518	34.284	
C	-0.1365010174	 1.6131361845	-0.1094849301	-0.378931
C	-0.0692494958	 0.1000482766	 0.1115480529	-0.191655
C	-1.4347054873	-0.5872359245	-0.0188127961	 0.136833
O	-2.033692076	-0.3271519008	-1.2881005399	-0.4268
C	-1.3498608002	-2.0912804699	 0.2624236271	-0.15875
N	-2.6707146684	-2.6829933031	 0.405156647	-0.057267
C	-3.3197453903	-3.157470904	-0.8086993347	-0.197719
C	-2.7751140974	-4.1219009616	 0.1857099921	-0.228533
H	 0.8590098961	 2.0649518954	-0.0678812011	 0.108267
H	-0.5807350312	 1.841539551	-1.0816868376	 0.125773
H	-0.7554714159	 2.0931192509	 0.6563506121	 0.116749
H	 0.6251567525	-0.3532995954	-0.6122616861	 0.083656
H	 0.3436405057	-0.1178882735	 1.1043366446	 0.098227
H	-2.1330575375	-0.1510097765	 0.7052892969	 0.0987
H	-1.4231715851	-0.6418322126	-1.9648781523	 0.273439
H	-0.7548712429	-2.5739695705	-0.540190407	 0.062286
H	-0.806868583	-2.2517905846	 1.2020029319	 0.101028
H	-4.3872337178	-2.970788044	-0.8780960773	 0.117175
H	-2.7823675307	-3.0530165682	-1.7487753289	 0.098986
H	-1.8712944409	-4.6635745736	-0.0912637123	 0.103794
H	-3.4343624267	-4.6567933955	 0.8635298386	 0.114742
63.6116	86.5779	118.7966	156.262	223.085	274.9055	307.5867	323.5669	349.3751	412.4435	473.2287	556.257	765.5503	779.4513	834.939	862.8459	913.5327	929.1345	994.555	1012.3533	1033.9464	1057.8146	1084.9249	1108.0071	1116.3786	1121.7827	1148.446	1168.2177	1179.6387	1250.9389	1269.4638	1293.8347	1329.482	1359.6856	1377.2006	1399.6826	1407.6085	1425.1055	1475.2544	1486.6001	1492.3902	1495.6811	1509.6144	1521.4941	2890.1627	2996.1099	3038.5268	3042.9314	3046.1235	3061.6572	3090.1605	3103.5824	3105.3399	3122.6424	3175.3934	3192.58	3788.9213
CCC(O)CN1CC1	CC[C@@H](O)CN1CC1	
InChI=1S/C6H13NO/c1-2-6(8)5-7-3-4-7/h6,8H,2-5H2,1H3	InChI=1S/C6H13NO/c1-2-6(8)5-7-3-4-7/h6,8H,2-5H2,1H3/t6-/m1/s1
