17
gdb 32232	2.57397	1.54639	0.97442	3.3819	80.75	-0.1949	0.0031	0.198	1175.3071	0.138021	-418.062271	-418.054054	-418.05311	-418.094888	31.287	
C	-0.1576311504	 1.4361955545	 0.0057161819	-0.323789
N	 0.1708326194	 0.0278300827	 0.071626803	-0.378492
C	 0.6831903107	-0.6422236967	-1.0245254367	 0.234772
C	 1.2348734568	-0.0150214677	-2.1473079802	-0.078372
N	 1.7729895039	-0.6588208642	-3.1901499523	-0.279771
C	 1.7731814022	-1.9878749148	-3.161338229	-0.009692
C	 1.2391331697	-2.7281363006	-2.1049924925	-0.251911
C	 0.6902649951	-2.0522948388	-1.0294389335	 0.330074
O	 0.1315238105	-2.6628164482	 0.056279202	-0.453733
H	 0.7484263655	 2.0414002005	-0.1114416916	 0.136503
H	-0.8392173347	 1.6871668074	-0.8222746645	 0.118563
H	-0.6305708964	 1.7305425429	 0.9449879223	 0.125967
H	-0.4337259106	-0.5381110911	 0.6454073841	 0.250381
H	 1.2441383637	 1.0694914899	-2.2026108869	 0.096798
H	 2.2126191865	-2.4975574494	-4.0147174573	 0.099223
H	 1.2528037116	-3.8145704575	-2.1249251073	 0.082059
H	 0.1663779067	-3.6175548688	-0.0619788314	 0.30142
101.2624	166.144	204.6079	223.9468	305.9218	331.9719	360.1285	437.7522	472.8926	526.3839	550.9527	613.82	628.126	771.1842	795.5395	822.5845	861.7251	910.7662	942.9139	1063.1508	1098.5847	1143.9804	1157.9653	1179.8923	1230.907	1270.8514	1311.2434	1365.4495	1369.3034	1445.3985	1473.6215	1483.6266	1503.8221	1527.0563	1556.9073	1617.3373	1648.9858	2980.2267	3057.8975	3122.0473	3152.2871	3166.8195	3171.4453	3630.6956	3826.0295
CNC1=CN=CC=C1O	CNc1cnccc1O	
InChI=1S/C6H8N2O/c1-7-5-4-8-3-2-6(5)9/h2-4,7H,1H3,(H,8,9)	InChI=1S/C6H8N2O/c1-7-5-4-8-3-2-6(5)9/h2-4,7H,1H3,(H,8,9)
