23
gdb 54138	2.24591	1.32913	1.158	2.5561	86.43	-0.236	-0.0106	0.2253	1249.0201	0.201692	-388.309881	-388.298828	-388.297883	-388.345748	40.628	
C	 0.8072440995	 0.8721973958	 0.4267857639	-0.48563
C	-0.3904089467	 0.1751283334	-0.1973050777	 0.333046
O	-1.5052192555	 0.337804504	 0.2497300625	-0.315636
C	-0.1970839314	-0.6675804107	-1.4465409387	 0.185729
C	-1.1629565511	-0.226615151	-2.5387456082	-0.452746
C	 1.1675008263	-1.2044874642	-1.8235759683	-0.389279
C	 0.1370439582	-2.1535213571	-1.2571899136	 0.321411
C	 0.334303232	-2.684464195	 0.1538692013	-0.45633
C	-0.4958912869	-3.1879049247	-2.1718863177	-0.454315
H	 1.2896354429	 1.5154693354	-0.3184208231	 0.140479
H	 0.4709901412	 1.472363957	 1.273112258	 0.138806
H	 1.5683444409	 0.1621023552	 0.7636489063	 0.138793
H	-0.987814714	 0.8227941939	-2.802384	 0.115603
H	-1.0469273762	-0.8139871447	-3.4510032626	 0.112104
H	-2.1954353621	-0.3124921526	-2.1912823521	 0.142295
H	 1.3960246825	-1.2711272208	-2.8832599897	 0.107168
H	 2.0252666682	-0.9502494923	-1.2095117868	 0.10489
H	 0.8442204566	-1.9735194517	 0.8078246756	 0.11407
H	-0.627914828	-2.927395084	 0.6183661901	 0.12972
H	 0.9357822439	-3.6006007176	 0.1337447893	 0.113881
H	 0.0985825352	-4.1090827064	-2.1572898874	 0.116487
H	-1.5080065201	-3.4447190615	-1.8385881222	 0.122968
H	-0.5577045653	-2.8585038105	-3.2106581489	 0.116486
43.3414	118.2242	149.2932	159.7962	170.2651	174.0952	213.4975	271.8633	303.3702	327.6654	376.6455	391.2277	440.1172	486.1701	528.7754	595.922	649.3001	708.7775	826.1452	902.5976	920.8239	935.8039	964.5297	970.7571	1021.8121	1027.454	1046.6468	1069.8048	1107.6507	1137.7214	1149.8391	1208.8479	1255.5661	1315.8938	1374.9892	1379.4594	1404.784	1414.336	1428.0162	1460.7509	1468.6244	1477.0204	1486.9484	1490.7079	1493.3877	1500.8076	1505.0196	1518.0452	1786.7576	3026.7272	3031.7673	3039.3437	3039.7971	3082.1929	3088.1091	3101.6065	3104.0001	3119.5193	3121.511	3123.7343	3140.5837	3151.5172	3202.0583
CC(=O)C1(C)CC1(C)C	CC(=O)[C@@]1(C)CC1(C)C	
InChI=1S/C8H14O/c1-6(9)8(4)5-7(8,2)3/h5H2,1-4H3	InChI=1S/C8H14O/c1-6(9)8(4)5-7(8,2)3/h5H2,1-4H3/t8-/m1/s1
