19
gdb 6044	2.92606	1.62797	1.37016	4.8998	67.25	-0.2448	0.0226	0.2674	998.4762	0.164343	-402.23442	-402.225231	-402.224286	-402.267817	33.833	
C	 0.0234785857	 1.5292436257	 0.2279591968	-0.332396
N	-0.110601163	 0.112675516	-0.1200375958	-0.330711
H	 0.332065301	-1.5450481708	 0.6110679892	 0.296762
H	-1.094990408	-0.0816917545	-0.2826123425	 0.230136
C	 0.6459919408	-0.3834273438	-1.2972318626	 0.100518
C	-0.0286349088	-0.0458212741	-2.6339025365	-0.414396
C	 2.0948289539	 0.1377141179	-1.2742769204	-0.410044
C	 0.748288923	-1.9274441072	-1.1470552785	 0.431089
O	 0.5648756187	-2.3591272739	 0.1068917621	-0.376809
O	 1.0111399679	-2.6608219491	-2.0630212191	-0.352723
H	 1.0247856236	 1.7319349623	 0.6139210933	 0.139346
H	-0.168879068	 2.2163580907	-0.6095915311	 0.113587
H	-0.6901040239	 1.7575646552	 1.0241071022	 0.129801
H	-0.037752972	 1.0355906076	-2.8024626245	 0.11215
H	 0.5036434009	-0.5266448721	-3.4564531682	 0.151398
H	-1.0622414099	-0.4084446752	-2.6533245163	 0.114964
H	 2.5691747205	-0.0524084498	-0.3066868852	 0.128083
H	 2.6697892883	-0.3790463413	-2.0455131509	 0.148965
H	 2.1346795994	 1.2109781565	-1.4792910419	 0.120278
69.891	135.7729	204.8778	215.3342	241.9659	257.0629	298.4687	322.0233	350.2778	402.8345	417.8457	516.9777	612.0601	727.436	766.9496	804.9585	849.4975	940.6131	946.8218	974.7235	1025.2291	1093.1483	1120.4699	1155.3929	1181.4626	1225.8571	1246.2283	1270.2203	1394.1048	1412.5356	1429.6393	1464.317	1472.7569	1483.8286	1493.5557	1498.2137	1504.918	1513.0472	1524.6688	1863.1528	2993.0379	3036.6371	3045.0769	3089.1676	3101.6577	3115.9346	3126.788	3134.936	3141.0759	3425.9934	3498.6732
C[NH2+]C(C)(C)C([O-])=O	CNC(C)(C)C(=O)O	
InChI=1S/C5H11NO2/c1-5(2,6-3)4(7)8/h6H,1-3H3,(H,7,8)	InChI=1S/C5H11NO2/c1-5(2,6-3)4(7)8/h6H,1-3H3,(H,7,8)
