20
gdb 100730	2.5554	1.11599	0.82588	4.9141	71.3	-0.2528	0.0026	0.2554	1396.4801	0.170493	-477.458979	-477.44914	-477.448195	-477.494152	36.337	
C	-0.7429975757	 1.1202331026	-0.135717128	-0.394513
C	 0.4889868006	 0.264848527	 0.1778296799	-0.184185
C	 1.1410833561	-0.456302646	-1.0136110999	 0.133502
O	 2.5009048365	-0.6287335704	-0.6788306479	-0.442993
C	 0.511526429	-1.8376271346	-1.3344072704	-0.173055
N	-0.9311256941	-1.8669674467	-1.6234712763	-0.546476
H	-1.4815152726	-1.8995369452	-0.7739844859	 0.256594
H	-1.2152083001	-1.0373821555	-2.136296532	 0.253137
H	-0.4524434026	-3.1361579266	-2.8995557766	 0.310534
C	 1.2427462016	-2.5291516859	-2.5095072733	 0.451004
O	 2.4303057963	-2.4237155536	-2.7181504917	-0.357951
O	 0.4501580469	-3.2767573173	-3.2714174107	-0.355401
H	-0.5286992157	 1.8432614897	-0.9303980751	 0.123397
H	-1.6066754174	 0.527303968	-0.4523894053	 0.094431
H	-1.050621891	 1.6861737392	 0.7488216488	 0.123905
H	 1.2746323484	 0.909385201	 0.5843387665	 0.125841
H	 0.260930546	-0.465496607	 0.9652602327	 0.090895
H	 1.0348538606	 0.1799800167	-1.9137287266	 0.059514
H	 2.8860285706	-1.1846834707	-1.3775239587	 0.299964
H	 0.6922172765	-2.4761315749	-0.4602417296	 0.131856
56.6832	83.2786	100.3444	197.9608	240.6467	260.5796	320.8706	336.5934	362.2091	373.3282	409.1943	494.7033	579.6885	603.7228	660.9397	735.5358	770.2138	843.1865	876.3386	904.0418	918.6951	1017.1457	1046.9059	1071.2201	1104.3034	1115.4137	1156.7993	1187.9983	1233.7204	1256.6172	1296.1185	1307.3547	1364.3999	1376.7532	1389.6802	1412.9561	1434.1217	1473.1785	1485.9371	1502.2981	1509.9329	1656.6341	1831.0511	2910.061	3026.372	3037.3772	3044.0506	3078.1158	3104.0007	3107.9901	3419.3187	3509.1314	3599.8405	3642.262
CCC(O)C([NH3+])C([O-])=O	CC[C@@H](O)[C@@H](N)C(=O)O	
InChI=1S/C5H11NO3/c1-2-3(7)4(6)5(8)9/h3-4,7H,2,6H2,1H3,(H,8,9)	InChI=1S/C5H11NO3/c1-2-3(7)4(6)5(8)9/h3-4,7H,2,6H2,1H3,(H,8,9)/t3-,4-/m1/s1
