20
gdb 85874	2.13602	1.52896	1.09888	3.7876	78.88	-0.2751	0.0233	0.2984	1178.002	0.169453	-403.162578	-403.152995	-403.152051	-403.196451	36.271	
C	-0.739784823	 1.5248305588	 0.0323962324	-0.451899
C	-0.1010565306	 0.1411419434	 0.0016929394	 0.311785
C	-1.1265217085	-0.9233214096	-0.4012892568	-0.439977
C	 1.2329597262	 0.0118226422	-0.7973270653	-0.307179
C	 1.8223945189	-0.8564147182	 0.3398106646	 0.166581
O	 3.1557626016	-0.7243683111	 0.7171427803	-0.424262
C	 0.6824786563	-0.3239150413	 1.2984564761	-0.266438
C	 1.1721591893	 0.7534860069	 2.1365113976	 0.282133
N	 1.6232987445	 1.6157520244	 2.7635585361	-0.344183
H	-0.0285240061	 2.2932632005	 0.346579671	 0.13612
H	-1.1081328669	 1.7903874133	-0.9646424234	 0.118435
H	-1.5915408166	 1.5540517561	 0.721097257	 0.121732
H	-1.5241795106	-0.7068934559	-1.3984914483	 0.123465
H	-0.6925216249	-1.9279647449	-0.4289355317	 0.120023
H	-1.9688637904	-0.9404476454	 0.2988314971	 0.122388
H	 1.1860553341	-0.4282197105	-1.7962798717	 0.106897
H	 1.7548986873	 0.9724679898	-0.858889494	 0.107263
H	 1.6670914369	-1.9218405209	 0.1576197134	 0.106581
H	 3.3143101963	 0.1877754039	 0.99067075	 0.294581
H	 0.1827758661	-1.0718231816	 1.9194113263	 0.115955
84.6866	133.2325	160.0896	213.6102	242.2295	274.7203	311.3419	332.2297	369.2374	384.8219	417.808	449.8529	519.3407	568.8601	669.9861	752.6869	819.3728	849.5988	928.76	950.2323	961.6984	980.2567	1026.9203	1050.1903	1084.0647	1135.2051	1143.8203	1200.0141	1224.8552	1244.4458	1274.8778	1286.1657	1330.5705	1343.2759	1404.5923	1424.2684	1449.4126	1479.4295	1483.2929	1489.2187	1502.8274	1505.7356	2339.5683	3027.0667	3031.9624	3051.2526	3078.9655	3091.2736	3093.1036	3099.215	3101.7901	3113.3114	3116.9166	3778.9728
CC1(C)CC(O)C1C#N	CC1(C)C[C@@H](O)[C@H]1C#N	
InChI=1S/C7H11NO/c1-7(2)3-6(9)5(7)4-8/h5-6,9H,3H2,1-2H3	InChI=1S/C7H11NO/c1-7(2)3-6(9)5(7)4-8/h5-6,9H,3H2,1-2H3/t5-,6-/m1/s1
