17
gdb 6671	5.64882	0.83733	0.79066	4.5203	66.16	-0.2363	-0.0236	0.2127	1426.79	0.138607	-401.012806	-401.003221	-401.002276	-401.048893	31.827	
C	-0.2491203631	 1.3482965613	-0.35411339	-0.477318
C	-0.1240704189	-0.1542118754	-0.2043718922	 0.37985
O	 0.5778909288	-0.8273040001	-0.9241876514	-0.296521
C	-0.9165088494	-0.8032899972	 0.9401798273	-0.265911
N	-0.9279249997	-2.2525668572	 0.9294737465	-0.28699
C	-1.8144831313	-2.840067869	-0.069034884	-0.231345
C	-1.991107403	-4.328764397	 0.1844058881	 0.150878
O	-2.2883444017	-5.1304944521	-0.6612114456	-0.236769
H	 0.4973898122	 1.7187769933	-1.0575491479	 0.149245
H	-1.2497165641	 1.5961223805	-0.7283217998	 0.147345
H	-0.1383729341	 1.8508882664	 0.6127128567	 0.138684
H	-0.4670269367	-0.4421187633	 1.8781751251	 0.129058
H	-1.9450611471	-0.4209783509	 0.9413653465	 0.121942
H	 0.0211270221	-2.5633291836	 0.7385380686	 0.232706
H	-2.8129635015	-2.3924716091	 0.0514282612	 0.12878
H	-1.5157339929	-2.688232394	-1.1160475703	 0.131607
H	-1.8347213397	-4.6178423325	 1.248621701	 0.084759
52.5079	55.0012	79.0161	88.2515	112.0076	242.6089	252.8943	315.167	465.6953	467.6162	514.9744	621.1349	713.6087	771.1425	822.0114	869.4098	954.1261	1017.9343	1040.6217	1077.8284	1143.1993	1170.2306	1193.5554	1228.6869	1298.9867	1338.3859	1360.4568	1382.9211	1403.8797	1447.9483	1462.6209	1468.5252	1475.7467	1523.4488	1812.0763	1840.6822	2881.981	2994.1927	2997.7741	3035.5525	3036.0564	3056.0606	3096.9815	3152.8115	3505.1835
CC(=O)CNCC=O	CC(=O)CNCC=O	
InChI=1S/C5H9NO2/c1-5(8)4-6-2-3-7/h3,6H,2,4H2,1H3	InChI=1S/C5H9NO2/c1-5(8)4-6-2-3-7/h3,6H,2,4H2,1H3
