16
gdb 77226	3.37378	1.08262	0.91491	2.6947	70.33	-0.2724	-0.0429	0.2295	1234.455	0.122935	-437.892358	-437.883532	-437.882588	-437.926839	31.23	
O	-0.3584031647	 1.6282452625	-0.4493219768	-0.419536
C	-0.1919955872	 0.2991259223	-0.0424608529	 0.100167
C	-1.5952083816	-0.3043131179	 0.2830932522	-0.107512
C	-1.6197554549	-0.9934145075	-1.1015393139	-0.253204
C	-0.0853321909	-0.7351419859	-1.2264285338	-0.173131
C	 0.4507817758	-0.2072814732	-2.4646060127	 0.26439
N	 0.8878483018	 0.2673713623	-3.4246632116	-0.325697
C	-1.5467298672	-1.2392832966	 1.4654580201	 0.131821
O	-1.5356475984	-2.4418838219	 1.3895694885	-0.236741
H	 0.4345701281	 1.9130923172	-0.920129874	 0.302716
H	 0.5852806465	 0.1974476958	 0.7272929917	 0.089574
H	-2.3334115034	 0.4806814378	 0.4688963927	 0.118243
H	-1.9140697365	-2.0421828725	-1.0983012577	 0.141878
H	-2.1977043825	-0.4366619738	-1.8380868945	 0.135807
H	 0.4857413625	-1.6153700225	-0.919567171	 0.139595
H	-1.4905512372	-0.7261537861	 2.4518055136	 0.091631
44.1751	87.1166	127.3324	171.4046	250.8753	280.3587	333.7758	360.0135	406.0877	529.8809	579.9161	662.5733	729.9897	797.0373	861.3734	894.3518	927.9532	1007.2162	1022.2622	1043.5032	1083.7308	1113.7956	1147.2881	1201.371	1205.5911	1237.5799	1266.883	1321.6796	1330.6313	1345.3056	1411.5049	1420.2185	1471.4748	1822.7705	2350.7683	2883.6722	3005.6935	3082.0065	3084.817	3103.2979	3167.6562	3787.192
OC1C(CC1C#N)C=O	O[C@H]1[C@@H](C[C@H]1C#N)C=O	
InChI=1S/C6H7NO2/c7-2-4-1-5(3-8)6(4)9/h3-6,9H,1H2	InChI=1S/C6H7NO2/c7-2-4-1-5(3-8)6(4)9/h3-6,9H,1H2/t4-,5-,6+/m0/s1
