21
gdb 119574	2.93369	1.09591	0.93604	1.0731	79.82	-0.2391	0.0744	0.3135	1358.4285	0.180799	-424.187396	-424.177806	-424.176861	-424.222323	35.625	
C	-0.0369386481	 1.5087213833	 0.0797150337	-0.387515
C	-0.1606150721	-0.0019718091	 0.1647728068	-0.061275
O	 0.8860486141	-0.4863675666	 1.0075371481	-0.298359
C	 0.8933668741	-1.8556657989	 1.144165728	 0.455708
C	-0.0780326036	-2.5852784551	 2.034216055	-0.337054
C	 1.4033824621	-2.6786357831	 2.3202290169	-0.14474
C	 2.0287696247	-3.6995121952	 1.3634663894	-0.269407
C	 1.5626211588	-2.80389508	 0.1581695109	 0.035947
O	 0.6902037211	-3.3435924344	-0.8128070889	-0.43581
H	 0.9303830519	 1.7932155341	-0.3442828385	 0.124621
H	-0.828344191	 1.9201015557	-0.5540712937	 0.114265
H	-0.1192341623	 1.9576752463	 1.07387682	 0.124386
H	-1.1352855385	-0.2949914003	 0.5826499013	 0.0933
H	-0.0817765383	-0.4612147242	-0.8306163349	 0.107326
H	-0.6266308177	-1.926915432	 2.7001604675	 0.113239
H	-0.630788715	-3.4525925135	 1.6834064135	 0.115234
H	 1.8335840178	-2.3281659559	 3.2493484058	 0.095184
H	 3.1153349775	-3.7849246386	 1.4357965902	 0.100558
H	 1.5824694814	-4.6987723728	 1.3891497373	 0.096451
H	 2.4239401282	-2.3080889737	-0.3094499494	 0.074647
H	 1.1996512851	-3.919882636	-1.3915501992	 0.283295
55.7428	78.167	109.0074	172.6234	241.2868	269.748	294.1021	341.0707	366.8052	401.6263	472.7656	555.0557	658.4335	730.4354	815.0207	824.2913	849.584	899.1544	922.4228	951.6715	974.9613	1018.333	1030.5657	1068.3396	1071.2846	1086.8227	1119.1937	1142.1442	1169.0538	1186.6991	1194.6612	1228.4012	1243.5266	1277.3892	1294.8724	1322.8598	1365.9541	1400.2223	1424.4208	1438.564	1473.7641	1483.0789	1499.6003	1503.2337	1528.9111	2991.4561	3012.469	3027.5543	3043.3603	3048.1825	3109.0083	3114.9795	3117.9559	3119.5714	3198.109	3209.9308	3813.1559
CCOC12CC1CC2O	CCO[C@]12C[C@H]1C[C@H]2O	
InChI=1S/C7H12O2/c1-2-9-7-4-5(7)3-6(7)8/h5-6,8H,2-4H2,1H3	InChI=1S/C7H12O2/c1-2-9-7-4-5(7)3-6(7)8/h5-6,8H,2-4H2,1H3/t5-,6-,7-/m1/s1
