17
gdb 41036	3.39861	1.79809	1.50915	1.6771	72.91	-0.2339	0.0576	0.2914	894.2978	0.136102	-421.668368	-421.661881	-421.660936	-421.698874	27.134	
C	 0.011523964	 1.5583394267	 0.1714384225	-0.182648
O	 1.3590531876	 1.5520109581	-0.3606639517	-0.284069
C	 1.444326868	 0.1151755116	-0.4170981242	 0.048521
C	 1.0069838938	-0.4094851388	-1.8446220827	-0.350869
C	-0.3436266092	-0.7262671631	-1.1869793088	 0.346641
C	-1.8620622667	-0.7488309565	-0.8818690566	-0.323359
C	-1.0336962885	-1.0936888235	 0.4277218123	-0.083745
O	-0.1992576704	-1.9826948579	-0.3885503599	-0.329189
C	-0.0454765039	 0.0409894275	 0.107709497	 0.289768
H	-0.0018373365	 1.9788173428	 1.1856344924	 0.108474
H	-0.6905792051	 2.1256407814	-0.4552327109	 0.10261
H	 2.3545127771	-0.2753859242	 0.0412861567	 0.09101
H	 1.0080493952	 0.4109096532	-2.5641433164	 0.1253
H	 1.5154555658	-1.2844456655	-2.2542612068	 0.122855
H	-2.392771596	 0.2059862607	-0.922980487	 0.10635
H	-2.4472558438	-1.5792476722	-1.281253743	 0.1167
H	-1.4133156513	-1.4831330302	 1.3760086471	 0.09565
175.835	235.0252	321.8032	391.1405	460.4143	484.805	530.8144	631.5455	702.9315	730.0761	775.5246	812.9586	848.1554	882.4271	926.9515	960.2033	968.854	998.1396	1008.6632	1045.3636	1062.7336	1089.2401	1097.3315	1145.033	1153.1294	1159.9896	1179.965	1190.2243	1222.0875	1229.6493	1259.4664	1290.7605	1310.3807	1366.0793	1449.6944	1481.3863	1522.6163	2998.5766	3036.718	3060.3313	3076.0264	3081.8132	3099.2427	3142.0453	3145.7182
C1OC2CC34CC(O3)C124	C1O[C@@H]2C[C@@]34C[C@@H](O3)[C@@]124	
InChI=1S/C7H8O2/c1-4-7(3-8-4)5-2-6(1,7)9-5/h4-5H,1-3H2	InChI=1S/C7H8O2/c1-4-7(3-8-4)5-2-6(1,7)9-5/h4-5H,1-3H2/t4-,5-,6+,7-/m1/s1
