16
gdb 10889	3.08599	2.02951	1.54573	4.5451	66.73	-0.2448	0.001	0.2458	865.3176	0.129805	-379.876088	-379.868269	-379.867325	-379.907937	29.201	
C	-0.0517932016	 1.5248408022	-0.0030202869	-0.498908
C	-0.0315323475	 0.026940062	-0.0438284256	 0.306449
C	-0.7883288058	-0.840008535	 0.8725288029	-0.282982
N	 0.6998191082	-0.8076831277	 1.0275591587	-0.176496
C	 1.1674398251	-1.6816562521	-0.0280535275	 0.364269
N	 1.8348383386	-2.7360965713	 0.1050069226	-0.508027
C	 0.6031677128	-0.8197570157	-1.1610404774	-0.061929
O	-0.192880337	-1.506202402	-2.0926333074	-0.421797
H	 0.9066907852	 1.944514635	-0.3266090801	 0.127353
H	-0.834948902	 1.9214360729	-0.6598797616	 0.124516
H	-0.2522277249	 1.8814617964	 1.0110915745	 0.139063
H	-1.2988392891	-0.366760876	 1.705204475	 0.130051
H	-1.2501171951	-1.7545626108	 0.5111024779	 0.140113
H	 2.0296662084	-3.1460915909	-0.8108987151	 0.232065
H	 1.4133070858	-0.2577494678	-1.6495847504	 0.094752
H	-0.3970240811	-0.9148027292	-2.8241570797	 0.291507
104.3398	178.8517	210.856	240.0518	266.6127	284.3851	356.3398	510.9392	527.1875	620.4611	667.4645	703.5658	765.6717	853.4019	909.0966	923.2151	956.9401	993.1037	1021.0134	1083.5567	1117.252	1131.813	1147.4943	1181.7728	1249.4878	1285.5063	1309.8928	1385.4696	1421.6656	1430.4251	1485.2229	1491.9523	1509.7551	1810.7215	2996.3993	3029.7636	3091.1449	3114.7531	3120.9544	3211.3694	3462.0431	3815.7768
CC12CN1C(=N)C2O	C[C@]12CN1[C]([NH])[C@H]2O	
InChI=1S/C5H8N2O/c1-5-2-7(5)4(6)3(5)8/h3,6,8H,2H2,1H3	InChI=1S/C5H8N2O/c1-5-2-7(5)4(6)3(5)8/h3,6,8H,2H2,1H3/t3-,5-,7?/m1/s1
