21
gdb 17279	4.55339	1.08011	0.99917	1.1863	79.52	-0.22	0.0861	0.3061	1262.5224	0.188573	-329.079069	-329.070418	-329.069473	-329.112703	32.336	
C	-0.4843593465	 1.1675236592	 0.0337139851	-0.313594
N	 0.0834040164	-0.1637527862	 0.1765739349	-0.077774
C	 1.4779918143	-0.3457380969	-0.2086346964	-0.265701
C	 1.0722019213	-0.4445617233	 1.2230032842	 0.037686
C	 1.5377675526	 0.5704157002	 2.2506839299	-0.250913
C	 0.6224259535	 0.6545269051	 3.4573330597	 0.042336
C	 0.7552256946	-0.3418336281	 4.5827588736	-0.254034
C	 1.1584930797	 1.0975950169	 4.7939209338	-0.278024
H	 0.2240102425	 1.9963210735	 0.1918622433	 0.098893
H	-0.8849131242	 1.2660150369	-0.9806862179	 0.122739
H	-1.3160789727	 1.288500181	 0.735895655	 0.121087
H	 1.7066628176	-1.2332260367	-0.7938658785	 0.109988
H	 2.0436443599	 0.5417564727	-0.4952730152	 0.0995
H	 0.9481250646	-1.4435382493	 1.6411398271	 0.087966
H	 2.542314523	 0.2773569701	 2.5855390625	 0.096601
H	 1.6513737844	 1.5595665534	 1.7934185507	 0.097825
H	-0.3926382673	 0.9680458606	 3.2277913681	 0.085528
H	-0.1456281447	-0.7022353752	 5.0667611896	 0.111822
H	 1.5457613498	-1.0825415411	 4.5134952724	 0.109134
H	 2.2185817286	 1.3201856178	 4.8639309196	 0.108623
H	 0.5332317426	 1.7216409394	 5.4227870984	 0.110311
63.1749	77.5652	137.9768	203.082	245.9122	315.3235	356.165	394.2527	440.2717	524.8936	743.2209	764.6435	789.581	802.5955	837.6871	908.5812	918.9244	941.7941	998.1739	1039.5743	1056.1177	1076.366	1083.8239	1115.5331	1116.6079	1131.8698	1140.5456	1168.6768	1195.1732	1199.7903	1205.0798	1229.7931	1269.6579	1309.7613	1338.9948	1410.1093	1426.1773	1448.6365	1468.5577	1476.8533	1490.5307	1504.9178	1507.282	1517.1676	2970.8096	3017.5719	3059.2919	3067.3576	3078.9449	3095.2013	3103.5271	3126.8264	3131.5443	3141.4994	3165.1368	3204.8591	3220.0737
CN1CC1CC1CC1	CN1C[C@H]1CC1CC1	
InChI=1S/C7H13N/c1-8-5-7(8)4-6-2-3-6/h6-7H,2-5H2,1H3	InChI=1S/C7H13N/c1-8-5-7(8)4-6-2-3-6/h6-7H,2-5H2,1H3/t7-,8?/m1/s1
