17
gdb 128840	5.84987	0.68079	0.65003	3.1909	71.45	-0.2626	-0.0399	0.2227	1693.9484	0.134766	-455.110599	-455.101724	-455.100779	-455.145791	30.562	
C	-0.0167709519	 1.3822634227	 0.0450503001	-0.231504
O	-0.054733825	-0.0234108706	-0.0343107282	-0.229682
C	 0.6920044313	-0.5322275452	-1.1133639991	-0.047065
C	 0.5498233934	-2.0564527591	-1.1016239336	-0.324151
C	 1.2865041328	-2.7058893694	-2.2241468689	 0.242986
C	 2.3979087803	-3.4877840199	-2.2509453215	-0.049839
O	 2.6788170483	-3.8186081876	-3.5086683574	-0.161083
N	 1.6725676888	-3.1962503059	-4.3139633828	-0.001352
N	 0.8997734709	-2.5724948849	-3.5460705779	-0.167566
H	 1.0093786078	 1.7556645878	 0.1899903812	 0.105297
H	-0.4280258091	 1.8533363775	-0.8613488666	 0.108977
H	-0.6243362894	 1.6772468286	 0.9037831971	 0.129775
H	 0.327548864	-0.1290085506	-2.0721373969	 0.109963
H	 1.7550231486	-0.249137747	-1.0237911783	 0.087857
H	 0.917319022	-2.441639503	-0.1458615889	 0.120874
H	-0.5151835323	-2.3037354464	-1.1620119604	 0.137573
H	 3.0504358097	-3.870135627	-1.4830515278	 0.16894
44.0862	81.3645	94.985	109.5738	229.8109	261.0345	328.4416	343.1197	461.1986	622.9404	642.2476	706.0186	761.3507	798.9469	853.5561	981.1263	996.3726	1032.6923	1061.0388	1065.2225	1155.0604	1163.9725	1181.1356	1225.8755	1227.9333	1256.8233	1298.0947	1321.9542	1349.4546	1421.9079	1466.5138	1481.4674	1485.1279	1485.9299	1505.0491	1533.4395	1623.5972	2954.5876	2974.2423	2993.4694	3017.9941	3054.7122	3102.0657	3117.058	3282.6365
COCCC1=CON=N1	COCCc1conn1	
InChI=1S/C5H8N2O2/c1-8-3-2-5-4-9-7-6-5/h4H,2-3H2,1H3	InChI=1S/C5H8N2O2/c1-8-3-2-5-4-9-7-6-5/h4H,2-3H2,1H3
