15
gdb 57738	2.46788	1.09489	0.83368	5.5476	70.06	-0.2498	-0.0417	0.2081	1336.0997	0.11063	-450.147558	-450.137515	-450.136571	-450.183935	34.378	
N	 0.0844397199	 1.1267441067	 0.8592104767	-0.547304
C	 0.0022189703	 0.0199593438	 0.0555696217	 0.440962
N	 1.2379714808	-0.4840983765	-0.3184547753	-0.548297
N	-1.0629680336	-0.5621098284	-0.3759657014	-0.318349
C	-2.3407082701	 0.0909402085	-0.2058700341	-0.211287
C	-3.3645526898	-0.698798829	-1.0563718426	 0.176768
O	-4.2398912091	-0.1858776194	-1.6917509091	-0.231514
C	-2.8145665061	 0.1121492373	 1.1935379359	 0.266563
N	-3.1489912972	 0.1321328599	 2.3008692427	-0.328205
H	 0.9115807186	 1.6974037494	 0.8175443504	 0.265617
H	-0.7536574514	 1.5714166685	 1.1895987737	 0.277359
H	 1.9296654522	-0.515694444	 0.4177877701	 0.255259
H	 1.1471092189	-1.3619547325	-0.8099941334	 0.264411
H	-2.3663450679	 1.1292002476	-0.5740095708	 0.128902
H	-3.1789212654	-1.7914446719	-1.0329366244	 0.109114
32.5817	55.7382	105.7507	127.322	193.9393	205.7732	276.1522	326.8547	397.4034	409.9958	453.2351	486.791	517.9833	538.9311	643.7577	691.3411	754.1408	876.1007	934.4798	1025.9601	1053.9129	1071.766	1088.8154	1209.9465	1259.1503	1299.9983	1389.5975	1447.0429	1626.6595	1639.6977	1727.7355	1851.7965	2337.217	2940.5957	2979.8941	3559.9393	3618.4509	3667.4106	3737.277
NC(N)=NC(C=O)C#N	NC(=N[C@@H](C=O)C#N)N	
InChI=1S/C4H6N4O/c5-1-3(2-9)8-4(6)7/h2-3H,(H4,6,7,8)	InChI=1S/C4H6N4O/c5-1-3(2-9)8-4(6)7/h2-3H,(H4,6,7,8)/t3-/m1/s1
