20
gdb 73217	2.11605	1.88893	1.43973	2.9214	79.15	-0.2531	0.0283	0.2813	1026.0852	0.172596	-403.168019	-403.159852	-403.158908	-403.200615	31.822	
C	-0.0421545225	 1.5239522113	-0.0187401499	-0.46982
C	-0.003519386	 0.003731113	 0.0280046497	 0.240005
C	-1.3142172313	-0.7481993692	 0.4125607229	-0.257328
C	-0.4850405268	-1.6950082924	 1.3232280473	-0.238461
C	 0.7419610948	-0.7485050082	 1.1740844344	-0.062274
C	 1.9895988968	-1.325820087	 0.5199752246	-0.11319
O	 1.6913773362	-1.4001323748	-0.887167058	-0.248971
C	 0.6421757482	-0.5862926929	-1.2155109972	 0.367518
N	 0.2553719772	-0.3664222314	-2.3976181171	-0.544665
H	 0.9635008849	 1.9495960487	-0.1070949049	 0.115441
H	-0.6189104668	 1.8546220708	-0.8873355353	 0.147169
H	-0.5055824081	 1.9285155968	 0.8869422617	 0.108221
H	-1.9849788888	-0.1010291959	 0.9844980553	 0.101458
H	-1.8742090272	-1.1948752587	-0.4108386199	 0.119204
H	-0.8565771902	-1.842773462	 2.3389864315	 0.102176
H	-0.310627479	-2.6772363487	 0.8746986497	 0.111199
H	 0.9628574651	-0.1579677918	 2.064492734	 0.076338
H	 2.8679645358	-0.6827804283	 0.6587803216	 0.109707
H	 2.2393109356	-2.3355225241	 0.8595526852	 0.117006
H	 0.844713092	-0.8601196549	-3.0699109158	 0.219268
81.8815	153.3694	214.5216	231.8032	256.3704	287.8721	368.7259	469.0198	580.2143	609.7942	702.0517	711.9592	728.2616	808.7645	835.7144	873.8537	893.4724	924.6523	951.4481	969.4854	984.1715	1032.6758	1046.2041	1093.3706	1148.0537	1157.013	1171.2628	1200.0003	1233.5652	1242.2512	1245.1568	1269.719	1274.5386	1326.1795	1343.2277	1401.5808	1411.5562	1480.7511	1488.8074	1493.0167	1499.5293	1517.2466	1766.2005	3022.6439	3030.3837	3060.2859	3062.8138	3083.3599	3096.1386	3096.9669	3113.173	3115.7731	3127.4404	3472.8109
CC12CCC1COC2=N	C[C@]12CC[C@H]1CO[C]2[NH]	
InChI=1S/C7H11NO/c1-7-3-2-5(7)4-9-6(7)8/h5,8H,2-4H2,1H3	InChI=1S/C7H11NO/c1-7-3-2-5(7)4-9-6(7)8/h5,8H,2-4H2,1H3/t5-,7-/m0/s1
