17
gdb 86163	2.89565	1.31334	0.9526	4.1978	71.73	-0.2569	-0.0645	0.1924	1184.1378	0.135922	-458.991241	-458.98297	-458.982026	-459.02402	31.64	
O	-0.0782130147	 1.4475889898	-0.0255617939	-0.426957
C	 0.0025590336	 0.028106131	-0.012044821	 0.061122
C	-1.4230512989	-0.5130107751	 0.0980135106	-0.238593
C	-1.4329161419	-2.0298241948	-0.1172270245	 0.036984
O	-2.7183094437	-2.5650276344	 0.0209343095	-0.444218
C	-0.8586404825	-2.3651155152	-1.49232127	 0.357174
O	-1.3755842033	-3.23458054	-2.1706142265	-0.357678
C	 0.3148303021	-1.5865986432	-1.9202090372	-0.150649
C	 0.6993497194	-0.4937549304	-1.2481952552	-0.068055
H	 0.8017383193	 1.8085353252	 0.1227661783	 0.286791
H	 0.5790426528	-0.3104279818	 0.8681231091	 0.090145
H	-1.8486754315	-0.2679128347	 1.0741883734	 0.122192
H	-2.0416199322	-0.0296932767	-0.6659971804	 0.125019
H	-0.7431343218	-2.4880474393	 0.619645792	 0.088027
H	-2.8104077772	-3.1902071167	-0.716620435	 0.291694
H	 0.8196760596	-1.9217120178	-2.8206854133	 0.118489
H	 1.5589200011	 0.0810695241	-1.589145526	 0.108512
86.3997	153.5622	239.377	247.2815	293.9364	345.6841	375.2079	418.9034	428.7114	480.2585	548.5785	589.144	657.0423	739.414	768.8659	842.8881	902.1282	1013.3833	1027.5648	1044.9978	1053.0243	1089.1931	1134.8729	1155.1265	1165.6584	1232.167	1257.9112	1288.1227	1311.43	1347.1563	1381.0447	1397.2019	1423.8235	1442.9262	1497.7274	1673.7472	1770.388	2904.376	2933.5323	3057.2557	3111.235	3145.5573	3189.9752	3678.6239	3817.6142
OC1CC(O)C(=O)C=C1	O[C@H]1C[C@@H](O)C(=O)C=C1	
InChI=1S/C6H8O3/c7-4-1-2-5(8)6(9)3-4/h1-2,4,6-7,9H,3H2	InChI=1S/C6H8O3/c7-4-1-2-5(8)6(9)3-4/h1-2,4,6-7,9H,3H2/t4-,6-/m1/s1
