16
gdb 10913	3.33617	2.01827	1.55631	2.3122	59.97	-0.2493	0.0667	0.3161	845.6243	0.129195	-420.837124	-420.829447	-420.828503	-420.868708	29.198	
C	-0.191259543	 1.488551672	 0.1177084917	-0.511876
C	 0.1448776759	 0.0407773693	-0.0183220482	 0.394001
O	-0.6942028807	-0.9113928307	 0.6760087343	-0.306369
C	 0.7220264216	-0.941336686	 0.9271580222	-0.093753
C	 1.2706413025	-1.814612473	-0.2113758748	 0.069264
O	 0.6122016893	-3.0489577608	-0.3784261865	-0.44152
C	 0.7759395509	-0.7001910461	-1.2168814681	 0.051896
O	-0.0412709434	-1.1345582192	-2.2590483585	-0.437681
H	 0.6557448043	 2.1095554737	-0.1906044457	 0.129089
H	-1.0444950136	 1.7427651617	-0.5199423278	 0.145164
H	-0.4502443003	 1.7315151844	 1.1516073576	 0.134722
H	 1.0490097425	-0.8382254733	 1.955790379	 0.108299
H	 2.3464220178	-1.9940441626	-0.2168926396	 0.093924
H	-0.2792782232	-2.9071137401	-0.025823589	 0.298413
H	 1.6189099813	-0.1179691436	-1.6118220836	 0.079815
H	-0.1743991218	-2.0814131055	-2.1051139531	 0.286613
127.9423	185.4892	219.6527	244.0137	264.5034	343.7873	356.3692	518.8511	567.8944	617.5128	670.5399	710.098	762.3156	822.7509	845.1621	903.2033	924.5379	1004.6083	1040.8599	1090.446	1101.0251	1146.2131	1164.1197	1214.5358	1242.1187	1264.6128	1298.5208	1344.8179	1401.9566	1408.431	1433.0347	1463.9324	1481.8676	1493.2267	3023.1555	3039.495	3104.8809	3111.7359	3121.9773	3184.2192	3716.116	3729.5292
CC12OC1C(O)C2O	C[C@]12O[C@H]1[C@@H](O)[C@H]2O	
InChI=1S/C5H8O3/c1-5-3(7)2(6)4(5)8-5/h2-4,6-7H,1H3	InChI=1S/C5H8O3/c1-5-3(7)2(6)4(5)8-5/h2-4,6-7H,1H3/t2-,3+,4-,5+/m0/s1
