22
gdb 96376	2.24323	1.60097	1.2401	1.0188	81.07	-0.2403	0.0617	0.302	1125.9161	0.196522	-404.342582	-404.334006	-404.333062	-404.37529	34.231	
O	 0.0667046305	 1.4477430741	-0.1334495328	-0.439272
C	-0.0020855682	 0.027487375	-0.0223830406	 0.053505
C	 0.7512439204	-0.4927712836	 1.2136414379	-0.21738
C	 0.008247921	-0.1695590867	 2.5203287257	-0.205936
C	-1.432366809	-0.701868961	 2.48997109	-0.190227
C	-2.1972790556	-0.1682022008	 1.2686812538	-0.27071
C	-1.4436697681	-0.4725958608	-0.0146330133	 0.352434
C	-2.1532913116	-0.5978832329	-1.3057308961	-0.303679
N	-1.7147177432	-1.8101651229	-0.5808311238	-0.359809
H	-0.2854684054	 1.8321291616	 0.6755303679	 0.281097
H	 0.490941599	-0.3377351523	-0.931966688	 0.068988
H	 0.8579790636	-1.5816243225	 1.1230914616	 0.098852
H	 1.7597888559	-0.066651207	 1.2191875299	 0.100856
H	 0.5554783227	-0.5893374836	 3.370996971	 0.098719
H	-0.0042706603	 0.9183340048	 2.6848475858	 0.084718
H	-1.4127822438	-1.7977694219	 2.4377370562	 0.110953
H	-1.9579213381	-0.4366769171	 3.4137018571	 0.091015
H	-3.1961173508	-0.6104238778	 1.2131653354	 0.106313
H	-2.3363758158	 0.9189489341	 1.3603382073	 0.086128
H	-3.2305397914	-0.4603575028	-1.3496828438	 0.113472
H	-1.6232553904	-0.3083351132	-2.2096078642	 0.114279
H	-0.8745190914	-2.1811105126	-1.0210695768	 0.225684
109.0674	163.1231	206.7774	226.6571	275.5121	302.867	370.1602	401.3794	423.1666	469.2088	564.0655	609.0853	715.9076	806.7585	830.2958	851.7363	876.6653	903.6305	920.4132	960.4499	975.0386	991.7194	1019.0689	1045.6139	1070.395	1090.7725	1112.6973	1139.0641	1155.449	1180.103	1245.0618	1255.7356	1268.8547	1287.6652	1320.2696	1330.1183	1364.1115	1370.1863	1375.1964	1381.311	1415.1032	1436.8454	1473.6178	1480.0394	1491.5106	1504.0352	1512.8738	2998.0174	3004.4241	3021.2689	3029.7422	3034.8843	3066.8559	3073.3564	3079.509	3085.6037	3104.2962	3188.4825	3475.8475	3821.4526
OC1CCCCC11CN1	O[C@H]1CCCC[C@]21CN2	
InChI=1S/C7H13NO/c9-6-3-1-2-4-7(6)5-8-7/h6,8-9H,1-5H2	InChI=1S/C7H13NO/c9-6-3-1-2-4-7(6)5-8-7/h6,8-9H,1-5H2/t6-,7+/m0/s1
