13
gdb 5140	5.67215	1.31536	1.20006	4.157	64.16	-0.2378	-0.0033	0.2345	969.2512	0.09684	-361.504106	-361.497329	-361.496385	-361.535985	24.298	
N	-0.0411860081	-1.1452325209	 0.5212272659	-0.301691
C	-0.0096615794	-0.0155440102	 0.2832810754	 0.268475
C	 0.0272218311	 1.4209968475	-0.0187990047	-0.444714
C	 1.4136046988	 1.9684515494	-0.1362485053	 0.374424
C	 2.1290421117	 2.4673956449	-1.178673525	-0.27
C	 3.4051983485	 2.8442529762	-0.6448438201	-0.164363
C	 3.3616937925	 2.5416734823	 0.677441485	-0.012218
O	 2.1538559007	 2.008692856	 1.005073622	-0.169354
H	-0.5012118427	 1.5936141199	-0.9612308351	 0.169276
H	-0.5318888445	 1.9490582602	 0.7635807284	 0.170458
H	 1.7944201526	 2.5541268588	-2.2005998894	 0.118108
H	 4.2353654563	 3.2789997888	-1.1783482488	 0.119485
H	 4.0639621625	 2.636601377	 1.4887376616	 0.142116
48.6351	103.3459	273.3904	316.0797	378.1769	477.3372	614.5248	642.1729	753.077	766.8422	815.8342	858.2273	899.5507	910.9006	929.6847	968.7184	1037.4012	1106.6034	1179.2219	1205.2874	1243.6145	1283.2694	1336.2601	1420.0509	1446.7018	1537.718	1640.5578	2366.8207	3038.858	3097.0218	3255.0014	3266.3278	3290.5026
N#CCC1=CC=CO1	N#CCc1ccco1	
InChI=1S/C6H5NO/c7-4-3-6-2-1-5-8-6/h1-2,5H,3H2	InChI=1S/C6H5NO/c7-4-3-6-2-1-5-8-6/h1-2,5H,3H2
