21
gdb 110966	2.5793	1.2374	1.15714	3.1438	78.88	-0.2506	0.0623	0.3129	1207.1685	0.182072	-424.169903	-424.160667	-424.159722	-424.203601	35.649	
C	-0.1456748559	 1.629842919	 0.1244958028	-0.453253
C	 0.0378179239	 0.1401567498	-0.1348895656	-0.012113
C	 1.2404100479	-0.4196522744	-0.9646979131	-0.105255
C	 2.1737456593	-0.1274689453	 0.2518833765	-0.301012
C	 0.8757808935	-0.7760141508	 0.8241443154	 0.364927
O	 0.576417712	-1.1588020953	 2.1270494694	-0.482148
C	 0.9871863577	-1.8238866773	-0.3149013235	 0.000419
C	-0.1910982367	-2.7368452155	-0.6179913506	-0.125662
O	-0.3868253458	-3.6498259167	 0.4547575338	-0.427674
H	 0.7743008247	 2.1519211735	 0.3975552204	 0.118965
H	-0.5498015337	 2.1227448079	-0.766413509	 0.123943
H	-0.8703898241	 1.7896093485	 0.9319436378	 0.113818
H	-0.9273783123	-0.2859437931	-0.415994608	 0.068976
H	 1.46224988	-0.2143853397	-2.009774526	 0.080729
H	 3.0807764553	-0.7325719122	 0.3196134569	 0.097719
H	 2.3779550755	 0.9167971174	 0.4883047128	 0.09041
H	 0.445581452	-0.3718097949	 2.6671771824	 0.286912
H	 1.8924357756	-2.4352695952	-0.2369753853	 0.075382
H	-1.1143087171	-2.1818574204	-0.8358318885	 0.08825
H	 0.025911046	-3.347044064	-1.5019408755	 0.102951
H	-0.4059881778	-3.1293253714	 1.2669028866	 0.293715
82.6063	132.964	154.7376	195.9531	253.9093	259.9292	341.1612	384.2114	398.0841	427.2652	469.6345	579.8713	601.1136	647.4119	770.1893	792.5382	809.4552	865.0305	939.7491	949.6413	1006.9032	1020.6	1041.0704	1057.7615	1082.2088	1089.8471	1128.0417	1136.5776	1152.1212	1168.802	1200.048	1211.3679	1221.001	1238.9256	1277.5218	1339.3939	1367.5931	1409.5306	1423.3963	1427.8254	1448.637	1495.5368	1500.132	1518.5944	1531.9982	2994.7925	3030.3483	3048.2512	3063.5994	3072.3606	3083.5784	3084.7267	3117.1736	3139.5612	3141.6987	3787.7009	3805.5682
CC1C2CC1(O)C2CO	C[C@H]1[C@H]2C[C@]1(O)[C@H]2CO	
InChI=1S/C7H12O2/c1-4-5-2-7(4,9)6(5)3-8/h4-6,8-9H,2-3H2,1H3	InChI=1S/C7H12O2/c1-4-5-2-7(4,9)6(5)3-8/h4-6,8-9H,2-3H2,1H3/t4-,5+,6-,7+/m0/s1
