16
gdb 129763	3.3707	1.58206	1.0862	2.9634	79.65	-0.1877	0.009	0.1967	1058.2015	0.127734	-396.952	-396.944597	-396.943653	-396.98356	28.999	
N	 0.1547750252	 1.4147741822	 0.1417067269	-0.610265
C	-0.0407428543	 0.0332522715	 0.0515450385	 0.156061
C	-1.1591488459	-0.7753563602	 0.0326786099	 0.234038
C	-2.6124897442	-0.8542447667	 0.0085201284	-0.238892
C	-2.9783609445	-2.1523254429	-0.0213153856	-0.088763
C	-1.7729138836	-3.0866644086	-0.0243048657	-0.405275
C	-0.6422900827	-2.0958945497	 0.0160807522	 0.327679
N	 0.6734748568	-2.1525041271	 0.0173374269	-0.34278
N	 1.024444488	-0.8261949827	 0.0413246549	-0.244341
H	 0.7870988037	 1.7769489325	-0.5634109423	 0.2499
H	-0.7205642887	 1.9176751791	 0.0857494047	 0.255408
H	-3.2949978295	-0.0131638485	 0.0161103207	 0.08856
H	-3.9970605817	-2.5176085907	-0.0415185767	 0.093114
H	-1.777517761	-3.766985752	 0.8369041004	 0.130566
H	-1.7491464106	-3.7210958035	-0.9194660604	 0.13069
H	 1.9943714929	-0.5811969427	 0.1433375873	 0.264302
151.0891	183.6366	220.0422	269.417	314.4662	418.964	453.6853	530.792	608.5812	645.9573	669.8963	689.2018	746.1826	765.6188	804.9071	863.4591	929.759	939.7229	947.4262	1037.618	1085.9515	1119.5215	1138.9698	1157.4889	1242.7226	1257.184	1324.96	1359.5322	1428.2302	1445.0351	1496.2634	1564.9609	1600.4182	1642.1772	1681.7521	3029.5954	3056.5869	3198.2961	3224.3704	3522.7759	3625.1668	3676.188
NC1=C2C=CCC2=NN1	Nc1c2C=CCc2n[nH]1	
InChI=1S/C6H7N3/c7-6-4-2-1-3-5(4)8-9-6/h1-2H,3H2,(H3,7,8,9)	InChI=1S/C6H7N3/c7-6-4-2-1-3-5(4)8-9-6/h1-2H,3H2,(H3,7,8,9)
