16
gdb 26890	3.10823	1.38707	0.96479	5.1764	78.64	-0.1888	-0.0188	0.17	1155.0988	0.127212	-434.136711	-434.12869	-434.127746	-434.168879	31.399	
N	 0.053133146	 1.4055233766	 0.072610499	-0.57414
C	-0.0120387938	 0.0307382325	 0.0170933902	 0.435251
C	-1.2121692202	-0.6553519698	 0.0231837413	 0.104262
N	-2.4187902265	 0.1226041225	 0.0070130225	-0.621314
C	-1.152152181	-2.0699483983	 0.019314762	-0.086174
C	 0.0237869824	-2.7683351509	-0.0015938914	-0.286738
C	 1.2927677759	-2.084136071	 0.0011471274	 0.420051
O	 2.4141669096	-2.5677471172	-0.000840714	-0.409867
N	 1.1545834454	-0.6703018866	 0.0139244143	-0.434938
H	 0.8097887282	 1.8367401236	-0.4396088035	 0.251996
H	-0.8548104938	 1.8133442662	-0.1201692682	 0.267341
H	-2.8923549888	 0.1066095574	 0.9060161475	 0.242622
H	-3.0776341228	-0.2304632984	-0.6793066207	 0.240344
H	-2.0943345351	-2.6139121076	 0.0216423557	 0.094615
H	 0.0527407464	-3.8498143953	-0.0109637464	 0.106001
H	 2.0372415281	-0.1794442338	 0.0645222144	 0.250689
126.2589	174.3015	227.931	300.1094	315.8786	352.4961	388.3751	438.8962	475.3791	515.9905	589.9343	632.1725	670.89	727.8461	757.1581	772.5838	791.876	827.397	853.5847	940.3998	980.8576	1098.3066	1133.5263	1201.3909	1209.9815	1271.0314	1283.0132	1333.735	1453.933	1498.1614	1577.5204	1633.0281	1641.6761	1684.3925	1780.7098	3153.0241	3222.7687	3484.654	3525.4773	3555.4255	3596.8918	3640.5438
NC1=C(N)C=CC(=O)N1	Nc1c(N)ccc(=O)[nH]1	
InChI=1S/C5H7N3O/c6-3-1-2-4(9)8-5(3)7/h1-2H,6H2,(H3,7,8,9)	InChI=1S/C5H7N3O/c6-3-1-2-4(9)8-5(3)7/h1-2H,6H2,(H3,7,8,9)
