13
gdb 7017	7.37961	1.00827	0.89194	6.9305	60.97	-0.273	-0.0405	0.2325	1177.2638	0.095379	-394.819863	-394.811842	-394.810898	-394.853257	27.253	
N	-0.1174826495	 1.4768189066	 0.0625517653	-0.468857
C	-0.0263455048	 0.2187900886	 0.0401100861	 0.408497
C	-1.2604374189	-0.6732057755	 0.1085436498	-0.452863
C	-2.5157995494	 0.0631991144	 0.1998259797	 0.308289
N	-3.5425552575	 0.5845882604	 0.2734223468	-0.29574
N	 1.1566386598	-0.5502540959	-0.0468231448	-0.352103
C	 2.4416381484	-0.0606989422	-0.1238485878	 0.171732
O	 2.7490205725	 1.1075851973	-0.128476117	-0.287519
H	 0.8028151932	 1.9144185462	 0.0085291362	 0.262731
H	-1.2958237124	-1.319823913	-0.7784403479	 0.170341
H	-1.1818621388	-1.3429459334	 0.9753673816	 0.170336
H	 1.0649633382	-1.5556041703	-0.0540447168	 0.261493
H	 3.182337319	-0.8803534032	-0.1827132513	 0.103663
43.7168	92.4291	127.715	252.5555	256.1611	329.2943	377.8251	417.94	518.4244	576.9755	583.22	813.0275	928.7146	934.1303	967.7713	1007.8295	1025.507	1039.9926	1180.6031	1237.0709	1275.127	1380.2769	1439.1459	1455.963	1511.7391	1748.651	1821.2622	2382.1058	2959.7887	3023.9692	3057.0579	3492.0085	3608.4375
N=C(CC#N)NC=O	N=C(CC#N)NC=O	
InChI=1S/C4H5N3O/c5-2-1-4(6)7-3-8/h3H,1H2,(H2,6,7,8)	InChI=1S/C4H5N3O/c5-2-1-4(6)7-3-8/h3H,1H2,(H2,6,7,8)
