18
gdb 71818	3.37935	1.61256	1.49848	1.8369	73.89	-0.2272	0.0744	0.3016	934.7093	0.150043	-401.881045	-401.874371	-401.873427	-401.911596	28.657	
O	-0.112026804	 1.4008714718	-0.0500757266	-0.465689
C	 0.0143918785	 0.0228516226	-0.0628027719	 0.390472
C	 0.7273176178	-0.7706489913	-1.1560737195	-0.294393
C	-0.1959190356	-1.9794386691	-0.7856850135	-0.069859
C	 0.4510376131	-2.8713284348	 0.2883966448	-0.039075
N	 1.7329259659	-2.3537547808	 0.8376745554	-0.340042
C	 0.456616512	-2.0817250725	 1.5397027808	-0.043449
C	-0.2472633608	-0.7824551567	 1.2215871381	-0.12467
C	-1.1168735656	-0.9676737275	-0.0072628427	-0.139955
H	 0.6877779108	 1.7703820975	 0.3407798486	 0.284667
H	 0.4415570243	-0.3623623439	-2.1298544511	 0.094735
H	 1.8057108152	-0.9176210912	-1.0978985147	 0.113521
H	-0.6256825614	-2.5295593986	-1.620940472	 0.069418
H	 0.2842839819	-3.9433250732	 0.2741918455	 0.082762
H	 2.2139143379	-3.1143026039	 1.315147943	 0.224826
H	 0.2911450867	-2.5306627785	 2.5146442033	 0.08172
H	-0.630399516	-0.1704165529	 2.0300773244	 0.0847
H	-2.1888748409	-0.833857727	-0.0737611219	 0.090312
184.6257	274.553	338.0377	363.5844	382.2017	497.3594	561.7562	589.0592	668.6555	707.5659	733.2385	805.7662	830.0306	857.2463	878.2773	889.4613	906.6752	919.135	956.479	985.8842	998.1654	1022.7952	1046.774	1077.4288	1114.5988	1130.6505	1165.9821	1168.8092	1181.4478	1223.9846	1241.108	1254.844	1286.8757	1305.7716	1322.3919	1358.6782	1411.5153	1436.9557	1495.1358	3061.6143	3125.7541	3135.5273	3147.512	3164.6438	3184.4123	3198.9674	3476.8692	3792.5122
OC12CC3C4NC4C1C23	O[C@@]12C[C@H]3[C@H]4N[C@H]4[C@@H]1[C@@H]23	
InChI=1S/C7H9NO/c9-7-1-2-3(7)4(7)6-5(2)8-6/h2-6,8-9H,1H2	InChI=1S/C7H9NO/c9-7-1-2-3(7)4(7)6-5(2)8-6/h2-6,8-9H,1H2/t2-,3+,4+,5-,6+,7-/m1/s1
