21
gdb 73830	2.64889	1.36068	1.03078	1.5084	85.73	-0.2089	0.0289	0.2378	1237.7767	0.181208	-387.100647	-387.091358	-387.090414	-387.133976	36.054	
C	 0.0572859037	 1.4995091808	 0.138614654	-0.492773
C	 0.0008928082	 0.0093292367	 0.0030724325	 0.198939
C	-0.0381623675	-0.7294032359	-1.120561505	 0.238208
C	-0.0543735238	-0.2623166021	-2.543885905	-0.502302
C	-0.0307445326	-2.1920578207	-0.805912404	-0.215636
C	 1.2146509406	-2.7119783704	-0.0882389822	-0.309076
C	 0.0233766183	-2.2942518476	 0.7090449013	 0.418068
O	-0.609596759	-3.3055687625	 1.4322265384	-0.47068
C	-0.0165875679	-0.8646168662	 1.2450995515	-0.383031
H	 0.9727120218	 1.8197842711	 0.6533216942	 0.12305
H	 0.0245787361	 2.0097699261	-0.8269509875	 0.121435
H	-0.7813497639	 1.8715608205	 0.742351906	 0.120401
H	-0.0667673016	 0.8266469258	-2.6302952927	 0.120914
H	 0.8220071095	-0.6351968784	-3.0892785494	 0.127887
H	-0.934966867	-0.6500181115	-3.0723827683	 0.122703
H	-0.5979449648	-2.8920094969	-1.4114460088	 0.081256
H	 1.3843525887	-3.7824798192	-0.1323439017	 0.116939
H	 2.1077745482	-2.0948030327	-0.0884250187	 0.106748
H	-1.5513910528	-3.1028243861	 1.4618649904	 0.277095
H	 0.8196095975	-0.6512530787	 1.9234667657	 0.109808
H	-0.9332345418	-0.7003898322	 1.8339289894	 0.090045
142.7226	150.7072	157.2192	175.2666	261.9323	288.0549	314.3793	327.3251	385.1876	418.7217	441.6613	541.0434	581.2119	598.8134	703.8523	768.1394	864.8477	885.2532	923.1943	953.0397	965.4459	979.6221	1010.7725	1039.4401	1067.4106	1073.4677	1083.1198	1135.5698	1158.0621	1182.3873	1217.3218	1251.5433	1264.2483	1334.7931	1347.7587	1407.4681	1418.4517	1421.6425	1466.3598	1477.5918	1481.2717	1485.5981	1489.8865	1494.1425	1721.2996	2982.329	3011.8343	3017.5233	3036.7577	3052.0793	3059.6795	3112.1959	3119.6428	3122.8992	3160.3889	3218.7289	3789.6568
CC1=C(C)C2CC2(O)C1	CC1=C(C)[C@H]2C[C@@]2(O)C1	
InChI=1S/C8H12O/c1-5-3-8(9)4-7(8)6(5)2/h7,9H,3-4H2,1-2H3	InChI=1S/C8H12O/c1-5-3-8(9)4-7(8)6(5)2/h7,9H,3-4H2,1-2H3/t7-,8+/m1/s1
