18
gdb 8412	3.56242	1.6801	1.48266	2.3686	68.69	-0.2209	0.0698	0.2907	932.1664	0.15166	-384.89884	-384.890473	-384.889529	-384.931393	31.317	
C	-0.152383948	 1.512181678	 0.0771695864	-0.446479
C	 0.0028347561	 0.0084033257	 0.0510777762	 0.314666
O	-1.1561733217	-0.694533632	-0.2977328556	-0.452706
C	 1.3418246624	-0.6099108906	-0.3501078285	-0.436323
C	 0.8586245189	-0.6812002436	 1.0706270096	 0.443933
C	 1.4690734748	-0.1449352068	 2.3618800911	-0.36158
C	 0.9937773474	-1.4918680736	 2.9479277008	-0.069304
O	 0.4799862313	-1.9191354958	 1.6650763387	-0.296608
H	 0.7567037207	 2.0045722818	 0.4352806544	 0.116564
H	-0.3608035001	 1.8978396179	-0.9287591191	 0.109709
H	-0.9838905185	 1.8005053621	 0.7285760272	 0.12652
H	-1.3035683815	-0.5700985746	-1.2420098089	 0.280582
H	 1.2873536338	-1.5408540006	-0.9054365616	 0.123504
H	 2.1789480355	 0.0365263996	-0.5978657943	 0.106824
H	 2.5516348913	-0.0040935632	 2.340126651	 0.113109
H	 0.9948127999	 0.7464977649	 2.7767406506	 0.114355
H	 1.7816650049	-2.1607124088	 3.3114755007	 0.105764
H	 0.199318433	-1.4262779202	 3.7000339614	 0.107472
77.7234	165.0848	170.9033	212.3489	260.3987	278.4524	371.3016	410.1277	439.0295	503.6985	598.2422	710.2153	793.7279	855.2552	873.7063	898.6052	901.3393	963.4714	989.5664	1017.921	1028.8851	1080.7305	1112.9269	1159.0103	1167.432	1189.0612	1216.025	1250.4343	1270.3627	1316.0875	1357.3228	1398.966	1411.9819	1470.2488	1485.2445	1490.9052	1509.2211	1533.2538	3021.8586	3026.5964	3069.1847	3073.029	3085.0589	3109.4786	3116.4909	3126.2192	3213.6292	3790.1613
CC1(O)CC11CCO1	C[C@@]1(O)C[C@]21CCO2	
InChI=1S/C6H10O2/c1-5(7)4-6(5)2-3-8-6/h7H,2-4H2,1H3	InChI=1S/C6H10O2/c1-5(7)4-6(5)2-3-8-6/h7H,2-4H2,1H3/t5-,6+/m1/s1
