22
gdb 88664	3.10058	1.07057	1.01691	3.1419	83.46	-0.2329	0.0814	0.3143	1312.0269	0.194093	-404.304932	-404.295872	-404.294928	-404.338777	35.136	
C	-0.1726064539	 1.2362912848	-0.4153941254	-0.418019
C	-0.1360881549	-0.0772137498	 0.3353900731	 0.0298
C	 1.0744296569	-0.9502198063	 0.3194623661	-0.257936
N	 0.6538152133	-0.2908781065	 1.5534100826	-0.08889
C	 1.4970986699	 0.7714217704	 2.0961269621	 0.031782
C	 0.7308792531	 1.5276409785	 3.2175761816	-0.256014
C	 1.3010606945	 0.4945058404	 4.236982647	 0.156934
O	 0.4389219245	-0.5892331471	 4.4916410499	-0.44104
C	 2.4195708123	 0.1790104157	 3.1982293036	-0.254436
H	 0.8193040415	 1.6756527576	-0.5421047625	 0.124853
H	-0.5912792823	 1.0747932864	-1.4142949168	 0.125555
H	-0.8077721763	 1.9682540325	 0.0948930118	 0.128787
H	-1.1035161702	-0.5750405336	 0.3846916317	 0.094372
H	 0.9898716694	-2.0333755948	 0.2980322966	 0.116778
H	 1.9559037277	-0.5542368909	-0.1838945018	 0.10956
H	 1.9848506121	 1.3783687777	 1.3224651285	 0.050419
H	 1.1359261901	 2.5314906053	 3.3741270351	 0.096363
H	-0.3573698851	 1.5784943157	 3.1342711728	 0.100111
H	 1.6175214541	 0.877806708	 5.2100712598	 0.075386
H	 0.1758442682	-0.9227276563	 3.6200684332	 0.278222
H	 2.7087818538	-0.8697091566	 3.0967405858	 0.101698
H	 3.3112451013	 0.794297969	 3.3491321653	 0.095712
68.0574	115.073	140.9664	205.626	227.1602	323.7081	367.3252	404.1743	413.8377	422.9786	541.1498	585.8929	719.4038	762.563	795.9168	848.6367	868.8378	899.8033	916.8112	919.6469	958.886	1000.2204	1027.1306	1046.9924	1062.5129	1091.9206	1106.6322	1118.0018	1148.2898	1163.4504	1166.5721	1190.7036	1210.8321	1249.9969	1268.6799	1286.619	1326.9614	1345.9743	1367.9468	1404.074	1421.9209	1452.5181	1465.4396	1484.2039	1493.3803	1498.3299	1509.6152	3005.6689	3039.7739	3054.597	3059.7077	3082.5241	3089.4752	3097.4977	3107.2613	3118.7249	3119.4891	3130.8155	3177.8037	3698.1098
CC1CN1C1CC(O)C1	C[C@H]1CN1[C@H]1C[C@@H](O)C1	
InChI=1S/C7H13NO/c1-5-4-8(5)6-2-7(9)3-6/h5-7,9H,2-4H2,1H3	InChI=1S/C7H13NO/c1-5-4-8(5)6-2-7(9)3-6/h5-7,9H,2-4H2,1H3/t5-,6-,7+,8?/m0/s1
