15
gdb 33988	2.41504	1.73131	1.21128	3.9628	71.39	-0.261	0.0012	0.2622	1013.9539	0.1127	-416.744174	-416.736676	-416.735732	-416.776264	28.458	
N	 0.0174427366	-1.1568754955	-0.096229298	-0.343483
C	 0.0279572474	-0.0027128225	-0.0089743417	 0.182141
C	 0.0240801088	 1.4156611305	 0.0987803679	 0.146417
N	 0.2567412896	 2.3120316786	-1.0769607384	-0.358539
C	 1.1592927272	 2.4037854802	 0.0792040639	-0.111953
C	 0.4572469075	 3.2945109852	 1.1170614385	-0.313675
C	-0.7138867193	 2.2856119389	 1.114720135	 0.412135
C	-2.1436621051	 2.4080833223	 1.3708277946	-0.25729
O	-1.2486300024	 1.7584570789	 2.2999477055	-0.262543
H	 0.7160929726	 1.751100546	-1.7956149952	 0.252917
H	 2.2179386294	 2.1985424817	-0.0104514204	 0.128944
H	 0.9558448144	 3.2900817223	 2.088848696	 0.136192
H	 0.2487114007	 4.3165668618	 0.7962502671	 0.126981
H	-2.5506181467	 3.3581242156	 1.7113860437	 0.128334
H	-2.8435158208	 1.7476791161	 0.8628551915	 0.133421
105.8148	138.4538	178.5856	305.3592	330.1675	411.2899	465.8559	517.8633	575.3414	582.6848	620.742	789.7451	852.0736	866.6724	879.1296	904.9176	938.3463	985.2798	1036.4642	1055.3444	1108.5639	1124.5814	1146.0622	1166.4313	1180.2865	1226.5083	1278.9022	1326.0962	1387.8814	1442.2848	1471.8097	1540.3532	2348.0092	3077.2834	3095.1734	3140.2629	3186.8822	3210.0138	3471.8946
N#CC12NC1CC21CO1	N#C[C@]12N[C@H]1C[C@]12CO1	
InChI=1S/C6H6N2O/c7-2-6-4(8-6)1-5(6)3-9-5/h4,8H,1,3H2	InChI=1S/C6H6N2O/c7-2-6-4(8-6)1-5(6)3-9-5/h4,8H,1,3H2/t4-,5+,6-/m0/s1
