19
gdb 15840	5.59899	1.00601	0.94921	2.6125	68.65	-0.2379	0.0746	0.3125	1273.2084	0.165045	-402.15469	-402.145734	-402.14479	-402.188623	31.98	
C	 0.2644085622	 1.3249029976	-0.0812384408	-0.231551
O	 0.1129139739	-0.0742773459	 0.0083592002	-0.251787
C	 0.6118558336	-0.6211910337	 1.2151123716	-0.081398
C	 0.5029531762	-2.1407686438	 1.0855883092	 0.081291
O	 1.1571463252	-2.5640581439	-0.0991918964	-0.44543
C	 1.1350543689	-2.8416173884	 2.2711106206	 0.011234
C	 1.6638542119	-4.2177230572	 2.1397448572	-0.246778
N	 2.587142449	-3.073469443	 2.2902754432	-0.325601
H	 1.3215616218	 1.6235125525	-0.0138497878	 0.112325
H	-0.1329058448	 1.6355701213	-1.0503540376	 0.131687
H	-0.2920631139	 1.8424199254	 0.7144283451	 0.112268
H	 1.6645448425	-0.3313721284	 1.3627017268	 0.101618
H	 0.0323967807	-0.2611670984	 2.0799098154	 0.094086
H	-0.5679365146	-2.4017614372	 1.0418810673	 0.078789
H	 0.9354333066	-1.9038161465	-0.7676765773	 0.295194
H	 0.7212789441	-2.5332781047	 3.2299532896	 0.086464
H	 1.6275269378	-4.8936615327	 2.9892915498	 0.112077
H	 1.5940984399	-4.688882111	 1.1647115715	 0.128509
H	 2.9412516491	-2.8453539519	 1.3623285824	 0.237004
68.5952	105.7807	120.2877	148.5649	231.0392	277.4783	288.6576	354.5994	407.4906	454.5096	553.1834	639.9047	791.1626	855.6	897.9523	950.4356	972.4171	995.0261	1031.6915	1090.4378	1108.3481	1134.6659	1154.4436	1165.548	1184.0591	1205.6691	1225.3753	1255.7656	1265.0385	1289.9989	1319.5852	1346.1126	1398.7802	1411.3187	1461.1125	1479.2114	1486.5823	1500.3828	1504.7892	1522.0846	2960.9221	2970.367	2983.8432	3014.3967	3030.5713	3116.0462	3118.4412	3121.903	3209.8376	3484.1838	3782.0775
COCC(O)C1CN1	COC[C@@H](O)[C@H]1CN1	
InChI=1S/C5H11NO2/c1-8-3-5(7)4-2-6-4/h4-7H,2-3H2,1H3	InChI=1S/C5H11NO2/c1-8-3-5(7)4-2-6-4/h4-7H,2-3H2,1H3/t4-,5-/m1/s1
