14
gdb 132188	1.97064	1.79266	0.94423	3.9755	67.9	-0.239	-0.0358	0.2031	1142.9075	0.100021	-481.845841	-481.838229	-481.837285	-481.87816	28.259	
C	 0.120744451	 1.4725253053	 0.0181597805	-0.470189
C	-0.0436883548	-0.009502439	-0.0000151821	 0.392447
C	-1.1794182683	-0.7089313749	-0.1462485724	-0.330098
C	-1.2056430483	-2.1806819744	-0.1466228419	 0.412111
O	-2.2301148916	-2.8318863318	-0.2784015009	-0.375757
C	 0.1214906337	-2.7780240168	 0.0269226139	-0.473389
C	 1.1864406914	-1.9785343395	 0.1637685206	 0.40387
F	 2.418975934	-2.4012412824	 0.3248263714	-0.036222
O	 1.1686361575	-0.6424346138	 0.1588837016	-0.237306
H	 0.791961931	 1.7957309732	-0.7846428851	 0.153121
H	-0.8453082759	 1.9620751163	-0.1093537303	 0.148285
H	 0.5631346685	 1.7998212726	 0.9651016927	 0.153125
H	-2.1198085558	-0.1867087503	-0.269633836	 0.123534
H	 0.2388363876	-3.8525244546	 0.044249308	 0.136468
138.7122	169.5543	177.9058	215.344	286.8397	365.3373	498.8955	508.2069	551.9783	560.3557	607.3867	670.868	731.6807	860.8139	895.4682	925.5473	937.4381	999.8053	1061.5941	1067.9152	1170.723	1211.5881	1260.5436	1354.983	1400.0284	1419.7585	1470.4989	1482.9828	1667.9209	1728.2479	1755.5006	3042.7886	3098.9728	3151.1312	3219.2943	3237.6506
CC1=CC(=O)C=C(F)O1	Cc1cc(=O)cc(F)o1	
InChI=1S/C6H5FO2/c1-4-2-5(8)3-6(7)9-4/h2-3H,1H3	InChI=1S/C6H5FO2/c1-4-2-5(8)3-6(7)9-4/h2-3H,1H3
