23
gdb 113189	2.46527	1.02761	0.89709	1.1573	82.32	-0.2525	0.0684	0.3209	1438.7901	0.202831	-425.40823	-425.39713	-425.396186	-425.444432	40.758	
C	 0.0475318967	 1.5121405864	-0.2502020435	-0.414798
C	 0.0001388614	 0.0329898948	 0.1421068152	 0.066231
O	 0.6445134488	-0.1856812054	 1.3994884014	-0.440405
C	-1.4074010428	-0.5620794363	 0.115949811	 0.342303
C	-2.4449446198	 0.1686440359	 0.9526723011	-0.483036
C	-1.8721564466	-1.2049478497	-1.1731026907	-0.333797
C	-1.5591281928	-2.0660117909	 0.0270276848	-0.022335
C	-0.401658556	-3.0312322461	 0.036633298	-0.108954
O	-0.8682424696	-4.260846601	-0.5107925544	-0.424434
H	 1.0852510261	 1.8546666621	-0.2811667053	 0.121952
H	-0.4051580045	 1.6731193936	-1.2337259074	 0.120622
H	-0.4908165248	 2.1359260918	 0.4721299967	 0.110022
H	 0.6197307897	-0.5204735238	-0.5700663833	 0.082651
H	 0.2060028733	 0.3660194443	 2.0558778723	 0.277219
H	-2.6238110059	 1.1861797627	 0.5896243401	 0.118946
H	-3.402341716	-0.3597484693	 0.9306083853	 0.120696
H	-2.1405437052	 0.2346321495	 2.0049747364	 0.105029
H	-2.9076956492	-1.0814079353	-1.4725021014	 0.106339
H	-1.1732824917	-1.2370140396	-2.0040966339	 0.10773
H	-2.4216665374	-2.4681638572	 0.5529331689	 0.085244
H	 0.4421312768	-2.6398133594	-0.5498232143	 0.082294
H	-0.0427395309	-3.1664030675	 1.068062823	 0.097313
H	-0.1594275697	-4.9060845993	-0.4312303	 0.28317
49.4922	72.3421	135.9386	171.704	223.2763	232.2584	253.4371	264.4027	271.6017	287.1464	310.964	363.0359	421.5122	448.4067	524.8282	584.3453	710.0772	821.8263	879.201	881.6962	919.0106	931.5917	973.5608	1025.3917	1042.2929	1062.8631	1068.2895	1089.8522	1102.6682	1122.2915	1131.4222	1166.8615	1243.2398	1250.7085	1273.4145	1311.0485	1316.4207	1368.8913	1398.4651	1406.7542	1416.5795	1423.8434	1468.5575	1487.2238	1490.4284	1496.0411	1500.257	1508.3184	1517.8352	2982.5032	3010.4231	3020.5761	3033.917	3061.5651	3081.8267	3101.089	3106.1645	3119.2679	3119.747	3137.3533	3203.188	3808.8042	3824.4763
CC(O)C1(C)CC1CO	C[C@@H](O)[C@@]1(C)C[C@H]1CO	
InChI=1S/C7H14O2/c1-5(9)7(2)3-6(7)4-8/h5-6,8-9H,3-4H2,1-2H3	InChI=1S/C7H14O2/c1-5(9)7(2)3-6(7)4-8/h5-6,8-9H,3-4H2,1-2H3/t5-,6+,7-/m1/s1
