17
gdb 103254	4.09292	1.03364	1.00257	3.7553	68.66	-0.2758	-0.0033	0.2726	1208.8062	0.134256	-458.95193	-458.94322	-458.942276	-458.985397	32.14	
C	-0.030784969	 1.5875005323	 0.1451298041	-0.488352
C	-0.0003504726	 0.075354866	 0.0755510139	 0.267529
C	-1.2571638819	-0.5697316715	-0.5030188435	-0.134803
O	-1.4947220543	-0.2008253257	-1.8499077425	-0.41368
C	 1.2498433915	-0.6902083837	-0.1821998598	 0.054608
O	 2.4045056505	 0.0055258995	 0.3605857084	-0.264642
C	 1.9061239	-0.1633769749	 1.6518556988	 0.464133
O	 2.4457604975	 0.1135585641	 2.6717303686	-0.323954
C	 0.6244917083	-0.8023967159	 1.1891779169	-0.334444
H	 0.9215568376	 1.998166005	 0.4831985758	 0.157113
H	-0.2287115677	 2.003974068	-0.8484947585	 0.12065
H	-0.8172265679	 1.9301629214	 0.8260326631	 0.125495
H	-1.1497389353	-1.6600546259	-0.5044456144	 0.112675
H	-2.1165229101	-0.3286020422	 0.1405754497	 0.10436
H	-1.8476666089	 0.6935930156	-1.8630272093	 0.291906
H	 1.436224014	-1.4281330614	-0.9499161926	 0.136382
H	 0.0896558383	-1.6017370309	 1.6824632613	 0.125024
77.5991	126.8266	169.7211	195.2219	257.9458	272.1366	320.1293	334.9369	426.7414	505.6458	583.1191	683.235	732.9339	784.5499	832.7631	866.1521	909.0666	950.49	963.6851	986.5095	1017.6457	1058.7522	1077.1588	1089.6324	1119.3471	1151.2362	1203.7459	1263.5463	1291.9536	1384.8709	1399.3712	1416.0699	1430.3854	1485.6914	1497.8228	1509.3697	1943.4223	2993.1009	3037.2372	3068.0247	3096.7346	3140.7123	3215.9899	3226.6351	3833.7513
CC1(CO)C2OC(=O)C12	C[C@@]1(CO)[C@H]2OC(=O)[C@@H]12	
InChI=1S/C6H8O3/c1-6(2-7)3-4(6)9-5(3)8/h3-4,7H,2H2,1H3	InChI=1S/C6H8O3/c1-6(2-7)3-4(6)9-5(3)8/h3-4,7H,2H2,1H3/t3-,4-,6-/m0/s1
