23
gdb 100025	2.33072	1.37181	1.16108	2.0921	81.52	-0.2503	0.0762	0.3265	1226.4176	0.201692	-425.401444	-425.3907	-425.389756	-425.436532	40.311	
C	 0.1024383212	 1.347524285	 0.2240261323	-0.242607
O	 0.4616504028	-0.0098113575	 0.1134697143	-0.282725
C	 0.7315807262	-0.538449614	-1.1897794551	 0.297245
C	-0.3602165006	-0.1416425181	-2.1968300518	-0.435887
C	 2.1206635973	-0.0652531466	-1.6504431831	-0.428639
C	 0.7090512673	-2.0728585283	-1.0174126354	 0.412787
C	 1.2838047483	-2.9071596926	-2.1464036345	-0.480953
C	 0.653661094	-2.6665703105	 0.327060324	-0.223076
O	-0.5215938585	-2.5817308255	-0.4879033191	-0.29041
H	 0.8319903607	 2.0245535869	-0.2435012187	 0.102747
H	-0.8881700842	 1.559418403	-0.1997877472	 0.112744
H	 0.072078762	 1.5686453507	 1.2942565972	 0.1265
H	-0.3571402398	 0.9346466469	-2.388635682	 0.111726
H	-0.2000365887	-0.6412767273	-3.1557244291	 0.117213
H	-1.3403382178	-0.4365533442	-1.8145416086	 0.143324
H	 2.8906586414	-0.4014988609	-0.9499671162	 0.121608
H	 2.3647285342	-0.4405337713	-2.647525404	 0.118915
H	 2.1562580069	 1.0268753213	-1.6972605692	 0.115893
H	 2.3698622504	-2.7973284361	-2.2175862555	 0.124279
H	 1.0550125093	-3.9595856313	-1.9637209716	 0.129679
H	 0.8526753916	-2.6366088565	-3.1155780076	 0.123165
H	 1.0437134917	-3.6742338862	 0.4726184079	 0.097485
H	 0.6561094641	-2.0211358369	 1.1981936529	 0.128985
69.9328	88.3468	183.5776	192.6338	203.1447	233.3374	268.7143	285.3524	323.6833	341.4307	364.3615	381.9321	395.8883	457.8178	507.8089	533.9321	656.5319	791.0983	842.1112	895.4922	918.9316	928.4791	948.838	1010.2484	1024.0965	1098.7606	1112.2286	1136.616	1169.2892	1176.2254	1187.7343	1191.5929	1206.1025	1231.2304	1303.919	1388.1529	1391.0099	1407.4154	1417.091	1473.646	1476.4223	1483.559	1489.6745	1492.3599	1497.3805	1508.5462	1510.2202	1513.1917	1520.279	2992.3234	3041.6174	3042.2672	3047.0383	3052.8727	3087.2885	3105.5994	3106.3631	3114.0317	3119.4516	3122.0777	3127.9934	3135.2351	3207.8371
COC(C)(C)C1(C)CO1	COC(C)(C)[C@@]1(C)CO1	
InChI=1S/C7H14O2/c1-6(2,8-4)7(3)5-9-7/h5H2,1-4H3	InChI=1S/C7H14O2/c1-6(2,8-4)7(3)5-9-7/h5H2,1-4H3/t7-/m1/s1
