19
gdb 55727	2.44052	1.30442	1.04713	2.9682	77.	-0.2402	-0.022	0.2181	1223.7696	0.156112	-423.051903	-423.042206	-423.041262	-423.087535	34.792	
C	 0.175050108	 1.3906488409	 0.1367031599	-0.4862
C	-0.5890227442	 0.1391394689	-0.2320351467	 0.408601
O	-1.5978351526	-0.2049692794	 0.339045494	-0.310601
C	-0.0241535007	-0.6912118561	-1.3957798613	-0.400347
C	 0.087886956	-2.1628685449	-1.052157678	 0.284922
C	-1.1537317777	-3.0482700905	-1.0485025476	-0.280243
C	-0.1384564266	-3.2304075602	-2.1218116721	-0.331108
C	 1.1002710409	-2.4853266166	-0.0223273855	 0.120996
O	 1.7757179247	-1.6631972962	 0.5515361921	-0.280027
H	 1.1660242002	 1.0944597679	 0.497887255	 0.16826
H	 0.3281084288	 2.0242104475	-0.7447112648	 0.13086
H	-0.3563634075	 1.9464665086	 0.909982836	 0.136871
H	-0.7091350301	-0.5609252312	-2.2422689314	 0.120897
H	 0.9526798547	-0.3046723999	-1.7002980469	 0.116586
H	-1.228876228	-3.8031402766	-0.2731701221	 0.127796
H	-2.0849165909	-2.5437447803	-1.2714671482	 0.145843
H	-0.3540563534	-2.8670449161	-3.1202066575	 0.128839
H	 0.4941407103	-4.1116322096	-2.0933457863	 0.12575
H	 1.203815938	-3.5720691863	 0.2023728016	 0.072307
25.8277	78.543	134.6523	152.3644	184.8005	259.4387	282.4981	311.6691	377.7991	413.492	494.8713	545.2349	596.4118	770.2945	794.1304	803.0638	844.9984	890.8033	926.078	950.114	981.2034	1024.5324	1044.925	1051.0441	1075.0097	1087.3746	1179.3908	1191.9597	1206.6483	1314.1527	1334.9861	1362.7616	1378.197	1433.8256	1457.9642	1465.9557	1471.0188	1476.7656	1499.6493	1803.236	1813.9814	2866.6909	3034.9915	3040.6944	3094.9079	3101.0832	3134.1672	3147.5751	3153.6936	3218.2019	3241.6765
CC(=O)CC1(CC1)C=O	CC(=O)CC1(CC1)C=O	
InChI=1S/C7H10O2/c1-6(9)4-7(5-8)2-3-7/h5H,2-4H2,1H3	InChI=1S/C7H10O2/c1-6(9)4-7(5-8)2-3-7/h5H,2-4H2,1H3
