21
gdb 90874	2.63501	1.69378	1.50154	1.3815	80.71	-0.2441	0.0725	0.3166	997.8114	0.18587	-387.071028	-387.063607	-387.062663	-387.102429	31.057	
O	 0.2362535439	 1.4683766456	-0.0563321768	-0.425523
C	 0.094536627	 0.0467732052	 0.0167055244	 0.113271
C	-1.3744835764	-0.3957054686	 0.2111383275	-0.259894
C	-2.1748829874	-0.7099923099	-1.0449335967	-0.006622
C	-2.2849654449	 0.0753533297	-2.3351747246	-0.071689
C	-1.0079216404	 0.8250268491	-2.7160812753	-0.244642
C	-0.1896577169	-0.4936828341	-2.4743381058	-0.021887
C	 0.7343478136	-0.5321595759	-1.2539428139	-0.2103
C	-1.5221907215	-1.2514210374	-2.2805955769	-0.087355
H	-0.2304704548	 1.8490027021	 0.6943225578	 0.27726
H	 0.666588144	-0.3116852253	 0.8866316114	 0.060831
H	-1.3657459993	-1.3124237958	 0.8162302082	 0.098139
H	-1.889412457	 0.3575935817	 0.8243058823	 0.082627
H	-3.1175200829	-1.2037834202	-0.8150763713	 0.078603
H	-3.263488087	 0.2635678391	-2.7633686696	 0.074883
H	-1.0112692523	 1.0866422504	-3.7777516327	 0.089377
H	-0.7339543501	 1.6993195203	-2.1267741823	 0.117591
H	 0.3550824683	-0.8106199119	-3.3662508388	 0.065446
H	 1.6560846766	 0.0289577875	-1.4419911631	 0.105715
H	 1.024490554	-1.5728797938	-1.0601048053	 0.09081
H	-1.7695359166	-2.2138864878	-2.7132700084	 0.07336
121.629	211.0944	288.0267	336.6356	357.8722	363.1267	421.1333	522.4501	573.7959	683.9182	711.3181	779.2911	791.1858	826.4348	832.4606	879.1279	928.2361	945.9751	952.7739	979.4568	1012.6602	1020.1124	1046.9203	1069.8724	1073.8174	1104.2189	1106.0402	1153.8983	1177.3207	1202.2739	1220.6214	1247.467	1265.0092	1290.4778	1307.325	1321.5006	1345.1266	1358.6075	1386.1327	1394.6833	1432.4136	1449.4284	1468.2523	1477.2177	1496.6763	2963.5231	2999.8135	3026.1974	3033.3743	3061.7003	3073.3939	3081.2646	3120.5917	3139.9761	3161.8494	3175.7776	3816.0687
OC1CC2C3CC(C1)C23	O[C@H]1C[C@H]2[C@H]3C[C@@H](C1)[C@@H]23	
InChI=1S/C8H12O/c9-5-1-4-2-6-7(3-5)8(4)6/h4-9H,1-3H2	InChI=1S/C8H12O/c9-5-1-4-2-6-7(3-5)8(4)6/h4-9H,1-3H2/t4-,5-,6-,7+,8-/m1/s1
