16
gdb 47237	2.49249	1.82775	1.29761	4.4067	70.34	-0.2487	-0.0228	0.2259	977.9429	0.126592	-437.884028	-437.876857	-437.875913	-437.915633	27.964	
O	 0.0134341929	 0.0408713512	 0.52990466	-0.328755
C	 0.0246046686	 1.1648015933	 0.0972751196	 0.435403
O	-1.1496005874	 1.7827616456	-0.1336716067	-0.236115
C	-1.2871242221	 3.1194847133	-0.6770055572	-0.125893
C	-0.7254578092	 3.2556029841	-2.0679271884	-0.110669
C	 0.558778839	 3.0623531442	-2.3688111523	-0.003725
C	 1.6145576363	 2.704778619	-1.3897499661	-0.075621
N	 1.5277743482	 3.27104285	-0.0344158847	-0.336991
C	 1.3468609917	 1.8242730997	-0.1955419677	-0.172227
H	-2.3674906081	 3.2716646255	-0.6865155235	 0.122748
H	-0.8339081883	 3.835389563	 0.0090968817	 0.155607
H	-1.4250672205	 3.5006653238	-2.8609447686	 0.107113
H	 0.8842528282	 3.1404736355	-3.4023611635	 0.100702
H	 2.6094314354	 2.5887394361	-1.8116304378	 0.101827
H	 2.4544219836	 3.4630310323	 0.3348889732	 0.248054
H	 2.1532850516	 1.1639980635	 0.1080778519	 0.118542
100.3901	204.7901	262.7252	290.9777	330.5544	401.2432	459.1936	582.4938	641.7123	685.4584	702.5413	791.3561	809.82	827.6042	881.9588	935.0882	940.5017	989.9674	994.9672	1047.0375	1064.3752	1091.646	1157.1348	1192.162	1219.1264	1259.1329	1284.3458	1295.9507	1391.4867	1410.9592	1431.5349	1458.4559	1493.656	1721.2397	1817.75	3088.2025	3136.592	3140.6194	3163.8556	3166.3859	3185.9402	3516.4313
O=C1OCC=CC2NC12	O=C1OCC=C[C@H]2N[C@@H]12	
InChI=1S/C6H7NO2/c8-6-5-4(7-5)2-1-3-9-6/h1-2,4-5,7H,3H2	InChI=1S/C6H7NO2/c8-6-5-4(7-5)2-1-3-9-6/h1-2,4-5,7H,3H2/t4-,5-/m1/s1
