13
gdb 23914	2.95656	1.91707	1.66082	1.808	46.82	-0.2793	0.0728	0.3521	796.3765	0.090871	-530.092821	-530.085375	-530.08443	-530.12469	27.639	
O	-0.1837312524	 1.3455087181	-0.237459386	-0.45923
C	-0.051443419	-0.020060904	 0.0014540002	 0.264353
C	-0.4050493398	-0.5838753491	 1.3548209107	-0.328706
C	-1.3173652576	-0.7964250529	 0.1648461747	-0.302138
C	 1.0955106923	-0.6324208625	-0.7652912822	 0.232052
F	 2.24890958	-0.0082765759	-0.4485997899	-0.092335
F	 1.2480459316	-1.935723083	-0.4846156368	-0.077104
F	 0.9363595434	-0.5158246024	-2.0872375729	-0.065129
H	 0.6017008174	 1.7833087397	 0.1120591362	 0.292845
H	 0.1564443115	-1.4308018906	 1.7298878441	 0.134461
H	-0.7130256652	 0.1418855027	 2.098230314	 0.126846
H	-2.2298427619	-0.2146101025	 0.1157331579	 0.137212
H	-1.3728183003	-1.7874655575	-0.2692701201	 0.136873
71.6939	203.1244	222.2743	307.2608	338.8018	363.8775	411.287	476.2776	519.1708	578.2306	602.1573	750.4238	774.6179	891.6274	926.7193	961.4341	1003.3812	1060.0441	1089.0372	1159.4504	1182.727	1195.8482	1212.7385	1279.7646	1369.9697	1413.3498	1447.7771	1499.3264	3147.953	3151.3745	3236.35	3248.9065	3790.6636
OC1(CC1)C(F)(F)F	OC1(CC1)C(F)(F)F	
InChI=1S/C4H5F3O/c5-4(6,7)3(8)1-2-3/h8H,1-2H2	InChI=1S/C4H5F3O/c5-4(6,7)3(8)1-2-3/h8H,1-2H2
