15
gdb 126351	1.947	0.91658	0.63908	1.118	69.76	-0.2633	-0.037	0.2263	1670.1685	0.105349	-450.200099	-450.187986	-450.187042	-450.242985	36.327	
C	-0.7835358824	 0.6065542734	 0.5767476108	-0.379678
C	 0.6007090456	 0.907418414	 0.0107575873	-0.276922
C	 0.9051525445	 0.1542959752	-1.26425774	 0.371431
N	 2.1979446206	 0.4646660079	-1.7714633713	-0.345035
C	 2.8361038422	-0.2272919591	-2.5598769309	 0.509628
N	 3.6193576094	-0.8863626816	-3.2091481762	-0.522622
N	 0.6256561657	-1.4850031887	-4.9197120177	-0.011547
N	-0.4236485344	-1.808546112	-4.945412469	 0.00967
O	 0.1420900933	-0.5955638806	-1.8199200425	-0.305539
H	-1.5646394839	 0.863188089	-0.1433035295	 0.133553
H	-0.8901053409	-0.4562953465	 0.8084506266	 0.132986
H	-0.9548365905	 1.178664814	 1.492568256	 0.113777
H	 0.7295596535	 1.9752011507	-0.2077820312	 0.138147
H	 1.3957747104	 0.6703891511	 0.7294978384	 0.135108
H	 3.545018167	-0.982432117	-4.2121777108	 0.297044
16.9731	32.4393	38.5921	42.7312	55.8816	70.8388	87.5946	120.2816	201.9886	249.1452	386.2265	420.4129	520.7279	539.6421	595.9856	688.0811	805.4287	823.7836	857.9764	991.8236	1055.2518	1100.0076	1124.3269	1273.4775	1363.7408	1416.2822	1417.8084	1450.1817	1493.2931	1499.5131	1794.8025	2239.736	2435.1055	3034.3923	3052.6507	3061.2962	3124.5006	3128.1581	3631.94
CCC1=NC(=N)N=NO1	CCC(=O)[N][C][NH].N#N	
InChI=1S/C4H6N4O/c1-2-3-6-4(5)7-8-9-3/h5H,2H2,1H3	InChI=1S/C4H6N2O.N2/c1-2-4(7)6-3-5;1-2/h5H,2H2,1H3;
