15
gdb 123810	5.47968	0.97691	0.88336	2.9235	67.9	-0.2414	-0.0401	0.2013	1271.7285	0.111902	-453.887658	-453.880084	-453.87914	-453.921173	27.653	
C	-0.3630455317	 1.1169379165	-0.1079891585	-0.278116
C	 1.1215960701	 1.044963155	 0.197544753	-0.295185
C	 0.3412531056	-0.2039158265	-0.0340578279	 0.140267
O	 0.1474851406	-1.008095826	 1.115240421	-0.277537
C	-0.8985928211	-1.8439907245	 1.0851653881	 0.340219
C	-1.3642970901	-2.6460473836	 2.0820639604	-0.0709
O	-2.4104063893	-3.3261562433	 1.5974130748	-0.153986
N	-2.5857147198	-2.9201636493	 0.2623925171	-0.009179
N	-1.6947168367	-2.0611430026	-0.0100556489	-0.198122
H	-1.0238084837	 1.3693279395	 0.7132077651	 0.128226
H	-0.6885585099	 1.4675814	-1.0805263794	 0.127608
H	 1.8336298403	 1.3507372679	-0.5601156746	 0.124297
H	 1.4262199199	 1.2457354387	 1.2181476518	 0.130974
H	 0.4891513882	-0.7804958252	-0.940991154	 0.120558
H	-1.0712228824	-2.8226266369	 3.1015350121	 0.170877
42.4427	58.5435	150.3615	310.7632	354.0658	390.5631	483.2158	643.6218	709.3865	715.549	725.1269	758.7167	787.1182	828.7691	846.4323	975.0028	988.4786	994.4052	1054.5203	1062.9465	1076.59	1120.8416	1131.1687	1178.6816	1190.3709	1237.1726	1307.2679	1339.0375	1390.3241	1434.4929	1454.8602	1496.5221	1653.8944	3143.2748	3145.9141	3167.6532	3226.9197	3240.484	3303.8124
C1CC1OC1=CON=N1	C1CC1Oc1conn1	
InChI=1S/C5H6N2O2/c1-2-4(1)9-5-3-8-7-6-5/h3-4H,1-2H2	InChI=1S/C5H6N2O2/c1-2-4(1)9-5-3-8-7-6-5/h3-4H,1-2H2
