14
gdb 26442	3.91186	1.08009	0.96651	2.3077	64.58	-0.2474	-0.0536	0.1938	1176.9153	0.100681	-473.851262	-473.843497	-473.842552	-473.884617	27.605	
O	-1.0085402001	 0.3288994241	-0.0369969626	-0.416455
C	 0.1663184139	-0.4112571735	-0.1786637248	-0.05847
C	 1.1689607708	 0.3505058299	-1.0495663567	 0.133831
O	 0.8848871158	 1.4176973562	-1.5312880244	-0.248866
C	 0.7774829745	-0.6902936574	 1.1605793804	 0.297847
C	 0.5871939134	-0.1997091505	 2.408496157	-0.17977
N	 1.4594500202	-0.8379510318	 3.2852937611	-0.249946
C	 2.1187023788	-1.6577264184	 2.5387134223	 0.069545
O	 1.7674805474	-1.6360415757	 1.2270833454	-0.188498
H	-0.8695583899	 1.1358171118	-0.5601348042	 0.301818
H	-0.0228345625	-1.3742577631	-0.6881939067	 0.11829
H	 2.1550096378	-0.1287516112	-1.198663542	 0.120417
H	-0.1172411067	 0.5460222833	 2.7356379721	 0.144757
H	 2.8986520467	-2.3482870435	 2.8178902331	 0.1555
52.843	89.5255	159.1015	224.1679	306.7587	357.669	426.1073	491.0408	651.4457	667.2039	698.3888	782.8353	833.5962	864.3921	872.4738	937.6736	991.2353	1028.1755	1114.6097	1119.1971	1153.7729	1207.4499	1245.9512	1258.0048	1322.6921	1368.3899	1389.0278	1433.6219	1548.562	1632.0793	1818.6724	2938.1853	2965.5984	3279.5987	3288.9344	3674.6895
OC(C=O)C1=CN=CO1	O[C@@H](C=O)c1cnco1	
InChI=1S/C5H5NO3/c7-2-4(8)5-1-6-3-9-5/h1-4,8H	InChI=1S/C5H5NO3/c7-2-4(8)5-1-6-3-9-5/h1-4,8H/t4-/m0/s1
