22
gdb 97446	5.61951	0.56379	0.5368	3.0036	89.3	-0.2431	0.0293	0.2724	2134.7523	0.191967	-404.330759	-404.32011	-404.319165	-404.368155	37.267	
C	 0.0552541599	 1.35698418	 0.2200496417	-0.313665
N	-0.0332975911	-0.0601158323	 0.4996550986	-0.206461
C	-1.0392780319	-0.6739482926	 0.0596392986	 0.136673
O	-1.1799834664	-1.9985386978	 0.2536183017	-0.204565
C	-2.4199844207	-2.5740228663	-0.1789358915	-0.100725
C	-2.2437544865	-4.064469206	-0.2387446743	-0.006145
C	-2.3706176315	-4.9038424628	 1.010339319	-0.282452
C	-3.4034591418	-5.0267810845	-0.0809872107	-0.002794
C	-4.8368187352	-4.5873340406	 0.1347797959	-0.408312
H	 0.1293901712	 1.9146608304	 1.1608647115	 0.125743
H	 0.9717231438	 1.5658396966	-0.3442196454	 0.126077
H	-0.7988440305	 1.7576303656	-0.3515846195	 0.092595
H	-1.8574010216	-0.2053541955	-0.5123672993	 0.067069
H	-3.214421987	-2.292845309	 0.5233201206	 0.103921
H	-2.6859831547	-2.1715671149	-1.1667933112	 0.104111
H	-1.4726782204	-4.3673372474	-0.9414587931	 0.093701
H	-1.6624789466	-5.7093779828	 1.1676934691	 0.115678
H	-2.6665480843	-4.3904045216	 1.9203830316	 0.114525
H	-3.3176434814	-5.9160229446	-0.7004520156	 0.088311
H	-4.910737964	-3.7350342487	 0.816312544	 0.117247
H	-5.3198875535	-4.3054061721	-0.807639647	 0.117425
H	-5.4219844158	-5.4022743031	 0.5746009653	 0.122043
26.1312	54.3712	81.8379	127.8385	184.6091	206.2727	224.133	238.7441	307.9615	332.5413	400.0409	450.6515	481.9865	626.9561	763.8359	838.4635	884.7789	888.2823	944.8641	982.5651	991.1155	1026.1448	1060.0934	1071.2604	1099.1563	1110.5376	1141.4344	1150.9654	1153.7463	1186.1512	1198.6911	1244.5512	1252.198	1287.9179	1364.1877	1398.6042	1416.3659	1422.813	1447.4135	1452.8149	1480.9742	1491.0949	1494.9611	1505.1452	1508.5485	1513.1584	1780.0948	2960.7079	2976.1437	3001.4089	3030.0986	3047.5088	3054.2468	3073.6628	3088.5787	3103.3755	3129.4769	3135.2849	3151.114	3215.2589
CN=COCC1CC1C	CN=COC[C@H]1C[C@H]1C	
InChI=1S/C7H13NO/c1-6-3-7(6)4-9-5-8-2/h5-7H,3-4H2,1-2H3	InChI=1S/C7H13NO/c1-6-3-7(6)4-9-5-8-2/h5-7H,3-4H2,1-2H3/t6-,7-/m1/s1
