21
gdb 122225	2.67678	0.95113	0.7905	2.3891	76.02	-0.254	0.0678	0.3219	1528.6888	0.180099	-461.326797	-461.316514	-461.31557	-461.362819	36.684	
C	-0.0646388291	 1.5375436946	 0.2893359024	-0.389392
C	-0.0367134196	 0.0341208759	 0.0774286114	-0.030083
O	-1.3694531792	-0.4503982793	 0.0825176308	-0.264821
C	-1.4597078829	-1.8488019668	-0.1354431443	-0.14407
C	-2.9082072743	-2.2757794343	-0.0123180705	 0.379013
C	-3.9358147252	-1.2977814934	-0.5726678812	-0.144286
O	-3.520631186	-0.7169285479	-1.7944950446	-0.422682
C	-3.2018330291	-3.7092020589	 0.100844672	-0.230898
O	-3.2953581116	-2.8517164018	 1.2422143956	-0.271859
H	 0.9538193121	 1.9362656961	 0.308334125	 0.121
H	-0.6133626085	 2.0335921877	-0.5167420737	 0.125466
H	-0.5515726823	 1.7817298172	 1.2374374212	 0.133889
H	 0.4528685811	-0.2175477057	-0.8779863781	 0.091793
H	 0.5388972754	-0.4604445321	 0.876109631	 0.097327
H	-1.0826618202	-2.0958273164	-1.1406761614	 0.104941
H	-0.8601234765	-2.4006179545	 0.6031553364	 0.107395
H	-4.8786843951	-1.81888673	-0.7624649376	 0.110711
H	-4.1263132458	-0.5358300465	 0.1959229443	 0.110754
H	-2.7829290873	-0.1388554041	-1.5634401014	 0.288537
H	-4.1469599684	-4.0920489524	-0.2819517192	 0.116913
H	-2.3888771177	-4.4351130572	 0.1298521521	 0.110352
55.9334	84.8739	103.4477	122.4295	154.4399	226.3721	253.5316	307.7489	319.8142	358.291	437.8561	481.7859	507.6028	550.2748	776.76	821.3354	830.2914	903.3038	922.4583	925.379	1011.4958	1038.9633	1060.5861	1088.8132	1126.5848	1138.7484	1150.045	1166.4615	1188.7431	1212.8819	1263.254	1298.8147	1302.8487	1358.7005	1384.1875	1399.6469	1416.9795	1438.7404	1458.9041	1484.9691	1492.6444	1495.524	1500.3232	1532.015	1532.8252	2964.3726	2977.7634	2995.8761	3010.6988	3023.5585	3045.7711	3075.7038	3088.0262	3118.9312	3124.5827	3161.6993	3779.7441
CCOCC1(CO)CO1	CCOC[C@@]1(CO)CO1	
InChI=1S/C6H12O3/c1-2-8-4-6(3-7)5-9-6/h7H,2-5H2,1H3	InChI=1S/C6H12O3/c1-2-8-4-6(3-7)5-9-6/h7H,2-5H2,1H3/t6-/m0/s1
