22
gdb 113057	3.06419	0.95534	0.8467	3.4457	84.96	-0.2387	0.0381	0.2768	1505.2905	0.193555	-404.385841	-404.375587	-404.374643	-404.421983	36.369	
C	-0.053057084	 1.6467436941	 0.0298778766	-0.383247
C	 0.060428263	 0.1236741135	-0.0993068144	-0.19365
C	-1.3017362033	-0.5640218699	-0.0384339774	-0.130761
C	-1.3376110177	-2.1199413189	 0.0746319459	-0.209525
N	-1.9995698889	-1.9505977453	 1.3718328623	-0.069957
C	-2.5053579951	-2.891164539	 2.3442791899	-0.156863
C	-1.4085131664	-3.7241599922	 3.0142146495	-0.378562
C	-1.997617672	-0.5781043535	 1.3457139005	 0.409817
O	-2.388152842	 0.2442035288	 2.137723672	-0.387899
H	 0.9353346787	 2.1159600081	 0.0272425439	 0.109106
H	-0.6259509661	 2.0699294074	-0.8027398356	 0.112536
H	-0.5649184862	 1.9176633942	 0.9571647881	 0.152155
H	 0.555877054	-0.1396187422	-1.0425532278	 0.097105
H	 0.6961600766	-0.2705975053	 0.7043885024	 0.100017
H	-1.9645802149	-0.1812152042	-0.821238245	 0.096476
H	-1.9488315683	-2.6378227009	-0.6735952581	 0.105391
H	-0.3526672295	-2.5972938383	 0.1327973264	 0.107707
H	-3.0411570964	-2.2930484745	 3.0880783039	 0.140574
H	-3.2400277255	-3.5538658191	 1.8660212839	 0.106818
H	-1.8470164248	-4.4141279953	 3.741707737	 0.121576
H	-0.8567975155	-4.3200112519	 2.279900016	 0.120071
H	-0.6957038757	-3.0795022657	 3.5364960302	 0.131116
49.1922	68.8819	99.4434	124.7402	174.9523	195.8686	250.5231	280.5249	311.0131	354.5981	409.7282	526.1612	645.1202	721.8782	769.1136	798.962	824.1461	840.4739	931.9841	974.3181	999.5525	1002.6917	1056.1385	1096.4858	1104.8678	1114.4681	1150.84	1178.9884	1204.5571	1237.2836	1265.5474	1287.4318	1335.8704	1340.1725	1380.9686	1389.417	1409.5713	1413.6726	1430.2537	1480.4145	1490.1424	1492.6421	1498.2979	1503.5319	1512.227	1527.4499	1859.3339	3008.8241	3015.2613	3023.6694	3036.0676	3039.0646	3045.3516	3061.932	3073.5924	3085.2859	3101.5308	3110.99	3119.6678	3125.0858
CCC1CN(CC)C1=O	CC[C@H]1CN(CC)C1=O	
InChI=1S/C7H13NO/c1-3-6-5-8(4-2)7(6)9/h6H,3-5H2,1-2H3	InChI=1S/C7H13NO/c1-3-6-5-8(4-2)7(6)9/h6H,3-5H2,1-2H3/t6-/m0/s1
