14
gdb 42544	4.63232	1.21994	1.14397	3.8144	73.86	-0.2492	-0.0204	0.2288	1044.3031	0.100222	-399.460684	-399.453556	-399.452612	-399.492253	27.719	
O	 0.0446251609	 0.0780253201	-0.1907331604	-0.302726
C	-0.0334432437	 1.2544257935	-0.0515848466	 0.443793
C	-1.0957409352	 2.2952355996	 0.0636940165	-0.271563
C	-0.0661726946	 3.1614047401	 0.7535619045	-0.075816
N	 1.0433747706	 2.2644353249	 0.1915992345	-0.227758
C	 0.9401246929	 3.0536998903	-1.1040606508	-0.245969
C	-0.4386369533	 3.5470470288	-0.6407749355	 0.219226
C	-1.2251983511	 4.6290942046	-1.1208680022	 0.086128
C	-1.8651049961	 5.5508094834	-1.5547684887	-0.349168
H	-2.1664639173	 2.2369315781	 0.201170972	 0.131022
H	-0.0664244439	 3.6510256203	 1.7151778893	 0.134959
H	 1.6786481084	 3.8574122234	-1.1184665369	 0.133092
H	 1.0154719289	 2.4452134498	-2.0106411023	 0.130195
H	-2.4323068766	 6.364600963	-1.9345118633	 0.194585
109.9939	143.6212	195.8335	358.2226	462.3433	504.4532	521.951	536.8915	609.771	647.4208	672.2897	720.067	782.118	834.0868	851.9631	899.9657	914.5381	938.2917	971.1783	1008.8203	1054.3023	1085.0644	1110.9927	1157.5628	1188.7206	1227.593	1274.8086	1379.5626	1510.271	1930.5996	2237.0121	3056.0035	3126.1087	3223.0031	3246.8255	3500.1784
O=C1C2C3N1CC23C#C	O=C1[C@H]2[C@H]3N1C[C@@]23C#C	
InChI=1S/C7H5NO/c1-2-7-3-8-5(7)4(7)6(8)9/h1,4-5H,3H2	InChI=1S/C7H5NO/c1-2-7-3-8-5(7)4(7)6(8)9/h1,4-5H,3H2/t4-,5-,7+/m1/s1
