18
gdb 70219	3.43153	1.27589	1.09141	3.784	72.3	-0.2331	0.0258	0.2589	1119.4382	0.14882	-439.114267	-439.106235	-439.105291	-439.146579	31.835	
O	-0.071625002	 1.3786303541	 0.1315257593	-0.469484
C	 0.0222894851	-0.0096173016	-0.0367740277	 0.392138
C	-0.5559255523	-0.5933061714	-1.312126886	-0.371342
C	-1.2836043987	-0.7287027084	 0.0205663671	-0.009449
N	-1.3381293505	-1.9776535688	 0.722258382	-0.309803
C	-0.2680518325	-2.7558722326	 1.0759368505	 0.395964
O	-0.408394523	-3.8366404101	 1.6166809525	-0.375655
C	 1.1025713168	-2.1925168483	 0.7073785882	-0.341956
C	 1.1886593216	-0.6600399338	 0.6812483563	-0.284218
H	 0.6281937596	 1.7872000546	-0.3909264268	 0.282325
H	-0.9646818667	 0.114024321	-2.0251524119	 0.119506
H	-0.1139596602	-1.4841524795	-1.7451535473	 0.118085
H	-2.1678332697	-0.1189221149	 0.1637672699	 0.118505
H	-2.2379096258	-2.4133799452	 0.8615515741	 0.248749
H	 1.8199749105	-2.6155357808	 1.4131056426	 0.13535
H	 1.3596972193	-2.6080399109	-0.2749226425	 0.130661
H	 2.1392029576	-0.3473859714	 0.2305775644	 0.097612
H	 1.1835043607	-0.2709908321	 1.7062809853	 0.123011
84.6049	180.8241	243.8926	290.3539	359.8195	363.1597	383.908	442.9363	492.6331	500.1182	556.3832	626.1206	673.8946	718.8793	761.454	865.9154	894.8364	924.5401	933.2045	992.9687	1015.5172	1035.2587	1061.4266	1097.0506	1134.9521	1187.5746	1221.2237	1240.5318	1281.3817	1327.2456	1340.03	1371.6035	1393.1942	1418.9526	1453.5858	1473.0452	1488.3851	1513.7165	1792.668	3022.0398	3037.4268	3065.7203	3116.5981	3133.0287	3183.5409	3227.1065	3613.5247	3787.8334
OC12CC1NC(=O)CC2	O[C@]12C[C@H]1NC(=O)CC2	
InChI=1S/C6H9NO2/c8-5-1-2-6(9)3-4(6)7-5/h4,9H,1-3H2,(H,7,8)	InChI=1S/C6H9NO2/c8-5-1-2-6(9)3-4(6)7-5/h4,9H,1-3H2,(H,7,8)/t4-,6-/m1/s1
