20
gdb 23290	2.55486	1.38633	1.18567	1.1254	82.63	-0.2382	0.0234	0.2617	1148.3906	0.171972	-403.097216	-403.088954	-403.08801	-403.129804	32.696	
C	-0.1101685335	 1.5274924741	 0.0068382767	-0.414346
C	 0.0584942886	 0.0109288092	 0.046509168	 0.037444
C	 0.9969755724	-0.5693688413	-1.0781675192	-0.234988
C	 2.0522678303	-1.2903329487	-0.2052112475	-0.11467
C	 1.1404457997	-1.9902824741	 0.8612427943	-0.245983
C	 0.8215451176	-0.5183267199	 1.2926057962	-0.108649
C	 2.2612361727	-0.2584508336	 0.8942240633	 0.493741
N	 3.1911220966	 0.4080803066	 1.4279161879	-0.319259
O	 4.4102089446	 0.2314309696	 0.7261737856	-0.402484
H	 0.8583698961	 2.0321779949	 0.0881189343	 0.130043
H	-0.5787177721	 1.8453779111	-0.9306688583	 0.113082
H	-0.7408772631	 1.8784612642	 0.8309175428	 0.112457
H	-0.9282203772	-0.4630091625	 0.0015289043	 0.070808
H	 0.477867734	-1.2641442873	-1.7444894419	 0.098993
H	 1.4399314297	 0.221750106	-1.6897244084	 0.108455
H	 2.8816078689	-1.7930749273	-0.6959560118	 0.087223
H	 0.3050104737	-2.5870556659	 0.4828479732	 0.095822
H	 1.7075616145	-2.5424394722	 1.6120145263	 0.11316
H	 0.4334893006	-0.2631868819	 2.2771077696	 0.076239
H	 5.0137411159	 0.7764205392	 1.2420636747	 0.302909
96.8777	159.6648	222.9497	235.2229	267.156	338.2713	400.0588	420.3687	452.4334	514.3705	651.4116	697.8307	744.7489	799.1076	831.769	838.0052	893.636	924.6224	941.2166	957.9589	1008.573	1017.2833	1038.9511	1043.9701	1075.3517	1118.9559	1137.1232	1166.6237	1183.8608	1221.1093	1228.6616	1253.8499	1258.3078	1314.8542	1322.696	1370.1184	1406.0832	1412.0678	1490.9026	1495.7674	1500.3816	1506.5976	1805.2931	3028.5552	3037.3769	3053.5469	3056.3813	3094.4928	3100.2963	3104.2304	3131.3516	3139.1253	3156.5051	3819.9511
CC1CC2CC1C2=NO	C[C@H]1C[C@@H]2C[C@H]1C2=NO	
InChI=1S/C7H11NO/c1-4-2-5-3-6(4)7(5)8-9/h4-6,9H,2-3H2,1H3	InChI=1S/C7H11NO/c1-4-2-5-3-6(4)7(5)8-9/h4-6,9H,2-3H2,1H3/t4-,5+,6+/m0/s1
