17
gdb 18244	4.50364	1.48107	1.22475	1.8554	69.59	-0.2296	0.019	0.2486	990.6616	0.143671	-363.836595	-363.829339	-363.828394	-363.868148	27.836	
O	 0.1683840152	 1.3600028224	 0.0393049655	-0.407729
C	 0.0177516035	-0.0403731804	 0.1776564467	-0.174274
C	-1.4048383717	-0.5103800985	 0.1326578882	 0.331948
C	-2.509936956	 0.2390472147	 0.0626874875	-0.183232
C	-3.7772523888	-0.5909837105	 0.0086689917	-0.255615
C	-3.2490993759	-2.0219006893	-0.0117753458	-0.03223
N	-2.4223471975	-2.3384872665	-1.1976549857	-0.334717
C	-1.7669739415	-1.9632484277	 0.0901255868	-0.164543
H	-0.2068864761	 1.6021943822	-0.8140410753	 0.284418
H	 0.6037650329	-0.5868743986	-0.5818968104	 0.101431
H	 0.4687769831	-0.2942835584	 1.1466614175	 0.120185
H	-2.5184671461	 1.3220358794	 0.0271328406	 0.093427
H	-4.4171521072	-0.4134786027	 0.8832887953	 0.105349
H	-4.3808244933	-0.3685478755	-0.8796579467	 0.117366
H	-3.8239660153	-2.8198353622	 0.4456455797	 0.087483
H	-2.3873033047	-3.3528090779	-1.2925371377	 0.22576
H	-1.1756731307	-2.7096926307	 0.6115369722	 0.084972
89.1427	185.2005	198.9082	299.371	338.6259	394.2839	412.7839	580.095	655.9256	734.097	808.4941	822.2061	853.8687	867.959	920.3092	935.6711	977.7966	999.6431	1007.8694	1063.0803	1083.5944	1130.6258	1163.3992	1175.0636	1193.225	1212.0482	1245.8815	1262.9178	1324.6412	1364.4944	1394.1542	1412.8005	1425.5686	1468.1713	1490.6283	1705.098	2953.6977	3019.3904	3028.982	3056.1006	3155.7056	3170.3487	3203.8277	3469.0568	3809.5621
OCC1=CCC2NC12	OCC1=CC[C@H]2N[C@@H]12	
InChI=1S/C6H9NO/c8-3-4-1-2-5-6(4)7-5/h1,5-8H,2-3H2	InChI=1S/C6H9NO/c8-3-4-1-2-5-6(4)7-5/h1,5-8H,2-3H2/t5-,6+/m1/s1
