16
gdb 12255	3.13773	1.57262	1.27568	1.5225	61.01	-0.2509	-0.0286	0.2223	970.0381	0.128559	-420.868597	-420.860131	-420.859187	-420.901765	30.243	
O	 0.06466557	 1.2126215351	-0.4957373801	-0.423732
C	 0.0090406863	-0.174660967	-0.199950128	-0.072695
C	-1.4137480674	-0.4953807603	 0.2212473127	-0.064936
C	-2.4380377046	-0.3899349379	-0.9573661538	-0.33679
C	-2.2618270839	-1.9030640607	-1.1133871279	 0.341382
O	-2.2396220719	-2.668844862	-2.0371938589	-0.309629
C	-1.696826814	-2.0410152846	 0.3019211264	 0.043802
O	-0.6534107318	-2.9519644589	 0.4959237965	-0.432513
H	 0.9650197469	 1.428397542	-0.7558632878	 0.289352
H	 0.2856536498	-0.7811995756	-1.078316173	 0.088222
H	 0.7003250627	-0.4487939172	 0.6094490922	 0.10614
H	-1.6755638703	 0.068119141	 1.1177863791	 0.08978
H	-3.4446215012	-0.1169079597	-0.628526369	 0.131076
H	-2.1565651658	 0.2276495189	-1.8115405945	 0.144725
H	-2.5040960106	-2.2195781969	 1.0268568334	 0.106834
H	-0.571444054	-3.4580304862	-0.3228223874	 0.298982
74.9213	116.3305	164.2699	187.6849	239.7575	281.9293	307.1522	397.9566	433.9863	553.1264	597.6642	728.7874	759.3252	833.4738	874.7688	900.455	1027.3146	1041.8423	1069.5138	1085.961	1124.2432	1163.8599	1168.4384	1208.9937	1239.2969	1268.1344	1280.2142	1343.7824	1360.0078	1393.0105	1445.728	1466.9585	1517.2563	1873.1016	2967.4243	3005.6048	3017.8736	3072.0092	3104.3437	3138.373	3766.1984	3829.9398
OCC1CC(=O)C1O	OC[C@H]1CC(=O)[C@H]1O	
InChI=1S/C5H8O3/c6-2-3-1-4(7)5(3)8/h3,5-6,8H,1-2H2	InChI=1S/C5H8O3/c6-2-3-1-4(7)5(3)8/h3,5-6,8H,1-2H2/t3-,5+/m1/s1
