15
gdb 127652	3.45907	1.16031	0.89482	1.1227	70.07	-0.2479	-0.021	0.2269	1226.8176	0.112699	-453.97899	-453.970592	-453.969648	-454.013386	28.827	
C	 0.0916241893	 1.3448349146	 0.1710376482	-0.333311
N	 0.0288507213	-0.0992204907	 0.0793378545	-0.026587
N	 0.1024165941	-0.7168008056	-1.1209707035	-0.266603
C	 0.0180909414	-2.0143743222	-0.8456631805	 0.0171
C	-0.1224945765	-2.2616594511	 0.5358316921	-0.3569
C	-0.1087225863	-0.996934633	 1.0849773107	 0.450435
O	-0.2361597192	-0.5529651074	 2.3700179234	-0.221618
C	 0.5668169665	-1.1286229282	 3.3226970086	 0.159293
O	 0.4592228456	-0.8559175259	 4.473631305	-0.245307
H	 1.0786059101	 1.702516607	-0.1346742575	 0.15111
H	-0.6642811624	 1.7856787255	-0.4822820825	 0.157565
H	-0.1001512993	 1.6379869961	 1.2031636572	 0.161061
H	 0.0511972854	-2.7336029736	-1.6507049299	 0.121467
H	-0.2478323207	-3.1993459427	 1.0505661119	 0.120825
H	 1.2838920207	-1.8399843827	 2.8796310523	 0.111473
52.5508	64.6345	133.3002	154.7516	197.8654	291.2946	376.9484	482.9096	496.5372	666.4939	683.7949	713.1946	774.3639	851.8728	887.1516	945.5188	1033.4867	1044.6523	1066.4506	1100.9269	1154.0969	1197.6535	1242.7534	1304.3368	1369.2161	1404.376	1444.489	1460.0599	1482.3078	1498.8508	1547.8585	1581.6054	1884.0931	3007.7155	3056.9814	3125.4905	3165.2179	3246.4423	3276.8902
CN1N=CC=C1OC=O	Cn1nccc1OC=O	
InChI=1S/C5H6N2O2/c1-7-5(9-4-8)2-3-6-7/h2-4H,1H3	InChI=1S/C5H6N2O2/c1-7-5(9-4-8)2-3-6-7/h2-4H,1H3
