16
gdb 47691	2.45345	1.73895	1.11667	4.3403	70.02	-0.2434	0.0119	0.2553	1056.7799	0.126862	-471.221122	-471.213365	-471.212421	-471.253989	28.989	
N	-0.0114389771	 1.2608316774	 0.534333433	-0.536945
C	 0.0379605417	 0.1465418958	-0.0649980739	 0.417127
N	-1.0746674656	-0.2894418942	-0.7853512175	-0.359864
C	-1.3901940739	-1.5906720877	-1.179063082	 0.446109
N	-2.5722439086	-2.0232855678	-1.0515420354	-0.547606
O	-0.3871619142	-2.3104522655	-1.7512782976	-0.237957
C	 0.7280896766	-1.5831772101	-2.2647090968	-0.124077
C	 1.7100698217	-1.2496081871	-1.1535933819	-0.077762
O	 1.0884256475	-0.716186007	 0.0188603915	-0.244999
H	 0.8783551451	 1.4452748258	 0.9922862904	 0.229615
H	-1.8938490443	 0.2704229645	-0.594481926	 0.283621
H	-2.6639976973	-2.9291921451	-1.5080798761	 0.228221
H	 1.2120735032	-2.2378915364	-2.9943460326	 0.132215
H	 0.3834618442	-0.6824860997	-2.7814722149	 0.138204
H	 2.2148732045	-2.154688648	-0.8075303581	 0.136581
H	 2.4673640766	-0.5468284748	-1.527076622	 0.117517
76.6422	102.5132	130.5863	302.1692	333.9162	404.6461	444.3088	506.6306	620.2176	628.5607	704.149	714.4909	747.728	826.3491	845.1021	860.9874	887.7101	926.7844	932.9446	1069.0054	1099.0592	1145.1182	1160.2592	1172.9358	1278.3876	1296.8236	1323.8156	1390.0325	1413.0038	1431.1565	1442.3026	1494.0039	1505.9549	1748.6293	1759.9328	3020.0355	3058.9202	3099.1337	3118.4497	3515.0673	3528.7745	3618.562
N=C1NC(=N)OCCO1	[NH][C]1N[C]([NH])OCCO1	
InChI=1S/C4H7N3O2/c5-3-7-4(6)9-2-1-8-3/h1-2H2,(H3,5,6,7)	InChI=1S/C4H7N3O2/c5-3-7-4(6)9-2-1-8-3/h1-2H2,(H3,5,6,7)
