19
gdb 38568	2.70246	2.31281	1.78587	1.5043	76.2	-0.2258	0.0772	0.303	848.7697	0.163678	-385.881704	-385.875735	-385.874791	-385.911736	26.187	
C	-0.0561534123	 1.5091192716	 0.1424007788	-0.239292
C	 1.489209403	 1.5470441264	 0.0092495327	-0.034852
C	 2.2662685895	 1.3985376086	 1.3398201185	-0.239482
C	 2.5438121782	-0.0870205875	 1.5315553973	-0.092303
C	 1.4313241522	-1.1072277745	 1.4074134528	 0.098304
O	 0.101743798	-0.7164727425	 1.1876267035	-0.271539
C	-0.0107979941	-0.0198921616	-0.0533779533	 0.104465
C	 1.4475243645	 0.1010592515	-0.6162292877	-0.065357
C	 2.3064031387	-0.8325047839	 0.2206005973	-0.123241
H	-0.499050511	 1.8590083906	 1.0785276138	 0.10126
H	-0.5501685616	 2.0048445871	-0.698735476	 0.094244
H	 1.8918588776	 2.3524994593	-0.6078822004	 0.066292
H	 3.2243812419	 1.9262072767	 1.2803298033	 0.099039
H	 1.7132553354	 1.8351627325	 2.1794470993	 0.104384
H	 3.3753604305	-0.3715113487	 2.1696313922	 0.079971
H	 1.496547548	-2.0214232565	 1.9874110222	 0.096221
H	-0.8015104592	-0.4873854664	-0.6485038157	 0.070077
H	 1.5612162644	 0.0218148586	-1.6961407918	 0.067383
H	 2.9882244062	-1.5502831213	-0.217337687	 0.084426
153.9243	324.4745	406.6082	472.1485	596.7388	629.6503	714.6967	728.009	730.3571	781.0464	805.8365	818.1103	848.1859	891.7382	912.0359	930.2332	957.788	981.489	989.6801	1026.4201	1049.4826	1053.6844	1073.4491	1093.9193	1101.1858	1135.4134	1158.8755	1181.4679	1207.5749	1238.4138	1242.6365	1264.1993	1271.4706	1302.6956	1310.2864	1322.858	1352.5428	1366.6452	1414.5538	1470.0688	1493.2941	3034.247	3046.4637	3058.3015	3068.0187	3085.3763	3109.5509	3128.6067	3151.2071	3170.1393	3190.5623
C1C2CC3C4OC1C2C34	C1[C@H]2C[C@H]3[C@H]4O[C@@H]1[C@@H]2[C@@H]34	
InChI=1S/C8H10O/c1-3-2-5-6(3)7-4(1)8(7)9-5/h3-8H,1-2H2	InChI=1S/C8H10O/c1-3-2-5-6(3)7-4(1)8(7)9-5/h3-8H,1-2H2/t3-,4-,5+,6-,7-,8-/m1/s1
