18
gdb 23135	2.68956	1.23631	0.93262	0.5926	72.12	-0.2516	-0.0018	0.2498	1268.3025	0.146613	-476.177607	-476.168512	-476.167568	-476.211993	32.671	
C	-0.1171643093	 1.3289576013	-0.293895036	-0.241355
O	-0.1126845065	-0.0875406445	-0.2196064792	-0.245783
C	-1.3237071241	-0.6211175126	 0.2467049593	 0.124911
O	-2.3882204528	-0.4349262611	-0.6614413586	-0.258214
C	-2.3044072782	-1.470155608	-1.6512507697	-0.094819
C	-1.8428357434	-2.7266797908	-0.890729099	-0.332646
C	-1.176250301	-2.1272148613	 0.320463362	 0.394294
N	-0.6196766509	-2.6922347936	 1.3104639979	-0.217805
O	-0.6237976089	-4.0864096971	 1.1641637145	-0.389236
H	 0.8705791473	 1.63104996	-0.6477381224	 0.128305
H	-0.8823108187	 1.6947320162	-0.9884391999	 0.124896
H	-0.2961239404	 1.7771810397	 0.6949552492	 0.109023
H	-1.6181739395	-0.1474351928	 1.1918515514	 0.087975
H	-3.2924037693	-1.5668685994	-2.1049946541	 0.1143
H	-1.5823305969	-1.1933639589	-2.4291302926	 0.111797
H	-2.6839665991	-3.3547040964	-0.5781073258	 0.137684
H	-1.1589740294	-3.3614883346	-1.4602133842	 0.137324
H	-0.1890132688	-4.3794266261	 1.972453237	 0.309347
67.1136	104.3538	142.0326	155.8262	205.2175	225.2119	320.5163	369.3363	406.864	469.3738	547.4395	600.5889	673.0652	747.2117	850.4152	888.9283	948.1854	958.0433	990.3073	1000.6926	1053.711	1080.5153	1124.1706	1178.3523	1198.6173	1211.454	1226.8114	1248.7582	1284.0643	1331.8823	1375.4344	1393.7883	1415.7721	1465.5663	1473.5659	1483.2753	1511.8564	1516.4946	1772.3875	2993.5706	3030.3153	3035.0156	3055.5843	3064.9968	3100.1948	3115.883	3128.0302	3814.9584
COC1OCCC1=NO	CO[C@H]1OCCC1=NO	
InChI=1S/C5H9NO3/c1-8-5-4(6-7)2-3-9-5/h5,7H,2-3H2,1H3	InChI=1S/C5H9NO3/c1-8-5-4(6-7)2-3-9-5/h5,7H,2-3H2,1H3/t5-/m0/s1
