21
gdb 106126	2.69334	1.54308	1.37671	0.537	86.12	-0.2158	0.0213	0.2371	1075.2489	0.184123	-349.935087	-349.927223	-349.926279	-349.96735	31.798	
C	 0.0756420767	 1.5240025593	 0.2095794408	-0.370585
C	-0.057681448	 0.0165241402	-0.0463182501	-0.322588
C	 0.6695400414	-0.4430197957	-1.2759804055	 0.381636
C	 1.1308275198	-1.8084900965	-1.7309681741	-0.144035
C	 0.4670660651	-1.6276937894	-3.0869818131	-0.222933
C	 0.3587073544	-0.0797879354	-2.7786086298	-0.154227
C	 1.6210431543	 0.5665868555	-3.2983967281	-0.093832
C	 2.6546411265	 0.160018744	-2.5517124072	-0.079009
C	 2.1524781863	-0.6737522392	-1.4247285036	-0.126708
H	 1.1242152648	 1.8076101804	 0.3434064807	 0.121047
H	-0.3176742889	 2.1026761181	-0.6326096434	 0.119187
H	-0.4753173273	 1.8220539025	 1.1070279995	 0.108219
H	 0.3264813557	-0.5418412466	 0.8173979371	 0.096957
H	-1.1209535693	-0.2485768024	-0.128527073	 0.095762
H	 1.1860089634	-2.7316977962	-1.1646106902	 0.080591
H	 1.0095648956	-1.9152038867	-3.9940162195	 0.088401
H	-0.5232069426	-2.0909272848	-3.0866639691	 0.099962
H	-0.5876928634	 0.3995504955	-3.0285173983	 0.063494
H	 1.6740354255	 1.1250744466	-4.2251773734	 0.09066
H	 3.7038018486	 0.3556771358	-2.7366420162	 0.09166
H	 2.7499191312	-0.838839745	-0.5342956333	 0.07634
86.4677	125.9547	195.2801	296.401	332.931	369.6235	433.186	549.9209	567.4532	705.8573	726.8089	759.1001	768.925	806.8754	832.2006	879.5977	890.9409	908.1958	928.2982	955.3785	977.0381	995.0781	1006.9608	1033.0664	1057.0258	1072.386	1099.4609	1117.0466	1136.5728	1166.3346	1191.8373	1207.6926	1261.8242	1279.4358	1303.0079	1313.9081	1352.6967	1365.9811	1408.6018	1448.1959	1477.324	1490.3518	1496.4988	1505.4865	1641.3417	3007.2977	3035.6093	3038.0773	3041.6116	3097.3613	3104.4814	3108.0494	3111.5628	3164.7392	3174.6555	3193.7041	3218.7845
CCC12C3CC1C=CC23	CC[C@@]12[C@H]3C[C@@H]1C=C[C@@H]23	
InChI=1S/C9H12/c1-2-9-6-3-4-7(9)8(9)5-6/h3-4,6-8H,2,5H2,1H3	InChI=1S/C9H12/c1-2-9-6-3-4-7(9)8(9)5-6/h3-4,6-8H,2,5H2,1H3/t6-,7+,8-,9+/m0/s1
