21
gdb 110420	4.49518	1.0846	0.99742	0.8956	83.44	-0.2347	0.0923	0.327	1282.7379	0.182058	-387.031597	-387.023011	-387.022067	-387.064528	33.271	
C	 0.1974884787	 1.3070021069	-0.0563721195	-0.238842
O	-0.1893112961	-0.0106360922	 0.2591102495	-0.256129
C	 0.6252472655	-0.6128539727	 1.2379136441	 0.163927
C	 0.1798307338	-2.0478585024	 1.4599912449	-0.142701
C	 1.1629121386	-2.5685858891	 0.4333577157	-0.112482
C	 1.9525576243	-1.2214295048	 0.688369849	-0.112629
C	 2.5889049797	-1.8788187244	 1.9395508566	-0.289275
C	 1.4133781995	-2.8611384014	 1.8942064262	 0.338497
C	 1.2874638637	-4.1601047329	 2.6329713483	-0.50453
H	 1.205925359	 1.3550340075	-0.4942148958	 0.103532
H	-0.5187648303	 1.6883062268	-0.7883208056	 0.125288
H	 0.1791305766	 1.9597726794	 0.8308616438	 0.102524
H	 0.7187306015	 0.0558917062	 2.1106808265	 0.049246
H	-0.8248058412	-2.3965407642	 1.6635727818	 0.084409
H	 1.0321588391	-3.2098419624	-0.4258208662	 0.087016
H	 2.5537435739	-0.6765617647	-0.0364602611	 0.069885
H	 3.5315718789	-2.384404937	 1.7066143591	 0.09412
H	 2.7231496329	-1.2500727466	 2.8293546948	 0.083154
H	 1.1705785936	-3.9986366872	 3.7112676458	 0.118972
H	 0.4178066311	-4.7299949219	 2.2883078273	 0.119231
H	 2.175024167	-4.7858854429	 2.4843910246	 0.116787
100.4227	147.3383	176.0298	210.2642	239.9514	297.7651	309.7622	403.545	447.2681	498.1339	613.0733	749.4709	802.5172	825.2953	849.9466	887.06	899.0757	924.6745	941.5293	983.7866	990.0616	1025.2391	1044.1431	1052.4743	1095.2277	1133.5143	1149.5806	1154.0341	1166.0258	1184.2095	1196.0045	1222.7266	1236.2757	1262.8823	1294.0862	1304.9508	1384.9372	1408.2947	1430.1234	1481.2371	1486.8717	1489.1294	1497.4939	1503.7006	1510.5297	2950.84	2974.8751	3015.999	3020.0397	3021.0609	3078.3718	3079.9242	3091.8945	3112.4886	3138.4047	3195.0847	3224.7266
COC1C2C3C1CC23C	CO[C@H]1[C@H]2[C@H]3[C@@H]1C[C@@]23C	
InChI=1S/C8H12O/c1-8-3-4-5(8)6(8)7(4)9-2/h4-7H,3H2,1-2H3	InChI=1S/C8H12O/c1-8-3-4-5(8)6(8)7(4)9-2/h4-7H,3H2,1-2H3/t4-,5+,6+,7+,8+/m0/s1
