23
gdb 120761	3.12482	0.8306	0.72449	0.9977	88.22	-0.2399	0.0884	0.3284	1685.5541	0.204437	-388.25532	-388.245337	-388.244393	-388.291249	36.774	
C	-0.046529107	 1.4832052287	 0.1137221229	-0.38511
C	-0.186468291	 0.0021814368	 0.4201919951	-0.02956
O	-1.0988800724	-0.5628312176	-0.5081416342	-0.246981
C	-1.3042036813	-1.92652753	-0.322697585	 0.119038
C	-2.2975930988	-2.3854471105	 0.720177155	-0.338437
C	-2.6278079054	-2.4812403551	-0.7605706599	-0.053006
C	-3.6665273815	-1.5932076353	-1.368641139	 0.03649
C	-4.076426597	-1.782053395	-2.8081482055	-0.26891
C	-5.0341633145	-2.1396585306	-1.6974427818	-0.274866
H	 0.6557998049	 1.9516168827	 0.8097375208	 0.114006
H	 0.3219856655	 1.6319636877	-0.90522963	 0.12716
H	-1.0131331545	 1.9871968584	 0.2043183347	 0.124542
H	 0.7898524882	-0.5038841696	 0.3414650298	 0.085854
H	-0.5488957853	-0.1539606481	 1.4481889402	 0.090294
H	-0.4117474442	-2.5358557597	-0.4784527489	 0.078725
H	-2.100432613	-3.2924081495	 1.281621481	 0.106471
H	-2.8046290787	-1.6051013488	 1.2786027322	 0.115341
H	-2.5926309584	-3.4802985443	-1.1892784247	 0.07911
H	-3.6265817247	-0.5674831056	-1.0188144326	 0.089103
H	-4.280665459	-0.9006517461	-3.4059118818	 0.109766
H	-3.6184522691	-2.5950574288	-3.3624221981	 0.106879
H	-5.218022061	-3.1922173742	-1.5067965857	 0.106777
H	-5.8976599818	-1.5040889655	-1.5336020142	 0.107312
52.2773	74.899	82.7672	119.186	187.8986	247.024	257.868	301.2569	351.9872	420.4732	500.8624	591.1344	733.8677	791.1642	816.8386	821.5172	828.5181	842.7987	902.8036	931.3356	946.0383	1002.4954	1014.3674	1037.5343	1051.5887	1062.0432	1076.0838	1087.6637	1129.6882	1140.7289	1150.8053	1184.0857	1189.6768	1198.8978	1223.2218	1228.5791	1254.0175	1293.5536	1312.9651	1373.7813	1404.6769	1437.2902	1445.7472	1470.5201	1483.851	1487.827	1500.0359	1510.0611	1528.6223	2967.5449	2998.8939	3044.3407	3076.9862	3118.4949	3120.7062	3126.5826	3126.8247	3129.5679	3133.0314	3170.6316	3204.0932	3216.6944	3220.2843
CCOC1CC1C1CC1	CCO[C@H]1C[C@H]1C1CC1	
InChI=1S/C8H14O/c1-2-9-8-5-7(8)6-3-4-6/h6-8H,2-5H2,1H3	InChI=1S/C8H14O/c1-2-9-8-5-7(8)6-3-4-6/h6-8H,2-5H2,1H3/t7-,8-/m0/s1
