23
gdb 114994	3.13697	0.98563	0.79459	1.7641	87.43	-0.2412	0.0167	0.2579	1502.6379	0.206548	-388.313172	-388.30371	-388.302766	-388.347327	36.457	
C	-0.1277179688	 1.5266877706	-0.0830678835	-0.391774
C	 0.0139094947	 0.0030286686	-0.0018216005	-0.181886
C	 0.7423112215	-0.5075287399	 1.2512614293	 0.023548
C	 0.0213250921	-0.1276902724	 2.5585776575	-0.247938
C	 0.5522445335	-0.8733221216	 3.7558507035	-0.067548
C	 1.3664774257	-1.9245648097	 3.6711863164	-0.08909
C	 1.8140210806	-2.52791741	 2.3636025437	 0.083953
O	 1.8443112682	-3.9536552771	 2.4353885808	-0.437515
C	 0.9482825717	-2.0293884629	 1.2006225796	-0.226399
H	 0.850358881	 2.0180059383	-0.0266277793	 0.113921
H	-0.5946212721	 1.8259572168	-1.0265846442	 0.112772
H	-0.7456268475	 1.9247178984	 0.7278115924	 0.118324
H	-0.9810170341	-0.4614445239	-0.0502112415	 0.09172
H	 0.5566045986	-0.3532418581	-0.8866833588	 0.093204
H	 1.7376662405	-0.0376686492	 1.2758271637	 0.072824
H	 0.1018802015	 0.9507345026	 2.7418357711	 0.106316
H	-1.0585055734	-0.3233950439	 2.4569794721	 0.103226
H	 0.2474945241	-0.5063848009	 4.7339280995	 0.086792
H	 1.741664885	-2.4156058602	 4.5660800824	 0.089802
H	 2.8621981555	-2.2561763047	 2.1759102515	 0.09416
H	 0.9557411671	-4.2447029392	 2.6698133288	 0.272864
H	-0.0307196728	-2.528245795	 1.2589567528	 0.081471
H	 1.4014074672	-2.3336081266	 0.2510845226	 0.097252
79.6987	113.3081	140.0934	197.2185	249.3827	282.9168	320.9668	340.7615	392.8434	428.2276	451.6069	496.2922	571.7883	688.0192	744.7656	776.4649	852.2822	898.9174	915.7672	932.2801	959.3045	1010.7695	1015.51	1048.8731	1058.4005	1076.2082	1107.7044	1123.4222	1152.4139	1167.2337	1215.7515	1246.7447	1265.5688	1294.7163	1306.2249	1333.7415	1355.6255	1372.7843	1381.2637	1396.2434	1402.5808	1411.6589	1427.5318	1473.2398	1482.6288	1493.1813	1501.1076	1507.8738	1719.7399	2977.9953	2988.0178	2999.9547	3009.5078	3015.3199	3031.6504	3040.5868	3046.3358	3071.556	3098.0159	3105.079	3138.8553	3165.0121	3794.5414
CCC1CC=CC(O)C1	CC[C@H]1CC=C[C@@H](O)C1	
InChI=1S/C8H14O/c1-2-7-4-3-5-8(9)6-7/h3,5,7-9H,2,4,6H2,1H3	InChI=1S/C8H14O/c1-2-7-4-3-5-8(9)6-7/h3,5,7-9H,2,4,6H2,1H3/t7-,8+/m0/s1
