18
gdb 72751	2.58865	1.73993	1.52125	1.3871	71.33	-0.2235	0.0625	0.2861	950.9742	0.148305	-439.013597	-439.006056	-439.005111	-439.045331	30.159	
O	 0.1078228825	 1.4144551661	 0.1615678913	-0.476445
C	-0.0121305936	 0.0367664593	 0.011694136	 0.36572
C	 0.3354404122	-0.7231470756	 1.3214228046	-0.215293
N	-1.0751941963	-1.2014908241	 1.4260399001	-0.400961
C	-1.3553658959	-0.7783328901	 0.0773833235	 0.26535
C	-2.6244432834	-0.3435138775	-0.6278522444	-0.172247
O	-2.037824195	-0.7274374761	-1.9039740754	-0.297847
C	-0.9392920766	-1.4358437731	-1.2763533021	 0.059523
C	 0.3869928758	-0.6428864002	-1.328186735	-0.332185
H	-0.1546353025	 1.83382844	-0.6649583887	 0.28537
H	 1.0909072718	-1.5085400202	 1.1976427878	 0.096612
H	 0.6268969267	-0.064735939	 2.1446969124	 0.120025
H	-1.206101939	-2.1861959841	 1.6344006164	 0.218362
H	-3.5158200561	-0.9444844046	-0.3987409815	 0.102211
H	-2.8872545256	 0.720643409	-0.5884826643	 0.105126
H	-0.9459645951	-2.5069181501	-1.5009390602	 0.068943
H	 0.4236184412	 0.0407394589	-2.1824136872	 0.106062
H	 1.3089446888	-1.2320041384	-1.3039257735	 0.101676
100.1119	203.1614	235.8124	314.3122	342.3475	389.9812	402.4713	496.9063	522.1371	622.5036	662.4995	731.0782	790.8179	863.0572	887.2577	911.1756	934.0539	977.383	981.4053	989.0261	1043.8666	1079.5269	1089.8672	1115.774	1125.4463	1153.2751	1167.026	1224.8	1250.2017	1263.2714	1278.8227	1307.6251	1321.0464	1357.8132	1383.0198	1401.4361	1459.5213	1506.2517	1517.4912	2999.9029	3023.3764	3042.544	3053.6868	3060.9474	3087.7094	3101.2868	3516.8859	3808.3704
OC12CNC11COC1C2	O[C@@]12CN[C@]31CO[C@H]3C2	
InChI=1S/C6H9NO2/c8-5-1-4-6(5,3-9-4)7-2-5/h4,7-8H,1-3H2	InChI=1S/C6H9NO2/c8-5-1-4-6(5,3-9-4)7-2-5/h4,7-8H,1-3H2/t4-,5-,6+/m0/s1
