19
gdb 41067	3.89508	1.81637	1.61578	0.0967	81.78	-0.2369	0.091	0.3279	887.58	0.161911	-348.643565	-348.63757	-348.636625	-348.673396	26.891	
C	-0.0298259751	 1.4515902809	-0.2849626526	-0.256211
C	 1.4563524429	 1.5926037666	 0.2103354711	-0.357117
C	 1.2371316589	 0.2525712295	 0.9100838866	 0.395809
C	 1.864460695	-1.0192177063	 1.4938364823	-0.208361
C	 0.5430557929	-1.8162225244	 1.6817367241	-0.072265
C	 1.0953267555	-0.9532679946	 2.7912039705	-0.104826
C	 0.2632692133	 0.2009948325	 2.1676656011	-0.102421
C	-0.546496404	-0.7712934701	 1.2409568202	-0.090854
C	 0.0395967172	-0.0961223566	-0.0079164367	-0.034986
H	-0.7417151863	 1.9855656956	 0.3485927905	 0.106046
H	-0.2160926126	 1.7292443496	-1.3236452496	 0.099513
H	 2.1582828649	 1.5235089478	-0.6276372644	 0.102101
H	 1.7216586643	 2.4587852264	 0.8238772568	 0.0951
H	 2.7974631295	-1.5210742021	 1.2709011593	 0.080949
H	 0.5120968883	-2.8961625137	 1.6119976999	 0.082871
H	 1.3801967372	-1.1917486247	 3.8077340315	 0.082994
H	-0.1232665018	 1.0841290204	 2.669763354	 0.065345
H	-1.5911541042	-1.0506542538	 1.3897404557	 0.05647
H	 0.189487464	-0.6955775631	-0.9104401803	 0.059844
241.9762	273.2126	358.6857	526.1643	543.5202	667.4063	694.5259	757.6944	770.433	791.5229	796.4318	842.0885	850.2948	862.8809	876.5834	881.1225	904.1198	914.0585	978.7512	1007.7871	1010.209	1034.6641	1042.9836	1060.3789	1072.4438	1092.8565	1129.702	1169.1528	1172.7383	1181.9951	1190.9708	1211.6489	1241.1828	1246.3578	1251.7785	1260.5871	1304.4675	1327.3931	1359.4045	1474.3004	1490.5523	3039.5441	3063.7716	3070.3708	3089.9546	3092.2522	3126.8451	3145.4766	3186.0626	3188.0557	3203.3108
C1CC23C4C5C4C2C5C13	C1C[C@@]23[C@@H]4[C@H]5[C@@H]4[C@@H]2[C@H]5[C@@H]13	
InChI=1S/C9H10/c1-2-9-3(1)4-5-6(7(4)9)8(5)9/h3-8H,1-2H2	InChI=1S/C9H10/c1-2-9-3(1)4-5-6(7(4)9)8(5)9/h3-8H,1-2H2/t3-,4+,5-,6-,7+,8-,9+/m1/s1
