19
gdb 84821	2.83777	1.17205	0.92675	3.986	78.26	-0.2521	0.0093	0.2614	1282.5771	0.158692	-423.064148	-423.055303	-423.054358	-423.098684	32.298	
C	 0.0211722507	 1.5245910597	 0.1506824436	-0.404664
C	 0.1400061737	 0.0003311162	 0.0523528547	-0.035855
C	 0.8247449781	-0.5129598848	-1.1974504348	-0.056157
C	 1.6492255066	-1.5264575984	-0.945340109	-0.070432
C	 1.671658729	-1.8783998195	 0.5227296604	-0.270929
C	 0.9642087999	-0.6758079119	 1.186192431	 0.085562
O	 1.9756709683	 0.2302341738	 1.6666165114	-0.183816
C	 1.9654242568	 0.5795710489	 2.9642479706	 0.167939
O	 2.7685481717	 1.3226836307	 3.4433775271	-0.279082
H	 1.0025788505	 2.0016513989	 0.1080147936	 0.143915
H	-0.5851103052	 1.9072900273	-0.6761869129	 0.11565
H	-0.4641696858	 1.8286736996	 1.0840411445	 0.113504
H	-0.8769819619	-0.4197727803	 0.0946457522	 0.087467
H	 0.6193646574	-0.0946824446	-2.1766484468	 0.096158
H	 2.2244147911	-2.0721590917	-1.6841003734	 0.098904
H	 1.125411114	-2.8113582925	 0.7179437249	 0.112073
H	 2.6786796911	-2.0071826233	 0.9321435789	 0.124356
H	 0.3339658158	-0.9691726242	 2.0328466949	 0.080749
H	 1.140147878	 0.1032415761	 3.5303826091	 0.074657
41.7737	70.8564	149.5207	215.3232	238.0684	270.7675	321.2242	378.5332	423.3857	522.8624	608.8839	712.0337	762.5293	776.9124	859.8911	909.7666	938.3056	955.9818	973.8761	998.3903	1020.4468	1044.3549	1073.4501	1113.713	1127.7184	1149.3691	1186.0947	1221.4591	1245.6442	1307.0323	1329.5103	1334.7053	1381.2222	1381.5598	1412.8759	1443.2603	1472.1157	1496.4275	1501.8488	1687.2502	1862.9015	2937.537	2979.6848	3016.7312	3040.2919	3049.2513	3077.6767	3102.5523	3131.9396	3187.2526	3213.0939
CC1C=CCC1OC=O	C[C@H]1C=CC[C@H]1OC=O	
InChI=1S/C7H10O2/c1-6-3-2-4-7(6)9-5-8/h2-3,5-7H,4H2,1H3	InChI=1S/C7H10O2/c1-6-3-2-4-7(6)9-5-8/h2-3,5-7H,4H2,1H3/t6-,7+/m0/s1
