13
gdb 49749	3.60993	1.32647	0.97003	3.5913	70.51	-0.2566	-0.1059	0.1507	1108.4837	0.090052	-452.797078	-452.789628	-452.788684	-452.829316	27.088	
N	-0.0319721821	 1.3352799399	 0.0064590895	-0.458046
C	-0.0043191652	 0.0679356752	 0.0018831402	 0.097502
N	-1.1841151271	-0.6687620035	 0.0088538848	-0.12255
C	-2.4805204317	-0.133859128	 0.0207212844	 0.024082
C	-3.4420424591	-1.0782141307	 0.025514941	-0.292159
C	-2.7923232892	-2.3908568508	 0.0163193902	 0.305084
O	-3.2441930296	-3.5070130294	 0.0167335526	-0.286859
C	-1.2540460004	-2.0736726756	 0.0051089084	 0.326134
O	-0.3229764298	-2.8287582034	-0.0041557194	-0.310984
H	 0.9120146624	 1.7153923021	 0.0007396514	 0.24382
H	 0.8704514202	-0.5861752717	-0.0067227334	 0.143685
H	-2.5649156975	 0.9435689032	 0.0246878154	 0.186251
H	-4.5066946511	-0.9071351173	 0.034547845	 0.144042
89.7061	164.498	203.3798	248.3921	314.3205	337.8307	412.6036	546.1195	567.075	669.7168	735.5807	751.3787	806.8446	824.8325	850.538	969.4888	986.3252	1053.3462	1075.4145	1131.6845	1153.9722	1286.5292	1325.4499	1402.3573	1425.1801	1624.6328	1722.1238	1828.4387	1863.0511	3115.7421	3251.0144	3271.238	3519.4631
N=CN1C=CC(=O)C1=O	[NH][CH]N1C=CC(=O)C1=O	
InChI=1S/C5H4N2O2/c6-3-7-2-1-4(8)5(7)9/h1-3,6H	InChI=1S/C5H4N2O2/c6-3-7-2-1-4(8)5(7)9/h1-3,6H
