20
gdb 102846	3.16383	0.83781	0.73334	2.3813	79.82	-0.2639	-0.0373	0.2266	1541.3418	0.168586	-403.179779	-403.169344	-403.1684	-403.216669	36.12	
C	 0.5182696252	-0.8725279064	 1.3635095569	-0.392057
C	-0.0486199735	-0.1917137506	 0.1116198725	-0.199123
C	 0.7444428334	-0.4136483272	-1.1947192283	-0.002216
C	 2.2242510401	 0.0174730923	-1.0875749335	-0.291911
C	 2.3611837786	 1.4713235189	-0.693037933	 0.156746
O	 2.9107935081	 1.8625229667	 0.3039148323	-0.23635
C	 0.6844126254	-1.8798839564	-1.6924467593	-0.349007
C	-0.6785222386	-2.3360733737	-1.9568603737	 0.265702
N	-1.7625759224	-2.6785357225	-2.1647764524	-0.308653
H	 0.6099761962	-1.9569299834	 1.2409784847	 0.117062
H	 1.5011858453	-0.4744219906	 1.6316911116	 0.138569
H	-0.1466126094	-0.7016375053	 2.2148734621	 0.127457
H	-1.0786254323	-0.5258731288	-0.0556235603	 0.127937
H	-0.1089160548	 0.8879298005	 0.2940147611	 0.112157
H	 0.2709554453	 0.2033245064	-1.9694113002	 0.100615
H	 2.7729855946	-0.5917619417	-0.3639348445	 0.128051
H	 2.7028872752	-0.1060234172	-2.0693882843	 0.118714
H	 1.8967093795	 2.1887969049	-1.4098858383	 0.079572
H	 1.2658819747	-1.9848595694	-2.6153884068	 0.15041
H	 1.1408009295	-2.5531911765	-0.9582634765	 0.156325
45.3933	52.5703	70.1456	130.3837	141.0292	216.6959	243.6967	279.4117	320.3827	384.0986	396.4487	485.1552	541.6766	572.8323	760.7183	781.6604	833.6094	922.933	939.0072	974.3303	992.6128	1000.5226	1046.5053	1111.8841	1136.322	1155.5743	1203.0481	1231.1966	1270.7994	1307.8026	1330.8406	1362.7934	1383.0396	1389.5408	1420.8194	1428.1302	1461.3622	1474.1102	1488.985	1502.9967	1513.1011	1833.8554	2360.6356	2857.0231	3016.8414	3020.5709	3037.7622	3041.0939	3047.2241	3070.6326	3084.7462	3100.9644	3107.1313	3118.0494
CCC(CC=O)CC#N	CC[C@@H](CC=O)CC#N	
InChI=1S/C7H11NO/c1-2-7(3-5-8)4-6-9/h6-7H,2-4H2,1H3	InChI=1S/C7H11NO/c1-2-7(3-5-8)4-6-9/h6-7H,2-4H2,1H3/t7-/m1/s1
