20
gdb 90925	3.32832	1.47592	1.40097	1.8448	79.57	-0.2185	0.076	0.2946	1014.584	0.173049	-403.051554	-403.044428	-403.043483	-403.082613	30.392	
O	 0.3490306396	 1.2967307568	-0.2882764789	-0.430652
C	 0.1390408433	-0.0587606146	-0.0260659816	 0.068157
C	 0.2354669851	-0.4286308038	 1.5298655173	-0.248134
N	-1.2296477869	-0.1263830647	 1.5536152077	-0.106265
C	-2.5840883708	-0.761053273	 1.7208954028	-0.01884
C	-2.8568707245	-0.1233962953	 0.2827252264	-0.301474
C	-1.3482245197	-0.5303016376	 0.160898186	 0.252698
C	-1.495097163	-2.0991380932	 0.1478285138	-0.250219
C	-2.4034018716	-2.2573123641	 1.3980832329	-0.21481
H	-0.2299894208	 1.7780355945	 0.317101059	 0.28538
H	 0.763266316	-0.6240859583	-0.7212413772	 0.086239
H	 0.5417015734	-1.4650902211	 1.7168732982	 0.101629
H	 0.833969224	 0.2500470628	 2.143270445	 0.105706
H	-3.1735471454	-0.480524141	 2.5949357524	 0.073275
H	-3.6014840364	-0.6103283188	-0.3530080534	 0.092116
H	-3.0107585637	 0.9531829851	 0.3419406681	 0.107403
H	-1.9722262259	-2.4352511428	-0.7761527994	 0.097762
H	-0.5449656327	-2.6294246092	 0.2366349529	 0.096417
H	-1.9156258305	-2.791828968	 2.2180759764	 0.100674
H	-3.3533733193	-2.7567893635	 1.1893792316	 0.102936
156.8688	196.8618	315.7928	361.0828	421.6214	449.2376	479.6999	511.3823	600.9455	648.0434	699.6129	764.0156	792.078	834.3088	855.0403	880.2716	897.8552	949.3079	953.7109	962.6009	990.1036	1021.3427	1072.2377	1094.337	1108.4959	1120.6353	1134.5169	1149.159	1164.5976	1186.9299	1208.4695	1228.485	1243.1621	1257.9276	1261.0129	1292.5612	1299.7265	1317.4809	1438.4598	1474.8201	1486.4478	1496.4958	1523.4996	3023.9473	3056.174	3065.5049	3071.4414	3094.5044	3095.722	3099.3435	3109.9105	3116.6826	3155.7114	3769.666
OC1CN2C3CC12CC3	O[C@H]1CN2[C@H]3C[C@@]12CC3	
InChI=1S/C7H11NO/c9-6-4-8-5-1-2-7(6,8)3-5/h5-6,9H,1-4H2	InChI=1S/C7H11NO/c9-6-4-8-5-1-2-7(6,8)3-5/h5-6,9H,1-4H2/t5-,6+,7+/m1/s1
