21
gdb 59599	2.89624	1.12378	0.93594	2.0187	78.33	-0.2433	-0.0237	0.2196	1328.1429	0.181032	-424.258147	-424.248655	-424.247711	-424.292934	35.224	
C	 0.9645085778	-0.5709253157	-0.8449695352	-0.396234
C	-0.1806672483	-0.0720168424	 0.0482298965	 0.017595
C	-0.1707577639	 1.459534533	 0.1359586079	-0.388742
C	-1.5419552163	-0.5809852048	-0.4665351021	 0.11106
C	-1.75478434	-2.0939779583	-0.3073941631	-0.359392
C	-2.506311849	-2.2085521742	 1.0183639927	 0.372382
O	-2.6848910533	-3.1981448357	 1.6761234269	-0.299027
C	-2.9855838358	-0.7958985577	 1.3562421107	-0.186105
O	-2.6448056433	 0.0137424257	 0.2511438728	-0.266611
H	 1.9266882869	-0.2003674634	-0.4785756907	 0.119929
H	 1.025867007	-1.6625284015	-0.8832471668	 0.11533
H	 0.8412802365	-0.2076541412	-1.8724242594	 0.116998
H	-0.0286458179	-0.4773960831	 1.0600926962	 0.071687
H	-0.9892172256	 1.8249083394	 0.7589340411	 0.129831
H	 0.7755053694	 1.8177588077	 0.5532823268	 0.108941
H	-0.2850329736	 1.9054742503	-0.8595782286	 0.112066
H	-1.66501633	-0.2557193618	-1.5053495035	 0.084473
H	-2.4035085175	-2.4894219849	-1.0974207884	 0.139038
H	-0.8472588621	-2.6988772104	-0.2897078962	 0.137177
H	-4.0695445538	-0.7709600378	 1.5099484804	 0.13702
H	-2.5043315171	-0.4658156033	 2.2908573821	 0.122584
57.0197	70.1443	129.7662	199.4277	223.9549	244.877	323.7808	352.058	414.7757	435.9321	466.9659	488.9918	625.9747	729.7267	749.7685	814.9424	857.7199	897.4205	930.5545	945.1238	968.5519	1000.4838	1023.7491	1085.1673	1122.1712	1136.2197	1168.906	1190.717	1209.268	1228.3063	1258.2856	1311.2452	1320.023	1341.5563	1359.6762	1399.2067	1400.3505	1423.6849	1446.7494	1483.1621	1487.8484	1489.4173	1503.236	1512.2544	1859.6473	2980.9202	2991.889	3028.6074	3033.2049	3045.6143	3058.6882	3073.3863	3092.7364	3098.3416	3107.6126	3130.815	3133.2152
CC(C)C1CC(=O)CO1	CC(C)[C@H]1CC(=O)CO1	
InChI=1S/C7H12O2/c1-5(2)7-3-6(8)4-9-7/h5,7H,3-4H2,1-2H3	InChI=1S/C7H12O2/c1-5(2)7-3-6(8)4-9-7/h5,7H,3-4H2,1-2H3/t7-/m1/s1
