23
gdb 112960	2.76115	0.97017	0.92041	2.547	81.79	-0.2457	0.0673	0.313	1441.5808	0.20455	-425.415704	-425.405491	-425.404547	-425.451362	37.783	
C	-0.1608948235	 1.4914190007	 0.3135848569	-0.388505
C	-0.0390791703	-0.0347865847	 0.1775934705	 0.008631
C	 0.6464999812	-0.6368129808	 1.4105005664	-0.395417
C	-1.4159881786	-0.6317648299	-0.1114678466	 0.180967
C	-1.6361690083	-2.1586131893	-0.2054334357	-0.358667
C	-2.7359703498	-1.9249270801	 0.8476992613	 0.148205
C	-2.6602527903	-2.6533574056	 2.1765370088	-0.072017
O	-3.473412117	-2.0127330646	 3.1402338886	-0.422354
O	-2.3378575382	-0.5373022643	 1.0113406248	-0.333572
H	 0.8161785215	 1.949346266	 0.4956244399	 0.110304
H	-0.5814587876	 1.9412783929	-0.5919032484	 0.110192
H	-0.8170504412	 1.7486633132	 1.1514694407	 0.131579
H	 0.5745927264	-0.2554289333	-0.7086857494	 0.074983
H	 0.8125512852	-1.7137096346	 1.3113215129	 0.110127
H	 1.6235493173	-0.1699571289	 1.5688044307	 0.112251
H	 0.0425365184	-0.4675659638	 2.3067219974	 0.127107
H	-1.8458063943	-0.1083736758	-0.9785669906	 0.070737
H	-1.9592971122	-2.5384136334	-1.1751388691	 0.109655
H	-0.8019214532	-2.7624651396	 0.158484332	 0.109994
H	-3.7596893485	-1.9787879372	 0.453267491	 0.081417
H	-3.0319620005	-3.6788504518	 2.0679351866	 0.105979
H	-1.6099201506	-2.7071390821	 2.5059237545	 0.084517
H	-3.2191293061	-1.081881143	 3.1221645567	 0.293888
54.1226	60.4435	114.4744	197.2906	208.329	228.7025	258.5953	278.3891	349.0656	401.4357	433.3219	448.8196	499.3803	577.594	673.0983	793.2483	873.7782	900.2291	918.0503	924.9825	958.6448	967.1297	1015.423	1036.2292	1060.2442	1078.4892	1108.2996	1135.95	1154.6405	1175.3248	1207.8684	1221.7597	1251.8261	1285.3912	1308.4247	1327.6626	1348.0014	1369.5249	1384.2384	1394.699	1404.2748	1427.4031	1438.05	1483.9251	1488.6819	1497.4985	1499.3603	1507.7608	1514.4404	2974.0221	2984.4265	3000.0473	3015.9379	3032.543	3041.461	3066.2561	3076.9627	3101.0978	3104.2588	3108.8055	3116.9323	3134.0609	3785.9535
CC(C)C1CC(CO)O1	CC(C)[C@H]1C[C@@H](CO)O1	
InChI=1S/C7H14O2/c1-5(2)7-3-6(4-8)9-7/h5-8H,3-4H2,1-2H3	InChI=1S/C7H14O2/c1-5(2)7-3-6(4-8)9-7/h5-8H,3-4H2,1-2H3/t6-,7+/m0/s1
