20
gdb 113362	2.6409	1.08446	0.92972	2.857	77.63	-0.2436	-0.0347	0.2089	1353.3922	0.168632	-440.262434	-440.252505	-440.251561	-440.297648	35.923	
C	 0.2061059815	 1.4730274471	-0.0752694774	-0.380811
C	 0.3006667866	-0.0476881461	-0.1653261235	-0.115841
N	 0.7015918627	-0.5969976777	 1.132079661	-0.112009
C	-0.3078521157	-1.1166045387	 2.0206850944	-0.298262
C	 0.6483801702	-2.0590511482	 1.3414927325	 0.191175
C	 0.1518707803	-3.0437945635	 0.2969965597	-0.149913
O	 1.1327645941	-3.3229552674	-0.6830557294	-0.42695
C	 1.8402470128	-2.5216303802	 2.111842455	 0.143452
O	 2.3924548153	-3.5822507834	 1.9259388297	-0.283908
H	 1.1616320171	 1.9011768048	 0.2391926605	 0.130019
H	-0.0640442446	 1.8959679253	-1.0475964337	 0.11721
H	-0.5562226514	 1.7766831993	 0.6497125767	 0.118468
H	-0.6606293801	-0.4560285048	-0.5145731888	 0.090326
H	 1.0596828826	-0.3472528359	-0.894532953	 0.129569
H	-0.2021111307	-0.8802613382	 3.0772475958	 0.121717
H	-1.3380967781	-1.1678670874	 1.6659136926	 0.119055
H	-0.1713795985	-3.9585904963	 0.8161297048	 0.105194
H	-0.7183688685	-2.6448797955	-0.2294234378	 0.108776
H	 1.8508819087	-3.7686248018	-0.2158820136	 0.299199
H	 2.2107865357	-1.7945885512	 2.8649989646	 0.093532
59.0108	96.1663	103.5594	168.5302	201.8547	241.4537	265.2035	295.2517	358.4001	379.5152	443.8192	505.6079	535.0238	594.9203	734.5803	801.2056	819.0698	881.0205	924.1618	967.5911	995.2354	1046.1709	1068.122	1080.5609	1103.4092	1123.3678	1131.0714	1195.3097	1224.3668	1309.3738	1319.4519	1349.4812	1374.6077	1391.0748	1410.9082	1423.4229	1442.027	1488.1663	1488.5091	1497.3615	1502.3397	1515.7209	1798.962	2918.3116	2977.4035	2996.2279	3040.2101	3076.8502	3079.4456	3100.5775	3110.996	3123.2012	3164.588	3778.0461
CCN1CC1(CO)C=O	CCN1C[C@]1(CO)C=O	
InChI=1S/C6H11NO2/c1-2-7-3-6(7,4-8)5-9/h4,9H,2-3,5H2,1H3	InChI=1S/C6H11NO2/c1-2-7-3-6(7,4-8)5-9/h4,9H,2-3,5H2,1H3/t6-,7?/m1/s1
