18
gdb 93539	3.2138	1.25158	0.98566	3.0649	74.78	-0.2589	-0.0219	0.237	1203.2329	0.148115	-439.129246	-439.120865	-439.119921	-439.162686	31.215	
C	 0.4400775715	 1.5800758318	 0.0725768526	-0.384665
C	-0.1540727406	 0.1744335394	-0.0903485873	 0.054752
C	 0.4508848234	-0.5573521656	-1.2935527617	-0.226668
C	-0.0365261354	-2.011170114	-1.408238056	-0.345247
C	 0.7919787608	-2.9513403256	-0.5700774779	 0.424139
O	 1.3749531543	-3.908473664	-0.9869125669	-0.293935
O	 0.8955168005	-2.6826845034	 0.7795522581	-0.22368
C	 0.3360408351	-1.6337503886	 1.4948053755	 0.128228
N	-0.0849724689	-0.4930865831	 1.1975764607	-0.238124
H	 1.5128479885	 1.5211700088	 0.2833959263	 0.123531
H	 0.3009418446	 2.1661767988	-0.8408896133	 0.114198
H	-0.0407811654	 2.1006903194	 0.9035062937	 0.131803
H	-1.2303017835	 0.2938743165	-0.2870567083	 0.099314
H	 0.1702414298	-0.0129487657	-2.2010568653	 0.114303
H	 1.5464889293	-0.5311355058	-1.2449041515	 0.116306
H	-1.0873427627	-2.0797750835	-1.0988548149	 0.132009
H	 0.0342598808	-2.3815685795	-2.4317673402	 0.137969
H	 0.3307847679	-1.9509092658	 2.5367002164	 0.135767
58.3133	96.3439	208.7437	235.8944	274.377	325.5712	360.2056	373.5155	499.7639	533.0791	574.5966	703.3613	721.0938	794.6647	826.4845	901.0927	922.3945	957.7243	964.2624	1030.938	1062.1683	1092.9826	1109.8562	1144.8487	1173.3933	1222.0638	1272.3205	1318.3467	1350.5917	1369.9378	1386.6877	1407.879	1448.2676	1472.9591	1485.6065	1493.5524	1500.7126	1777.6682	1863.2014	2989.9243	3031.4735	3038.7644	3042.3301	3079.4463	3111.3243	3125.6082	3131.3905	3149.0934
CC1CCC(=O)OC=N1	C[C@H]1CCC(=O)OC=N1	
InChI=1S/C6H9NO2/c1-5-2-3-6(8)9-4-7-5/h4-5H,2-3H2,1H3	InChI=1S/C6H9NO2/c1-5-2-3-6(8)9-4-7-5/h4-5H,2-3H2,1H3/t5-/m0/s1
