22
gdb 9425	4.13242	0.87628	0.79158	2.266	75.76	-0.2527	0.082	0.3347	1535.6074	0.19798	-387.339518	-387.329095	-387.328151	-387.375745	36.549	
C	-0.1433542767	 1.396900673	-0.0465727028	-0.38289
C	 0.1661227763	-0.1018310017	-0.0258461921	-0.180828
C	 0.6419133796	-0.5791106783	 1.3404342433	-0.038722
O	 0.8934588339	-1.9682586355	 1.2675111117	-0.278742
C	 1.5062909945	-2.5613847867	 2.4107367132	 0.120459
C	 0.5406220096	-2.6889143122	 3.5907148761	-0.398064
C	 1.9936917165	-3.9240787317	 1.9106324587	-0.059486
O	 0.9266761696	-4.7026675318	 1.4037913885	-0.423077
H	 0.7417632269	 1.9916541945	 0.2049309748	 0.116885
H	-0.4846203797	 1.7136127103	-1.0361911302	 0.118771
H	-0.9292182081	 1.6525304649	 0.6727597788	 0.117316
H	-0.7252567461	-0.6767195759	-0.3030082844	 0.105168
H	 0.9365662015	-0.3431664651	-0.7670295549	 0.105538
H	 1.5616158196	-0.0445753873	 1.6338897014	 0.084085
H	-0.1203866456	-0.3524256885	 2.1024355838	 0.089978
H	 2.382119342	-1.9599525009	 2.7075546982	 0.061375
H	-0.2869406605	-3.3503768132	 3.3229974148	 0.134174
H	 1.059086235	-3.1171902602	 4.4546813057	 0.115005
H	 0.1378674606	-1.7188930559	 3.8937590472	 0.113439
H	 2.7678189642	-3.760867815	 1.144996345	 0.087253
H	 2.4429077798	-4.4896309153	 2.7335936815	 0.102672
H	 0.467697107	-4.1303812575	 0.7769267817	 0.289693
43.3464	67.6814	93.772	138.6708	161.7989	212.0757	231.6995	254.2687	307.3925	359.1265	419.1939	453.5129	481.6283	665.8028	765.1932	822.1808	901.2949	908.4873	918.0559	926.9921	1009.1417	1048.0283	1082.1348	1116.5154	1138.751	1148.3567	1164.2583	1192.2258	1243.6514	1269.0048	1315.2182	1327.3418	1348.1191	1365.0665	1384.0158	1410.458	1413.0489	1432.2552	1440.8167	1489.1842	1492.5018	1496.0652	1500.3644	1501.5905	1508.0014	1528.812	2955.1029	2963.1975	2988.6818	2991.3879	3032.1159	3037.779	3045.3478	3071.1269	3077.8026	3100.0317	3109.1909	3111.7594	3132.9188	3789.7914
CCCOC(C)CO	CCCO[C@@H](C)CO	
InChI=1S/C6H14O2/c1-3-4-8-6(2)5-7/h6-7H,3-5H2,1-2H3	InChI=1S/C6H14O2/c1-3-4-8-6(2)5-7/h6-7H,3-5H2,1-2H3/t6-/m0/s1
