16
gdb 105574	2.00301	1.57252	1.34638	2.514	72.18	-0.2372	0.004	0.2413	1062.2184	0.121863	-437.850529	-437.841243	-437.840299	-437.884636	33.168	
C	 0.0192687762	 1.4017039234	-0.0737110247	-0.263119
O	-0.0818935825	-0.0141481283	 0.062284598	-0.274634
C	 0.6101456026	-0.5439857403	 1.164009234	 0.097247
C	 0.7242772928	-2.0980723192	 1.0384264784	-0.209058
N	 2.1765818275	-1.9261812355	 0.9443760928	-0.322465
C	 2.1858885233	-0.5596796997	 0.980378624	 0.38196
O	 3.045588823	 0.2699357484	 0.8681840885	-0.357619
C	 0.1510371012	-0.0481073857	 2.4537097924	 0.310457
C	-0.2131560587	 0.3659645517	 3.5219917595	-0.48453
H	 1.0633108059	 1.7176522656	-0.1721024071	 0.145928
H	-0.5311092052	 1.6568879286	-0.981144608	 0.128982
H	-0.4336366352	 1.9150549244	 0.7833119457	 0.124132
H	 0.3900900767	-2.6648145269	 1.9100837335	 0.127766
H	 0.2489608909	-2.4645567134	 0.1251193455	 0.13182
H	 2.9136921395	-2.5836484719	 0.7376068932	 0.257464
H	-0.5320441279	 0.734730599	 4.4659762243	 0.205669
103.1291	106.8781	122.8805	159.3079	171.298	249.6866	267.7709	362.867	415.6716	468.0245	530.7059	595.975	627.1014	675.8047	679.1895	747.7235	781.0447	910.133	970.176	1003.1121	1061.1169	1147.6028	1164.0192	1187.1704	1189.0792	1205.5108	1244.3386	1292.8477	1391.1838	1476.4323	1485.6906	1513.633	1516.2154	1894.721	2229.2532	3021.3905	3061.8561	3090.9237	3122.7654	3135.1745	3497.6712	3614.6637
COC1(CNC1=O)C#C	CO[C@]1(CNC1=O)C#C	
InChI=1S/C6H7NO2/c1-3-6(9-2)4-7-5(6)8/h1H,4H2,2H3,(H,7,8)	InChI=1S/C6H7NO2/c1-3-6(9-2)4-7-5(6)8/h1H,4H2,2H3,(H,7,8)/t6-/m0/s1
