19
gdb 80699	1.99457	1.5598	1.44413	1.5502	75.33	-0.2409	-0.0251	0.2157	1067.2703	0.157046	-423.001689	-422.992528	-422.991583	-423.035533	34.051	
C	-0.111905751	 1.5330173737	 0.0146021586	-0.415442
C	 0.0545267411	 0.0374497897	 0.1841795007	-0.062765
C	 1.277914735	-0.775456829	-0.1897560885	-0.13551
C	 2.5720098643	-0.0301139062	 0.172553209	-0.271794
C	 2.110750348	-0.0285053898	 1.6767506257	-0.156176
C	 2.0660434441	 1.2421155624	 2.4807487488	 0.135129
O	 1.0880591337	 1.642536886	 3.0636613983	-0.253941
C	 0.8013621899	-0.702597264	 1.2618427011	 0.376048
O	 0.2170042442	-1.7094808711	 2.0083148037	-0.463721
H	 0.8223931335	 2.0829833921	 0.1499089336	 0.114964
H	-0.481211989	 1.7624300477	-0.9910550271	 0.112789
H	-0.8270938373	 1.9329877345	 0.7398501789	 0.130729
H	-0.8486307531	-0.5233072129	-0.0536862763	 0.09309
H	 1.2230502405	-1.6047610612	-0.8839318413	 0.095966
H	 3.4751219427	-0.6210572284	 0.0138135493	 0.113431
H	 2.7111165795	 0.9497616955	-0.2936277951	 0.106336
H	 2.7371298693	-0.7367804235	 2.2345847401	 0.113394
H	 3.0279930478	 1.8054639179	 2.5278993659	 0.07503
H	-0.4131257032	-1.2993021235	 2.6118669747	 0.292442
73.096	117.7266	154.0476	181.5131	230.0892	262.6732	311.6383	327.9411	385.5237	465.7969	520.0006	596.7513	670.229	732.9534	753.5188	810.7231	897.7148	911.7095	960.9376	985.4448	1010.0901	1039.1736	1065.7582	1097.3292	1116.8922	1129.4222	1163.1977	1175.8467	1230.0279	1235.0885	1284.7833	1316.2777	1334.1512	1352.8861	1414.789	1418.5116	1464.8676	1491.5547	1501.0562	1506.7947	1815.3593	2852.1302	3032.7262	3037.1571	3059.9474	3098.7275	3111.0567	3119.1373	3128.2178	3190.6086	3791.6587
CC1C2CC(C=O)C12O	C[C@H]1[C@H]2C[C@@H](C=O)[C@@]12O	
InChI=1S/C7H10O2/c1-4-6-2-5(3-8)7(4,6)9/h3-6,9H,2H2,1H3	InChI=1S/C7H10O2/c1-4-6-2-5(3-8)7(4,6)9/h3-6,9H,2H2,1H3/t4-,5-,6+,7-/m0/s1
