22
gdb 10068	2.16282	1.39381	0.92377	0.737	84.31	-0.2572	0.0572	0.3144	1332.9925	0.197634	-313.049674	-313.039339	-313.038395	-313.08523	37.303	
C	 0.1619982802	 1.493487916	-0.1432102134	-0.390601
C	 0.0219039679	-0.0310247847	-0.0854073644	-0.180155
C	-1.4212541242	-0.5380196344	 0.0972307058	 0.053094
C	-2.2761196891	-0.3211453013	-1.1659662442	-0.179717
C	-3.785355731	-0.5028708945	-0.9679896835	-0.391944
C	-1.4214117029	-2.0344764697	 0.5062479101	-0.370792
C	-0.8023075252	-2.2920791038	 1.801074483	 0.303526
C	-0.2987000223	-2.4860031462	 2.8757751309	-0.446533
H	 1.2136677588	 1.7829214986	-0.2339395449	 0.112827
H	-0.3691674385	 1.9304841802	-0.9945907914	 0.116251
H	-0.2316499783	 1.9585999946	 0.7674838391	 0.115935
H	 0.4420711808	-0.4764505282	-0.9984567484	 0.088231
H	 0.6282745102	-0.4078503277	 0.7455774044	 0.111072
H	-1.87783163	 0.0255808228	 0.9232434184	 0.077355
H	-2.0983286649	 0.6926506182	-1.5409142367	 0.096466
H	-1.9213750318	-0.9991723639	-1.9550594691	 0.092172
H	-4.0493419158	-1.5243141151	-0.6762201771	 0.118072
H	-4.164023807	 0.1708156143	-0.1912306223	 0.117407
H	-4.3282395227	-0.2811061377	-1.8921753033	 0.113843
H	-2.4493342774	-2.4138619002	 0.5290229955	 0.12711
H	-0.9011674	-2.6140794052	-0.2693289319	 0.124524
H	 0.1458467835	-2.6680294019	 3.8225265035	 0.191858
58.5121	77.4348	88.0672	143.5641	211.6086	220.5853	251.012	271.023	347.9824	356.1344	424.9773	451.7742	540.7272	611.8574	633.7046	752.8088	775.5976	822.1528	895.7895	932.4076	958.5339	997.9901	1024.3569	1045.4041	1056.9395	1125.3872	1141.2843	1174.6791	1237.0452	1273.6704	1304.5084	1326.4054	1336.2613	1361.0069	1387.9246	1391.701	1414.1759	1416.1865	1469.165	1483.6287	1490.0715	1499.5186	1502.8665	1506.3717	1509.255	2234.5497	3000.7595	3008.5944	3011.0737	3023.7147	3033.7515	3034.0099	3059.1212	3061.8049	3065.356	3099.1659	3099.843	3103.7829	3106.6489	3506.9598
CCC(CC)CC#C	CCC(CC)CC#C	
InChI=1S/C8H14/c1-4-7-8(5-2)6-3/h1,8H,5-7H2,2-3H3	InChI=1S/C8H14/c1-4-7-8(5-2)6-3/h1,8H,5-7H2,2-3H3
