16
gdb 77062	3.06672	1.04359	0.89846	2.8633	69.24	-0.2675	-0.047	0.2205	1270.4738	0.122712	-437.900845	-437.891927	-437.890983	-437.935298	31.719	
O	 0.4222932506	 1.0361945366	 0.6746332838	-0.426676
C	 0.1293697326	-0.1987606971	 0.0932121611	 0.037236
C	-1.3393680797	-0.7652452076	 0.1464126434	-0.071818
C	-2.3764699836	 0.3472711336	 0.3526629459	-0.343526
C	-3.7447943344	-0.1502035305	 0.2313332695	 0.258967
N	-4.8186273479	-0.5641339516	 0.1271153617	-0.302614
C	-1.1927935621	-1.2311186475	-1.3403662153	-0.347676
C	-0.0167453097	-0.2512065	-1.4300544777	 0.345906
O	 0.4330502199	 0.4630555509	-2.2808682452	-0.298813
H	 0.6820025187	 1.6317625813	-0.0403738155	 0.30395
H	 0.8235482328	-0.9741245911	 0.4481035152	 0.11531
H	-1.4923270038	-1.5643483652	 0.8717060886	 0.107879
H	-2.2404550671	 0.802307962	 1.338746054	 0.170634
H	-2.2309469744	 1.1518526687	-0.378070961	 0.154996
H	-0.8762181646	-2.2740821188	-1.4264529104	 0.144329
H	-2.0286081172	-1.0552944036	-2.0206041381	 0.15192
56.3395	82.8631	128.0639	186.6043	202.0352	275.9992	347.9977	392.4452	410.7276	509.8911	548.9474	594.1522	728.2047	754.6198	832.4499	859.5093	896.5629	958.8808	1010.3743	1043.311	1070.6861	1102.7569	1158.9405	1181.0667	1207.8445	1241.5054	1269.3377	1314.2777	1345.1768	1383.3224	1386.9088	1444.7372	1460.341	1880.4963	2363.0515	3007.7592	3046.8233	3072.9537	3091.146	3114.9115	3132.5979	3767.7811
OC1C(CC#N)CC1=O	O[C@H]1[C@@H](CC#N)CC1=O	
InChI=1S/C6H7NO2/c7-2-1-4-3-5(8)6(4)9/h4,6,9H,1,3H2	InChI=1S/C6H7NO2/c7-2-1-4-3-5(8)6(4)9/h4,6,9H,1,3H2/t4-,6-/m0/s1
