23
gdb 84442	3.23068	1.36117	1.20068	0.1602	90.66	-0.2299	0.0225	0.2524	1169.579	0.207099	-351.165016	-351.156597	-351.155653	-351.197151	34.749	
C	-0.196470991	 1.5493967582	-0.0084450129	-0.401591
C	 0.0257701317	 0.0282190131	 0.0064682677	-0.009526
C	 0.754447505	-0.4549790224	-1.2306416125	-0.083567
C	 1.8670308729	-1.1773916216	-1.1012337303	-0.098641
C	 2.3786771714	-1.5058141908	 0.2919062968	 0.311205
C	 3.6429603991	-2.3446054455	 0.2987300313	-0.497748
C	 1.1412996235	-1.9586217856	 1.1360649099	-0.26113
C	 0.7940407579	-0.447869748	 1.2578713368	-0.02792
C	 2.3220238883	-0.1805238118	 1.1190435678	-0.251335
H	 0.7548564462	 2.0908736954	 0.0036156376	 0.118774
H	-0.7424523977	 1.8588772327	-0.9059422547	 0.110645
H	-0.7782225713	 1.8671523974	 0.8636742051	 0.109645
H	-0.969678713	-0.4433977965	 0.0254769457	 0.076003
H	 0.3490030472	-0.1923786149	-2.20459084	 0.081482
H	 2.4198489172	-1.5440174089	-1.9623650066	 0.079589
H	 4.4629482404	-1.8291179173	-0.2154158482	 0.113719
H	 3.9699216954	-2.5576155333	 1.3217515999	 0.108156
H	 3.4854701322	-3.303256186	-0.2098672796	 0.113756
H	 0.4166423438	-2.621709105	 0.6552180541	 0.088807
H	 1.4455375955	-2.3784011338	 2.1001092215	 0.086994
H	 0.2992917296	-0.1090255318	 2.1720806549	 0.05406
H	 2.8286887363	-0.2882491097	 2.0832805008	 0.087953
H	 2.6586671594	 0.7358602962	 0.6277486548	 0.090671
139.6966	212.6075	222.169	242.3943	285.9907	311.1226	381.9587	409.9195	445.1486	463.0918	595.318	634.2486	694.1257	735.4438	776.8167	840.0656	877.7737	884.7302	914.2484	923.8507	964.2034	979.4686	992.2429	1022.5643	1040.5887	1061.2483	1080.6249	1108.8949	1122.5008	1153.1386	1173.7683	1213.9276	1226.7795	1256.3599	1269.4825	1285.3798	1317.5013	1339.0742	1353.1152	1398.1239	1410.4482	1416.2857	1475.862	1491.5679	1493.0118	1494.737	1499.3025	1509.002	1697.3072	2973.1834	3019.1261	3029.0995	3040.0396	3045.7151	3067.5237	3081.6766	3093.7186	3095.7781	3099.6431	3102.2345	3106.2277	3145.1398	3169.6495
CC1C=CC2(C)CC1C2	C[C@H]1C=C[C@]2(C)C[C@H]1C2	
InChI=1S/C9H14/c1-7-3-4-9(2)5-8(7)6-9/h3-4,7-8H,5-6H2,1-2H3	InChI=1S/C9H14/c1-7-3-4-9(2)5-8(7)6-9/h3-4,7-8H,5-6H2,1-2H3/t7-,8-,9+/m0/s1
