15
gdb 36714	5.0889	0.8287	0.7888	3.9131	66.83	-0.2767	-0.0003	0.2764	1398.4262	0.113065	-453.957142	-453.949062	-453.948118	-453.991265	28.125	
N	-0.0483442688	-1.1271758155	 0.2538340766	-0.288002
C	-0.0214495961	 0.0204731861	 0.1335191733	 0.269318
C	-0.0303314463	 1.4761939012	-0.019938746	-0.200487
O	 1.3070424715	 1.9439506899	-0.0322065552	-0.236225
C	 1.4113626406	 3.336252131	-0.0587171032	 0.193993
C	 2.9000140095	 3.7280087971	-0.1087003101	-0.205155
N	 3.1225747838	 4.2092333663	-1.4800239753	-0.247985
C	 1.9806649232	 4.2382012048	-2.0202482227	 0.11666
O	 0.884856236	 3.8607931529	-1.2956283165	-0.231974
H	-0.5490616516	 1.7382728779	-0.9505751711	 0.165299
H	-0.5962932899	 1.918407052	 0.8146868218	 0.145541
H	 0.8212017315	 3.7835658436	 0.7505411876	 0.093727
H	 3.1431882309	 4.5198359697	 0.6062323921	 0.129512
H	 3.527015438	 2.8600936538	 0.109618565	 0.145362
H	 1.7607862177	 4.5560105792	-3.0326736964	 0.150418
39.5411	96.1093	113.273	172.6421	266.1931	377.9341	384.6114	454.7482	527.6061	618.854	768.8859	874.263	889.9382	949.4667	952.9633	959.9915	987.1363	1026.937	1030.684	1079.4731	1089.7862	1151.4658	1228.7741	1252.1972	1304.3372	1321.5445	1352.5773	1372.4217	1432.2203	1479.0613	1496.1365	1714.4435	2376.3826	2995.0423	3036.0094	3053.7311	3063.7186	3112.8169	3226.0086
N#CCOC1CN=CO1	N#CCO[C@H]1CN=CO1	
InChI=1S/C5H6N2O2/c6-1-2-8-5-3-7-4-9-5/h4-5H,2-3H2	InChI=1S/C5H6N2O2/c6-1-2-8-5-3-7-4-9-5/h4-5H,2-3H2/t5-/m1/s1
