13
gdb 6634	6.0114	0.80206	0.71387	5.6227	68.84	-0.2714	-0.0646	0.2067	1475.453	0.092808	-361.460774	-361.451934	-361.45099	-361.496842	28.816	
C	-0.0621059237	 1.5211052463	 0.0117920907	-0.48009
C	 0.0806623785	 0.014439719	 0.0010313597	 0.257275
O	 1.1488449209	-0.5547559674	-0.0129215273	-0.262808
C	-1.1704858244	-0.7325110635	 0.0086429263	 0.066776
C	-2.2028982927	-1.3537860599	 0.0149381914	 0.066501
C	-3.4575869127	-2.0986876559	 0.0230850141	-0.480125
C	-3.2779080292	-3.5563001307	 0.0147183118	 0.287279
N	-3.159470929	-4.7043100724	 0.0083412921	-0.289062
H	 0.9269643868	 1.9808599862	 0.0050097006	 0.149767
H	-0.6359176802	 1.8508648552	-0.8611506682	 0.149245
H	-0.6187556865	 1.8399127054	 0.8997842696	 0.149248
H	-4.0492142724	-1.8264113196	 0.9068506376	 0.192993
H	-4.0652737154	-1.8183255728	-0.8471513984	 0.193001
10.4653	65.7451	117.8461	143.5947	149.082	335.75	348.4959	382.2388	395.3708	512.4228	599.7586	625.4928	697.36	918.2559	927.8462	964.4698	1043.1905	1056.8391	1234.8226	1240.3953	1336.5538	1382.0818	1437.4038	1459.9791	1467.7574	1777.4505	2346.0469	2376.5164	3028.06	3039.4187	3059.13	3103.1984	3154.9024
CC(=O)C#CCC#N	CC(=O)C#CCC#N	
InChI=1S/C6H5NO/c1-6(8)4-2-3-5-7/h3H2,1H3	InChI=1S/C6H5NO/c1-6(8)4-2-3-5-7/h3H2,1H3
