21
gdb 120489	3.84229	0.88866	0.80987	3.3143	75.41	-0.2444	0.059	0.3034	1488.3498	0.181282	-461.34272	-461.333052	-461.332107	-461.377771	36.007	
C	 0.2358819204	 1.4927160299	 0.2853222944	-0.388692
C	-0.0918028482	 0.0306178525	 0.5300533677	-0.054192
O	 1.1301117918	-0.6793192954	 0.7271136219	-0.264031
C	 0.9571408845	-2.0554827127	 0.9790819118	 0.100782
C	 2.2740709622	-2.8591595544	 1.000108493	-0.31468
C	 1.8070672525	-3.5353894467	 2.3285136698	 0.147538
O	 2.7140514539	-3.6433879285	 3.3842863078	-0.438488
C	 0.7257123357	-2.4197263156	 2.4828589355	 0.054985
O	 1.2083571206	-1.3903898813	 3.3281800443	-0.452976
H	 0.8874356706	 1.5992354314	-0.586361778	 0.13244
H	-0.681549244	 2.0610196333	 0.1064576224	 0.122089
H	 0.7458868388	 1.927282672	 1.1500864874	 0.126841
H	-0.7421001648	-0.0814941812	 1.4102964938	 0.105623
H	-0.6256598612	-0.3994781147	-0.3310816004	 0.100732
H	 0.1926433741	-2.4810021133	 0.3170662312	 0.073743
H	 2.4910930144	-3.4975555498	 0.1420088306	 0.104458
H	 3.1250622265	-2.1969934246	 1.179474118	 0.11309
H	 1.365141844	-4.5210866855	 2.1527792309	 0.08034
H	 2.715785507	-2.7678692036	 3.7996476043	 0.285423
H	-0.2756561172	-2.7168772373	 2.8093837211	 0.070835
H	 1.4688094684	-0.6647194743	 2.7400038025	 0.294139
61.7909	73.3464	93.833	193.8801	235.7035	262.9143	292.4341	354.1922	386.9127	427.4085	456.9362	574.6679	581.394	641.806	697.4417	783.7108	823.0539	860.608	895.4545	901.5469	966.7801	1041.7385	1073.339	1084.128	1119.0449	1132.1649	1155.4193	1168.3664	1186.7081	1199.603	1237.9775	1251.4638	1281.8678	1300.2075	1325.0619	1348.0081	1362.9149	1404.4429	1411.7504	1438.361	1449.7634	1475.7495	1484.1744	1498.8852	1527.206	2984.1191	3017.5339	3024.2337	3045.9307	3051.7429	3066.6507	3071.1592	3119.1096	3124.3412	3131.7145	3695.1281	3717.5688
CCOC1CC(O)C1O	CCO[C@H]1C[C@@H](O)[C@H]1O	
InChI=1S/C6H12O3/c1-2-9-5-3-4(7)6(5)8/h4-8H,2-3H2,1H3	InChI=1S/C6H12O3/c1-2-9-5-3-4(7)6(5)8/h4-8H,2-3H2,1H3/t4-,5+,6-/m1/s1
