21
gdb 53531	3.46359	0.77761	0.71866	1.5816	88.34	-0.2425	0.0585	0.301	1697.1962	0.178491	-387.061217	-387.050106	-387.049161	-387.100513	38.662	
C	 0.0928145545	 1.4321973009	-0.4896457224	-0.497562
C	 0.0394537414	 0.0284106064	-0.1061915338	 0.078838
C	 0.0031020781	-1.1337260381	 0.2061703551	 0.065899
C	-0.0482585297	-2.545206008	 0.5797879149	-0.426203
C	-1.4060529888	-3.1947625789	 0.3076000532	 0.395274
C	-2.5840316441	-2.5260832448	 0.9834195809	-0.457176
O	-1.6383127728	-3.5890294855	-1.0525663675	-0.292676
C	-1.5071416131	-4.6199878705	-0.0641706365	 0.024189
C	-0.365881099	-5.5946678852	-0.2127644874	-0.425998
H	 1.1243187088	 1.756593144	-0.6668230546	 0.146955
H	-0.4728345447	 1.6143351752	-1.4100793651	 0.149562
H	-0.3268261945	 2.0773316837	 0.290278766	 0.14487
H	 0.7309571153	-3.090584431	 0.0402219836	 0.130856
H	 0.1777811452	-2.6514971913	 1.6501667214	 0.124772
H	-2.6562906946	-1.4804300675	 0.6713417234	 0.139268
H	-3.5142601127	-3.0347324131	 0.7199002135	 0.123059
H	-2.4701326315	-2.5455094972	 2.0730882178	 0.115367
H	-2.4573903553	-5.1012601531	 0.1828224728	 0.08083
H	 0.5720013768	-5.1020575989	-0.4748566526	 0.127913
H	-0.2199890763	-6.1564104805	 0.7164854134	 0.121582
H	-0.5952572731	-6.3157880367	-1.004473706	 0.13038
4.2971	42.9252	83.5355	150.124	181.4144	205.3957	223.9091	241.3377	264.659	347.5583	380.6769	394.9953	470.7443	473.0225	517.3802	724.5184	772.0637	786.7978	892.0197	908.8012	957.1495	998.3783	1052.7246	1054.045	1073.8748	1105.8183	1128.9676	1160.8092	1170.0645	1230.1677	1274.7193	1316.7684	1370.7154	1408.9897	1412.9425	1415.5235	1453.8902	1464.3872	1478.6169	1479.4574	1479.7567	1491.5296	1497.3891	1517.6685	2373.9857	3013.2745	3026.2104	3038.5696	3039.2	3067.5722	3084.1198	3085.7274	3087.3907	3097.6157	3107.652	3129.0734	3137.516
CC#CCC1(C)OC1C	CC#CC[C@@]1(C)O[C@H]1C	
InChI=1S/C8H12O/c1-4-5-6-8(3)7(2)9-8/h7H,6H2,1-3H3	InChI=1S/C8H12O/c1-4-5-6-8(3)7(2)9-8/h7H,6H2,1-3H3/t7-,8+/m0/s1
