20
gdb 61414	3.18613	0.87043	0.76447	1.7109	76.01	-0.2411	-0.0093	0.2318	1533.5331	0.167536	-440.350942	-440.339947	-440.339003	-440.388557	38.345	
C	-0.1971182247	 1.5138433365	-0.0621407814	-0.415632
C	 0.003009344	-0.0108140148	 0.033476943	-0.075626
C	 0.7884630824	-0.4130373697	 1.2825099134	-0.324014
C	 2.2761938983	-0.0931188941	 1.1626760928	 0.408457
N	 2.965215483	-0.1500139322	 2.3406782135	-0.524116
O	 2.8181796218	 0.1895191067	 0.1094763543	-0.363641
C	-1.3153684671	-0.7795586782	-0.0635938414	 0.374094
C	-2.2159018549	-0.4625300327	-1.2471613383	-0.478682
O	-1.632836143	-1.6172484533	 0.7521736459	-0.306555
H	 0.7762837269	 2.0090206706	-0.0379231239	 0.14669
H	-0.6927003837	 1.8021858845	-0.9925865446	 0.119617
H	-0.7989001212	 1.8875085526	 0.7742119826	 0.116457
H	 0.6014813143	-0.3072173419	-0.8395394132	 0.123083
H	 0.3740839703	 0.0694811381	 2.1758227485	 0.112883
H	 0.6765637304	-1.4898566374	 1.4520014233	 0.143765
H	 2.5437716184	-0.5005113789	 3.183314036	 0.259521
H	 3.9681901862	-0.0671822131	 2.3045915908	 0.259744
H	-1.6421953436	-0.3264573306	-2.168985054	 0.13472
H	-2.9449764761	-1.2646465724	-1.36899313	 0.141763
H	-2.7553957915	 0.4732124201	-1.0617707172	 0.147473
31.3024	52.6415	60.0168	131.6911	146.2924	216.1366	230.3909	255.6031	313.407	334.5965	346.5941	490.4018	502.0692	552.9842	601.0342	621.1346	644.3913	778.0605	848.913	894.8809	939.133	962.7814	967.3197	1070.3578	1091.7665	1108.3108	1144.0014	1182.7632	1249.1442	1255.1712	1321.4213	1340.5847	1380.9727	1402.5032	1407.6539	1460.6021	1464.0806	1475.0827	1501.0083	1510.3708	1618.3643	1788.1454	1798.9182	3020.5543	3037.175	3040.7469	3042.3907	3078.8171	3103.7645	3110.637	3130.0671	3150.6294	3598.6234	3733.3479
CC(CC(N)=O)C(C)=O	C[C@@H](CC(=O)N)C(=O)C	
InChI=1S/C6H11NO2/c1-4(5(2)8)3-6(7)9/h4H,3H2,1-2H3,(H2,7,9)	InChI=1S/C6H11NO2/c1-4(5(2)8)3-6(7)9/h4H,3H2,1-2H3,(H2,7,9)/t4-/m0/s1
