16
gdb 87321	2.0774	1.377	0.9942	5.8802	70.63	-0.2738	-0.0535	0.2203	1214.8955	0.121245	-437.889822	-437.880519	-437.879574	-437.924871	32.46	
C	 0.2294736801	 1.4098237243	-0.1664374748	-0.43178
C	 0.4475859496	-0.0775912059	-0.0684985249	 0.027618
O	 1.7495205215	-0.5477339661	 0.2589436237	-0.269185
C	 0.7061298052	-0.8060652177	 1.2033421395	 0.272836
C	 0.770062291	-0.1249493016	 2.5616059436	-0.435891
C	 1.9889830011	-0.4699850981	 3.2938112788	 0.279583
N	 2.9521747857	-0.7367117984	 3.8722097761	-0.29845
C	 0.2718815943	-2.2459727508	 1.2287440453	 0.130072
O	-0.282376609	-2.7622049009	 2.1635716494	-0.248503
H	 0.7954937148	 1.9565378466	 0.5896916247	 0.141122
H	 0.560372183	 1.7613014258	-1.1487278135	 0.147839
H	-0.8337420409	 1.6499206201	-0.065059837	 0.138572
H	-0.0361727624	-0.6561228816	-0.8592872613	 0.106916
H	 0.7129862908	 0.9611753878	 2.4676556969	 0.154778
H	-0.0928939423	-0.463278771	 3.1447240981	 0.180315
H	 0.5048894277	-2.7906465526	 0.2887380153	 0.104158
35.1261	102.2974	121.5325	166.5878	220.6013	251.8947	282.7957	359.2404	376.5506	446.7124	463.6978	538.8076	581.7417	770.1471	821.5843	873.2095	926.2492	952.6308	999.9158	1027.7426	1050.9284	1123.1261	1167.4126	1213.3281	1286.8326	1317.1704	1352.3414	1402.0335	1410.7502	1446.3886	1456.8301	1485.9406	1504.309	1827.6216	2370.1391	2914.4014	3046.4619	3068.9329	3081.5555	3110.6881	3122.3932	3141.938
CC1OC1(CC#N)C=O	C[C@H]1O[C@]1(CC#N)C=O	
InChI=1S/C6H7NO2/c1-5-6(4-8,9-5)2-3-7/h4-5H,2H2,1H3	InChI=1S/C6H7NO2/c1-5-6(4-8,9-5)2-3-7/h4-5H,2H2,1H3/t5-,6-/m1/s1
