19
gdb 23529	2.39749	1.54418	1.2311	0.1945	79.75	-0.2224	0.0205	0.2429	1097.6663	0.159993	-419.125677	-419.117452	-419.116508	-419.158175	32.168	
C	 0.0468352769	 1.450486866	-0.158994082	-0.336315
N	 0.008138532	-0.0007245715	 0.0137426618	-0.103608
C	-1.2486576952	-0.5206617514	 0.6989589152	-0.089689
C	-0.9726676058	-2.0347674078	 0.644971498	-0.212666
C	 0.5316154098	-2.0164798989	 1.0924455068	-0.213698
C	 0.6979740567	-0.4964696194	 1.2790420528	-0.084232
C	-0.5768262162	-0.107353708	 2.0021107078	 0.465824
N	-0.8087181746	 0.5732725501	 3.0406767839	-0.302597
O	-2.1909464828	 0.8679585262	 3.154428263	-0.404427
H	 1.052285767	 1.7379664848	-0.4816223513	 0.121698
H	-0.6521145931	 1.7290395653	-0.9535432341	 0.122322
H	-0.2052121729	 2.0267448859	 0.7458106434	 0.11893
H	-2.2120684083	-0.1333234231	 0.3752723033	 0.092381
H	-1.6157145432	-2.5975012405	 1.3255396296	 0.108801
H	-1.1002653934	-2.4208251782	-0.3681245729	 0.110268
H	 0.7100088908	-2.5685966995	 2.0181264171	 0.107602
H	 1.2014892264	-2.3929532197	 0.3170631908	 0.109887
H	 1.6758397995	-0.0874259032	 1.5272069854	 0.085229
H	-2.2165263736	 1.3752046629	 3.9726166115	 0.304291
96.9377	185.9319	226.6532	259.6681	280.5939	290.359	337.6695	396.0487	472.603	531.3787	671.2943	687.32	709.8635	780.4991	838.2635	842.4188	907.0057	918.7656	937.9153	981.0241	1005.9565	1038.572	1079.6911	1138.1617	1155.1686	1158.0134	1178.7848	1187.6954	1230.4366	1241.6835	1256.3967	1278.061	1310.7313	1323.3646	1405.0539	1452.9944	1477.5587	1492.3025	1497.0048	1504.4746	1797.2183	2977.2179	3068.4497	3071.4578	3077.1755	3105.9223	3116.0251	3132.1978	3142.8573	3155.101	3820.899
CN1C2CCC1C2=NO	CN1[C@H]2CC[C@@H]1C2=NO	
InChI=1S/C6H10N2O/c1-8-4-2-3-5(8)6(4)7-9/h4-5,9H,2-3H2,1H3	InChI=1S/C6H10N2O/c1-8-4-2-3-5(8)6(4)7-9/h4-5,9H,2-3H2,1H3/t4-,5+
