17
gdb 36174	3.71713	1.20521	1.10803	3.5405	76.59	-0.2452	0.0287	0.2739	1117.7025	0.136812	-380.785821	-380.778405	-380.777461	-380.818268	28.484	
N	-0.0639710158	-1.166501131	 0.0626479293	-0.305549
C	-0.0505566531	-0.0127394872	-0.0008004515	 0.26076
C	 0.0069473861	 1.4459502185	-0.0807981296	-0.483701
C	 1.4391227182	 1.9647322023	-0.0765393023	 0.317979
C	 2.5831036947	 1.7185725961	-1.0531300215	-0.228173
N	 3.2562171515	 2.6608533298	-0.0594465614	-0.153899
C	 1.9236300088	 3.4400230242	 0.099372908	-0.055971
C	 2.0073617041	 3.3535182042	 1.6262038117	-0.262242
C	 2.4684372247	 1.9913394947	 1.09939499	-0.032333
H	-0.5065369006	 1.7687133715	-0.9944523698	 0.156967
H	-0.5514861149	 1.8682031194	 0.763235682	 0.154848
H	 3.0304346457	 0.7204919866	-1.0821412387	 0.118698
H	 2.5000254085	 2.1362849839	-2.0621014474	 0.10413
H	 1.7034318989	 4.2901102868	-0.5493843081	 0.088187
H	 2.7778770323	 3.9686089939	 2.0968308261	 0.118635
H	 1.0690473385	 3.3857533533	 2.1853376364	 0.102228
H	 2.8884324421	 1.134247803	 1.6276428867	 0.099437
58.0644	109.0098	243.0054	297.1261	390.6615	421.4155	433.0278	488.8876	662.1531	724.042	784.5788	843.9941	866.351	874.2495	902.8454	921.6363	939.7701	962.4677	1014.5137	1015.8583	1061.3567	1090.7287	1121.0171	1125.9657	1142.7976	1185.5989	1200.4428	1224.1693	1240.8736	1270.6185	1292.0257	1317.7338	1340.3626	1455.0939	1490.7779	1521.0442	2361.2665	3035.7999	3041.3754	3062.6198	3074.4758	3098.9217	3104.2368	3112.3531	3128.0854
N#CCC12CN3C1CC23	N#CC[C@@]12CN3[C@@H]1C[C@@H]23	
InChI=1S/C7H8N2/c8-2-1-7-4-9-5(7)3-6(7)9/h5-6H,1,3-4H2	InChI=1S/C7H8N2/c8-2-1-7-4-9-5(7)3-6(7)9/h5-6H,1,3-4H2/t5-,6+,7-
