20
gdb 110674	3.48863	1.28969	1.11666	1.7296	77.64	-0.2341	0.0739	0.308	1140.0407	0.173157	-403.105286	-403.097547	-403.096603	-403.137564	30.567	
O	-0.1065882399	 1.405636319	 0.2136022014	-0.424174
C	-0.0194052755	 0.0132960016	-0.0591687031	-0.104906
C	-1.4249445771	-0.5565330345	-0.0275218345	-0.000956
C	-1.4348945986	-2.0942575708	-0.0311041404	-0.056234
C	-1.7329438995	-2.1367594619	 1.4335534133	-0.064831
C	-2.0449533692	-0.6113985625	 1.4091257772	-0.043595
C	-3.5714867881	-0.5535793017	 1.3223443619	-0.231027
C	-3.8826325651	-1.7756703313	 0.4186907813	-0.159524
N	-2.6946191373	-2.6610078336	 0.474510659	-0.104993
H	 0.7834153338	 1.7696709155	 0.2070978779	 0.286746
H	 0.4337399333	-0.1708350702	-1.0471834651	 0.08441
H	 0.6054209164	-0.5024686542	 0.6884987054	 0.085877
H	-2.0308314257	-0.0506058463	-0.7892504484	 0.06987
H	-0.8121203184	-2.7385668886	-0.6446001715	 0.084424
H	-1.3527061598	-2.7543446965	 2.2384912321	 0.086274
H	-1.5830497198	 0.0466044637	 2.1435773699	 0.079023
H	-4.0243941909	-0.6707533307	 2.3131537217	 0.097173
H	-3.9302651125	 0.3886911259	 0.8969532666	 0.104329
H	-4.7482895286	-2.3425785151	 0.7722077285	 0.10531
H	-4.0789038777	-1.4895154278	-0.6191524532	 0.106804
99.2261	140.1403	209.6179	247.7785	275.3356	368.5416	438.0212	494.3446	650.4659	716.8955	772.1023	792.4603	833.8881	855.3363	865.3004	921.0098	929.2665	948.21	981.4544	1012.7799	1031.6129	1037.5165	1065.7186	1075.0426	1082.4626	1136.6959	1164.1347	1193.0661	1215.6206	1226.4946	1235.0405	1246.7949	1254.9407	1283.1021	1287.6919	1322.0766	1327.8925	1360.7693	1379.9212	1460.3689	1489.3409	1510.948	1521.1424	2958.9209	2985.5237	3031.7133	3039.1087	3054.8923	3083.0743	3101.1336	3130.6715	3149.8046	3182.8669	3829.0521
OCC1C2C3C1CCN23	OC[C@H]1[C@H]2[C@H]3[C@@H]1CCN23	
InChI=1S/C7H11NO/c9-3-5-4-1-2-8-6(4)7(5)8/h4-7,9H,1-3H2	InChI=1S/C7H11NO/c9-3-5-4-1-2-8-6(4)7(5)8/h4-7,9H,1-3H2/t4-,5-,6-,7+,8?/m1/s1
