18
gdb 18881	3.32021	2.68557	2.4823	1.5328	69.52	-0.2363	0.0878	0.3241	696.1598	0.15834	-347.809538	-347.804157	-347.803212	-347.838563	23.782	
C	-0.0298431049	 1.5403487654	 0.079048966	-0.234182
C	 1.5161970593	 1.4790824548	-0.0115285724	-0.037848
C	 2.1018515708	 1.0514586172	 1.3606898845	-0.223671
C	 1.7548587505	-0.4518599765	 1.3717385857	 0.096407
C	 2.2547805899	-0.9119121965	-0.0084265391	-0.230929
C	 1.3743752173	 0.0861221926	-0.7502608811	-0.049282
C	-0.0060985095	-0.0001889212	-0.0162064191	 0.114819
O	 0.3281085705	-0.5854081419	 1.251864837	-0.285821
H	-0.4804323565	 1.9748562069	 0.9757745291	 0.095681
H	-0.4764786124	 1.988028852	-0.81438542	 0.092714
H	 2.0492755804	 2.2993757975	-0.4936204351	 0.061508
H	 3.1869029387	 1.1947580979	 1.4056092213	 0.093568
H	 1.6500477403	 1.5916533544	 2.1971182899	 0.100479
H	 2.0782361772	-1.0162301172	 2.2467719268	 0.07153
H	 3.3261235329	-0.7513898459	-0.1583954919	 0.096094
H	 2.0047460046	-1.9559606756	-0.2147895935	 0.102258
H	 1.3606173334	 0.0930833075	-1.8382072924	 0.067911
H	-0.8573739025	-0.5404121813	-0.4356025858	 0.068764
338.3791	352.2576	448.5712	480.9565	590.3751	621.6806	775.5947	800.3358	827.7704	844.6724	865.4425	878.3195	913.6826	938.5313	944.6341	958.9382	972.6602	994.642	1026.1828	1046.3874	1070.9606	1119.3223	1124.483	1139.6167	1200.6959	1220.4022	1232.0749	1239.7712	1258.7203	1282.5516	1295.0656	1304.5002	1329.021	1343.5916	1369.5754	1470.3568	1479.3644	1496.0213	3044.3014	3045.4711	3060.4717	3085.5819	3094.8693	3098.185	3105.0151	3114.4175	3118.1393	3140.6895
C1C2CC3CC2C1O3	C1[C@H]2C[C@@H]3C[C@H]2[C@H]1O3	
InChI=1S/C7H10O/c1-4-2-7-6(4)3-5(1)8-7/h4-7H,1-3H2	InChI=1S/C7H10O/c1-4-2-7-6(4)3-5(1)8-7/h4-7H,1-3H2/t4-,5-,6-,7+/m1/s1
