16
gdb 8653	2.50637	1.72508	1.38341	3.3419	66.79	-0.2455	-0.0223	0.2233	966.0126	0.125953	-383.704937	-383.695342	-383.694398	-383.739373	33.447	
C	-0.0339864221	 1.5602116626	 0.002383373	-0.420859
C	 0.0103903034	 0.0109956518	-0.0260277696	-0.082864
C	 0.7366824757	-0.5233620732	 1.236552229	-0.101475
O	 0.0673851468	-0.0231560564	 2.3817138628	-0.424966
C	-1.4453730481	-0.4900914173	 0.0004594844	 0.161582
O	-1.9772377374	-1.1247629593	-0.8688065529	-0.246708
C	 0.7183977273	-0.4705605556	-1.2070748364	 0.331523
C	 1.3350100164	-0.8583301889	-2.1620590189	-0.443882
H	 0.9842105925	 1.9583561405	 0.0208272778	 0.131232
H	-0.538206311	 1.9452290531	-0.8871964712	 0.136218
H	-0.5576212624	 1.9065352123	 0.8957729128	 0.142145
H	 0.7345810651	-1.6224540681	 1.2120454715	 0.112016
H	 1.783036266	-0.187106299	 1.1972466136	 0.10775
H	 0.4834184658	-0.3955711289	 3.1642478311	 0.296968
H	-1.9829096258	-0.1924522816	 0.9239777335	 0.104045
H	 1.8609215177	-1.2066947818	-3.0164882003	 0.197274
46.071	122.6838	140.7921	162.3122	201.6162	220.7685	257.3046	315.3799	323.7374	393.2356	478.5099	531.5713	639.4265	646.2945	652.8434	737.6925	886.0999	941.5824	963.4459	1015.4149	1078.2968	1137.5491	1179.0824	1207.1995	1269.3601	1292.1247	1393.1526	1415.554	1448.154	1489.8059	1496.2461	1521.002	1837.405	2242.511	2929.3119	2987.9723	3027.2718	3050.7793	3125.8546	3141.5237	3501.9575	3838.0818
CC(CO)(C=O)C#C	C[C@@](CO)(C=O)C#C	
InChI=1S/C6H8O2/c1-3-6(2,4-7)5-8/h1,4,8H,5H2,2H3	InChI=1S/C6H8O2/c1-3-6(2,4-7)5-8/h1,4,8H,5H2,2H3/t6-/m0/s1
