14
gdb 127500	4.0429	1.15025	0.90058	2.298	76.6	-0.2203	-0.0353	0.185	1213.7656	0.100948	-432.879353	-432.871022	-432.870078	-432.912466	30.037	
C	 0.1022766802	 1.4081083452	-0.0582559425	-0.329106
N	 0.0723156125	-0.0342598331	-0.0201574457	-0.065409
N	 0.1267720215	-0.7783164121	-1.1640419321	-0.292244
C	 0.0791240703	-2.0205385722	-0.75856759	 0.25739
N	-0.0043820116	-2.0902482153	 0.6172522357	-0.423154
C	-0.0110352098	-0.7960373871	 1.1367688098	 0.458019
O	-0.0729371304	-0.4313680019	 2.2908860479	-0.431426
C	 0.1073041754	-3.1571823927	-1.5932254713	 0.272025
C	 0.1282702539	-4.1552371013	-2.2645576467	-0.40263
H	 1.029299198	 1.7624659066	-0.5177296235	 0.145707
H	-0.7492591303	 1.7966511658	-0.6239097272	 0.145705
H	 0.0472115765	 1.7526096944	 0.9754772792	 0.170512
H	-0.0540257066	-2.9211524664	 1.1806210036	 0.284921
H	 0.1476851505	-5.0265432399	-2.8721719772	 0.20969
109.6726	111.7232	140.5701	182.6522	270.5525	286.0341	440.8918	466.759	487.5904	549.5696	597.1763	611.5407	692.3149	698.3078	711.2071	752.7732	836.2989	1016.6625	1043.3064	1147.6788	1158.6359	1252.5207	1279.3777	1409.198	1444.8859	1454.392	1484.1233	1512.6831	1573.766	1842.8261	2241.9794	3046.6023	3111.298	3155.7212	3499.04	3690.6791
CN1N=C(NC1=O)C#C	Cn1nc([nH]c1=O)C#C	
InChI=1S/C5H5N3O/c1-3-4-6-5(9)8(2)7-4/h1H,2H3,(H,6,7,9)	InChI=1S/C5H5N3O/c1-3-4-6-5(9)8(2)7-4/h1H,2H3,(H,6,7,9)
