14
gdb 28150	5.15266	1.29801	1.0435	2.4753	70.67	-0.1935	-0.0162	0.1773	1062.8644	0.102574	-436.717502	-436.710736	-436.709792	-436.748512	26.459	
O	 0.0376738136	 1.2719271883	 0.0074397265	-0.398701
C	-0.0555924696	-0.055790779	 0.0005930956	 0.428053
N	-1.1443003228	-0.7548944602	 0.0031530076	-0.415823
C	-0.6541996143	-2.0557167604	-0.0067709813	 0.238151
C	 0.6956736487	-2.0542721313	-0.014613885	 0.29293
O	 1.1294895826	-0.7488447977	-0.0100111566	-0.257734
C	 1.2535909191	-3.3889082649	-0.0253097761	-0.211216
C	 0.1948192951	-4.2334399815	-0.0239041314	-0.086166
C	-1.131375355	-3.4733004557	-0.0118930792	-0.410493
H	 0.972054834	 1.5125189467	 0.0021862737	 0.318609
H	 2.3002188821	-3.6573677139	-0.0328758106	 0.113444
H	 0.2481067492	-5.3132807151	-0.0302012132	 0.105794
H	-1.7317664999	-3.7322148866	 0.8693961352	 0.141577
H	-1.7420704928	-3.7223758385	-0.8889250054	 0.141575
133.1862	273.3959	284.0486	322.1499	327.3605	425.3906	539.5851	577.2953	651.4019	710.3258	724.0927	735.1455	791.1985	889.4743	917.2638	918.1636	923.1233	956.1586	1071.7504	1122.5384	1153.3646	1185.0761	1224.5178	1276.6297	1370.905	1382.8987	1427.6419	1456.9759	1543.229	1635.7531	1679.4974	3038.4804	3069.2497	3224.9778	3246.176	3816.5246
OC1=NC2=C(O1)C=CC2	Oc1nc2c(o1)C=CC2	
InChI=1S/C6H5NO2/c8-6-7-4-2-1-3-5(4)9-6/h1,3H,2H2,(H,7,8)	InChI=1S/C6H5NO2/c8-6-7-4-2-1-3-5(4)9-6/h1,3H,2H2,(H,7,8)
