13
gdb 133340	3.27115	1.39629	0.97924	3.9042	68.08	-0.224	-0.0482	0.1758	1087.145	0.089149	-494.007717	-494.000221	-493.999277	-494.039664	28.56	
N	 0.0420420172	 1.3616582362	 0.1668942131	-0.563378
C	-0.0695780267	 0.0008233718	 0.0632199001	 0.475204
C	-1.2164230018	-0.7201793938	 0.038072095	-0.288613
C	-1.1570291213	-2.1543035621	-0.0027173074	 0.206207
N	-2.1798929285	-2.9314844925	-0.0284679804	-0.546324
C	 0.2427460376	-2.6232270138	-0.0160979606	 0.290031
F	 0.4196225557	-3.933804928	-0.0519717469	-0.047569
N	 1.3200549213	-1.9389769732	-0.0013685159	-0.13434
O	 1.1696893204	-0.5562360956	 0.0365534275	-0.276615
H	 0.9213990605	 1.7477772865	-0.1430820303	 0.273398
H	-0.7692636542	 1.8941067864	-0.1039576804	 0.273171
H	-2.1793416826	-0.2273495943	 0.0574295429	 0.115899
H	-1.8797877276	-3.9064737977	-0.0563742569	 0.22293
107.0777	171.6998	292.6897	329.2059	347.6995	369.5977	439.9097	457.8523	501.2839	530.0895	600.0507	676.8681	723.7692	735.1473	795.675	827.8067	880.7923	946.6734	1030.1349	1111.4384	1146.0715	1280.1696	1319.7638	1390.5183	1452.7765	1626.6011	1661.0842	1687.675	1705.9735	3221.1427	3478.8205	3586.1416	3699.4811
NC1=CC(=N)C(F)=NO1	N[C]1C=C([NH])C(=NO1)F	
InChI=1S/C4H4FN3O/c5-4-2(6)1-3(7)9-8-4/h1,6H,7H2	InChI=1S/C4H4FN3O/c5-4-2(6)1-3(7)9-8-4/h1,6H,7H2
