23
gdb 107143	3.96061	0.9973	0.93342	0.3644	91.09	-0.2352	0.0891	0.3243	1396.1172	0.205535	-351.1199	-351.110851	-351.109907	-351.15354	35.643	
C	 0.0839389181	 1.5028992755	 0.2574635389	-0.37214
C	 0.0024792972	 0.0128922279	-0.1030490221	-0.293933
C	-1.4077283634	-0.5105017555	-0.1222140275	 0.398821
C	-2.1250830768	-0.9899351064	 1.1124690032	-0.329295
C	-1.9297747436	-1.9506666727	-0.0342332509	-0.205677
C	-2.942087978	-1.651884632	-1.1207646513	 0.408367
C	-3.2908641184	-2.5440176719	-2.2712121815	-0.340523
C	-4.3444932066	-2.1733962744	-1.2462916672	-0.323864
C	-2.4407271805	-0.195310205	-1.2248836086	-0.382038
H	 1.1199120591	 1.8560257013	 0.2512915612	 0.108714
H	-0.4801749939	 2.1133208407	-0.455981521	 0.117673
H	-0.3317541594	 1.6888260066	 1.253206315	 0.117675
H	 0.4655316485	-0.1494310644	-1.0858986934	 0.093828
H	 0.5936839694	-0.5709031841	 0.6141093485	 0.093633
H	-1.4884118703	-1.1627777476	 1.9756057884	 0.103447
H	-3.1225864395	-0.6319705027	 1.3585058083	 0.102014
H	-1.3703992635	-2.8740061109	 0.0725049655	 0.079407
H	-3.3616757126	-2.1041697497	-3.2614646783	 0.10771
H	-2.9103331561	-3.5609184068	-2.2639592115	 0.109267
H	-4.6735016622	-2.9393094269	-0.551023344	 0.109377
H	-5.1243745978	-1.4815379521	-1.548920157	 0.107792
H	-3.162871169	 0.598043445	-1.0011427872	 0.09083
H	-1.9721630205	 0.0158512562	-2.1915145175	 0.098917
74.7782	96.302	172.7488	223.6395	256.0728	282.7303	346.8135	376.0208	396.1331	473.4198	551.6837	664.5319	772.5352	778.9739	787.4359	844.838	858.1596	872.5976	919.7193	939.9664	945.3896	987.6218	990.1442	998.7631	1035.9752	1040.3622	1048.5836	1073.1903	1077.8202	1086.7882	1133.9651	1151.2086	1186.5932	1213.3317	1223.0582	1254.8285	1264.8398	1327.7422	1343.8539	1392.9548	1405.0459	1412.707	1462.7253	1479.1594	1479.7102	1497.7932	1498.7045	1507.0399	1508.6996	3009.9204	3029.1722	3032.7678	3044.6586	3080.8893	3099.5633	3100.8158	3104.6988	3117.0967	3122.8233	3164.5633	3189.043	3195.0416	3210.8394
CCC12CC1C1(CC1)C2	CC[C@]12C[C@H]1C1(CC1)C2	
InChI=1S/C9H14/c1-2-8-5-7(8)9(6-8)3-4-9/h7H,2-6H2,1H3	InChI=1S/C9H14/c1-2-8-5-7(8)9(6-8)3-4-9/h7H,2-6H2,1H3/t7-,8-/m1/s1
