13
gdb 101967	1.81281	1.52523	1.2955	3.989	64.06	-0.3067	-0.085	0.2218	1068.3726	0.08517	-452.73533	-452.725745	-452.724801	-452.770461	31.644	
C	 0.0510928025	 1.4479939882	-0.0250744448	-0.272379
O	-0.0128436008	 0.0212113317	 0.0725467787	-0.25075
C	-1.2954304517	-0.5345417218	 0.1152369839	-0.014463
C	-1.038736922	-2.0868716572	 0.1629318698	 0.157938
O	-1.7108545655	-2.8519599357	 0.777754348	-0.194303
C	-2.0741990705	-0.1032518102	 1.2937094884	 0.310372
N	-2.6406335363	 0.257566951	 2.2322868875	-0.3122
C	-2.0636392785	-0.2616529197	-1.1237186194	 0.281107
N	-2.6131421374	-0.0810930397	-2.1237424615	-0.308759
H	 1.1128377749	 1.6920990708	-0.0571431249	 0.157426
H	-0.4370898263	 1.7997451658	-0.9411371903	 0.150484
H	-0.411209562	 1.9225403156	 0.847468846	 0.152985
H	-0.1535155162	-2.3552785389	-0.4438538814	 0.142543
57.3914	102.4734	124.3987	148.7361	161.4244	186.3061	226.9981	271.4012	390.06	417.5582	474.3618	526.4339	573.4421	673.4271	716.9313	921.695	981.5615	1070.8385	1121.4517	1138.572	1182.6923	1225.2325	1374.9378	1477.849	1488.4394	1502.8287	1870.7802	2352.7395	2368.2888	2972.3144	3026.9253	3099.2634	3157.4572
COC(C=O)(C#N)C#N	COC(C=O)(C#N)C#N	
InChI=1S/C5H4N2O2/c1-9-5(2-6,3-7)4-8/h4H,1H3	InChI=1S/C5H4N2O2/c1-9-5(2-6,3-7)4-8/h4H,1H3
