22
gdb 53529	2.73025	0.92397	0.81334	1.091	91.4	-0.2203	0.0562	0.2765	1555.3449	0.190954	-367.164869	-367.153821	-367.152876	-367.202399	39.148	
C	 0.1447055729	 1.3689646528	 0.3984362777	-0.497665
C	 0.0678277572	-0.0529729619	 0.0934652501	 0.061029
C	 0.0131743217	-1.2290487693	-0.1606724865	 0.080096
C	-0.0685780194	-2.6574462304	-0.4605817782	-0.433454
C	-1.4372932045	-3.2731997564	-0.1459948199	 0.347583
C	-2.5771334647	-2.7137551373	-0.9734185182	-0.44407
C	-1.4706073143	-4.700279227	 0.2965086017	-0.302178
N	-1.8040107475	-3.6258010628	 1.2266850871	-0.101517
C	-0.8991253767	-3.3698861092	 2.3366204919	-0.316032
H	 1.05740373	 1.6081591309	 0.9556237646	 0.146575
H	 0.1471201616	 1.9743165182	-0.5148637082	 0.146583
H	-0.707174051	 1.692510616	 1.0067978908	 0.148021
H	 0.1374453547	-2.8198807605	-1.5272931306	 0.127571
H	 0.7208995731	-3.1926774419	 0.0773188901	 0.123594
H	-2.4221843467	-2.914872804	-2.0399346714	 0.10783
H	-3.5231249374	-3.1641220124	-0.6652039903	 0.122745
H	-2.6522843486	-1.629651318	-0.8417303338	 0.128534
H	-2.2876599916	-5.3561146562	 0.0038431897	 0.108131
H	-0.5123426536	-5.2049736478	 0.4254132268	 0.097698
H	 0.154814006	-3.6240127545	 2.1416585329	 0.096437
H	-0.948749393	-2.3114861493	 2.6080291624	 0.132132
H	-1.2282233583	-3.9620401689	 3.1968435314	 0.120355
20.7212	50.9867	85.9269	165.6258	187.3799	197.4727	227.1479	253.0297	307.0158	359.3161	377.626	387.5591	434.1688	442.326	522.6942	722.093	755.3451	787.0068	887.1315	910.4481	945.4121	998.5617	1051.022	1053.7866	1058.9147	1106.919	1117.7457	1154.1448	1163.7669	1167.0608	1200.0146	1229.1773	1280.5958	1328.6278	1394.0291	1414.8563	1416.3057	1448.2144	1466.3872	1479.0089	1479.6898	1483.4626	1487.95	1497.2291	1505.5267	1515.2226	2370.2898	2974.3	3018.1649	3025.9067	3032.5052	3063.2318	3068.716	3074.6496	3085.6352	3086.4554	3097.4873	3109.1771	3127.7826	3160.138
CC#CCC1(C)CN1C	CC#CC[C@@]1(C)CN1C	
InChI=1S/C8H13N/c1-4-5-6-8(2)7-9(8)3/h6-7H2,1-3H3	InChI=1S/C8H13N/c1-4-5-6-8(2)7-9(8)3/h6-7H2,1-3H3/t8-,9?/m0/s1
