21
gdb 109162	2.54378	1.21811	0.94043	2.2174	80.68	-0.232	0.0267	0.2586	1306.7631	0.18178	-424.233347	-424.223687	-424.222742	-424.267726	36.277	
C	-0.1215526152	 1.5779000595	-0.0175795295	-0.39683
C	 0.076031869	 0.0593260612	 0.0106482039	-0.104653
C	 0.86266746	-0.5096813531	-1.2081648573	 0.118473
O	 1.8702355387	 0.38497091	-1.6627743831	-0.431759
C	 1.482135978	-1.8206616322	-0.6715201405	-0.285479
C	 1.6310532345	-1.5329120377	 0.8045018991	-0.180134
C	 0.868101695	-0.5045923546	 1.1839485761	 0.310835
C	 0.707594059	 0.0184339629	 2.5747849262	-0.190446
O	 1.4975709041	-0.7445162102	 3.4693501287	-0.414696
H	 0.8345510415	 2.107129851	-0.0278606374	 0.115616
H	-0.6693392126	 1.8775612311	-0.9162496913	 0.118463
H	-0.6955393426	 1.9187194378	 0.8503775701	 0.106629
H	-0.9211519587	-0.4101654873	 0.0155331913	 0.079017
H	 0.2137696778	-0.6651131585	-2.0742379475	 0.077935
H	 2.5119234987	 0.4741793238	-0.9481142989	 0.27878
H	 0.8144017612	-2.6782206019	-0.839310033	 0.104941
H	 2.4215284262	-2.045340125	-1.1881067848	 0.105039
H	 2.2414067952	-2.1218929334	 1.4768713096	 0.107023
H	 0.9898971244	 1.0851340141	 2.6040364669	 0.097415
H	-0.3622598776	-0.0187456524	 2.8515491891	 0.094608
H	 1.4054868335	-0.3641763452	 4.3472511621	 0.289223
71.0834	104.3428	181.0558	206.9063	228.9211	241.9894	269.0994	275.9865	379.6069	407.9977	414.7654	517.3234	544.8107	677.2038	742.9996	793.2684	830.4108	856.7476	898.2277	964.4438	994.2775	1018.6877	1024.5111	1047.1235	1087.5414	1104.539	1128.0493	1171.4016	1185.8097	1218.67	1250.1135	1253.9963	1268.5921	1297.2917	1320.9274	1339.107	1357.7231	1409.8304	1434.4594	1466.343	1479.4066	1493.1312	1495.9991	1508.6841	1711.2419	2933.4378	2956.3336	2969.6671	3004.285	3039.2606	3066.2197	3080.5047	3102.3303	3119.7244	3220.6741	3786.9186	3838.2125
CC1C(O)CC=C1CO	C[C@H]1[C@@H](O)CC=C1CO	
InChI=1S/C7H12O2/c1-5-6(4-8)2-3-7(5)9/h2,5,7-9H,3-4H2,1H3	InChI=1S/C7H12O2/c1-5-6(4-8)2-3-7(5)9/h2,5,7-9H,3-4H2,1H3/t5-,7+/m1/s1
