21
gdb 71937	2.69681	1.87444	1.42414	1.613	80.88	-0.2362	0.081	0.3172	997.2724	0.184531	-387.076848	-387.069342	-387.068398	-387.10842	30.835	
C	 0.0084963917	 1.5395294123	-0.0864033531	-0.488657
C	 0.0185650394	 0.0242172959	 0.0389255345	 0.328807
C	 0.3474214546	-0.7553982768	-1.2818900567	-0.287205
C	-1.0026221697	-1.5211238101	-1.2028178873	-0.026095
C	-0.9522540927	-2.8256529585	-0.3724889866	-0.242029
C	-1.0085807958	-1.9858527662	 0.9356542542	 0.108087
O	 0.2703882641	-1.8021583817	 1.5370188714	-0.278506
C	 0.756756977	-0.4897379793	 1.2749945857	-0.120155
C	-1.3476054364	-0.7188353431	 0.1018993363	-0.108333
H	 1.0227084457	 1.929833944	-0.2338804323	 0.117206
H	-0.5943448715	 1.8619843394	-0.941477621	 0.116449
H	-0.4042037233	 2.0115356747	 0.8124977187	 0.115152
H	 0.4068836319	-0.0878190157	-2.1457483271	 0.096879
H	 1.2489829481	-1.3754566353	-1.2621028622	 0.097961
H	-1.6216472334	-1.5147044228	-2.0999334634	 0.063853
H	-1.8622028554	-3.419236939	-0.5035140355	 0.09584
H	-0.07932983	-3.4747113554	-0.4838213635	 0.098498
H	-1.7214684693	-2.3180550005	 1.6961567077	 0.072635
H	 1.842285634	-0.5500517512	 1.1319100861	 0.101479
H	 0.5636382685	 0.1694538048	 2.1375642585	 0.081942
H	-2.2701595675	-0.1708940456	 0.2913011856	 0.056192
109.93	221.489	242.1764	258.5463	362.9927	370.6764	408.4679	545.219	606.8624	654.6471	770.0345	778.2128	815.8703	858.8924	872.6762	908.8982	913.4571	935.4182	955.7327	975.5066	1000.5209	1019.5531	1033.2744	1079.9388	1111.0298	1138.5583	1166.6904	1173.2643	1187.7874	1214.5893	1226.7122	1247.5605	1258.5621	1277.7796	1285.6555	1296.0939	1313.3888	1347.7547	1397.2479	1412.8082	1464.9327	1480.0326	1494.1052	1496.2471	1518.7745	2964.3869	3021.4034	3045.6122	3046.6755	3050.4653	3058.1214	3084.8832	3093.7559	3096.7601	3103.1582	3108.6587	3117.228
CC12CC3CC(OC1)C23	C[C@@]12C[C@H]3C[C@@H](OC1)[C@@H]23	
InChI=1S/C8H12O/c1-8-3-5-2-6(7(5)8)9-4-8/h5-7H,2-4H2,1H3	InChI=1S/C8H12O/c1-8-3-5-2-6(7(5)8)9-4-8/h5-7H,2-4H2,1H3/t5-,6-,7+,8-/m1/s1
