19
gdb 39461	2.48843	1.84594	1.23373	2.8317	76.88	-0.227	0.0291	0.2561	1033.9241	0.16218	-419.175658	-419.16814	-419.167196	-419.207354	30.117	
C	 0.0998500793	 1.4294077274	-0.3149987413	-0.343863
C	 1.285069773	 0.6073823546	 0.1316363657	-0.026964
N	 1.7878622196	 0.782309836	 1.454829947	-0.277912
C	 2.5765780239	-0.352938356	 1.9287450802	-0.152458
C	 1.8061798281	-1.6728957117	 1.771702306	-0.159102
N	 0.5566517694	-1.686701233	 2.5060707255	-0.256482
C	-0.4956439255	-1.08277909	 2.1730722897	 0.152974
O	-0.8784987411	-0.3046477836	 1.117798439	-0.232469
C	-0.0790308343	-0.0289239154	-0.0041560278	 0.135139
H	-0.3154943508	 2.1079443634	 0.4213576952	 0.133466
H	 0.0501728609	 1.7630063459	-1.3448507445	 0.116797
H	 1.9949637197	 0.3240891019	-0.6540653773	 0.07337
H	 2.3067830607	 1.6479165213	 1.5432622747	 0.224706
H	 3.5365251392	-0.4673561008	 1.3918356314	 0.077589
H	 2.8050529438	-0.1894251092	 2.9873562834	 0.110177
H	 1.6737716345	-1.895366075	 0.7053091244	 0.101377
H	 2.4387602831	-2.4699260381	 2.1776615024	 0.102247
H	-1.3642446792	-1.1458405408	 2.8293924331	 0.116072
H	-0.2422355542	-0.7303037172	-0.8176209368	 0.105336
126.202	209.467	251.6088	274.4735	293.2529	355.0128	450.7366	488.2584	592.4369	600.6327	725.889	769.8872	799.8803	829.2607	841.0122	874.658	910.7158	966.2035	1000.6563	1033.7338	1052.5976	1069.8771	1094.115	1121.3291	1129.7334	1149.9309	1168.8683	1189.1745	1249.3625	1271.2248	1295.6216	1355.9315	1364.1506	1388.506	1419.02	1447.7382	1466.4538	1484.2946	1501.7562	1514.5375	1762.4723	2930.7558	3019.6398	3023.841	3054.4777	3070.8901	3134.6262	3140.9882	3145.5668	3237.7619	3539.4871
C1C2NCCN=COC12	C1[C@H]2NCCN=CO[C@@H]12	
InChI=1S/C6H10N2O/c1-2-8-5-3-6(5)9-4-7-1/h4-6,8H,1-3H2/b7-4-	InChI=1S/C6H10N2O/c1-2-8-5-3-6(5)9-4-7-1/h4-6,8H,1-3H2/b7-4-/t5-,6+/m1/s1
