14
gdb 31211	2.52064	1.51987	0.95391	3.6748	74.84	-0.2083	0.0025	0.2109	1161.7758	0.099656	-436.669901	-436.661524	-436.66058	-436.70385	29.734	
C	 0.038654668	 1.4718687392	-0.0857800185	-0.25325
O	 0.0134427347	 0.0426405342	-0.0233463863	-0.260015
C	 0.5806359228	-0.6253873533	-1.0157472412	 0.360391
C	 0.7143831802	-1.9713105487	-1.2350634563	-0.01392
N	 1.4030346914	-2.1312695492	-2.4479573357	-0.292269
C	 1.6313709563	-0.9402800075	-2.8655295701	 0.046923
O	 1.1560848286	 0.0509472142	-2.0393184896	-0.191428
C	 0.2658442099	-3.0379668234	-0.4305646744	 0.253663
C	-0.1208486344	-3.9431817722	 0.2628121201	-0.427443
H	 1.0672849033	 1.844813605	-0.0948784527	 0.143046
H	-0.4859508438	 1.8337562882	-0.9752059434	 0.143045
H	-0.4736770652	 1.8111377467	 0.8139085717	 0.150394
H	 2.1358107667	-0.6124319101	-3.7595070516	 0.153705
H	-0.4607358584	-4.742820063	 0.872269868	 0.187156
35.4737	123.3276	162.9005	173.2347	244.9797	300.0641	416.7174	463.3278	528.3287	555.5098	620.9048	650.7655	671.5815	728.3491	734.006	778.4293	940.6446	1023.707	1075.088	1136.1302	1175.7735	1191.5695	1240.8772	1310.3177	1405.1586	1487.5588	1489.1365	1499.0392	1575.4536	1663.4952	2236.9153	3039.7443	3111.33	3161.6705	3287.0967	3505.2873
COC1=C(N=CO1)C#C	COc1c(nco1)C#C	
InChI=1S/C6H5NO2/c1-3-5-6(8-2)9-4-7-5/h1,4H,2H3	InChI=1S/C6H5NO2/c1-3-5-6(8-2)9-4-7-5/h1,4H,2H3
