23
gdb 60489	5.89655	0.47267	0.45025	3.047	84.53	-0.2556	-0.0264	0.2292	2429.1235	0.201408	-425.43224	-425.420677	-425.419733	-425.470984	39.398	
C	-0.1112457882	 1.5504997128	 0.0642913178	-0.388579
C	 0.0049946635	 0.0201340464	 0.067256541	 0.037724
C	 0.878065798	-0.451686972	 1.2400367231	-0.382863
C	-1.3950482208	-0.6178693693	 0.0766552431	-0.185351
C	-1.4031370253	-2.1297194123	-0.1082753895	-0.062132
O	-2.7499833775	-2.556066952	-0.2164770846	-0.24823
C	-2.8901855952	-3.9416850664	-0.373488695	-0.143534
C	-4.3712957962	-4.2609621061	-0.4799209407	 0.139117
O	-4.8062038901	-5.3723222694	-0.6235132917	-0.238473
H	 0.8756312217	 2.0220449929	 0.0152597441	 0.110679
H	-0.696894834	 1.9049545451	-0.7902541088	 0.111892
H	-0.6044570393	 1.9070743666	 0.9764099752	 0.113922
H	 0.5033500794	-0.27915575	-0.866630852	 0.07288
H	 1.0565734116	-1.5310523554	 1.2185484684	 0.11314
H	 1.8553429789	 0.0417143678	 1.2209160276	 0.113196
H	 0.4046924083	-0.2108256439	 2.1996635813	 0.114056
H	-1.9087601472	-0.3731487739	 1.0154257488	 0.102022
H	-1.9980777687	-0.1839742579	-0.7298305327	 0.103956
H	-0.8449449989	-2.4099577839	-1.018515127	 0.088387
H	-0.9187211925	-2.641832186	 0.7381415877	 0.092291
H	-2.3832688024	-4.3124946922	-1.2813820787	 0.119758
H	-2.4678111753	-4.5032631848	 0.4779364117	 0.119922
H	-5.0243432898	-3.3629684762	-0.4123649991	 0.09622
36.3232	50.9514	73.0911	83.3035	118.2702	135.954	205.3439	225.6682	247.283	274.186	357.7616	400.6569	436.6548	490.9294	569.7057	740.2522	795.915	833.5539	927.3128	948.8677	966.0913	995.9674	1007.1552	1058.5539	1077.379	1114.9357	1159.1638	1171.7576	1191.8818	1195.9583	1234.7752	1253.6023	1302.7648	1314.9858	1345.8729	1365.101	1377.3102	1401.5511	1402.0095	1422.6878	1437.5797	1481.5442	1484.2404	1489.316	1498.5925	1505.6769	1511.1103	1528.1908	1844.8622	2898.4565	2949.6769	2959.0528	2981.2435	2990.3715	2994.7653	3024.1989	3025.6579	3031.4132	3069.2489	3090.0651	3095.9047	3101.1074	3104.0879
CC(C)CCOCC=O	CC(C)CCOCC=O	
InChI=1S/C7H14O2/c1-7(2)3-5-9-6-4-8/h4,7H,3,5-6H2,1-2H3	InChI=1S/C7H14O2/c1-7(2)3-5-9-6-4-8/h4,7H,3,5-6H2,1-2H3
