19
gdb 92066	2.74145	1.63165	1.16305	3.7569	76.2	-0.2288	0.0579	0.2867	1082.3451	0.161951	-419.242042	-419.233842	-419.232897	-419.274826	31.319	
C	-0.0906242136	 1.3840883505	-0.1661500252	-0.335379
N	-0.0109461	-0.0648396252	-0.1084093198	-0.133153
C	-1.2448221499	-0.757960935	 0.2355612991	-0.164754
C	-1.1914735469	-2.2383477819	-0.0693946924	-0.046206
C	-0.5934276722	-2.7480233775	-1.363131752	-0.312725
C	 0.1615921481	-2.8715104799	-0.0529671605	 0.023642
N	 1.260917607	-2.0024595089	 0.2499288033	-0.358815
C	 1.2413942939	-0.6322063654	 0.0462481879	 0.446572
O	 2.2778924731	 0.0115506473	-0.0027224707	-0.423611
H	 0.8879975267	 1.7708097178	-0.4439285593	 0.167748
H	-0.8366376121	 1.6847907027	-0.910389667	 0.115106
H	-0.3784163376	 1.8169170461	 0.8030411182	 0.114227
H	-1.481001582	-0.6237456744	 1.3049629106	 0.106031
H	-2.0594818451	-0.2813088996	-0.3251054709	 0.110825
H	-2.0161920988	-2.8018053219	 0.3547531812	 0.095661
H	-1.0183753252	-3.6444301646	-1.8011759607	 0.114634
H	-0.2306447852	-2.0155705517	-2.0758507804	 0.129729
H	 0.274795931	-3.8569634777	 0.3860911948	 0.102468
H	 2.1902059889	-2.3696400707	 0.1051540239	 0.248002
99.9297	124.6786	144.7845	213.7636	304.3187	357.7325	399.2511	445.897	525.3916	567.4233	594.151	723.5593	753.3237	766.1718	787.3346	837.8315	883.4486	974.277	1013.2841	1036.1495	1057.6367	1084.5777	1117.8653	1121.0566	1146.542	1163.1849	1203.6761	1243.8277	1285.6394	1297.3906	1327.3806	1383.8273	1419.5714	1433.8419	1444.179	1471.226	1496.163	1498.9585	1507.9112	1544.6748	1775.7203	2957.2643	2999.0715	3025.9667	3061.8998	3134.6362	3156.6276	3165.7369	3171.9327	3226.5625	3610.9193
CN1CC2CC2NC1=O	CN1C[C@H]2C[C@H]2NC1=O	
InChI=1S/C6H10N2O/c1-8-3-4-2-5(4)7-6(8)9/h4-5H,2-3H2,1H3,(H,7,9)	InChI=1S/C6H10N2O/c1-8-3-4-2-5(4)7-6(8)9/h4-5H,2-3H2,1H3,(H,7,9)/t4-,5-/m1/s1
