21
gdb 91559	2.693	1.25389	1.01803	0.6407	87.72	-0.247	0.0522	0.2992	1256.5537	0.181202	-349.898366	-349.889095	-349.888151	-349.9324	35.68	
C	-0.1567221003	 1.5269990937	-0.1266334306	-0.411011
C	 0.0857739926	 0.0226252734	-0.1111352355	-0.024021
C	 1.2936277699	-0.5741039649	-0.9163370883	-0.247417
C	 1.7928007005	-1.2534419209	 0.3640089547	-0.120396
C	 2.0597503439	-0.2126888098	 1.4184778583	-0.320531
C	 0.6412923626	-0.6412811038	 1.1654930456	 0.382497
C	-0.221774519	-1.2671025806	 2.2393266832	-0.477044
C	-0.9209575566	-0.280037577	 3.0613039345	 0.323761
C	-1.4932930707	 0.5453432078	 3.7220205231	-0.464173
H	 0.7434412857	 2.0845953289	 0.1519366465	 0.11276
H	-0.457371817	 1.8630364161	-1.1253746485	 0.109293
H	-0.9491898279	 1.8009524253	 0.5768765506	 0.127223
H	-0.8335850845	-0.4937858843	-0.4094393441	 0.070257
H	 0.9791631558	-1.2706113232	-1.6966093526	 0.099856
H	 1.9828697182	 0.1546072268	-1.3577574795	 0.093588
H	 2.2108736688	-2.2514750003	 0.4289261936	 0.082781
H	 2.4891280193	-0.5853958654	 2.3436090179	 0.10902
H	 2.413447509	 0.7767734127	 1.1387191103	 0.105316
H	-0.9611534423	-1.9353541703	 1.7760244761	 0.126475
H	 0.3991099801	-1.9027071984	 2.8843553102	 0.127242
H	-1.9977358781	 1.2687473943	 4.3131200245	 0.194526
56.0178	96.0544	177.7132	206.6147	239.4642	289.2546	342.5145	349.5466	407.817	453.1134	498.6251	616.4686	632.8825	665.6706	711.1819	808.1379	841.8421	874.7067	899.5503	925.3659	946.8332	955.5275	978.5227	1030.9513	1032.7436	1080.6848	1093.2188	1111.9128	1136.8853	1182.7595	1184.9138	1238.8179	1252.9601	1270.4289	1314.6043	1333.2065	1369.5942	1398.9061	1414.4885	1462.8807	1483.5583	1492.7629	1496.6976	1507.9636	2235.0516	3006.3697	3029.7235	3036.0308	3038.9708	3040.8753	3094.4152	3102.6307	3106.1027	3109.813	3173.7018	3194.2348	3506.3283
CC1CC2CC12CC#C	C[C@H]1C[C@H]2C[C@@]12CC#C	
InChI=1S/C9H12/c1-3-4-9-6-8(9)5-7(9)2/h1,7-8H,4-6H2,2H3	InChI=1S/C9H12/c1-3-4-9-6-8(9)5-7(9)2/h1,7-8H,4-6H2,2H3/t7-,8-,9-/m0/s1
