17
gdb 18379	3.40171	2.27863	1.49928	1.4799	75.73	-0.22	-0.0223	0.1978	845.0242	0.145344	-326.708675	-326.702172	-326.701228	-326.739041	26.231	
C	 0.0224910406	 1.558603021	 0.1167233012	-0.268095
C	 1.409644078	 2.072676452	-0.1751092119	-0.076046
C	 2.4931318561	 1.7423646356	 0.5422419877	-0.069623
C	 2.525959538	 0.8356214665	 1.689840341	-0.074018
C	 1.7385260508	-0.2266732849	 1.9186240774	-0.069846
C	 0.7361942186	-0.7884798922	 0.9771005474	-0.060473
N	-0.7083026096	-0.5876635652	 1.2602650558	-0.342833
C	-0.0935792946	 0.0431052614	 0.0758315276	-0.024687
H	-0.2647063904	 1.8630482729	 1.1315281373	 0.134086
H	-0.7060893321	 2.0074916442	-0.5656688028	 0.097381
H	 1.5224281954	 2.7859414088	-0.9874060244	 0.089669
H	 3.4384333427	 2.2234654253	 0.2987320396	 0.085853
H	 3.2933499373	 1.0570011855	 2.4303033474	 0.088878
H	 1.89494065	-0.7997967795	 2.8306859146	 0.090918
H	 1.006174908	-1.7785285566	 0.6062027313	 0.089311
H	-1.2206758483	-1.4220402946	 0.985858146	 0.228221
H	-0.3268289504	-0.3826402202	-0.8980287451	 0.081303
137.5724	242.399	318.9906	371.7696	391.5553	447.7768	562.7052	680.1274	701.4864	766.3866	820.5893	829.5552	855.4776	918.3011	929.169	953.6736	977.9349	995.9066	1008.5384	1014.9377	1053.7284	1121.2759	1158.9704	1207.1313	1231.5245	1243.7145	1259.0786	1284.9468	1341.6018	1381.815	1420.4326	1445.8121	1472.6349	1474.865	1673.7124	1704.3756	3027.3314	3076.799	3085.6445	3125.2221	3126.5138	3139.1966	3151.8173	3166.9445	3498.707
C1C=CC=CC2NC12	C1C=CC=C[C@H]2N[C@@H]12	
InChI=1S/C7H9N/c1-2-4-6-7(8-6)5-3-1/h1-4,6-8H,5H2	InChI=1S/C7H9N/c1-2-4-6-7(8-6)5-3-1/h1-4,6-8H,5H2/t6-,7+/m1/s1
