21
gdb 59504	2.53299	1.01256	0.80983	3.7882	80.6	-0.271	0.0022	0.2732	1477.1893	0.179791	-424.23977	-424.229539	-424.228595	-424.276248	36.5	
C	-0.3609156572	 1.2584137502	 0.0101615651	-0.385319
C	 0.1502415185	-0.1811147012	-0.1450866532	 0.015474
C	 1.0770751016	-0.3116155926	-1.3626495788	-0.391399
C	 0.8523022107	-0.6420946506	 1.121993161	-0.019057
C	 0.053771106	-1.1021565692	 2.327077518	-0.340017
C	 0.8587775671	-2.0881679299	 1.543873541	 0.099508
O	 0.1073782443	-3.0243943782	 0.7901051358	-0.182915
C	 0.8011610105	-3.9200419352	 0.059890702	 0.175288
O	 0.2708013812	-4.7337428266	-0.6344619787	-0.276013
H	 0.4697885293	 1.9546833439	 0.1762167477	 0.110745
H	-0.8914799877	 1.5841180234	-0.8903752183	 0.113819
H	-1.0459863519	 1.3485696922	 0.8587078863	 0.115054
H	-0.7143861001	-0.8367132234	-0.3041680056	 0.09282
H	 1.9692219965	 0.3153193318	-1.2453380358	 0.110744
H	 1.4110404286	-1.3437666193	-1.5075439331	 0.115197
H	 0.5675816499	 0.0054269976	-2.2780850349	 0.116885
H	 1.7728054823	-0.1030830167	 1.3406988529	 0.08725
H	 0.3803534946	-0.8400225318	 3.3269430224	 0.120544
H	-1.0222387425	-1.1671706889	 2.202733923	 0.134714
H	 1.7556410441	-2.5139632607	 1.985407945	 0.108391
H	 1.8966526543	-3.8229608146	 0.1878466584	 0.078287
27.0306	65.8931	109.2609	151.9551	206.0197	223.997	245.3914	258.5062	334.8787	352.4967	426.0784	487.687	562.5725	644.5101	757.2229	819.4053	875.4894	906.4421	932.5149	961.7717	987.794	1016.209	1042.5399	1053.3661	1074.8176	1122.8082	1143.728	1164.2939	1183.5037	1195.4904	1212.4941	1240.9282	1311.9246	1349.3332	1384.203	1400.8053	1416.265	1426.0694	1436.0773	1485.6413	1486.1329	1491.5143	1503.0892	1509.6095	1867.0155	2951.8712	3025.54	3028.657	3037.5216	3090.5184	3096.8725	3104.5304	3107.4193	3118.8963	3135.1999	3143.2128	3224.2514
CC(C)C1CC1OC=O	CC(C)[C@H]1C[C@H]1OC=O	
InChI=1S/C7H12O2/c1-5(2)6-3-7(6)9-4-8/h4-7H,3H2,1-2H3	InChI=1S/C7H12O2/c1-5(2)6-3-7(6)9-4-8/h4-7H,3H2,1-2H3/t6-,7-/m1/s1
