16
gdb 55211	2.58137	1.59256	1.06089	2.0998	71.6	-0.2484	-0.0588	0.1896	1088.5426	0.125565	-437.963877	-437.956038	-437.955094	-437.99671	29.735	
N	-0.1140639725	 1.342295456	 0.0269811683	-0.518737
C	 0.0946643741	 0.0003157345	-0.0467411305	 0.386341
O	 1.1819904196	-0.5156428433	-0.2169101856	-0.357102
C	-1.2052087511	-0.8248381097	 0.0445552839	-0.232216
C	-0.9770461766	-2.3377842491	 0.1564178332	-0.287502
C	-1.7450995676	-2.7362324652	 1.3880548996	-0.045714
C	-2.3430224173	-1.7053336284	 2.0010031552	-0.16101
C	-2.0655516397	-0.4555437092	 1.2740474981	 0.37416
O	-2.4258017319	 0.6678781327	 1.5648715707	-0.356113
H	 0.7054836927	 1.92505614	 0.0977574909	 0.257855
H	-0.9797163599	 1.6676793531	 0.4408011051	 0.276544
H	-1.7977407743	-0.5655730634	-0.8404407726	 0.135735
H	-1.3284659883	-2.8882231246	-0.7236782011	 0.122688
H	 0.0922253255	-2.5558086962	 0.2518501538	 0.16019
H	-1.7864811534	-3.7666917513	 1.7252744516	 0.123399
H	-2.9377579392	-1.7312349559	 2.9044660792	 0.121481
73.242	84.5341	224.1191	261.6877	335.2311	406.54	449.9846	518.2467	573.486	602.3295	614.0376	668.5187	713.0071	774.6686	790.0375	841.158	911.5654	951.4912	982.5842	1025.318	1066.4877	1114.4888	1142.2725	1167.8571	1187.1275	1199.3112	1266.4386	1320.8304	1348.8797	1368.3366	1472.6155	1626.2308	1643.8357	1784.4667	1801.4754	3043.6586	3054.4373	3081.4833	3192.3337	3232.477	3520.6104	3679.3712
NC(=O)C1CC=CC1=O	NC(=O)[C@H]1CC=CC1=O	
InChI=1S/C6H7NO2/c7-6(9)4-2-1-3-5(4)8/h1,3-4H,2H2,(H2,7,9)	InChI=1S/C6H7NO2/c7-6(9)4-2-1-3-5(4)8/h1,3-4H,2H2,(H2,7,9)/t4-/m0/s1
