22
gdb 6224	3.53823	1.43203	1.36702	1.4546	77.85	-0.2376	0.08	0.3176	1071.5398	0.199478	-350.23103	-350.222005	-350.22106	-350.264403	34.395	
C	-0.3280614921	 1.4663620478	-0.0219977671	-0.413777
C	 0.0681233715	-0.0061767082	 0.0420867084	 0.027322
C	 0.903821709	-0.5005664735	-1.143186464	-0.07872
O	 1.5203079904	-1.7002022022	-0.7091808608	-0.30028
C	 1.6995793227	-1.6799718948	 0.7277011306	 0.401538
C	 1.0322646701	-2.9435162726	 1.2801679611	-0.411572
C	 3.2007058952	-1.6784244008	 1.0283845214	-0.420172
C	 0.9963853485	-0.3849209908	 1.2081818573	-0.275353
H	 0.5579141658	 2.1092955718	-0.0799313548	 0.114727
H	-0.9496773955	 1.6742220489	-0.8996654191	 0.115402
H	-0.8982480765	 1.7642604562	 0.8637755813	 0.116957
H	-0.8391984608	-0.6212740671	 0.0962384113	 0.077523
H	 0.3115044931	-0.7232754717	-2.0370908684	 0.10057
H	 1.6577275229	 0.2582702925	-1.4191999701	 0.077504
H	 1.4349355348	-3.8289576717	 0.7796919522	 0.121013
H	 1.2091945025	-3.0436365906	 2.3562284414	 0.107153
H	-0.0480460062	-2.9202689824	 1.1076900979	 0.110429
H	 3.6843584841	-0.8141879747	 0.5631145119	 0.111693
H	 3.3842046218	-1.6342375546	 2.1075229637	 0.108567
H	 3.6719857275	-2.5847983164	 0.63645126	 0.118352
H	 1.7332194196	 0.4121411402	 1.3649404758	 0.092295
H	 0.4639890115	-0.5296377653	 2.1520893602	 0.098828
45.3067	149.8723	217.9727	226.4575	247.55	275.3396	319.5681	336.5581	402.803	437.5096	451.0397	538.0779	628.4365	776.7487	862.3182	869.5743	888.734	924.8883	937.5824	961.0687	982.4735	1006.4947	1063.674	1084.9851	1111.1256	1148.6212	1186.7236	1201.904	1232.9242	1264.2927	1287.6196	1313.7996	1336.1636	1357.8948	1396.4538	1404.3417	1412.1206	1416.8374	1475.565	1483.8842	1493.5708	1496.3058	1496.906	1499.8261	1505.6397	1524.9094	2943.6968	3020.4919	3026.1587	3030.2089	3034.1536	3038.7805	3064.9232	3090.4509	3095.4843	3098.8085	3101.4928	3107.3309	3111.1138	3114.965
CC1COC(C)(C)C1	C[C@H]1COC(C)(C)C1	
InChI=1S/C7H14O/c1-6-4-7(2,3)8-5-6/h6H,4-5H2,1-3H3	InChI=1S/C7H14O/c1-6-4-7(2,3)8-5-6/h6H,4-5H2,1-3H3/t6-/m1/s1
