19
gdb 12197	3.89915	1.4125	1.20331	4.257	75.61	-0.3009	0.0315	0.3324	1052.9681	0.165434	-327.943933	-327.935414	-327.93447	-327.976753	31.63	
C	 0.0423962898	 1.586771571	-0.116837724	-0.416236
C	 0.0795755444	 0.0719894907	 0.0109059025	 0.040088
C	 1.0600994399	-0.7338794072	-0.8825526678	-0.246856
C	 1.2822712369	-1.7107144468	 0.3118189955	-0.147593
C	 2.619026772	-2.2280398205	 0.5455457942	 0.273103
N	 3.6907506077	-2.6195111725	 0.736319175	-0.337969
C	 0.7174421353	-0.601887346	 1.2751347055	-0.017457
C	 1.7829587007	 0.2091679932	 2.0041437158	-0.401895
H	 1.0351949196	 2.0286805493	 0.0117852424	 0.120759
H	-0.3254763897	 1.8805776276	-1.1060308676	 0.119689
H	-0.6234771778	 2.034624988	 0.6289021163	 0.119257
H	-0.932720553	-0.3269410793	-0.1205171217	 0.078211
H	 0.6803627306	-1.1691905664	-1.8087767403	 0.112523
H	 1.9686635606	-0.1688195827	-1.1056066657	 0.121407
H	 0.5866246634	-2.5526248073	 0.2538591603	 0.12126
H	-0.0055009722	-0.9857448194	 2.0001553413	 0.079776
H	 2.5510054638	 0.5929830371	 1.3252516703	 0.12729
H	 1.3320847126	 1.063720346	 2.5181490516	 0.119101
H	 2.2904286853	-0.4064196546	 2.7528715163	 0.135541
73.3925	138.471	203.6075	227.1977	233.3033	257.3544	338.8478	353.9103	461.6957	532.6172	559.1959	648.6159	747.6597	788.9956	883.4335	901.8243	934.2418	991.4415	1010.4849	1042.5995	1046.9999	1116.6391	1138.1943	1160.162	1179.4755	1238.007	1247.2095	1277.2783	1291.2559	1335.2679	1366.2425	1382.7612	1411.2185	1419.4118	1488.217	1489.5685	1492.255	1501.219	1503.0502	2348.8638	3030.4538	3034.6596	3039.5275	3060.5994	3069.5527	3074.2456	3094.2376	3104.4718	3109.2235	3111.4375	3126.6788
CC1CC(C#N)C1C	C[C@H]1C[C@@H](C#N)[C@H]1C	
InChI=1S/C7H11N/c1-5-3-7(4-8)6(5)2/h5-7H,3H2,1-2H3	InChI=1S/C7H11N/c1-5-3-7(4-8)6(5)2/h5-7H,3H2,1-2H3/t5-,6-,7-/m0/s1
