20
gdb 126706	1.89146	1.87959	1.02939	5.8915	81.28	-0.2343	0.0265	0.2608	1210.6376	0.17083	-399.371331	-399.361713	-399.360769	-399.405871	34.579	
C	-0.0381646941	 1.6123058488	 0.0072986671	-0.380735
C	-0.0247375263	 0.0811384714	 0.0037310166	-0.164169
N	-1.3577745362	-0.5047101272	 0.0130970852	-0.087023
C	-2.1302096938	-0.8216524136	 1.1064614455	 0.341704
C	-1.6975707627	-0.6689494159	 2.5237815127	-0.51165
N	-3.289501679	-1.2904462982	 0.7168077414	-0.272124
N	-3.3005820955	-1.2872999142	-0.6630774437	-0.272123
C	-2.1476757391	-0.8167014875	-1.0691557505	 0.341703
C	-1.7378421572	-0.6575326225	-2.4925291856	-0.51165
H	 0.9859608853	 1.9974445646	-0.0000301185	 0.126935
H	-0.5576715131	 2.0023655438	-0.8723216433	 0.135935
H	-0.5435074844	 1.9983630786	 0.8968797825	 0.135936
H	 0.5017903388	-0.2917831987	-0.8795041054	 0.128105
H	 0.5158693903	-0.2957488466	 0.8767179736	 0.128106
H	-1.4744627296	 0.3725559748	 2.7813817276	 0.132875
H	-2.5099814168	-1.0154955476	 3.1639895371	 0.16371
H	-0.8046535622	-1.2642809761	 2.7478108435	 0.13394
H	-1.5189793079	 0.3851601603	-2.7489668748	 0.132878
H	-0.848585167	-1.2517083422	-2.7335405318	 0.133938
H	-2.5603914394	-1.0013049722	-3.1211823394	 0.16371
73.397	109.6099	150.7383	166.9963	180.3911	200.833	271.5698	292.7499	332.0718	408.2599	474.0973	596.1723	684.9525	696.274	701.9065	751.3274	801.7217	966.5199	997.0895	1011.1128	1036.0465	1064.0291	1068.9241	1089.4434	1101.8694	1175.2607	1265.6412	1301.7017	1386.9266	1402.2971	1408.5153	1411.1417	1413.1166	1451.3184	1478.5358	1481.9601	1482.6433	1485.9586	1491.6025	1501.0197	1513.2326	1563.6553	1576.3301	3029.6771	3030.8508	3046.1049	3060.1026	3079.616	3080.2455	3096.6617	3120.8828	3128.5518	3146.9038	3146.9759
CCN1C(C)=NN=C1C	CCn1c(C)nnc1C	
InChI=1S/C6H11N3/c1-4-9-5(2)7-8-6(9)3/h4H2,1-3H3	InChI=1S/C6H11N3/c1-4-9-5(2)7-8-6(9)3/h4H2,1-3H3
