19
gdb 124986	3.04251	0.98088	0.78975	2.7328	78.15	-0.2257	0.0258	0.2516	1441.7844	0.159936	-419.231098	-419.221518	-419.220574	-419.266869	33.731	
C	-0.1039894648	 1.5220772737	 0.1939842225	-0.506961
C	-0.0350551003	 0.0427273325	-0.0023310544	 0.280129
C	 0.0270010091	-0.7379760213	-1.1476985642	 0.109331
C	 0.061216309	-0.2844766591	-2.5757421658	-0.315686
C	 1.4847767702	-0.1131441641	-3.1115736106	-0.05817
O	 1.3908873513	 0.3121626204	-4.4619510887	-0.418384
C	 0.0801429775	-2.0661737983	-0.6587361603	-0.078569
N	 0.0514121874	-2.1226759923	 0.6676997992	-0.232391
N	-0.0153673894	-0.8291513603	 1.0407298441	-0.245096
H	 0.8693809262	 1.9490016808	 0.4641751989	 0.138915
H	-0.4325541824	 2.0125181166	-0.7254486775	 0.145765
H	-0.8127629255	 1.7908162498	 0.9849488796	 0.130701
H	-0.4580751035	-1.0057592236	-3.2164135935	 0.114156
H	-0.4639855615	 0.669921021	-2.6968799599	 0.105924
H	 2.0238598036	 0.6227359264	-2.4932897676	 0.082822
H	 2.0257514294	-1.0684159751	-3.0243545888	 0.090756
H	 2.2813821334	 0.3950653318	-4.8148504841	 0.285729
H	 0.1278390687	-2.9813933399	-1.2325414893	 0.104806
H	-0.0655856785	-0.6080457292	 2.0210863702	 0.266222
44.38	59.6174	95.094	119.4921	241.2611	251.6762	256.3798	343.5239	368.2951	415.0339	506.1681	657.8816	682.9766	699.0534	777.0788	796.1511	888.5517	949.9291	1000.332	1008.0542	1039.7283	1059.0733	1077.251	1140.4206	1180.3484	1221.7256	1239.4368	1248.883	1304.2499	1311.8675	1335.6549	1387.832	1416.195	1448.5465	1453.6529	1482.2865	1486.1199	1493.6731	1523.7308	1526.3857	1626.791	2967.2765	2997.2168	3027.348	3037.6674	3079.1789	3079.887	3119.9898	3232.9709	3666.1698	3831.5119
CC1=C(CCO)C=NN1	Cc1c(CCO)cn[nH]1	
InChI=1S/C6H10N2O/c1-5-6(2-3-9)4-7-8-5/h4,9H,2-3H2,1H3,(H,7,8)	InChI=1S/C6H10N2O/c1-5-6(2-3-9)4-7-8-5/h4,9H,2-3H2,1H3,(H,7,8)
