16
gdb 28369	3.25499	1.42294	0.99707	0.8421	80.42	-0.1984	-0.0322	0.1662	1147.2843	0.125279	-434.116542	-434.108323	-434.107379	-434.149113	31.302	
C	 0.0110168161	 1.5002780357	 0.0671949275	-0.472432
C	-0.074000611	 0.0200928537	-0.1021567074	 0.391782
N	 0.109583654	-0.5865370301	-1.2082404259	-0.299464
C	 0.011912273	-1.9681622467	-1.2177308339	-0.121013
C	-0.2627195202	-2.6983723884	-0.1054795292	 0.241379
N	-0.3112488774	-4.0705465146	-0.0143408556	-0.58518
C	-0.4996310345	-1.9796734866	 1.1453899253	 0.364346
N	-0.811418289	-2.5800445718	 2.221697025	-0.560424
O	-0.374935488	-0.6102825173	 1.079770343	-0.24875
H	 0.7875737843	 1.76262269	 0.7938393322	 0.144278
H	 0.242962846	 1.9572025557	-0.8940961077	 0.153084
H	-0.9349478825	 1.9022123005	 0.4457884355	 0.143218
H	 0.1784462644	-2.4448909712	-2.1784678264	 0.099701
H	-0.5189320033	-4.5788463364	-0.8592460692	 0.251952
H	-0.7791844224	-4.402417013	 0.8178594226	 0.272175
H	-0.9496858494	-1.9238635494	 2.9889586939	 0.225348
111.7691	143.2411	155.0811	294.2271	322.9595	349.2936	384.3495	424.7973	478.5278	528.0505	548.5723	565.9793	646.7724	735.0912	770.9755	780.0537	840.7766	892.8501	958.1993	983.5973	1060.8543	1094.9497	1110.2939	1204.2265	1243.5963	1279.5852	1355.645	1409.0873	1457.3558	1473.4223	1475.5894	1610.1215	1652.9518	1684.709	1737.5098	3041.1287	3094.4787	3164.935	3175.8719	3505.8699	3561.0339	3682.8209
CC1=NC=C(N)C(=N)O1	CC1=NCC(=C([NH])O1)N	
InChI=1S/C5H7N3O/c1-3-8-2-4(6)5(7)9-3/h2,7H,6H2,1H3	InChI=1S/C5H8N3O/c1-3-8-2-4(6)5(7)9-3/h7H,2,6H2,1H3
