14
gdb 42624	2.84018	2.00278	1.40438	5.3388	65.96	-0.2361	-0.0807	0.1553	880.6917	0.102187	-436.665057	-436.658593	-436.657649	-436.69605	25.285	
O	-0.0059733822	 0.0011386663	-0.00037188	-0.297321
C	-0.0305561838	 1.2021970225	-0.0005735172	 0.331294
C	-1.1937408333	 2.1256166613	 0.0178749323	-0.184766
C	-1.2072111827	 3.4034577583	 0.899095478	-0.08204
C	 0.1894455236	 3.7281042105	 1.4144125766	-0.205791
N	 0.731520233	 3.4947850807	 0.0044584954	-0.167281
C	-0.6765923759	 3.45966188	-0.4905152392	-0.050784
C	 1.2208411728	 2.1361448913	-0.0295304372	 0.281079
O	 2.3633902462	 1.7995674424	 0.0460213307	-0.273954
H	-2.1686969842	 1.7588069031	-0.2764777837	 0.129863
H	-2.1546541925	 3.7588179213	 1.2848267596	 0.117442
H	 0.3106424441	 4.7802385911	 1.6807886497	 0.140171
H	 0.6321152225	 3.0972155632	 2.191195397	 0.137631
H	-0.9817915775	 3.964851938	-1.3966247519	 0.124456
96.394	206.5139	317.2028	357.806	472.6992	508.3648	611.1812	641.9926	704.4278	742.3078	802.9712	825.9118	864.4948	902.2734	938.1152	965.9972	1001.7525	1019.171	1039.746	1050.9745	1082.3968	1100.2559	1163.5611	1207.0759	1230.5808	1301.0167	1309.6011	1362.3851	1512.7097	1846.1172	1876.1765	3057.1147	3117.7821	3193.6294	3206.866	3217.3986
O=C1C2C3CN(C23)C1=O	O=C1[C@H]2[C@H]3CN([C@@H]23)C1=O	
InChI=1S/C6H5NO2/c8-5-3-2-1-7(4(2)3)6(5)9/h2-4H,1H2	InChI=1S/C6H5NO2/c8-5-3-2-1-7(4(2)3)6(5)9/h2-4H,1H2/t2-,3+,4-/m1/s1
