19
gdb 72096	2.85426	1.75048	1.63142	2.1596	73.54	-0.2291	0.0831	0.3121	938.4302	0.161675	-423.03462	-423.027463	-423.026519	-423.065854	29.126	
C	-0.019602257	 1.4782776309	-0.0366312123	-0.486724
C	 0.0259608874	-0.0145827434	 0.0756133117	 0.456098
O	 0.2419502475	-0.6629415065	-1.1699396341	-0.286755
C	 0.4834294539	-2.0217120895	-0.8431252111	 0.165525
C	 1.3737243976	-1.9734146004	 0.4148455893	-0.254693
C	 0.71620153	-0.8206241346	 1.1519351679	-0.160702
C	-0.8046126202	-0.8310574496	 1.0320500553	-0.152196
C	-1.4708194111	-2.0873067352	 0.4962260226	-0.088298
O	-0.7264318183	-2.6880968455	-0.5698665476	-0.265285
H	 0.9113172079	 1.8614195767	-0.467024283	 0.127775
H	-0.8471487966	 1.7957010009	-0.6793757617	 0.130627
H	-0.1584623749	 1.9312427508	 0.9489185406	 0.11883
H	 0.9146731256	-2.5146978588	-1.7144865007	 0.091502
H	 1.3499733606	-2.9304202684	 0.9419555807	 0.110979
H	 2.410725367	-1.7354624853	 0.1565282153	 0.107294
H	 1.1971139643	-0.3533567176	 2.0028942505	 0.086963
H	-1.3692682053	-0.300175601	 1.7925491772	 0.088393
H	-1.5959165675	-2.8285011135	 1.2987930317	 0.100723
H	-2.4710497808	-1.84911068	 0.1113234279	 0.109945
145.2659	200.3994	216.3079	299.7	380.9706	439.9691	507.0467	554.4048	629.9548	687.1244	702.9144	791.455	837.4074	863.3835	887.4503	913.0332	920.1558	970.6073	979.5135	1015.4072	1060.7066	1075.3261	1085.68	1105.7229	1126.1634	1130.1825	1185.4755	1216.5128	1242.5224	1253.4299	1309.5999	1319.9443	1347.5993	1373.4526	1407.3961	1422.2519	1466.8875	1476.7098	1491.1784	1506.0127	1524.7141	2993.3337	3028.6931	3036.8794	3052.4283	3102.058	3106.0267	3117.5277	3123.6458	3155.0087	3181.6039
CC12OC3CC1C2CO3	C[C@@]12O[C@H]3C[C@@H]1[C@@H]2CO3	
InChI=1S/C7H10O2/c1-7-4-2-6(9-7)8-3-5(4)7/h4-6H,2-3H2,1H3	InChI=1S/C7H10O2/c1-7-4-2-6(9-7)8-3-5(4)7/h4-6H,2-3H2,1H3/t4-,5+,6+,7-/m1/s1
