19
gdb 105352	2.58074	1.50274	1.14953	1.3392	75.68	-0.2254	-0.0312	0.1941	1110.3768	0.158744	-419.149616	-419.140811	-419.139867	-419.183145	32.731	
C	 0.7651979827	-0.8599670781	 1.3395335378	-0.334285
N	 0.1122054051	-0.2276193856	 0.1891337531	-0.334362
C	-1.2475909742	-0.6749493968	-0.0255668835	 0.196579
C	-1.8097618575	-0.571971939	-1.4917782102	-0.222642
N	-2.0985591955	-2.0423713525	-1.5615110674	-0.12587
C	-0.7949845928	-2.7029766882	-1.3907999746	-0.238642
C	-1.4661066424	-2.184672373	-0.1836626914	-0.079646
C	-2.2605338073	-0.0487986664	 0.9200741217	 0.12179
O	-1.9977799914	 0.8495308196	 1.6795103384	-0.270122
H	 1.7733743768	-0.4496545029	 1.44185076	 0.122818
H	 0.2377865271	-0.7181040921	 2.2947229778	 0.115157
H	 0.8613811706	-1.9347109767	 1.1541330778	 0.126549
H	 0.0824723819	 0.7755608939	 0.354024219	 0.227368
H	-2.7353248571	-0.0001290989	-1.5869586282	 0.118875
H	-1.0761670854	-0.215789188	-2.2199674035	 0.122069
H	-0.8431103722	-3.7750343176	-1.553956026	 0.126486
H	 0.1022091183	-2.2126097427	-1.758656239	 0.13479
H	-1.8956643691	-2.8335985672	 0.5728761849	 0.102842
H	-3.2956282976	-0.4519816877	 0.8361306233	 0.090247
95.8848	112.7834	134.8556	185.8045	227.4996	287.7821	302.5205	410.5623	442.7718	456.8767	558.1419	744.7803	772.0045	785.1425	794.1607	853.3877	889.7508	927.2545	975.4144	1000.3084	1057.3695	1059.7549	1093.1122	1104.277	1118.5651	1149.7986	1166.7368	1193.9328	1216.1273	1229.1252	1281.658	1294.3235	1366.2762	1413.6545	1452.0178	1481.6233	1490.509	1492.5129	1504.4428	1523.4683	1819.6588	2873.149	2991.5541	3058.0083	3073.0797	3111.7907	3116.8821	3119.2602	3160.6777	3210.4673	3499.1558
CNC1(CN2CC12)C=O	CN[C@]1(CN2C[C@@H]12)C=O	
InChI=1S/C6H10N2O/c1-7-6(4-9)3-8-2-5(6)8/h4-5,7H,2-3H2,1H3	InChI=1S/C6H10N2O/c1-7-6(4-9)3-8-2-5(6)8/h4-5,7H,2-3H2,1H3/t5-,6+,8?/m0/s1
