17
gdb 92945	2.30466	1.53407	1.24972	4.2026	74.21	-0.2668	-0.0182	0.2487	1063.6829	0.136729	-418.020383	-418.011691	-418.010747	-418.053972	32.425	
N	-0.2689843422	 1.3263493454	 0.3782590455	-0.562015
C	-0.0051925168	-0.0741747821	-0.0187364114	 0.088809
C	 0.7734786401	-0.8075638177	 1.0554249591	-0.103767
C	-0.0106114852	-1.5951010211	 1.7879517853	-0.069005
C	-1.444440529	-1.5678368939	 1.3389846875	-0.300866
C	-1.3834086848	-0.8578288153	-0.041601221	 0.118169
O	-2.4676771604	-0.0244143211	-0.3316733465	-0.431372
C	 0.6777616984	-0.1360799696	-1.3216452606	 0.233277
N	 1.2122506163	-0.1607392471	-2.3471556554	-0.345804
H	 0.504169286	 1.6889055864	 0.9261054723	 0.245299
H	-0.3595346304	 1.9163588714	-0.4436561347	 0.25443
H	 1.8375201888	-0.6507062647	 1.1885266951	 0.117049
H	 0.3326104472	-2.1869349497	 2.6295592784	 0.112575
H	-1.8914157798	-2.5644631458	 1.2639944419	 0.119932
H	-2.071799547	-0.9957847607	 2.0344362712	 0.121269
H	-1.3428564695	-1.6094116943	-0.8342671352	 0.116936
H	-2.3402986216	 0.7633112099	 0.2185240587	 0.285086
62.246	112.0906	151.7502	175.6331	266.6855	302.3924	380.0172	473.5128	499.6737	523.5181	579.9743	593.706	609.5983	721.7738	755.5215	768.4687	867.3567	937.0486	973.9026	980.1632	1001.1926	1037.3423	1065.2254	1125.8028	1132.4622	1159.2431	1165.4043	1272.9589	1298.2477	1316.5368	1339.6171	1379.4274	1445.8349	1479.5286	1642.7388	1687.0201	2342.5209	3031.5909	3069.5044	3087.9495	3187.5674	3212.4897	3501.6902	3587.1872	3712.9391
NC1(C=CCC1O)C#N	N[C@]1(C=CC[C@H]1O)C#N	
InChI=1S/C6H8N2O/c7-4-6(8)3-1-2-5(6)9/h1,3,5,9H,2,8H2	InChI=1S/C6H8N2O/c7-4-6(8)3-1-2-5(6)9/h1,3,5,9H,2,8H2/t5-,6-/m1/s1
