23
gdb 100989	2.65303	1.01928	0.9559	2.5432	80.92	-0.2433	0.0683	0.3116	1380.193	0.203938	-425.401334	-425.390856	-425.389912	-425.43689	38.382	
C	-1.5266144748	-0.1853892474	-0.1166064991	-0.412883
C	-0.0008492571	-0.0866518885	 0.0206500115	-0.02927
C	 0.4699042124	-0.6751380515	 1.3537254565	-0.092188
O	-0.0547840733	 0.1360509	 2.3958941625	-0.421144
C	 0.7589144197	-0.6878750253	-1.1749225516	 0.301023
C	 0.5645968438	-2.1948370631	-1.3609241327	-0.469138
C	 0.6128668334	 0.0941542243	-2.5085596512	-0.121832
O	 2.039323812	 0.2597251213	-2.6249919081	-0.274869
C	 2.2492271666	-0.2664955083	-1.3010314012	-0.123189
H	-1.8782547326	 0.2939327255	-1.035961777	 0.111965
H	-1.8634618588	-1.2276370837	-0.1313605286	 0.1117
H	-2.0074059055	 0.3076897803	 0.7310201412	 0.136265
H	 0.2613126556	 0.9798139195	 0.0589596705	 0.084288
H	 0.1211967913	-1.714993892	 1.4533976684	 0.086631
H	 1.5716872451	-0.6931754152	 1.387942877	 0.08578
H	 0.1662206838	-0.2727320249	 3.2374649724	 0.286976
H	-0.4869156262	-2.451267393	-1.5232756787	 0.120115
H	 1.1279250099	-2.5417730423	-2.2331174649	 0.125201
H	 0.9193104122	-2.7608271843	-0.493085204	 0.115811
H	 0.1910071495	-0.4581811028	-3.3570732695	 0.096922
H	 0.0963925492	 1.0600070806	-2.4187525954	 0.09305
H	 2.5654219224	 0.5158880722	-0.5965232738	 0.092978
H	 2.9904694914	-1.0751299415	-1.2923048741	 0.095808
68.3431	79.1301	110.6293	172.262	224.8917	242.4296	251.4848	264.7818	298.8179	335.4326	346.0723	432.8269	455.9406	478.7374	705.5529	844.2235	862.0464	919.0977	929.9145	932.3841	948.6771	971.4981	1009.6491	1038.7312	1048.5264	1071.0189	1105.693	1159.7985	1163.223	1166.3053	1181.7005	1205.2274	1257.9692	1275.6019	1303.0633	1310.2752	1349.8143	1370.2217	1383.9132	1403.3533	1418.0114	1459.6319	1492.3319	1494.588	1497.1783	1510.6958	1516.8263	1521.8301	1536.1182	2960.3218	2988.1695	2991.157	3000.6839	3015.876	3033.4464	3038.5791	3045.9349	3049.6976	3099.1174	3099.5633	3107.4126	3128.3378	3833.7628
CC(CO)C1(C)COC1	C[C@@H](CO)C1(C)COC1	
InChI=1S/C7H14O2/c1-6(3-8)7(2)4-9-5-7/h6,8H,3-5H2,1-2H3	InChI=1S/C7H14O2/c1-6(3-8)7(2)4-9-5-7/h6,8H,3-5H2,1-2H3/t6-/m0/s1
