19
gdb 122053	2.51439	0.83202	0.64826	2.5179	74.76	-0.257	-0.0502	0.2068	1710.9303	0.154532	-460.170604	-460.159904	-460.15896	-460.208289	35.507	
C	 0.0936309003	 1.4322692368	-0.0036812853	-0.386155
C	 0.0234921954	-0.0827319809	-0.0803072957	-0.032164
O	-1.3378136947	-0.474503841	-0.0420352148	-0.256301
C	-1.5201495224	-1.8706317154	-0.1149238276	-0.079356
C	-3.0152561853	-2.1308504468	-0.0236155842	-0.195046
C	-3.3835414234	-3.5955664984	-0.2338809267	 0.139682
O	-2.588256038	-4.449573919	-0.525357822	-0.235244
C	-3.6230926598	-1.654954606	 1.2963213604	 0.151332
O	-4.8037849069	-1.6852232952	 1.5249702604	-0.249118
H	 1.1350450863	 1.7657445816	-0.0325042521	 0.119644
H	-0.439383718	 1.884527345	-0.8446730313	 0.129479
H	-0.360536776	 1.7922204952	 0.9238274667	 0.128326
H	 0.4925408442	-0.448418862	-1.008531735	 0.093034
H	 0.5708892807	-0.5417242811	 0.7596659393	 0.091196
H	-1.1160567735	-2.2848429299	-1.0494283385	 0.11452
H	-0.9964388061	-2.3807213495	 0.7113409786	 0.100511
H	-3.5431836608	-1.5684289447	-0.8077831623	 0.145046
H	-4.4613710621	-3.8122679295	-0.0882778209	 0.11681
H	-2.8872630799	-1.2992213292	 2.047721511	 0.103805
42.1519	66.214	77.257	101.0558	125.7187	143.7438	203.0985	241.0127	255.7268	345.7676	381.8768	444.7903	584.5955	678.9517	821.0686	828.8966	876.6866	900.2858	911.7454	1038.6217	1073.5327	1114.7598	1135.6387	1160.4884	1166.56	1189.5525	1217.5511	1246.5611	1298.0468	1305.2398	1383.5318	1404.4825	1410.572	1420.3886	1453.0521	1483.8314	1499.3735	1512.5094	1533.8442	1805.7026	1839.8902	2914.8147	2934.5724	2960.5059	2971.3007	2989.9922	3017.6527	3027.0429	3046.5748	3121.7317	3123.1525
CCOCC(C=O)C=O	CCOCC(C=O)C=O	
InChI=1S/C6H10O3/c1-2-9-5-6(3-7)4-8/h3-4,6H,2,5H2,1H3	InChI=1S/C6H10O3/c1-2-9-5-6(3-7)4-8/h3-4,6H,2,5H2,1H3
