19
gdb 61794	4.15422	0.74935	0.71716	3.0649	73.45	-0.2542	-0.0503	0.2039	1568.5232	0.154882	-460.181146	-460.170783	-460.169839	-460.217692	35.914	
C	-0.0365257208	 1.6694457375	-0.0858764089	-0.406036
C	-0.0132824689	 0.1400344809	 0.0472789507	-0.021117
C	 0.7625623876	-0.3049951559	 1.3039993294	-0.27712
C	 2.2367993024	 0.0175550298	 1.2053904412	 0.158217
O	 2.869911196	 0.6386970398	 2.0183187481	-0.23599
C	-1.4449102726	-0.4472479848	 0.0819363048	 0.047264
O	-2.1759678908	 0.0356514541	 1.1742868872	-0.433198
C	-2.1854190388	-0.1674596389	-1.211152785	 0.134483
O	-3.2590200882	 0.383957664	-1.2239278371	-0.260083
H	 0.9747267327	 2.085181631	-0.0580904302	 0.131096
H	-0.5008191277	 1.9873206473	-1.0251956789	 0.12103
H	-0.6058326547	 2.1076725028	 0.7379771954	 0.145894
H	 0.4859964644	-0.2943150083	-0.8322470751	 0.078369
H	 0.3483177082	 0.1539096159	 2.2047771743	 0.143119
H	 0.6815658004	-1.3970620318	 1.408756494	 0.116055
H	 2.7270233672	-0.3819792722	 0.2840888423	 0.067516
H	-1.3509200818	-1.5489518861	 0.1400468032	 0.092147
H	-2.9928579281	 0.4053200336	 0.8028839219	 0.298049
H	-1.6910500268	-0.5064316587	-2.1449134072	 0.100306
47.972	58.4943	89.8038	103.2815	193.3174	220.9007	271.404	278.777	287.2262	336.3008	415.143	459.5405	525.0495	632.123	733.3052	776.2063	828.3752	894.6978	938.0109	977.1751	1001.7164	1011.0418	1058.3166	1130.5185	1156.0398	1178.7012	1227.3187	1249.9098	1285.0236	1321.9204	1355.8204	1371.3691	1402.2444	1416.9545	1428.8722	1436.9318	1462.5459	1495.3535	1503.8392	1813.7371	1838.0238	2834.5088	2916.5596	2932.5214	2995.5725	3011.1639	3041.6389	3106.9152	3116.1584	3126.9079	3690.1369
CC(CC=O)C(O)C=O	C[C@@H](CC=O)[C@@H](O)C=O	
InChI=1S/C6H10O3/c1-5(2-3-7)6(9)4-8/h3-6,9H,2H2,1H3	InChI=1S/C6H10O3/c1-5(2-3-7)6(9)4-8/h3-6,9H,2H2,1H3/t5-,6-/m0/s1
