18
gdb 34451	3.54385	1.48347	1.24354	2.0151	81.88	-0.233	0.0374	0.2704	1035.0087	0.149091	-364.750414	-364.743108	-364.742164	-364.781812	29.813	
C	 0.041357347	-1.1134874418	-0.0062147964	-0.352737
C	 0.0241875106	 0.0887785288	-0.0109536669	 0.14803
C	-0.0183206809	 1.5228347472	 0.0341362425	 0.188448
C	-1.2254396762	 2.1985296814	 0.697507418	-0.313501
C	-1.416170944	 3.4797331776	-0.147898625	-0.207717
C	-0.057039164	 3.6465806633	-0.8139273363	 0.007595
C	 1.1068059524	 3.7546214191	 0.2088930505	-0.265409
C	 1.285845612	 2.2613016187	-0.007238743	-0.062234
N	 0.3933302146	 2.2395363021	-1.2191458096	-0.177508
H	 0.0605040974	-2.1749574439	-0.0168631036	 0.185417
H	-2.0967139759	 1.5419134334	 0.6611856692	 0.120597
H	-1.0255518363	 2.4189483497	 1.7503827947	 0.112653
H	-2.1876571029	 3.3267836517	-0.9092295385	 0.11372
H	-1.6983713994	 4.3518277	 0.4496917947	 0.104025
H	-0.0350135014	 4.3405651001	-1.6537491244	 0.084403
H	 1.9545163401	 4.3160284127	-0.1893704607	 0.116277
H	 0.8803617043	 4.1169604315	 1.2172005638	 0.100033
H	 2.2247464526	 1.7164101683	 0.0137218108	 0.097908
137.6629	156.1342	226.0809	355.2686	375.3097	497.2319	508.723	542.5062	603.26	615.0151	650.5321	711.5488	746.457	822.1597	844.8722	866.2828	895.7063	908.4096	958.6992	987.7231	1011.9639	1027.9562	1057.9814	1098.6084	1131.836	1167.836	1171.1781	1235.3495	1249.6405	1265.0498	1271.9967	1298.9943	1333.5158	1350.9866	1387.3154	1483.1937	1488.4315	1509.2512	2240.4355	3043.8365	3049.7289	3060.6903	3093.9235	3106.7262	3114.6195	3119.7201	3159.1606	3503.86
C#CC12CCC3CC1N23	C#C[C@@]12CC[C@H]3C[C@@H]1N23	
InChI=1S/C8H9N/c1-2-8-4-3-6-5-7(8)9(6)8/h1,6-7H,3-5H2	InChI=1S/C8H9N/c1-2-8-4-3-6-5-7(8)9(6)8/h1,6-7H,3-5H2/t6-,7-,8+,9?/m0/s1
