23
gdb 123191	9.94894	0.39343	0.38417	4.3687	89.06	-0.2462	0.0238	0.2701	2794.634	0.204932	-384.481653	-384.470475	-384.469531	-384.519466	38.54	
C	 0.047540272	 1.5739194407	 0.0046567792	-0.380641
C	 0.0116761214	 0.0434794381	-0.0007766592	-0.165093
C	-1.4113250646	-0.5253755979	 0.0130576429	-0.159553
C	-1.4511302911	-2.0567702666	 0.0115360024	-0.201682
C	-2.8720445897	-2.6173307808	 0.0152190729	-0.125241
N	-2.8591317746	-4.0784589486	 0.0539253161	-0.299105
C	-4.1979040221	-4.6511527921	 0.0102359424	-0.259393
C	-4.1487037429	-6.1160132661	-0.0008487306	 0.255616
N	-4.1116654035	-7.2699031683	-0.0336358761	-0.298288
H	 1.075483891	 1.9492027143	-0.0056489801	 0.113583
H	-0.4657768667	 1.9856203813	-0.87152338	 0.113784
H	-0.4454055636	 1.978631744	 0.8956113052	 0.114481
H	 0.5425750662	-0.3330395778	-0.885153541	 0.095679
H	 0.5622275537	-0.3401579059	 0.8681714609	 0.097933
H	-1.9433913607	-0.1483453502	 0.8976159939	 0.095215
H	-1.9627877238	-0.1426791067	-0.8571091599	 0.093646
H	-0.917730771	-2.4332064309	-0.8732086031	 0.093091
H	-0.9166145883	-2.4504614457	 0.8841815114	 0.113289
H	-3.405141601	-2.2647429129	 0.9087183949	 0.107079
H	-3.4310260107	-2.2224261983	-0.8551312878	 0.080964
H	-2.3144162786	-4.4380366677	-0.7240404494	 0.229264
H	-4.7474408406	-4.332058355	 0.9050433203	 0.156043
H	-4.8034311507	-4.3258930271	-0.8568058653	 0.129328
40.0829	66.7765	77.5295	102.8768	142.7599	153.147	162.4681	245.8368	258.3212	290.713	394.2461	412.6064	475.4073	579.7476	736.4306	770.6828	777.7479	861.4188	900.5303	939.7334	978.3855	1001.4714	1015.1736	1055.7905	1066.8149	1075.8634	1144.494	1148.5571	1181.705	1227.7863	1259.6691	1279.5148	1307.9577	1325.61	1335.8911	1341.7815	1372.3438	1402.0033	1413.2308	1425.3249	1485.283	1487.7619	1491.0846	1496.5415	1499.6447	1500.4435	1512.1259	1523.1732	2368.3584	2916.3486	2928.9033	3003.086	3007.0707	3018.015	3027.3926	3029.5584	3030.7742	3044.8034	3050.8645	3071.0117	3095.9541	3102.991	3515.2199
CCCCCNCC#N	CCCCCNCC#N	
InChI=1S/C7H14N2/c1-2-3-4-6-9-7-5-8/h9H,2-4,6-7H2,1H3	InChI=1S/C7H14N2/c1-2-3-4-6-9-7-5-8/h9H,2-4,6-7H2,1H3
