20
gdb 96665	3.10672	0.89212	0.79816	1.1632	85.43	-0.2434	0.0248	0.2681	1534.7687	0.166135	-403.122815	-403.111621	-403.110677	-403.160378	38.818	
C	-0.0269751144	 1.4755641257	 0.0238359463	-0.325972
N	-0.0470266778	 0.0239519449	 0.0185017605	-0.28756
C	 0.5197643161	-0.5949370808	-0.9305589847	 0.417462
C	 1.2304192967	-0.0112741229	-2.1255259033	-0.490694
O	 0.5538090502	-1.9492205353	-0.9719593454	-0.263372
C	-0.0612730812	-2.6607135658	 0.1274316384	-0.049419
C	-1.5540396347	-2.865625363	-0.1466759529	-0.401384
C	 0.6564204476	-3.9227898497	 0.2781870656	 0.331977
C	 1.2151313886	-4.9756123445	 0.4272843582	-0.445266
H	 0.9823175416	 1.8738608727	 0.201655436	 0.116694
H	-0.3912001591	 1.9151517482	-0.9160704033	 0.110431
H	-0.6686584838	 1.8395293175	 0.8304558129	 0.125349
H	 2.0773448825	 0.601138905	-1.7991167341	 0.144754
H	 1.5937384645	-0.8018924367	-2.7813837397	 0.145905
H	 0.5571488102	 0.6429487904	-2.6886998768	 0.143519
H	 0.0578494602	-2.0480943333	 1.0266110873	 0.135319
H	-2.0069265274	-3.437924852	 0.6674152698	 0.127464
H	-2.0457421548	-1.8933129305	-0.2130330562	 0.138227
H	-1.6954323856	-3.4150591603	-1.0807371893	 0.128748
H	 1.7186225103	-5.9011012496	 0.5603061907	 0.197819
36.9366	53.1377	80.1999	103.016	143.7817	180.6094	230.7602	261.6259	263.1538	310.5411	380.1233	425.2433	541.7775	550.7072	586.4652	616.1904	631.2611	670.7897	826.4088	844.857	930.9184	1016.1869	1050.4579	1051.5253	1098.8069	1114.9327	1117.575	1139.2632	1169.9276	1295.7825	1342.739	1364.8912	1395.4034	1399.8432	1444.8017	1478.6049	1481.7113	1485.7951	1488.7039	1496.2799	1512.169	1742.0395	2243.6166	2986.3732	3034.7454	3046.5293	3052.8443	3066.1303	3097.689	3103.2185	3129.891	3145.5122	3157.323	3504.8298
CN=C(C)OC(C)C#C	CN=C(C)O[C@@H](C)C#C	
InChI=1S/C7H11NO/c1-5-6(2)9-7(3)8-4/h1,6H,2-4H3	InChI=1S/C7H11NO/c1-5-6(2)9-7(3)8-4/h1,6H,2-4H3/t6-/m0/s1
