16
gdb 56414	4.00248	0.63244	0.57767	3.6348	83.43	-0.2687	0.0118	0.2805	1867.3788	0.12134	-363.56061	-363.550504	-363.54956	-363.598208	34.823	
C	 0.5032214404	 1.1648427627	 0.3594046738	-0.381729
C	-0.3393054222	-0.036040369	-0.137845697	-0.301756
C	-1.7461089849	 0.3627035938	-0.3221532728	 0.29002
N	-2.8466625914	 0.6903146247	-0.4466368305	-0.320051
C	 0.2020837902	-0.6216378845	-1.3661198836	 0.109367
C	 0.6732404088	-1.0941017905	-2.3653741704	 0.089717
C	 1.233788537	-1.673456311	-3.5880486308	-0.491338
C	 2.2817719441	-2.6637145632	-3.3355238526	 0.313435
C	 3.1429216614	-3.4764956347	-3.1396990461	-0.438284
H	 1.530472726	 0.8369760458	 0.5312869389	 0.140533
H	 0.5083489421	 1.9610898085	-0.3874660573	 0.148783
H	 0.0894381269	 1.5562039082	 1.2917208401	 0.139836
H	-0.3340872539	-0.805246893	 0.6467859583	 0.159513
H	 0.4261484941	-2.1362812568	-4.1714826144	 0.170587
H	 1.6346838155	-0.8708558635	-4.2220348547	 0.166776
H	 3.9035606659	-4.1966063374	-2.9648686609	 0.204589
7.775	64.5297	101.5917	139.0907	210.4028	231.8246	288.5983	297.478	321.6381	380.6042	461.9603	512.9714	576.5892	590.0221	627.6946	656.3379	757.3695	857.5071	933.8976	943.6585	997.9873	1073.8981	1090.653	1182.3532	1230.6483	1298.2431	1324.0727	1337.6312	1408.5087	1451.9462	1489.3136	1497.3023	2249.3435	2363.5609	2384.9374	3012.8663	3018.4101	3038.4217	3057.8844	3140.6624	3146.3855	3505.3953
CC(C#N)C#CCC#C	C[C@@H](C#N)C#CCC#C	
InChI=1S/C8H7N/c1-3-4-5-6-8(2)7-9/h1,8H,4H2,2H3	InChI=1S/C8H7N/c1-3-4-5-6-8(2)7-9/h1,8H,4H2,2H3/t8-/m1/s1
