20
gdb 12917	3.27663	1.54097	1.28858	1.9086	74.95	-0.2414	0.075	0.3164	1036.8873	0.177028	-348.97381	-348.965376	-348.964432	-349.006503	32.012	
C	-0.0498739296	 1.5467084954	 0.0596855589	-0.49488
C	-0.0055607748	 0.0451581124	 0.0154329586	 0.331848
C	-1.2612815226	-0.84614577	 0.0632930204	-0.283085
C	-0.5036381866	-1.8561497252	 0.9813078365	-0.227693
C	 0.7371404623	-0.9557880662	 0.9195694709	-0.128736
C	 1.1840610465	-0.7169469907	-0.5081372426	-0.077569
C	 1.1813975064	-1.7717033738	-1.5907022231	-0.089273
O	 2.2990716833	-2.6458720058	-1.482849969	-0.421354
H	 0.9433852094	 1.9692577625	 0.243727845	 0.11794
H	-0.4136499827	 1.9625508917	-0.88827828	 0.119787
H	-0.7184087087	 1.9021384887	 0.8526881285	 0.1144
H	-2.083452559	-0.3563174987	 0.5916904655	 0.100498
H	-1.6448515055	-1.2174261984	-0.8921227999	 0.096328
H	-0.9370386202	-1.9072887191	 1.9822769221	 0.103957
H	-0.3899977876	-2.8798734653	 0.6086372356	 0.093471
H	 1.3980807358	-0.7493678365	 1.7543716016	 0.081334
H	 2.0772106765	-0.0950275135	-0.5487419275	 0.087111
H	 0.2388485582	-2.3374066651	-1.5924748269	 0.087531
H	 1.2714366117	-1.3004916534	-2.5757415679	 0.107039
H	 2.3117892671	-2.9739548288	-0.5774006467	 0.281346
74.0727	162.5613	201.8184	216.8244	251.8679	290.9116	314.7846	351.2644	477.5325	535.4498	617.555	724.5858	789.4233	807.9712	884.6243	918.0008	950.414	952.6666	977.7937	1003.2129	1039.5124	1054.6025	1076.23	1113.4361	1145.1254	1158.1609	1200.1049	1223.8019	1238.8124	1247.8098	1266.4924	1304.686	1329.4307	1371.1928	1414.0247	1418.0819	1472.7843	1481.7656	1487.0849	1497.2563	1505.9411	1518.128	3002.2309	3016.9046	3040.8941	3050.5795	3062.9313	3073.6013	3089.7515	3093.7211	3109.3622	3123.9447	3167.434	3807.2262
CC12CCC1C2CO	C[C@]12CC[C@H]1[C@H]2CO	
InChI=1S/C7H12O/c1-7-3-2-5(7)6(7)4-8/h5-6,8H,2-4H2,1H3	InChI=1S/C7H12O/c1-7-3-2-5(7)6(7)4-8/h5-6,8H,2-4H2,1H3/t5-,6+,7-/m0/s1
