17
gdb 97822	5.21892	0.69138	0.66139	1.7091	77.98	-0.239	0.0172	0.2562	1688.0329	0.134643	-421.735393	-421.72657	-421.725626	-421.770523	31.668	
O	 0.1297085086	 1.4085318374	 0.4071503831	-0.400353
C	 0.0822207896	 0.0637582718	-0.0463147499	-0.195635
C	-1.2648831801	-0.504044795	-0.0612444011	 0.08304
C	-2.3926616813	-0.928478705	-0.0968747591	 0.072244
C	-3.7464617626	-1.4506790868	-0.1179314896	-0.074437
O	-4.3536182794	-1.5154632737	-1.4512999678	-0.292794
C	-4.6729810766	-2.8956722256	-1.249107898	 0.107933
C	-3.4312755565	-3.7142627632	-1.1007958444	-0.296532
C	-3.9793929342	-2.9542544819	 0.0886058338	-0.130106
H	-0.5033124319	 1.9115927963	-0.1159090947	 0.289512
H	 0.5253974244	-0.0397211886	-1.049872176	 0.122926
H	 0.7207074609	-0.5048413931	 0.6391017937	 0.143068
H	-4.3954761523	-0.8517990607	 0.5325324325	 0.111809
H	-5.6377702443	-3.246738248	-1.5944450833	 0.107819
H	-3.5805455165	-4.7882296937	-1.0466818824	 0.117062
H	-2.5154052418	-3.3940728023	-1.588502034	 0.126963
H	-4.2570156759	-3.4156274481	 1.0257032372	 0.107479
30.0846	75.2789	104.9233	149.0067	261.3551	310.5479	338.3468	434.0656	469.9481	535.9499	579.1649	720.8287	773.1117	805.3411	844.9452	929.948	953.9801	981.2066	985.2483	1004.9887	1039.6281	1047.7644	1050.8817	1065.7583	1084.7486	1167.796	1194.8464	1215.8873	1244.431	1277.3677	1355.4808	1357.4218	1359.6829	1417.653	1471.7584	1487.2264	2352.246	2977.0617	3030.5479	3062.5355	3121.6865	3187.9505	3209.2439	3217.7286	3816.0333
OCC#CC1OC2CC12	OCC#C[C@H]1O[C@H]2C[C@@H]12	
InChI=1S/C7H8O2/c8-3-1-2-6-5-4-7(5)9-6/h5-8H,3-4H2	InChI=1S/C7H8O2/c8-3-1-2-6-5-4-7(5)9-6/h5-8H,3-4H2/t5-,6+,7-/m0/s1
