16
gdb 69645	3.87098	1.1693	1.14386	2.7131	71.46	-0.2231	-0.0355	0.1876	1097.0988	0.12286	-437.802312	-437.794524	-437.79358	-437.834333	30.384	
O	-0.027379439	 1.3896143654	 0.1517759184	-0.452597
C	-0.014311456	 0.0159043353	 0.0410715794	 0.388405
C	-0.2246684144	-0.7429258382	-1.2411587549	-0.356383
C	-1.2061615515	-0.903651763	-0.0965722403	-0.189738
C	-0.6429682485	-1.8106732755	 1.0289307788	 0.247855
N	 0.7439968565	-2.243307589	 0.7043915017	-0.362951
C	 0.5489478585	-0.8891410231	 1.1816823398	-0.157762
C	-1.3382408717	-2.4157107738	 2.1630523215	 0.051116
O	-0.7825916782	-3.1076920767	 2.9924898787	-0.294508
H	 0.7665233868	 1.7366360292	-0.2717152303	 0.291671
H	-0.60806005	-0.1148048777	-2.0394838476	 0.119383
H	 0.423419255	-1.5560422615	-1.5425763796	 0.145938
H	-2.2547218988	-0.6493299348	-0.1774581312	 0.107219
H	 1.032602592	-2.8211991886	 1.4978784783	 0.255687
H	 0.9607791951	-0.5236686072	 2.1148655359	 0.124221
H	-2.4224966058	-2.1864060908	 2.2316863713	 0.082443
115.0358	184.0532	213.8539	288.5319	320.9454	367.9251	382.8598	428.6181	502.8897	554.9366	643.8901	730.7421	763.8259	818.0891	852.3621	859.9866	927.0725	946.2269	971.5513	1005.7689	1019.1043	1058.5173	1081.0419	1093.9421	1122.5675	1197.1324	1207.491	1266.1745	1286.5245	1350.2872	1367.2278	1404.9688	1433.6319	1483.6124	1767.2768	2909.8009	3138.3552	3196.3181	3205.4621	3235.8359	3444.5723	3780.3392
OC12CC1C1(NC21)C=O	O[C@]12C[C@H]1[C@]1(N[C@@H]21)C=O	
InChI=1S/C6H7NO2/c8-2-5-3-1-6(3,9)4(5)7-5/h2-4,7,9H,1H2	InChI=1S/C6H7NO2/c8-2-5-3-1-6(3,9)4(5)7-5/h2-4,7,9H,1H2/t3-,4+,5+,6+/m0/s1
