23
gdb 110322	2.0296	1.57506	1.06216	0.9962	86.88	-0.2342	0.0823	0.3165	1264.4583	0.204348	-388.258855	-388.24896	-388.248015	-388.293061	37.326	
C	-0.3460784175	 1.1464568659	 0.0350767189	-0.237116
O	 0.4699510154	 0.0184182736	-0.2067199488	-0.243488
C	 0.900116983	-0.5989307535	 0.9700369625	 0.10108
C	 0.1387794483	-1.6730667039	 1.7037291408	-0.185208
C	-0.6046148131	-2.6362270375	 0.7639255286	 0.050189
C	-1.8723796465	-2.1807303817	 0.0491344958	-0.413605
C	 0.711947582	-2.8401262847	-0.0549231877	-0.305405
C	 1.4776673139	-1.9662793686	 0.953527495	 0.275808
C	 2.8472746451	-2.2942934419	 1.4784491534	-0.497255
H	 0.1888433239	 1.912525412	 0.6173143694	 0.104942
H	-0.6144517943	 1.5667420009	-0.9371870561	 0.124512
H	-1.2640227372	 0.8781844419	 0.5772687842	 0.110865
H	 1.4182972481	 0.0891325923	 1.6440090179	 0.075213
H	-0.0415048091	-1.5955646924	 2.7719173426	 0.072342
H	-0.8180838864	-3.5580253876	 1.315521176	 0.07066
H	-1.6763610676	-1.3153124207	-0.5870127533	 0.132335
H	-2.2704961138	-2.9821887778	-0.5839628856	 0.106753
H	-2.6544777803	-1.9106917471	 0.7682379343	 0.104931
H	 1.0529776804	-3.8782287297	-0.0644224553	 0.093385
H	 0.7023630194	-2.4593481371	-1.0796444225	 0.106709
H	 3.6064383546	-2.1829547916	 0.6941896789	 0.122677
H	 3.1281175431	-1.6349130871	 2.3063265079	 0.114668
H	 2.8977915687	-3.327381534	 1.8415574031	 0.115007
106.4945	138.6745	170.1705	176.5732	205.812	218.0955	245.633	263.2766	306.0399	377.4499	410.0753	508.7509	566.5003	635.729	720.3334	805.5697	864.3519	875.5608	891.0849	964.552	975.3244	980.7048	1014.3812	1041.0367	1078.0346	1099.6859	1118.8695	1131.4098	1166.7401	1183.3695	1192.6431	1227.1416	1242.9564	1263.0333	1275.942	1310.4893	1350.5179	1375.3987	1403.559	1414.3834	1453.7395	1480.1467	1485.7875	1486.2884	1491.1486	1495.1585	1500.437	1510.8082	1516.2249	2980.9352	3017.6449	3027.4647	3033.102	3039.3172	3058.5527	3063.2554	3075.9554	3083.7154	3093.5129	3110.0369	3114.9127	3133.5048	3150.2796
COC1C2C(C)CC12C	CO[C@H]1[C@H]2[C@@H](C)C[C@@]12C	
InChI=1S/C8H14O/c1-5-4-8(2)6(5)7(8)9-3/h5-7H,4H2,1-3H3	InChI=1S/C8H14O/c1-5-4-8(2)6(5)7(8)9-3/h5-7H,4H2,1-3H3/t5-,6+,7-,8+/m0/s1
