18
gdb 120423	3.14344	0.89878	0.78566	0.2561	69.83	-0.2668	0.0096	0.2764	1459.1557	0.146189	-476.20732	-476.197648	-476.196704	-476.242771	34.082	
O	 0.0637246491	 1.2976149873	 0.2995118018	-0.415945
C	-0.0020670794	-0.1043267583	 0.1015178967	-0.068777
C	-1.440569759	-0.6033906931	-0.0666431555	-0.210304
C	-1.5150218028	-2.0868215108	-0.348835785	 0.082312
O	-1.0194237839	-2.9008907731	 0.7886229179	-0.267345
C	-2.2634592226	-3.4401721718	 0.9976836917	 0.39707
N	-2.7247538211	-4.1640968682	 1.9117518428	-0.552634
C	-2.8965259646	-2.7825964514	-0.2128211412	-0.011964
O	-3.9966616767	-1.9470883833	 0.0331099554	-0.424367
H	-0.3518207383	 1.49625704	 1.1446362025	 0.283021
H	 0.5717128623	-0.3009066477	-0.8113750544	 0.111201
H	 0.4888183069	-0.6538321919	 0.9179072872	 0.107405
H	-2.0286131379	-0.3796509827	 0.8307352053	 0.103425
H	-1.9160615597	-0.0666747316	-0.8958072509	 0.124689
H	-0.9556163737	-2.3635231753	-1.2473982925	 0.097561
H	-2.0230611662	-4.3826162437	 2.6208510293	 0.233036
H	-3.1014301229	-3.4867173616	-1.0297794728	 0.106322
H	-4.4978769195	-2.3434238229	 0.7553578715	 0.305294
58.4514	90.8391	111.1533	120.6432	166.289	250.3716	271.6352	298.3032	353.6133	414.0167	499.641	560.6378	673.7801	754.3463	796.5152	853.7612	872.4325	893.8635	934.9198	1025.744	1029.9404	1064.8068	1077.8458	1116.2797	1145.8447	1184.241	1216.7589	1236.3786	1268.5879	1309.4934	1337.8519	1368.3202	1385.0718	1387.1019	1415.0103	1423.349	1473.129	1513.9063	1825.213	3002.0892	3021.9886	3042.4222	3061.1834	3069.9502	3094.0334	3479.4439	3801.4807	3816.9814
OCCC1OC(=N)C1O	OCC[C@H]1O[C]([NH])[C@H]1O	
InChI=1S/C5H9NO3/c6-5-4(8)3(9-5)1-2-7/h3-4,6-8H,1-2H2	InChI=1S/C5H9NO3/c6-5-4(8)3(9-5)1-2-7/h3-4,6-8H,1-2H2/t3-,4+/m1/s1
