14
gdb 69888	2.82695	1.65857	1.21141	3.8847	66.78	-0.2575	-0.013	0.2444	982.1136	0.099421	-436.604923	-436.597454	-436.596509	-436.636684	28.939	
O	-0.1750213424	 1.4212347267	-0.0262316726	-0.434503
C	-0.0508252024	 0.0565640839	-0.0161134338	 0.314895
C	-0.2048733785	-0.8572646936	-1.1958538889	-0.352465
C	-1.1658100733	-0.9627013555	-0.0212298872	-0.152996
C	-0.4979751922	-1.6770780293	 1.188622748	-0.05042
O	 0.835732642	-2.0748554706	 0.8551076991	-0.26517
C	 0.6035253487	-0.704630053	 1.2105824999	 0.230531
C	 1.3375752734	-0.1040025723	 2.2743748715	 0.214415
N	 1.9289347566	 0.4299914484	 3.1128560843	-0.338598
H	 0.6183850255	 1.8037967662	-0.4204429524	 0.300959
H	-0.6427073491	-0.3639136694	-2.0578725003	 0.129936
H	 0.5035456842	-1.6470006786	-1.4115767914	 0.14547
H	-2.2306900496	-0.8025089102	-0.1104678214	 0.119014
H	-0.9864020629	-2.1924807328	 2.0059097353	 0.138933
127.318	136.0969	269.8512	320.695	340.9726	402.6321	446.5494	495.0464	537.1242	580.434	591.728	659.7273	788.0012	808.6269	861.432	914.8251	926.5407	942.5689	997.5438	1018.1342	1026.8548	1091.9714	1118.2161	1202.9284	1227.4345	1258.5096	1301.7467	1400.2882	1416.6889	1486.8251	2353.5718	3141.7556	3206.1399	3226.1155	3237.6571	3778.2471
OC12CC1C1OC21C#N	O[C@]12C[C@H]1[C@H]1O[C@@]21C#N	
InChI=1S/C6H5NO2/c7-2-6-4(9-6)3-1-5(3,6)8/h3-4,8H,1H2	InChI=1S/C6H5NO2/c7-2-6-4(9-6)3-1-5(3,6)8/h3-4,8H,1H2/t3-,4+,5+,6+/m0/s1
