18
gdb 48772	3.34801	1.415	1.24183	3.4428	75.79	-0.2408	-0.0216	0.2191	1045.1073	0.148474	-401.922624	-401.915184	-401.91424	-401.954393	29.483	
O	-0.8932384797	 1.1807933631	-0.3241073039	-0.280813
C	 0.221339703	 0.8849446678	 0.0400346128	 0.09643
C	 1.3741667834	 1.8178918502	 0.0348866848	 0.231366
C	 1.0802498692	 3.3110099708	 0.057747262	-0.326879
C	 1.6222843018	 2.7087727581	-1.1937478668	-0.054991
C	 3.1325407838	 2.6897283867	-1.4346599861	-0.266752
C	 3.7137681913	 1.7731821802	-0.3525171482	-0.016144
C	 3.6265368421	 2.1535261078	 1.0806339562	-0.256429
N	 2.6278592204	 1.2447060642	 0.5025780297	-0.163007
H	 0.4757691409	-0.1341778396	 0.3994997224	 0.084937
H	 0.0213625908	 3.5469545512	 0.063338697	 0.144311
H	 1.6976152197	 3.9655182992	 0.6611377107	 0.120645
H	 0.953840076	 2.6231613263	-2.0432491019	 0.114039
H	 3.3421311617	 2.2692601197	-2.4221877599	 0.118719
H	 3.5730366725	 3.6926330044	-1.4132965239	 0.117463
H	 4.4716441503	 1.0571239479	-0.6599371401	 0.097781
H	 4.2903093245	 1.6849146976	 1.8023056263	 0.121059
H	 3.3416769685	 3.1675867145	 1.340790529	 0.118264
109.5371	186.3697	211.0675	267.0464	321.0104	413.9422	452.0316	529.3704	656.4709	676.1875	719.7454	785.3777	814.6807	841.6473	854.6147	871.4304	921.6322	962.0105	1015.4008	1044.7327	1058.6716	1073.4133	1092.4048	1101.3757	1114.259	1123.0214	1162.4183	1192.666	1223.3663	1269.1088	1295.0953	1309.9014	1367.5076	1393.941	1407.646	1466.0388	1489.1597	1516.1647	1803.2615	2918.1564	3047.8039	3090.9044	3115.8239	3138.244	3141.6328	3176.4809	3198.889	3230.9824
O=CC12CC1CC1CN21	O=C[C@]12C[C@H]1C[C@H]1CN21	
InChI=1S/C7H9NO/c9-4-7-2-5(7)1-6-3-8(6)7/h4-6H,1-3H2	InChI=1S/C7H9NO/c9-4-7-2-5(7)1-6-3-8(6)7/h4-6H,1-3H2/t5-,6+,7-,8?/m1/s1
