21
gdb 109237	2.52579	1.37452	1.02739	1.533	84.45	-0.2147	0.034	0.2487	1233.8187	0.182339	-387.089243	-387.080161	-387.079217	-387.122743	34.874	
C	-0.0178872069	 1.5448709998	-0.0042688353	-0.492276
C	 0.0524543938	 0.0347963465	-0.0268128186	 0.263777
C	-0.8336436699	-0.7918580856	 0.888763364	-0.318935
C	 0.6624621076	-0.7985727414	 1.0908101389	-0.078619
C	 1.4735186695	-1.9253182048	 0.4546412531	-0.277569
C	 1.1880873408	-1.7703321772	-1.0236406246	-0.17568
C	 0.4420057565	-0.6935032246	-1.2846200454	 0.258025
C	-0.0333162527	-0.2373487196	-2.6267742462	-0.189675
O	 0.4411505018	-1.1173253766	-3.6302456167	-0.414072
H	 0.9231811679	 1.9958513959	-0.3400364888	 0.117764
H	-0.8191529103	 1.9253732341	-0.6492348892	 0.114472
H	-0.2178599638	 1.9087768795	 1.0084234155	 0.11499
H	-1.4232581377	-0.2579612729	 1.6283235959	 0.101419
H	-1.3137106284	-1.6751689299	 0.47908565	 0.10758
H	 1.0476577276	-0.3137688325	 1.9811557413	 0.079151
H	 2.5458768697	-1.8202866442	 0.6709625661	 0.102509
H	 1.1822487699	-2.9151553301	 0.8308442776	 0.10483
H	 1.5310278743	-2.4722323874	-1.7727045626	 0.104416
H	-1.1376948554	-0.1916105363	-2.6224554364	 0.095055
H	 0.3125366685	 0.7958933818	-2.8066270239	 0.094682
H	 0.1403930875	-0.7875193846	-4.4814194746	 0.288156
83.5401	153.484	183.0035	220.9821	225.4267	269.0344	281.8172	299.7605	414.6689	448.4997	544.9123	596.7673	704.1235	734.3409	818.0351	819.3958	828.4367	885.2033	950.6991	968.2323	972.1675	1031.1498	1045.8329	1053.4421	1069.3635	1087.2564	1102.3324	1119.2464	1151.3118	1191.6049	1209.2085	1252.4002	1262.2883	1275.7655	1315.6759	1349.6334	1392.1775	1416.861	1466.7885	1475.5117	1487.4328	1490.091	1501.742	1509.6825	1711.1158	2935.8707	2951.5718	3006.5981	3020.131	3033.1792	3076.9054	3097.9564	3114.5046	3166.955	3202.949	3221.63	3838.9894
CC12CC1CC=C2CO	C[C@]12C[C@H]1CC=C2CO	
InChI=1S/C8H12O/c1-8-4-6(8)2-3-7(8)5-9/h3,6,9H,2,4-5H2,1H3	InChI=1S/C8H12O/c1-8-4-6(8)2-3-7(8)5-9/h3,6,9H,2,4-5H2,1H3/t6-,8+/m1/s1
