20
gdb 13024	2.53406	2.43368	1.60065	1.4791	74.43	-0.2465	0.0873	0.3338	900.4715	0.177451	-349.011027	-349.003108	-349.002164	-349.04264	30.942	
C	 0.0301409906	 1.5451684389	-0.0660028794	-0.404137
C	 0.0503831412	 0.0282956691	 0.0403996922	 0.08722
O	 0.750066628	-0.4956534115	-1.0903358297	-0.270748
C	 1.2293168952	-1.7949681932	-0.7588438602	-0.096163
C	 1.5272269934	-1.7462228244	 0.7280307137	-0.102227
C	 2.2640783672	-0.5169287112	 1.2013153293	-0.333559
C	 0.7552660639	-0.5620479956	 1.2628361072	 0.340507
C	 0.0250039324	-0.5663674246	 2.5825156023	-0.491444
H	 1.0451609678	 1.9502177658	-0.0250655732	 0.121283
H	-0.4273353215	 1.8539050685	-1.0100394888	 0.124327
H	-0.5520028307	 1.9784435273	 0.7534287049	 0.113283
H	-0.9895826396	-0.3477762759	 0.0407629255	 0.057568
H	 0.4700088895	-2.5664480205	-0.9696565025	 0.087806
H	 2.1017512704	-1.9906122866	-1.3918285271	 0.10501
H	 1.6034651752	-2.6745984552	 1.2829295332	 0.083362
H	 2.7966724547	-0.5873598039	 2.1437821283	 0.105347
H	 2.7428900434	 0.1102431022	 0.4557101565	 0.118887
H	-0.1343365836	 0.4517544145	 2.9569791565	 0.120303
H	-0.9581483314	-1.0435519863	 2.4919808816	 0.116263
H	 0.5907453839	-1.1100536274	 3.3453028696	 0.11711
147.9292	204.78	211.9771	229.322	253.776	299.0629	378.6007	410.3584	530.016	566.8925	670.5421	719.3691	830.5745	848.7859	887.1378	900.4373	935.602	974.2306	1015.0465	1053.8846	1061.5351	1088.1291	1090.845	1102.712	1126.0306	1142.5966	1153.192	1238.3818	1263.6023	1301.9149	1337.4467	1367.9906	1386.0727	1407.9182	1410.7254	1423.6423	1483.5189	1485.8364	1489.8182	1495.7634	1504.0148	1517.4671	2926.6168	2966.2156	3021.3734	3042.7973	3061.9368	3078.3183	3099.0696	3114.544	3121.12	3125.8899	3174.1645	3212.4703
CC1OCC2CC12C	C[C@H]1OC[C@H]2C[C@@]12C	
InChI=1S/C7H12O/c1-5-7(2)3-6(7)4-8-5/h5-6H,3-4H2,1-2H3	InChI=1S/C7H12O/c1-5-7(2)3-6(7)4-8-5/h5-6H,3-4H2,1-2H3/t5-,6-,7+/m1/s1
