19
gdb 19533	3.67402	1.47096	1.4551	2.6477	70.34	-0.2207	0.0686	0.2893	971.2439	0.167341	-365.032209	-365.024518	-365.023574	-365.064708	29.125	
O	 0.2008415607	 0.9838445816	-1.0380636751	-0.425164
C	 0.2038292402	-0.1228587741	-0.1450032033	-0.115329
C	-1.233096639	-0.62043631	-0.0870176167	 0.016478
C	-1.6569083376	-2.0421061911	-0.2067680947	-0.041132
C	-0.6253606706	-3.1457559662	-0.0185741466	-0.22357
C	 0.0688740972	-2.8153159248	 1.3252000478	-0.236751
C	-0.9395538769	-1.8908890844	 2.0530650748	-0.152354
N	-1.8572973915	-1.307220148	 1.0605729486	-0.120617
H	 1.1021150757	 1.3119842258	-1.1074032421	 0.286194
H	 0.8894417336	-0.9045292792	-0.5017985127	 0.093322
H	 0.5446154904	 0.1838876603	 0.8573712235	 0.094338
H	-1.8964835053	 0.1307673649	-0.5105733844	 0.106726
H	-2.5530679893	-2.2843936644	-0.772739594	 0.085407
H	-1.143697968	-4.1086999055	 0.0365746885	 0.107112
H	 0.0838299354	-3.214321686	-0.8502129958	 0.105566
H	 0.2893120038	-3.7146124336	 1.9061985117	 0.100835
H	 1.0221856079	-2.3065652795	 1.161888806	 0.105205
H	-1.5590701706	-2.4680028452	 2.7479689753	 0.108591
H	-0.4516053462	-1.1040473006	 2.6372992494	 0.105144
41.8505	185.8114	205.9951	224.0847	259.3343	358.2972	436.6694	511.3965	672.935	690.0338	722.9269	808.7439	856.3174	891.8034	897.1464	920.1913	963.8032	1002.8483	1032.2706	1067.6264	1100.7255	1116.5592	1123.1307	1137.2912	1196.4214	1214.7646	1254.0681	1257.7749	1266.7019	1296.0895	1316.9163	1325.6462	1343.3047	1357.7905	1414.142	1468.1316	1490.5133	1499.1139	1518.3434	1526.0527	2963.1193	3003.3368	3041.7649	3044.6342	3066.2276	3076.6909	3079.3643	3109.9164	3127.1724	3137.6153	3830.6821
OCC1C2CCCN12	OC[C@H]1[C@H]2CCCN12	
InChI=1S/C6H11NO/c8-4-6-5-2-1-3-7(5)6/h5-6,8H,1-4H2	InChI=1S/C6H11NO/c8-4-6-5-2-1-3-7(5)6/h5-6,8H,1-4H2/t5-,6+,7?/m1/s1
