23
gdb 58674	1.98451	1.36147	1.13846	3.0294	86.99	-0.2435	-0.0146	0.2289	1269.6004	0.203258	-388.304723	-388.29424	-388.293296	-388.339517	39.154	
C	 2.7429983259	 0.2753089306	 0.9590625007	-0.403857
C	 1.5136908291	-0.5451685684	 0.5325768576	-0.047571
C	 0.2165834323	 0.0469568885	 1.1093271911	-0.40778
C	 1.4492439719	-0.7116151222	-0.985679784	 0.261024
C	 2.3011238892	-1.7946321486	-1.6550868375	-0.343412
C	 0.8200982198	-1.9567626437	-1.6372041281	-0.045631
C	 0.1335352617	-3.0410437037	-0.835803205	-0.419104
C	 1.2897390826	 0.5058058103	-1.8230196575	 0.121843
O	 1.1803944232	 1.642015558	-1.4278673246	-0.279614
H	 3.6681165622	-0.166574962	 0.5740842046	 0.105062
H	 2.6731417853	 1.3004333294	 0.588955213	 0.145486
H	 2.8169392936	 0.3095414275	 2.0509946321	 0.106458
H	 1.6348062106	-1.5498165891	 0.9556193748	 0.067591
H	 0.0562936428	 1.0618114125	 0.7395620603	 0.147133
H	-0.6540068892	-0.5585510188	 0.8376788155	 0.106282
H	 0.2698598312	 0.0845841121	 2.2023345598	 0.10679
H	 2.8007056842	-1.5601249153	-2.5895726754	 0.119625
H	 2.8893320366	-2.4043505597	-0.9764112514	 0.12348
H	 0.3261688545	-1.7493051276	-2.5844908065	 0.092732
H	 0.659062956	-3.2652371744	 0.0954660971	 0.126123
H	-0.895505376	-2.7644416246	-0.5851022815	 0.128362
H	 0.0953500331	-3.9665952027	-1.4206246874	 0.124506
H	 1.2757472596	 0.2880993918	-2.9191422776	 0.064469
92.8662	113.9755	160.1709	198.1696	207.9702	226.9798	241.0049	249.6376	274.97	326.3873	370.9845	426.5481	449.5596	520.6395	551.3732	745.4255	759.9675	874.5374	886.7728	910.2423	931.8343	939.7124	967.1803	1017.6375	1045.5051	1053.3713	1072.2325	1120.5011	1135.2107	1144.5919	1196.5756	1200.2591	1250.8393	1338.2587	1347.8383	1367.1786	1395.0105	1407.2216	1416.0522	1427.7349	1452.5775	1484.8553	1486.0558	1492.1642	1500.8929	1501.4435	1504.8851	1521.8027	1807.7497	2829.6474	3023.0689	3035.1972	3037.5233	3040.8211	3095.1164	3096.801	3100.8878	3111.9633	3125.1359	3130.0265	3132.2346	3136.5451	3209.6793
CC(C)C1(CC1C)C=O	CC(C)[C@]1(C[C@H]1C)C=O	
InChI=1S/C8H14O/c1-6(2)8(5-9)4-7(8)3/h5-7H,4H2,1-3H3	InChI=1S/C8H14O/c1-6(2)8(5-9)4-7(8)3/h5-7H,4H2,1-3H3/t7-,8+/m1/s1
