21
gdb 57968	2.90242	1.02264	0.84828	3.6301	80.8	-0.2378	0.0247	0.2625	1432.8371	0.181917	-420.400907	-420.390548	-420.389604	-420.437806	36.072	
C	-0.0313356703	 1.2329773503	 0.3936353528	-0.342924
N	-0.1906534329	-0.1825553345	 0.0917034141	-0.08269
C	 0.7688695332	-1.0510043997	 0.7440494565	-0.333534
C	-1.3118667638	-0.5789018624	-0.5958119068	 0.401447
O	-2.1425929114	 0.2235896509	-0.992721756	-0.385518
C	-1.5508227497	-2.0683211487	-0.8627136654	-0.344703
C	-2.5119594121	-2.652575013	 0.157676328	 0.046224
C	-2.599718948	-4.1163109687	 0.367567989	-0.251687
N	-2.0362217609	-3.2464940548	 1.4195006796	-0.31524
H	 0.9698781363	 1.5696723721	 0.100299242	 0.118929
H	-0.7873437552	 1.7890610191	-0.1565997956	 0.171594
H	-0.1553161087	 1.4209377841	 1.4683978564	 0.122764
H	 0.6064536534	-1.0890178892	 1.8306688592	 0.133292
H	 0.7244081953	-2.0657731688	 0.3538184735	 0.128164
H	 1.7841236469	-0.6742612327	 0.5721126931	 0.129248
H	-2.0237448924	-2.098032211	-1.8489550307	 0.137976
H	-0.6410218406	-2.6726035215	-0.9169200574	 0.097158
H	-3.4166323588	-2.0615214399	 0.2797077705	 0.115921
H	-3.5508940979	-4.5789251876	 0.6148786304	 0.122832
H	-1.9234698468	-4.7523988548	-0.1990144038	 0.10848
H	-1.0220834454	-3.3223571491	 1.4091496207	 0.222266
32.3015	63.4184	88.5478	104.2303	139.9281	180.7305	243.7885	313.8734	329.539	386.6386	436.2065	469.5613	601.9165	681.1663	780.4777	810.6347	825.8656	929.8713	934.3453	977.1748	991.8955	1048.6489	1077.4747	1104.8229	1124.8051	1129.4966	1170.3215	1178.5766	1208.1808	1247.8065	1262.2088	1282.9091	1303.9622	1309.9255	1414.6144	1422.7704	1429.6786	1463.1622	1483.1204	1486.5483	1502.8706	1504.9959	1513.6058	1541.8292	1746.3686	3003.4533	3014.6857	3055.0259	3057.8912	3065.1476	3099.3363	3105.2952	3142.2155	3162.6637	3176.9447	3190.4934	3498.5607
CN(C)C(=O)CC1CN1	CN(C)C(=O)C[C@H]1CN1	
InChI=1S/C6H12N2O/c1-8(2)6(9)3-5-4-7-5/h5,7H,3-4H2,1-2H3	InChI=1S/C6H12N2O/c1-8(2)6(9)3-5-4-7-5/h5,7H,3-4H2,1-2H3/t5-/m0/s1
