17
gdb 18874	4.04615	2.09102	1.76321	2.446	66.48	-0.2343	0.0723	0.3066	784.6922	0.144514	-363.818305	-363.811939	-363.810995	-363.848448	25.806	
O	-0.0606579635	 1.3997524436	 0.0104070934	-0.442968
C	 0.0193754727	-0.0108561898	 0.0078898726	 0.11494
C	-1.4112954051	-0.5566152839	-0.0468704098	-0.047198
C	-1.2772303868	-0.8596708691	-1.5043526041	-0.051811
C	 0.2612557411	-0.6353844627	-1.4075090996	-0.091644
C	 0.8390341982	-2.045934745	-1.2701457562	-0.230939
C	-0.2554848223	-2.7551974897	-0.4285598044	-0.157826
N	-1.4840584816	-1.935389595	-0.5475497462	-0.101684
H	 0.830615954	 1.7480337589	-0.0937485357	 0.282245
H	 0.6770278467	-0.3692864124	 0.8155306539	 0.0565
H	-2.2457778753	-0.1709893213	 0.5286176536	 0.095559
H	-1.9475014418	-0.7135126612	-2.3423548163	 0.090737
H	 0.7508864151	 0.0247484379	-2.1237195866	 0.067451
H	 0.9556736577	-2.5210517865	-2.2501651503	 0.101937
H	 1.8165657589	-2.0527337067	-0.7766195802	 0.09733
H	-0.4767656004	-3.7583705283	-0.8034161741	 0.108952
H	 0.0217704023	-2.8516305888	 0.6256074301	 0.10842
179.6656	253.5305	277.911	323.1967	389.5426	501.8468	649.2501	710.371	775.7828	826.0075	839.3732	865.9538	891.369	919.7503	937.6324	968.3525	973.5941	1011.7098	1031.8311	1069.9554	1073.1777	1136.5203	1163.4917	1188.1672	1209.426	1212.4272	1236.8697	1244.2049	1268.0684	1315.1998	1323.3315	1334.0454	1368.9711	1426.7803	1489.9288	1511.3485	2969.948	3039.2928	3055.2418	3078.5595	3100.329	3115.7039	3171.7966	3190.6748	3814.1777
OC1C2C3C1CCN23	O[C@H]1[C@H]2[C@H]3[C@@H]1CCN23	
InChI=1S/C6H9NO/c8-6-3-1-2-7-4(3)5(6)7/h3-6,8H,1-2H2	InChI=1S/C6H9NO/c8-6-3-1-2-7-4(3)5(6)7/h3-6,8H,1-2H2/t3-,4+,5+,6+,7?/m0/s1
