16
gdb 22904	2.88106	1.34753	0.94928	2.5502	70.53	-0.2455	-0.0789	0.1666	1174.8326	0.123632	-475.000834	-474.992502	-474.991557	-475.033903	31.236	
O	-0.0969667236	 1.3084258842	 0.2903597698	-0.346673
N	-0.0053207447	-0.0597230587	 0.1597443752	-0.202389
C	-1.1310956972	-0.6362415537	-0.0360053272	 0.302209
C	-1.2363920806	-2.1399027481	-0.1970144296	-0.305723
C	-2.7212268405	-2.443331078	 0.1221874288	-0.254695
C	-3.4581944976	-1.2171732609	-0.4336159072	 0.068351
O	-4.7479983857	-1.0120730361	 0.0633599751	-0.441683
C	-2.5162453105	-0.0626605432	-0.0875375824	 0.302519
O	-2.904146956	 1.0538859391	 0.1644353116	-0.326462
H	 0.821360447	 1.566093305	 0.435172637	 0.318215
H	-1.0043345599	-2.4232669078	-1.2315809169	 0.127271
H	-0.534829715	-2.6719880295	 0.447870006	 0.133432
H	-3.0671385821	-3.3832949124	-0.3112591768	 0.116411
H	-2.8829679643	-2.4860103378	 1.2046425796	 0.122543
H	-3.4658999263	-1.2890262659	-1.5398001011	 0.093889
H	-4.8183297731	-0.0587840562	 0.224843258	 0.292785
67.0778	157.2519	193.8661	259.1582	292.6689	313.501	386.1007	428.9559	430.1519	514.7319	542.9352	560.2275	635.422	708.0219	786.0016	862.9736	953.0344	978.2667	1015.1454	1046.2896	1078.7022	1144.5131	1146.8928	1201.146	1235.1718	1264.7394	1301.8289	1317.9418	1373.5432	1412.225	1427.2341	1478.9231	1502.0549	1695.8406	1817.2016	2906.6471	3031.3828	3057.9691	3113.0221	3121.1565	3711.4951	3796.9512
ON=C1CCC(O)C1=O	ON=C1CC[C@@H](O)C1=O	
InChI=1S/C5H7NO3/c7-4-2-1-3(6-9)5(4)8/h4,7,9H,1-2H2	InChI=1S/C5H7NO3/c7-4-2-1-3(6-9)5(4)8/h4,7,9H,1-2H2/t4-/m1/s1
