18
gdb 18612	2.85891	2.26602	1.81113	1.5623	71.77	-0.2218	0.0078	0.2296	826.0295	0.154929	-347.795824	-347.788622	-347.787678	-347.826665	28.947	
C	-0.2229297148	 1.588823047	 0.0166362294	-0.401517
C	 0.040429813	 0.0730336299	-0.0153320982	-0.024568
C	 0.9118572633	-0.4052710263	-1.1646301753	-0.105047
C	 1.8816448294	-1.2335725003	-0.7615507201	-0.10113
C	 1.9108477433	-1.3792679502	 0.7230511865	-0.150136
C	 2.2043427926	-0.089048546	 1.4638384509	 0.128495
O	 2.8381579006	 1.0013572226	 0.8676252946	-0.423137
C	 0.7672724487	-0.4766005683	 1.2192118813	-0.117464
H	 0.7078479575	 2.1456900874	 0.1435320167	 0.13758
H	-0.7108993656	 1.9212765793	-0.9059642858	 0.106695
H	-0.8828609524	 1.8443018904	 0.851594699	 0.115285
H	-0.9357642257	-0.4284421531	-0.1005466433	 0.085733
H	 0.7302194349	-0.1016498498	-2.1905181031	 0.09587
H	 2.6003137554	-1.7211702209	-1.4113031793	 0.100239
H	 2.1665621372	-2.3319449705	 1.1741725286	 0.085963
H	 2.5519221754	-0.199544204	 2.486405191	 0.104856
H	 2.7831456195	 0.8774294247	-0.0892686843	 0.279839
H	 0.1705423977	-0.7575923619	 2.0801499412	 0.082443
174.5498	191.8422	245.644	296.7604	311.533	387.3889	475.5518	571.5611	604.5827	721.0867	732.8561	760.9511	774.4858	805.5465	866.703	912.0002	967.1464	992.1604	1016.6619	1030.7079	1034.6829	1060.687	1100.4351	1113.2681	1125.9564	1144.3897	1197.4098	1295.1803	1295.2311	1321.6985	1340.8022	1361.379	1381.5688	1411.8473	1449.6588	1498.0727	1509.7714	1657.48	2980.4096	3037.4675	3099.1145	3134.3602	3155.9567	3159.6071	3171.8996	3178.3389	3202.7822	3746.9849
CC1C=CC2C(O)C12	C[C@H]1C=C[C@H]2[C@@H](O)[C@@H]12	
InChI=1S/C7H10O/c1-4-2-3-5-6(4)7(5)8/h2-8H,1H3	InChI=1S/C7H10O/c1-4-2-3-5-6(4)7(5)8/h2-8H,1H3/t4-,5+,6-,7+/m0/s1
