21
gdb 90461	2.49111	1.3726	1.16655	0.7784	87.97	-0.2386	0.0501	0.2887	1182.2415	0.183014	-349.93087	-349.922148	-349.921204	-349.963951	34.384	
C	-0.7997840595	 0.9193662565	-0.0270853544	-0.414277
C	 0.3074509721	-0.1342332265	 0.0180034349	 0.03743
C	 1.3037869803	-0.042182989	-1.1698703142	-0.233704
C	 2.65291339	-0.4850934534	-0.6293964613	-0.057337
C	 2.5830028324	-0.4941510027	 0.8757616606	-0.057336
C	 1.189338518	-0.0570141965	 1.2941361016	-0.233704
C	 2.757189958	-1.8103982511	 0.1217018239	-0.2185
C	 1.7762412932	-2.854010138	 0.0698588893	 0.344682
C	 0.9949255467	-3.769158313	 0.0280943925	-0.469531
H	-0.3818785307	 1.933010409	-0.0015659173	 0.108888
H	-1.3984077979	 0.8284968714	-0.9399710166	 0.112162
H	-1.4804102656	 0.8178636222	 0.82521318	 0.112162
H	-0.1584878413	-1.1218553619	-0.0095824637	 0.096877
H	 0.9677340112	-0.6342407398	-2.0278821806	 0.104588
H	 1.3927544402	 0.9971672352	-1.5116949499	 0.094329
H	 3.5479043761	-0.1637959492	-1.1514606654	 0.085423
H	 3.4255697138	-0.1796425293	 1.4823564934	 0.085423
H	 1.2456564283	 0.9781050658	 1.6551958719	 0.094329
H	 0.7755329302	-0.6591503544	 2.110129421	 0.104587
H	 3.7741715187	-2.1929709515	 0.1666352229	 0.111403
H	 0.2992547259	-4.5701513335	-0.0088876887	 0.192108
107.401	113.8554	140.273	239.2604	280.964	329.3	330.4451	419.026	528.0429	529.2775	580.4266	626.574	642.8525	705.4444	753.9754	782.0932	820.3274	888.4812	889.9782	934.5109	940.9882	1001.2856	1002.6721	1035.7591	1052.9256	1088.3417	1109.8444	1131.4869	1162.0753	1187.9689	1205.8255	1258.967	1305.7075	1307.665	1327.4971	1360.6889	1362.2582	1384.2327	1406.5477	1421.667	1484.6932	1492.6889	1495.713	1501.3251	2228.1638	3019.8493	3021.6172	3026.0293	3062.9737	3068.4773	3077.8104	3093.5273	3100.5094	3130.2353	3158.7733	3170.3793	3504.149
CC1CC2C(C1)C2C#C	C[C@H]1C[C@H]2[C@@H](C1)[C@H]2C#C	
InChI=1S/C9H12/c1-3-7-8-4-6(2)5-9(7)8/h1,6-9H,4-5H2,2H3	InChI=1S/C9H12/c1-3-7-8-4-6(2)5-9(7)8/h1,6-9H,4-5H2,2H3/t6-,7-,8+,9-
