20
gdb 80620	2.38727	1.83013	1.37104	2.8764	77.6	-0.2313	0.0699	0.3012	1020.547	0.172659	-403.096938	-403.089293	-403.088349	-403.128683	31.042	
C	-0.1046399447	 1.568593393	-0.0615373375	-0.418222
C	 0.0722381563	 0.0538975264	-0.005635802	-0.078564
C	 1.0259929004	-0.565251072	-1.0623076313	 0.064585
C	 2.4496975575	-0.3087676346	-0.5164651938	-0.243036
C	 1.8983574486	-1.3268286319	 0.5057768171	 0.00717
O	 1.1369230616	-1.9423940954	-0.5858825192	-0.298407
C	 0.8114403488	-0.5332542211	 1.2248280531	 0.391296
C	 0.9548882398	 0.113187043	 2.5466247484	-0.318979
N	 0.153971559	-1.1218924131	 2.387118919	-0.375977
H	 0.8485798515	 2.0962143579	 0.0394740173	 0.119961
H	-0.5588494678	 1.8720285167	-1.0113058013	 0.11767
H	-0.76382876	 1.9221267933	 0.7384944827	 0.117293
H	-0.9031926897	-0.4352783426	-0.111535896	 0.086289
H	 0.7577630026	-0.4747990835	-2.115416072	 0.078725
H	 3.2136361462	-0.7470308462	-1.1588504529	 0.113223
H	 2.7334718196	 0.6907787145	-0.1779497482	 0.097446
H	 2.5065676971	-2.0183616674	 1.0870291028	 0.086267
H	 1.8677079643	-0.0079212096	 3.1253379747	 0.115435
H	 0.4385626284	 1.0538863966	 2.7202202624	 0.11004
H	-0.8379238897	-0.8934927442	 2.3816062667	 0.227786
125.1412	211.4083	234.8263	253.8523	292.3596	348.7608	463.7856	519.9716	539.4187	591.6126	727.9376	800.5887	826.8274	866.4315	872.3269	903.1575	913.4162	932.0334	952.9326	976.7496	1014.6466	1026.6369	1037.3937	1083.8543	1093.2777	1107.6361	1123.4488	1145.5791	1190.6548	1227.8253	1242.0419	1246.7452	1263.46	1286.1345	1315.1164	1328.5202	1359.0786	1408.7448	1424.108	1485.8633	1495.119	1501.261	1518.4395	3031.1135	3038.3999	3070.3328	3091.0056	3100.6117	3107.7118	3116.4399	3138.1384	3147.049	3182.0651	3486.7548
CC1C2CC(O2)C11CN1	C[C@H]1[C@H]2C[C@H](O2)[C@]21CN2	
InChI=1S/C7H11NO/c1-4-5-2-6(9-5)7(4)3-8-7/h4-6,8H,2-3H2,1H3	InChI=1S/C7H11NO/c1-4-5-2-6(9-5)7(4)3-8-7/h4-6,8H,2-3H2,1H3/t4-,5+,6-,7+/m0/s1
