18
gdb 94510	2.73434	1.17511	1.04367	3.8711	77.42	-0.2875	-0.0844	0.203	1218.7952	0.146533	-401.963269	-401.95407	-401.953126	-401.998354	32.783	
C	-0.7649857563	 1.2174550684	 0.388717955	-0.412245
C	-0.232021962	-0.1998429853	 0.2066392418	 0.006325
C	 0.7396709079	-0.3717350012	-0.9980383027	-0.221297
C	 1.9487542869	-0.3694251487	-0.0259317193	-0.250321
C	 0.978066352	-0.6117135076	 1.1522404467	-0.101438
C	 1.1678686759	 0.2002799227	 2.3978438345	 0.285631
O	 1.9300241937	 1.1273618095	 2.5244405254	-0.275439
C	 0.28520714	-0.1860609753	 3.5258891567	 0.226174
N	-0.4136844405	-0.5034102359	 4.3910723038	-0.304256
H	 0.0425435926	 1.95699006	 0.4007044206	 0.134282
H	-1.4359434933	 1.4700774524	-0.4387798167	 0.124072
H	-1.3316536159	 1.3225641768	 1.3197722102	 0.131099
H	-1.0583937129	-0.9134192122	 0.239770656	 0.090284
H	 0.6096070632	-1.3327679595	-1.5017338696	 0.108466
H	 0.7107783681	 0.4209431909	-1.74964046	 0.107375
H	 2.7189331187	-1.1272237601	-0.1792956249	 0.112016
H	 2.4298512192	 0.606717673	 0.0590829424	 0.132675
H	 0.8853589626	-1.6665433978	 1.4275196301	 0.106598
31.8102	77.0306	120.788	162.9234	251.2633	272.0001	279.1919	345.913	383.9971	466.7724	569.1587	652.528	723.563	771.276	791.8276	881.9187	892.6572	929.4558	966.7452	978.0923	1016.4589	1080.1825	1104.6903	1141.9278	1148.7712	1220.2797	1231.3928	1256.7657	1273.9864	1281.9458	1356.4776	1372.436	1416.204	1482.0833	1493.9217	1498.7079	1501.8743	1784.6068	2333.6839	3032.7309	3060.9919	3064.2331	3077.4702	3081.6635	3101.565	3106.9646	3111.8371	3137.5731
CC1CCC1C(=O)C#N	C[C@H]1CC[C@H]1C(=O)C#N	
InChI=1S/C7H9NO/c1-5-2-3-6(5)7(9)4-8/h5-6H,2-3H2,1H3	InChI=1S/C7H9NO/c1-5-2-3-6(5)7(9)4-8/h5-6H,2-3H2,1H3/t5-,6+/m0/s1
