21
gdb 68071	2.59397	1.68213	1.23148	1.2757	83.13	-0.2343	0.0204	0.2547	1083.3516	0.183076	-387.097468	-387.089301	-387.088357	-387.129194	34.067	
C	-0.0505058239	 1.5410674445	-0.0198866589	-0.49283
C	 0.0250200609	 0.0255698546	 0.0008660825	 0.294035
C	 1.1013006513	-0.6987250389	-0.8765474033	-0.278658
C	 1.0996620095	-1.7983691948	 0.2072986481	 0.405327
O	 2.3304947062	-2.4589695134	 0.3665893819	-0.489558
C	 0.6863294869	-0.6928262762	 1.22424117	-0.306157
C	-0.0728037617	-2.7685909113	-0.0221384478	-0.321422
C	-1.347714843	-1.9954715468	-0.265959162	-0.081129
C	-1.3044001254	-0.6637084698	-0.2582620623	-0.090303
H	 0.9302353988	 1.9870315722	 0.1730812327	 0.111689
H	-0.4004289938	 1.9065229983	-0.9925947993	 0.115386
H	-0.7450186427	 1.9130956411	 0.7425478819	 0.114661
H	 0.8312609192	-0.9732764429	-1.8992254136	 0.09175
H	 2.0555066161	-0.1643637072	-0.8651336952	 0.099668
H	 2.2194028576	-3.1507053053	 1.028318127	 0.271957
H	 1.5733174413	-0.15730633	 1.5750222238	 0.095244
H	 0.0426719034	-0.9612302642	 2.0665536041	 0.084827
H	 0.1608409393	-3.4244782244	-0.8721240526	 0.112107
H	-0.1855590336	-3.4287693098	 0.8528127556	 0.091664
H	-2.2669806395	-2.5446589516	-0.4460851421	 0.088962
H	-2.1881976969	-0.0559006941	-0.4316200906	 0.08278
215.4617	228.9275	243.0773	267.4175	288.1841	338.9145	384.0334	446.6257	450.0255	478.6984	506.7526	569.268	697.2593	708.2676	720.3112	844.0112	908.1835	910.3148	915.1781	942.0632	954.0788	977.0908	998.6095	1023.2053	1042.0819	1074.3683	1092.621	1141.1944	1168.772	1192.351	1211.3258	1244.2984	1257.0286	1268.0138	1285.2915	1349.4957	1382.8499	1403.2067	1411.3198	1472.076	1473.6256	1491.661	1493.667	1512.1194	1699.8375	2982.1464	3021.2007	3028.6219	3046.1144	3056.3887	3083.2956	3098.8386	3110.3813	3116.8916	3156.0959	3181.054	3796.7944
CC12CC(O)(C1)CC=C2	C[C@@]12C[C@@](O)(C1)CC=C2	
InChI=1S/C8H12O/c1-7-3-2-4-8(9,5-7)6-7/h2-3,9H,4-6H2,1H3	InChI=1S/C8H12O/c1-7-3-2-4-8(9,5-7)6-7/h2-3,9H,4-6H2,1H3/t7-,8-
