18
gdb 6818	2.96162	1.71736	1.43012	1.6927	73.9	-0.2505	0.0488	0.2993	956.1897	0.151352	-347.765928	-347.757237	-347.756293	-347.798498	33.127	
C	 0.3597876324	 1.4656892762	-0.3205010268	-0.449486
C	 0.0066168973	 0.0122370377	-0.0369867468	 0.400932
O	-1.3674525037	-0.1396240026	 0.2530045512	-0.473887
C	 0.621390068	-0.9940895763	-1.0598661874	-0.28005
C	 1.767252694	-1.2773015869	-0.0556748861	-0.23949
C	 0.8805069813	-0.6655330173	 1.0749754755	-0.181586
C	 1.4924827343	 0.1404468281	 2.1087453345	 0.312548
C	 2.015523501	 0.8243737805	 2.9492879038	-0.46238
H	 1.4304337919	 1.5919011449	-0.5045781275	 0.126612
H	-0.1733270312	 1.8147999597	-1.2140043172	 0.103473
H	 0.083649224	 2.0983855827	 0.527372238	 0.135498
H	-1.8708510316	 0.4011737118	-0.3649224742	 0.275761
H	-0.0418904839	-1.8540571101	-1.1799970422	 0.108828
H	 0.8936428375	-0.6061469416	-2.0446116477	 0.094047
H	 2.0791352832	-2.3135917193	 0.0811917137	 0.108886
H	 2.6514581759	-0.6645910826	-0.2436260695	 0.1135
H	 0.2629667618	-1.4513952719	 1.5219019778	 0.114652
H	 2.4729132977	 1.419428987	 3.7001879408	 0.192143
100.7941	137.5847	196.5596	220.1131	261.1984	293.7391	349.5384	379.6071	424.0232	508.9379	563.1547	602.1873	618.8611	629.554	729.0577	795.5034	885.8702	898.6483	950.44	955.0012	990.8907	1061.5841	1085.5006	1118.3518	1162.4302	1188.1327	1211.6562	1243.0336	1264.7284	1287.0491	1353.9833	1366.4929	1410.8578	1477.0557	1489.4041	1491.4202	1498.3257	2230.2679	3024.6477	3057.6828	3062.5146	3077.1524	3097.3903	3115.4657	3123.885	3135.8445	3504.737	3805.1211
CC1(O)CCC1C#C	C[C@@]1(O)CC[C@H]1C#C	
InChI=1S/C7H10O/c1-3-6-4-5-7(6,2)8/h1,6,8H,4-5H2,2H3	InChI=1S/C7H10O/c1-3-6-4-5-7(6,2)8/h1,6,8H,4-5H2,2H3/t6-,7-/m1/s1
