18
gdb 67233	2.73967	1.62344	1.32012	2.2269	75.74	-0.2443	-0.0288	0.2155	1018.8862	0.146983	-401.893268	-401.885275	-401.884331	-401.926094	30.213	
C	 0.1489545522	 1.5892804168	 0.2067153388	-0.535572
C	 0.1676367914	 0.1047801442	 0.0899707373	 0.357477
C	 0.7876573092	-0.8634949414	-0.8459358943	-0.082961
C	 1.2459574502	-1.7757741233	 0.2875669048	-0.261355
C	 0.1371181918	-1.0930911541	 1.1321357262	-0.1196
C	-1.1321128155	-1.5332562145	 0.3974764702	-0.032526
C	-2.4359565154	-0.9647248599	 0.9084552808	 0.146468
O	-2.5451275309	-0.3109415698	 1.91498199	-0.244243
N	-0.7216573314	-0.7100802733	-0.7982573632	-0.203336
H	 1.0669365174	 1.9588562158	 0.6766207588	 0.124836
H	 0.0655433567	 2.0413401973	-0.7865194783	 0.134701
H	-0.7005424942	 1.9242677546	 0.81024401	 0.144456
H	 1.2385618627	-0.6922529156	-1.8151104284	 0.101934
H	 1.1911736575	-2.8622456049	 0.1569635368	 0.097005
H	 2.2468223868	-1.495003278	 0.6254350001	 0.110961
H	 0.1866218369	-1.0332996668	 2.215984829	 0.091768
H	-1.2637562506	-2.603824786	 0.1797292006	 0.08108
H	-3.312856925	-1.1798107812	 0.2587037308	 0.088907
56.3522	149.6443	199.0377	212.3889	272.1309	297.593	396.3986	475.9574	613.6228	673.039	718.7571	764.8642	813.4062	830.5599	899.7526	902.0849	929.6641	971.0932	999.6735	1015.8297	1045.0451	1068.8852	1082.2834	1097.7852	1125.6998	1154.0632	1170.3793	1225.3682	1233.5955	1265.771	1279.9176	1370.2898	1399.4613	1418.584	1449.7055	1478.5023	1494.2135	1501.9417	1825.0682	2893.2879	2999.2024	3032.6384	3041.1849	3099.0665	3104.7737	3111.348	3157.9992	3200.2355
CC12C3CC1C(C=O)N23	C[C@@]12[C@H]3C[C@@H]1[C@@H](C=O)N23	
InChI=1S/C7H9NO/c1-7-4-2-6(7)8(7)5(4)3-9/h3-6H,2H2,1H3	InChI=1S/C7H9NO/c1-7-4-2-6(7)8(7)5(4)3-9/h3-6H,2H2,1H3/t4-,5-,6-,7+,8?/m1/s1
