19
gdb 77408	2.45581	1.58393	1.33653	0.8044	74.89	-0.2487	0.0521	0.3008	1048.2439	0.156481	-422.966709	-422.957378	-422.956433	-423.000603	34.514	
C	-0.0338686513	 1.5431895889	-0.0066978802	-0.499847
C	 0.0147916632	 0.0424995225	-0.0078567681	 0.201509
C	 0.5885387192	-0.8150061075	-1.1113901324	-0.047923
O	 2.0122481462	-0.9111978777	-0.9534100258	-0.248947
C	 1.1831876706	-1.7519493524	-0.1367443144	-0.047913
C	 0.6470667166	-0.953777856	 1.0285010665	 0.201525
C	 1.3801072347	-0.6848670265	 2.3109886898	-0.499847
C	-0.8582705695	-0.8510329656	 0.8557350139	 0.045479
O	-1.6431416866	-0.2988245307	 1.8654614527	-0.432045
H	 0.9554715031	 1.9664893472	-0.2063270866	 0.137504
H	-0.7221034332	 1.9115917561	-0.7764890879	 0.129647
H	-0.3818363993	 1.9486538947	 0.9494953111	 0.102313
H	 0.1890802265	-1.0114893555	-2.0999297041	 0.101567
H	 1.3381426145	-2.8219979323	-0.2165575917	 0.101565
H	 2.3708268227	-0.2635518356	 2.1140190077	 0.137494
H	 0.8436617428	 0.0166193973	 2.9590079218	 0.102316
H	 1.5126524718	-1.6091702715	 2.8854978927	 0.129646
H	-1.4088944871	-1.672006697	 0.4024440887	 0.09891
H	-1.171069715	 0.4307803914	 2.2785476162	 0.287047
75.2703	136.9333	154.7182	180.2061	214.3116	226.8132	259.2197	276.531	404.6727	505.3456	517.4075	610.658	657.3599	673.2743	775.798	828.1322	854.9015	871.2326	903.0118	947.7744	976.647	1055.9225	1066.3703	1091.3144	1096.4262	1139.2121	1176.1135	1183.9164	1226.7164	1244.5208	1294.0392	1334.558	1347.4127	1378.4081	1415.0648	1425.2884	1453.5072	1476.9431	1481.0456	1497.7509	1505.9795	3025.0556	3027.2841	3082.9563	3085.2046	3098.7502	3100.3271	3132.4076	3176.2575	3189.9492	3828.1106
CC12C3OC3C1(C)C2O	C[C@@]12[C@H]3O[C@H]3[C@]1(C)[C@H]2O	
InChI=1S/C7H10O2/c1-6-3-4(9-3)7(6,2)5(6)8/h3-5,8H,1-2H3	InChI=1S/C7H10O2/c1-6-3-4(9-3)7(6,2)5(6)8/h3-5,8H,1-2H3/t3-,4+,5-,6-,7+
