22
gdb 117223	3.90928	0.79476	0.75723	3.2536	86.13	-0.2412	0.0324	0.2735	1647.7318	0.193527	-404.383055	-404.372699	-404.371755	-404.419528	37.5	
C	 0.1330136175	 1.436075226	 0.0233197092	-0.372678
C	-0.3860017673	 0.0162305551	-0.2122649798	-0.14261
N	 0.2527344888	-0.6361395836	-1.3428942266	-0.331655
C	 1.0427358278	-1.7450432195	-1.2176509964	 0.439277
O	 1.2527295555	-2.284274889	-0.1393949913	-0.395846
C	 1.619476182	-2.2412820413	-2.5072271891	-0.147272
C	 2.8582858699	-3.1111403761	-2.4390302858	-0.284007
C	 1.5627121571	-3.7302200357	-2.8594070946	 0.015763
C	 0.843160773	-4.7453855813	-1.9999561566	-0.417515
H	 1.206513492	 1.4267795366	 0.2329183793	 0.131467
H	-0.0371903378	 2.0743875845	-0.851100162	 0.108808
H	-0.3811991259	 1.8942266298	 0.8741512037	 0.119606
H	-0.1827455779	-0.6195188209	 0.6517378935	 0.15151
H	-1.4731305908	 0.033094395	-0.3645902782	 0.103069
H	 0.1248091039	-0.2386887351	-2.2591314376	 0.239344
H	 1.5393783689	-1.558837059	-3.3484432039	 0.071036
H	 3.6366135987	-2.9460861981	-3.1756083192	 0.107584
H	 3.2026996301	-3.3249744705	-1.4329923334	 0.139279
H	 1.4593985033	-3.9007767154	-3.9286242036	 0.085642
H	 0.939482284	-4.4996286529	-0.9414392137	 0.15909
H	-0.2238454941	-4.78419398	-2.24652638	 0.109031
H	 1.2590527914	-5.7450459787	-2.1678894842	 0.111076
30.9918	55.8227	93.6915	171.5664	183.3971	228.3836	248.7195	312.9299	359.2377	371.6607	403.9359	461.9543	476.7256	671.5984	742.4583	778.5595	796.9967	846.4424	876.5554	899.2142	925.529	956.8877	1021.2056	1075.5628	1079.5458	1099.5388	1114.4216	1123.9876	1147.405	1173.2612	1202.4971	1227.4114	1242.2746	1316.0499	1384.2952	1393.609	1410.8703	1419.7403	1425.1684	1477.8591	1487.6868	1492.8922	1500.6996	1503.1163	1507.4025	1545.3132	1751.9425	3019.8662	3032.2637	3032.9668	3086.5446	3095.1778	3116.3643	3124.2476	3127.7054	3134.9318	3143.5095	3149.1881	3229.048	3639.6493
CCNC(=O)C1CC1C	CCNC(=O)[C@H]1C[C@H]1C	
InChI=1S/C7H13NO/c1-3-8-7(9)6-4-5(6)2/h5-6H,3-4H2,1-2H3,(H,8,9)	InChI=1S/C7H13NO/c1-3-8-7(9)6-4-5(6)2/h5-6H,3-4H2,1-2H3,(H,8,9)/t5-,6+/m1/s1
