17
gdb 125576	3.04147	1.43837	0.98836	1.2962	82.05	-0.218	-0.0587	0.1592	1179.9333	0.136547	-414.213887	-414.205363	-414.204419	-414.246948	31.84	
C	-0.2507863697	 1.4755753397	 0.0047733454	-0.454097
C	-0.0073250505	-0.002215768	-0.0285655461	 0.36106
N	 0.1019520114	-0.5884238889	-1.180360649	-0.229275
N	 0.321008463	-1.9230283767	-1.1426502121	-0.305287
C	 0.4381103476	-2.7123283173	-0.01126074	 0.33897
N	 0.6457596641	-3.9784682498	 0.0323154866	-0.553184
C	 0.2933445292	-1.9158191766	 1.2248227751	 0.313484
C	 0.3977034539	-2.6391895241	 2.5275834564	-0.460516
N	 0.0838204323	-0.639880232	 1.2009054771	-0.333492
H	 0.551038975	 1.9802519922	 0.5539951111	 0.139183
H	-0.3046295493	 1.8763862173	-1.0079519443	 0.137143
H	-1.1845945957	 1.6948074226	 0.5331992162	 0.139181
H	 0.4015770553	-2.3510096403	-2.0534311338	 0.263985
H	 0.7229725391	-4.3846306814	-0.9023945869	 0.201121
H	 1.3644169425	-3.1486299035	 2.5970840619	 0.153991
H	 0.274190978	-1.9389652558	 3.3536782729	 0.133766
H	-0.3576371161	-3.4302654175	 2.5785734695	 0.153964
86.4736	149.3207	157.5564	206.1788	281.2094	326.5786	327.4674	415.2936	492.2638	514.9935	556.8981	565.0365	658.0248	699.9487	772.6135	796.0913	810.2225	947.0233	979.0528	1048.0638	1049.0053	1067.3115	1112.554	1205.0732	1248.9897	1316.2949	1383.9981	1408.9002	1415.1566	1455.269	1461.7103	1463.6983	1474.2928	1480.8626	1595.4123	1656.3482	1697.0142	3042.0608	3047.4213	3096.442	3101.6061	3151.3482	3159.8107	3447.1281	3609.3416
CC1=NNC(=N)C(C)=N1	Cc1n[nH]c([NH])c(C)n1	
InChI=1S/C5H8N4/c1-3-5(6)9-8-4(2)7-3/h1-2H3,(H2,6,9)	InChI=1S/C5H13N4/c1-3-5(6)9-8-4(2)7-3/h3-9H,1-2H3
