20
gdb 111225	3.35151	1.24768	1.15967	2.1172	77.85	-0.2423	0.0182	0.2605	1159.5744	0.173186	-403.146056	-403.138227	-403.137283	-403.178445	30.803	
C	 0.046479959	 1.5517028157	 0.0392510799	-0.383042
C	-0.088376528	 0.0293976887	-0.0850304205	-0.21561
C	 0.6954177093	-0.5419884247	-1.2643509888	 0.021101
C	 2.2346272371	-0.6740100454	-1.0724793778	 0.107366
C	 1.9869808461	-2.0714476277	-0.457608792	-0.258125
C	 0.7410689434	-2.1022577957	-1.3927838473	-0.019104
N	 1.1911951925	-2.4449760088	-2.7495019088	-0.259654
C	 2.2065704505	-1.7787553917	-3.1141277561	 0.10255
O	 2.8472619849	-0.8390747296	-2.3725403253	-0.241593
H	 1.0870056678	 1.8526448279	 0.2014375451	 0.117832
H	-0.3036840763	 2.0532870775	-0.8692069911	 0.120607
H	-0.5426429386	 1.9321340353	 0.8791665417	 0.116185
H	 0.2204104674	-0.4421371609	 0.8551609468	 0.098165
H	-1.1459273958	-0.2325286029	-0.2181112213	 0.10457
H	 0.4023172561	-0.0289723701	-2.1863112164	 0.080289
H	 2.8176475388	 0.0867054293	-0.5535839502	 0.085432
H	 2.7506999673	-2.8354903128	-0.613748866	 0.11107
H	 1.7279704824	-2.0081063931	 0.5993426686	 0.11209
H	-0.1344591863	-2.6918278841	-1.1187136908	 0.071769
H	 2.6740247825	-1.9060785672	-4.0870108495	 0.128103
83.4927	151.143	194.0189	275.9241	320.6402	376.6021	419.4768	470.2165	494.1666	610.3407	748.8839	771.7405	850.889	864.6558	883.7039	918.5168	921.8481	932.6304	962.3897	977.0087	1014.1731	1066.3376	1080.4889	1105.7858	1132.8847	1142.6353	1149.0476	1180.3887	1230.5922	1251.3504	1276.6424	1285.129	1310.8895	1333.6151	1358.4643	1380.2959	1401.059	1414.2537	1480.0986	1491.7737	1499.932	1507.7655	1698.979	3024.6872	3033.7841	3047.4329	3063.7979	3081.3763	3100.8509	3101.7044	3106.4672	3115.961	3143.7152	3179.0978
CCC1C2CC1N=CO2	CC[C@H]1[C@H]2C[C@@H]1[N][CH]O2	
InChI=1S/C7H11NO/c1-2-5-6-3-7(5)9-4-8-6/h4-7H,2-3H2,1H3	InChI=1S/C7H11NO/c1-2-5-6-3-7(5)9-4-8-6/h4-7H,2-3H2,1H3/t5-,6+,7-/m1/s1
