16
gdb 49652	4.44279	1.3484	1.27478	2.393	69.02	-0.2462	0.0081	0.2544	981.8688	0.126128	-437.849516	-437.843023	-437.842079	-437.880642	25.833	
O	 0.0918709042	 0.0006754974	-0.4119925526	-0.318175
C	 0.0632954083	 1.1817870594	-0.1455887023	 0.134298
N	 1.1242951563	 1.900041724	 0.3280600041	-0.040761
C	 2.5689421875	 1.5998129599	 0.1819651594	-0.076284
C	 2.8200786035	 1.9667849864	-1.3003322526	-0.21543
C	 2.4683832948	 3.451132093	-1.0779676982	 0.044574
O	 3.5279000096	 3.85531996	-0.1602230954	-0.284805
C	 2.841101149	 3.062598074	 0.8004142783	 0.092797
C	 1.4616439688	 3.307406709	 0.1690434477	-0.073631
H	-0.8574008702	 1.7988579016	-0.2006194721	 0.074867
H	 2.9411340049	 0.6692486515	 0.5988880364	 0.107136
H	 3.8591773357	 1.8697191381	-1.6187418568	 0.121048
H	 2.1601082844	 1.4129452176	-1.9697475141	 0.128939
H	 2.3234897088	 4.1306028547	-1.9149040115	 0.094191
H	 3.1313462021	 3.1891629582	 1.8404574733	 0.104566
H	 0.7514072823	 4.0922925951	 0.4175858764	 0.106669
92.2035	176.6444	284.0117	436.5382	485.3333	540.3222	563.9897	735.4646	745.4789	769.1066	777.9115	850.2784	858.44	917.2052	939.287	953.5587	985.5573	1009.647	1033.2079	1035.7246	1080.1393	1127.8764	1150.763	1152.4794	1168.0164	1214.7908	1227.4337	1249.5636	1281.3195	1287.0424	1337.7183	1389.6053	1429.7531	1479.0299	1794.0115	2921.5054	3087.7067	3147.9572	3150.5248	3154.4612	3163.4939	3178.7434
O=CN1C2CC3OC2C13	O=CN1[C@H]2C[C@@H]3O[C@H]2[C@H]13	
InChI=1S/C6H7NO2/c8-2-7-3-1-4-5(7)6(3)9-4/h2-6H,1H2	InChI=1S/C6H7NO2/c8-2-7-3-1-4-5(7)6(3)9-4/h2-6H,1H2/t3-,4-,5+,6+/m0/s1
