19
gdb 75498	2.23822	1.81955	1.22231	1.8692	77.44	-0.2305	0.0142	0.2447	1072.1927	0.158432	-423.010564	-423.001974	-423.001029	-423.04326	33.356	
C	-0.1288011708	 1.5108876707	 0.0199194381	-0.503566
C	-0.010655039	 0.014803649	-0.038988512	 0.277931
C	-0.0070446337	-0.6969945778	-1.1662761103	-0.174344
C	 0.1210648198	-2.2004882665	-1.1537316105	-0.125295
O	 0.8617175017	-2.6865062744	-0.0410185178	-0.258779
C	 0.4657329761	-2.1618354017	 1.1903629553	 0.059073
C	 1.3956823556	-1.1604892506	 1.8414212126	-0.370297
C	 0.0602921645	-0.7244782106	 1.2607229754	 0.257175
O	-0.9719206998	-0.4382818208	 2.1733456768	-0.463325
H	 0.7386871848	 1.9584039814	 0.5226246029	 0.122534
H	-0.2043036763	 1.946382451	-0.9795985511	 0.124126
H	-1.0175921749	 1.8073644493	 0.5895074448	 0.129608
H	-0.0963452052	-0.2130689703	-2.1357795718	 0.088019
H	-0.8790986501	-2.6670670807	-1.1870608226	 0.104269
H	 0.6642555392	-2.5472713843	-2.0386012936	 0.114916
H	-0.0678587945	-2.8579005868	 1.8343910806	 0.100635
H	 1.4817691227	-1.1823421837	 2.9229940311	 0.109743
H	 2.2972104793	-0.9111387236	 1.2935893635	 0.122634
H	-0.7155656494	 0.3439783003	 2.6735341588	 0.284942
109.0228	174.6971	198.2802	244.6212	263.1251	278.8114	324.6232	388.8917	435.1252	479.4565	541.3022	599.859	657.2689	741.933	802.1672	820.0194	902.4815	922.5364	940.1368	996.6491	1018.6103	1039.288	1048.8571	1067.8206	1076.9187	1092.9975	1162.1606	1181.621	1231.7143	1269.0536	1275.9515	1331.8111	1372.8476	1390.6867	1401.7047	1415.1502	1468.3487	1476.5542	1496.2834	1496.4069	1736.427	2951.592	3017.2044	3068.6602	3070.6659	3115.2054	3126.6671	3131.4747	3157.1589	3230.5054	3802.3842
CC1=CCOC2CC12O	CC1=CCO[C@H]2C[C@@]12O	
InChI=1S/C7H10O2/c1-5-2-3-9-6-4-7(5,6)8/h2,6,8H,3-4H2,1H3	InChI=1S/C7H10O2/c1-5-2-3-9-6-4-7(5,6)8/h2,6,8H,3-4H2,1H3/t6-,7+/m0/s1
