15
gdb 24389	3.77145	1.64686	1.15437	2.5413	71.74	-0.1917	0.0118	0.2035	985.4547	0.116428	-416.847699	-416.841004	-416.840059	-416.878814	26.344	
C	 0.0107812815	 1.5271315108	-0.0550679576	-0.28205
N	 1.3879990782	 2.009425344	 0.1257599967	-0.25155
C	 2.3539347653	 1.2194829715	 0.2753921965	 0.113116
O	 2.3560055348	-0.1644418083	 0.3035419235	-0.250462
C	 1.1018010007	-0.6717122375	 0.1402677876	 0.381153
C	-0.055428367	 0.028969811	-0.0339634202	 0.160211
C	-1.0887597166	-0.9498385563	-0.1573164413	-0.285547
C	-0.5043023022	-2.1896100221	-0.0507654675	-0.079615
N	 0.8561960213	-2.0101336321	 0.1330948565	-0.366392
H	-0.6033822218	 1.9855904443	 0.732899499	 0.120504
H	-0.363919909	 1.9506264242	-0.9976832817	 0.120507
H	 3.3716699867	 1.5749236637	 0.4089239529	 0.130382
H	-2.1414683337	-0.7639070567	-0.3068482263	 0.09795
H	-0.925916798	-3.1799432449	-0.0886949957	 0.123303
H	 1.5475902499	-2.7308458617	 0.2432584476	 0.268492
95.6693	226.895	297.3809	399.8024	411.9285	491.0481	515.2908	624.9508	629.7685	643.3246	701.7652	732.358	816.3295	871.7319	923.7384	934.3281	946.6853	1032.1413	1059.6278	1082.5298	1109.0108	1184.3952	1244.7673	1249.7679	1318.9242	1363.4634	1401.9009	1431.1317	1502.1032	1505.4636	1543.6162	1657.3134	1751.8523	2997.1697	3007.4536	3185.2987	3246.5441	3280.2215	3688.4702
C1N=COC2=C1C=CN2	C1N=COc2c1cc[nH]2	
InChI=1S/C6H6N2O/c1-2-8-6-5(1)3-7-4-9-6/h1-2,4,8H,3H2	InChI=1S/C6H6N2O/c1-2-8-6-5(1)3-7-4-9-6/h1-2,4,8H,3H2
