17
gdb 63048	2.67772	2.07293	1.57276	1.5035	66.12	-0.2306	0.0537	0.2843	880.9115	0.135397	-458.8962	-458.888952	-458.888007	-458.927347	29.455	
C	-0.0019089545	 1.505540039	-0.0084090065	-0.47395
C	 0.0395645913	-0.0172756387	-0.0107165457	 0.443975
O	-1.2530976574	-0.5774641772	-0.121464648	-0.474278
C	 1.0677453272	-0.6412466784	-1.000948924	-0.056446
O	 2.3000255411	 0.0436390778	-0.6223899974	-0.287437
C	 2.2359930772	-0.7464826723	 0.5674415278	 0.058375
C	 1.5038149618	-1.9011212867	-0.1130813139	 0.064418
O	 0.5856139313	-2.0741993845	 0.9615946559	-0.272607
C	 0.7670205835	-0.6536512443	 1.2025909759	-0.022115
H	 0.9972234221	 1.9337435989	 0.0781125606	 0.144783
H	-0.4437476461	 1.8794065814	-0.9408308468	 0.10784
H	-0.6213590733	 1.8558819573	 0.822985351	 0.124439
H	-1.7252714743	-0.0791640632	-0.796541096	 0.278377
H	 0.866831903	-0.6533947752	-2.0709412455	 0.079786
H	 3.1292822634	-0.7693413659	 1.1883916018	 0.100282
H	 1.9108854587	-2.8055300497	-0.5601519167	 0.09931
H	 0.526016345	-0.3350597681	 2.2149160876	 0.085251
202.2422	217.7507	231.6811	237.009	370.2858	376.7299	508.2124	535.0257	565.2263	629.2166	745.4379	774.6631	802.5188	847.8754	859.9593	877.0547	938.9868	956.3785	961.2135	987.5413	1023.4548	1046.6353	1102.9536	1130.8406	1143.1965	1162.4244	1190.6033	1198.4566	1201.3162	1240.2578	1270.3769	1308.1486	1336.9641	1395.609	1400.512	1491.1417	1501.8805	3026.8152	3093.6167	3137.9906	3140.9212	3146.3404	3148.0166	3156.5194	3812.4987
CC1(O)C2OC3C2OC13	C[C@@]1(O)[C@H]2O[C@@H]3[C@H]2O[C@H]13	
InChI=1S/C6H8O3/c1-6(7)4-2-3(9-4)5(6)8-2/h2-5,7H,1H3	InChI=1S/C6H8O3/c1-6(7)4-2-3(9-4)5(6)8-2/h2-5,7H,1H3/t2-,3-,4+,5+/m1/s1
