18
gdb 10268	2.26754	1.77254	1.27405	2.0156	71.75	-0.2526	-0.0204	0.2322	1043.2931	0.153144	-381.157051	-381.148039	-381.147094	-381.190901	32.112	
C	-0.3603813071	 1.6159480016	 0.0144275681	-0.391598
C	-0.2502043746	 0.0878211051	-0.0368706616	 0.028923
C	 0.8196409431	-0.4659802311	 0.9111140482	-0.391606
N	-1.5638040297	-0.558021199	 0.1922727501	-0.081029
C	-2.1541831944	-1.3248735668	-0.8115390467	 0.096196
N	-1.5981200137	-1.4963418519	-1.9416603015	-0.469182
C	-2.230473396	-0.4180384953	 1.3948612179	 0.163182
O	-3.3029701223	-0.9109769793	 1.6626966389	-0.3228
H	 0.5956439478	 2.0651752044	-0.2709758896	 0.125403
H	-1.1259516679	 1.9735374136	-0.6795194842	 0.132808
H	-0.6087577951	 1.9788501834	 1.0173107579	 0.118856
H	 0.0072353856	-0.205134608	-1.0558435193	 0.143176
H	 0.6252465142	-0.1982910854	 1.9550087301	 0.118861
H	 0.8744062611	-1.5557286306	 0.8405441731	 0.13281
H	 1.7984483525	-0.0569542115	 0.6430125932	 0.125405
H	-3.1137288635	-1.7287356227	-0.4864348351	 0.143632
H	-2.183117053	-2.0827053452	-2.5333852168	 0.23378
H	-1.6694618369	 0.2074661688	 2.1099675771	 0.093183
44.267	129.5631	209.7102	225.0113	227.1636	243.6993	254.9605	305.9017	342.8638	459.8792	462.4771	596.5993	671.4576	827.3593	835.1235	909.2783	934.7527	952.6249	1040.6174	1084.8239	1097.9102	1130.7115	1154.2499	1197.0984	1278.0167	1328.5096	1374.2293	1401.3908	1402.5507	1421.905	1447.6203	1454.6603	1484.2806	1492.691	1504.9601	1508.1484	1711.698	1801.5671	2988.8057	3037.1911	3041.0483	3094.4008	3103.7432	3119.6088	3120.2064	3124.523	3132.6315	3510.03
CC(C)N(C=N)C=O	CC(C)N(C=N)C=O	
InChI=1S/C5H10N2O/c1-5(2)7(3-6)4-8/h3-6H,1-2H3	InChI=1S/C5H10N2O/c1-5(2)7(3-6)4-8/h3-6H,1-2H3
