15
gdb 16799	3.85556	1.95895	1.41573	4.9909	68.42	-0.2473	-0.0471	0.2001	866.2581	0.119534	-362.680186	-362.673313	-362.672369	-362.711175	25.93	
C	-0.010676523	 1.4853997692	 0.0622860729	-0.499131
C	 0.0054678137	-0.0045883786	-0.0116012544	 0.330337
C	-0.0397352993	-0.7971141371	-1.095372461	-0.309642
C	 0.014798289	-2.2205670918	-0.6889541475	 0.377201
O	 0.0892657172	-3.2026781733	-1.3782201806	-0.326403
N	-0.0165072935	-2.2627625005	 0.7686480441	-0.130418
C	 1.2352606014	-1.7717685735	 1.373627688	-0.239461
C	 0.0543356943	-0.8683041891	 1.2064753806	-0.127337
H	 0.8795729784	 1.8601169656	 0.5815832705	 0.143203
H	-0.0524495845	 1.9395984925	-0.9298719384	 0.13993
H	-0.8768400251	 1.8346619404	 0.6375777063	 0.143971
H	-0.0369236102	-0.4912058078	-2.1329684983	 0.12023
H	 1.4661424579	-2.1830428492	 2.3522859792	 0.134238
H	 2.0878354133	-1.6143717275	 0.7174985478	 0.13342
H	-0.5347834496	-0.5938843894	 2.0777542309	 0.109862
135.7025	170.1336	215.4241	277.0858	329.1937	482.661	565.4202	583.6163	662.5063	762.8716	779.689	827.4471	873.399	899.3356	944.6096	1006.8456	1011.6501	1060.3244	1074.4757	1100.3002	1137.7068	1154.9248	1179.6435	1260.6825	1293.1391	1378.5312	1412.6946	1477.0895	1480.7104	1497.4102	1673.9723	1841.3806	3027.5921	3077.0327	3107.9676	3128.1966	3146.7934	3202.3498	3228.8487
CC1=CC(=O)N2CC12	CC1=CC(=O)N2C[C@@H]12	
InChI=1S/C6H7NO/c1-4-2-6(8)7-3-5(4)7/h2,5H,3H2,1H3	InChI=1S/C6H7NO/c1-4-2-6(8)7-3-5(4)7/h2,5H,3H2,1H3/t5-,7?/m0/s1
