29
gdb 122135	2.03586	0.69989	0.55818	0.0443	100.62	-0.2919	0.0907	0.3827	2186.4444	0.273394	-354.779205	-354.766746	-354.765802	-354.818024	44.704	
C	 0.2284045323	 2.2500198919	-0.691391408	-0.379957
C	 0.2463091351	 0.7423972452	-0.4249961872	-0.161314
C	 0.8790116646	-0.0651204879	-1.5642688228	-0.167159
C	 0.8824879619	-1.5767023772	-1.3040969284	-0.195725
C	 1.5080724198	-2.4308937012	-2.4269008849	 0.058115
C	 3.0470053563	-2.3110774863	-2.4269506402	-0.180576
C	 3.7246183175	-2.7614897001	-3.7255973495	-0.387668
C	 1.0650551366	-3.9053336193	-2.3182559973	-0.180823
C	-0.3898140476	-4.1684600052	-2.7211853271	-0.387843
H	 1.2433859718	 2.6402196733	-0.827319603	 0.112321
H	-0.3380867632	 2.4846453011	-1.5996622099	 0.112272
H	-0.2302316264	 2.7986414802	 0.1373934091	 0.109444
H	 0.7913499953	 0.5409604354	 0.506856642	 0.09298
H	-0.7793803341	 0.3877440716	-0.2566169463	 0.092651
H	 0.3333655988	 0.1381456748	-2.4966114309	 0.089988
H	 1.9020719142	 0.2971111729	-1.7299339328	 0.094431
H	 1.4133589138	-1.7859783708	-0.3637573016	 0.08748
H	-0.1541947105	-1.894285699	-1.137337672	 0.088748
H	 1.1410441133	-2.0418709995	-3.3898287753	 0.058944
H	 3.3300102777	-1.2698189766	-2.2347678387	 0.092366
H	 3.4439780896	-2.8904745367	-1.5815387897	 0.090171
H	 3.5231209254	-3.8123247823	-3.9564329674	 0.117052
H	 3.3770208469	-2.1647049899	-4.5764718705	 0.112862
H	 4.8112999686	-2.6451111693	-3.6618139791	 0.109844
H	 1.713417214	-4.5263011913	-2.9469346631	 0.091343
H	 1.2312355548	-4.2468895502	-1.2869252264	 0.090164
H	-0.6369382134	-5.2308234918	-2.6273977561	 0.110024
H	-1.0990934853	-3.613180124	-2.0993411771	 0.117118
H	-0.5670957576	-3.8778129076	-3.7628679759	 0.112746
54.412	65.8932	72.6109	92.5942	129.8412	137.4866	201.6341	216.5821	241.9721	254.7593	278.7547	305.0625	352.4178	446.6005	459.48	501.3717	731.5305	754.4539	779.4333	782.26	851.1556	896.9115	911.6745	946.6441	968.3719	1021.6594	1029.0685	1044.1444	1055.1449	1058.2536	1068.9081	1097.6477	1166.5935	1174.8823	1191.2996	1243.4705	1266.8379	1286.0927	1304.5482	1320.2641	1328.9729	1340.2355	1344.3883	1371.7695	1389.3854	1391.7057	1400.0824	1412.9728	1414.4487	1416.9173	1479.0188	1485.1987	1486.2567	1488.5672	1498.0923	1500.1373	1500.3583	1504.693	1505.9773	1509.012	1512.9715	2977.4616	3000.2332	3006.7252	3009.7429	3015.5172	3019.1306	3027.6897	3029.3298	3032.0359	3032.3707	3043.4176	3052.9348	3056.5479	3063.8503	3093.9612	3096.1923	3096.884	3099.3971	3103.1021	3105.5802
CCCCC(CC)CC	CCCCC(CC)CC	
InChI=1S/C9H20/c1-4-7-8-9(5-2)6-3/h9H,4-8H2,1-3H3	InChI=1S/C9H20/c1-4-7-8-9(5-2)6-3/h9H,4-8H2,1-3H3
