25
gdb 97549	3.1132	0.67303	0.66196	0.1288	99.15	-0.2384	0.0626	0.301	1948.0596	0.225718	-352.349205	-352.337152	-352.336208	-352.389703	43.15	
C	 0.1653583147	 1.3679016669	 0.5040522323	-0.361481
C	-0.0932323407	 0.1711839593	-0.429509331	-0.313842
C	-1.4325139475	-0.3919409405	-0.2826550269	 0.044057
C	-2.5426111765	-0.8400299521	-0.1405734889	 0.085749
C	-3.8968240565	-1.3891688754	 0.0169240608	 0.066516
C	-3.789457623	-2.9028899265	 0.3144526748	-0.40048
C	-4.5876563613	-0.6773614571	 1.2033421743	-0.399985
C	-4.6678479592	-1.1343032617	-1.3131938072	-0.16829
C	-6.1156818194	-1.6338482786	-1.364153219	-0.406524
H	 1.178385721	 1.7554640085	 0.3588961005	 0.111329
H	-0.5446253515	 2.1754808553	 0.305531758	 0.125729
H	 0.0553350874	 1.0739008763	 1.5514939741	 0.125794
H	 0.0605970079	 0.4819749043	-1.4711791005	 0.124881
H	 0.6547214581	-0.6091490717	-0.2371761167	 0.124928
H	-3.1813734995	-3.0743633339	 1.2070884949	 0.118232
H	-4.7775563318	-3.3390000917	 0.489782121	 0.110852
H	-3.3202303256	-3.4326155714	-0.519933277	 0.116743
H	-4.6929627082	 0.3940519386	 1.0084135804	 0.116317
H	-5.5821272766	-1.0955573584	 1.3859881309	 0.110962
H	-3.9979057594	-0.7973522528	 2.1164556994	 0.118153
H	-4.6497344156	-0.0557491687	-1.5081933492	 0.099967
H	-4.0958280165	-1.5985975764	-2.124885289	 0.100438
H	-6.5559504083	-1.402152867	-2.3392091093	 0.113534
H	-6.1834037253	-2.7172548673	-1.226507863	 0.118267
H	-6.7429921068	-1.159150868	-0.6035799437	 0.118155
2.0425	69.6798	85.9711	100.8309	177.6617	209.2722	211.3375	263.9173	274.847	279.1904	323.2626	337.2353	361.074	396.4765	485.3465	535.8629	563.3026	652.3536	782.9468	785.3725	790.1312	905.5353	938.0014	949.983	999.6604	1023.0299	1059.2932	1065.8455	1080.1019	1100.4633	1104.521	1207.8889	1221.0113	1260.5009	1286.3234	1321.3004	1350.2682	1366.9709	1393.3871	1407.4926	1408.4293	1420.2753	1476.7463	1480.3173	1480.9851	1485.2676	1494.2486	1502.7423	1505.7142	1507.8163	1508.4509	1510.2512	2357.773	3015.3205	3030.6454	3035.5841	3037.7506	3041.296	3041.8759	3042.8321	3065.2162	3101.6621	3106.2681	3111.9136	3113.5121	3114.6304	3114.8147	3115.3518	3121.336
CCC#CC(C)(C)CC	CCC#CC(C)(C)CC	
InChI=1S/C9H16/c1-5-7-8-9(3,4)6-2/h5-6H2,1-4H3	InChI=1S/C9H16/c1-5-7-8-9(3,4)6-2/h5-6H2,1-4H3
