23
gdb 97942	4.6437	0.57514	0.5428	0.1293	95.94	-0.2379	0.0597	0.2976	2151.3987	0.20519	-351.128843	-351.118473	-351.117528	-351.16619	37.148	
C	-0.0218118027	 1.3466516798	 0.5661379867	-0.362276
C	-0.0586542123	 0.0724452977	-0.2974409608	-0.312142
C	-1.3920354963	-0.5132431695	-0.3975265739	 0.095638
C	-2.5057216026	-0.9679236261	-0.4703016117	 0.033388
C	-3.8370650298	-1.5623300699	-0.5483755096	-0.379911
C	-3.8752672831	-3.0165702236	-0.0673854433	 0.071618
C	-3.651771907	-3.3210790457	 1.4396011663	-0.210591
C	-4.7589862343	-4.4058108923	 1.3424022206	-0.210531
C	-5.2541165953	-3.7269102911	 0.0365860825	-0.237186
H	 0.994505863	 1.7498083437	 0.6115828721	 0.11128
H	-0.6796782424	 2.1152283064	 0.1513458863	 0.126423
H	-0.3545920619	 1.1339906571	 1.5857753581	 0.126065
H	 0.3165629101	 0.3027248269	-1.3031793013	 0.12493
H	 0.6362244769	-0.6691508956	 0.1178349419	 0.124874
H	-4.5418723142	-0.969620141	 0.0518137899	 0.116554
H	-4.2061710559	-1.5126182394	-1.5824258343	 0.120994
H	-3.1870032277	-3.6138838112	-0.6746249462	 0.078293
H	-2.6528405357	-3.6292692073	 1.7553287692	 0.09812
H	-3.9671501826	-2.4775846408	 2.0629497638	 0.0978
H	-4.33945338	-5.3971324053	 1.1482676123	 0.101361
H	-5.4659272939	-4.4866921814	 2.1713318706	 0.094962
H	-6.0556708676	-3.0074717724	 0.2368894227	 0.095894
H	-5.5634908249	-4.3673994989	-0.7932177418	 0.094445
25.6253	48.8448	72.0962	130.5738	158.8476	186.9349	264.7034	295.679	360.8536	383.6065	466.2075	512.4111	638.77	735.8887	762.2631	786.6348	791.6292	873.5653	902.2073	932.4708	959.0708	964.0998	975.348	1049.5247	1078.694	1103.2999	1108.3915	1132.1298	1163.8614	1198.4494	1216.2478	1256.0773	1259.5251	1267.3075	1274.7334	1287.2141	1296.5949	1332.309	1352.1146	1379.0167	1408.2031	1469.7681	1477.169	1477.5253	1486.4042	1494.533	1505.8629	1510.2785	2364.474	3000.2913	3016.4985	3026.7727	3042.4637	3042.6102	3042.8422	3048.0661	3056.1281	3057.9731	3095.9168	3104.1899	3115.3871	3118.2566	3122.5676
CCC#CCC1CCC1	CCC#CCC1CCC1	
InChI=1S/C9H14/c1-2-3-4-6-9-7-5-8-9/h9H,2,5-8H2,1H3	InChI=1S/C9H14/c1-2-3-4-6-9-7-5-8-9/h9H,2,5-8H2,1H3
