15
gdb 27255	3.3515	1.57164	1.08733	0.9525	68.8	-0.208	0.0256	0.2336	1051.8403	0.113463	-457.765047	-457.757582	-457.756637	-457.79725	27.567	
C	 0.0974383841	 1.5088263947	 0.0323684143	-0.49778
C	-0.0716804748	 0.0354097576	 0.0413445164	 0.232976
C	-1.1160805966	-0.8201164554	-0.0452028261	 0.157925
O	-2.4811284468	-0.8345014391	-0.147283351	-0.289236
C	-2.7927563649	-2.2159650569	-0.3920915391	-0.00584
O	-1.6631220128	-3.026775441	-0.0176715077	-0.283699
C	-0.6268837037	-2.1401405933	 0.035046909	 0.240829
C	 0.7148000542	-2.0761700763	 0.1699757799	-0.158909
O	 1.0654016379	-0.7404095076	 0.1759853081	-0.211112
H	 0.7537007452	 1.8337829029	-0.7829898449	 0.139224
H	-0.8755614323	 1.9876741916	-0.1003349856	 0.14005
H	 0.532436857	 1.872582424	 0.9704114811	 0.139486
H	-3.6544713771	-2.5024159109	 0.2150747617	 0.135892
H	-2.9954292963	-2.3573594435	-1.4633638785	 0.118374
H	 1.5179609268	-2.7827432769	 0.2716816724	 0.14182
113.8278	122.0356	173.5483	245.6385	311.3541	360.2631	535.533	572.2795	592.5793	670.6873	683.2614	707.4214	768.601	809.6483	935.8451	937.7055	1052.7045	1064.3025	1099.8193	1110.3489	1138.2006	1141.9319	1213.4563	1265.0706	1296.4947	1416.3654	1431.5065	1467.5658	1471.9471	1494.6696	1533.4524	1674.952	1747.5983	3000.9655	3028.4972	3078.5845	3108.0038	3126.788	3301.2586
CC1=C2OCOC2=CO1	Cc1c2OCOc2co1	
InChI=1S/C6H6O3/c1-4-6-5(2-7-4)8-3-9-6/h2H,3H2,1H3	InChI=1S/C6H6O3/c1-4-6-5(2-7-4)8-3-9-6/h2H,3H2,1H3
