18
gdb 26160	2.56196	1.50102	0.97934	3.5423	75.18	-0.1878	0.0411	0.2289	1183.6632	0.149096	-435.302107	-435.293197	-435.292252	-435.33567	33.831	
C	 0.0856611745	 1.2764981877	 1.0818169084	-0.387523
C	-0.2238263152	 0.5020491487	-0.1962279588	 0.003225
O	 0.8182172755	-0.445439118	-0.5034225497	-0.429046
C	-1.5622284904	-0.1847006447	-0.1523519661	 0.2082
C	-1.9470421792	-1.3030992255	-0.8613825521	 0.221479
N	-1.2953298875	-2.08261901	-1.8228939796	-0.612212
N	-3.2641138101	-1.5158508327	-0.5216141573	-0.290346
C	-3.6211661009	-0.5303022119	 0.3649326451	-0.01139
N	-2.6251485416	 0.2813586426	 0.6024080373	-0.318834
H	 1.0547913259	 1.7744708618	 0.9921419159	 0.110785
H	-0.6923753308	 2.0181196194	 1.274630462	 0.143172
H	 0.1115715128	 0.6006060053	 1.9445330727	 0.105539
H	-0.1841824624	 1.1980047201	-1.0451063702	 0.099846
H	 0.8781057463	-1.0397197765	 0.2541974509	 0.274305
H	-0.3199871876	-1.8009518774	-1.8534402861	 0.26108
H	-1.343316178	-3.0772146439	-1.6252516272	 0.236636
H	-3.8618829247	-2.2260100694	-0.9102313105	 0.261104
H	-4.6072149466	-0.4806322757	 0.8012498054	 0.123979
50.5128	173.1099	194.8479	232.3173	283.3819	291.0959	318.4042	364.1395	426.7575	463.7405	482.7091	518.0271	644.6547	667.3479	716.3017	746.4299	769.2971	868.6399	891.342	951.6105	1028.8375	1055.9064	1091.3197	1099.8515	1108.3079	1206.3822	1269.1042	1289.7079	1307.8319	1356.0524	1398.3496	1400.4269	1417.4952	1483.8126	1486.8445	1495.7734	1536.3308	1625.8725	1671.1459	3013.3711	3036.5369	3107.9099	3139.2586	3252.0015	3490.1042	3577.1092	3661.0638	3784.0662
CC(O)C1=C(N)NC=N1	C[C@@H](O)c1c(N)[nH]cn1	
InChI=1S/C5H9N3O/c1-3(9)4-5(6)8-2-7-4/h2-3,9H,6H2,1H3,(H,7,8)	InChI=1S/C5H9N3O/c1-3(9)4-5(6)8-2-7-4/h2-3,9H,6H2,1H3,(H,7,8)/t3-/m1/s1
