17
gdb 117150	3.11185	0.80772	0.69713	4.0496	67.28	-0.2575	-0.0537	0.2038	1578.1856	0.131464	-496.107792	-496.097528	-496.096583	-496.144842	34.831	
O	-0.1572191842	 1.3926501983	 0.0921176666	-0.42159
C	 0.0197420909	-0.0126357742	 0.0332210109	-0.074576
C	-1.3735987234	-0.6280202339	 0.0697354102	-0.296663
C	-1.3662019826	-2.1345064603	 0.0116564688	 0.337861
O	-0.349825879	-2.7931224932	-0.034294948	-0.31548
C	-2.7118382625	-2.8918448812	 0.0067588676	-0.035747
O	-2.5122846393	-4.242811027	-0.2177124519	-0.407241
C	-3.4596137848	-2.6209305304	 1.3271299381	 0.129099
O	-3.623234514	-3.4443588025	 2.1807356705	-0.213816
H	 0.7109602215	 1.8058912802	 0.0812214844	 0.292705
H	 0.5358967367	-0.3239346728	-0.8859472937	 0.108318
H	 0.611081086	-0.3886907116	 0.8797430902	 0.110334
H	-1.89641453	-0.305158076	 0.9806049502	 0.146607
H	-1.9765896755	-0.2401906476	-0.7613970015	 0.144184
H	-3.3364034185	-2.4467613778	-0.7881398789	 0.112128
H	-1.5546047107	-4.3837971732	-0.1397205827	 0.3008
H	-3.8536834306	-1.5824727868	 1.4217946992	 0.083079
33.3386	56.0263	88.0433	109.1414	136.0161	254.4165	268.5337	285.1036	337.9519	349.1437	410.8808	436.0254	533.08	687.3333	748.3732	792.9699	816.9301	904.8811	969.4466	999.7064	1057.367	1086.3264	1107.307	1174.5373	1209.8157	1226.2094	1256.9837	1304.5613	1336.8601	1360.6562	1408.5999	1423.0876	1445.8628	1469.0889	1523.7866	1788.2895	1853.9255	2858.3205	2961.3327	2998.9146	3026.4578	3030.2896	3065.1487	3681.4226	3833.7456
OCCC(=O)C(O)C=O	OCCC(=O)[C@@H](O)C=O	
InChI=1S/C5H8O4/c6-2-1-4(8)5(9)3-7/h3,5-6,9H,1-2H2	InChI=1S/C5H8O4/c6-2-1-4(8)5(9)3-7/h3,5-6,9H,1-2H2/t5-/m0/s1
