22
gdb 105263	2.43903	1.22503	1.03108	1.4329	83.02	-0.2167	0.0698	0.2865	1291.6726	0.19336	-404.290507	-404.280842	-404.279897	-404.324716	36.916	
C	 0.0095887033	 1.421799955	-0.0460005954	-0.334339
N	 0.1808729535	-0.0196615637	 0.1062718322	-0.116053
C	 1.4985361398	-0.5817322088	-0.1644015064	-0.292176
C	 0.9622793226	-0.5511267687	 1.2336361865	 0.286915
C	 1.5905254731	 0.3985279213	 2.2566588722	-0.174902
O	 2.5844137255	 1.2777187659	 1.7522180333	-0.405871
C	 0.3695305418	-1.8230556702	 1.7880653439	-0.017025
C	 1.1025189173	-2.7317873529	 2.7448859799	-0.280182
C	-0.1145520408	-1.9717932947	 3.2114117158	-0.283466
H	 0.887520522	 2.0154004046	 0.2393029572	 0.13199
H	-0.2296580078	 1.6304194056	-1.0938967514	 0.118017
H	-0.8446047931	 1.7448027937	 0.5587405692	 0.117099
H	 1.5162977303	-1.5174911268	-0.7194729217	 0.105355
H	 2.2986946001	 0.1119458596	-0.4160023679	 0.099627
H	 0.8146729999	 1.0484750579	 2.6761381305	 0.123475
H	 1.9931192977	-0.1903497432	 3.0923252638	 0.097095
H	 3.3300695438	 0.7404666031	 1.4657526509	 0.282634
H	-0.2393920765	-2.3227610512	 1.0415823846	 0.092675
H	 1.019895364	-3.8022812163	 2.5924546136	 0.112296
H	 2.0710578771	-2.4187115541	 3.1213339308	 0.108561
H	 0.0365205958	-1.1525213923	 3.9057605399	 0.114187
H	-1.0353911294	-2.5195479638	 3.3781491184	 0.114088
75.2646	117.2022	179.2771	197.7461	208.7758	245.9103	290.4697	345.9862	352.094	378.0431	447.0504	512.9061	520.4691	692.4899	763.8575	782.7881	831.7131	845.3652	913.0849	926.3399	954.1031	1013.388	1042.0959	1057.8669	1061.519	1077.7168	1102.0681	1121.5328	1135.1826	1144.3515	1162.8797	1197.7752	1205.1417	1222.1579	1241.4863	1299.4176	1336.8544	1398.3808	1414.2079	1427.0097	1447.3653	1470.7946	1489.883	1502.7955	1505.4543	1511.9803	1516.742	3004.6319	3013.0385	3067.3332	3081.4594	3086.8853	3094.1567	3130.2292	3137.7127	3159.1447	3169.405	3206.3695	3222.3524	3815.525
CN1CC1(CO)C1CC1	CN1C[C@]1(CO)C1CC1	
InChI=1S/C7H13NO/c1-8-4-7(8,5-9)6-2-3-6/h6,9H,2-5H2,1H3	InChI=1S/C7H13NO/c1-8-4-7(8,5-9)6-2-3-6/h6,9H,2-5H2,1H3/t7-,8?/m0/s1
