18
gdb 67731	2.97542	1.88069	1.33795	2.0991	75.6	-0.2255	-0.0037	0.2217	963.8023	0.147705	-401.870532	-401.863031	-401.862087	-401.901686	31.144	
C	 0.0018076649	 1.5275029052	 0.0122852243	-0.511445
C	 0.0430920334	 0.0194598385	-0.0291783506	 0.34277
C	 0.4649139134	-0.7120756354	-1.2999174975	-0.160219
C	 0.3797252277	-2.0090509309	-1.0041043981	-0.198791
C	-0.0916436444	-2.0056806874	 0.4434095697	 0.364416
O	-0.3766975495	-3.1882799429	 1.1184416717	-0.486718
C	 0.6270634672	-0.8027316038	 1.1778678284	-0.132645
N	-0.6037863512	-0.4873975038	 1.9917023196	-0.356317
C	-1.1154440964	-0.8353774388	 0.6140928569	-0.094004
H	 0.9909941707	 1.9530159935	-0.1903040114	 0.113643
H	-0.6888210094	 1.9224187886	-0.7411279769	 0.114677
H	-0.3270298204	 1.868096512	 0.9967243828	 0.145879
H	 0.7563254355	-0.2345185845	-2.2257580645	 0.106386
H	 0.5706906869	-2.881587601	-1.6137654733	 0.106367
H	 0.4323587899	-3.7062457196	 1.1860931706	 0.285852
H	 1.6388582699	-0.7582262814	 1.5950262011	 0.069096
H	-0.7928883858	-1.2809693415	 2.6104812821	 0.215204
H	-2.1796462726	-0.8300807969	 0.3598661151	 0.075847
207.9825	228.5089	269.7827	294.8933	342.7917	357.2333	399.7705	512.3838	526.3738	582.7209	669.7652	714.4026	715.9974	747.8843	790.4223	832.0953	878.8944	906.9003	921.5074	926.515	1034.5968	1060.5636	1067.2699	1082.9645	1130.1857	1133.4408	1142.1403	1172.2098	1229.8399	1241.6939	1282.3314	1296.9715	1313.2175	1361.2402	1372.9665	1408.529	1492.8077	1500.626	1639.7745	3031.774	3058.7322	3075.9276	3088.5181	3127.881	3210.9436	3238.2184	3403.9278	3808.706
CC12C=CC3(O)C1NC23	C[C@@]12C=C[C@@]3(O)[C@@H]1N[C@@H]23	
InChI=1S/C7H9NO/c1-6-2-3-7(9)4(6)8-5(6)7/h2-5,8-9H,1H3	InChI=1S/C7H9NO/c1-6-2-3-7(9)4(6)8-5(6)7/h2-5,8-9H,1H3/t4-,5+,6-,7-
