16
gdb 24056	3.56894	1.01381	0.98192	1.0698	77.29	-0.1877	0.0274	0.2151	1257.6151	0.124328	-400.727069	-400.718722	-400.717778	-400.761301	30.916	
C	 0.3471747444	-0.1598335597	-1.1579178051	-0.459648
C	 0.1751629636	 0.5522160548	-0.2047796039	 0.312177
C	 0.0239184718	 1.418128016	 0.9672246194	-0.329395
N	 1.2251956843	 2.1954113637	 1.3110227551	-0.382883
C	 1.5694500303	 3.2559217767	 0.4826647414	 0.432956
C	 2.7548822739	 3.7033587464	-0.0212467945	-0.294364
C	 2.4488174087	 4.9306983057	-0.7031490533	-0.158168
C	 1.1150826051	 5.1230144692	-0.5757476805	-0.027381
O	 0.5614201919	 4.1036333194	 0.1605063738	-0.176633
H	 0.4862358201	-0.7830012986	-2.0065240235	 0.202128
H	-0.7938552728	 2.1266052509	 0.811394019	 0.16485
H	-0.2434378949	 0.8157753034	 1.8419661902	 0.138719
H	 2.0246148602	 1.5961756553	 1.4700352513	 0.245082
H	 3.7149445262	 3.2214116797	 0.0694517554	 0.096784
H	 3.1398579169	 5.5715060147	-1.2283435019	 0.106946
H	 0.4223075505	 5.8689154923	-0.9248726231	 0.128831
36.9996	51.3748	181.733	194.7138	323.7131	330.4542	425.9324	579.6076	599.4874	621.1548	625.7821	662.143	675.6157	718.8176	734.4074	760.5294	835.773	898.7989	929.5799	947.8635	996.7379	1032.074	1074.5965	1106.5512	1180.2197	1229.8711	1262.5069	1313.7709	1365.0734	1418.8753	1471.025	1483.7563	1568.5979	1649.7227	2232.183	3053.3224	3102.7397	3251.4391	3264.2855	3295.4211	3504.7292	3581.8134
C#CCNC1=CC=CO1	C#CCNc1ccco1	
InChI=1S/C7H7NO/c1-2-5-8-7-4-3-6-9-7/h1,3-4,6,8H,5H2	InChI=1S/C7H7NO/c1-2-5-8-7-4-3-6-9-7/h1,3-4,6,8H,5H2
