19
gdb 116651	2.61977	0.92336	0.8184	1.9524	76.84	-0.2294	0.0191	0.2485	1499.9725	0.156664	-456.370482	-456.359488	-456.358544	-456.408224	37.179	
C	-0.4800602915	 0.8296026176	-0.1376635092	-0.250369
O	 0.7425756216	 0.3450061326	-0.6819190099	-0.191755
C	 0.6947397612	-0.907866723	-1.1774228494	 0.120446
N	 1.7404757137	-1.413406853	-1.670998968	-0.256877
C	 1.7256061007	-2.7868041015	-2.1776370063	-0.043249
C	 2.0615316027	-3.7738649393	-1.0520458698	-0.378038
C	 0.3972996461	-3.1847131226	-2.842594001	 0.406284
N	 0.4426799491	-3.3016353197	-4.1984891536	-0.524765
O	-0.6275060691	-3.3724790217	-2.2066430002	-0.379764
H	-1.2787764063	 0.839944121	-0.8889598325	 0.12894
H	-0.8026632471	 0.23016095	 0.721989811	 0.130021
H	-0.2856432472	 1.8510381867	 0.1916972031	 0.14282
H	-0.2845105185	-1.3954436295	-1.1167953589	 0.119705
H	 2.5234159105	-2.837398865	-2.9290664075	 0.075394
H	 1.2232067086	-3.8300712665	-0.3531572008	 0.137278
H	 2.2477828426	-4.7761585753	-1.4508615407	 0.113826
H	 2.9523140622	-3.4328756517	-0.5189576213	 0.126046
H	 1.2620916318	-3.0623092317	-4.7279780418	 0.264008
H	-0.414129571	-3.4968655274	-4.6912486632	 0.26005
33.4764	48.6308	69.8828	126.9648	149.2314	197.5948	235.3956	243.6534	251.1663	284.7457	373.1047	431.0195	458.8616	560.1415	605.2545	671.5755	767.7906	810.0409	934.9558	1022.2473	1032.0256	1060.1227	1077.6022	1122.2352	1131.2215	1177.5279	1186.248	1279.858	1293.1045	1335.7247	1392.6059	1408.0311	1425.3954	1485.8729	1487.6881	1494.6078	1495.791	1500.9606	1615.1861	1745.9062	1782.594	3015.8721	3018.839	3042.8407	3071.3277	3080.5029	3117.9728	3135.6994	3143.3815	3597.8389	3737.1286
COC=NC(C)C(N)=O	COC=N[C@@H](C)C(=O)N	
InChI=1S/C5H10N2O2/c1-4(5(6)8)7-3-9-2/h3-4H,1-2H3,(H2,6,8)	InChI=1S/C5H10N2O2/c1-4(5(6)8)7-3-9-2/h3-4H,1-2H3,(H2,6,8)/t4-/m0/s1
