22
gdb 22958	2.31814	0.98598	0.73066	0.6915	86.95	-0.2408	0.0085	0.2493	1612.4805	0.192547	-404.307233	-404.297022	-404.296078	-404.343256	37.148	
C	-0.0977080667	 1.484181771	-0.2597128126	-0.381652
C	-0.0554237516	-0.0330264526	-0.0599309162	-0.167933
C	 0.7415317889	-0.4484850268	 1.182819004	-0.182688
C	 0.7877025979	-1.9586391577	 1.4065301222	-0.067995
C	 1.5208877166	-2.498820893	 2.6829741067	-0.251846
C	 0.2769729251	-3.3731741253	 3.0354693522	-0.318307
C	-0.4601954137	-2.6627790218	 1.9192631613	 0.41436
N	-1.6668885381	-2.5560663458	 1.5499530152	-0.236425
O	-2.5129687308	-3.3484875682	 2.3529444549	-0.394637
H	 0.9101536982	 1.9008379526	-0.36945593	 0.109455
H	-0.6673817054	 1.7523606267	-1.1550056533	 0.110499
H	-0.5687359776	 1.98286371	 0.5948691517	 0.113261
H	-1.07323406	-0.4294961631	 0.0228490446	 0.125653
H	 0.3879521202	-0.5079195018	-0.9456313199	 0.088991
H	 1.7728369713	-0.0771929885	 1.1014112559	 0.091099
H	 0.3105716257	 0.031161113	 2.0720955928	 0.091626
H	 1.1644716592	-2.4526796203	 0.5010907469	 0.088453
H	 2.4548700553	-3.0351788883	 2.5073420048	 0.103166
H	 1.7016951496	-1.7099925778	 3.4175236475	 0.108181
H	 0.4099316987	-4.4434406166	 2.8477473524	 0.125016
H	-0.1533006775	-3.2562098352	 4.0333433704	 0.127191
H	-3.3789266753	-3.1672253005	 1.9726160285	 0.304531
51.7343	70.3014	98.4328	156.289	172.1709	222.4173	247.2519	307.6299	345.0073	365.3615	448.5152	492.2947	569.8103	686.225	749.7664	758.3459	812.0904	867.2896	901.972	925.4467	938.8527	979.9448	1010.7098	1045.6392	1056.7335	1072.9939	1136.8395	1151.2665	1176.7726	1213.6639	1228.6359	1246.4191	1261.6635	1275.8422	1311.0362	1333.0714	1357.3049	1395.2136	1402.5484	1410.8739	1459.0076	1482.1291	1489.6416	1494.5074	1499.9228	1510.9696	1777.6781	3003.9177	3015.3364	3018.1969	3026.9433	3043.4824	3055.6527	3069.3364	3071.601	3096.5747	3100.3526	3101.8986	3126.8085	3820.0341
CCCC1CCC1=NO	CCC[C@H]1CCC1=NO	
InChI=1S/C7H13NO/c1-2-3-6-4-5-7(6)8-9/h6,9H,2-5H2,1H3	InChI=1S/C7H13NO/c1-2-3-6-4-5-7(6)8-9/h6,9H,2-5H2,1H3/t6-/m0/s1
