20
gdb 119247	2.19643	1.18419	0.91498	2.8865	76.86	-0.2444	0.0291	0.2735	1362.2986	0.169212	-440.283281	-440.273252	-440.272308	-440.319576	35.389	
C	-1.0235708223	 1.2059256059	-0.1866016096	-0.22528
O	-0.7682991407	-0.1744329292	-0.2940108318	-0.246679
C	 0.4237474364	-0.4619475053	-0.9995661579	-0.11574
C	 0.6534873064	-1.9529988858	-0.9449165335	 0.338405
C	-0.0673741529	-2.8418891043	-1.9306001335	-0.310557
C	 1.4174377695	-2.6184008609	-2.0557377074	-0.284357
N	 0.8269026947	-2.4782515413	 0.3834287442	-0.329759
C	 2.0104343565	-2.4212435146	 1.0609258752	 0.144633
O	 3.0739310747	-2.0743531918	 0.5955189124	-0.32192
H	-0.2146783429	 1.7317177136	 0.3446316936	 0.108412
H	-1.1457262547	 1.6774382664	-1.1746992388	 0.104678
H	-1.9525298495	 1.3249303121	 0.376505616	 0.126274
H	 0.3469345866	-0.1276884508	-2.0475945484	 0.08272
H	 1.2792481482	 0.0616041596	-0.5437601789	 0.111102
H	-0.4052154228	-3.808222528	-1.5744162961	 0.116849
H	-0.730826954	-2.3623828471	-2.6413706452	 0.120278
H	 1.7849584059	-1.989701554	-2.8589085987	 0.120079
H	 2.0849277076	-3.42258065	-1.7753770071	 0.136886
H	-0.0107244641	-2.5985038829	 0.9334333293	 0.252078
H	 1.8914373672	-2.7631989318	 2.109764006	 0.071896
27.902	75.5258	99.3096	148.0559	173.7196	222.6041	246.8624	317.2044	337.2783	385.4918	449.3469	521.4428	540.8432	727.3057	773.4316	831.8804	905.0096	942.9656	945.4116	999.7543	1019.761	1033.949	1054.4381	1071.6306	1088.8521	1153.5701	1178.5838	1184.6092	1192.4128	1226.6441	1252.1932	1310.5926	1356.3173	1418.0266	1433.3347	1461.8716	1481.243	1486.154	1495.6779	1502.1879	1509.9004	1523.0474	1808.7428	2920.9605	2960.2276	2973.8791	3001.7625	3016.1731	3112.8413	3140.358	3152.1717	3225.4617	3244.4488	3612.1216
COCC1(CC1)NC=O	COCC1(CC1)NC=O	
InChI=1S/C6H11NO2/c1-9-4-6(2-3-6)7-5-8/h5H,2-4H2,1H3,(H,7,8)	InChI=1S/C6H11NO2/c1-9-4-6(2-3-6)7-5-8/h5H,2-4H2,1H3,(H,7,8)
