19
gdb 83262	1.8733	1.79374	1.52603	0.9306	69.87	-0.2301	0.0654	0.2955	1022.5736	0.158118	-460.13594	-460.126873	-460.125929	-460.169323	34.269	
C	-0.0258543111	 1.58228046	-0.0731492424	-0.421896
C	 0.0060325534	 0.053594773	 0.0072695483	-0.051321
C	 0.7183058767	-0.619597719	-1.1856175114	-0.098003
O	 1.4562047381	-1.7525851165	-0.6870703311	-0.274971
C	 1.5292400424	-1.6842942203	 0.7111220678	-0.014297
C	 2.2475630218	-0.4733100022	 1.2783853453	-0.009413
O	 2.9822052872	 0.3611420471	 0.4322396501	-0.425376
C	 0.7286082376	-0.525094923	 1.2216269619	 0.308315
O	 0.0180186182	-0.6466504015	 2.4157010485	-0.469555
H	 0.9892522816	 1.9852463932	-0.1153176195	 0.144429
H	-0.5733505231	 1.921212552	-0.9590737257	 0.114595
H	-0.5315875011	 2.0070409661	 0.8009222182	 0.107267
H	-1.0205407268	-0.3253614009	 0.0812229623	 0.088014
H	 0.0197246333	-0.9857383793	-1.9444857298	 0.108919
H	 1.4123767414	 0.0812916831	-1.6628602268	 0.100141
H	 1.5774779035	-2.6528380957	 1.1955666139	 0.111585
H	 2.6613310378	-0.5891457607	 2.2804121379	 0.096082
H	 3.413549413	-0.2049016794	-0.2185066409	 0.299461
H	 0.0636178658	 0.198288824	 2.8772119535	 0.286025
96.3295	119.0571	196.0982	220.8117	247.9567	264.3987	310.251	338.6203	348.5188	406.9957	558.2399	581.4845	619.7821	694.286	714.5526	816.9685	917.0938	931.2309	946.2788	960.355	984.2033	1045.2206	1078.4014	1109.7134	1145.0529	1152.6453	1157.6495	1210.6682	1241.9997	1260.1826	1317.4088	1322.3192	1330.0499	1344.0111	1360.7761	1401.3539	1406.0937	1465.1809	1499.0325	1505.4878	1521.4373	3028.9463	3032.7855	3034.598	3078.6913	3091.9302	3103.7948	3125.4129	3181.7277	3789.1129	3790.4794
CC1COC2C(O)C12O	C[C@H]1CO[C@H]2[C@@H](O)[C@@]12O	
InChI=1S/C6H10O3/c1-3-2-9-5-4(7)6(3,5)8/h3-5,7-8H,2H2,1H3	InChI=1S/C6H10O3/c1-3-2-9-5-4(7)6(3,5)8/h3-5,7-8H,2H2,1H3/t3-,4+,5-,6-/m0/s1
