17
gdb 38337	4.00379	1.47825	1.23234	1.6982	75.22	-0.2335	0.0069	0.2405	1010.208	0.136462	-421.755328	-421.748458	-421.747514	-421.786603	27.616	
C	-0.0759243386	 1.6306621672	 0.035244693	-0.237379
C	 1.417135991	 1.2439114969	-0.0751639014	-0.018219
O	 1.2302023429	 0.2916714741	 1.0425958699	-0.318111
C	 0.0471858969	 0.0956115689	 0.1747645311	-0.018218
C	 1.0337327658	 0.0719310883	-1.0437249997	 0.474298
O	 0.533305864	 0.3903954247	-2.3230879928	-0.333862
C	 1.0900845224	-0.4866796177	-3.3035681071	-0.137799
C	 1.9973424085	-1.4008850749	-2.5304799617	-0.112108
C	 1.96132664	-1.0777224967	-1.2418352559	-0.171371
H	-0.3415715747	 2.1483253468	 0.9575660402	 0.105008
H	-0.5698545821	 2.0267493892	-0.8523497052	 0.120978
H	 2.3087550663	 1.8720375705	-0.0583674693	 0.092546
H	-0.6915677663	-0.6428357463	 0.489006432	 0.092547
H	 0.2808732945	-1.0257233961	-3.8192859312	 0.111772
H	 1.6255949037	 0.1016023984	-4.0641758659	 0.111763
H	 2.5756365882	-2.1909850028	-2.9917252701	 0.110965
H	 2.4951722176	-1.5365754004	-0.4234585558	 0.12719
103.372	199.8045	231.3737	336.7532	429.0975	490.1847	523.7728	628.0482	721.1147	786.7275	786.9166	826.5593	842.517	881.6968	912.1586	934.8991	950.0308	974.3497	1003.5746	1018.8319	1033.8197	1044.7878	1105.8332	1116.1411	1129.2908	1167.1473	1175.3966	1197.7636	1199.5646	1207.1696	1273.2208	1296.9553	1372.7272	1379.7051	1477.3203	1517.773	1682.1057	2984.2795	3003.8764	3082.913	3109.6277	3117.6042	3164.6835	3218.2397	3260.1458
C1C2OC1C21OCC=C1	C1[C@H]2O[C@@H]1[C@]12OCC=C1	
InChI=1S/C7H8O2/c1-2-7(8-3-1)5-4-6(7)9-5/h1-2,5-6H,3-4H2	InChI=1S/C7H8O2/c1-2-7(8-3-1)5-4-6(7)9-5/h1-2,5-6H,3-4H2/t5-,6+,7+
