15
gdb 130125	3.22083	1.47181	1.01459	3.432	74.9	-0.2027	-0.0303	0.1724	1102.6696	0.115803	-446.345685	-446.337821	-446.336877	-446.377533	31.052	
N	 0.0152662792	 1.390469979	-0.1945993292	-0.591037
C	 0.0022364331	-0.0137262319	-0.1012521582	 0.304597
N	-1.1168804448	-0.6686485025	-0.3047052411	-0.255176
N	-1.1285344349	-2.0078616475	-0.2761909382	-0.295302
C	 0.0225019003	-2.6210468765	 0.005464782	 0.445738
N	-0.0214392199	-3.9858554312	 0.1460601153	-0.553462
H	-0.8366804538	-4.4265124363	-0.2499956474	 0.261094
H	 0.8540620715	-4.465755753	 0.0144483499	 0.255717
N	 1.2248849708	-2.034008577	 0.1837802093	-0.368935
C	 1.2215367838	-0.7178284603	 0.1173784988	 0.344345
N	 2.3888051032	-0.0227604892	 0.2864478983	-0.574742
H	-0.9248991972	 1.7239017386	-0.3820966855	 0.253319
H	 0.3645732093	 1.8305846782	 0.6515478249	 0.248482
H	 3.2281556239	-0.5814278052	 0.2305631576	 0.259642
H	 2.4298434655	 0.8750033148	-0.1744445665	 0.26572
125.5944	224.7609	276.2158	295.5657	331.5711	389.0363	431.944	453.4783	509.3981	516.0294	532.0163	550.0128	582.2093	618.1876	744.4182	760.3162	798.4934	827.9225	868.9189	1010.7061	1061.2365	1147.9805	1158.7307	1213.6418	1307.5647	1390.3953	1478.2665	1498.6676	1572.2309	1607.5703	1633.8961	1636.7587	1654.18	3492.7732	3558.2903	3587.457	3593.118	3677.0031	3715.2196
NC1=N[N-]C(=[NH2+])N=C1N	Nc1nnc(N)nc1N	
InChI=1S/C3H5N6/c4-1-2(5)8-9-3(6)7-1/h(H5-,4,5,6,7,8,9)/q-1/p+1	InChI=1S/C3H6N6/c4-1-2(5)8-9-3(6)7-1/h(H2,5,8)(H4,4,6,7,9)
