19
gdb 112239	1.95821	1.41857	0.9104	2.6434	77.33	-0.2465	-0.037	0.2095	1303.7804	0.156276	-423.046657	-423.037109	-423.036165	-423.082067	34.008	
C	-0.1047145258	 1.5927406178	-0.1339836123	-0.387432
C	-0.2713629143	 0.0738731083	-0.2407895631	-0.179665
C	 0.7212319142	-0.5495235877	-1.2242741286	-0.01478
C	 2.2007549661	-0.58929883	-0.7079311314	-0.352797
C	 2.1007638201	-2.1139024454	-0.6118665877	 0.382397
O	 2.7693832241	-2.975994695	-0.1249743487	-0.284637
C	 0.7317053451	-2.1126066787	-1.3410790163	-0.233346
C	-0.3433136954	-3.0179687286	-0.7971344637	 0.144071
O	-1.4724744162	-2.6923734016	-0.5328177896	-0.242798
H	 0.9000213284	 1.8707337237	 0.2032508056	 0.114643
H	-0.272492755	 2.0770517453	-1.1026060283	 0.115795
H	-0.8203674964	 2.0155917815	 0.5771685841	 0.119656
H	-0.1426886987	-0.383841098	 0.7490043985	 0.096583
H	-1.2891057608	-0.1740446496	-0.5513872343	 0.129369
H	 0.6217517013	-0.0637129599	-2.1983900056	 0.080828
H	 2.9545205589	-0.2750836175	-1.4367515432	 0.135832
H	 2.4047011627	-0.0816734504	 0.239397973	 0.136918
H	 0.9184379569	-2.4455351796	-2.3731461756	 0.136117
H	 0.0055618249	-4.0643279046	-0.651875613	 0.103246
39.9661	83.2289	117.9692	154.8262	178.6836	221.8107	268.9367	347.7419	398.6851	421.0179	515.618	625.9706	674.9813	763.1285	781.3169	818.2693	869.0624	921.785	940.4064	988.7552	1014.9152	1054.4325	1068.6516	1107.6948	1118.3918	1145.0744	1199.0451	1217.227	1260.8678	1271.7465	1305.7049	1340.044	1391.4146	1414.3617	1420.5984	1432.8512	1486.1606	1500.1937	1506.8165	1818.2513	1890.1383	2891.46	3013.3285	3025.5173	3030.3408	3055.8285	3072.0382	3085.4639	3105.5018	3108.6776	3112.5123
CCC1CC(=O)C1C=O	CC[C@H]1CC(=O)[C@H]1C=O	
InChI=1S/C7H10O2/c1-2-5-3-7(9)6(5)4-8/h4-6H,2-3H2,1H3	InChI=1S/C7H10O2/c1-2-5-3-7(9)6(5)4-8/h4-6H,2-3H2,1H3/t5-,6-/m0/s1
