15
gdb 42612	2.62961	1.88151	1.36501	4.7404	69.39	-0.2463	-0.0372	0.2091	926.7935	0.11355	-420.645294	-420.638644	-420.6377	-420.676493	26.4	
O	 0.0721313664	 0.0648003775	-0.2298508679	-0.311992
C	-0.0046248529	 1.234509691	 0.003651371	 0.422884
C	-1.1291158548	 2.2041581501	 0.0836209562	-0.195633
C	-0.7838019516	 3.3771102262	 1.0144107765	-0.052977
C	 0.2119919447	 3.1976024928	 2.1457332995	-0.363493
C	 1.4733480523	 2.6570781028	 1.4455217337	 0.423423
O	 2.5438923796	 2.4613861347	 1.9537427164	-0.311879
C	 1.0813812004	 2.3781677777	 0.0014500551	-0.278145
C	-0.1134016199	 3.3145269361	-0.3135021478	-0.083493
H	-2.1460389957	 2.0395356644	-0.2504052942	 0.118736
H	-1.6135638466	 4.0624424001	 1.143727019	 0.113216
H	 0.4448554	 4.153392348	 2.6263800013	 0.139118
H	-0.107669024	 2.5044133571	 2.9305112297	 0.143043
H	 1.9060404411	 2.2386862675	-0.692182723	 0.114603
H	-0.1928111489	 4.007852314	-1.1376188256	 0.12259
112.1542	135.2766	341.784	405.9387	473.1246	487.0512	564.0284	632.3984	689.3684	726.4939	760.0006	784.0868	830.1097	849.7952	888.646	950.0594	960.6541	969.8851	997.4692	1059.5832	1078.646	1110.0973	1122.8005	1147.6001	1184.2757	1219.7362	1261.7507	1280.7657	1304.8357	1389.2981	1456.3279	1843.4261	1888.3076	3054.8761	3096.6037	3169.0517	3183.7019	3200.1434	3232.6883
O=C1C2C3CC(=O)C1C23	O=C1[C@H]2[C@H]3CC(=O)[C@@H]1[C@@H]23	
InChI=1S/C7H6O2/c8-3-1-2-4-5(2)7(9)6(3)4/h2,4-6H,1H2	InChI=1S/C7H6O2/c8-3-1-2-4-5(2)7(9)6(3)4/h2,4-6H,1H2/t2-,4+,5-,6+/m0/s1
