20
gdb 95772	3.19525	1.1851	0.91626	1.0867	77.38	-0.2381	0.0148	0.2529	1290.1831	0.170949	-440.297836	-440.288723	-440.287779	-440.331688	34.19	
C	 0.0190256579	 1.5071495561	-0.2143449601	-0.443932
C	-0.0292865974	 0.0253609415	 0.031128445	 0.371295
N	-1.1192615903	-0.6137456341	-0.0123746841	-0.278428
C	-1.1897769343	-2.0637295689	 0.0475507872	-0.180453
C	-0.5825429984	-2.7556730928	 1.2798421866	 0.108634
O	-0.9460340403	-4.1300042651	 1.3000953684	-0.433775
C	 0.9393355146	-2.7131652421	 1.2728247277	-0.195364
C	 1.494255709	-1.3009075852	 1.3643804409	-0.088676
O	 1.2397694253	-0.4715502047	 0.2248830066	-0.26439
H	 0.7107685431	 1.7198203943	-1.0364082875	 0.139801
H	-0.9733005994	 1.8826244196	-0.460640881	 0.139645
H	 0.4066914828	 2.0286771424	 0.667665379	 0.130261
H	-2.2525217923	-2.3343187817	 0.0026091914	 0.086164
H	-0.7193549757	-2.4969678319	-0.847332562	 0.11514
H	-0.9517614601	-2.2435081057	 2.1850231873	 0.067936
H	-1.9072580727	-4.1846409853	 1.2999804712	 0.283352
H	 1.3150400281	-3.2879460525	 2.1272765418	 0.109218
H	 1.3097915241	-3.2018861078	 0.3640322596	 0.113307
H	 1.1071572876	-0.7985021771	 2.2622260209	 0.102807
H	 2.5841209383	-1.3311380093	 1.4408513211	 0.117458
66.8841	112.1435	177.7152	234.3394	269.4602	292.69	300.6784	326.9313	378.1747	421.3691	450.677	552.8616	622.8306	686.711	763.5313	855.9677	880.3807	938.6776	968.7011	1000.1161	1059.1569	1084.2886	1093.0564	1097.7764	1115.5122	1138.329	1210.2667	1216.9681	1256.0469	1286.9221	1312.961	1344.9584	1362.242	1384.6645	1399.7921	1417.7369	1451.1659	1471.2384	1474.6207	1477.9075	1492.7831	1498.3978	1759.7651	2952.768	2999.4236	3008.3077	3036.6441	3037.8224	3041.4141	3083.3669	3096.5542	3096.9655	3163.6516	3813.5257
CC1=NCC(O)CCO1	CC1=NC[C@@H](O)CCO1	
InChI=1S/C6H11NO2/c1-5-7-4-6(8)2-3-9-5/h6,8H,2-4H2,1H3	InChI=1S/C6H11NO2/c1-5-7-4-6(8)2-3-9-5/h6,8H,2-4H2,1H3/t6-/m0/s1
