13
gdb 129386	4.07666	1.34079	1.01021	2.3779	68.71	-0.2558	-0.1011	0.1547	1075.1712	0.090326	-445.082853	-445.075372	-445.074428	-445.115275	27.259	
N	-0.0863790965	 1.2983728984	 0.263406026	-0.548202
C	 0.0693443451	-0.0467597931	 0.061273131	 0.280424
N	 1.141685374	-0.7136071584	-0.1364694115	-0.487317
C	-1.2262994494	-0.8086513215	 0.1169878767	 0.432117
N	-1.2092069306	-2.1393230523	 0.0644554512	-0.230972
C	-2.4177905674	-2.6755417408	 0.1129535718	 0.109612
N	-3.5755863287	-2.004117378	 0.2045989213	-0.16346
N	-3.5148167257	-0.6889479368	 0.252350447	-0.051865
N	-2.3466684904	-0.0755256113	 0.2104441096	-0.241186
H	 0.6811178312	 1.9125132481	 0.0506335163	 0.255689
H	-1.0206025464	 1.6757980238	 0.2272236629	 0.277372
H	 1.9572838453	-0.0978104079	-0.1619664624	 0.211835
H	-2.4985813105	-3.7587658304	 0.0767150402	 0.155955
64.862	123.0645	233.9279	298.0362	326.6025	393.5712	423.9541	493.4085	516.322	613.9554	702.169	708.8808	825.6228	860.1124	899.4502	975.9098	1006.7296	1031.7375	1094.7549	1128.573	1159.6636	1254.883	1287.5574	1402.724	1454.1068	1545.7392	1556.6524	1612.2264	1714.9681	3180.1511	3454.0588	3586.4632	3717.7243
NC(=N)C1=NC=NN=N1	NC(=N)c1ncnnn1	
InChI=1S/C3H4N6/c4-2(5)3-6-1-7-9-8-3/h1H,(H3,4,5)	InChI=1S/C3H4N6/c4-2(5)3-6-1-7-9-8-3/h1H,(H3,4,5)
