21
gdb 53727	3.12398	0.72201	0.67705	3.5664	91.08	-0.2513	-0.0432	0.2081	1794.3431	0.17793	-387.097433	-387.086036	-387.085092	-387.136745	39.958	
C	 0.0760216541	 1.3419030506	 0.4493993843	-0.475882
C	-0.0669702092	 0.1475348489	-0.4738830079	 0.24575
O	 0.7751532426	-0.1514444562	-1.2945554689	-0.27863
C	-1.2856099827	-0.6222344158	-0.3125072862	-0.04262
C	-2.3007034009	-1.263928023	-0.1782216458	 0.142007
C	-3.5248032573	-2.0576817957	-0.0346766892	 0.058675
C	-3.1375266196	-3.5265522236	 0.2564031271	-0.392845
C	-4.3758641311	-1.4987530286	 1.1275677837	-0.392955
C	-4.3256320498	-1.9819115526	-1.3559483715	-0.392944
H	 1.0207746092	 1.8492577042	 0.2485394749	 0.140766
H	-0.7605667667	 2.0334237654	 0.301843716	 0.143631
H	 0.039428304	 1.0157882549	 1.4944619279	 0.143655
H	-2.5633009335	-3.604652679	 1.1837275011	 0.124444
H	-4.0428348437	-4.133827575	 0.3596990478	 0.115465
H	-2.5331581376	-3.9401700369	-0.5551582738	 0.130464
H	-4.657491129	-0.4584065013	 0.942257701	 0.122425
H	-5.2917169845	-2.0887898324	 1.2373728701	 0.11553
H	-3.8254452374	-1.5400952031	 2.0716673381	 0.122607
H	-3.73903251	-2.3713145216	-2.1921645069	 0.130446
H	-5.2409301032	-2.5763609897	-1.2672928088	 0.115761
H	-4.6062294438	-0.9504499795	-1.5864202328	 0.12425
4.0114	72.5307	84.3222	122.1867	175.9917	212.2678	231.1147	269.2023	270.6495	284.3273	350.1145	356.933	440.5822	526.2811	558.0616	579.9639	611.5907	639.3281	787.1987	931.0224	932.997	934.6229	967.1073	996.2509	1041.8717	1047.9792	1050.005	1216.4618	1219.9691	1223.2952	1291.8371	1380.5664	1395.5193	1396.1715	1428.7916	1460.8409	1469.2056	1474.1199	1484.97	1485.4344	1497.9613	1498.4408	1518.1223	1765.4243	2321.4774	3034.6305	3035.6701	3038.3458	3041.1942	3102.4771	3107.5295	3109.1019	3114.2338	3117.0071	3121.3526	3123.577	3150.0512
CC(=O)C#CC(C)(C)C	CC(=O)C#CC(C)(C)C	
InChI=1S/C8H12O/c1-7(9)5-6-8(2,3)4/h1-4H3	InChI=1S/C8H12O/c1-7(9)5-6-8(2,3)4/h1-4H3
