14
gdb 5095	3.37119	2.01294	1.26699	0.5588	60.03	-0.1651	0.059	0.2242	889.7387	0.107183	-415.871388	-415.863026	-415.862081	-415.903602	30.617	
N	 0.0711762115	 1.4233987045	-0.1184782844	-0.618225
C	 0.0020839799	 0.0181074585	-0.0320734926	 0.166451
C	-1.0987703512	-0.8031987626	 0.0243076199	-0.189993
N	-0.6430016437	-2.1230185776	-0.0204282043	-0.31278
C	 0.7148062417	-2.1277266205	-0.079671079	 0.333707
O	 1.3971265181	-3.2991085397	-0.0929635539	-0.443089
C	 1.153954811	-0.8266232593	-0.1010428954	 0.080525
O	 2.4836032684	-0.4470703215	-0.1195900085	-0.467725
H	 0.8215234339	 1.7847501608	 0.4607723369	 0.241612
H	-0.7940864692	 1.8655349124	 0.1662910292	 0.23781
H	-2.151543117	-0.580640534	 0.055520599	 0.103525
H	-1.206433496	-2.9453751029	 0.0955007087	 0.263513
H	 2.3336959835	-3.0677853411	-0.0997185898	 0.307891
H	 2.6540919492	 0.015383463	-0.9485752358	 0.296777
125.4214	170.2973	198.2082	216.2467	274.6231	293.411	316.9674	383.9175	400.7553	550.1717	565.9091	575.7764	631.79	679.5572	751.2976	769.5206	824.8749	1050.515	1074.3001	1133.0469	1187.9656	1235.4239	1282.9499	1313.1724	1396.8359	1454.1946	1577.6224	1606.0602	1644.6312	1693.7052	3275.2982	3510.9076	3604.4527	3701.778	3769.169	3806.9369
NC1=CNC(O)=C1O	Nc1c[nH]c(O)c1O	
InChI=1S/C4H6N2O2/c5-2-1-6-4(8)3(2)7/h1,6-8H,5H2	InChI=1S/C4H6N2O2/c5-2-1-6-4(8)3(2)7/h1,6-8H,5H2
