17
gdb 44877	2.96099	1.55172	1.38253	4.0314	72.27	-0.2367	-0.0099	0.2268	982.632	0.136857	-421.808334	-421.80132	-421.800376	-421.839689	28.182	
O	 0.0361164435	 0.0794644208	 0.0385726793	-0.330774
C	 0.0366630618	 1.2788217813	 0.0418554415	 0.445397
C	-1.172949111	 2.2445306557	 0.0848230285	-0.334449
C	-0.3926375802	 3.5751200765	 0.017964282	-0.141589
C	 0.6779598531	 3.2666616693	-1.0737279722	-0.244188
C	 1.222343608	 2.2422497359	-0.0115674745	-0.242672
C	 0.7442195734	 3.2963620753	 1.010085241	 0.526422
C	 1.5062323572	 4.1798210863	 1.8808118057	-0.304353
O	 0.6432517728	 3.1434125838	 2.4024721726	-0.292251
H	-1.8443144671	 2.0824042004	-0.7635185013	 0.125252
H	-1.7400111362	 2.113266659	 1.0106411113	 0.140904
H	-0.9588676326	 4.5048934681	 0.0287971102	 0.081476
H	 0.3249834055	 2.8576727885	-2.0229671623	 0.11389
H	 1.3732580051	 4.0902790729	-1.2427738691	 0.116241
H	 2.2222673448	 1.8169080841	-0.0315491571	 0.090983
H	 2.5710394883	 4.0125384071	 2.034217909	 0.125983
H	 1.1634096735	 5.1979218951	 2.0595674055	 0.123729
113.93	184.4943	258.68	340.375	396.9521	454.7141	534.6089	554.3146	622.8635	656.7588	778.6492	793.1227	826.9112	882.5533	889.018	931.1905	963.5518	967.2571	990.3874	1027.0968	1068.0932	1086.4001	1114.5481	1134.2144	1144.225	1168.7615	1174.3411	1208.1662	1221.1596	1245.2816	1273.6178	1298.2112	1448.034	1456.4729	1501.6527	1547.7118	1876.2359	3062.6707	3072.6318	3085.9273	3112.9619	3131.0455	3137.7312	3161.8325	3173.9525
O=C1CC2CC1C21CO1	O=C1C[C@@H]2C[C@H]1[C@]12CO1	
InChI=1S/C7H8O2/c8-6-2-4-1-5(6)7(4)3-9-7/h4-5H,1-3H2	InChI=1S/C7H8O2/c8-6-2-4-1-5(6)7(4)3-9-7/h4-5H,1-3H2/t4-,5+,7+/m0/s1
