17
gdb 6328	4.34175	1.17162	1.1042	1.8772	68.4	-0.2568	0.0014	0.2582	1161.1032	0.138143	-401.041604	-401.031794	-401.03085	-401.077334	32.691	
C	-0.4709710958	 1.763364755	 0.3481807853	-0.327153
N	-0.6761554903	 0.3327630535	 0.3516283443	-0.21376
C	 0.1555192547	-0.4658758773	 0.8413526182	 0.388619
C	 1.4780651172	-0.2628996388	 1.523643392	-0.489694
O	-0.2388614003	-1.8206976112	 0.8355235437	-0.252119
C	 0.3857608307	-2.6628899087	-0.0314048022	 0.428124
C	-0.1897974591	-4.0514783118	 0.0870129624	-0.477277
O	 1.2630928002	-2.3227405719	-0.7803347995	-0.349744
H	 0.4430441823	 2.1176548338	 0.8421947267	 0.108062
H	-0.4560133804	 2.1106737049	-0.6907017988	 0.140691
H	-1.3314565289	 2.2420886921	 0.8282233049	 0.136069
H	 1.7270328062	 0.7914631981	 1.6407154297	 0.135634
H	 1.4558069528	-0.7335746153	 2.5116068395	 0.143644
H	 2.2602276928	-0.7503074189	 0.9357276681	 0.171752
H	-0.1191144802	-4.4026467985	 1.1201003943	 0.149464
H	-1.2507775461	-4.0335833402	-0.1780943811	 0.158816
H	 0.3486092944	-4.7254287147	-0.5779730675	 0.148873
49.0925	68.0409	97.3968	105.9666	123.7545	165.6412	287.4596	315.91	347.4298	440.3598	515.2459	551.9256	604.3408	672.0497	794.2108	905.1462	974.822	1030.8939	1063.3045	1064.8971	1107.8251	1134.3923	1137.9486	1197.8085	1260.8216	1392.7251	1395.3079	1443.589	1468.7665	1470.9522	1475.0185	1483.6642	1487.0128	1508.0071	1802.4538	1834.6355	3009.1281	3054.5256	3058.6599	3077.0826	3088.0212	3120.85	3124.2238	3155.6194	3170.6605
CN=C(C)OC(C)=O	CN=C(C)OC(=O)C	
InChI=1S/C5H9NO2/c1-4(6-3)8-5(2)7/h1-3H3	InChI=1S/C5H9NO2/c1-4(6-3)8-5(2)7/h1-3H3
