19
gdb 33529	2.16435	1.65466	1.154	1.6259	81.12	-0.2555	0.027	0.2824	1131.63	0.157723	-385.820425	-385.811523	-385.810579	-385.854408	33.534	
C	-0.3758947458	-1.3701672616	 0.2129044032	-0.456993
C	-0.2188434478	-0.1828909626	 0.1074891768	 0.339704
C	-0.051638366	 1.2648339844	-0.0086491456	 0.181823
C	-0.1115977326	 2.0296559909	 1.3512428289	-0.32465
C	 1.3871515862	 2.2828654942	 1.1212688618	-0.068588
O	 1.3509289284	 1.630895904	-0.1682474959	-0.308288
C	-0.9060070121	 1.8178230197	-1.1337761186	-0.034477
C	-0.5682878601	 3.1420066479	-1.7652174268	-0.285627
C	-0.3600350646	 1.8596225286	-2.5348142089	-0.258265
H	-0.5056868085	-2.4207222133	 0.2999304742	 0.196643
H	-0.7424631035	 2.9183864876	 1.3143988065	 0.118455
H	-0.3702713769	 1.4220797852	 2.2174839768	 0.12064
H	 1.6968809111	 3.3303785659	 1.0367685737	 0.106063
H	 2.0610796423	 1.7648542594	 1.8135135715	 0.110276
H	-1.9585924142	 1.5737847238	-1.0217968415	 0.09259
H	-1.3865327102	 3.7949679795	-2.0477412162	 0.106344
H	 0.3243989886	 3.6498091965	-1.4190478828	 0.121009
H	 0.6650919553	 1.5361560707	-2.6725467898	 0.133469
H	-1.0297155696	 1.6230646993	-3.3536380672	 0.109873
67.3196	78.7257	139.2685	181.5707	209.6812	263.2699	395.5061	461.8785	519.1208	541.2659	610.9694	619.5944	662.1754	778.4299	784.8462	823.8924	853.1999	880.6096	938.6753	943.8226	970.5674	993.1436	1018.8777	1062.7063	1086.0996	1100.5184	1132.6894	1158.2078	1181.9272	1192.9771	1200.564	1226.7079	1232.279	1257.6026	1347.6159	1394.949	1454.4435	1482.3359	1497.87	1527.7687	2230.014	3025.6561	3067.8746	3091.4038	3137.7433	3142.0917	3151.0792	3154.723	3221.9445	3236.3043	3500.0392
C#CC1(CCO1)C1CC1	C#C[C@]1(CCO1)C1CC1	
InChI=1S/C8H10O/c1-2-8(5-6-9-8)7-3-4-7/h1,7H,3-6H2	InChI=1S/C8H10O/c1-2-8(5-6-9-8)7-3-4-7/h1,7H,3-6H2/t8-/m0/s1
