16
gdb 31750	3.01215	1.16606	0.84982	1.3873	68.11	-0.218	-0.0009	0.2171	1301.2785	0.123374	-475.037019	-475.027928	-475.026984	-475.072439	31.073	
C	-0.2143625177	 1.4038108285	 0.3713306085	-0.238971
O	 0.0823956828	 0.0366237488	 0.0945709205	-0.271389
C	 0.7177987567	-0.6424837234	 1.0584548502	 0.364719
C	 1.0954170131	-1.9470224069	 1.0240696049	-0.181808
O	 1.713892613	-2.2154172282	 2.2305620726	-0.174274
C	 1.6681076338	-1.0611711212	 2.9069468106	 0.381992
C	 2.271272105	-0.9640802513	 4.2724839589	-0.140594
O	 2.0204594197	 0.2944830818	 4.8454890809	-0.420118
N	 1.0913809424	-0.0861792548	 2.2700907563	-0.422564
H	 0.6994629523	 1.9802496053	 0.546550815	 0.133832
H	-0.7262673403	 1.7784457385	-0.5158139383	 0.134477
H	-0.8649612942	 1.4989603882	 1.2463465303	 0.134784
H	 1.0179437377	-2.7502097571	 0.3160888157	 0.151159
H	 1.8554150242	-1.7562042156	 4.9118198388	 0.127394
H	 3.3543328069	-1.1575196279	 4.1991900837	 0.120896
H	 1.6445735249	 0.8484089455	 4.1484564416	 0.300465
32.0485	63.8508	142.4827	155.6282	180.3183	228.8314	273.5902	351.4931	448.558	525.9897	630.5724	643.1845	671.2882	728.0211	775.1424	998.4111	1013.3138	1040.3021	1079.0065	1098.898	1125.0631	1179.741	1205.1661	1228.378	1239.43	1308.0516	1352.9867	1367.7982	1475.646	1478.8533	1483.8614	1502.2944	1511.8703	1604.7049	1664.4378	2971.5273	3013.0364	3035.3766	3103.6345	3147.6182	3318.806	3755.8909
COC1=COC(CO)=N1	COc1coc(CO)n1	
InChI=1S/C5H7NO3/c1-8-5-3-9-4(2-7)6-5/h3,7H,2H2,1H3	InChI=1S/C5H7NO3/c1-8-5-3-9-4(2-7)6-5/h3,7H,2H2,1H3
