17
gdb 54998	2.66212	1.63445	1.34566	2.4269	67.88	-0.2632	0.0004	0.2636	998.277	0.136249	-455.165932	-455.157932	-455.156988	-455.198042	31.355	
C	 0.8108627797	 0.9659004131	-0.3782402552	-0.399532
C	 0.3603096437	-0.484936227	-0.3482230895	 0.34698
N	-0.1240464555	-0.8312701271	 0.9512255035	-0.513697
H	 0.6381130018	-0.8428781484	 1.6207619301	 0.241949
H	-0.5583908705	-1.748480916	 0.942548847	 0.238797
N	-0.70573519	-0.8065148388	-1.3089499466	-0.109472
C	-0.3231019388	-0.676949029	-2.7106023725	-0.243793
C	-0.2455310335	-2.0031981815	-2.0329636484	-0.186364
C	 1.134331679	-2.3327599401	-1.543060521	 0.420152
O	 1.526255631	-1.3206471271	-0.7256755154	-0.259471
O	 1.808197227	-3.2894734898	-1.7961795445	-0.348501
H	 1.2705495116	 1.2223849678	-1.3337907219	 0.126685
H	-0.0513217412	 1.6103281363	-0.1987157568	 0.148532
H	 1.5481307043	 1.1382375958	 0.4099526122	 0.132866
H	-1.1515303614	-0.4785975415	-3.3825297247	 0.136886
H	 0.6112660257	-0.18674583	-2.9679523101	 0.140184
H	-0.9378605429	-2.8082498166	-2.2455068064	 0.127799
112.8734	197.0969	221.4277	251.8993	302.0277	363.2167	387.8228	409.0807	490.5412	543.1345	625.9307	632.1417	737.0836	765.1	791.3527	830.8134	875.2589	898.8452	955.7658	985.5671	1007.1005	1057.6863	1083.2138	1100.2394	1118.9968	1155.4673	1225.5747	1254.3827	1292.2854	1337.2954	1367.9662	1420.2274	1483.5843	1486.6999	1504.699	1652.3171	1880.0309	3064.6965	3122.1677	3137.8915	3155.5493	3197.7298	3214.6165	3510.2881	3598.6339
CC(=[NH2+])N1CC1C([O-])=O	C[C@@]1(N)N2C[C@H]2C(=O)O1	
InChI=1S/C5H8N2O2/c1-3(6)7-2-4(7)5(8)9/h4,6H,2H2,1H3,(H,8,9)	InChI=1S/C5H8N2O2/c1-5(6)7-2-3(7)4(8)9-5/h3H,2,6H2,1H3/t3-,5+,7?/m0/s1
