26
gdb 60123	2.60563	0.94041	0.81042	1.2894	92.99	-0.21	0.0762	0.2862	1599.7639	0.238436	-369.591975	-369.580642	-369.579698	-369.628405	41.833	
C	 4.4866797471	-3.8409316348	-0.1194699015	-0.393731
C	 3.0254270619	-3.8686179262	-0.5852966557	 0.04098
C	 2.852829568	-4.803885443	-1.789810312	-0.379458
C	 2.089514514	-4.2440563328	 0.5808895192	-0.205845
C	 0.6186341977	-4.093550987	 0.2326944134	-0.015191
C	-0.3170428232	-5.2386736092	-0.0211198586	 0.008395
C	 0.0944084356	-6.6945328333	 0.0313806722	-0.417418
N	-0.4674289969	-4.3990592102	 1.1704449844	-0.121262
C	-0.1655132131	-4.930462581	 2.4911767792	-0.311275
H	 5.1551695691	-3.5353204257	-0.9311702102	 0.109478
H	 4.6286479756	-3.14369848	 0.7130183979	 0.109642
H	 4.8097039545	-4.8330121511	 0.2185862839	 0.110584
H	 2.7562979873	-2.8519485948	-0.9072173919	 0.073486
H	 1.8237070581	-4.801434085	-2.1603827149	 0.119678
H	 3.5075318233	-4.5053425566	-2.6152506746	 0.108871
H	 3.1093039541	-5.8359984649	-1.5210418684	 0.109495
H	 2.3273276594	-5.2608198447	 0.9121219718	 0.092598
H	 2.315077197	-3.586796474	 1.4322525224	 0.096457
H	 0.4256635522	-3.17556833	-0.3266888637	 0.079966
H	-1.1123557746	-5.0626828221	-0.7470115762	 0.082053
H	 0.9415234606	-6.8869857762	 0.6919739728	 0.119981
H	-0.7408340516	-7.3163323039	 0.3732325375	 0.121433
H	 0.3714193541	-7.0403618239	-0.970212669	 0.122465
H	 0.6980381926	-5.6073295364	 2.554129771	 0.098406
H	 0.0188236175	-4.0925490445	 3.1717451365	 0.120916
H	-1.0431837105	-5.4701035189	 2.8620527742	 0.119297
56.6872	76.3028	128.2651	153.4687	177.1304	213.079	228.7406	240.7094	262.1403	289.3511	351.6625	385.3787	426.1915	461.4814	516.5049	546.9719	713.0935	780.3621	827.7983	877.6847	908.3587	931.5709	963.7028	967.312	995.1713	1041.9071	1048.8687	1123.3593	1131.9621	1143.4843	1167.2553	1171.9095	1187.8898	1196.0242	1207.6307	1259.0781	1309.7879	1351.0612	1367.8269	1372.2955	1395.7813	1401.503	1414.3431	1422.5649	1436.4604	1461.5978	1477.7246	1486.044	1489.1848	1492.4905	1499.7	1505.5872	1506.6411	1509.6258	1513.4113	2995.935	2997.772	3012.5932	3023.2394	3028.6757	3037.0648	3060.0652	3065.9658	3075.3676	3085.0246	3087.278	3090.551	3093.7997	3094.4832	3098.7222	3108.175	3134.2871
CC(C)CC1C(C)N1C	CC(C)C[C@H]1[C@@H](C)N1C	
InChI=1S/C8H17N/c1-6(2)5-8-7(3)9(8)4/h6-8H,5H2,1-4H3	InChI=1S/C8H17N/c1-6(2)5-8-7(3)9(8)4/h6-8H,5H2,1-4H3/t7-,8+,9?/m1/s1
