23
gdb 118050	3.63297	0.65054	0.62633	1.2716	78.53	-0.2574	0.0694	0.3268	1859.5976	0.20269	-462.550071	-462.538341	-462.537397	-462.587455	41.546	
C	-0.1213911241	 1.5890813138	-0.0823115054	-0.414978
C	 0.022806383	 0.0623396584	-0.0170645618	 0.026804
C	 0.7331918722	-0.4725920105	-1.2634361942	-0.084289
O	-0.0417541899	-0.1278709637	-2.404753742	-0.426224
C	 0.7480374869	-0.4387316178	 1.2503721959	 0.105677
O	 2.101983695	 0.0212130223	 1.3075769007	-0.440418
C	-0.0028705568	-0.12732027	 2.5489618263	-0.202774
C	 0.6297393725	-0.7889168115	 3.7672266468	-0.076563
O	-0.1128593889	-0.3902747442	 4.911046125	-0.42411
H	 0.8568899011	 2.0838220572	-0.0352585711	 0.099418
H	-0.5812889631	 1.8743335877	-1.0302719276	 0.141438
H	-0.7406986966	 1.9786218008	 0.730346908	 0.115914
H	-0.9830264116	-0.3791506945	-0.0090349778	 0.082279
H	 1.7446814479	-0.0450206841	-1.3174631892	 0.096693
H	 0.843371805	-1.5661649144	-1.1810176263	 0.08025
H	 0.4632572187	-0.3571179069	-3.1897271335	 0.286138
H	 0.8474803924	-1.5295397744	 1.1645323559	 0.081776
H	 2.0798348916	 0.9710483134	 1.467609133	 0.280682
H	-0.0314579597	 0.9561521623	 2.7206586924	 0.101003
H	-1.0447315235	-0.4577448629	 2.463237665	 0.106806
H	 0.6132126222	-1.8845233878	 3.6430764048	 0.08244
H	 1.6834660438	-0.4853336258	 3.84141945	 0.09718
H	 0.307133302	-0.7712009473	 5.6875404052	 0.284858
57.1557	85.6374	92.24	112.7146	129.6315	233.8726	240.3588	247.4382	268.8548	287.4804	297.2753	312.8712	330.5743	380.0227	473.889	549.1718	660.0506	799.8557	825.403	904.8658	927.9476	972.1105	1010.8432	1023.7141	1059.8258	1072.7747	1101.1877	1108.1607	1120.6871	1173.8954	1208.2997	1225.7325	1253.4928	1271.2924	1285.993	1305.4341	1313.3147	1347.0757	1369.2725	1388.1083	1406.2299	1423.2203	1455.5096	1460.4539	1486.7624	1494.4226	1514.9467	1523.9128	1531.8327	2964.2212	2966.6636	3009.8125	3013.0604	3017.073	3026.909	3030.6074	3033.0965	3076.5499	3099.8196	3134.9813	3805.244	3830.3823	3836.5325
CC(CO)C(O)CCO	C[C@@H](CO)[C@@H](O)CCO	
InChI=1S/C6H14O3/c1-5(4-8)6(9)2-3-7/h5-9H,2-4H2,1H3	InChI=1S/C6H14O3/c1-5(4-8)6(9)2-3-7/h5-9H,2-4H2,1H3/t5-,6-/m0/s1
