19
gdb 93293	2.09959	1.80571	1.25331	3.3067	75.12	-0.2214	-0.0266	0.1948	1070.6781	0.160268	-419.194465	-419.185984	-419.18504	-419.227597	32.35	
C	 0.6261983384	 1.4662225297	-0.399987752	-0.367485
C	-0.0368120022	 0.178592943	 0.1006668265	-0.112963
N	-0.0001933457	-0.8644500329	-0.9607726705	-0.300604
C	 1.253936968	-1.6107668307	-0.7792180461	-0.297329
C	 1.6448626941	-1.4654783903	 0.6984253536	 0.366513
O	 2.5323260712	-2.0334052476	 1.2785065584	-0.311708
C	 0.6917813732	-0.4468423264	 1.2883691094	 0.228101
C	 0.9665259184	 0.1781954787	 2.6010965701	-0.284216
N	-0.012022121	-0.9145129529	 2.5145802718	-0.346786
H	 1.6806755266	 1.3018910531	-0.6456296913	 0.121385
H	 0.1214318453	 1.8187829886	-1.302956429	 0.126957
H	 0.5816174834	 2.2521393075	 0.3599053763	 0.114654
H	-1.0840512688	 0.3900346238	 0.3429892236	 0.075918
H	-0.7744138292	-1.5015894454	-0.805614276	 0.226452
H	 1.1522081411	-2.6622364903	-1.0582612288	 0.13738
H	 2.0566112227	-1.1916969432	-1.4010794339	 0.137084
H	 1.8888942855	-0.0857664147	 3.1111976181	 0.140318
H	 0.6094278817	 1.1911582594	 2.7694285486	 0.115975
H	-0.9530310727	-0.5223085293	 2.5127855211	 0.230354
63.1783	159.7655	195.1942	228.9382	240.7524	257.7902	343.6505	457.1981	488.1742	564.1948	580.0654	644.1856	720.7369	806.5486	827.8173	832.6599	869.6661	932.8608	973.2355	996.019	1025.0643	1037.377	1064.7967	1100.996	1112.7319	1135.0383	1146.1771	1212.2548	1268.0813	1281.7858	1302.2945	1320.8208	1359.1416	1396.8761	1407.8247	1463.1971	1467.4613	1490.4702	1490.9086	1499.2175	1851.1864	3021.5757	3039.9747	3044.2873	3104.6971	3105.7504	3108.4902	3123.9178	3198.0698	3464.9316	3521.3894
CC1NCC(=O)C11CN1	C[C@H]1NCC(=O)[C@]21CN2	
InChI=1S/C6H10N2O/c1-4-6(3-8-6)5(9)2-7-4/h4,7-8H,2-3H2,1H3	InChI=1S/C6H10N2O/c1-4-6(3-8-6)5(9)2-7-4/h4,7-8H,2-3H2,1H3/t4-,6-/m1/s1
