20
gdb 62254	3.6839	0.64124	0.58903	1.9293	78.29	-0.2496	-0.0252	0.2244	1856.4887	0.168591	-440.323444	-440.312705	-440.311761	-440.362102	36.28	
C	 0.1600857849	 1.503909777	 0.3586213923	-0.411871
C	 0.0406884338	 0.0027131844	 0.045592966	-0.06045
C	-1.3905322667	-0.5452476433	 0.2439486698	-0.19951
C	-1.8746885472	-0.4783139903	 1.7001127773	-0.173354
N	-3.1928410848	-1.0648587265	 1.8759944346	-0.273669
C	-4.3157584926	-0.3153863566	 2.0490447146	 0.153789
O	-4.3449321094	 0.8953036807	 2.1113497583	-0.32091
C	 0.4436785815	-0.2479209955	-1.3956140215	 0.158224
O	 1.2643932634	-1.0498858209	-1.7581330668	-0.248702
H	 1.1801732798	 1.8598364738	 0.184985782	 0.129835
H	-0.5158803243	 2.0922868774	-0.2718830396	 0.129294
H	-0.0905698022	 1.7154283955	 1.4008381703	 0.136033
H	 0.7356043012	-0.5706784691	 0.6699923427	 0.094227
H	-2.0956851179	 0.0092452398	-0.387877469	 0.118892
H	-1.4190118699	-1.5900196947	-0.0911929897	 0.104612
H	-1.160175707	-0.9897182791	 2.3565696302	 0.112326
H	-1.9614040092	 0.5565503847	 2.035221812	 0.15392
H	-3.2969199558	-2.0643065317	 1.7992386466	 0.248601
H	-5.2211427528	-0.9479552742	 2.1375033565	 0.077229
H	-0.1079905849	 0.3826180985	-2.1344768366	 0.071483
17.051	43.149	59.3955	88.8158	145.6824	204.373	236.3062	265.263	315.4535	346.8469	391.4413	423.2449	530.6866	578.6563	730.9162	811.3169	875.9841	916.92	952.8386	973.4931	1000.985	1031.5423	1047.1174	1122.4703	1158.4766	1164.079	1210.5834	1238.7275	1276.6128	1332.3518	1348.7255	1359.0844	1405.651	1410.4391	1429.3371	1430.7531	1476.5701	1493.2156	1497.0892	1505.8892	1534.7752	1806.0952	1835.902	2842.1019	2938.7221	3019.8956	3033.9246	3038.372	3046.0994	3067.7385	3105.8737	3120.7207	3132.8365	3632.33
CC(CCNC=O)C=O	C[C@@H](CCNC=O)C=O	
InChI=1S/C6H11NO2/c1-6(4-8)2-3-7-5-9/h4-6H,2-3H2,1H3,(H,7,9)	InChI=1S/C6H11NO2/c1-6(4-8)2-3-7-5-9/h4-6H,2-3H2,1H3,(H,7,9)/t6-/m0/s1
