20
gdb 58485	2.22169	1.29835	1.06592	3.2537	79.96	-0.2656	0.0295	0.2951	1235.6989	0.168804	-403.159665	-403.149708	-403.148764	-403.194174	37.144	
C	 0.0674769654	 1.453727118	-0.365024423	-0.3929
C	 0.0450248378	 0.002543647	 0.1363618115	-0.032713
C	 0.642308793	-0.1193098699	 1.5470184274	-0.419955
C	-1.3726945726	-0.552932555	 0.086859991	 0.434458
O	-2.3085252714	 0.0922989053	 0.8998494554	-0.467288
C	-1.9469077383	-1.0580282969	-1.1882685167	-0.326491
C	-1.609247023	-2.0644786824	-0.0850678412	-0.265133
C	-0.5180820107	-2.9784014031	-0.245213063	 0.294909
N	 0.3751949697	-3.705947152	-0.3632769411	-0.354563
H	 1.0831825516	 1.8587341623	-0.3307243059	 0.114474
H	-0.2908386162	 1.5231782096	-1.3967746979	 0.117291
H	-0.5754454509	 2.086234321	 0.2544293894	 0.125847
H	 0.6541687494	-0.6115535727	-0.5371770039	 0.100028
H	 0.0934483799	 0.4955884316	 2.271487998	 0.106962
H	 0.6389959007	-1.1563159588	 1.8962193078	 0.133723
H	 1.6777444729	 0.2326483268	 1.5553650055	 0.126935
H	-2.0160206553	 0.0152608366	 1.8150729071	 0.289932
H	-3.0016312183	-0.8864937948	-1.3662371243	 0.139207
H	-1.3168062552	-1.0606116542	-2.0699900602	 0.13994
H	-2.4556833284	-2.4564189585	 0.4680363537	 0.135335
72.0535	108.4312	152.4236	210.2558	227.0204	249.102	275.3814	302.2047	334.8596	369.617	407.2977	455.6995	517.2788	559.4717	630.7754	690.6634	805.7349	869.2279	901.0395	931.0384	938.0564	942.9056	969.7191	1052.7844	1079.7247	1089.0533	1114.2478	1137.2096	1188.9889	1221.8958	1286.8007	1323.8629	1341.7254	1353.4373	1398.7319	1421.3073	1430.3342	1483.5175	1486.926	1493.7069	1508.1293	1513.5266	2343.3662	3024.7015	3039.6646	3044.1122	3093.1603	3109.1675	3114.1512	3116.296	3147.2164	3175.9451	3242.8574	3799.4098
CC(C)C1(O)CC1C#N	CC(C)[C@@]1(O)C[C@H]1C#N	
InChI=1S/C7H11NO/c1-5(2)7(9)3-6(7)4-8/h5-6,9H,3H2,1-2H3	InChI=1S/C7H11NO/c1-5(2)7(9)3-6(7)4-8/h5-6,9H,3H2,1-2H3/t6-,7-/m0/s1
