19
gdb 92272	2.24695	1.688	1.48222	2.2713	76.23	-0.2444	0.0034	0.2478	1020.2214	0.15914	-423.025371	-423.017196	-423.016251	-423.057677	32.224	
C	-0.8096318576	 1.3466850443	-0.0239981497	-0.414736
C	-0.0159670872	 0.0608366231	-0.0870499404	 0.137515
O	 1.1884145317	 0.177153568	-0.8866913689	-0.319493
C	 1.9819010549	-0.535562588	 0.0886536902	 0.071262
C	 3.1563331314	 0.2951197382	 0.6182083424	-0.287835
C	 2.5636702774	 0.9852070924	 1.8279877467	-0.057409
C	 1.3119716566	 0.603033262	 2.0894766246	-0.171597
C	 0.8147288098	-0.4365863498	 1.1210051277	 0.29203
O	 0.2559540392	-1.5797857379	 1.7200781664	-0.480217
H	-0.2013431277	 2.1614828011	 0.3776963324	 0.121482
H	-1.146774044	 1.6284314306	-1.0264758295	 0.126707
H	-1.6948458121	 1.2169668781	 0.6078378613	 0.119747
H	-0.641685173	-0.7653248767	-0.4546361832	 0.079484
H	 2.2454865658	-1.5409858149	-0.2567573594	 0.074035
H	 4.0308155127	-0.3135826645	 0.8834932685	 0.103914
H	 3.4831733766	 1.0067039934	-0.1488108991	 0.12763
H	 3.118031385	 1.7189978896	 2.4042527921	 0.101086
H	 0.6942573005	 0.9717976052	 2.9014407087	 0.09902
H	 0.78481728	-1.7988578642	 2.494907759	 0.277377
103.4714	190.4562	215.991	248.2361	285.3361	316.8924	357.8323	440.2094	467.8112	526.1362	611.479	667.0866	754.312	768.9087	831.9732	866.5119	883.2119	931.9355	973.0547	978.8654	1007.6137	1037.6514	1050.0529	1092.7694	1109.4465	1147.0219	1170.1908	1176.7403	1195.0212	1238.1483	1293.5003	1315.2391	1335.3453	1359.7409	1384.1485	1397.2211	1418.8551	1463.5488	1483.5749	1494.8926	1671.5597	3002.142	3020.4352	3037.6625	3051.7932	3067.9301	3107.5675	3121.3419	3176.9876	3201.5983	3805.0314
CC1OC2CC=CC12O	C[C@H]1O[C@H]2CC=C[C@@]12O	
InChI=1S/C7H10O2/c1-5-7(8)4-2-3-6(7)9-5/h2,4-6,8H,3H2,1H3	InChI=1S/C7H10O2/c1-5-7(8)4-2-3-6(7)9-5/h2,4-6,8H,3H2,1H3/t5-,6+,7-/m1/s1
