18
gdb 117481	6.0478	0.60607	0.56634	4.2518	71.9	-0.2509	-0.0305	0.2204	1889.8448	0.144429	-476.220961	-476.210583	-476.209639	-476.258122	34.974	
O	 0.0136161367	 1.1534395555	-0.1957018296	-0.422721
C	-0.0831635241	-0.2586112895	-0.2897728522	-0.072364
C	-1.4471370659	-0.6472099836	 0.2633909836	-0.290743
C	-1.7002554769	-2.1406455225	 0.2397838991	 0.353778
O	-0.8491332434	-2.9531213189	-0.0332631089	-0.28632
C	-3.1362661127	-2.5728670552	 0.5600888024	-0.193365
O	-3.2527585484	-3.9360639638	 0.8851946097	-0.165471
C	-3.1103415927	-4.8229142834	-0.1289887877	 0.150115
N	-3.1578362951	-6.0570452922	 0.1179355496	-0.443556
H	 0.8827567666	 1.4157492816	-0.5125482875	 0.290688
H	 0.0061499279	-0.6056823936	-1.3297583935	 0.100842
H	 0.7026417798	-0.7648420447	 0.2869837241	 0.111909
H	-1.5386491784	-0.2967118423	 1.3006831365	 0.143745
H	-2.2423370002	-0.1289307571	-0.2888263433	 0.131474
H	-3.5131318835	-2.0130514591	 1.4211186125	 0.144381
H	-3.7692112772	-2.2995937659	-0.3002328315	 0.129172
H	-2.984018185	-4.3510428744	-1.1109392197	 0.088124
H	-3.0558598175	-6.5878954007	-0.7442761337	 0.230312
39.4133	61.3656	70.365	99.7266	152.1179	161.706	269.8969	276.8279	301.9319	356.0353	406.8623	461.0306	616.8504	722.1195	763.5383	813.9908	871.2095	917.2191	980.0017	1010.0139	1033.7054	1054.3772	1099.8133	1111.0756	1182.8837	1206.5056	1248.4378	1256.769	1302.4782	1325.0531	1349.7085	1390.5632	1421.4333	1447.3551	1467.1798	1472.2005	1523.9777	1750.3987	1818.4053	2981.7089	2993.9585	3025.6967	3028.0325	3043.7292	3061.0005	3093.0363	3522.97	3832.1619
OCCC(=O)COC=N	OCCC(=O)CO[CH][NH]	
InChI=1S/C5H9NO3/c6-4-9-3-5(8)1-2-7/h4,6-7H,1-3H2	InChI=1S/C5H9NO3/c6-4-9-3-5(8)1-2-7/h4,6-7H,1-3H2
