16
gdb 47883	2.37403	1.66344	1.1048	5.1679	66.57	-0.2359	-0.0593	0.1766	1071.0944	0.125204	-475.048778	-475.040672	-475.039727	-475.082015	29.62	
O	-0.068745559	-0.0276029635	 0.3332740658	-0.265933
C	-0.0391931704	 1.1530753965	 0.1026370376	 0.296351
C	-1.3156439319	 2.0014847097	 0.01330236	-0.178403
O	-1.6236472571	 2.3674754298	-1.3197591756	-0.237875
C	-0.8123789614	 3.3826366947	-1.8758652112	-0.063173
C	 0.6021097474	 2.9120583281	-2.2181898262	-0.182775
N	 1.474544564	 2.7555640403	-1.0579028993	-0.316165
C	 1.3254088862	 1.8779462225	-0.0247183673	 0.301257
O	 2.1795840649	 1.6875477198	 0.8162044139	-0.340556
H	-2.1438900891	 1.3855054036	 0.3694909986	 0.13823
H	-1.2151863371	 2.893387496	 0.6540948592	 0.109563
H	-1.3164767167	 3.6830123603	-2.7997340077	 0.1213
H	-0.7601665374	 4.2545158336	-1.2046584989	 0.101802
H	 0.5320858437	 1.9804936829	-2.7955834915	 0.135986
H	 1.0692886886	 3.6603309289	-2.8641539642	 0.124943
H	 2.3948497955	 3.1703067869	-1.0987952033	 0.255449
57.2867	103.5974	193.0401	243.8561	326.5781	340.7443	381.6227	406.0423	500.4104	550.9245	580.5895	655.8262	728.8042	797.2938	834.6135	954.8767	972.4192	1001.9175	1077.391	1119.772	1145.534	1159.8906	1262.5435	1292.6588	1320.342	1360.8543	1375.0874	1399.5039	1411.5713	1457.4599	1471.2421	1484.3706	1491.8169	1785.4156	1824.6482	2972.6966	2986.9053	3023.52	3086.2837	3099.2092	3116.775	3602.3792
O=C1COCCNC1=O	O=C1COCCNC1=O	
InChI=1S/C5H7NO3/c7-4-3-9-2-1-6-5(4)8/h1-3H2,(H,6,8)	InChI=1S/C5H7NO3/c7-4-3-9-2-1-6-5(4)8/h1-3H2,(H,6,8)
