19
gdb 101220	3.6755	0.91599	0.79716	3.9931	72.57	-0.2686	0.0109	0.2795	1448.913	0.157083	-460.184145	-460.174577	-460.173633	-460.219345	33.968	
C	-0.5239780655	 1.3260450009	-0.0418502741	-0.23776
O	-0.0447241236	 4.414*^-6	-0.0935722067	-0.25329
C	 0.6167013567	-0.4424699044	 1.0803688033	 0.124864
C	-0.3313609056	-0.7055707178	 2.2506712045	-0.418892
C	 1.3448244121	-1.7082152337	 0.6507217042	 0.125727
C	 2.5618437194	-1.5497691326	-0.2726491816	-0.430879
C	 3.3387384385	-2.0859435518	 0.9296912441	 0.441319
O	 4.4592541824	-2.3507427987	 1.2192226647	-0.311354
O	 2.2173037081	-2.2138571576	 1.7195559919	-0.254066
H	 0.2777140392	 2.0360549888	 0.2137926406	 0.107803
H	-0.9036994561	 1.5664682789	-1.0376462783	 0.132553
H	-1.3406616808	 1.4505399715	 0.682464881	 0.114255
H	 1.3743534922	 0.3010729199	 1.3843240082	 0.070669
H	-0.7980919022	 0.2173587128	 2.6044898854	 0.120871
H	-1.1219418549	-1.4000424329	 1.9487059556	 0.12541
H	 0.2230408753	-1.1447493016	 3.0843705668	 0.14528
H	 0.6323426475	-2.4818871258	 0.3526818679	 0.104661
H	 2.5965169762	-2.1939908984	-1.1520873018	 0.146505
H	 2.8106840511	-0.5267224816	-0.5588691154	 0.146323
60.1002	81.928	95.3495	161.5096	198.3269	232.5741	277.717	318.753	400.1663	442.6458	497.3503	520.3907	533.2963	769.627	814.4813	871.4304	927.2712	957.4378	969.9294	1041.0096	1067.7346	1083.958	1116.2029	1126.4789	1152.3147	1181.7077	1207.1677	1220.4126	1234.0403	1298.1604	1316.4688	1370.5006	1401.2059	1417.7692	1457.6445	1477.6581	1484.7763	1493.22	1503.8473	1512.8966	1943.1523	2953.997	2983.2775	3037.0275	3045.4831	3084.109	3094.7962	3116.6527	3119.1023	3127.4951	3151.0335
COC(C)C1CC(=O)O1	CO[C@@H](C)[C@H]1CC(=O)O1	
InChI=1S/C6H10O3/c1-4(8-2)5-3-6(7)9-5/h4-5H,3H2,1-2H3	InChI=1S/C6H10O3/c1-4(8-2)5-3-6(7)9-5/h4-5H,3H2,1-2H3/t4-,5+/m0/s1
