14
gdb 29848	4.13706	1.12988	0.89252	4.5339	77.73	-0.2134	-0.0267	0.1867	1226.6242	0.100015	-436.708646	-436.70037	-436.699426	-436.741711	29.91	
C	 0.0133026358	 1.4796473704	 0.0092064287	-0.347413
N	-0.039051273	 0.0327424122	 0.0014741752	-0.111519
C	-1.1620421243	-0.7750078288	 0.0045340886	-0.237922
C	-0.7385556564	-2.0563012812	-0.0062493802	 0.203807
O	 0.6528827171	-2.0635010572	-0.0162730391	-0.243321
C	 1.09721282	-0.7613998166	-0.0108689184	 0.466992
O	 2.2504732439	-0.4264644095	-0.0177989596	-0.405627
C	-1.4279362609	-3.274725078	-0.0090445508	 0.26945
C	-2.0186080866	-4.3246013561	-0.0114716915	-0.424089
H	 1.0670892322	 1.7611607696	 0.0025114257	 0.179825
H	-0.4777039542	 1.8948170834	-0.8766187272	 0.143269
H	-0.4636305299	 1.8848214	 0.9072749501	 0.143262
H	-2.1637744748	-0.3814021424	 0.0138550636	 0.16068
H	-2.5392328887	-5.2501270257	-0.0135950852	 0.202606
108.529	115.9572	141.8237	182.5845	267.4414	292.2712	446.0522	446.534	533.6338	538.7544	602.9625	643.6571	684.9834	701.8732	755.3931	780.8315	859.5181	953.9042	1074.1264	1080.4723	1158.3917	1179.4708	1266.6432	1328.9004	1421.2701	1469.5453	1494.7496	1510.4067	1665.2448	1880.0278	2232.4944	3037.9776	3098.6811	3154.709	3288.9852	3502.9275
CN1C=C(OC1=O)C#C	Cn1cc(oc1=O)C#C	
InChI=1S/C6H5NO2/c1-3-5-4-7(2)6(8)9-5/h1,4H,2H3	InChI=1S/C6H5NO2/c1-3-5-4-7(2)6(8)9-5/h1,4H,2H3
