19
gdb 110635	2.43908	1.42232	1.09249	0.8656	74.65	-0.2284	0.0568	0.2852	1179.3902	0.156956	-422.933322	-422.924553	-422.923609	-422.96795	33.53	
C	-0.0211211623	 1.5303580639	 0.3514882716	-0.397441
C	 0.0625516491	 0.1280008823	-0.2644430537	-0.182827
C	-1.2929525748	-0.5827980923	-0.233339128	-0.070019
C	-1.9457624068	-1.4730597609	-1.2871995106	-0.193985
C	-0.9878369988	-2.553018474	-1.8724107472	 0.028342
O	 0.3260013078	-2.4062478644	-1.3035963782	-0.238232
C	-0.689654747	-3.0737437937	-0.5452309708	-0.062296
C	-1.6454647018	-2.008028712	 0.104609705	 0.315361
O	-2.569716751	-2.3766069191	 1.0641127058	-0.45066
H	 0.9514265615	 2.0316315955	 0.325114756	 0.110841
H	-0.7356479171	 2.1611007137	-0.1895509975	 0.114304
H	-0.3449969701	 1.4888665201	 1.3979541349	 0.108467
H	 0.4208876107	 0.1995425453	-1.2947913404	 0.109879
H	 0.811166159	-0.4647812648	 0.2677946179	 0.105742
H	-2.080486417	 0.0467851381	 0.1849681512	 0.094303
H	-2.9070431883	-1.2381914275	-1.7255482725	 0.099017
H	-1.0641414257	-3.041957671	-2.8356264077	 0.110768
H	-0.4969765845	-4.07643708	-0.1813847988	 0.110332
H	-2.1840148728	-2.2156461692	 1.9329400929	 0.288104
13.1137	171.1686	188.287	233.888	266.703	300.8348	322.6328	372.948	413.5546	521.1163	573.0265	676.0797	735.8962	776.2277	791.1043	814.2233	865.231	880.6674	917.9105	951.2266	973.2488	992.8031	1010.4908	1051.847	1068.6045	1129.6573	1133.6556	1168.3695	1206.6439	1240.5616	1268.1655	1291.9768	1304.3235	1321.6476	1357.3189	1386.0366	1408.6562	1474.5726	1479.7002	1499.8207	1505.6586	3025.3736	3061.69	3078.2715	3095.9898	3103.41	3106.	3181.5351	3196.0482	3204.4336	3783.1962
CCC1C2C3OC3C12O	CC[C@H]1[C@H]2[C@H]3O[C@H]3[C@@]12O	
InChI=1S/C7H10O2/c1-2-3-4-5-6(9-5)7(3,4)8/h3-6,8H,2H2,1H3	InChI=1S/C7H10O2/c1-2-3-4-5-6(9-5)7(3,4)8/h3-6,8H,2H2,1H3/t3-,4-,5+,6+,7+/m0/s1
