18
gdb 71095	2.5878	1.60155	1.32258	2.083	84.18	-0.2311	0.0235	0.2546	1042.917	0.146964	-364.720525	-364.712514	-364.71157	-364.752658	31.789	
C	 0.0298030958	 1.5832235576	-0.0202457208	-0.506609
C	-0.026020662	 0.0818675585	-0.0004470599	 0.240974
C	 0.4534606703	-0.7825617703	-1.2021056399	-0.288214
C	-0.5098002291	-1.8483144661	-0.6912131729	-0.089907
N	-0.5157111551	-1.858900899	 0.8085267326	-0.184709
C	 0.4436668036	-0.7714862693	 1.1911388782	-0.189154
C	-1.3301502581	-0.8457880117	 0.0483419551	 0.301947
C	-2.7114653131	-0.5924612124	 0.1788241749	-0.008659
C	-3.8821126314	-0.3281635935	 0.2785257236	-0.362629
H	 1.0692857691	 1.9314740849	-0.0440644618	 0.123568
H	-0.4782597167	 1.9898742699	-0.9008645707	 0.126181
H	-0.4466541483	 2.0093883225	 0.8688717999	 0.127559
H	 0.1104372463	-0.3774793777	-2.1577906054	 0.111027
H	 1.5221600094	-1.0172118206	-1.2577132791	 0.097098
H	-0.8466400054	-2.7565316479	-1.1732356365	 0.112114
H	 1.4971378229	-1.0742808519	 1.2257723773	 0.096331
H	 0.1377617118	-0.3697690357	 2.1606309808	 0.11266
H	-4.9163534399	-0.1069503474	 0.3706826845	 0.180424
119.3187	136.841	204.2472	273.4699	293.1214	413.112	418.5287	513.8144	538.9516	570.961	587.1979	617.6938	664.0791	730.243	764.8752	831.782	861.3158	910.8367	928.0099	958.6214	996.8024	1032.5181	1042.8969	1100.6671	1117.9488	1151.646	1162.7186	1214.5366	1238.5374	1257.2591	1275.4601	1349.2334	1391.0139	1416.8582	1486.1905	1491.318	1493.3957	1514.7265	2230.1049	3025.97	3030.1489	3042.4678	3091.1368	3099.0384	3102.5712	3105.7075	3209.4872	3502.2756
CC12CC3N(C1)C23C#C	C[C@@]12C[C@H]3N(C1)[C@@]23C#C	
InChI=1S/C8H9N/c1-3-8-6-4-7(8,2)5-9(6)8/h1,6H,4-5H2,2H3	InChI=1S/C8H9N/c1-3-8-6-4-7(8,2)5-9(6)8/h1,6H,4-5H2,2H3/t6-,7-,8-,9?/m1/s1
