18
gdb 15812	6.02687	1.01157	0.93996	1.7106	70.38	-0.2658	0.018	0.2838	1289.1205	0.152947	-384.97252	-384.963829	-384.962884	-385.00664	30.653	
C	-0.200612477	 1.4811892642	-0.2164408799	-0.391243
C	 0.0136840408	-0.0072184271	-0.0198345079	-0.042136
O	 0.6984680499	-0.506747669	-1.1852300846	-0.252694
C	 0.9732039332	-1.8269248925	-1.1813637728	 0.461966
O	 0.6781374514	-2.5715369815	-0.2750995371	-0.384602
C	 1.6768815804	-2.2320661255	-2.4244037857	-0.131411
C	 2.7000108137	-3.3489350413	-2.3054311678	-0.250028
C	 1.387297467	-3.6244883468	-2.9587918902	-0.250031
H	 0.7544335167	 2.0018124921	-0.3304478687	 0.129112
H	-0.8056364695	 1.6746622312	-1.1067626235	 0.129111
H	-0.719945259	 1.899553278	 0.6508983383	 0.122347
H	 0.6192900899	-0.2213786482	 0.8664832045	 0.121383
H	-0.9318700881	-0.5466983645	 0.0944717254	 0.121391
H	 1.8637236429	-1.4374379929	-3.1348612561	 0.101449
H	 3.5879041814	-3.2692456872	-2.9217242014	 0.118842
H	 2.8554288445	-3.7450105174	-1.3089136639	 0.138849
H	 0.6629096625	-4.2052369912	-2.4001584992	 0.138856
H	 1.3495367691	-3.7391280003	-4.0358035992	 0.118838
48.7793	75.1598	138.2404	146.083	247.3938	273.9887	300.8789	352.6762	432.8652	673.7452	758.8452	793.7593	807.934	835.9035	870.3467	879.9151	923.6282	972.182	1060.1233	1067.2877	1095.9286	1112.1379	1132.9148	1138.4378	1183.4069	1207.7586	1209.8803	1229.4019	1290.2665	1382.9481	1412.6957	1435.1168	1456.6541	1486.2035	1490.117	1496.4566	1520.6571	1800.4517	3045.8627	3051.1238	3088.3391	3119.9706	3125.3775	3143.7118	3145.9518	3197.9378	3230.9345	3245.435
CCOC(=O)C1CC1	CCOC(=O)C1CC1	
InChI=1S/C6H10O2/c1-2-8-6(7)5-3-4-5/h5H,2-4H2,1H3	InChI=1S/C6H10O2/c1-2-8-6(7)5-3-4-5/h5H,2-4H2,1H3
