18
gdb 59827	3.72343	0.84281	0.71491	13.0411	83.92	-0.2119	-0.0249	0.187	1548.1462	0.139657	-438.981629	-438.97269	-438.971745	-439.014675	34.715	
C	 0.3227577839	 1.2397663465	 0.0494478027	-0.333788
N	-0.1792028089	-0.2135198899	-0.0874809685	-0.103118
H	 0.0346492279	-0.5349523454	-1.0774845848	 0.30347
C	 0.5323952905	-1.2337175662	 0.8626144868	-0.468194
C	-1.7761043092	-0.3092195582	 0.0390616448	-0.32083
C	-2.128217923	-1.7134115429	-0.1261549875	 0.107375
C	-1.9588140629	-2.9244362707	-0.2038205519	-0.148794
C	-0.9711584915	-4.2305785549	-0.1184932492	 0.364252
O	-1.3743239059	-5.4062221272	-0.3164730674	-0.406386
O	 0.2284761778	-3.7343118239	 0.158276383	-0.472895
H	 1.4092783127	 1.2536767052	-0.1415981346	 0.17401
H	-0.2078558058	 1.8754985332	-0.6804383301	 0.159802
H	 0.1119344055	 1.5748997723	 1.0785780348	 0.174548
H	 0.3278643649	-2.4119185601	 0.5057275448	 0.403128
H	 1.6016730494	-0.9606229094	 0.8128491208	 0.116782
H	 0.1501792324	-1.0045702932	 1.8717801189	 0.127637
H	-2.0009161331	 0.1100276669	 1.0430252817	 0.168047
H	-2.1603285746	 0.3854622378	-0.7392949845	 0.154953
129.489	208.4882	210.4795	246.4267	273.7597	308.0852	352.9142	372.2527	388.0032	400.5413	439.8309	478.9745	533.3579	541.7965	667.5578	703.9969	790.3825	808.3551	862.5524	900.2629	1007.5403	1020.9074	1086.7478	1138.2071	1166.6133	1184.8606	1284.4411	1356.5161	1395.4884	1434.0318	1440.1512	1447.3225	1474.6881	1486.4258	1493.3581	1500.2805	1503.3419	1535.4688	1605.9304	2167.6981	2902.3474	2947.18	2959.4473	2974.048	3016.6352	3040.4651	3050.6413	3064.014
C[NH+](C)CC#CC([O-])=O	C[NH](C)C[C][C]C(=O)[O]	
InChI=1S/C6H9NO2/c1-7(2)5-3-4-6(8)9/h5H2,1-2H3,(H,8,9)	InChI=1S/C6H9NO2/c1-7(2)5-3-4-6(8)9/h7H,5H2,1-2H3
