19
gdb 40552	3.6473	1.20355	1.02631	1.7534	82.45	-0.2235	0.01	0.2335	1200.1641	0.160485	-385.865326	-385.857678	-385.856733	-385.897824	30.004	
C	 0.2357657098	 1.440834159	 0.0020588843	-0.190435
O	 1.1830728313	 0.4043502653	-0.2231015889	-0.230702
C	-0.1824924696	 0.0260764429	 0.0271954491	-0.035463
C	-0.4693572962	-0.7061540913	 1.2738968159	 0.370487
C	-1.3829202767	-1.6775183141	 1.4068297838	-0.211146
C	-1.4754305781	-2.1960842815	 2.8248261637	-0.26696
C	-0.3438109542	-1.4629240736	 3.5450272341	-0.043716
C	 1.0630916459	-1.6673612797	 3.0495240892	-0.271819
C	 0.2656324388	-0.4776771943	 2.5573167841	-0.138257
H	 0.3501431319	 1.9894499109	 0.9356186478	 0.114429
H	-0.0143148945	 2.0511845783	-0.8654104923	 0.115696
H	-0.7055935755	-0.3462079101	-0.8541879493	 0.088834
H	-1.9867011657	-2.0731305087	 0.5970659831	 0.088583
H	-2.4526640815	-1.9624885896	 3.2697300136	 0.107475
H	-1.3694669301	-3.2877486223	 2.8754059896	 0.110348
H	-0.4788194572	-1.1891838338	 4.5845924765	 0.084633
H	 1.8649949348	-1.4729356261	 3.7540930383	 0.109367
H	 1.2648147704	-2.4650951628	 2.3417239523	 0.114025
H	 0.5794416862	 0.5193343018	 2.8442565252	 0.08462
68.0507	133.3118	183.7345	290.4593	335.8372	391.9092	414.4821	579.8114	673.8318	706.386	779.6347	808.7638	812.798	838.3016	850.7744	897.634	905.507	956.5098	980.6753	995.2334	1012.1987	1054.6417	1073.3633	1094.0979	1095.7954	1100.4173	1145.5929	1167.8312	1182.227	1199.9344	1208.488	1265.1583	1287.1396	1317.8308	1369.7747	1394.893	1419.3956	1473.276	1484.4058	1523.5471	1693.2078	3008.9592	3037.5935	3079.6227	3106.093	3124.5659	3165.5815	3172.3421	3180.3502	3189.008	3213.8222
C1OC1C1=CCC2CC12	C1O[C@H]1C1=CC[C@H]2C[C@@H]12	
InChI=1S/C8H10O/c1-2-6(8-4-9-8)7-3-5(1)7/h2,5,7-8H,1,3-4H2	InChI=1S/C8H10O/c1-2-6(8-4-9-8)7-3-5(1)7/h2,5,7-8H,1,3-4H2/t5-,7+,8+/m0/s1
