18
gdb 22496	3.40458	0.72612	0.60524	0.7598	80.76	-0.2415	-0.0335	0.2081	1790.5857	0.143593	-438.995759	-438.985256	-438.984312	-439.032183	36.501	
C	-0.0709420267	 1.3283327339	 0.1177472008	-0.228534
O	 0.0031122768	-0.0719222304	 0.0086605613	-0.235528
C	 0.6692957463	-0.493797903	-1.1625179703	-0.063594
C	 0.6745482951	-2.0173144236	-1.1488376727	-0.29002
C	 1.35269472	-2.6542223331	-2.3378676191	 0.16498
N	 1.8537422846	-1.8815793518	-3.2351186839	-0.164567
O	 2.4480469064	-2.5817350583	-4.2759778005	-0.386199
C	 1.3939625739	-4.078695121	-2.3907332932	 0.325678
C	 1.3947916378	-5.2822988683	-2.375118722	-0.436828
H	 0.928799036	 1.7901669127	 0.153575676	 0.103179
H	-0.6228670472	 1.7764681572	-0.7240409994	 0.103179
H	-0.5985129972	 1.5575092675	 1.0469553753	 0.125672
H	 0.1592554921	-0.1160181924	-2.0621910535	 0.09949
H	 1.6981692848	-0.1028655719	-1.1915769911	 0.099502
H	 1.1625970116	-2.3686387873	-0.2315503103	 0.133874
H	-0.3584502502	-2.381618834	-1.0920419629	 0.133881
H	 2.7651552365	-1.8732992244	-4.8472722804	 0.309781
H	 1.4063951392	-6.3445243418	-2.3802065039	 0.206055
50.6311	87.326	98.5454	116.4627	151.0647	230.952	263.0951	265.6582	285.8784	337.0574	419.7452	438.817	511.9965	621.6657	646.1864	652.7628	689.091	804.3187	819.939	991.7458	1037.2999	1071.1411	1088.0774	1164.7728	1182.1176	1191.6232	1229.2927	1236.1645	1296.8284	1339.3087	1402.9748	1429.0857	1477.2167	1482.4133	1484.6305	1504.9492	1526.8361	1684.3842	2221.5469	2965.0817	2982.5951	3007.5205	3011.467	3037.4201	3070.1314	3112.3992	3499.1863	3810.6442
COCCC(=NO)C#C	COCCC(=NO)C#C	
InChI=1S/C6H9NO2/c1-3-6(7-8)4-5-9-2/h1,8H,4-5H2,2H3	InChI=1S/C6H9NO2/c1-3-6(7-8)4-5-9-2/h1,8H,4-5H2,2H3
