21
gdb 91077	3.3462	1.37599	1.20339	0.4244	88.41	-0.2164	0.021	0.2374	1127.8426	0.184411	-349.928917	-349.921243	-349.920299	-349.960717	31.603	
C	-0.0621178899	 1.5464922679	 0.1923462552	-0.406974
C	-0.0041453911	 0.0374610176	 0.0140364762	-0.046504
C	 1.0920559538	-0.6002699985	-0.9264905912	-0.269415
C	 1.2646910894	-1.7746898396	 0.1091890729	-0.04132
C	 2.5267913416	-2.2388033625	 0.814591395	-0.070931
C	 3.5443443324	-1.2408773656	 1.3021920131	-0.283089
C	 2.441150462	-1.6794808742	 2.2473752594	-0.05815
C	 1.2676924334	-0.7437375375	 2.2552148946	-0.240626
C	 0.6188750971	-0.8278763258	 1.0910484948	 0.249754
H	 0.9182739115	 1.9415351227	 0.4785624034	 0.114767
H	-0.3727592125	 2.04239457	-0.7336937483	 0.114072
H	-0.7768933862	 1.8252267231	 0.9741724646	 0.118387
H	-0.9875698035	-0.3482736078	-0.2841153909	 0.079961
H	 0.7768897412	-0.8734429214	-1.9365134261	 0.096965
H	 1.9813865721	 0.0335188033	-0.9768498292	 0.106531
H	 0.6326033943	-2.6218351247	-0.1820302972	 0.071577
H	 2.8709307167	-3.2541369934	 0.6571374493	 0.080386
H	 4.5426966888	-1.6261430923	 1.4839302512	 0.10706
H	 3.5188088434	-0.2209692647	 0.9317406198	 0.106645
H	 2.7052393396	-2.2737175103	 3.1161791104	 0.082137
H	 1.1194478359	-0.0005596462	 3.0308868631	 0.088767
115.4042	180.209	217.3221	251.7142	338.6863	419.0582	473.377	495.7699	621.1197	662.5657	668.6394	767.9662	782.9921	829.8684	844.6282	847.0368	897.3531	913.0381	918.8944	981.3839	992.2306	1026.4565	1053.3181	1065.7502	1072.6977	1090.3707	1096.8915	1103.0889	1135.7782	1153.8064	1193.0423	1208.923	1238.726	1255.8035	1273.2002	1327.3198	1335.7049	1368.0725	1378.3754	1409.1913	1472.8835	1478.428	1492.8484	1498.0884	1699.7074	3019.2508	3028.3835	3029.2596	3055.8065	3095.2188	3100.9711	3118.6603	3120.6987	3156.7873	3176.9144	3190.2244	3207.104
CC1CC2C3CC3C=C12	C[C@H]1C[C@H]2[C@H]3C[C@H]3[CH][C]12	
InChI=1S/C9H12/c1-5-2-9-7(5)3-6-4-8(6)9/h3,5-6,8-9H,2,4H2,1H3	InChI=1S/C9H12/c1-5-2-9-7(5)3-6-4-8(6)9/h3,5-6,8-9H,2,4H2,1H3/t5-,6+,8-,9+/m0/s1
