23
gdb 122999	4.66443	0.59678	0.57678	1.6595	83.83	-0.2372	0.0673	0.3044	2035.4894	0.20244	-425.403219	-425.392119	-425.391174	-425.440596	39.366	
C	 0.0341959081	 1.5422133085	 0.0975762684	-0.384025
C	 0.183677771	 0.0353691538	-0.0309135724	-0.026458
O	 0.6430008716	-0.4794940686	 1.2000900447	-0.245045
C	 0.8155714409	-1.8808245342	 1.1887387941	-0.050557
C	 1.2740777422	-2.3148503023	 2.5775830811	-0.24591
C	 1.522718773	-3.8017992781	 2.6729895064	 0.439274
O	 0.3224706412	-4.4961985583	 2.4281333731	-0.474095
C	 2.8299504756	-4.3823777853	 2.1989333952	-0.328592
C	 2.4971167977	-4.3392142752	 3.6846735144	-0.336256
H	 0.9938865647	 2.0027208603	 0.349306839	 0.123965
H	-0.3222386298	 1.9730524299	-0.8429503923	 0.111833
H	-0.681053602	 1.7903532345	 0.8869809075	 0.125579
H	-0.7809990528	-0.4274312988	-0.3016932438	 0.08372
H	 0.8940245352	-0.2144383976	-0.8383295664	 0.080655
H	-0.1243644146	-2.3888645868	 0.9255218037	 0.103222
H	 1.5649902473	-2.1705732252	 0.4316633846	 0.07934
H	 2.1902698493	-1.7742334051	 2.8355669209	 0.102693
H	 0.5108469031	-2.0276255352	 3.3096684263	 0.11354
H	 0.508212141	-5.4395547679	 2.4016498834	 0.280106
H	 2.808327756	-5.3503608037	 1.7067014145	 0.10524
H	 3.596013502	-3.714340364	 1.8193163802	 0.117812
H	 3.0372373654	-3.6443062859	 4.3190478106	 0.117076
H	 2.2473384341	-5.2783297649	 4.1690696771	 0.106885
45.6621	59.9655	99.0173	119.0038	132.6986	145.6632	208.6818	246.7619	287.3597	333.2757	394.9895	428.8746	455.15	539.0363	736.2726	767.0398	804.7955	822.6653	872.2745	897.2801	930.481	955.6993	977.8955	1039.6887	1048.3548	1063.1416	1070.6611	1084.3191	1148.9564	1165.8622	1181.3056	1184.2608	1187.6318	1226.7523	1288.6634	1296.8214	1311.8874	1342.7437	1388.5229	1406.0757	1436.7609	1452.9953	1461.1995	1481.177	1483.2293	1500.0169	1502.9854	1518.8365	1540.5912	2945.1625	2957.4531	2971.3196	3007.0408	3043.8212	3044.9811	3091.9225	3117.9163	3119.272	3119.9511	3125.2525	3198.9505	3214.6588	3829.1951
CCOCCC1(O)CC1	CCOCCC1(O)CC1	
InChI=1S/C7H14O2/c1-2-9-6-5-7(8)3-4-7/h8H,2-6H2,1H3	InChI=1S/C7H14O2/c1-2-9-6-5-7(8)3-4-7/h8H,2-6H2,1H3
