15
gdb 19133	2.87591	2.00428	1.42381	2.1712	66.07	-0.2571	0.0013	0.2585	886.2955	0.120028	-358.79422	-358.786797	-358.785853	-358.826218	27.139	
N	-0.0394511443	-1.1459732425	 0.1539082334	-0.347178
C	-0.0427832924	 0.0107547653	 0.1185917464	 0.215139
C	-0.0647450781	 1.4556003555	 0.0464728153	 0.18236
C	 0.4772302266	 2.184512319	 1.2403911952	-0.263119
N	 1.231559176	 2.1669864331	-0.0117650648	-0.335111
C	-1.1683615612	 2.0547441626	-0.7820219049	-0.027362
C	-1.7391227972	 1.3393564205	-1.9488596671	-0.255512
N	-2.5344258497	 1.5247754959	-0.7211727976	-0.324797
H	 0.031797899	 3.1416656331	 1.4957760242	 0.142956
H	 0.8259152314	 1.5937327567	 2.0821431248	 0.141284
H	 2.0040904749	 1.5073897212	 0.037051149	 0.255973
H	-1.105238805	 3.1396186403	-0.8082988727	 0.108089
H	-2.0819642182	 1.9067041937	-2.8087645564	 0.128136
H	-1.3592556994	 0.3469106508	-2.1752067327	 0.13563
H	-2.5545758024	 0.6551612848	-0.191252612	 0.243514
72.9024	140.355	206.5977	247.3327	266.3862	380.2887	464.0477	581.5779	603.7858	654.8857	825.7483	842.9714	872.4944	915.1583	939.7425	969.7837	985.8594	1011.679	1072.9658	1117.7539	1140.8589	1145.7358	1188.4634	1247.3053	1263.0279	1299.6341	1307.6408	1342.2034	1422.2266	1505.1946	1512.5736	2344.3784	3116.7518	3117.1832	3144.2933	3204.9307	3210.5975	3488.0749	3512.9744
N#CC1(CN1)C1CN1	N#C[C@]1(CN1)[C@H]1CN1	
InChI=1S/C5H7N3/c6-2-5(3-8-5)4-1-7-4/h4,7-8H,1,3H2	InChI=1S/C5H7N3/c6-2-5(3-8-5)4-1-7-4/h4,7-8H,1,3H2/t4-,5+/m1/s1
