16
gdb 117018	4.31813	0.77906	0.66806	4.1083	71.75	-0.2801	-0.1315	0.1487	1624.4218	0.12077	-437.917973	-437.907985	-437.907041	-437.954501	33.441	
C	-0.0128982394	 1.5845848095	-0.0084499536	-0.388897
C	-0.0052938231	 0.0542925764	 0.0131835032	-0.176846
C	 0.6901434305	-0.54147287	-1.210957602	-0.28963
C	 0.7127357756	-2.0476918068	-1.2166000039	 0.286168
O	 0.2455134112	-2.7667803953	-0.368394978	-0.260419
C	 1.4026520234	-2.7074886131	-2.4308334291	 0.205156
O	 1.9011655081	-2.0863001361	-3.3327696501	-0.243925
C	 1.4077788581	-4.1819269816	-2.4074213332	 0.267225
N	 1.4396791835	-5.33712511	-2.4381922299	-0.290904
H	 1.005224123	 1.9885893711	-0.0253863001	 0.11956
H	-0.5357511668	 1.9686803138	-0.8911563177	 0.11956
H	-0.5153293295	 1.9850235366	 0.8766228046	 0.123324
H	 0.4927039239	-0.3088610022	 0.9186387645	 0.119125
H	-1.0303271864	-0.3285341014	 0.0629195575	 0.11912
H	 0.2189961729	-0.2142193867	-2.1487497063	 0.145694
H	 1.7296026249	-0.1947884142	-1.2999443758	 0.145689
37.3483	57.3736	93.6636	101.4734	176.4507	243.6526	254.988	264.3168	336.9976	394.3628	418.2366	494.4952	672.2213	675.5183	765.0584	772.8474	886.8143	889.8011	968.2535	1050.289	1103.8859	1126.5573	1201.5751	1242.8901	1320.4205	1330.0042	1401.3142	1416.5281	1434.0841	1487.6657	1499.9718	1507.7047	1790.8913	1812.4559	2341.6798	3020.7885	3033.1885	3042.8263	3049.239	3078.4914	3104.0571	3111.4421
CCCC(=O)C(=O)C#N	CCCC(=O)C(=O)C#N	
InChI=1S/C6H7NO2/c1-2-3-5(8)6(9)4-7/h2-3H2,1H3	InChI=1S/C6H7NO2/c1-2-3-5(8)6(9)4-7/h2-3H2,1H3
