19
gdb 92044	2.57625	1.61839	1.27889	2.6294	76.75	-0.2395	-0.0043	0.2352	1057.1786	0.160199	-423.028446	-423.020423	-423.019479	-423.060562	31.852	
C	 0.0652858311	 1.5204898558	 0.0345205158	-0.488715
C	-0.0416949442	 0.0255755215	-0.0218178244	 0.287683
C	-0.0511826678	-0.6717274333	-1.1644353781	-0.150165
C	-0.0911773281	-2.1518910369	-1.1716168191	 0.003516
O	 0.8910064851	-2.8452256823	-0.3436886461	-0.270611
C	-0.4845258077	-2.8589997131	 0.0598482561	 0.043642
C	-0.8380842787	-2.0238976603	 1.2662032744	-0.276225
C	-0.040566269	-0.7065339798	 1.3128128591	 0.026836
O	 1.2974417268	-0.9272879732	 1.7546011995	-0.441541
H	 0.9509488539	 1.8108004088	 0.6125902991	 0.146545
H	 0.1392595222	 1.9650875312	-0.9613972564	 0.119901
H	-0.801174102	 1.9602156684	 0.544941199	 0.125285
H	-0.0088380853	-0.1666829019	-2.125570873	 0.088037
H	-0.2451313252	-2.6386909174	-2.1315858647	 0.09524
H	-0.9618721256	-3.8356767466	-0.0208406717	 0.095533
H	-1.9150449393	-1.8135672867	 1.2357770636	 0.107858
H	-0.6367975166	-2.5759957665	 2.1905795369	 0.118513
H	-0.4843763148	-0.05828849	 2.0764954337	 0.081049
H	 1.6788431252	-1.5377505077	 1.1072229164	 0.287618
128.3899	184.102	207.9525	236.4943	310.11	363.8398	380.0471	433.9922	494.0867	573.3867	623.5642	656.5335	714.7012	764.6655	822.6072	855.1706	872.4509	898.9524	956.874	975.5804	1023.3314	1055.7375	1072.9408	1076.9341	1090.6017	1144.1638	1183.2689	1230.1536	1268.7106	1284.1187	1321.9052	1353.0394	1383.4351	1395.854	1406.6743	1452.3335	1453.4653	1471.6724	1476.3285	1489.8457	1718.7373	3019.2042	3028.1317	3049.3349	3071.698	3078.7597	3109.3461	3113.6418	3141.1811	3165.4777	3735.8123
CC1=CC2OC2CC1O	CC1=C[C@H]2O[C@H]2C[C@H]1O	
InChI=1S/C7H10O2/c1-4-2-6-7(9-6)3-5(4)8/h2,5-8H,3H2,1H3	InChI=1S/C7H10O2/c1-4-2-6-7(9-6)3-5(4)8/h2,5-8H,3H2,1H3/t5-,6-,7+/m1/s1
