20
gdb 109600	1.87793	1.29627	0.99425	4.1159	80.45	-0.276	0.0308	0.3068	1304.1018	0.16909	-403.151028	-403.140625	-403.139681	-403.186423	37.283	
C	-0.5954367786	 1.2555501313	-1.7770739479	-0.421266
C	-0.2575401002	-0.0421876612	-1.0728580342	-0.05994
C	 1.145243402	-0.5424231857	-0.8522986108	-0.088164
C	 2.3888413829	 0.1972338192	-1.2947450611	-0.086193
O	 3.5480368404	-0.2453250471	-0.6091270951	-0.413193
C	 0.3089015451	-0.0750351777	 0.3512274953	 0.112969
C	 0.6255434137	 1.2024925244	 1.1186826851	-0.466775
C	-0.1983290398	-1.128597147	 1.1971013828	 0.247005
N	-0.6036333005	-1.9677781432	 1.8836326679	-0.349274
H	 0.1271950753	 2.0515043969	-1.5874563976	 0.122996
H	-0.6289809101	 1.0954462408	-2.8598223439	 0.132917
H	-1.5806040238	 1.6174758624	-1.4658618491	 0.132467
H	-0.9810693647	-0.8287092208	-1.2675128464	 0.113732
H	 1.271380914	-1.6196062618	-0.9144629205	 0.118446
H	 2.5743201852	-0.0175573598	-2.3529535172	 0.122461
H	 2.2653369772	 1.2855343193	-1.2104343352	 0.088129
H	 3.4040307131	-0.1120595957	 0.3333940378	 0.286196
H	 1.0346446714	 1.9787627255	 0.4712537465	 0.128898
H	-0.278543994	 1.6006552169	 1.5885176474	 0.144114
H	 1.3514647715	 1.0067436233	 1.9142466963	 0.134474
72.6309	101.839	150.6961	160.1618	167.29	174.3399	231.435	275.7694	297.1876	335.2571	410.2327	470.0736	528.3736	563.1375	568.7627	668.2053	774.735	834.8229	937.7114	972.201	992.612	1029.1625	1061.5833	1073.987	1105.1825	1131.2479	1148.357	1170.1043	1213.5186	1264.6712	1302.9262	1344.3811	1385.325	1411.4085	1420.3329	1426.5796	1445.2255	1482.8743	1493.888	1498.1302	1506.5712	1515.8295	2344.5104	3006.8045	3041.8747	3048.0507	3067.4838	3100.1744	3107.3241	3122.4365	3142.4732	3148.4535	3158.6238	3814.9903
CC1C(CO)C1(C)C#N	C[C@H]1[C@@H](CO)[C@]1(C)C#N	
InChI=1S/C7H11NO/c1-5-6(3-9)7(5,2)4-8/h5-6,9H,3H2,1-2H3	InChI=1S/C7H11NO/c1-5-6(3-9)7(5,2)4-8/h5-6,9H,3H2,1-2H3/t5-,6+,7+/m0/s1
