15
gdb 93204	2.914	1.35311	0.95858	5.4853	62.4	-0.2608	-0.0815	0.1793	1143.6722	0.111918	-494.936957	-494.928798	-494.927854	-494.970425	29.735	
O	 0.0580403483	 1.3744517209	-0.1645972772	-0.416473
C	 0.126613525	-0.0289458624	-0.0027077043	 0.05779
C	 0.4908964711	-0.3946759413	 1.435813448	-0.099343
O	 0.5871511294	-1.8132952288	 1.6271807843	-0.222952
C	-0.3357373499	-2.6496571978	 1.0955329433	 0.334454
O	-0.3212356677	-3.8151988854	 1.3582217071	-0.28496
C	-1.3727575146	-2.0577571028	 0.0865897055	 0.259489
O	-2.2218808756	-2.7885268644	-0.3451836865	-0.256323
C	-1.2526580909	-0.5977456548	-0.3078972501	-0.315543
H	 0.952337768	 1.7311192578	-0.1620771324	 0.294901
H	 0.8726394444	-0.4751128449	-0.6787222832	 0.095729
H	 1.4730125284	-0.0018758372	 1.7113714865	 0.124183
H	-0.2519975369	 0.0285909624	 2.1235343905	 0.128246
H	-1.989467739	-0.0336440052	 0.2817450676	 0.152593
H	-1.5333694	-0.4856730862	-1.3580641491	 0.148209
45.594	100.302	213.9458	294.8747	307.1796	348.2863	401.1948	410.6614	425.5681	466.1669	593.1689	605.9965	709.3955	747.2896	889.6551	933.6862	1045.2119	1059.8239	1095.2068	1103.9586	1136.5313	1176.7929	1207.9086	1254.3977	1294.3854	1310.2997	1361.4298	1407.1725	1440.7194	1457.9789	1514.4109	1833.7457	1854.9633	2986.6259	3026.6055	3036.0835	3102.1146	3108.3631	3818.7785
OC1COC(=O)C(=O)C1	O[C@H]1COC(=O)C(=O)C1	
InChI=1S/C5H6O4/c6-3-1-4(7)5(8)9-2-3/h3,6H,1-2H2	InChI=1S/C5H6O4/c6-3-1-4(7)5(8)9-2-3/h3,6H,1-2H2/t3-/m1/s1
