21
gdb 81037	2.46777	1.70326	1.2823	0.7254	77.65	-0.2448	0.0703	0.3152	1064.7684	0.183373	-424.217021	-424.20862	-424.207676	-424.249275	33.577	
C	-0.1098299093	 1.5164872644	-0.0014417975	-0.429594
C	 0.0295953613	-0.0016377658	 0.0259511772	 0.0058
C	 1.1979358811	-0.5953868721	-0.8201360004	-0.047961
C	 2.1191305378	-0.4299084587	 0.424466351	-0.305473
C	 0.7991004797	-0.5936675243	 1.2326822853	 0.378753
O	 0.5913111117	 0.0571222639	 2.4581548013	-0.487337
C	 0.4768011883	-2.0990054509	 1.3092334929	-0.12143
O	 0.974996867	-2.809052729	 0.1854064058	-0.260429
C	 0.9416525525	-2.089793821	-1.0437813186	-0.076746
H	 0.8466972182	 2.0265447808	 0.1432478749	 0.11753
H	-0.5204830708	 1.8425049688	-0.9632805763	 0.109305
H	-0.7848059437	 1.8555690432	 0.7895154287	 0.129312
H	-0.9512366582	-0.459944761	-0.1540716877	 0.059884
H	 1.4645186046	-0.0857929964	-1.7490527422	 0.068169
H	 2.9088863623	-1.1690476456	 0.5776047458	 0.099811
H	 2.5230904119	 0.5791039298	 0.5131853388	 0.104742
H	 1.1575428126	-0.350553757	 3.1229174944	 0.277342
H	 0.9664183703	-2.5442151935	 2.1858786794	 0.089333
H	-0.610786012	-2.2330887095	 1.4252604381	 0.094886
H	-0.0247572867	-2.2330687258	-1.5548200395	 0.088986
H	 1.7219323212	-2.5403615004	-1.6670860016	 0.105117
169.9206	189.8793	219.0801	242.2858	254.5158	282.5904	346.245	416.6059	428.1137	468.8557	516.9025	626.1505	682.6892	816.6917	830.0147	854.6676	891.6393	926.1852	953.8202	986.2459	1001.9155	1029.6659	1074.3226	1083.5804	1109.7276	1123.976	1152.3208	1171.0761	1188.7808	1223.8513	1243.7593	1254.531	1272.4069	1291.0051	1311.6126	1353.6882	1376.8548	1394.1729	1411.6282	1417.9516	1487.8535	1495.5777	1501.3938	1503.3434	1513.908	2966.548	2975.7633	3016.7854	3032.2229	3037.9225	3059.4208	3071.9076	3084.1351	3103.1732	3115.7341	3137.6069	3798.0123
CC1C2CC1(O)COC2	C[C@H]1[C@H]2C[C@]1(O)COC2	
InChI=1S/C7H12O2/c1-5-6-2-7(5,8)4-9-3-6/h5-6,8H,2-4H2,1H3	InChI=1S/C7H12O2/c1-5-6-2-7(5,8)4-9-3-6/h5-6,8H,2-4H2,1H3/t5-,6-,7-/m0/s1
