15
gdb 49397	2.94911	1.46169	1.16906	4.0321	69.12	-0.2479	-0.0395	0.2084	1030.2236	0.112008	-420.595699	-420.58848	-420.587536	-420.628008	27.224	
O	-0.0264927044	-0.0166289325	 0.3437443689	-0.247706
C	-0.0002980471	 1.1818998038	 0.2233189086	 0.147128
C	 1.2712805977	 1.9859579164	 0.0957460607	-0.09226
C	 1.4358997396	 2.9591614633	-1.0888319149	-0.09435
C	 2.1301608466	 3.9718536667	-0.2455067489	-0.085286
C	 0.7061135932	 4.2740908314	-0.7523311028	-0.189978
C	 0.2355641193	 4.1433255848	 0.6619855461	 0.437294
O	-0.5932469089	 4.6935739278	 1.3281338441	-0.334585
C	 1.4567604394	 3.2521273403	 0.9955692331	-0.207132
H	-0.9412890835	 1.7760843318	 0.1875801519	 0.091475
H	 2.1309171124	 1.3151124986	 0.1635584222	 0.104509
H	 1.6192173274	 2.7050137356	-2.1248487536	 0.115889
H	 3.0207575275	 4.5697540629	-0.3530622685	 0.127087
H	 0.4036425217	 4.9708372256	-1.521264601	 0.12075
H	 1.8376382091	 3.1780544133	 2.0097917442	 0.107167
67.1609	119.1248	184.4427	293.1485	415.5419	434.085	506.2938	600.4528	733.8588	764.7951	774.2082	817.2591	831.9193	850.0784	890.6265	903.9439	979.0844	1024.7466	1034.5664	1042.7988	1065.7734	1089.3708	1108.1842	1142.799	1148.3703	1177.9699	1253.9749	1278.4306	1311.2076	1346.0672	1436.2998	1827.1047	1884.62	2880.8564	3092.5431	3172.5576	3200.5708	3226.0906	3254.7727
O=CC1C2C3C2C(=O)C13	O=C[C@H]1[C@@H]2[C@H]3[C@@H]2C(=O)[C@@H]13	
InChI=1S/C7H6O2/c8-1-2-3-5-4(2)7(9)6(3)5/h1-6H	InChI=1S/C7H6O2/c8-1-2-3-5-4(2)7(9)6(3)5/h1-6H/t2-,3+,4-,5+,6+/m0/s1
