20
gdb 75723	2.14858	1.74097	1.28454	3.8396	80.02	-0.2327	0.0347	0.2674	1090.8431	0.170578	-403.167823	-403.158794	-403.15785	-403.201372	33.614	
C	 0.1108906197	 1.3539325441	 0.0480263421	-0.356799
N	-0.1281370914	-0.0676297399	 0.0324581484	-0.09667
C	-0.0463185309	-0.9659288163	-1.0111795022	 0.410945
O	 0.0309916459	-0.8015963859	-2.2026055706	-0.385547
C	-0.0097491331	-2.1576914647	-0.0400762114	-0.254499
C	 1.4467940545	-2.521713975	 0.3822194607	-0.224929
C	 1.400472251	-1.4450740743	 1.5066612076	-0.276463
C	-0.0642107559	-1.0790765337	 1.0997238203	 0.348669
C	-1.1312056875	-0.9831557192	 2.1650742806	-0.481595
H	 1.0651692734	 1.6005348743	 0.5328372653	 0.123448
H	 0.14905937	 1.6933353634	-0.9900091505	 0.161762
H	-0.6900619038	 1.8928981726	 0.5662628744	 0.128454
H	-0.742077235	-2.953053188	-0.1679515059	 0.091856
H	 1.5320712093	-3.5386616027	 0.7697525846	 0.110289
H	 2.1994742736	-2.387792577	-0.3974047906	 0.119965
H	 1.4762739338	-1.8656378127	 2.5125337052	 0.105631
H	 2.1166226053	-0.6238519935	 1.4228081379	 0.102906
H	-0.9736527264	-0.105346955	 2.8032784044	 0.122383
H	-2.1257418207	-0.901670588	 1.7154582066	 0.126533
H	-1.1135755518	-1.8660730084	 2.8113249031	 0.123662
105.4977	123.4369	150.8058	189.9455	206.6772	227.4738	284.7765	325.0142	424.1513	492.653	613.0815	664.9055	685.549	739.0236	800.9071	837.4522	878.7096	924.1964	948.0765	959.2355	990.2924	1037.6419	1105.3565	1119.7644	1151.0141	1162.4934	1172.8353	1214.1616	1220.3445	1235.486	1274.4775	1282.6414	1333.3164	1389.0789	1412.6697	1441.765	1473.5169	1483.7057	1487.1458	1493.5361	1495.0481	1514.6155	1866.7781	3008.6341	3028.085	3060.5447	3066.4225	3073.7652	3092.2728	3106.0433	3111.7971	3125.9447	3127.2304	3135.1999
CN1C(=O)C2CCC12C	CN1C(=O)[C@H]2CC[C@@]12C	
InChI=1S/C7H11NO/c1-7-4-3-5(7)6(9)8(7)2/h5H,3-4H2,1-2H3	InChI=1S/C7H11NO/c1-7-4-3-5(7)6(9)8(7)2/h5H,3-4H2,1-2H3/t5-,7-/m1/s1
