21
gdb 20016	4.45996	1.13963	1.01188	1.0737	80.6	-0.2311	0.0882	0.3193	1250.044	0.188306	-329.08349	-329.074779	-329.073835	-329.117124	32.429	
C	 0.0125285705	 1.4854547355	-0.3215544099	-0.370867
C	-0.0544141795	 0.0893509501	 0.3076000434	-0.192392
C	-1.4316800452	-0.5329600926	 0.2018327778	-0.008091
C	-1.8632808862	-1.2361910627	-1.0679857499	-0.313915
C	-1.6318809831	-2.028804536	 0.1925071136	 0.038679
N	-0.4741648321	-2.8800333823	 0.2386266427	-0.059458
C	-0.2948024247	-3.671617058	 1.4517209353	-0.22162
C	-0.7212445016	-4.3170450321	 0.1786803557	-0.220611
H	 1.0146606458	 1.9157385989	-0.2266587464	 0.107307
H	-0.2396686732	 1.4492268038	-1.3866591626	 0.11553
H	-0.6916301253	 2.1734734729	 0.1601037558	 0.108479
H	 0.6728718262	-0.5759088087	-0.1672572312	 0.113338
H	 0.234853627	 0.1515610651	 1.3652726001	 0.089943
H	-2.2133957304	 0.0255765524	 0.7129678844	 0.077036
H	-2.8781680241	-1.1127014379	-1.4295803489	 0.105442
H	-1.1139901925	-1.3496141187	-1.8446169649	 0.117213
H	-2.5199576479	-2.4073742693	 0.7083582774	 0.065269
H	 0.7268350587	-3.7696968393	 1.8077607057	 0.11546
H	-1.0438707737	-3.5761910012	 2.2362277301	 0.109053
H	-1.7550987478	-4.6522669329	 0.1130461796	 0.109201
H	-0.0166360311	-4.8950480669	-0.4126735878	 0.115002
63.061	91.1124	130.503	194.8254	237.6141	287.0197	312.5582	377.1414	471.0512	595.3351	725.4397	765.2421	796.5986	823.9261	842.5932	898.3839	910.9244	962.9025	984.1181	1010.418	1043.1398	1056.9913	1073.6761	1105.0078	1118.1012	1120.2543	1121.5456	1142.4213	1174.9411	1197.749	1212.6819	1231.9312	1289.8664	1324.7325	1342.8151	1396.8271	1408.9885	1422.8665	1483.5761	1491.4806	1493.4249	1497.4196	1509.7261	1519.1167	3019.596	3028.4093	3038.2699	3077.2857	3093.7829	3098.1364	3099.0013	3101.9206	3124.9767	3131.0988	3175.6089	3190.336	3218.4913
CCC1CC1N1CC1	CC[C@H]1C[C@H]1N1CC1	
InChI=1S/C7H13N/c1-2-6-5-7(6)8-3-4-8/h6-7H,2-5H2,1H3	InChI=1S/C7H13N/c1-2-6-5-7(6)8-3-4-8/h6-7H,2-5H2,1H3/t6-,7+/m0/s1
