16
gdb 28923	2.38886	1.84824	1.04559	2.0849	76.92	-0.1913	0.0135	0.2048	1078.7543	0.127341	-434.134844	-434.126884	-434.125939	-434.16672	31.558	
N	 0.0351433856	 1.375494913	 0.1944508331	-0.578344
C	 0.0328983701	-0.01321708	 0.0706397149	 0.310836
N	-1.1407153421	-0.6424686732	 0.1331532709	-0.352863
C	-1.1316469913	-1.9764688174	 0.0510451494	-0.016121
C	 0.020552741	-2.7310896044	-0.1073043791	-0.272021
C	 1.2437804664	-2.0581086262	-0.1583735861	 0.34201
O	 2.4474972505	-2.6888061644	-0.2935531197	-0.455762
C	 1.2708769809	-0.6705802024	-0.0587014107	 0.156777
N	 2.4648805438	 0.0742632157	-0.1256101428	-0.619321
H	 0.7079930531	 1.8335385816	-0.4083641732	 0.251148
H	-0.896336368	 1.7561429283	 0.0925802684	 0.249961
H	-2.1005527479	-2.4660865802	 0.1030378089	 0.099523
H	-0.0236426354	-3.813107477	-0.1832492299	 0.078863
H	 2.303829496	-3.6398010418	-0.3247447892	 0.300891
H	 3.2800605123	-0.5245039745	-0.0850925839	 0.255611
H	 2.513450015	 0.7715666229	 0.610162469	 0.248813
151.9946	229.0652	250.0944	293.0072	310.1858	324.9041	349.0242	482.8105	504.8704	537.2021	554.9835	567.0577	622.5551	717.279	730.8423	771.3823	784.6039	836.6512	874.9264	939.7423	997.666	1072.7001	1140.855	1172.2627	1273.3401	1290.3546	1334.9184	1352.4968	1383.3017	1494.9247	1530.6624	1613.8742	1631.6549	1642.6979	1673.7638	3155.5939	3177.1136	3508.3202	3529.7108	3614.2777	3640.7715	3831.6588
NC1=NC=CC(O)=C1N	Nc1nccc(O)c1N	
InChI=1S/C5H7N3O/c6-4-3(9)1-2-8-5(4)7/h1-2H,6H2,(H3,7,8,9)	InChI=1S/C5H7N3O/c6-4-3(9)1-2-8-5(4)7/h1-2H,6H2,(H3,7,8,9)
