16
gdb 85023	2.35855	1.6644	1.0575	3.1704	66.82	-0.2555	-0.0458	0.2096	1103.5152	0.122847	-475.051586	-475.042972	-475.042028	-475.085112	31.532	
C	-0.2495720295	 1.5967476171	 0.0894095457	-0.39416
C	 0.1379479304	 0.1310526662	 0.0179115182	-0.00174
O	 1.0096080205	-0.1156192707	-1.1163352159	-0.244831
C	 2.1344467937	-0.7817676773	-0.7427173729	 0.374779
N	 3.1835744263	-0.9394716959	-1.4220409793	-0.553572
C	 1.9921336993	-1.3102112359	 0.6662228014	-0.03692
O	 3.1829603612	-1.413498895	 1.3731529163	-0.418759
C	 0.9431528741	-0.354979806	 1.2357519262	 0.346918
O	 0.7658785986	-0.0248260474	 2.3729851747	-0.286576
H	 0.6402343062	 2.2276158068	 0.1630878367	 0.137673
H	-0.8185134842	 1.889276716	-0.7959606237	 0.135005
H	-0.8623191896	 1.759220102	 0.9797402841	 0.150324
H	-0.7537799991	-0.4990552281	-0.0996501082	 0.125655
H	 3.1319020206	-0.4827320591	-2.3324551533	 0.235821
H	 1.4705481893	-2.2873716007	 0.5930104716	 0.125307
H	 3.8826431122	-1.4252366121	 0.7025695784	 0.305076
65.0951	109.4285	196.1661	212.9583	248.8135	285.7129	355.4224	379.8826	432.958	526.9336	574.8073	598.4742	655.7426	667.7513	863.6842	874.6996	895.9617	924.4438	993.1313	1050.7877	1083.5824	1097.1575	1153.9196	1191.4121	1206.3399	1279.0137	1322.5986	1354.626	1387.4238	1405.2489	1414.5689	1482.0405	1494.3457	1785.4223	1884.6768	2897.432	3024.6443	3053.9162	3133.0731	3138.637	3496.7499	3723.8696
CC1OC(=N)C(O)C1=O	C[C@H]1O[C]([NH])[C@@H](O)C1=O	
InChI=1S/C5H7NO3/c1-2-3(7)4(8)5(6)9-2/h2,4,6,8H,1H3	InChI=1S/C5H7NO3/c1-2-3(7)4(8)5(6)9-2/h2,4,6,8H,1H3/t2-,4+/m1/s1
