17
gdb 65695	3.10719	0.97	0.92258	0.9098	76.31	-0.2769	0.0013	0.2783	1321.3431	0.134213	-418.007316	-417.998069	-417.997125	-418.041742	33.202	
C	 0.0022282688	 1.5494477279	-0.3922153102	-0.456522
C	-0.0144666491	 0.0785120857	-0.054049949	 0.40298
C	 1.2211901325	-0.7461999711	-0.1468902538	-0.325524
C	 0.6299604966	-0.4546027689	 1.2321141216	-0.247708
C	 1.2960656218	 0.4350173642	 2.1377902298	 0.293974
N	 1.8251204356	 1.1677430523	 2.8607100108	-0.337857
O	-1.1738262564	-0.6067341417	-0.4652491285	-0.22193
C	-2.3079600007	-0.3756339878	 0.2451168141	 0.10829
N	-3.396069289	-0.8697939362	-0.1515353935	-0.430405
H	 0.9399894833	 2.0119844579	-0.0771824974	 0.149503
H	-0.1097094687	 1.6771030893	-1.4728129007	 0.145425
H	-0.8167293672	 2.0802648926	 0.1029833645	 0.134299
H	 1.1155675904	-1.7641122312	-0.5013329531	 0.150886
H	 2.1465629635	-0.2488501685	-0.4106850641	 0.145595
H	 0.1130496778	-1.2815775683	 1.7065092721	 0.147678
H	-2.145359513	 0.2316765331	 1.1439293267	 0.104904
H	-4.1454888361	-0.6285369794	 0.4937785306	 0.236413
74.1677	98.5781	138.8851	145.9302	207.1396	239.7282	325.0374	341.5723	388.887	474.1512	529.831	549.4175	614.5864	745.4175	809.3992	824.7908	905.8793	925.5015	941.8789	996.1789	1048.939	1081.4818	1086.6645	1096.5404	1113.9791	1130.0666	1252.3153	1273.7687	1323.4388	1386.4041	1415.0309	1424.9745	1473.4697	1483.3844	1499.1404	1748.4681	2351.1727	3044.4438	3048.6801	3114.6092	3136.9918	3153.9178	3177.1409	3250.6028	3519.906
CC1(CC1C#N)OC=N	C[C@]1(C[C@H]1C#N)O[CH][NH]	
InChI=1S/C6H8N2O/c1-6(9-4-8)2-5(6)3-7/h4-5,8H,2H2,1H3	InChI=1S/C6H8N2O/c1-6(9-4-8)2-5(6)3-7/h4-5,8H,2H2,1H3/t5-,6+/m0/s1
