23
gdb 60053	2.29407	1.18357	0.95953	2.7722	82.31	-0.2509	0.0803	0.3313	1378.0373	0.203151	-425.425692	-425.415245	-425.414301	-425.460892	39.439	
C	 0.1864058185	 1.5826568569	-0.0892367195	-0.382411
C	 0.5326722774	 0.1023895842	 0.0140681034	 0.148408
O	 1.9470556022	-0.0029422823	-0.0355935187	-0.442867
C	-0.0223729173	-0.5241493945	 1.3098067403	-0.307416
C	 0.1622102367	-2.0407876918	 1.3975592691	 0.382539
C	-1.0839315315	-2.8595063782	 1.1382530556	-0.458819
O	 1.3424746803	-2.5879125004	 0.7424449743	-0.307584
C	 1.26056515	-2.6462661448	 2.1783861271	 0.034574
C	 2.2917692054	-1.8635846213	 2.9492503903	-0.438863
H	 0.5905705197	 2.1292614009	 0.769254949	 0.117698
H	 0.6260266383	 2.0050730962	-0.9966212579	 0.123896
H	-0.8968889176	 1.7337571816	-0.1217902341	 0.106185
H	 0.0848234087	-0.4246454558	-0.8463007032	 0.063766
H	 2.1400024669	-0.9489686042	 0.0365930737	 0.29181
H	 0.4560692748	-0.0198952551	 2.1555659604	 0.10881
H	-1.0946471084	-0.3094694246	 1.3792342321	 0.098039
H	-1.5136095393	-2.6068519378	 0.1624836984	 0.128063
H	-0.8562895348	-3.9282271515	 1.1449445521	 0.126995
H	-1.8439707733	-2.655563284	 1.9002672338	 0.123077
H	 1.0877911281	-3.6593938631	 2.5477439958	 0.086758
H	 2.4906692882	-0.9014280741	 2.4728589424	 0.146315
H	 1.9558573499	-1.6928557063	 3.9780963424	 0.122138
H	 3.2320541971	-2.42284144	 2.9939828231	 0.128891
55.323	89.686	187.6073	206.7418	208.7355	234.0926	248.7781	269.7487	331.2634	335.9186	412.7125	461.9998	482.9309	502.23	544.0487	637.0545	704.6393	789.2074	840.8258	883.9466	909.7446	940.9205	974.0097	998.9121	1040.3761	1068.7969	1081.6822	1107.1444	1141.5028	1159.0874	1174.2066	1225.2285	1269.4161	1311.7329	1332.3515	1351.4966	1381.6077	1400.885	1409.7532	1412.6952	1453.4611	1461.3161	1480.7252	1482.7325	1486.5357	1493.4643	1501.5063	1506.2898	1512.7428	2946.4099	3032.285	3036.9337	3037.6506	3043.9039	3084.5095	3085.0712	3096.2403	3099.554	3110.6361	3121.4249	3123.6283	3137.2714	3719.8007
CC(O)CC1(C)OC1C	C[C@@H](O)C[C@@]1(C)O[C@H]1C	
InChI=1S/C7H14O2/c1-5(8)4-7(3)6(2)9-7/h5-6,8H,4H2,1-3H3	InChI=1S/C7H14O2/c1-5(8)4-7(3)6(2)9-7/h5-6,8H,4H2,1-3H3/t5-,6+,7-/m1/s1
