20
gdb 18342	3.11281	2.0517	1.34866	0.2237	83.2	-0.2112	0.0302	0.2413	971.0964	0.178428	-311.865481	-311.857904	-311.85696	-311.897029	29.656	
C	-0.0645194942	 1.4692215802	-0.0464765647	-0.494383
C	-0.0116984811	-0.0206101306	 0.0677965736	 0.147619
C	-1.0081006521	-0.8919477176	 0.2121117201	 0.231212
C	-2.4574263079	-1.1651880131	-0.1280358391	-0.321772
C	-1.9267692748	-2.5034596922	-0.7689371807	-0.236611
C	-0.5985758354	-2.329191109	 0.0537615828	-0.020952
C	 0.8313728147	-2.2319946436	-0.5139321525	-0.239727
C	 1.2962338299	-0.8118676074	-0.0560413531	-0.285011
H	 0.4804907158	 1.9534591174	 0.7748320149	 0.124088
H	 0.4053278553	 1.8173019435	-0.9758449723	 0.118875
H	-1.0939642419	 1.8381287793	-0.023877203	 0.119923
H	-3.0854363654	-1.3655144417	 0.7473206405	 0.106972
H	-2.9766179377	-0.4518899675	-0.7736450219	 0.104203
H	-2.5174301081	-3.4051767528	-0.5879598898	 0.095031
H	-1.7556187853	-2.3898043284	-1.8427641043	 0.102983
H	-0.6449787688	-2.9149963233	 0.9810616593	 0.067388
H	 1.502633778	-3.0286203965	-0.1793830065	 0.089466
H	 0.802076073	-2.2642678205	-1.6093139801	 0.097077
H	 1.9809752997	-0.3480233736	-0.7764879154	 0.094709
H	 1.8415955162	-0.8548347329	 0.8982606422	 0.09891
135.1385	173.3449	178.9594	222.1553	288.905	379.7401	454.4924	561.5046	604.8747	662.4306	709.1725	798.087	817.2387	887.0196	907.0868	920.6142	935.9422	954.0129	1015.9604	1025.316	1072.8664	1097.5104	1114.6529	1127.4474	1175.5592	1195.7173	1203.6002	1226.1708	1240.0918	1258.9059	1263.3402	1303.1135	1330.1425	1341.307	1411.7143	1471.7979	1478.3807	1481.2897	1485.6605	1489.5639	1496.9839	1769.4991	2997.9918	3010.2289	3013.1981	3033.7595	3038.821	3049.616	3052.5466	3055.5655	3088.321	3091.9619	3103.9386	3117.5596
CC1=C2CCC2CC1	C[C]1[C]2CC[C@H]2CC1	
InChI=1S/C8H12/c1-6-2-3-7-4-5-8(6)7/h7H,2-5H2,1H3	InChI=1S/C8H12/c1-6-2-3-7-4-5-8(6)7/h7H,2-5H2,1H3/t7-/m1/s1
