17
gdb 110793	2.61847	1.45129	1.22336	3.6189	67.5	-0.232	0.0507	0.2827	1057.9523	0.13789	-455.163248	-455.155092	-455.154148	-455.196549	30.747	
O	 0.0419380615	 1.0874895624	-0.6734476535	-0.423178
C	 0.0156376344	-0.0422103576	 0.1949047684	-0.124067
C	-1.3701201109	-0.6255368932	 0.1497708453	-0.051848
C	-1.930796196	-1.2439669064	-1.1208354006	-0.016391
N	-1.0227760585	-1.7140161145	-2.126408141	-0.323932
C	-0.1401840148	-2.6617662095	-1.6106367255	 0.395946
O	 0.8671507241	-3.0804324998	-2.1330893377	-0.40237
N	-0.6478952474	-3.0299091012	-0.3647755896	-0.327593
C	-1.6638668601	-2.12310657	 0.0759880834	-0.050515
H	 0.926895388	 1.4644635205	-0.6422833527	 0.28867
H	 0.7634279328	-0.7869688638	-0.1091089714	 0.111111
H	 0.2527716408	 0.2482814547	 1.2301471197	 0.092154
H	-2.1156244237	-0.0719050865	 0.7142230167	 0.09751
H	-2.9328855019	-0.994584379	-1.4493298517	 0.108511
H	-0.6489113902	-1.0842849568	-2.8190317312	 0.261154
H	-0.0204381655	-3.497376818	 0.2690037078	 0.254992
H	-2.4614433325	-2.5421693614	 0.6781802236	 0.109844
45.3782	132.6513	148.494	267.3079	294.1757	341.0295	433.963	483.9999	502.1395	576.8087	615.3796	705.7981	747.7495	778.0812	795.6507	812.1462	914.5159	961.5597	1008.9538	1044.9711	1056.3858	1066.109	1088.8406	1140.6167	1151.0209	1212.094	1247.481	1257.7483	1282.3159	1367.3168	1371.2568	1383.2415	1398.3476	1434.1965	1470.5676	1523.1508	1849.2747	2981.3266	3025.8455	3147.6911	3169.453	3179.1408	3641.6177	3651.5997	3819.3644
OCC1C2NC(=O)NC12	OC[C@H]1[C@H]2NC(=O)N[C@@H]12	
InChI=1S/C5H8N2O2/c8-1-2-3-4(2)7-5(9)6-3/h2-4,8H,1H2,(H2,6,7,9)	InChI=1S/C5H8N2O2/c8-1-2-3-4(2)7-5(9)6-3/h2-4,8H,1H2,(H2,6,7,9)/t2-,3+,4-
