15
gdb 42963	2.76509	1.90852	1.38468	2.2336	63.84	-0.2498	-0.0459	0.2038	906.3912	0.113688	-457.735187	-457.728536	-457.727592	-457.766413	25.733	
O	-0.0717732825	 0.0056858576	 0.1525623234	-0.311017
C	-0.0612028177	 1.2022431013	 0.024155862	 0.411864
C	-1.2772259655	 2.0788757904	-0.1958600215	-0.093888
O	-1.3034181642	 3.1377199887	 0.7780191154	-0.228517
C	-0.8144172673	 3.4470386273	-0.5215303529	 0.016781
C	 0.714489827	 3.4850689586	-0.5533305259	 0.096682
O	 1.2940598943	 4.1597022123	 0.5783222221	-0.282456
C	 1.6415233908	 2.9033858801	 1.2042436172	-0.081502
C	 1.1722611005	 2.1026322202	-0.0429912808	-0.209597
H	-2.2336436845	 1.6546033113	-0.4851988833	 0.121571
H	-1.4198764993	 4.1395399975	-1.1000659468	 0.113646
H	 1.1001590544	 3.8565644194	-1.5081300763	 0.088773
H	 2.714723286	 2.8391466893	 1.4104161725	 0.115096
H	 1.0724024014	 2.7280733883	 2.1217054044	 0.127161
H	 1.9746829266	 1.6022601778	-0.5837209395	 0.115404
107.2833	200.2297	238.1966	294.588	439.5657	519.4124	567.3171	649.1853	711.5558	803.7336	815.58	864.9174	876.2907	898.9323	938.9867	969.201	1007.4818	1026.6931	1053.0452	1068.5449	1103.8211	1157.586	1188.0996	1207.4953	1236.6906	1256.6436	1283.1506	1315.3402	1333.3869	1355.2416	1400.102	1515.1629	1844.4244	3041.7489	3060.2365	3095.698	3126.8495	3154.8343	3176.2227
O=C1C2OC2C2OCC12	O=C1[C@H]2O[C@H]2[C@H]2OC[C@@H]12	
InChI=1S/C6H6O3/c7-3-2-1-8-4(2)6-5(3)9-6/h2,4-6H,1H2	InChI=1S/C6H6O3/c7-3-2-1-8-4(2)6-5(3)9-6/h2,4-6H,1H2/t2-,4-,5+,6-/m0/s1
