18
gdb 67653	3.02547	1.9172	1.68959	1.6135	73.74	-0.2216	0.067	0.2886	885.0243	0.149598	-401.892121	-401.885547	-401.884603	-401.922679	27.475	
C	-0.0005140455	 1.5226162907	 0.0110551641	-0.507282
C	-0.0557423001	 0.0260272879	 0.0423250419	 0.328699
C	 0.1083646336	-0.9842729728	 1.1544248653	-0.1371
C	-0.810040057	-1.9728372481	 0.392067885	-0.112677
C	 0.0134358332	-2.5102335078	-0.8315223766	 0.070734
C	 1.401113584	-1.9211738573	-0.6242019227	-0.162911
N	 1.2004895524	-0.7282187201	 0.2244111484	-0.160438
O	-0.6981499386	-1.632780266	-1.7562127562	-0.309639
C	-1.1460355013	-0.8679582921	-0.6235383899	 0.054731
H	 0.7675277591	 1.8907888438	 0.696138132	 0.133167
H	 0.243940746	 1.8805261806	-0.9958609302	 0.129153
H	-0.9638576105	 1.9584360977	 0.2975499975	 0.116498
H	 0.2471623623	-0.8702099065	 2.2231450942	 0.09322
H	-1.5530960264	-2.5946817457	 0.881911696	 0.081314
H	-0.0414227873	-3.5580251899	-1.1342980734	 0.080136
H	 2.0694481151	-2.6039027818	-0.0867664781	 0.102627
H	 1.8589040029	-1.6465027151	-1.5778056641	 0.119935
H	-2.129762672	-0.4110559476	-0.7523943833	 0.079833
188.5782	212.6961	272.9648	353.3623	423.0511	536.401	595.8786	676.4676	706.187	763.8139	790.4122	832.4759	845.5514	870.3577	902.2944	906.0611	931.3398	967.7079	969.2628	1012.7319	1021.9399	1062.1338	1087.5453	1109.3043	1145.5822	1172.1036	1199.973	1214.1993	1228.0983	1232.2144	1270.1819	1296.1557	1329.0685	1342.0798	1398.7206	1429.0105	1479.5553	1483.9717	1491.6286	3029.1748	3040.562	3088.3639	3090.1918	3092.2352	3109.3029	3119.58	3163.5881	3182.0442
CC12C3C4C(CN13)OC24	C[C@]12[C@H]3[C@@H]4[C@H](CN13)O[C@H]24	
InChI=1S/C7H9NO/c1-7-5-4-3(2-8(5)7)9-6(4)7/h3-6H,2H2,1H3	InChI=1S/C7H9NO/c1-7-5-4-3(2-8(5)7)9-6(4)7/h3-6H,2H2,1H3/t3-,4-,5+,6-,7+,8?/m0/s1
