20
gdb 57463	2.98246	1.31373	1.15195	3.2002	74.68	-0.2408	0.0323	0.2731	1150.0878	0.169893	-440.305195	-440.295833	-440.294889	-440.339087	35.109	
C	-0.0785624707	 1.5337445734	-0.0793179802	-0.421536
C	 0.0036004507	 0.0027195756	-0.0225910157	 0.316713
C	 0.668088484	-0.4617148932	 1.2833733493	-0.424742
O	-1.3011428019	-0.5654209999	-0.1430487405	-0.460293
C	 0.8001792992	-0.5441293158	-1.219675902	 0.112751
C	 0.7032609647	-2.0796908091	-1.4470661607	-0.200934
N	 0.1466436915	-2.2368720754	-2.8013865274	-0.266071
C	-0.0530510755	-1.062511845	-3.225402476	 0.12314
O	 0.2748967436	 0.0048642437	-2.4578632294	-0.238209
H	 0.9162880107	 1.989160395	-0.0404928137	 0.114714
H	-0.5714295281	 1.8491981069	-1.0000281894	 0.142831
H	-0.6495136655	 1.9123012902	 0.7766182849	 0.100961
H	 0.0955850501	-0.0982442913	 2.1438405561	 0.110063
H	 0.7041200034	-1.5529492116	 1.3408520377	 0.130188
H	 1.6872861248	-0.0725363345	 1.3760297981	 0.117911
H	-1.8503857535	-0.2022716228	 0.5588281039	 0.279581
H	 1.8358220195	-0.1990025003	-1.1336002932	 0.085664
H	 1.6775371454	-2.5736239	-1.384890619	 0.10988
H	 0.0332213257	-2.5526818814	-0.724488671	 0.13089
H	-0.4728189282	-0.8029554445	-4.1910038818	 0.1365
81.6589	91.5833	205.1995	223.4354	229.3738	254.8761	289.6302	325.0122	358.4257	387.6369	485.9804	497.7673	563.9129	732.5426	774.7887	861.1261	890.8056	923.9498	954.3553	965.6039	978.0405	984.5745	1003.0833	1024.3404	1057.3158	1128.919	1157.7791	1194.5432	1206.7925	1241.575	1309.7816	1328.8121	1343.9362	1356.6012	1395.9718	1400.3368	1417.5076	1481.4632	1482.8012	1490.3531	1499.5851	1512.2057	1717.1818	3030.2709	3035.021	3046.8422	3058.0157	3093.5708	3097.6758	3101.9586	3118.9209	3143.987	3215.6558	3821.2115
CC(C)(O)C1CN=CO1	CC(C)(O)[C@H]1CN=CO1	
InChI=1S/C6H11NO2/c1-6(2,8)5-3-7-4-9-5/h4-5,8H,3H2,1-2H3	InChI=1S/C6H11NO2/c1-6(2,8)5-3-7-4-9-5/h4-5,8H,3H2,1-2H3/t5-/m1/s1
