17
gdb 49768	2.24281	1.65941	1.09812	3.0437	74.34	-0.2454	-0.0328	0.2126	1099.3467	0.134919	-421.821132	-421.813043	-421.812098	-421.854744	29.921	
O	 0.0089486011	-0.1300487295	 0.0075389456	-0.251812
C	 0.0097887796	 1.0719030595	 0.0601143302	 0.158312
C	 1.2563372392	 1.9439380702	 0.0445198502	-0.19467
C	 1.2214035805	 2.9162047526	-1.1152083179	-0.093594
C	 1.0706348998	 4.180443425	-0.7194482892	-0.069479
C	 1.0057038144	 4.3169234508	 0.7794188251	-0.339145
C	 1.2967109352	 2.8918547007	 1.2641396728	 0.39074
C	 1.0855651371	 2.4345913465	 2.6432952242	-0.243885
O	 2.3981017043	 2.7199982712	 2.1519969638	-0.260777
H	-0.9415162892	 1.6502744876	 0.1215010436	 0.07467
H	 2.1287967734	 1.2834216145	 0.0433692677	 0.114119
H	 1.2921246235	 2.5809749397	-2.1431552068	 0.112826
H	 1.0090142452	 5.0345258657	-1.3842187122	 0.107561
H	 1.7504078609	 5.0120497443	 1.18395661	 0.131414
H	 0.0225902853	 4.6726165752	 1.1147167796	 0.119231
H	 0.7021376387	 3.1315919412	 3.3876857935	 0.116166
H	 0.8807219309	 1.3832749447	 2.8432506799	 0.128323
53.1683	61.0674	179.4435	247.3273	325.0785	345.4969	417.9274	470.403	500.4667	532.4533	729.1656	777.7403	809.6529	830.0071	920.3743	948.246	954.987	979.0061	982.7376	1015.5317	1063.3645	1081.4242	1129.4032	1132.3458	1165.351	1181.9911	1207.7602	1248.6152	1259.4602	1288.0737	1366.0643	1411.3363	1422.8966	1472.9143	1531.4086	1676.6302	1828.1902	2860.4262	3022.1727	3064.3358	3073.8522	3079.267	3166.2874	3192.3188	3216.4909
O=CC1C=CCC11CO1	O=C[C@H]1C=CC[C@]21CO2	
InChI=1S/C7H8O2/c8-4-6-2-1-3-7(6)5-9-7/h1-2,4,6H,3,5H2	InChI=1S/C7H8O2/c8-4-6-2-1-3-7(6)5-9-7/h1-2,4,6H,3,5H2/t6-,7-/m1/s1
