16
gdb 35177	3.76917	1.21445	1.08359	4.3211	75.06	-0.2515	0.007	0.2586	1109.5978	0.126042	-396.829475	-396.822234	-396.82129	-396.8614	28.042	
N	-0.1406501817	-1.1743851278	 0.0623220657	-0.332277
C	-0.0902138643	-0.0192112592	 0.064818282	 0.334494
C	-0.0165318633	 1.4199423314	 0.0206710903	-0.338487
N	 0.5865467531	 2.0939327112	 1.2175976131	-0.396612
C	 1.2817498927	 2.1403471741	-0.0398912467	 0.462218
C	 2.7453147862	 1.7770657215	-0.3339529238	-0.116365
C	 2.4977437203	 2.2391815898	-1.7941948788	-0.187892
C	 1.8487776511	 3.3038648697	-0.8703023202	-0.144196
N	 3.1268059978	 3.2263403787	-0.0394492814	-0.315949
H	-0.8758842676	 1.8939178919	-0.4466809185	 0.137453
H	 0.0745796215	 2.9536766837	 1.4066099254	 0.246492
H	 3.3287158284	 0.934282587	 0.0324408727	 0.108676
H	 3.3902405609	 2.5815299995	-2.3166523851	 0.11961
H	 1.8340852518	 1.6316861527	-2.4103021912	 0.111004
H	 1.3838389074	 4.253841068	-1.137046954	 0.092121
H	 2.9112237858	 3.4348039678	 0.9407702205	 0.219712
99.4323	126.8504	229.1682	296.354	352.5578	433.3867	520.7523	571.3701	645.7739	676.8049	777.3087	807.6552	857.6607	872.7262	892.2963	914.3021	922.0088	1000.3374	1027.4961	1040.3914	1059.4053	1072.3807	1119.1737	1167.0636	1181.299	1184.7774	1199.331	1228.9158	1240.3736	1291.5262	1299.452	1350.0861	1469.1512	1500.1473	2358.3498	3088.899	3112.602	3142.2671	3146.1705	3171.2895	3390.4361	3488.2674
N#CC1NC11C2CC1N2	N#C[C@H]1N[C@]21[C@H]1C[C@@H]2N1	
InChI=1S/C6H7N3/c7-2-5-6(9-5)3-1-4(6)8-3/h3-5,8-9H,1H2	InChI=1S/C6H7N3/c7-2-5-6(9-5)3-1-4(6)8-3/h3-5,8-9H,1H2/t3-,4+,5-,6-/m1/s1
