19
gdb 65716	3.48509	1.17997	1.1206	4.4961	76.01	-0.2373	0.0277	0.265	1153.6506	0.159179	-419.185111	-419.176422	-419.175478	-419.218352	33.096	
C	 0.0054241513	 1.6434245924	 0.2446756969	-0.447373
C	 0.0200967151	 0.1292556429	 0.0741864084	 0.356732
C	 1.0638804252	-0.4770312806	-0.9472657626	-0.247679
C	 1.6704766922	-1.2847284629	 0.2025680748	-0.043258
N	 2.1281497471	-0.2876292905	 1.202645977	-0.331861
C	 0.7092895653	-0.7060773983	 1.1756168992	-0.120159
N	-1.3191486805	-0.4117161712	-0.1535743322	-0.334797
C	-2.0303127014	-0.2195346305	-1.2946369414	 0.152262
O	-1.6221043076	 0.3478313291	-2.287043654	-0.330796
H	 1.0116607472	 1.9976241678	 0.4776239854	 0.13868
H	-0.3404684365	 2.1181991677	-0.6767702038	 0.146054
H	-0.6667906996	 1.9345739435	 1.059546935	 0.100063
H	 0.5754215534	-1.0788704494	-1.711358532	 0.126494
H	 1.7381101009	 0.2424802978	-1.4154944678	 0.111124
H	 2.111822548	-2.2728597148	 0.1670858063	 0.094
H	 2.5714037952	-0.8005090775	 1.9644648712	 0.230391
H	 0.238204352	-1.1357838646	 2.0540924119	 0.084574
H	-1.8011669511	-0.8278364541	 0.6284837183	 0.241143
H	-3.0447988562	-0.6637369969	-1.2264641506	 0.074407
72.004	149.5134	169.851	225.2935	251.7177	269.4265	356.1213	391.5682	435.9646	506.8247	517.7881	627.8576	767.3372	802.3382	829.0283	840.4537	864.8052	930.7175	952.0365	965.5738	1000.3852	1012.3966	1030.1282	1082.8188	1107.1164	1141.9244	1155.0559	1190.9287	1200.2476	1244.0597	1258.3932	1302.0698	1329.1949	1381.4533	1400.0094	1430.188	1470.4941	1486.3724	1498.5257	1517.6026	1799.3832	2919.7117	3038.8789	3088.1306	3113.5985	3141.2695	3158.5833	3161.5897	3193.9171	3473.6717	3617.1808
CC1(CC2NC12)NC=O	C[C@]1(C[C@H]2N[C@@H]12)NC=O	
InChI=1S/C6H10N2O/c1-6(7-3-9)2-4-5(6)8-4/h3-5,8H,2H2,1H3,(H,7,9)	InChI=1S/C6H10N2O/c1-6(7-3-9)2-4-5(6)8-4/h3-5,8H,2H2,1H3,(H,7,9)/t4-,5-,6-/m1/s1
