13
gdb 15101	8.94546	0.75592	0.71687	6.0138	72.52	-0.2828	-0.0425	0.2403	1463.5323	0.094798	-361.423508	-361.415769	-361.414824	-361.45664	26.563	
N	 0.0745326496	-3.6663971194	 0.3286517045	-0.336064
C	 0.0525853181	-2.5112214651	 0.2079985577	 0.213915
C	 0.0248025568	-1.1540292904	 0.0626808606	 0.041525
C	-0.0060515018	 0.0463723385	-0.0663567828	 0.100628
C	-0.0211099025	 1.4912408434	-0.2340575463	-0.402323
C	 1.3768254358	 2.0942006405	-0.2651163976	 0.101566
C	 1.61897262	 3.4589862773	 0.2141370296	-0.17813
O	 1.9935153545	 2.3202406487	 0.9943490196	-0.217027
H	-0.5432715549	 1.739809401	-1.1677732384	 0.154682
H	-0.5879351399	 1.9501905085	 0.5846354291	 0.157484
H	 2.0371371724	 1.6803172522	-1.0270943484	 0.114874
H	 2.4428026805	 4.0378749814	-0.1989055362	 0.127689
H	 0.7904569513	 4.0442537632	 0.6110168186	 0.12118
52.9043	85.5331	152.7508	205.2753	342.0758	362.4532	371.8952	492.6386	577.2759	581.1253	732.428	792.7592	861.159	932.0016	958.5333	1094.2919	1103.7936	1161.1253	1165.9881	1174.3601	1241.0668	1293.3214	1316.0969	1433.3047	1445.7099	1530.8107	2268.4627	2404.8108	3024.2812	3068.6899	3088.7127	3117.8627	3177.833
N#CC#CCC1CO1	N#CC#CC[C@H]1CO1	
InChI=1S/C6H5NO/c7-4-2-1-3-6-5-8-6/h6H,3,5H2	InChI=1S/C6H5NO/c7-4-2-1-3-6-5-8-6/h6H,3,5H2/t6-/m0/s1
