14
gdb 133540	2.51281	1.44442	1.30557	1.3877	50.21	-0.2649	0.0532	0.3181	980.0518	0.096093	-605.302002	-605.293743	-605.292799	-605.335449	29.846	
O	-0.0295033613	 1.4458711801	-0.1271414876	-0.46961
C	-0.0152399173	 0.0560345574	 0.0315691673	 0.207955
C	 0.1402285995	-0.5156018896	 1.4659430376	-0.130983
O	-1.1431965292	-1.1628578315	 1.3799577543	-0.266432
C	-1.4218819262	-0.5644184071	 0.0998175228	-0.111425
C	 0.9055373236	-0.5749909032	-1.0065685351	 0.226001
F	 2.1420413485	-0.0410934789	-0.9049916568	-0.09551
F	 1.0159135398	-1.8967840116	-0.8394815009	-0.06557
F	 0.4721938701	-0.3507087825	-2.2501421752	-0.06545
H	 0.8830254883	 1.7576772864	-0.1624319882	 0.293136
H	 0.9535053612	-1.2274696545	 1.6384536696	 0.119471
H	 0.1623847404	 0.2766313374	 2.2236536006	 0.111089
H	-2.2045659048	 0.2007289401	 0.1486480301	 0.122761
H	-1.6705364027	-1.3077475926	-0.6641182984	 0.124567
66.1978	88.1405	199.3083	230.8025	327.072	328.9792	345.4655	397.3246	458.4715	512.2003	574.2541	582.2622	736.1594	818.4939	904.2717	956.5353	997.1915	1039.3934	1053.103	1117.8689	1153.7051	1163.7178	1195.4174	1219.325	1235.1992	1306.0915	1323.4087	1379.4051	1413.2207	1495.0332	1522.7773	3025.7522	3039.4047	3088.3603	3092.2271	3793.3158
OC1(COC1)C(F)(F)F	OC1(COC1)C(F)(F)F	
InChI=1S/C4H5F3O2/c5-4(6,7)3(8)1-9-2-3/h8H,1-2H2	InChI=1S/C4H5F3O2/c5-4(6,7)3(8)1-9-2-3/h8H,1-2H2
