15
gdb 12944	2.7503	2.16585	1.68857	1.8874	62.9	-0.2465	0.0103	0.2568	829.9892	0.11765	-399.763365	-399.75579	-399.754846	-399.794958	28.404	
C	-0.0236993446	 1.5463723984	 0.0153014461	-0.423174
C	 0.0912484497	 0.0406575219	 0.0896747442	-0.067602
C	 1.3525312764	-0.7358335677	-0.1418355467	-0.021431
O	 2.4866479213	 0.0032620468	 0.3976182415	-0.27056
C	 1.9719536485	-0.1177384619	 1.6885464382	 0.359036
N	 2.4911880222	 0.1166250512	 2.8041853674	-0.558026
C	 0.6920244059	-0.7506578482	 1.240494484	 0.252584
O	-0.0642906384	-1.6447904203	 1.9488861325	-0.441019
H	 0.906849614	 2.0278539179	 0.3235271054	 0.140879
H	-0.243130039	 1.8628234476	-1.0096289085	 0.123214
H	-0.8296288349	 1.9067143946	 0.6615215579	 0.130957
H	-0.7732246239	-0.5082111679	-0.2846514385	 0.112166
H	 1.5649305379	-1.4928697563	-0.8837571563	 0.127274
H	 3.4374802133	 0.4884431384	 2.7070284901	 0.23443
H	 0.5312596815	-2.1887807446	 2.4785847927	 0.301271
119.6471	175.5804	213.7132	227.2687	288.4315	345.5644	403.7697	482.8255	587.3034	640.0457	705.4173	760.557	791.6424	866.2097	902.8663	920.6018	940.0598	959.0575	997.5768	1062.9969	1106.867	1120.9461	1180.7776	1227.8725	1278.5424	1358.1614	1360.2206	1414.3462	1481.901	1493.5591	1505.8672	1828.5751	3043.2962	3105.8255	3119.4193	3135.9911	3220.594	3480.3407	3788.247
CC1C2OC(=N)C12O	C[C@H]1[C@H]2O[C]([NH])[C@@]12O	
InChI=1S/C5H7NO2/c1-2-3-5(2,7)4(6)8-3/h2-3,6-7H,1H3	InChI=1S/C5H7NO2/c1-2-3-5(2,7)4(6)8-3/h2-3,6-7H,1H3/t2-,3+,5+/m0/s1
