16
gdb 51196	4.78088	1.08523	1.01968	2.9029	69.17	-0.2537	-0.0031	0.2505	1151.5763	0.124165	-437.829584	-437.822228	-437.821284	-437.862252	27.659	
O	 0.0074243519	-0.0261178835	-0.1016357008	-0.265495
C	 0.0530926425	 1.1569622598	-0.2457892784	 0.142948
O	 1.0059717014	 1.9176600858	 0.3413907028	-0.248024
C	 0.9909727686	 3.3073858379	 0.1762088609	 0.379793
C	 0.3628242882	 4.0365151212	-1.0457804315	-0.315434
C	 1.3840203113	 5.131590066	-0.7383989257	-0.036607
C	 2.2769342233	 4.205929768	-0.0059817008	-0.110347
N	 1.5629666326	 5.2670543109	 0.753363379	-0.141253
C	 0.6472202297	 4.2367152168	 1.3479609084	-0.196808
H	-0.6549951465	 1.7435296409	-0.8557139501	 0.096085
H	 0.6103142121	 3.543621224	-1.9895155527	 0.124922
H	-0.7049063284	 4.2762519615	-1.0095617914	 0.10985
H	 1.629770873	 6.0018095748	-1.3314106528	 0.112682
H	 3.3428390579	 4.0267034754	 0.0155797144	 0.115184
H	-0.3954439055	 4.5462298273	 1.4834901943	 0.104344
H	 1.072707978	 3.8984634932	 2.2950162845	 0.128159
44.857	129.7582	176.3023	327.1892	377.7719	425.0339	456.2027	498.7291	709.4265	738.1689	796.0251	809.3648	856.7886	932.9898	944.588	966.7402	978.2076	996.0398	1019.223	1040.4042	1089.2184	1107.5057	1141.2503	1154.7909	1172.6489	1196.0355	1209.8258	1243.7396	1264.9049	1316.6631	1339.7406	1425.6198	1489.7315	1512.1851	1866.2372	2997.2603	3038.6208	3048.0095	3110.8025	3121.0723	3209.3434	3223.2211
O=COC12CC3C1N3C2	O=CO[C@]12C[C@@H]3[C@H]1N3C2	
InChI=1S/C6H7NO2/c8-3-9-6-1-4-5(6)7(4)2-6/h3-5H,1-2H2	InChI=1S/C6H7NO2/c8-3-9-6-1-4-5(6)7(4)2-6/h3-5H,1-2H2/t4-,5-,6+,7?/m1/s1
