17
gdb 93317	2.10882	1.68901	1.12744	4.2904	73.53	-0.259	0.0004	0.2594	1108.1647	0.135241	-421.839834	-421.831201	-421.830257	-421.873208	31.997	
C	-0.5469592139	 1.4281375844	-0.0638199611	-0.421957
C	 0.0541116565	 0.0282249746	-0.0370345199	-0.007285
C	 1.2105793787	-0.187810969	-1.0233985195	-0.085893
O	 1.924883476	-1.3368990861	-0.5375311009	-0.2163
C	 1.683315876	-1.537270607	 0.7827066249	 0.437731
O	 2.1635505844	-2.4339768284	 1.405591875	-0.331546
C	 0.7124405771	-0.4384604532	 1.286817156	-0.327112
C	 1.469422411	 0.5965728709	 1.9798106523	 0.3479
C	 2.1067171974	 1.4502751767	 2.5363634937	-0.476408
H	 0.1962605879	 2.1815380061	 0.2104739969	 0.13908
H	-0.9253123196	 1.6637613161	-1.0640370683	 0.120703
H	-1.3837786195	 1.5103128043	 0.6359464888	 0.128227
H	-0.724694777	-0.7072753335	-0.2718202541	 0.098164
H	 0.8816940724	-0.4055399095	-2.0415058588	 0.127546
H	 1.8913391529	 0.6717771051	-1.0422904875	 0.125215
H	-0.0020900224	-0.8987986946	 1.9744054717	 0.134471
H	 2.6702522223	 2.1940609631	 3.0438329109	 0.207463
75.0906	133.6771	174.6431	194.8405	215.6174	277.0881	380.4723	409.1836	456.1477	546.5171	622.5177	635.5247	647.6237	688.6766	716.6559	843.4189	881.1769	926.1583	964.5193	982.6446	1058.1607	1087.2236	1127.9064	1164.9969	1180.2317	1212.6349	1245.7888	1301.6361	1350.208	1360.4599	1405.3718	1417.7405	1495.051	1499.935	1516.7328	1892.6072	2234.0347	3031.9875	3041.0511	3043.4784	3078.8999	3106.7015	3113.8012	3123.9741	3501.238
CC1COC(=O)C1C#C	C[C@H]1COC(=O)[C@H]1C#C	
InChI=1S/C7H8O2/c1-3-6-5(2)4-9-7(6)8/h1,5-6H,4H2,2H3	InChI=1S/C7H8O2/c1-3-6-5(2)4-9-7(6)8/h1,5-6H,4H2,2H3/t5-,6-/m0/s1
