18
gdb 85606	2.29471	1.58547	1.00089	1.214	73.64	-0.2481	-0.031	0.2171	1172.7978	0.147297	-439.103197	-439.094625	-439.093681	-439.136821	31.626	
C	 0.0373080425	 1.5784869245	 0.0331785228	-0.392858
C	 0.0459736297	 0.0493846768	 0.0071342719	 0.03235
C	 0.7406760309	-0.4756132278	-1.268761012	-0.298185
C	 0.4506314162	-1.9267437248	-1.5976041431	 0.358286
O	 0.1714651402	-2.2895152118	-2.7168302685	-0.289751
C	 0.5914994397	-2.9838409084	-0.4963663872	-0.169728
O	 0.0586961736	-2.6599317026	 0.7908334204	-0.22769
C	 0.6607537952	-1.659337751	 1.5069312779	 0.088768
N	 0.7051049538	-0.4336736157	 1.2225216641	-0.215052
H	 1.0599251528	 1.9678345891	 0.0007487001	 0.122691
H	-0.5183136537	 1.9819157309	-0.8187982601	 0.113225
H	-0.4285660586	 1.9358115786	 0.9550602458	 0.125627
H	-0.9932513353	-0.311536243	 0.0027842843	 0.097854
H	 0.4490651818	 0.1126886905	-2.1423579099	 0.127867
H	 1.8257578716	-0.3604860614	-1.1361329659	 0.129234
H	 0.0630014445	-3.8788156818	-0.8260160639	 0.147652
H	 1.6614612968	-3.2279708721	-0.4044149045	 0.12657
H	 1.0803888183	-2.0207623101	 2.4467977378	 0.12314
57.8103	117.3996	160.6375	235.5943	252.8865	310.1458	331.5417	410.3372	435.4533	477.7908	575.0858	625.2124	758.2264	828.4203	838.8604	844.4932	940.3279	945.6915	980.5842	987.0076	1086.3813	1124.6483	1129.8705	1154.1268	1190.1929	1264.5568	1290.4338	1295.6525	1345.152	1369.0195	1374.3165	1402.2875	1412.3807	1452.3275	1468.3245	1488.2423	1497.2303	1734.2191	1808.4788	2991.9615	2993.2276	3022.4716	3040.4069	3104.7569	3113.9713	3123.1303	3129.2847	3135.4487
CC1CC(=O)COC=N1	C[C@H]1CC(=O)COC=N1	
InChI=1S/C6H9NO2/c1-5-2-6(8)3-9-4-7-5/h4-5H,2-3H2,1H3	InChI=1S/C6H9NO2/c1-5-2-6(8)3-9-4-7-5/h4-5H,2-3H2,1H3/t5-/m0/s1
