21
gdb 61538	3.15548	0.86354	0.81735	3.121	79.7	-0.2481	-0.0221	0.226	1494.2835	0.17911	-424.220456	-424.210085	-424.209141	-424.256799	37.598	
C	 0.1987386191	 1.5853672492	 0.0842216181	-0.411055
C	 0.0360554554	 0.0564836218	 0.0368668788	-0.072996
C	 0.5893096787	-0.5807612258	-1.2602775869	-0.262598
C	-0.1298974325	-0.150147479	-2.5281744855	 0.415935
O	-1.5104730906	-0.4145482139	-2.530341384	-0.467469
C	 0.3473275292	 1.0359299321	-3.3343876831	-0.313823
C	 0.5270944469	-0.3767201758	-3.8552652952	-0.308106
C	 0.7604390808	-0.558914634	 1.2187264623	 0.155113
O	 0.2611899981	-1.2707576714	 2.0501956666	-0.245736
H	 1.2563666176	 1.8707296358	 0.0442631232	 0.121664
H	-0.300058908	 2.0626477	-0.7627329409	 0.128307
H	-0.2260448169	 1.9974475745	 1.0046520831	 0.129357
H	-1.0188354917	-0.2181960715	 0.1439730582	 0.09336
H	 1.6578277003	-0.3504622674	-1.3574492117	 0.096738
H	 0.5021359142	-1.6709868829	-1.1751659759	 0.120954
H	-1.9460243672	 0.2449482195	-1.9798320822	 0.285172
H	-0.4133098946	 1.6452685249	-3.80995401	 0.1156
H	 1.2248197447	 1.5797876786	-3.001825706	 0.111741
H	 1.5257090872	-0.7993320219	-3.8739681712	 0.114183
H	-0.1218430701	-0.6958208443	-4.6620755546	 0.126887
H	 1.8463507294	-0.2978162287	 1.2656230268	 0.066772
40.0691	49.6491	96.3782	148.1217	216.8306	262.4621	274.0274	303.857	339.4044	362.5922	372.5441	433.8097	484.8495	581.0043	737.8623	776.5278	839.7747	885.1327	909.0571	922.6572	925.7845	947.5328	980.8315	988.2264	1047.7816	1076.7659	1107.4628	1115.57	1157.6536	1188.8581	1217.2942	1270.3212	1302.3762	1306.1718	1342.4353	1360.2198	1393.2122	1408.2034	1428.9422	1452.0732	1474.8152	1494.9457	1498.9129	1500.1032	1836.9101	2832.8052	3022.2915	3034.5333	3054.1388	3069.8556	3101.7039	3120.0183	3131.981	3139.3495	3217.4585	3233.8932	3802.1928
CC(CC1(O)CC1)C=O	C[C@@H](CC1(O)CC1)C=O	
InChI=1S/C7H12O2/c1-6(5-8)4-7(9)2-3-7/h5-6,9H,2-4H2,1H3	InChI=1S/C7H12O2/c1-6(5-8)4-7(9)2-3-7/h5-6,9H,2-4H2,1H3/t6-/m0/s1
