21
gdb 114871	4.11079	1.01455	0.90882	1.9599	78.48	-0.2391	0.0729	0.312	1343.7585	0.183537	-424.2073	-424.198745	-424.197801	-424.241182	32.048	
C	 0.0957982431	 1.5583365001	 0.2009544308	-0.238615
O	-0.2880020585	 0.2084734047	 0.326282316	-0.241878
C	 0.6168830282	-0.5848053486	 1.0599006364	 0.154254
C	-0.0244852502	-1.9510830582	 1.3545102844	-0.265809
C	 1.1583714839	-2.869199323	 1.6972208909	-0.071232
C	 1.3910428881	-4.0912579528	 0.7884395181	-0.084391
O	 2.3725829932	-3.3794808341	 0.004702346	-0.293666
C	 2.3737826313	-2.2685772953	 0.9359057555	 0.130517
C	 1.9410675633	-0.9272008021	 0.32856866	-0.266681
H	 1.0193308926	 1.6786620846	-0.3842925995	 0.108597
H	-0.7143407393	 2.0783189285	-0.3163206188	 0.127048
H	 0.2479462715	 2.0303003065	 1.1848909223	 0.10211
H	 0.8557178942	-0.0775247389	 2.0118275944	 0.060504
H	-0.7774079716	-1.8918496512	 2.1437711116	 0.102792
H	-0.5303919737	-2.2838519782	 0.4410389406	 0.11566
H	 1.2730067383	-3.0391989553	 2.7687115769	 0.07508
H	 1.8326143339	-4.9597820429	 1.2949237267	 0.095686
H	 0.5395697734	-4.4255304558	 0.182951385	 0.101567
H	 3.325243857	-2.2179601698	 1.4777920134	 0.070009
H	 1.7337265679	-1.0705684739	-0.7366968879	 0.122839
H	 2.6996505232	-0.1471323344	 0.429990597	 0.095608
69.7738	84.4517	110.2279	194.4402	251.7899	339.2599	391.6632	427.6422	458.0708	546.9643	638.2345	752.3797	842.1692	857.566	867.9443	899.068	940.1258	987.1675	1005.6406	1026.2471	1041.658	1077.714	1093.3529	1108.8215	1156.3962	1163.73	1177.7185	1186.1616	1206.6669	1215.4647	1248.2722	1261.0599	1282.2042	1304.0514	1338.3247	1347.4836	1362.2476	1371.1897	1398.476	1477.5172	1481.204	1489.5939	1497.8748	1510.1063	1524.4146	2938.4345	2973.6237	3005.2685	3023.0156	3031.0813	3046.939	3052.1008	3057.3887	3091.1785	3107.5891	3111.6581	3112.5109
COC1CC2COC2C1	CO[C@H]1C[C@H]2CO[C@H]2C1	
InChI=1S/C7H12O2/c1-8-6-2-5-4-9-7(5)3-6/h5-7H,2-4H2,1H3	InChI=1S/C7H12O2/c1-8-6-2-5-4-9-7(5)3-6/h5-7H,2-4H2,1H3/t5-,6-,7-/m0/s1
