14
gdb 12443	3.64862	2.0692	1.4632	5.6552	59.4	-0.278	-0.0327	0.2453	823.265	0.108062	-419.698105	-419.691289	-419.690345	-419.729591	24.842	
O	 0.0089951691	 0.1563361197	 0.6711720939	-0.343046
C	-0.0138266643	 1.144542042	 0.0002250642	 0.471132
O	-1.2087057367	 1.6741210342	-0.3481229697	-0.260247
C	-1.4457693936	 2.8369599851	-1.1694198103	-0.115238
C	-0.7288841571	 4.0678540703	-0.6950410202	-0.068222
C	 0.601478961	 4.0859831328	-0.7137545981	-0.068205
C	 1.3379335505	 2.8747980948	-1.2084483006	-0.115256
O	 1.1559954173	 1.7066243687	-0.380710154	-0.260207
H	-1.1814647153	 2.600619203	-2.2081692211	 0.12697
H	-2.5287101079	 2.9586626921	-1.125532462	 0.135045
H	-1.3125369742	 4.8996952337	-0.3148489253	 0.117636
H	 1.1727211849	 4.9335470005	-0.3497882332	 0.117636
H	 1.0507476339	 2.6305815107	-2.2392692113	 0.126961
H	 2.4179644725	 3.0259782122	-1.1953448023	 0.135039
87.0307	99.9	282.7019	285.0621	401.2725	451.8837	541.3827	643.1778	714.6773	734.6139	759.1129	817.0526	946.0332	958.542	993.6334	998.8857	1043.1116	1105.6315	1128.6691	1181.9988	1221.5802	1271.1096	1276.7485	1394.0496	1401.7508	1428.4872	1498.0731	1517.8608	1717.2885	1863.6643	3022.4257	3025.1611	3120.9732	3122.5313	3177.9966	3199.5404
O=C1OCC=CCO1	O=C1OCC=CCO1	
InChI=1S/C5H6O3/c6-5-7-3-1-2-4-8-5/h1-2H,3-4H2	InChI=1S/C5H6O3/c6-5-7-3-1-2-4-8-5/h1-2H,3-4H2
