19
gdb 109055	3.48562	1.15588	0.9534	1.4936	77.77	-0.2143	0.0227	0.2369	1248.8389	0.159675	-423.001988	-422.993557	-422.992613	-423.035236	32.062	
O	 0.0151077493	 1.4334291147	-0.1226500638	-0.412178
C	 0.0006303034	 0.0293902035	 0.0449794575	-0.155691
C	-1.4121786175	-0.477636947	 0.0868828209	 0.223394
C	-2.486246838	 0.3140565517	 0.0642786598	-0.12633
C	-3.8562529696	-0.244707982	 0.1041761399	-0.119246
C	-4.2592457154	-1.2801971161	-0.9563972767	-0.33636
C	-3.9313153453	-1.7129405159	 0.4414970655	 0.134511
O	-2.7676822465	-2.3982709565	 0.7944230655	-0.255431
C	-1.5688080405	-1.9779757682	 0.1576328563	-0.174329
H	 0.9291080219	 1.7285257796	-0.0933645251	 0.290503
H	 0.5457760431	-0.4749719874	-0.7748029896	 0.091322
H	 0.513084075	-0.2679696015	 0.978038765	 0.096759
H	-2.3606564524	 1.3900850063	 0.0270137577	 0.108716
H	-4.6366571585	 0.4118410447	 0.4738909136	 0.086939
H	-5.2988216167	-1.3197703618	-1.2642388367	 0.112921
H	-3.5473341573	-1.4598841394	-1.7538443848	 0.121498
H	-4.7432038439	-2.061040074	 1.0702656372	 0.102924
H	-1.4972124644	-2.4237379081	-0.8501925919	 0.100394
H	-0.7589797968	-2.4223160927	 0.7491768797	 0.109684
69.1597	133.0116	190.2651	204.4	225.8187	334.5509	389.3739	419.1975	456.5942	561.2243	584.1262	712.7118	757.169	803.584	851.9791	867.1278	907.7053	958.5422	1009.6898	1014.9453	1032.2397	1041.2495	1064.3581	1098.5356	1104.6951	1117.7997	1183.6463	1189.891	1224.4825	1238.2663	1252.4725	1278.7751	1343.5188	1380.045	1384.3547	1428.9559	1463.4178	1477.0786	1502.3323	1511.231	1736.4496	2924.9229	2940.4602	2942.2719	3044.0412	3133.3088	3158.1909	3174.8783	3199.6122	3223.4937	3842.8778
OCC1=CC2CC2OC1	OCC1=C[C@H]2C[C@H]2OC1	
InChI=1S/C7H10O2/c8-3-5-1-6-2-7(6)9-4-5/h1,6-8H,2-4H2	InChI=1S/C7H10O2/c8-3-5-1-6-2-7(6)9-4-5/h1,6-8H,2-4H2/t6-,7+/m0/s1
