20
gdb 60073	2.35115	1.12798	0.96927	3.6695	79.72	-0.2967	0.0034	0.3001	1341.5102	0.168633	-403.147567	-403.137641	-403.136697	-403.182774	36.079	
C	-0.196508346	 1.6296061876	 0.2666228865	-0.385888
C	 0.0062186761	 0.1221153974	 0.060191896	 0.024699
C	 0.7866983049	-0.4945983932	 1.228555828	-0.394197
C	-1.3276486757	-0.6262433832	-0.1299112739	-0.277496
C	-2.1175989274	-0.2253658902	-1.3626606533	 0.249666
C	-3.5939867191	-0.2946576947	-1.3918202882	-0.211643
O	-2.9245692981	 0.9563805899	-1.2727870492	-0.243806
C	-1.4208130762	-0.3717451777	-2.6333479521	 0.271209
N	-0.8475177698	-0.5105179865	-3.6273460472	-0.33737
H	 0.7684076179	 2.1327216788	 0.3842894101	 0.113854
H	-0.718553693	 2.0932772704	-0.5738483865	 0.136587
H	-0.7866563542	 1.8236230334	 1.1701000181	 0.112286
H	 0.5985255382	-0.0222523104	-0.8536571292	 0.100602
H	 0.2335735642	-0.3896974567	 2.1697527996	 0.113701
H	 0.9757883389	-1.5614317302	 1.0687129923	 0.113166
H	 1.7534832429	 0.001835666	 1.3565746115	 0.117815
H	-1.1350406609	-1.7047676674	-0.1911822649	 0.116351
H	-1.9765170862	-0.4624053015	 0.7387145616	 0.111368
H	-4.1072033858	-0.4656459467	-2.3355697922	 0.139475
H	-4.1092461407	-0.6419012548	-0.497791147	 0.129623
46.3637	86.8448	132.4684	194.0923	228.5811	241.3324	257.3515	311.2014	324.8795	371.8391	425.1294	450.3652	578.3579	592.9758	717.6193	806.9598	835.2391	900.0198	922.1535	937.7764	953.5561	972.6492	979.8644	1113.0768	1131.2238	1145.1659	1170.0439	1197.1052	1232.9497	1277.236	1315.7351	1362.1542	1370.2999	1399.3449	1404.517	1426.7257	1462.5243	1486.6394	1494.636	1505.8324	1508.708	1519.6001	2356.684	3015.302	3024.4187	3027.9081	3034.6774	3073.943	3090.9098	3092.1675	3098.1409	3104.7502	3122.7287	3188.4079
CC(C)CC1(CO1)C#N	CC(C)C[C@]1(CO1)C#N	
InChI=1S/C7H11NO/c1-6(2)3-7(4-8)5-9-7/h6H,3,5H2,1-2H3	InChI=1S/C7H11NO/c1-6(2)3-7(4-8)5-9-7/h6H,3,5H2,1-2H3/t7-/m1/s1
