16
gdb 52834	2.72599	1.00421	0.95062	2.2458	75.46	-0.2581	0.0028	0.2609	1342.1978	0.121853	-437.848554	-437.83892	-437.837976	-437.884842	33.243	
C	-0.0049216697	 1.5138949159	-0.0895499949	-0.500452
C	 0.0187445064	 0.0605478145	-0.0350472218	 0.024084
C	 0.0359696682	-1.1426669331	 0.0094529491	 0.076895
C	 0.0538795113	-2.5968993018	 0.0308604273	 0.090025
O	 1.0122132402	-3.1598009244	-0.8403484028	-0.445366
C	 0.110187033	-3.282830249	 1.4204238586	-0.101696
O	-1.223820313	-3.8431960583	 1.2122383827	-0.252509
C	-1.3247481997	-3.2779636426	-0.0365511544	 0.395655
N	-2.2107411455	-3.3451376972	-0.9167445547	-0.550401
H	 0.8674616157	 1.9019020145	-0.6262878634	 0.155728
H	-0.9025390809	 1.8756712018	-0.6022521559	 0.158169
H	 0.0038439494	 1.9467865347	 0.9165464764	 0.15473
H	 0.78125438	-2.8830542621	-1.7351547183	 0.29597
H	 0.8660567843	-4.067205364	 1.484761264	 0.135685
H	 0.131716505	-2.620915614	 2.2864710236	 0.130844
H	-2.9884504147	-3.942629445	-0.6312392154	 0.232639
19.0129	83.1733	84.8128	142.4455	180.5796	254.4651	303.6467	335.2056	350.0003	423.5969	516.29	548.375	598.6993	708.8149	768.2567	858.687	902.1139	954.1789	996.2552	1010.8084	1018.8439	1051.9647	1052.9082	1148.0216	1168.2218	1228.7844	1254.9342	1343.3739	1385.1957	1413.1305	1474.7223	1476.361	1500.6288	1828.6271	2368.574	3030.8284	3081.0758	3094.0208	3095.058	3154.4333	3477.8796	3800.2342
CC#CC1(O)COC1=N	CC#C[C@@]1(O)CO[C]1[NH]	
InChI=1S/C6H7NO2/c1-2-3-6(8)4-9-5(6)7/h7-8H,4H2,1H3	InChI=1S/C6H7NO2/c1-2-3-6(8)4-9-5(6)7/h7-8H,4H2,1H3/t6-/m1/s1
