22
gdb 13499	3.04914	1.56636	1.19266	1.3809	78.22	-0.2543	0.0718	0.3261	1106.3264	0.199288	-350.200411	-350.191102	-350.190158	-350.233973	35.041	
C	 0.0054027317	 1.5115441376	-0.0937124747	-0.395081
C	 0.0565435959	-0.0152196393	 0.0552482228	 0.031162
C	 0.7746203836	-0.4260857476	 1.3480489746	-0.394972
C	-1.3488845369	-0.6105505306	-0.0093629904	 0.058492
C	-2.1858623154	-0.4842527004	-1.3161369604	-0.240511
C	-2.7038119341	-1.9281050295	-1.0782151908	-0.250174
C	-1.5235575644	-2.1557850337	-0.0939937826	 0.096974
O	-0.3810078194	-2.7276143974	-0.7117998997	-0.43497
H	 1.013161309	 1.940330669	-0.0955428918	 0.10725
H	-0.4858382918	 1.8103737742	-1.0256267971	 0.11168
H	-0.5475215753	 1.9698938669	 0.7356285825	 0.105888
H	 0.6236601596	-0.4263090356	-0.7885169538	 0.084542
H	 0.8630264607	-1.5137329425	 1.4168010836	 0.124978
H	 1.7840383541	-0.0027106676	 1.3873642004	 0.104373
H	 0.2324504062	-0.0680914211	 2.2322521815	 0.101682
H	-1.9395727255	-0.2438946267	 0.8403553168	 0.062582
H	-2.9281428118	 0.3152101336	-1.369024289	 0.093554
H	-1.5417139312	-0.4250955772	-2.1978634384	 0.106268
H	-3.6702617429	-1.9456018093	-0.5657573587	 0.098015
H	-2.7486488891	-2.601522471	-1.9389612819	 0.089194
H	-1.757252476	-2.6780880326	 0.8437309396	 0.056464
H	-0.5965540669	-3.6351612192	-0.9485382025	 0.282612
80.3861	114.9234	158.6325	224.1402	231.016	256.7748	280.8193	312.6549	376.4512	406.3794	453.0854	530.8059	689.0818	747.1454	844.6603	886.2255	895.7126	928.292	941.7889	951.7553	974.5005	999.8905	1021.0656	1078.0212	1112.5179	1147.9008	1181.0096	1191.8822	1208.7026	1236.2074	1258.8211	1263.021	1287.2614	1306.1384	1333.3296	1352.8391	1393.4498	1396.7705	1412.9835	1418.7456	1470.7139	1488.6406	1491.2054	1493.4868	1504.2083	1512.8581	2996.3703	3019.7309	3020.4004	3024.3267	3040.6315	3050.7704	3060.7711	3082.9262	3090.894	3097.0377	3098.7539	3114.54	3117.9082	3815.2454
CC(C)C1CCC1O	CC(C)[C@H]1CC[C@H]1O	
InChI=1S/C7H14O/c1-5(2)6-3-4-7(6)8/h5-8H,3-4H2,1-2H3	InChI=1S/C7H14O/c1-5(2)6-3-4-7(6)8/h5-8H,3-4H2,1-2H3/t6-,7-/m1/s1
