18
gdb 121425	3.22536	0.86069	0.70867	1.0539	72.84	-0.2456	-0.0295	0.2161	1551.6705	0.147084	-472.44574	-472.435625	-472.434681	-472.481471	36.427	
N	-0.0340149928	 1.1731332054	 0.6506745856	-0.526817
C	 0.0170261145	-0.063678362	 0.1212392069	 0.392757
O	 1.0082502605	-0.5942075504	-0.354263706	-0.380998
C	-1.3186716763	-0.8010041393	 0.1575236962	 0.297626
N	-1.1920607617	-2.0834009884	-0.2671742446	-0.54618
N	-2.3643100809	-0.1933147678	 0.5797077529	-0.339532
C	-3.6219865208	-0.9238974848	 0.615505253	-0.169413
C	-4.7087061563	-0.0002766362	 1.1623911407	-0.054315
O	-4.8202470619	 1.1704396895	 0.3794913141	-0.42134
H	 0.7916824872	 1.7460639285	 0.664135729	 0.267573
H	-0.9152601968	 1.5007081508	 1.0129190951	 0.271356
H	-0.2961813192	-2.3175855588	-0.6703995459	 0.279011
H	-1.9981483059	-2.6345066638	-0.5015099813	 0.264779
H	-3.9122266461	-1.2490624372	-0.3980003499	 0.099709
H	-3.5437990966	-1.8286391457	 1.2410286814	 0.096981
H	-5.6826841438	-0.5001723327	 1.1390172016	 0.101081
H	-4.4766121283	 0.2388596782	 2.2131617378	 0.085204
H	-3.9128646049	 1.4788561147	 0.2591372933	 0.282519
45.1971	90.0363	97.5868	144.2175	214.5226	283.5162	303.1519	305.9171	314.766	406.9818	459.6337	478.8086	535.4841	543.0368	616.9967	637.0253	670.8553	815.9478	826.1427	879.3714	909.1123	1038.7873	1087.754	1100.8744	1106.1026	1148.7299	1227.9657	1254.1364	1309.0394	1378.0669	1385.3617	1419.9562	1439.4273	1468.4724	1506.9804	1585.2387	1593.3807	1732.8326	1799.6734	2952.2152	2968.5709	2995.1315	3074.9864	3579.3897	3592.8684	3729.5503	3741.2198	3767.4148
NC(=O)C(N)=NCCO	NC(=O)C(=NCCO)N	
InChI=1S/C4H9N3O2/c5-3(4(6)9)7-1-2-8/h8H,1-2H2,(H2,5,7)(H2,6,9)	InChI=1S/C4H9N3O2/c5-3(4(6)9)7-1-2-8/h8H,1-2H2,(H2,5,7)(H2,6,9)
