20
gdb 5948	4.04319	1.08637	1.07103	3.2509	71.61	-0.247	-0.0214	0.2256	1185.1394	0.173276	-386.149663	-386.139542	-386.138597	-386.184961	35.834	
C	-0.0329533009	 1.5541754278	 0.0813403007	-0.416663
C	 0.0096836058	 0.0141310813	 0.0953823443	 0.237052
C	 0.6635781	-0.4900104885	 1.3948185398	-0.409052
C	-1.4282944823	-0.5291513863	 0.0029686637	-0.079928
O	-2.1719377298	-0.0594929288	 1.1166453257	-0.425068
C	 0.7717509303	-0.542643706	-1.1392537001	-0.299301
C	 2.2277026369	-0.1411244951	-1.2083681101	 0.154003
O	 3.1507618683	-0.9149510087	-1.1686665282	-0.24375
H	 0.9572794677	 1.989943787	 0.2422148252	 0.112842
H	-0.4173145018	 1.9313920658	-0.8733861209	 0.105008
H	-0.6927176772	 1.9133366091	 0.8740177726	 0.140152
H	 0.0741366021	-0.1783872382	 2.2596468046	 0.134809
H	 0.728834997	-1.5835189875	 1.4034370156	 0.113479
H	 1.6790438291	-0.0976359963	 1.5082564408	 0.117534
H	-1.8830228873	-0.1940097769	-0.9438829327	 0.081873
H	-1.3983045851	-1.6303191345	-0.0148065032	 0.086566
H	-3.059995149	-0.4229744313	 1.0633465974	 0.290526
H	 0.7325733093	-1.6367677921	-1.1516054571	 0.114302
H	 0.2858530628	-0.1693844353	-2.0529439763	 0.108879
H	 2.4123293443	 0.9517577144	-1.3133931718	 0.076737
40.8289	69.5178	130.079	191.3147	214.767	234.8976	255.634	290.9987	317.5741	357.2595	377.2087	408.5676	483.1005	570.0023	732.3127	836.6014	908.5972	931.0727	958.1947	962.5411	989.714	1048.05	1081.4307	1095.3225	1186.7494	1191.9074	1218.1998	1241.5052	1279.7032	1327.7301	1329.8428	1397.9167	1412.1012	1433.2792	1457.176	1465.3419	1481.2573	1495.6447	1500.2075	1515.2268	1521.2408	1827.8937	2875.1382	2958.6285	2992.6804	3005.9644	3033.3497	3038.5815	3084.2508	3098.642	3101.7445	3128.5019	3132.5474	3840.6334
CC(C)(CO)CC=O	CC(C)(CO)CC=O	
InChI=1S/C6H12O2/c1-6(2,5-8)3-4-7/h4,8H,3,5H2,1-2H3	InChI=1S/C6H12O2/c1-6(2,5-8)3-4-7/h4,8H,3,5H2,1-2H3
