17
gdb 50377	2.77969	1.5627	1.3867	2.6393	67.16	-0.2552	-0.0282	0.227	979.0699	0.136509	-458.95641	-458.948825	-458.947881	-458.98909	28.172	
O	-0.9337382372	 1.5563166913	-0.1151860356	-0.24746
C	 0.0930059607	 1.2415741681	 0.4328853848	 0.162979
C	 1.4237217477	 1.9061049669	 0.1979158085	-0.13819
C	 1.4965156964	 3.0249531148	-0.8725321789	-0.28746
C	 2.0111139507	 4.0297250152	 0.1992656773	 0.093298
O	 1.1501903623	 5.0862668784	 0.5675289315	-0.247657
C	 0.1540788655	 4.5126668374	 1.383594962	-0.002077
O	 0.7683447764	 3.4528103901	 2.1082052207	-0.251524
C	 1.8215747175	 2.9564011555	 1.3106846519	 0.064673
H	 0.1078201057	 0.4278758779	 1.191313652	 0.085351
H	 2.1945560737	 1.1339452038	 0.1060560047	 0.091706
H	 2.1858618397	 2.8392690053	-1.6977778252	 0.11028
H	 0.5164571616	 3.2849932171	-1.2776088517	 0.135962
H	 3.0075668914	 4.4410286346	 0.0357992508	 0.093999
H	-0.203295502	 5.2643483929	 2.0921403003	 0.124511
H	-0.6779736234	 4.1222571714	 0.7788825269	 0.117169
H	 2.6518222936	 2.6798589592	 1.9619251601	 0.094442
76.5699	94.4548	188.9132	224.5795	265.329	417.598	470.8885	618.3579	650.4977	729.7164	754.7132	797.4932	855.2898	903.923	922.7903	935.2441	970.6841	1006.9623	1027.8415	1085.3255	1102.9135	1119.7385	1134.701	1183.1918	1191.1123	1221.8978	1239.3784	1252.9599	1274.7587	1328.0184	1347.9536	1357.1387	1423.1838	1432.186	1475.9848	1544.8433	1819.1557	2887.3593	2997.6567	3059.1257	3079.6823	3098.4275	3100.7423	3112.5895	3138.8067
O=CC1CC2OCOC12	O=C[C@H]1C[C@H]2OCO[C@@H]12	
InChI=1S/C6H8O3/c7-2-4-1-5-6(4)9-3-8-5/h2,4-6H,1,3H2	InChI=1S/C6H8O3/c7-2-4-1-5-6(4)9-3-8-5/h2,4-6H,1,3H2/t4-,5-,6+/m1/s1
