20
gdb 94121	4.42053	0.80184	0.74882	3.6105	76.66	-0.2215	-0.0224	0.1991	1523.6769	0.1701	-440.28406	-440.27474	-440.273796	-440.319629	33.586	
O	 0.0039375368	 1.415774813	-0.0212602905	-0.438797
C	 0.0298466905	-0.0089371449	-0.0297298451	 0.110821
C	 0.6921795612	-0.5858792481	 1.2399169456	-0.232511
C	-0.4818538862	-0.6813903353	 2.2129040839	-0.155249
N	-1.5441913911	-1.1928006792	 1.3477285692	-0.080966
C	-2.8640911637	-1.2238477577	 1.9324565054	-0.235628
C	-2.9837299069	-2.3233927684	 2.9764216962	 0.153902
O	-3.6941915954	-2.2733413162	 3.9454492908	-0.238089
C	-1.4378453864	-0.4806465568	 0.0668617462	-0.159953
H	 0.9135746548	 1.7276824738	-0.0688938264	 0.28139
H	 0.5147515047	-0.3729963778	-0.9447642496	 0.069524
H	 1.0889499531	-1.5857469123	 1.0369544161	 0.107204
H	 1.5098067268	 0.046246822	 1.5968776061	 0.092564
H	-0.3020062726	-1.3607036097	 3.0528897632	 0.10505
H	-0.7200077526	 0.3154498015	 2.62776904	 0.093724
H	-3.1922826842	-0.2675562104	 2.3786333311	 0.107312
H	-3.5904836994	-1.4768599134	 1.1456590975	 0.12818
H	-2.355577791	-3.2150137521	 2.7474630513	 0.081325
H	-2.0733835302	 0.4172177191	 0.0244419036	 0.107834
H	-1.7279496784	-1.1405813572	-0.7581810545	 0.102363
30.9269	67.2982	98.2068	143.3924	233.2162	314.2641	326.3571	343.8486	427.731	447.8433	466.1621	635.2787	694.1132	761.8913	828.8389	863.8258	909.4287	943.9979	987.4842	1012.6022	1046.3666	1053.552	1083.9204	1123.7059	1161.9637	1184.2123	1203.4608	1223.633	1247.0671	1266.2966	1274.5058	1312.528	1334.6452	1342.3633	1374.87	1393.9454	1404.5836	1430.1068	1460.258	1473.4438	1504.303	1521.2003	1840.4685	2873.3491	2936.54	2947.1227	2987.3301	3009.4693	3022.2465	3051.1506	3055.3537	3066.2773	3105.179	3813.0317
OC1CCN(CC=O)C1	O[C@H]1CCN(CC=O)C1	
InChI=1S/C6H11NO2/c8-4-3-7-2-1-6(9)5-7/h4,6,9H,1-3,5H2	InChI=1S/C6H11NO2/c8-4-3-7-2-1-6(9)5-7/h4,6,9H,1-3,5H2/t6-/m0/s1
