16
gdb 132551	3.0783	1.37318	0.96085	4.2032	73.67	-0.2591	-0.0419	0.2172	1165.7698	0.124136	-442.111836	-442.103746	-442.102802	-442.144601	29.761	
C	 0.0039490789	 1.5227971255	-0.0264024931	-0.505831
C	 0.0088227854	 0.0188879211	-0.0031872257	 0.21772
C	-0.0103003166	-0.7318194297	-1.1732867558	-0.048149
N	-0.0070453891	-2.0682262846	-1.200572845	-0.314216
C	 0.0160786201	-2.6337229405	-0.0110445342	 0.338231
F	 0.0198034315	-3.9550216512	-0.0041209349	-0.059412
N	 0.0360940529	-2.0621690087	 1.179291609	-0.353694
C	 0.0326078318	-0.7236299667	 1.1913284863	 0.257826
C	 0.054891525	-0.0576936326	 2.5379955906	-0.487468
H	 0.8912778241	 1.9393741287	 0.4638644799	 0.137778
H	-0.0145517225	 1.8955961599	-1.0539418585	 0.131871
H	-0.8688232202	 1.9340639019	 0.4936115471	 0.137795
H	-0.029172392	-0.2352947121	-2.1417476289	 0.117724
H	 0.933134807	 0.5898290779	 2.642163294	 0.139218
H	-0.8253280327	 0.580949767	 2.6753883759	 0.13931
H	 0.0733960863	-0.8134123058	 3.3232637235	 0.151297
119.8794	125.2136	161.4782	220.2298	283.3202	339.6739	342.9035	466.9522	496.4986	544.5779	573.3125	652.0754	763.6176	768.3533	820.092	972.0834	972.8044	1025.5654	1041.1849	1048.0625	1078.8696	1186.5805	1276.4958	1302.3643	1352.2296	1396.4347	1423.1175	1432.7792	1476.1199	1477.4007	1479.9109	1490.851	1496.9738	1601.0297	1632.5573	3029.5237	3034.4331	3080.6433	3085.8108	3114.1075	3148.7162	3154.4193
CC1=CN=C(F)N=C1C	Cc1cnc(F)nc1C	
InChI=1S/C6H7FN2/c1-4-3-8-6(7)9-5(4)2/h3H,1-2H3	InChI=1S/C6H7FN2/c1-4-3-8-6(7)9-5(4)2/h3H,1-2H3
