21
gdb 100251	2.27433	0.96313	0.87095	2.3747	83.61	-0.245	0.0452	0.2902	1496.2149	0.179344	-424.199553	-424.188069	-424.187125	-424.237746	40.161	
C	 0.0909875508	 1.4616581283	 0.0452428663	-0.499359
C	 0.0473939021	 0.0055737908	 0.0239233528	 0.031294
C	-0.0164271638	-1.1986518193	-0.000789019	 0.073976
C	-0.0324594545	-2.6640454814	-0.0302188004	 0.019132
C	-1.4715899632	-3.2148546802	-0.0479773712	-0.42662
C	 0.7368126157	-3.1318493277	-1.3018090414	-0.070552
O	 0.9723896919	-4.5277016197	-1.3113356353	-0.428445
C	 0.6929190105	-3.1951729064	 1.2313451082	-0.088592
O	 2.0763466687	-2.8894422077	 1.2393515927	-0.433012
H	 0.9558134795	 1.8440778289	-0.5079818953	 0.149133
H	-0.8086364466	 1.889954195	-0.4101761049	 0.152298
H	 0.156650024	 1.8444506837	 1.0696719951	 0.149078
H	-2.0483089118	-2.7618369294	-0.8588614811	 0.121804
H	-1.4442813287	-4.2971445505	-0.2029925822	 0.133692
H	-1.9888938227	-3.003941489	 0.8928369915	 0.116691
H	 0.1319903212	-2.9044478041	-2.1852762926	 0.111227
H	 1.674115292	-2.5703806847	-1.3808030719	 0.09817
H	 1.7374261704	-4.6854040831	-0.7480244983	 0.296331
H	 0.1864407391	-2.8087858017	 2.1272768726	 0.096226
H	 0.6214492364	-4.2864472733	 1.2475777338	 0.111552
H	 2.150190589	-1.9289956285	 1.1798685707	 0.285976
27.8075	39.1165	79.9824	91.6844	170.5601	222.9024	231.3055	278.738	292.7564	306.8774	343.7971	411.4878	418.0436	453.5254	472.9261	533.6101	588.622	705.4541	827.3915	892.6673	949.509	1003.6995	1045.0694	1051.9966	1054.3077	1076.8722	1084.6093	1124.4297	1174.9493	1199.301	1267.6701	1283.1827	1374.329	1390.0643	1406.4887	1408.1394	1414.4164	1429.3606	1478.4238	1478.8193	1487.7957	1494.7466	1499.5432	1509.4234	2355.3718	3002.9535	3027.2241	3035.7683	3040.8079	3087.7975	3088.8397	3089.0514	3089.951	3113.3501	3122.8059	3778.4944	3814.2174
CC#CC(C)(CO)CO	CC#CC(C)(CO)CO	
InChI=1S/C7H12O2/c1-3-4-7(2,5-8)6-9/h8-9H,5-6H2,1-2H3	InChI=1S/C7H12O2/c1-3-4-7(2,5-8)6-9/h8-9H,5-6H2,1-2H3
