18
gdb 40121	2.1976	2.12392	1.28747	2.465	77.2	-0.2402	0.0045	0.2447	1002.4666	0.148797	-401.910344	-401.902868	-401.901924	-401.942304	29.808	
C	 0.3694392638	 1.4563535498	-0.0591372718	-0.299467
N	 1.3210702916	 0.3515073033	 0.1497797468	-0.34596
C	-0.114662031	 0.0604263109	 0.011840299	 0.253767
C	-0.8202290279	-0.5638125181	 1.2187935957	-0.347158
C	-1.3873389454	-1.8465053822	 0.6566800945	-0.09005
C	-1.2440390008	-1.9348187754	-0.6661057304	-0.145803
C	-0.5731493973	-0.7265136079	-1.2116241489	 0.365518
C	-0.8771958677	-0.1571774571	-2.534754871	-0.252958
O	 0.3544771563	-0.8511310184	-2.303538463	-0.290656
H	 0.2337321717	 2.1149899748	 0.7952620737	 0.115629
H	 0.3650258463	 1.9644558593	-1.0203801582	 0.11051
H	 1.7689317415	 0.130299627	-0.7391300888	 0.243263
H	-0.1138484241	-0.730442858	 2.0387331532	 0.128772
H	-1.6192610307	 0.0819131597	 1.6077281524	 0.11255
H	-1.8731162334	-2.5880191501	 1.2807187365	 0.104345
H	-1.5764767502	-2.7457952467	-1.3024493786	 0.10718
H	-1.5811623713	-0.6678402987	-3.1918651653	 0.115298
H	-0.7912005714	 0.9154934578	-2.6993906057	 0.115221
65.1314	232.4821	252.914	283.8182	328.5749	403.2138	449.0049	517.9925	576.5787	580.4408	742.2483	768.9466	828.9126	849.1945	885.9694	925.2376	933.3953	957.8724	968.7831	977.7798	1000.0578	1027.8276	1071.3597	1108.7004	1126.7488	1136.1748	1163.4307	1186.3234	1204.5541	1281.0845	1296.811	1314.2698	1338.81	1406.4478	1422.9549	1478.2888	1510.4571	1529.3575	1676.7658	3017.8497	3072.2379	3078.0702	3101.1422	3165.3168	3182.8576	3192.8942	3218.9398	3476.0855
C1NC11CC=CC11CO1	C1N[C@]21CC=C[C@]12CO1	
InChI=1S/C7H9NO/c1-2-6(4-8-6)7(3-1)5-9-7/h1,3,8H,2,4-5H2	InChI=1S/C7H9NO/c1-2-6(4-8-6)7(3-1)5-9-7/h1,3,8H,2,4-5H2/t6-,7+/m0/s1
