16
gdb 97794	3.08587	0.76579	0.66747	4.0041	76.85	-0.2568	-0.0097	0.247	1649.7718	0.122366	-437.833924	-437.824393	-437.823449	-437.870274	32.408	
O	 0.2831088658	 0.2799009751	 0.9826014338	-0.39674
C	-0.1287655392	-0.1363741885	-0.3099805919	-0.197075
C	-1.5230523741	-0.5762065053	-0.3684118893	 0.075681
C	-2.6813929653	-0.9100300095	-0.3945887611	 0.078715
C	-4.0637565595	-1.3010737546	-0.4098843398	-0.210175
C	-4.5085616092	-2.4896024154	-1.2380292309	-0.22971
N	-4.4863464578	-2.5655121879	 0.1978199959	-0.066936
C	-3.6444895409	-3.4195362011	 0.9035887996	 0.151682
O	-3.4455748723	-4.5710232188	 0.6120108919	-0.279511
H	-0.3256648805	 0.9658503395	 1.2760898855	 0.28935
H	 0.0303341816	 0.6544213801	-1.0604040516	 0.124071
H	 0.5328127006	-0.9661161388	-0.5816463129	 0.150193
H	-4.7787020286	-0.492198064	-0.2757304351	 0.127172
H	-5.4889568098	-2.463152007	-1.7048148233	 0.135532
H	-3.7416105618	-3.0411260208	-1.7739444711	 0.149625
H	-3.236765459	-2.9349979831	 1.8089626402	 0.098125
26.94	61.5446	97.2862	146.1711	194.7311	212.4727	276.7107	319.4716	362.1827	477.6925	507.9396	571.1728	650.4463	739.4876	824.6195	942.9058	964.9713	988.1153	1035.021	1051.7345	1063.5132	1086.4311	1128.7011	1157.5667	1201.4427	1215.6053	1361.3812	1362.144	1394.2697	1415.9346	1416.9856	1486.6081	1504.1269	1806.7132	2354.6916	2978.4366	2979.8301	3068.8318	3117.9985	3130.5859	3213.496	3815.6926
OCC#CC1CN1C=O	OCC#C[C@H]1CN1C=O	
InChI=1S/C6H7NO2/c8-3-1-2-6-4-7(6)5-9/h5-6,8H,3-4H2	InChI=1S/C6H7NO2/c8-3-1-2-6-4-7(6)5-9/h5-6,8H,3-4H2/t6-,7?/m0/s1
