17
gdb 115469	4.85906	0.88313	0.81073	2.7358	74.31	-0.263	-0.0712	0.1917	1407.0893	0.13457	-458.969548	-458.960713	-458.959769	-459.003822	30.946	
C	 0.2317384048	 1.2454751462	 0.2327977304	-0.241741
O	 0.1759746807	-0.1551065978	 0.0134740005	-0.241687
C	 0.5376078558	-0.5310717835	-1.2870087885	 0.196407
O	 1.9104144991	-0.3190823296	-1.5691236093	-0.272931
C	 2.6178914484	-1.5595518638	-1.5517368632	-0.170857
C	 1.5397357522	-2.6101598978	-1.5272426887	 0.218911
C	 1.8018247319	-4.0510186385	-1.5954804975	 0.075596
O	 2.912811154	-4.5258847156	-1.6712801744	-0.25971
C	 0.3482120185	-2.0207136171	-1.4068965715	-0.224898
H	 1.2533614007	 1.6265589462	 0.1219060089	 0.130759
H	-0.4253356024	 1.7849781586	-0.4659945007	 0.1076
H	-0.1133711296	 1.4211109227	 1.2535382743	 0.13055
H	-0.0395011525	 0.065252357	-2.0131294011	 0.078973
H	 3.2470651049	-1.6211397812	-2.4467127834	 0.131962
H	 3.2765339245	-1.6344431842	-0.6756819956	 0.129738
H	 0.8954336251	-4.6937606472	-1.5718071241	 0.080124
H	-0.6189419461	-2.5011599245	-1.3365053259	 0.131203
63.911	106.1896	138.5116	167.2819	191.3497	199.2477	314.7125	381.3128	437.8633	540.0243	551.1049	711.0715	804.1882	856.5465	908.1808	938.0554	992.3857	1005.43	1011.2444	1054.2701	1072.394	1128.5337	1177.7582	1194.5443	1207.9922	1215.3279	1293.3096	1373.9244	1384.6631	1393.8153	1419.7433	1476.39	1484.2793	1510.2612	1511.7901	1697.0409	1787.0567	2899.1453	2967.9481	2992.9785	3017.4356	3064.0149	3068.0359	3129.8864	3228.2103
COC1OCC(C=O)=C1	CO[C@H]1OCC(=C1)C=O	
InChI=1S/C6H8O3/c1-8-6-2-5(3-7)4-9-6/h2-3,6H,4H2,1H3	InChI=1S/C6H8O3/c1-8-6-2-5(3-7)4-9-6/h2-3,6H,4H2,1H3/t6-/m0/s1
