20
gdb 12115	3.08079	1.89356	1.46632	1.3061	74.59	-0.2417	0.0745	0.3162	945.3304	0.175867	-348.975963	-348.967555	-348.966611	-349.008411	33.365	
C	 0.0352761527	 1.4953655056	-0.1241251263	-0.485063
C	-0.0503060415	-0.0150799823	 0.0002953203	 0.321008
C	 1.047925412	-0.8059738174	-0.6791294139	-0.314568
C	 1.0129757815	-0.7005145461	 0.8271703291	-0.289852
C	-1.4401128994	-0.6203322492	 0.0432122865	 0.334889
O	-1.4584615603	-2.0292898746	 0.0474111077	-0.459104
C	-2.5209087771	-0.0314384384	 0.9020225641	-0.295684
C	-2.6287076532	 0.0452024517	-0.6100185068	-0.332103
H	 1.0795749632	 1.8185953251	-0.0853773661	 0.115539
H	-0.3810845786	 1.8505301187	-1.0728776841	 0.118315
H	-0.4915430299	 2.0059512895	 0.6893604473	 0.119088
H	 0.8155514717	-1.7724099824	-1.1113073226	 0.094889
H	 1.8032078922	-0.2490890684	-1.2236311556	 0.105574
H	 1.7537188069	-0.0813013673	 1.3218797091	 0.102709
H	 0.7210370996	-1.5902521483	 1.3720879317	 0.125074
H	-1.3176677943	-2.3255970463	-0.8581136363	 0.282269
H	-3.1596077542	-0.7416072189	 1.4135962417	 0.121763
H	-2.3205061385	 0.8810272305	 1.4511215317	 0.113423
H	-2.5076837932	 1.0108518471	-1.0863617391	 0.112291
H	-3.3477610493	-0.6100344187	-1.0895719685	 0.109544
48.847	220.7133	248.6941	260.8127	318.2668	333.2535	368.8187	387.1591	403.5244	447.7261	545.5626	591.544	771.274	788.8481	823.7116	861.705	889.9079	921.3693	926.4993	953.9598	966.6728	987.5961	1040.4218	1049.9266	1070.6037	1075.5471	1083.5411	1120.8903	1188.9709	1191.0803	1210.3224	1251.0355	1316.8644	1348.7531	1380.6787	1419.8313	1449.5931	1457.9497	1489.8643	1498.1356	1502.0047	1509.5194	3030.1169	3090.9525	3102.5838	3131.7081	3136.2426	3136.9098	3144.5976	3211.6972	3221.1501	3229.933	3236.7024	3802.1856	48.8452	220.7122	248.6937	260.8125	318.2658	333.2533	368.8182	387.1589	403.524	447.7261	545.5625	591.5439	771.274	788.8481	823.7115	861.7048	889.9079	921.3693	926.4993	953.9597	966.6727	987.5959	1040.4218	1049.9267	1070.6038	1075.5473	1083.5409	1120.8906	1188.9713	1191.0803	1210.3226	1251.0355	1316.8645	1348.7532	1380.6789	1419.8316	1449.5936	1457.9497	1489.8645	1498.1361	1502.0051	1509.5198	3030.1169	3090.9524	3102.5838	3131.708	3136.2426	3136.9097	3144.5976	3211.6972	3221.15	3229.933	3236.7024	3802.1852
CC1(CC1)C1(O)CC1	CC1(CC1)C1(O)CC1	
InChI=1S/C7H12O/c1-6(2-3-6)7(8)4-5-7/h8H,2-5H2,1H3	InChI=1S/C7H12O/c1-6(2-3-6)7(8)4-5-7/h8H,2-5H2,1H3
