17
gdb 38605	3.61646	1.69925	1.43801	2.2538	70.05	-0.2366	0.0714	0.3079	909.3173	0.138294	-421.74705	-421.740941	-421.739997	-421.777302	25.821	
C	-0.0013496328	 1.5684191858	 0.0265346153	-0.291089
C	 1.4060164623	 2.1205692587	-0.0531951562	 0.041055
O	 2.2684524283	 1.8306221545	 1.0520786149	-0.258741
C	 2.5031020839	 1.1558795433	-0.1975322857	 0.012261
C	 2.1344235912	-0.304763589	-0.2146637985	-0.029047
C	 1.0526053537	-0.7762917701	 0.7913470843	 0.035786
O	 0.76647553	-1.9282728879	-0.0936841208	-0.316047
C	 0.857009324	-0.7589806882	-0.9870470873	 0.025222
C	-0.0212606946	 0.0426296206	 0.0182601172	 0.002008
H	-0.4986959522	 1.9483822625	 0.9274319089	 0.120907
H	-0.5787014995	 1.9423645355	-0.8286691277	 0.109276
H	 1.5199767752	 3.1285112521	-0.4500933063	 0.09523
H	 3.4221997841	 1.449779767	-0.701828708	 0.092903
H	 2.9769772487	-0.9910468815	-0.3121585728	 0.083314
H	 1.1505001335	-0.9662814869	 1.8593296465	 0.10088
H	 0.7176330272	-0.9281795359	-2.0559005372	 0.09114
H	-1.0243365731	-0.3757575205	 0.1229173733	 0.084942
183.3643	271.8893	365.3464	440.1959	466.2825	532.4816	626.6015	731.3674	746.5309	786.8711	827.3534	846.5604	873.9888	893.4819	907.6893	942.6604	986.2323	1000.4501	1016.8825	1058.1396	1067.0576	1074.8899	1128.3029	1146.6496	1160.5945	1193.1187	1198.4005	1251.2312	1262.1468	1267.4746	1290.1583	1297.0691	1363.6899	1374.0981	1408.264	1465.2392	1477.014	3025.9481	3061.791	3096.7705	3102.4542	3109.1555	3115.5267	3129.0084	3133.8058
C1C2OC2C2C3OC2C13	C1[C@H]2O[C@H]2[C@H]2[C@@H]3O[C@H]2[C@H]13	
InChI=1S/C7H8O2/c1-2-5-4(6(2)9-5)7-3(1)8-7/h2-7H,1H2	InChI=1S/C7H8O2/c1-2-5-4(6(2)9-5)7-3(1)8-7/h2-7H,1H2/t2-,3-,4+,5-,6+,7-/m1/s1
