15
gdb 128312	5.02425	1.0711	0.88857	3.7801	73.76	-0.2112	-0.0729	0.1383	1243.9706	0.114402	-450.155343	-450.147257	-450.146313	-450.188232	29.432	
C	 0.0026625732	 1.448454762	 0.0582022815	-0.3132
N	-0.0613198433	 0.0125783364	-0.1091491103	-0.343864
C	-1.2438048839	-0.6659301267	-0.0232861003	 0.485672
N	-2.3706225555	-0.0051770013	 0.0083375029	-0.300369
N	-3.4878351762	-0.7813547665	 0.0256540926	-0.26855
C	-3.5518265788	-2.1548319686	 0.0371985706	 0.406476
O	-4.5949647604	-2.7879715283	 0.0545021411	-0.395771
C	-2.1967239607	-2.7370347283	 0.0343928965	-0.080634
N	-1.109869404	-2.046553268	 0.003872837	-0.272907
H	 1.0368257224	 1.7715186523	-0.0744978016	 0.127242
H	-0.6186995086	 1.9405364602	-0.6953774322	 0.148509
H	-0.3526638604	 1.7749679814	 1.0454855234	 0.127652
H	 0.7456313311	-0.5413031011	 0.1250680549	 0.256984
H	-4.3595043621	-0.2695470207	 0.0408842427	 0.276005
H	-2.1349197927	-3.823555143	 0.0638195812	 0.146755
80.7559	137.3065	159.3402	193.387	340.6148	368.2954	387.224	421.6246	485.9653	552.3164	567.0505	639.0971	713.4711	794.2137	816.5854	830.4877	983.0124	993.3905	1100.3211	1153.2338	1162.2847	1249.3117	1259.2021	1329.4165	1379.5612	1433.4364	1458.9464	1476.2214	1513.105	1548.799	1588.5873	1668.4663	1784.8618	3009.0468	3085.6565	3135.2989	3157.0478	3602.0783	3657.5385
CNC1=NNC(=O)C=N1	CNc1n[nH]c(=O)cn1	
InChI=1S/C4H6N4O/c1-5-4-6-2-3(9)7-8-4/h2H,1H3,(H,7,9)(H,5,6,8)	InChI=1S/C4H6N4O/c1-5-4-6-2-3(9)7-8-4/h2H,1H3,(H,7,9)(H,5,6,8)
