22
gdb 79822	2.08557	1.87756	1.62918	1.7386	84.22	-0.2173	0.0818	0.2991	1022.5914	0.195673	-367.188064	-367.179871	-367.178927	-367.220019	33.371	
C	-0.3785293977	 1.5355360308	-0.0000858	-0.424964
C	 0.0344455859	 0.0720187687	 0.0337752619	 0.057994
N	 0.9724448606	-0.4253826227	-1.0380433744	-0.173777
C	 2.3889538145	-0.2138627763	-0.6112471262	-0.012045
C	 2.7669241028	 0.8412972686	 0.4198705703	-0.254414
C	 1.9477483247	 0.445572018	 1.6762017516	-0.248684
C	 0.9022151923	-0.5637513957	 1.164687462	 0.283514
C	 0.1866738092	-1.3500896743	 2.2452912504	-0.4956
C	 1.6184109487	-1.3094360239	 0.001188662	-0.092708
H	 0.4508224779	 2.2269910571	 0.159431587	 0.118032
H	-0.81911244	 1.7641106201	-0.9765215533	 0.127278
H	-1.1380848906	 1.7363914315	 0.7637433633	 0.114313
H	-0.8694829153	-0.5370904326	-0.0884697081	 0.07691
H	 3.0701159894	-0.4149927107	-1.4320557319	 0.090848
H	 3.8444681099	 0.7958813377	 0.6098775322	 0.101851
H	 2.5566550758	 1.8563117028	 0.0698591673	 0.107823
H	 2.5925432969	-0.0402784808	 2.4178197578	 0.094945
H	 1.4796209316	 1.3044656209	 2.168712352	 0.096057
H	-0.3825368741	-0.6853865081	 2.9054624031	 0.116419
H	-0.5149858498	-2.0732245491	 1.8162590719	 0.116582
H	 0.8980601065	-1.9024472486	 2.8703175273	 0.114079
H	 1.752060781	-2.3770257136	-0.1345756561	 0.085547
171.7043	197.5955	215.5337	240.6547	256.0058	298.8217	323.898	446.8734	527.5289	572.6458	625.0396	684.0257	767.1256	771.192	783.787	845.0435	860.6922	906.4221	914.2169	936.7957	973.4253	1021.9347	1039.9449	1051.3943	1072.2656	1107.6659	1125.8306	1146.0394	1177.5457	1207.3426	1229.2478	1245.4371	1252.4598	1278.0898	1285.7573	1318.944	1358.9059	1393.8341	1400.5209	1412.6771	1413.9176	1478.4034	1489.4985	1494.603	1496.2664	1501.6506	1510.6796	3019.8793	3022.8713	3031.7793	3037.8824	3049.8964	3069.9061	3083.7529	3088.5428	3093.856	3096.8901	3133.	3159.396	3172.9161
CC1N2C3CCC1(C)C23	C[C@H]1N2[C@H]3CC[C@]1(C)[C@@H]23	
InChI=1S/C8H13N/c1-5-8(2)4-3-6-7(8)9(5)6/h5-7H,3-4H2,1-2H3	InChI=1S/C8H13N/c1-5-8(2)4-3-6-7(8)9(5)6/h5-7H,3-4H2,1-2H3/t5-,6+,7+,8+,9?/m1/s1
