19
gdb 38460	3.9773	1.28522	1.17491	2.1497	74.22	-0.2369	0.0738	0.3107	1095.3026	0.16014	-422.984297	-422.976723	-422.975779	-423.017113	29.635	
C	 0.0337068684	 1.4728181056	 0.139882213	-0.311876
C	 1.2807697995	 0.6752933583	-0.0694608147	 0.10348
O	 1.7132484828	 0.0777543263	 1.154751237	-0.334334
C	 0.4900486735	-0.7347961063	 1.2053672095	 0.39885
C	 0.7946487341	-2.2335968266	 1.0724845878	-0.274516
C	 0.7790162765	-2.6957419724	 2.5309406345	-0.090085
O	-0.2802969601	-1.9506309449	 3.1195674613	-0.253179
C	-0.2249346802	-0.6400121949	 2.5718652542	-0.126438
C	-0.0491298874	-0.0322199694	-0.0391509602	-0.198752
H	-0.1539399406	 1.9366813701	 1.1039013908	 0.118902
H	-0.3090460761	 2.041859081	-0.7190990908	 0.115937
H	 2.015864285	 0.8323469687	-0.8494702089	 0.105059
H	-0.0148579031	-2.7245680345	 0.5208636892	 0.10607
H	 1.7378217507	-2.4047006974	 0.5511736015	 0.114958
H	 0.5585566965	-3.7575431725	 2.6648458323	 0.108952
H	 1.7401824087	-2.4717054296	 3.021478753	 0.099563
H	 0.3534562608	 0.0360348024	 3.2172398667	 0.10844
H	-1.2477141314	-0.2596109212	 2.4885620227	 0.109619
H	-0.6202568375	-0.5084777225	-0.8249570888	 0.099352
32.9953	151.4666	211.3645	271.0847	374.526	405.5243	475.7449	500.5451	628.581	753.9912	761.5254	803.5811	845.3692	879.9077	889.9677	941.3807	960.445	968.3389	981.0148	1019.3833	1024.9426	1044.5047	1056.6308	1083.5959	1090.267	1132.891	1152.9517	1164.1314	1204.5721	1228.7306	1245.6871	1268.4053	1296.0064	1321.5353	1353.342	1362.9076	1398.3541	1465.2816	1474.5013	1500.7235	1519.1811	2976.3186	3006.2976	3048.4355	3077.7692	3099.0363	3117.8327	3127.1914	3184.6447	3199.12	3210.8574
C1C2OC3(CCOC3)C12	C1[C@H]2O[C@]3(CCOC3)[C@@H]12	
InChI=1S/C7H10O2/c1-2-8-4-7(1)5-3-6(5)9-7/h5-6H,1-4H2	InChI=1S/C7H10O2/c1-2-8-4-7(1)5-3-6(5)9-7/h5-6H,1-4H2/t5-,6+,7-/m0/s1
