18
gdb 116268	1.89244	1.58193	0.92827	1.9322	71.6	-0.2717	0.0269	0.2986	1228.5467	0.148677	-439.093535	-439.084688	-439.083743	-439.128008	31.825	
O	-0.0982583841	 1.4245063572	-0.2170936125	-0.425411
C	 0.045413017	 0.0124963496	-0.201116845	-0.107693
C	-1.342723104	-0.5541632394	 0.0699402204	-0.015519
C	-2.3709200389	-0.145620292	-1.0165262834	-0.084134
O	-3.2127336928	-1.2732046568	-1.2170850177	-0.236044
C	-2.3712649001	-2.3985484161	-1.1571063747	-0.096155
C	-1.44277202	-2.1190737496	 0.0603278024	-0.187874
C	-0.1726951517	-2.8303836413	-0.01771169	 0.274039
N	 0.8285429337	-3.4040286304	-0.0918748545	-0.335721
H	 0.7581770781	 1.8145068434	-0.4150296017	 0.293416
H	 0.4221216848	-0.3649338796	-1.1652021103	 0.101328
H	 0.750987462	-0.314529365	 0.5759573784	 0.11082
H	-1.6692805061	-0.1861783157	 1.0455372753	 0.103947
H	-2.9980336139	 0.6975523408	-0.7253670145	 0.127762
H	-1.8470853989	 0.1153606854	-1.9492332183	 0.102067
H	-2.9842640362	-3.2929252587	-1.0316906083	 0.129138
H	-1.7668678162	-2.5042397021	-2.071905433	 0.109204
H	-1.9506897929	-2.4485422697	 0.9709602074	 0.136829
39.0938	120.301	128.6586	188.1726	231.6632	277.5539	304.5924	378.4328	438.5305	501.0158	551.0819	625.125	684.1398	805.1823	903.048	942.7195	967.4874	1019.6648	1035.9053	1061.5445	1085.4528	1095.8879	1126.4531	1142.6723	1214.6256	1237.013	1259.2806	1268.9456	1303.519	1309.5066	1332.1561	1347.2462	1377.6107	1400.4205	1463.1474	1502.6746	1515.2205	1523.9333	2353.5853	2976.147	2983.4752	2991.0957	3018.6419	3068.0728	3084.9158	3116.8062	3126.8998	3832.1986
OCC1COCC1C#N	OC[C@H]1COC[C@H]1C#N	
InChI=1S/C6H9NO2/c7-1-5-3-9-4-6(5)2-8/h5-6,8H,2-4H2	InChI=1S/C6H9NO2/c7-1-5-3-9-4-6(5)2-8/h5-6,8H,2-4H2/t5-,6+/m1/s1
