21
gdb 111280	3.10271	1.18317	1.00667	0.7088	78.49	-0.2432	0.0745	0.3177	1261.413	0.180424	-424.192955	-424.183213	-424.182269	-424.227178	36.343	
C	-0.6217028017	 1.5271304835	-0.2794629048	-0.417016
C	-0.2678340805	 0.0460780158	-0.2437558764	-0.056523
C	 0.9956079346	-0.4826005974	-1.0425572791	-0.015892
C	 1.841245697	 0.4864478898	-1.8455306182	-0.094268
O	 1.0854814831	 0.8810163155	-2.9863981067	-0.423864
C	 1.5706142827	-0.964805883	 0.2949440238	-0.082286
O	 1.6589547974	 0.1786740307	 1.1628572856	-0.293962
C	 0.3923898449	-0.4956657522	 1.0442130626	 0.418974
C	-0.2647839446	-0.979548853	 2.2956243212	-0.504827
H	 0.1929054126	 2.1290206968	 0.1328345927	 0.12573
H	-0.8040604651	 1.85357436	-1.3065476305	 0.130403
H	-1.5216287139	 1.7286834224	 0.311974271	 0.104935
H	-1.139046994	-0.560503531	-0.5115399863	 0.072888
H	 0.7120665491	-1.3240926954	-1.6823119482	 0.081007
H	 2.1128982008	 1.3488277911	-1.2229214349	 0.104228
H	 2.7777088685	-0.0126371086	-2.1463534807	 0.08266
H	 1.5762272009	 1.5675212873	-3.4474649859	 0.286207
H	 2.2560562312	-1.7829282218	 0.4913244815	 0.095126
H	-0.7370416903	-0.1497888902	 2.8339411045	 0.130727
H	-1.0426881987	-1.7148655707	 2.0652846495	 0.123297
H	 0.469767316	-1.4407548294	 2.9613165994	 0.132456
85.4194	124.4037	180.3003	196.4813	207.9277	225.6998	248.8595	273.9562	325.6508	331.7314	489.4072	532.9003	592.2669	671.4974	714.1661	761.8181	837.3314	861.1123	936.7473	989.4606	998.1909	1015.5694	1036.5546	1059.0802	1070.2243	1101.1394	1135.8014	1153.9047	1198.2361	1211.7148	1238.5578	1257.7789	1266.0326	1292.3004	1351.7556	1366.412	1401.8673	1404.2007	1449.6553	1469.9742	1483.3857	1492.2402	1496.2881	1509.4038	1526.5855	2961.6102	3029.6475	3032.383	3037.5474	3051.0734	3069.9897	3094.1118	3105.0708	3118.3667	3125.0711	3169.075	3828.999
CC1C(CO)C2OC12C	C[C@H]1[C@@H](CO)[C@H]2O[C@@]12C	
InChI=1S/C7H12O2/c1-4-5(3-8)6-7(4,2)9-6/h4-6,8H,3H2,1-2H3	InChI=1S/C7H12O2/c1-4-5(3-8)6-7(4,2)9-6/h4-6,8H,3H2,1-2H3/t4-,5+,6+,7-/m0/s1
