19
gdb 39096	3.39221	1.71349	1.46643	1.0555	73.6	-0.2463	0.0882	0.3345	942.7924	0.162514	-423.002005	-422.995247	-422.994303	-423.033342	27.723	
C	-0.0907198931	 1.5701391442	 0.0971047644	-0.299518
C	 1.4437081792	 1.4253047822	-0.0324337331	-0.085872
C	 1.7714399791	 0.6556742694	 1.2852994672	-0.213746
C	 0.6074581966	-0.4179764888	 1.3068819506	-0.30638
C	-0.0095540815	 0.0004496566	-0.015601718	 0.44808
O	-0.958374052	-0.7223677678	-0.735492321	-0.330729
C	-0.7096691854	-0.3769243868	-2.1004307839	-0.001397
O	 0.5283446073	 0.3379017599	-2.19463475	-0.299156
C	 1.1884514806	 0.1991469948	-0.9497251446	 0.106494
H	-0.4863785704	 1.9957736044	 1.0223451251	 0.088479
H	-0.5592699889	 2.0288306021	-0.7716755	 0.113961
H	 2.0996330141	 2.2524380197	-0.298846804	 0.070877
H	 2.7570731653	 0.1824091488	 1.2578831792	 0.104682
H	 1.7406202168	 1.3211862065	 2.1513890301	 0.106504
H	 0.9807348122	-1.4450185692	 1.2907269728	 0.107517
H	-0.0617213587	-0.3030919489	 2.162734874	 0.10704
H	-0.6721339037	-1.3070087588	-2.6831343364	 0.109691
H	-1.5029902815	 0.2773078042	-2.4856075565	 0.109373
H	 1.9739623338	-0.5654190626	-1.0017300858	 0.0641
61.7859	265.5324	294.424	362.4882	436.6559	453.4693	547.6339	666.5798	700.4482	745.933	819.7602	848.4244	864.4505	878.6737	916.789	937.7349	949.5172	966.4774	1020.4945	1026.9089	1048.5079	1073.7739	1103.7099	1129.0438	1135.3123	1160.2112	1191.5065	1200.8999	1218.9119	1238.1115	1242.1944	1267.4083	1293.9701	1305.6657	1334.9196	1374.2824	1433.3841	1487.6285	1493.8702	1520.6396	1545.3404	3002.739	3022.0594	3043.6376	3057.372	3066.9386	3074.3631	3099.6792	3118.0374	3129.7552	3157.1463
C1C2CCC11OCOC21	C1[C@H]2CC[C@]31OCO[C@@H]23	
InChI=1S/C7H10O2/c1-2-7-3-5(1)6(7)8-4-9-7/h5-6H,1-4H2	InChI=1S/C7H10O2/c1-2-7-3-5(1)6(7)8-4-9-7/h5-6H,1-4H2/t5-,6+,7-/m1/s1
