16
gdb 43844	3.28077	1.3518	1.04724	3.9986	72.1	-0.2574	-0.0746	0.1829	1121.898	0.124046	-437.901868	-437.894126	-437.893182	-437.935107	29.397	
N	-0.133987486	 1.2705140962	 0.1341042997	-0.50408
C	-0.0294622367	 0.0251532385	-0.0452101831	 0.308901
O	-1.0927508438	-0.7744668547	-0.2730211508	-0.246337
C	-0.6886323894	-2.1255623305	-0.5371279275	 0.425908
C	-1.722842631	-3.1629906915	-0.2549860495	-0.326242
C	-1.3789754989	-2.7900909491	-1.6882937326	-0.321014
C	 0.7930976446	-2.2613131917	-0.2334164975	-0.441543
C	 1.2326810669	-0.8202743944	-0.0297436979	 0.314019
O	 2.3405043265	-0.3836140748	 0.1298069331	-0.292741
H	 0.8046655586	 1.6424029022	 0.2979353552	 0.245137
H	-1.3937333512	-4.1225352002	 0.1293809238	 0.124115
H	-2.6716526474	-2.8128181039	 0.1349471557	 0.140511
H	-2.1031188361	-2.1957171084	-2.2332203584	 0.140285
H	-0.8132542287	-3.4938770317	-2.2895738386	 0.122941
H	 0.9833703381	-2.8201471697	 0.6902369407	 0.156099
H	 1.3676826744	-2.7347256263	-1.0331220624	 0.154041
28.7691	113.0127	262.4702	304.8451	320.4798	389.9395	445.4059	481.2763	559.1789	622.7258	649.3859	743.8146	765.8944	831.6629	860.4688	887.9194	933.0727	941.0401	979.3294	1017.9436	1055.6965	1074.6575	1082.2803	1132.4979	1174.3315	1189.3364	1226.9787	1264.1023	1362.2141	1392.358	1445.517	1451.691	1500.6441	1750.0517	1857.0075	3049.127	3107.4418	3135.0493	3137.4294	3222.2745	3235.4333	3465.1841
N=C1OC2(CC2)CC1=O	[NH][C]1OC2(CC2)CC1=O	
InChI=1S/C6H7NO2/c7-5-4(8)3-6(9-5)1-2-6/h7H,1-3H2	InChI=1S/C6H7NO2/c7-5-4(8)3-6(9-5)1-2-6/h7H,1-3H2
