18
gdb 32992	4.78949	0.90182	0.81533	0.9747	79.55	-0.2654	-0.0467	0.2187	1438.3128	0.149751	-398.191842	-398.183441	-398.182496	-398.226221	29.903	
C	 0.0104634621	 1.539519386	 0.010236537	-0.382001
C	-0.0142075075	 0.0098908978	 0.0027418028	-0.166854
C	-1.4500595482	-0.5560222892	 0.0126172272	-0.25812
C	-1.44195768	-2.0563883225	 0.004603813	 0.349122
N	-1.4272121304	-2.6777772859	-1.1839200159	-0.270191
C	-1.3871825515	-4.0061904694	-1.1219307656	 0.080014
N	-1.3606561021	-4.7431022979	-0.0104438765	-0.24132
C	-1.372789983	-4.0182566449	 1.1091688319	 0.080041
N	-1.4119752214	-2.6905632411	 1.1860411255	-0.270257
H	 1.0380107184	 1.9156636378	 0.0026752758	 0.116736
H	-0.501610674	 1.9488075068	-0.8673527911	 0.118804
H	-0.4853516522	 1.9399336325	 0.9011518714	 0.118808
H	 0.5079873458	-0.3693463238	-0.883568283	 0.113076
H	 0.5236770919	-0.3781941175	 0.8757477819	 0.112962
H	-1.9723198653	-0.2117688798	 0.9100798142	 0.119024
H	-1.9880167325	-0.2023226511	-0.8718321197	 0.11904
H	-1.3770807754	-4.5428274123	-2.0687194242	 0.130556
H	-1.3504734448	-4.5650748655	 2.0499040753	 0.130559
36.2031	89.6078	95.0777	237.0148	244.039	310.1746	354.0498	372.4501	543.7888	642.013	707.0758	754.0856	821.202	885.6346	885.862	909.3433	986.4944	1010.1477	1044.7276	1048.8736	1079.6477	1107.2585	1185.1314	1194.6154	1251.9992	1289.3514	1302.6017	1333.5588	1343.078	1380.1315	1411.7805	1424.2684	1458.3914	1483.1684	1493.7239	1497.1189	1508.0694	1578.518	1607.6915	3031.218	3032.926	3057.2898	3065.9506	3099.6868	3105.5318	3115.6334	3156.5611	3160.3713
CCCC1=NC=NC=N1	CCCc1ncncn1	
InChI=1S/C6H9N3/c1-2-3-6-8-4-7-5-9-6/h4-5H,2-3H2,1H3	InChI=1S/C6H9N3/c1-2-3-6-8-4-7-5-9-6/h4-5H,2-3H2,1H3
