23
gdb 72651	1.92865	1.8447	1.55697	1.2977	84.18	-0.2379	0.0791	0.3171	1068.8986	0.206035	-388.30436	-388.295498	-388.294554	-388.337217	35.53	
C	-0.2614520908	 1.5425874723	 0.0107894084	-0.483555
C	-0.0399821966	 0.0371413788	-0.0021404312	 0.303609
C	 1.1304350031	-0.4563445386	-0.912331901	-0.280211
C	 1.8347426033	-1.1041500402	 0.3107242071	-0.269869
C	 0.6703004688	-0.6417258329	 1.2406743234	 0.394711
C	 1.0479392811	 0.1744394264	 2.4591676802	-0.462265
O	-0.1749228011	-1.7048392333	 1.6721272036	-0.296715
C	-1.0146359803	-2.0818680739	 0.5897338324	-0.102295
C	-1.3375772675	-0.7745734581	-0.1441090103	-0.27586
H	 0.6752171519	 2.0883688349	 0.1672707611	 0.111264
H	-0.6791230696	 1.8800532832	-0.9451440774	 0.114808
H	-0.9597627495	 1.8403494881	 0.8006869378	 0.115194
H	 0.8328110836	-1.1553532282	-1.699404285	 0.093576
H	 1.6926220526	 0.3565432651	-1.3790678969	 0.095872
H	 1.9479377289	-2.1901590979	 0.2713575663	 0.104275
H	 2.8047450681	-0.6671630137	 0.5614237651	 0.095503
H	 1.6934961203	 1.0147732636	 2.1879373774	 0.110575
H	 0.1566562098	 0.5639592292	 2.9601853993	 0.117632
H	 1.5903174553	-0.4534197472	 3.1737767692	 0.124139
H	-0.5013206933	-2.7918707647	-0.0791492622	 0.087779
H	-1.8911245536	-2.586589803	 1.0050538064	 0.10611
H	-2.1581744185	-0.2565223688	 0.3644948207	 0.099173
H	-1.6309753963	-0.9325853713	-1.1865670446	 0.096552
78.1867	213.7651	224.569	231.4812	257.3936	278.8426	329.8909	353.6459	403.4555	467.2065	543.5875	609.6121	643.5701	671.717	747.6822	822.3171	862.7955	905.0227	916.0225	929.5674	945.8588	964.0175	983.396	1018.2514	1042.7883	1067.9328	1131.12	1154.9554	1185.4661	1206.4447	1221.4887	1223.2529	1240.2516	1249.8824	1268.3878	1280.3308	1306.2523	1346.9121	1384.8323	1405.9707	1413.8822	1471.2476	1479.653	1484.3226	1487.341	1491.6171	1497.4405	1501.6856	1522.0758	2970.2297	3021.4256	3037.1943	3040.2393	3050.0347	3061.2261	3084.2617	3085.4781	3090.0595	3094.9187	3095.8839	3106.3871	3114.752	3119.6182
CC12CCC1(C)OCC2	C[C@@]12CC[C@]1(C)OCC2	
InChI=1S/C8H14O/c1-7-3-4-8(7,2)9-6-5-7/h3-6H2,1-2H3	InChI=1S/C8H14O/c1-7-3-4-8(7,2)9-6-5-7/h3-6H2,1-2H3/t7-,8-/m0/s1
