14
gdb 124353	2.84292	1.64096	1.04712	3.1982	67.4	-0.2402	-0.0517	0.1885	1060.0597	0.100275	-466.176615	-466.168358	-466.167414	-466.20996	29.317	
C	 0.0633101128	 1.5141018829	-0.0818153221	-0.486142
C	 0.0374010638	 0.0157260948	 0.1124511387	 0.42315
O	 0.0243642697	-0.5427100319	 1.1744594001	-0.273148
N	 0.0287256629	-0.7318249227	-1.0974118156	-0.131125
N	 0.0431414446	-0.0864687296	-2.3208090878	-0.106577
N	 0.0312983794	-0.9500992917	-3.2370460267	-0.053766
N	 0.0089361192	-2.1809028832	-2.6690981936	-0.319705
C	 0.0057376907	-2.1316639092	-1.275008275	 0.504242
N	-0.0118898772	-3.0300867584	-0.3822986384	-0.535706
H	 0.9469140668	 1.8199028837	-0.647957641	 0.159947
H	-0.8088381001	 1.8495916506	-0.6490092465	 0.159944
H	 0.0702507079	 1.9729317676	 0.9060917478	 0.150215
H	-0.0030889451	-2.9987171947	-3.2536162479	 0.288134
H	-0.0262792653	-3.9601287782	-0.7962635719	 0.220538
69.2992	119.5565	150.368	193.1514	205.7203	349.1397	369.6038	453.3585	507.5784	577.3479	650.7077	688.2459	720.5393	755.8296	756.571	950.2414	971.341	1041.2419	1056.7481	1077.8701	1112.6385	1175.4749	1267.1924	1375.4164	1385.0749	1398.2418	1461.2084	1472.4999	1535.8015	1757.7523	1849.7522	3061.9085	3128.8475	3171.8377	3508.8034	3688.8928
CC(=O)N1N=NNC1=N	CC(=O)N1N=NN[C@H]1[NH]	
InChI=1S/C3H5N5O/c1-2(9)8-3(4)5-6-7-8/h1H3,(H2,4,5,7)	InChI=1S/C3H6N5O/c1-2(9)8-3(4)5-6-7-8/h3-4H,1H3,(H,5,7)/t3-/m1/s1
