22
gdb 121268	3.32145	1.09759	1.00294	1.331	82.25	-0.2226	0.0849	0.3076	1309.3223	0.195533	-404.321574	-404.312713	-404.311769	-404.355421	33.496	
C	-0.1110469138	 1.5235158531	-0.0354463551	-0.224425
O	 0.0101855226	 0.1226235077	-0.0661152156	-0.228527
C	-1.2320408407	-0.5396727766	 0.0611561006	-0.072447
C	-1.0387130504	-2.0507863132	 0.0340213012	 0.03419
C	-0.1958435572	-2.5866970671	-1.1497361851	-0.251037
C	 0.388441711	-3.9070625686	-0.6084786356	-0.227663
C	 0.440979055	-3.6922865492	 0.8980407903	-0.00953
C	 1.0067022132	-2.4147888596	 1.3970277802	-0.246441
N	-0.4545462988	-2.5828331625	 1.2860052708	-0.110926
H	 0.8915784284	 1.9432266643	-0.1485282309	 0.125678
H	-0.7466720627	 1.8955631833	-0.8551518354	 0.102756
H	-0.5396745475	 1.8762731153	 0.9157476453	 0.106928
H	-1.7228544967	-0.2546926247	 1.0054460373	 0.098831
H	-1.9028375309	-0.2433296087	-0.7640127693	 0.081635
H	-2.0467477649	-2.4840024855	-0.0179873354	 0.07831
H	-0.8000986708	-2.7319234202	-2.048957302	 0.095575
H	 0.5921675692	-1.8741904664	-1.4013760735	 0.124046
H	-0.2789348073	-4.7479400775	-0.8296396112	 0.101386
H	 1.3654769101	-4.1472190674	-1.0396047493	 0.102577
H	 0.4303155861	-4.5665284864	 1.5433384061	 0.082896
H	 1.3638351022	-2.3509549066	 2.4210476448	 0.108081
H	 1.511264584	-1.7503853637	 0.7043065419	 0.128104
76.3952	102.3834	121.4994	226.575	233.8812	269.2953	322.8764	348.5296	405.1539	607.5596	648.8617	674.1395	727.3917	835.133	840.516	850.9008	920.1499	932.1961	955.7048	982.918	1017.801	1063.6777	1092.0972	1102.1167	1108.2337	1132.5663	1160.6773	1171.2808	1185.1857	1194.2973	1216.9125	1229.983	1262.2819	1288.8287	1307.7738	1327.5242	1350.8127	1381.4649	1391.9664	1417.9812	1478.6055	1484.4317	1491.6702	1499.0795	1499.4545	1521.4194	1527.8648	2951.0995	2970.2004	2995.8033	3013.4932	3013.6657	3038.4622	3071.9017	3079.2795	3112.8445	3118.2761	3122.2285	3142.5763	3211.0924
COCC1CCC2CN12	COC[C@H]1CC[C@H]2CN12	
InChI=1S/C7H13NO/c1-9-5-7-3-2-6-4-8(6)7/h6-7H,2-5H2,1H3	InChI=1S/C7H13NO/c1-9-5-7-3-2-6-4-8(6)7/h6-7H,2-5H2,1H3/t6-,7+,8?/m0/s1
