19
gdb 55162	3.70733	1.20346	1.0026	3.8336	75.99	-0.2298	0.0589	0.2887	1196.8103	0.161912	-419.245915	-419.237719	-419.236775	-419.278913	31.604	
N	-0.2097289429	 1.2694943058	-0.4740441912	-0.569168
C	-0.1216641062	-0.1107907789	-0.3262650157	 0.444123
O	 0.9036543697	-0.7249490209	-0.5699885525	-0.408823
N	-1.2531796147	-0.725829766	 0.151792569	-0.1195
C	-2.4095620204	-0.0487916213	 0.7385972554	-0.186607
C	-3.3729041143	-1.1798936744	 1.0466011678	-0.043505
C	-3.6882149023	-2.1255654586	-0.0853676558	-0.284419
C	-2.6126311504	-2.4798438025	 0.9092113944	-0.049315
C	-1.1857861413	-2.1423884726	 0.5244714567	-0.158342
H	 0.5458776079	 1.635605526	-1.0331871337	 0.257525
H	-1.1094389913	 1.6784517697	-0.6735098883	 0.245563
H	-2.1461413646	 0.4996773162	 1.6554124544	 0.112835
H	-2.8406388539	 0.674219707	 0.032517616	 0.10191
H	-4.1041050256	-1.0240259106	 1.8303544992	 0.09205
H	-4.6216995994	-2.6739980339	-0.0274239955	 0.11421
H	-3.3889981603	-1.8470920141	-1.0915421596	 0.118925
H	-2.7739851044	-3.3033015059	 1.5939680376	 0.092732
H	-0.7988337091	-2.7252262218	-0.3158006661	 0.129467
H	-0.5047468065	-2.3014987533	 1.3722731978	 0.110341
69.5577	105.6171	212.2016	221.2812	312.3779	347.1034	403.2636	452.4694	535.7539	550.5789	646.3588	663.4064	775.2086	788.512	824.2033	833.7243	884.9712	933.585	959.9341	1031.1571	1055.2509	1074.8714	1081.9778	1097.4847	1115.3319	1118.007	1157.4565	1199.2426	1205.9959	1244.2522	1248.9625	1331.4751	1362.9958	1370.2303	1400.7943	1443.8528	1487.4269	1514.9547	1526.2902	1621.0705	1781.3486	2985.6469	3008.3307	3015.5398	3084.6922	3127.2483	3182.5222	3189.9929	3217.2478	3577.2	3692.3494
NC(=O)N1CC2CC2C1	NC(=O)N1C[C@H]2C[C@H]2C1	
InChI=1S/C6H10N2O/c7-6(9)8-2-4-1-5(4)3-8/h4-5H,1-3H2,(H2,7,9)	InChI=1S/C6H10N2O/c7-6(9)8-2-4-1-5(4)3-8/h4-5H,1-3H2,(H2,7,9)/t4-,5+
