21
gdb 31225	2.22111	1.30699	0.90038	3.4785	86.33	-0.2066	0.0366	0.2432	1375.937	0.183592	-383.328476	-383.318873	-383.317929	-383.363878	34.999	
C	-0.0507352043	 1.7523368211	 0.5433668569	-0.365691
C	 0.0550620188	 0.3010473351	 0.0397068272	-0.307208
C	-1.2622333889	-0.3942513395	-0.0906946771	 0.220633
C	-2.0101963947	-0.7991342088	-1.1733623661	 0.208222
C	-1.6980235372	-0.6874802762	-2.6349655605	-0.290368
C	-1.5752809404	-2.0559153276	-3.3240204668	-0.363025
N	-3.1882224709	-1.3890010766	-0.7507725564	-0.310155
C	-3.1592698815	-1.3425088255	 0.5578608906	-0.002366
N	-2.0200035594	-0.7506372787	 1.0134212765	-0.296093
H	 0.9392147022	 2.213573599	 0.6157950286	 0.11496
H	-0.662748999	 2.3546823012	-0.1342730564	 0.12804
H	-0.5131961702	 1.7997766069	 1.5351375172	 0.107803
H	 0.5445119889	 0.2921364551	-0.9388590951	 0.120073
H	 0.7154852607	-0.2666781934	 0.7099973419	 0.103728
H	-2.4937273823	-0.1128291865	-3.1258206389	 0.110108
H	-0.7739924084	-0.1149327651	-2.7733730363	 0.090734
H	-2.4914072267	-2.6340876745	-3.1781168589	 0.138115
H	-1.4038555938	-1.9416212145	-4.399228573	 0.101906
H	-0.7443569073	-2.6329884626	-2.9050548783	 0.108071
H	-3.9223799788	-1.7151618177	 1.2254575414	 0.123315
H	-1.7667372468	-0.6040344009	 1.9761744634	 0.259197
41.7745	55.8277	146.6645	169.7004	195.6179	223.7253	292.3852	333.0183	376.0424	478.3583	508.87	619.7867	668.6848	688.9824	753.2564	782.2401	793.1652	806.4689	950.1618	961.829	986.0777	1030.3544	1054.0543	1080.0101	1089.8362	1118.8557	1165.2663	1241.3268	1274.8829	1295.7352	1311.1465	1349.4543	1362.6272	1383.5433	1403.9777	1412.1018	1460.3418	1474.2193	1485.3238	1495.2963	1496.9757	1505.2691	1508.385	1528.4747	1629.6659	3010.0446	3024.4131	3034.5504	3035.875	3062.9323	3078.168	3102.5347	3103.8411	3115.3267	3123.6577	3244.942	3661.5424
CCC1=C(CC)N=CN1	CCc1c(CC)nc[nH]1	
InChI=1S/C7H12N2/c1-3-6-7(4-2)9-5-8-6/h5H,3-4H2,1-2H3,(H,8,9)	InChI=1S/C7H12N2/c1-3-6-7(4-2)9-5-8-6/h5H,3-4H2,1-2H3,(H,8,9)
