18
gdb 87744	4.95141	0.85287	0.81088	4.5659	77.98	-0.2752	0.0269	0.3021	1424.2661	0.146669	-401.941217	-401.932505	-401.931561	-401.974945	32.29	
C	 0.1102980562	 1.5002321564	-0.2253944592	-0.417159
C	 0.026157885	 0.0173844035	 0.0184492816	-0.027829
O	 1.2701257097	-0.7131120087	 0.0224206156	-0.288243
C	 0.5429696995	-0.6343138357	 1.2268304049	 0.440068
C	 1.0557152346	-0.0035251484	 2.5250011123	-0.325819
C	 0.1221821602	-1.000924744	 3.2944211696	-0.146123
C	-0.019100307	-1.8428312721	 1.9799050847	-0.327197
C	 0.6623787134	-1.6634292734	 4.4675001007	 0.273165
N	 1.1047411682	-2.195235185	 5.3941552942	-0.323629
H	 0.9172029764	 1.9508165135	 0.3578756071	 0.130143
H	 0.3022003072	 1.7024322257	-1.2840297474	 0.137538
H	-0.8334569868	 1.9876224631	 0.042878136	 0.124261
H	-0.7732005645	-0.499317974	-0.5167818423	 0.095694
H	 2.1118553411	-0.2287504985	 2.6911312212	 0.140755
H	 0.8808218166	 1.0601766667	 2.6953386306	 0.12282
H	-0.8252099839	-0.5243448502	 3.5575709753	 0.127916
H	-1.019999582	-2.195937767	 1.7258368986	 0.123077
H	 0.6789306559	-2.6834517019	 1.9634483763	 0.140562
56.0074	125.1788	175.5218	200.0429	222.0788	258.4152	366.7201	445.7261	457.3108	489.3764	565.203	572.7622	694.2167	788.0474	833.2791	850.8456	937.1123	942.3095	992.2953	1012.5315	1040.569	1066.3361	1106.7869	1128.6155	1147.569	1192.2491	1209.7148	1224.7941	1245.3694	1256.364	1346.6925	1362.5191	1411.3357	1466.4713	1471.5998	1488.389	1491.3544	1527.5695	2355.5477	3038.1164	3072.1554	3076.1048	3083.1058	3088.558	3102.8373	3126.6404	3133.0536	3134.9873
CC1OC11CC(C1)C#N	C[C@H]1O[C@]21C[C@@H](C2)C#N	
InChI=1S/C7H9NO/c1-5-7(9-5)2-6(3-7)4-8/h5-6H,2-3H2,1H3	InChI=1S/C7H9NO/c1-5-7(9-5)2-6(3-7)4-8/h5-6H,2-3H2,1H3/t5-,6-,7+/m1/s1
