18
gdb 46512	3.51769	1.22874	1.08303	4.04	71.5	-0.2581	0.0123	0.2703	1137.9816	0.149685	-439.09936	-439.09158	-439.090635	-439.13228	29.837	
O	 0.0270568416	-0.0336324262	-0.8530239301	-0.324954
C	 0.0370806727	 1.1160073724	-0.5103759376	 0.417027
C	-1.1433182561	 1.848929148	 0.1079669397	-0.351726
C	-1.3926208574	 3.2438333443	-0.5109751994	-0.314089
C	-0.0707760074	 3.9084825291	-0.8898771952	 0.32552
C	 0.1036502007	 4.5426237257	-2.2218941055	-0.275694
N	 0.041459022	 5.3661953976	-0.9974080287	-0.357222
C	 1.1187638797	 3.2324723112	-0.2461071584	-0.133514
O	 1.1714533681	 1.851902756	-0.6412420694	-0.22026
H	-2.0168896751	 1.2025584776	 0.0253799284	 0.137335
H	-0.9229217858	 1.9586468251	 1.1773809226	 0.136974
H	-2.0376134937	 3.1511275441	-1.3897332411	 0.123544
H	-1.9319679096	 3.8608748279	 0.2174257632	 0.11376
H	 1.0715959889	 4.5280989824	-2.7156643326	 0.127775
H	-0.7492715778	 4.5471257304	-2.8953894775	 0.11778
H	-0.8783856802	 5.7924584293	-0.9106041252	 0.232967
H	 2.0561082783	 3.67913826	-0.5793313155	 0.133137
H	 1.0757441312	 3.3083254949	 0.8486603023	 0.111638
41.8389	137.6193	209.9814	301.5344	364.6401	379.3542	414.2917	461.9196	504.3297	592.0938	693.4382	762.4488	792.6	822.8963	918.8639	926.9948	945.1266	977.0524	999.4812	1019.4659	1050.3719	1081.7637	1097.3045	1139.2495	1160.1654	1215.4309	1238.5164	1257.2404	1268.5872	1316.6259	1354.2071	1356.8199	1388.0269	1423.6995	1475.488	1494.0674	1508.9786	1521.3217	1856.2901	3019.3766	3030.7771	3040.5287	3082.4044	3108.859	3127.489	3136.3445	3195.3953	3492.8998
O=C1CCC2(CN2)CO1	O=C1CC[C@]2(CN2)CO1	
InChI=1S/C6H9NO2/c8-5-1-2-6(3-7-6)4-9-5/h7H,1-4H2	InChI=1S/C6H9NO2/c8-5-1-2-6(3-7-6)4-9-5/h7H,1-4H2/t6-/m0/s1
