19
gdb 120416	3.22473	0.91921	0.78552	4.5755	72.81	-0.2683	0.0112	0.2795	1487.9696	0.157371	-460.179888	-460.170216	-460.169272	-460.215281	33.737	
C	-0.3018396986	 1.305556467	 0.0110880787	-0.230356
O	 0.0284245423	-0.0630572371	 0.066746513	-0.230318
C	 0.5774293787	-0.5457963049	-1.1338557129	-0.066907
C	 0.8316910241	-2.0269358789	-0.9707967228	 0.112017
O	-0.4059960375	-2.8173986078	-1.0613368949	-0.252812
C	 0.060986799	-3.5227534546	-2.139862732	 0.454215
O	-0.5055813194	-4.3600928148	-2.7656272329	-0.32575
C	 1.4254386066	-2.8250916497	-2.1590783041	-0.21798
C	 1.8346247908	-2.1369722856	-3.4570207975	-0.41542
H	 0.5823500382	 1.9306790822	-0.1915956898	 0.104684
H	-1.0548421761	 1.5117835529	-0.7651052862	 0.111051
H	-0.7133976812	 1.5795537043	 0.9849077767	 0.134563
H	-0.1049549423	-0.3689567597	-1.9808489665	 0.09951
H	 1.5314341749	-0.0381281379	-1.3641774805	 0.091862
H	 1.3072449473	-2.2118175648	-0.0044674181	 0.107869
H	 2.2117413835	-3.512410251	-1.8327962432	 0.118806
H	 1.0639236432	-1.4520432663	-3.8209087617	 0.131682
H	 2.7637087589	-1.5735868947	-3.3293103287	 0.127907
H	 2.0002870474	-2.8896328185	-4.2327634966	 0.145376
59.5825	98.2209	105.2538	136.248	196.7405	209.3301	231.3066	277.1813	347.0334	410.1096	513.0725	542.4962	685.9506	754.7732	817.1181	869.0305	892.522	982.5726	1025.2083	1046.6415	1070.6825	1125.09	1158.0693	1160.2572	1173.8285	1187.4926	1224.8874	1236.5461	1261.0614	1303.3419	1347.7381	1368.1867	1412.6113	1438.7776	1478.7945	1486.3716	1493.9134	1496.5583	1499.1182	1519.8693	1935.1275	2946.1579	2973.5846	2991.616	3019.9228	3045.9777	3069.0332	3091.9626	3116.4352	3122.0728	3122.6204
COCC1OC(=O)C1C	COC[C@H]1OC(=O)[C@H]1C	
InChI=1S/C6H10O3/c1-4-5(3-8-2)9-6(4)7/h4-5H,3H2,1-2H3	InChI=1S/C6H10O3/c1-4-5(3-8-2)9-6(4)7/h4-5H,3H2,1-2H3/t4-,5+/m0/s1
