16
gdb 9823	3.60849	1.52133	1.19969	2.8201	61.52	-0.2653	-0.0382	0.2271	1002.9774	0.127533	-420.870407	-420.861863	-420.860918	-420.903628	30.543	
C	-0.1997205049	 1.4987376371	-0.7257267478	-0.465835
C	-0.1060085334	 0.1845417628	 0.0102530799	 0.310872
C	 0.8902815345	-0.8377745404	-0.3863948254	-0.213824
O	 1.0818975542	-0.0527753206	 0.7821900642	-0.256238
C	-1.3719228997	-0.3043293163	 0.6613563572	 0.288528
O	-2.4642132164	-0.0133296939	 0.2179004289	-0.332618
C	-1.2724055298	-1.1450413546	 1.9257922778	-0.132748
O	-2.5346771528	-1.5840464754	 2.330572683	-0.422856
H	 0.751858729	 1.734274677	-1.2070218518	 0.129182
H	-0.9881924075	 1.4472107221	-1.4800535372	 0.150926
H	-0.4503245661	 2.3085897463	-0.0340202283	 0.138744
H	 0.6950161779	-1.8958213794	-0.2204828971	 0.127724
H	 1.5476393807	-0.6094700216	-1.2241323491	 0.130906
H	-0.594770976	-1.9953240681	 1.7618874329	 0.122377
H	-0.7838531508	-0.5200383739	 2.6922656119	 0.131291
H	-3.1623852088	-1.1398529612	 1.7383823709	 0.293569
70.0491	105.6405	167.0765	189.4318	261.188	316.6981	344.0236	368.7109	425.8783	488.3425	535.419	578.5824	776.5425	836.4072	850.8919	934.6508	983.6434	1011.2511	1073.3738	1102.5173	1137.4431	1145.9699	1166.7341	1236.6191	1286.5429	1335.8509	1366.1887	1410.625	1453.4753	1475.1728	1478.2423	1493.9553	1525.5026	1784.8583	2977.5886	3017.5072	3052.4205	3086.7703	3122.9497	3142.3396	3176.963	3686.6693
CC1(CO1)C(=O)CO	C[C@]1(CO1)C(=O)CO	
InChI=1S/C5H8O3/c1-5(3-8-5)4(7)2-6/h6H,2-3H2,1H3	InChI=1S/C5H8O3/c1-5(3-8-5)4(7)2-6/h6H,2-3H2,1H3/t5-/m0/s1
