18
gdb 61188	3.6041	0.83858	0.77193	4.0314	78.29	-0.2811	0.0143	0.2954	1472.9326	0.144669	-401.929125	-401.918868	-401.917924	-401.964557	36.72	
C	 0.0147790836	 1.5756851904	 0.1448460347	-0.421968
C	 0.011028727	 0.0483487101	 0.0338643477	 0.015515
C	-1.425406682	-0.5272069375	 0.0443749572	-0.352156
C	-2.1659208106	-0.1881430301	 1.2559652856	 0.258664
N	-2.7370931154	 0.0859401091	 2.2227091017	-0.313889
C	 0.7192165643	-0.4537531519	-1.2530534401	-0.064599
O	 0.0398415708	-0.0237634976	-2.4312479772	-0.424962
C	 2.1350359698	-0.0834933667	-1.2738364904	 0.280726
C	 3.2895478575	 0.2504829514	-1.3004625773	-0.419159
H	 1.037539685	 1.9611902682	 0.1462729365	 0.134157
H	-0.5261349541	 2.0303345285	-0.6924311526	 0.116927
H	-0.4739477059	 1.8978236149	 1.0675903908	 0.149259
H	 0.5587245489	-0.3739926004	 0.8843655615	 0.106518
H	-1.9701802933	-0.1531454859	-0.8287399543	 0.166842
H	-1.397125208	-1.6195670583	-0.0458647133	 0.147444
H	 0.6465694252	-1.5490574979	-1.2725636913	 0.11917
H	 0.3533945177	 0.8609527092	-2.6467938146	 0.294613
H	 4.3144349395	 0.5295527744	-1.3273727645	 0.206896
61.8357	84.9474	108.9369	176.7706	206.9483	227.0492	259.305	284.2293	320.1567	353.816	399.2545	455.8525	524.4325	580.9296	636.1745	677.2878	682.593	821.2337	872.3275	892.8065	964.3266	993.0309	1013.7109	1102.5898	1110.5099	1131.5893	1239.5724	1257.5255	1294.2725	1315.6877	1360.8118	1376.9297	1415.29	1418.0868	1469.6977	1501.4944	1505.332	2233.5781	2360.2468	3024.7637	3040.5306	3044.6651	3048.2564	3092.6483	3112.2272	3129.3852	3499.4857	3819.3523
CC(CC#N)C(O)C#C	C[C@@H](CC#N)[C@@H](O)C#C	
InChI=1S/C7H9NO/c1-3-7(9)6(2)4-5-8/h1,6-7,9H,4H2,2H3	InChI=1S/C7H9NO/c1-3-7(9)6(2)4-5-8/h1,6-7,9H,4H2,2H3/t6-,7-/m0/s1
