25
gdb 42099	3.12101	1.19475	1.15543	0.021	90.62	-0.2944	0.0685	0.3628	1250.4997	0.232893	-352.393589	-352.384846	-352.383902	-352.427678	34.267	
C	 0.2318428604	 1.4938594955	 0.4316571603	-0.205376
C	 1.6678457516	 1.8536062717	-0.0522173491	-0.205054
C	 2.0628650147	 0.747219113	-1.0605605248	-0.236261
C	 1.1476929538	-0.4572281654	-0.7298559086	 0.350962
C	-0.1755438423	 0.2472697991	-0.3824964464	-0.265038
C	 1.0595308497	-1.498321116	-1.859582955	-0.265037
C	 2.3469671677	-2.3406951523	-1.7342859799	-0.205377
C	 2.7488073675	-2.2622065349	-0.231615699	-0.205052
C	 1.7266426487	-1.3053499323	 0.4290691375	-0.236263
H	 0.2389022932	 1.2617951938	 1.501348596	 0.097931
H	-0.4723874567	 2.3195097319	 0.2971287302	 0.092733
H	 1.7102609899	 2.8441219876	-0.513781754	 0.094511
H	 2.3622398456	 1.879146464	 0.7930422888	 0.097092
H	 1.8546979127	 1.0815017969	-2.0843172782	 0.089289
H	 3.1288711054	 0.5032912852	-1.0181258278	 0.090245
H	-0.8716951319	-0.405980037	 0.153933996	 0.085672
H	-0.6729156166	 0.5516818893	-1.3124780756	 0.088775
H	 0.1783524019	-2.1315178181	-1.6937555584	 0.088774
H	 0.9425698341	-1.0389817335	-2.8467238909	 0.085672
H	 2.1981157006	-3.3697882937	-2.0727339379	 0.092732
H	 3.1384575333	-1.9181195827	-2.3612765053	 0.097931
H	 2.7397046596	-3.2447728031	 0.2484290668	 0.094512
H	 3.7683737531	-1.8790787607	-0.1267534483	 0.097091
H	 2.1727559596	-0.7008082525	 1.2247967655	 0.090246
H	 0.9144819545	-1.8829345158	 0.8872681681	 0.08929
50.1427	71.3284	147.2939	150.4843	259.1245	350.5957	393.7169	440.9713	613.0335	631.4671	648.2107	716.6747	784.9467	812.7529	823.2049	830.0361	890.5177	893.4495	914.2547	932.0433	963.6747	972.1581	998.8486	1028.0902	1050.2176	1053.5606	1066.3624	1078.0302	1116.5995	1200.2014	1202.363	1208.4002	1236.8435	1250.4815	1256.8747	1273.2264	1282.347	1305.7351	1313.1057	1322.7034	1331.4705	1341.0872	1347.7372	1365.4451	1366.3725	1482.5395	1485.3038	1491.3157	1495.4148	1495.933	1500.0031	1517.6157	1521.3013	3018.6911	3021.162	3026.3677	3030.9993	3043.785	3044.1043	3054.7374	3056.1369	3067.9859	3068.3964	3074.3415	3076.3536	3081.9501	3084.1401	3101.0821	3102.393
C1CCC2(C1)CCCC2	C1CCC2(C1)CCCC2	
InChI=1S/C9H16/c1-2-6-9(5-1)7-3-4-8-9/h1-8H2	InChI=1S/C9H16/c1-2-6-9(5-1)7-3-4-8-9/h1-8H2
