19
gdb 37216	3.31423	1.57103	1.26752	1.2458	81.77	-0.2257	0.0156	0.2413	1032.496	0.161439	-385.851094	-385.84388	-385.842936	-385.882712	29.144	
C	-0.0427606096	 1.4232623796	-0.2797947324	-0.273921
C	 1.3091001838	 0.8505649315	 0.00958995	-0.090583
C	 0.0463091373	-0.0459812489	 0.0893490228	-0.181371
C	 0.5004385581	-0.7656447009	-1.1414700707	 0.334415
C	 0.0946560292	-1.4957382907	-2.1702356524	-0.264258
C	 1.049511981	-1.4800759236	-3.3483808445	-0.268283
C	 1.6322983974	-0.0583538204	-3.5181107376	-0.05489
O	 2.2904106379	 0.4666839507	-2.3614702869	-0.283516
C	 1.8262156286	-0.0482955247	-1.1297840241	 0.075281
H	-0.4424655838	 2.0701090046	 0.4955146756	 0.114512
H	-0.3225407767	 1.7077784981	-1.2897202182	 0.119593
H	 1.9223224556	 1.2161867723	 0.8234593836	 0.089002
H	-0.4497426152	-0.4531320073	 0.9607162169	 0.097995
H	-0.8649045324	-1.9991978483	-2.2317857852	 0.090266
H	 1.8673015889	-2.2026645993	-3.2205095554	 0.114139
H	 0.5354949429	-1.7522711202	-4.2764022322	 0.104314
H	 2.3806031539	-0.0443481235	-4.3179692702	 0.101049
H	 0.8122898455	 0.6138293381	-3.8128843814	 0.091354
H	 2.6052926976	-0.705139377	-0.7115635874	 0.0849
91.0994	170.8652	230.5284	314.4198	399.1852	456.673	524.0133	555.5801	660.4922	675.9275	766.3781	805.5174	828.3606	855.6255	883.5491	912.3428	949.4428	956.9365	992.8894	1032.2239	1033.4864	1053.9293	1062.7273	1077.6442	1084.7982	1118.4128	1130.6177	1185.0788	1223.331	1234.1868	1278.5938	1288.7085	1303.9761	1338.5978	1359.7618	1370.9523	1412.4831	1473.5304	1488.0185	1512.5226	1771.4575	2972.9871	2985.662	3013.5229	3062.8204	3073.6721	3118.9471	3174.8432	3190.6669	3197.0604	3208.3493
C1C2C1C1=CCCOC21	C1[C@H]2[C@@H]1[C]1[CH]CCO[C@@H]21	
InChI=1S/C8H10O/c1-2-5-6-4-7(6)8(5)9-3-1/h2,6-8H,1,3-4H2	InChI=1S/C8H10O/c1-2-5-6-4-7(6)8(5)9-3-1/h2,6-8H,1,3-4H2/t6-,7-,8+/m0/s1
