19
gdb 43917	4.2342	1.08867	1.00978	3.7817	82.93	-0.2334	-0.043	0.1904	1222.2863	0.16033	-385.918435	-385.910572	-385.909628	-385.951295	30.608	
O	 0.4351836919	-0.007208227	-0.0046064167	-0.328869
C	 0.2192753371	 1.1822386255	 0.0062472941	 0.375023
C	-1.1647949874	 1.8535667198	 0.030808426	-0.442935
C	-0.9059978365	 3.3682027607	 0.036813393	 0.307248
C	-1.5934611165	 4.2894509924	-1.0305537787	-0.264392
C	-1.8107157729	 5.3660573058	 0.0629152185	-0.212818
C	-1.5618513838	 4.2754641226	 1.1355885634	-0.264393
C	 0.5974949127	 3.4634248733	 0.0154829071	-0.076581
C	 1.2169594306	 2.2773992344	-0.0012337699	-0.210228
H	-1.7399924177	 1.5275948633	-0.8417307925	 0.129746
H	-1.7143095467	 1.516243813	 0.9155018034	 0.129747
H	-1.0029210079	 4.5593695082	-1.9098991856	 0.10274
H	-2.5378915142	 3.8517817374	-1.3661623258	 0.107375
H	-1.0241624336	 6.1255356542	 0.0563411961	 0.105817
H	-2.7761435487	 5.8755280711	 0.0802930038	 0.103519
H	-2.4961704435	 3.8333208891	 1.4929309481	 0.107375
H	-0.9458550999	 4.5341180553	 2.0007410345	 0.102739
H	 1.0972215225	 4.4280561411	 0.0144268468	 0.114139
H	 2.2839860944	 2.0956229497	-0.0179893156	 0.114747
49.3861	123.2381	193.4346	291.7636	319.97	395.3575	406.0755	503.1108	598.1763	673.8138	684.0577	778.6587	807.6017	834.1042	834.1231	871.8559	878.334	915.1472	943.3246	981.4852	1004.0381	1038.6902	1061.6905	1079.7259	1141.5464	1180.5792	1184.4364	1213.1698	1221.1569	1255.2166	1257.0856	1276.3328	1283.7001	1308.9106	1371.2156	1446.1973	1475.475	1486.7496	1507.4031	1643.8433	1814.55	3051.9328	3052.6301	3056.0208	3063.8673	3093.8194	3099.1338	3107.0531	3121.6976	3172.7278	3223.3119
O=C1CC2(CCC2)C=C1	O=C1CC2(CCC2)C=C1	
InChI=1S/C8H10O/c9-7-2-5-8(6-7)3-1-4-8/h2,5H,1,3-4,6H2	InChI=1S/C8H10O/c9-7-2-5-8(6-7)3-1-4-8/h2,5H,1,3-4,6H2
