16
gdb 70115	2.45531	1.64714	1.25146	3.0525	73.4	-0.2523	-0.0082	0.2441	1018.0311	0.124743	-400.752197	-400.744479	-400.743534	-400.7843	30.022	
O	 0.0016732149	 1.3603305284	 0.0291298697	-0.46761
C	-0.0199537982	-0.0274600695	 0.0187299458	 0.39897
C	-0.4704730292	-0.7690236445	-1.2071723105	-0.340977
C	-1.3334800539	-0.7724929313	 0.0538379639	-0.138313
C	-1.1190641932	-1.9301631663	 0.9658156057	-0.070098
C	 0.1194869217	-1.9587709975	 1.4598638926	-0.092233
C	 0.9303775281	-0.7524184664	 0.9992943056	-0.255445
C	 2.2196257543	-1.1005863311	 0.4000178862	 0.25952
N	 3.2335949131	-1.365899716	-0.0881034335	-0.331287
H	 0.6879190427	 1.6578893243	-0.5792072499	 0.294446
H	-0.8174573057	-0.1426865302	-2.0221925518	 0.123337
H	 0.0261994999	-1.6880236339	-1.4997325928	 0.133153
H	-2.2763269324	-0.2390937981	 0.0334407747	 0.109759
H	-1.8867326905	-2.666426337	 1.1734454242	 0.113719
H	 0.542072465	-2.7160080071	 2.1073402438	 0.121951
H	 1.1287928035	-0.0745396439	 1.8414207465	 0.141108
99.3615	135.4274	247.491	312.1192	328.6874	373.3331	412.3551	486.5224	528.1698	544.7803	626.6587	724.0964	751.0554	788.7065	866.34	898.8327	948.8969	963.2035	966.5873	999.9116	1033.4458	1053.3603	1066.363	1071.533	1144.6251	1188.8923	1250.2243	1260.5377	1309.2755	1324.0668	1369.3529	1404.3568	1475.9449	1668.6328	2353.2858	3016.6433	3130.3517	3187.1285	3200.4671	3226.1774	3228.2777	3790.5785
OC12CC1C=CC2C#N	O[C@]12C[C@H]1C=C[C@H]2C#N	
InChI=1S/C7H7NO/c8-4-6-2-1-5-3-7(5,6)9/h1-2,5-6,9H,3H2	InChI=1S/C7H7NO/c8-4-6-2-1-5-3-7(5,6)9/h1-2,5-6,9H,3H2/t5-,6+,7-/m1/s1
