20
gdb 80534	2.13745	1.80742	1.29875	2.2158	79.36	-0.2028	-0.009	0.1938	1073.9814	0.171317	-403.13233	-403.12385	-403.122906	-403.165119	32.66	
C	-0.0972459041	 1.6065090153	 0.0630162475	-0.432193
C	 0.0248936461	 0.0912792347	 0.0018855626	 0.012852
C	 0.8217040694	-0.6107743533	-1.1622229664	-0.179343
C	 2.2267851814	-0.0008448334	-1.0025199947	-0.186987
N	 2.3342833298	 0.028845396	 0.4942012325	-0.067152
C	 3.5446637223	-0.5825842394	 1.0219193158	-0.329401
C	 1.0752417735	-0.6356551259	 0.9022351134	-0.138206
C	 0.9530295365	-1.7690051433	-0.1414512962	 0.441405
O	 0.8960747979	-2.9617686182	-0.1681119398	-0.326286
H	 0.8821460258	 2.0866710496	 0.0975176073	 0.141277
H	-0.6482880405	 1.9887693987	-0.8024714615	 0.117827
H	-0.6456044505	 1.90503056	 0.9624814816	 0.120343
H	-0.9546035127	-0.3841309047	 0.1143200382	 0.091064
H	 0.4223140379	-0.7453561388	-2.1651835307	 0.084596
H	 2.9930935846	-0.6411057063	-1.4579943658	 0.106846
H	 2.3258591733	 1.0044807169	-1.426711859	 0.106608
H	 4.4145350167	-0.0128130758	 0.6801905945	 0.12329
H	 3.5274677948	-0.5425302429	 2.1156478635	 0.122814
H	 3.6849086385	-1.6357910134	 0.7191863921	 0.10855
H	 0.9675783593	-0.7627811959	 1.9778374452	 0.082099
108.8588	151.8014	170.8578	229.431	249.0912	266.2573	349.9983	402.6863	488.0138	537.4498	595.2978	664.2129	717.3363	764.4464	807.4149	836.375	919.3474	954.0308	987.5226	1030.3317	1044.7523	1051.4056	1085.2146	1096.6416	1117.9513	1152.1688	1159.5443	1182.6925	1208.1107	1226.2356	1240.0399	1270.2129	1296.4816	1350.3226	1392.5335	1407.0989	1457.9364	1489.881	1490.8558	1502.1729	1504.1991	1530.9676	1899.6559	2946.5265	3015.7403	3040.4877	3053.4294	3062.0207	3063.6505	3099.1461	3104.3163	3137.7019	3141.6263	3146.9471
CC1C2CN(C)C1C2=O	C[C@H]1[C@H]2CN(C)[C@@H]1C2=O	
InChI=1S/C7H11NO/c1-4-5-3-8(2)6(4)7(5)9/h4-6H,3H2,1-2H3	InChI=1S/C7H11NO/c1-4-5-3-8(2)6(4)7(5)9/h4-6H,3H2,1-2H3/t4-,5+,6-/m0/s1
