15
gdb 105607	2.28151	1.47499	1.28435	2.051	62.28	-0.2559	-0.0564	0.1995	1044.7791	0.10984	-494.905408	-494.896519	-494.895575	-494.939516	30.538	
C	-0.1227684143	 1.435645486	 0.0353440129	-0.275871
O	 0.0854507824	 0.0192036483	 0.106122313	-0.286745
C	 0.6799050787	-0.5609812342	-1.0009672556	 0.132157
C	 0.443080734	-2.0859503623	-1.0980637888	-0.127031
O	-0.2065265359	-1.9284236304	-2.4001132144	-0.228681
C	-0.1345147533	-0.5659798294	-2.3395209367	 0.394765
O	-0.5897875481	 0.2327298747	-3.0900034411	-0.309624
C	 2.1427751053	-0.191483812	-1.2324514279	 0.126509
O	 2.7562336797	 0.589908251	-0.5588236818	-0.247353
H	 0.8275955768	 1.9743804001	 0.0264015371	 0.14872
H	-0.7125862836	 1.7015646386	-0.8483866217	 0.14332
H	-0.6825606354	 1.6943886626	 0.9354407641	 0.137422
H	 1.3195879837	-2.7309884794	-1.1777696814	 0.137242
H	-0.2568307431	-2.4468546989	-0.3442276518	 0.153997
H	 2.6090523831	-0.7245037344	-2.0924798259	 0.101171
92.3975	105.6929	117.5543	150.0205	199.238	255.0181	259.5195	346.8275	373.0004	485.8254	613.2455	705.6923	764.9972	787.8876	897.9773	908.6972	968.3586	1048.7941	1076.9619	1108.8127	1150.6779	1170.6206	1178.1089	1228.6634	1272.1862	1347.784	1420.0907	1479.2835	1488.2108	1504.1158	1515.284	1837.474	1933.2791	2873.7227	3039.966	3084.8648	3120.4003	3145.9734	3156.9192
COC1(COC1=O)C=O	CO[C@]1(COC1=O)C=O	
InChI=1S/C5H6O4/c1-8-5(2-6)3-9-4(5)7/h2H,3H2,1H3	InChI=1S/C5H6O4/c1-8-5(2-6)3-9-4(5)7/h2H,3H2,1H3/t5-/m0/s1
