16
gdb 42700	4.32895	1.65115	1.52138	2.2481	71.	-0.2401	-0.0132	0.2269	869.1025	0.127483	-400.693293	-400.687563	-400.686619	-400.723269	24.285	
O	-0.0579811193	-0.0135741166	-0.1253122715	-0.32425
C	-0.0220295097	 1.1710433933	 0.0335816778	 0.435003
C	-1.0631667534	 2.2960203883	 0.0663866984	-0.186857
C	-0.8186231172	 3.0337106746	 1.3935840932	-0.07145
C	-0.9156969442	 4.5258271788	 1.0091982414	-0.176285
N	 0.334384369	 4.3365302068	 0.2048493603	-0.141909
C	 0.7383012266	 3.213081468	 1.1569554684	-0.008791
C	 1.0713073758	 2.2364020983	 0.0055092132	-0.192091
C	 0.0317515524	 3.1783728759	-0.7059602622	-0.015028
H	-2.08446756	 2.152800118	-0.277697854	 0.090978
H	-1.2538662604	 2.6117755275	 2.2995749371	 0.083837
H	-1.790751632	 4.8766728568	 0.4526742326	 0.106935
H	-0.7090526034	 5.200169832	 1.8458019401	 0.114874
H	 1.4075697978	 3.4405244531	 1.9848816925	 0.090063
H	 2.0978521845	 2.0670509423	-0.3043948236	 0.099878
H	-0.0492079264	 3.3347061228	-1.7781124937	 0.095093
146.6516	329.0449	420.6948	524.8735	564.4214	687.0365	724.0168	746.7537	795.7268	806.6682	841.5928	858.7554	892.2674	909.353	928.4059	951.6602	974.4925	998.9177	1004.5131	1019.0287	1074.9034	1102.4823	1131.3813	1158.1957	1175.5195	1176.9015	1194.4972	1206.2511	1223.2619	1247.8732	1270.5995	1287.6867	1302.994	1499.3109	1894.513	3045.8151	3104.8867	3115.3587	3132.3502	3152.9193	3160.1483	3176.0173
O=C1C2C3CN4C3C1C24	O=C1[C@H]2[C@@H]3CN4[C@@H]3[C@@H]1[C@@H]24	
InChI=1S/C7H7NO/c9-7-3-2-1-8-5(2)4(7)6(3)8/h2-6H,1H2	InChI=1S/C7H7NO/c9-7-3-2-1-8-5(2)4(7)6(3)8/h2-6H,1H2/t2-,3-,4+,5-,6+/m0/s1
