16
gdb 43452	2.97212	1.50927	1.08863	1.4506	72.47	-0.2378	0.0041	0.2419	1076.0769	0.12605	-434.119176	-434.111349	-434.110404	-434.151521	30.171	
N	-0.1491933201	 1.2809105821	-0.0114208714	-0.557915
C	-0.0332058934	 0.0159438188	-0.0185790413	 0.35742
N	 1.0846330439	-0.8029643162	-0.022315326	-0.415858
C	 0.7759344121	-2.173515858	-0.0098606904	 0.43881
O	 1.567066602	-3.0825286767	 0.0599918757	-0.395211
N	-0.5951887446	-2.2351110312	-0.1054081774	-0.436131
C	-1.1979518266	-0.9315869543	-0.0255730863	 0.335575
C	-2.4365195057	-0.6283129167	 0.7800571805	-0.306842
C	-2.4785613472	-0.5644871348	-0.7266302831	-0.299984
H	 0.7544065762	 1.752921929	-0.0078624254	 0.214772
H	 2.0404508234	-0.4883968552	-0.0029554373	 0.265717
H	-1.067683033	-3.0874768456	 0.1432432675	 0.261824
H	-2.9271039345	-1.4618669235	 1.2721973249	 0.118381
H	-2.4334331271	 0.3049803396	 1.3316686753	 0.148614
H	-2.5043213655	 0.4133197842	-1.1938869486	 0.149538
H	-2.9942579898	-1.3568461715	-1.2581714568	 0.121292
95.432	127.7705	235.9447	246.4444	338.0695	364.8696	436.7412	494.6187	518.4734	592.9881	641.6964	699.1023	756.0701	766.8397	779.7563	834.6306	922.7932	937.1862	948.423	986.583	1012.6706	1067.2109	1084.4191	1092.6704	1199.3513	1203.1852	1280.6489	1342.7182	1349.62	1396.0237	1443.8601	1447.6325	1492.3517	1764.5801	1870.2534	3131.7161	3137.6138	3223.7052	3238.5712	3486.1743	3668.3149	3671.9481
N=C1NC(=O)NC11CC1	[NH][C]1NC(=O)NC21CC2	
InChI=1S/C5H7N3O/c6-3-5(1-2-5)8-4(9)7-3/h1-2H2,(H3,6,7,8,9)	InChI=1S/C5H7N3O/c6-3-5(1-2-5)8-4(9)7-3/h1-2H2,(H3,6,7,8,9)
