15
gdb 130286	3.41676	1.58518	1.09157	3.1325	73.71	-0.2136	-0.0151	0.1985	1040.93	0.115008	-416.803966	-416.797014	-416.79607	-416.835072	27.664	
N	-0.0049984556	 1.3933851995	 0.1525210003	-0.591581
C	 0.0614023615	 0.0153945828	 0.0399865864	 0.234128
N	-1.0479933122	-0.7081126158	 0.01535334	-0.233521
O	-0.6336722344	-2.0690442534	-0.0107496809	-0.238019
C	 0.6923074191	-2.0694298167	-0.0198364895	 0.391529
C	 1.2183914461	-0.8163097334	 0.0113648912	 0.15146
C	 2.6767572402	-0.9360715181	 0.014849409	-0.223899
C	 2.9982199605	-2.2460575535	-0.0155279034	-0.089628
C	 1.7498209914	-3.1250789044	-0.0390390471	-0.420611
H	 0.7040408076	 1.8855636475	-0.371818613	 0.254769
H	-0.9300582896	 1.7568836796	-0.0364171768	 0.260588
H	 3.3792404073	-0.1135687608	 0.0416636689	 0.104229
H	 3.9974561983	-2.6597542829	-0.0212164238	 0.104978
H	 1.6985029734	-3.7944107091	 0.8286135159	 0.148697
H	 1.7049937462	-3.7610422012	-0.9318074374	 0.14688
164.748	221.3353	257.1712	317.8889	359.0826	454.7833	510.7807	604.5861	619.3424	644.4345	666.8076	709.6626	761.3614	792.8991	868.5757	907.3513	927.6394	928.7752	939.8752	1049.613	1128.3372	1134.456	1149.9919	1227.4355	1251.644	1367.8884	1384.5569	1431.4287	1510.5785	1548.9424	1586.6149	1629.0987	1653.608	3040.3483	3071.9067	3214.1247	3236.9523	3553.5071	3654.4705
NC1=NOC2=C1C=CC2	Nc1noc2c1C=CC2	
InChI=1S/C6H6N2O/c7-6-4-2-1-3-5(4)9-8-6/h1-2H,3H2,(H2,7,8)	InChI=1S/C6H6N2O/c7-6-4-2-1-3-5(4)9-8-6/h1-2H,3H2,(H2,7,8)
