16
gdb 77767	2.24536	1.92179	1.20199	4.356	70.12	-0.2458	-0.0116	0.2342	1020.7544	0.122258	-437.778012	-437.770192	-437.769248	-437.810181	29.871	
C	 0.051757057	 1.4558547541	-0.3241111249	-0.33043
N	 0.0315546538	 0.0207090225	-0.0253219421	-0.109544
C	-1.0775547459	-0.4892674935	 0.8921071771	-0.281286
C	-0.111222826	-1.694194749	 1.0745495882	 0.516779
O	-0.0929549951	-2.8771634559	 1.102136529	-0.302962
C	 0.8181496803	-0.4529342062	 1.1948452761	-0.281286
C	-0.3089072725	 0.113054545	 2.0955176668	 0.512558
C	-0.4708471433	 1.2637843192	 2.9714538931	-0.299286
O	-0.5239224745	-0.0911881211	 3.4664257933	-0.282905
H	 1.0155294405	 1.6918596849	-0.7850315313	 0.133072
H	-0.7288486006	 1.6584535729	-1.0634428737	 0.133071
H	-0.0976415063	 2.1266686806	 0.5314519438	 0.111995
H	-2.1312551224	-0.4445435563	 0.6273925441	 0.10892
H	 1.8994503575	-0.3672922748	 1.2710862397	 0.108921
H	 0.4004820562	 1.8369799662	 3.2837928301	 0.131192
H	-1.4168917589	 1.8021466115	 2.9935623407	 0.131192
122.0572	183.2404	187.0514	237.8997	268.2548	355.1267	373.7689	501.5453	528.2094	584.9582	695.1901	728.0988	745.8647	787.8979	805.8891	898.3117	939.6804	1018.1232	1037.4691	1096.1778	1096.4315	1116.2942	1124.0468	1124.5096	1136.5567	1178.5154	1181.436	1199.3987	1235.8826	1441.5035	1453.3462	1489.3699	1499.0028	1544.553	1955.2092	3017.205	3085.6752	3088.0858	3110.507	3156.3579	3160.3164	3176.0424
CN1C2C(=O)C1C21CO1	CN1[C@H]2C(=O)[C@@H]1[C@]12CO1	
InChI=1S/C6H7NO2/c1-7-4-3(8)5(7)6(4)2-9-6/h4-5H,2H2,1H3	InChI=1S/C6H7NO2/c1-7-4-3(8)5(7)6(4)2-9-6/h4-5H,2H2,1H3/t4-,5+,6+
