19
gdb 109635	2.09416	1.3107	1.05304	4.2282	78.04	-0.2351	0.0357	0.2708	1241.1231	0.157294	-419.189575	-419.179104	-419.17816	-419.225065	36.755	
C	-0.4775861948	 1.1551631198	-0.2178385221	-0.24315
O	 0.4235697318	 0.1016943816	 0.0869654847	-0.23764
C	 0.9038584391	-0.551332076	-1.0315481743	 0.079229
C	 1.5390482202	-1.8795574141	-0.8022214708	-0.098293
N	 1.5428107326	-2.4004290164	 0.5296483377	-0.50827
C	 0.1743468019	-1.8066016116	-1.5509944224	 0.088702
C	-1.0741631619	-2.2992708827	-0.843560983	-0.454925
C	 0.2253181447	-2.0103580073	-2.9710140252	 0.232818
N	 0.283840556	-2.1649730725	-4.1176965995	-0.353222
H	-0.0018401249	 1.9096265968	-0.860223434	 0.119175
H	-1.3784190991	 0.7820399809	-0.7212304342	 0.125211
H	-0.7581627165	 1.6168415476	 0.7306828431	 0.135976
H	 1.3400710225	 0.1011253235	-1.7889085006	 0.107192
H	 2.3901074464	-2.1054811926	-1.4421692159	 0.108018
H	 2.1414755362	-3.2113259914	 0.6095930876	 0.242124
H	 1.8408040458	-1.6986860188	 1.196747073	 0.249108
H	-1.0008207325	-2.084227917	 0.221781478	 0.151408
H	-1.968914937	-1.8193894872	-1.2505077411	 0.124924
H	-1.1824078905	-3.3806102226	-0.967285751	 0.131616
103.6724	107.7335	121.2555	132.515	151.9472	174.3255	194.9962	225.2806	280.9532	333.1286	458.4149	489.5925	559.2381	566.6901	600.8122	686.6452	745.4168	845.604	881.4936	949.9835	1027.6538	1042.5329	1091.5891	1117.1344	1167.4498	1182.6381	1188.0347	1218.9436	1256.1742	1270.0018	1303.957	1374.0337	1406.9006	1454.8017	1483.2188	1485.6725	1491.6885	1499.0254	1507.916	1647.3438	2335.1213	2999.5211	3050.6223	3060.4069	3093.7529	3111.51	3114.6378	3132.3388	3163.4291	3532.3587	3624.0867
COC1C(N)C1(C)C#N	CO[C@H]1[C@@H](N)[C@]1(C)C#N	
InChI=1S/C6H10N2O/c1-6(3-7)4(8)5(6)9-2/h4-5H,8H2,1-2H3	InChI=1S/C6H10N2O/c1-6(3-7)4(8)5(6)9-2/h4-5H,8H2,1-2H3/t4-,5+,6+/m1/s1
