18
gdb 48433	3.68003	0.81842	0.73555	1.7595	79.48	-0.2585	-0.0423	0.2162	1531.6202	0.145431	-401.900936	-401.891461	-401.890517	-401.935939	34.17	
O	-0.3425002002	 0.4620426264	 1.0154549988	-0.272215
C	-0.1336085992	 1.2432423207	 0.116699196	 0.099237
C	 1.176596899	 1.9341833019	-0.0877503087	 0.23815
C	 1.46972124	 2.4773425929	-1.4693961213	-0.285727
C	 1.8047843067	 1.3510470804	-2.4723342801	-0.352249
C	 2.1060745708	 1.8549380072	-3.805251344	 0.292378
C	 2.3473288577	 2.3007849398	-4.8950707453	-0.434819
C	 1.702053634	 2.6098528049	 1.1500989199	-0.268192
N	 2.3117468609	 1.3788000704	 0.6694345396	-0.337878
H	-0.9266106843	 1.4998504054	-0.6187048938	 0.087241
H	 0.6084314783	 3.051389695	-1.8317536837	 0.114647
H	 2.3138522546	 3.1699029082	-1.4187871124	 0.125152
H	 2.6577314206	 0.7842564623	-2.0809477137	 0.154981
H	 0.96668919	 0.6432342972	-2.5313525812	 0.129121
H	 2.5659617513	 2.6795837881	-5.8624936054	 0.195875
H	 2.2978468374	 3.5100802201	 1.0255793843	 0.129759
H	 1.0839490385	 2.5723728062	 2.0427262789	 0.134526
H	 1.9526208339	 0.5994259128	 1.2229119719	 0.250014
60.6141	81.6911	102.6658	156.0311	212.8133	271.6624	321.4825	328.9077	366.3085	443.7703	488.2352	619.5526	643.0887	664.3584	759.0177	768.4332	852.274	909.2558	950.5548	970.7298	1009.5105	1028.5195	1039.3859	1048.134	1118.2623	1143.2065	1178.9146	1276.8465	1293.3167	1307.0102	1338.4076	1363.7104	1389.5055	1429.7043	1473.0602	1485.9034	1499.6774	1801.1367	2240.1429	2900.1527	3016.2795	3042.7306	3062.7849	3101.8825	3109.288	3203.5461	3457.122	3507.4547
O=CC1(CCC#C)CN1	O=C[C@@]1(CCC#C)CN1	
InChI=1S/C7H9NO/c1-2-3-4-7(6-9)5-8-7/h1,6,8H,3-5H2	InChI=1S/C7H9NO/c1-2-3-4-7(6-9)5-8-7/h1,6,8H,3-5H2/t7-/m1/s1
