12
gdb 5438	3.58854	1.97689	1.28489	4.989	62.77	-0.2626	-0.0381	0.2245	866.2604	0.084885	-377.575424	-377.568604	-377.567659	-377.606718	24.014	
C	 0.1176521776	 1.5024247015	 0.0754793718	-0.502962
C	-0.0301110517	 0.0296685997	 0.0429723341	 0.281269
C	-1.0894461855	-0.8217722399	-0.0975817728	 0.084553
N	-0.640758259	-2.1434519321	-0.0544797667	-0.297682
C	 0.630679356	-2.027386284	 0.1054005046	 0.069579
O	 1.0810970524	-0.7458370977	 0.1741297834	-0.166996
C	-2.452260297	-0.4657833418	-0.2641890703	 0.21921
N	-3.5543342982	-0.13807039	-0.3985066914	-0.3382
H	 0.7722932432	 1.8506031426	-0.7304247273	 0.158008
H	-0.8612410979	 1.9708834662	-0.0426479236	 0.168442
H	 0.552603916	 1.8339953525	 1.0242368848	 0.158006
H	 1.3715975542	-2.806266247	 0.1903739834	 0.166771
130.288	143.6458	176.1071	254.3784	330.326	520.1569	547.5293	595.7714	646.7514	706.6783	736.8319	845.8339	953.3273	976.9998	1064.4569	1098.7301	1137.007	1233.6753	1301.6246	1365.0153	1420.833	1471.7692	1480.008	1569.2944	1634.9532	2354.0125	3040.8126	3097.6843	3142.166	3283.4661
CC1=C(N=CO1)C#N	Cc1c(nco1)C#N	
InChI=1S/C5H4N2O/c1-4-5(2-6)7-3-8-4/h3H,1H3	InChI=1S/C5H4N2O/c1-4-5(2-6)7-3-8-4/h3H,1H3
