19
gdb 64462	2.21488	1.64977	1.31646	3.0489	70.64	-0.2554	-0.0297	0.2257	1057.1962	0.158518	-460.183454	-460.174659	-460.173715	-460.216976	33.468	
C	 0.7904574582	 1.3022199592	 0.0036162815	-0.432342
C	-0.0641714534	 0.0170138084	 0.0017073596	 0.266563
O	-1.4266870032	 0.3711846895	 0.0513031841	-0.479011
C	 0.210859519	-0.8535436929	-1.2661043706	-0.123288
O	 0.8299491503	-2.0979992648	-0.9816129733	-0.24071
C	 1.9964677676	-1.9381692537	-0.1971596694	-0.086119
C	 1.6127040258	-1.5372490935	 1.2437531904	-0.327974
C	 0.2841938527	-0.8075471258	 1.247245652	 0.372482
O	-0.5005922801	-0.8620896297	 2.168256552	-0.340655
H	 1.8630359507	 1.0920424255	-0.056877912	 0.113153
H	 0.5107856439	 1.908570535	-0.8626873385	 0.137568
H	 0.5935851721	 1.8852092264	 0.9075784453	 0.130118
H	-1.7189392842	 0.1343395289	 0.9471963825	 0.28993
H	-0.7525492757	-1.0819434797	-1.7237577081	 0.134133
H	 0.8242116975	-0.2880090175	-1.9852673969	 0.090071
H	 2.5178666394	-2.8983198457	-0.2050201628	 0.122777
H	 2.6658604634	-1.1921532847	-0.6543713106	 0.096955
H	 1.503207107	-2.4082819889	 1.8945411799	 0.141617
H	 2.3765786789	-0.891740986	 1.6951737849	 0.134731
66.2514	82.3777	218.519	246.5374	286.2409	334.4893	360.731	399.8456	428.1523	458.0849	491.209	541.4358	600.99	655.6685	697.7508	850.9189	913.6945	929.8965	955.2121	982.4939	1001.6911	1019.2057	1110.9362	1126.5342	1149.2198	1188.9702	1208.1674	1250.8609	1272.641	1313.0556	1333.5698	1381.0193	1399.2699	1402.1122	1426.2254	1449.6514	1484.4511	1490.1695	1492.959	1506.9124	1804.506	2976.1942	2981.3284	3037.0537	3042.5064	3093.4661	3109.8551	3113.3509	3121.5734	3125.4776	3668.0651
CC1(O)COCCC1=O	C[C@@]1(O)COCCC1=O	
InChI=1S/C6H10O3/c1-6(8)4-9-3-2-5(6)7/h8H,2-4H2,1H3	InChI=1S/C6H10O3/c1-6(8)4-9-3-2-5(6)7/h8H,2-4H2,1H3/t6-/m1/s1
