13
gdb 129231	3.14717	1.50745	1.01924	0.8561	80.52	-0.2355	-0.0895	0.1461	1064.9059	0.089997	-411.731796	-411.724388	-411.723444	-411.763801	27.897	
N	-0.0516416957	 1.3610170001	 0.0108078479	-0.541278
C	-0.0336495913	 0.0861943359	 0.0036574568	 0.344511
N	 1.118843548	-0.7202211943	-0.0079313034	-0.296621
N	 1.2151007606	-2.0624437228	-0.0159342396	-0.027529
N	 0.1472810726	-2.7519380282	-0.0131256248	-0.215613
C	-1.0720467649	-2.1018859443	-0.0019910492	-0.054406
C	-1.2370929065	-0.7492660681	 0.0064945524	 0.045308
C	-2.515494888	-0.1447701114	 0.0177503303	 0.284894
C	-3.6166771383	 0.3415495626	 0.0272329679	-0.368597
H	 0.8874143781	 1.7615223858	 0.0072060018	 0.208099
H	 2.0244291207	-0.2704341243	-0.0110564711	 0.274255
H	-1.9282940762	-2.7654660197	-0.00034987	 0.140703
H	-4.5810342293	 0.7866097888	 0.035568331	 0.206273
101.6673	144.0296	180.362	321.1119	374.2419	459.589	468.6149	559.0012	597.6644	604.5374	631.8508	655.2782	694.9112	747.8972	780.0075	816.5377	932.0555	961.1057	1056.9505	1085.7882	1162.1132	1215.7395	1274.0323	1370.0177	1435.8031	1532.4473	1606.8195	1723.1322	2228.273	3212.897	3467.8846	3502.008	3599.5517
N=C1NN=NC=C1C#C	[NH]c1[nH]nncc1C#C	
InChI=1S/C5H4N4/c1-2-4-3-7-9-8-5(4)6/h1,3H,(H2,6,7,8)	InChI=1S/C5H9N4/c1-2-4-3-7-9-8-5(4)6/h1,4-9H,3H2
