25
gdb 111309	2.19608	1.32923	1.11754	0.1763	92.27	-0.2479	0.0862	0.3341	1302.8862	0.228121	-352.340166	-352.330229	-352.329285	-352.374294	38.965	
C	 1.2333396662	 0.9095160534	 0.8971609134	-0.381997
C	 0.1343443661	 0.5656048601	-0.1144077306	-0.195891
C	 0.6683670354	-0.2178791345	-1.3119932235	-0.018606
C	 1.1489337635	-1.6626115095	-1.0970881395	-0.051118
C	 0.0068304214	-2.5743012114	-0.7412333132	-0.304904
C	 0.1915120881	-2.1698232976	-2.1750367662	-0.069666
C	-0.3113967564	-0.7371489519	-2.4500953104	 0.301395
C	-1.8108037927	-0.4893591442	-2.2792481314	-0.443136
C	 0.1460045796	-0.2520639495	-3.8277978647	-0.441047
H	 1.7040619898	 0.0019884772	 1.2901636915	 0.120171
H	 2.0202653444	 1.517608906	 0.4365693351	 0.111075
H	 0.8326470531	 1.4712460912	 1.7467868684	 0.108899
H	-0.6551277446	-0.0022220297	 0.3914922883	 0.091904
H	-0.3382107724	 1.4902173256	-0.4710230383	 0.09132
H	 1.462753783	 0.3739170964	-1.7815608596	 0.061592
H	 2.1770115199	-1.9563026102	-0.9204313622	 0.078698
H	 0.2913113004	-3.5970001108	-0.5133367252	 0.107642
H	-0.8386739233	-2.2201505773	-0.1581180816	 0.103675
H	 0.3786187354	-2.9040441999	-2.9514959627	 0.075378
H	-2.1888207302	-0.8411792772	-1.3158460921	 0.110026
H	-2.0476504165	 0.5779382871	-2.358830338	 0.10947
H	-2.3733655087	-1.0100395582	-3.0629039241	 0.10847
H	-0.4138086795	-0.7529251442	-4.6268091712	 0.106972
H	-0.0106206004	 0.8273531394	-3.9369324637	 0.107995
H	 1.2098646283	-0.4572963403	-3.9871312886	 0.111682
77.1099	150.4502	163.8079	213.5369	229.222	252.5695	279.0912	297.2087	307.3947	348.2141	458.9774	492.9077	528.1112	604.7547	742.0524	765.6162	799.1352	820.6531	889.957	925.3419	941.9291	950.5713	975.695	992.5192	999.8661	1016.6179	1023.0613	1060.8315	1070.7226	1085.3865	1116.2614	1133.8451	1180.3519	1197.4629	1220.5042	1237.593	1269.9649	1285.368	1317.9955	1343.911	1363.8525	1394.0064	1401.6485	1409.2296	1422.4918	1481.6293	1482.8708	1487.2344	1496.2107	1499.462	1504.4109	1507.953	1511.3647	3017.382	3020.614	3026.9608	3028.5506	3031.2343	3059.0738	3081.081	3086.937	3093.7636	3096.5249	3101.3563	3108.1779	3119.0535	3160.4476	3174.6082	3198.7618
CCC1C2CC2C1(C)C	CC[C@H]1[C@H]2C[C@H]2C1(C)C	
InChI=1S/C9H16/c1-4-7-6-5-8(6)9(7,2)3/h6-8H,4-5H2,1-3H3	InChI=1S/C9H16/c1-4-7-6-5-8(6)9(7,2)3/h6-8H,4-5H2,1-3H3/t6-,7+,8-/m1/s1
