19
gdb 82577	3.19703	1.46856	1.2463	3.1677	74.73	-0.2414	0.0643	0.3058	1055.6902	0.159816	-422.974762	-422.966903	-422.965959	-423.00729	30.883	
O	-0.1555321581	 1.469293243	 0.1983346509	-0.443588
C	-0.153489654	 0.0841844017	 0.0178597479	 0.135465
C	-0.3626463742	-0.8881190568	 1.1411601119	-0.102808
C	-1.3663483461	-0.3005504822	 2.1381978557	-0.306176
C	-2.4019430711	-0.1693802176	 0.9862019485	 0.449198
C	-3.8322914931	-0.7307685035	 1.0963792435	-0.365535
C	-4.2833320188	 0.6864523327	 0.690670167	-0.074806
O	-2.9190425922	 1.1571829803	 0.6851358709	-0.327326
C	-1.4008016686	-0.7473564988	-0.006144098	-0.198463
H	-1.0680063789	 1.7794717136	 0.1314970896	 0.30349
H	 0.5982046175	-0.230517936	-0.7037263834	 0.095497
H	 0.3154474891	-1.7091126798	 1.3383810108	 0.088344
H	-1.6960989949	-1.0069780903	 2.9039474234	 0.101558
H	-1.0721683163	 0.6423143495	 2.606073845	 0.116375
H	-4.0772471795	-1.5285729	 0.3929149632	 0.114846
H	-4.120946112	-1.036759995	 2.1037315487	 0.115058
H	-4.7471134679	 0.7674701231	-0.2994004639	 0.107654
H	-4.8972149285	 1.2289117146	 1.41803029	 0.10962
H	-1.6507162925	-1.4120699884	-0.8262124016	 0.081598
68.6519	134.7019	178.1452	272.7136	363.9033	387.6124	413.9993	476.931	526.622	659.2436	741.1293	778.805	788.4079	841.0436	862.3539	894.156	916.0351	967.766	977.5926	978.1011	1001.8179	1015.17	1031.2544	1076.8482	1101.8576	1153.8888	1166.2574	1186.7082	1190.534	1209.1219	1223.6222	1246.7438	1265.9057	1311.4309	1346.5098	1350.6733	1395.2625	1438.0768	1472.3724	1487.2632	1531.2254	3025.8666	3060.1379	3068.7601	3075.8044	3116.3835	3127.3548	3131.0058	3164.1104	3191.4983	3759.6419
OC1C2CC3(CCO3)C12	O[C@H]1[C@H]2C[C@]3(CCO3)[C@@H]12	
InChI=1S/C7H10O2/c8-6-4-3-7(5(4)6)1-2-9-7/h4-6,8H,1-3H2	InChI=1S/C7H10O2/c8-6-4-3-7(5(4)6)1-2-9-7/h4-6,8H,1-3H2/t4-,5+,6-,7+/m0/s1
