23
gdb 58768	2.93852	1.27588	1.22233	1.4863	84.39	-0.2398	0.0808	0.3206	1191.0234	0.206404	-388.286768	-388.277901	-388.276957	-388.320004	35.137	
C	 0.0280527822	 1.4610739016	-0.2562411604	-0.400258
C	-0.0059776806	-0.0394152212	 0.0708924724	-0.080004
C	 0.7431949895	-0.3583648177	 1.3727441665	-0.400621
C	-1.4238785111	-0.5701502839	 0.1094032754	 0.459396
C	-1.7672205431	-2.0833282164	 0.0552731584	-0.283318
C	-3.0114888357	-1.4695931903	-0.6145949198	 0.074148
C	-3.7256587696	-0.7352129732	 0.5379311685	-0.217053
C	-2.4660042365	-0.0205268511	 1.1217463186	-0.264477
O	-2.1569500896	-0.4195525871	-1.1604856054	-0.34365
H	 1.0582713583	 1.7948384353	-0.4159747733	 0.108014
H	-0.5472072802	 1.6745085391	-1.1609149745	 0.13643
H	-0.3891472497	 2.0587569228	 0.5614608132	 0.112364
H	 0.4938817103	-0.570711596	-0.7497800349	 0.078524
H	 0.3030767501	 0.1700126639	 2.2254785502	 0.117896
H	 0.7266300399	-1.4302582841	 1.5958696715	 0.115449
H	 1.7901646032	-0.0487494033	 1.2974559693	 0.114349
H	-1.1344724463	-2.6137852989	-0.6579511566	 0.104107
H	-1.8819366421	-2.6438387618	 0.9872063866	 0.089081
H	-3.6092524718	-1.9901268986	-1.3628164452	 0.074323
H	-4.471794734	-0.0327253108	 0.160923719	 0.105685
H	-4.2106227873	-1.4154026055	 1.243684553	 0.095371
H	-2.2470643341	-0.3049100171	 2.1541772418	 0.097867
H	-2.5414902717	 1.0669772943	 1.0693788457	 0.106377
67.6852	159.3768	202.705	225.0328	244.0734	283.4849	302.1174	407.8901	452.0443	472.5377	551.6038	600.4099	711.1209	824.4535	831.895	842.7561	870.6225	894.6255	920.4103	935.0596	948.2126	957.7308	972.9829	999.9474	1026.597	1056.6964	1100.0821	1121.6675	1135.7854	1167.138	1194.7206	1213.1429	1233.0807	1242.6398	1280.8526	1293.6611	1310.8325	1335.2904	1350.7773	1389.0041	1396.9511	1418.9294	1480.1246	1481.1947	1489.5445	1492.5993	1503.5788	1506.8872	1514.1175	3017.1688	3030.6704	3035.3571	3057.5747	3061.1006	3072.5281	3095.2749	3100.6144	3104.1448	3108.6666	3120.4387	3121.3476	3126.5141	3134.7265
CC(C)C12CC(CC1)O2	CC(C)[C@@]12C[C@@H](CC1)O2	
InChI=1S/C8H14O/c1-6(2)8-4-3-7(5-8)9-8/h6-7H,3-5H2,1-2H3	InChI=1S/C8H14O/c1-6(2)8-4-3-7(5-8)9-8/h6-7H,3-5H2,1-2H3/t7-,8+/m1/s1
