19
gdb 37449	2.53943	1.9536	1.91777	2.4125	72.56	-0.2159	0.0705	0.2863	869.8392	0.164822	-419.172066	-419.165567	-419.164622	-419.202506	27.68	
C	-0.0311113727	 1.5548346354	 0.0725525752	-0.175262
N	 1.3472040483	 2.1130929947	 0.0444789859	-0.28971
C	 2.3347783366	 1.0293647415	-0.0036153056	-0.061305
C	 2.0699439763	 0.122821729	 1.2104018771	-0.047394
O	 0.7671546899	-0.4693805551	 1.1148976218	-0.284081
C	 0.0351906755	 0.0281872428	-0.0179236046	 0.092302
C	 0.7888429907	-0.4209444768	-1.2667589138	-0.043097
N	 1.1806661459	 0.6266015563	-2.2386058333	-0.353359
C	 2.1593872137	 0.1410063928	-1.2458779849	-0.027256
H	-0.5265751331	 1.8216851327	 1.0141449132	 0.100679
H	-0.6240617956	 1.9568348125	-0.7536201041	 0.109077
H	 1.4443687796	 2.6505488278	-0.8093961105	 0.227892
H	 3.34001313	 1.4567381776	 0.0605850358	 0.069739
H	 2.8153600139	-0.6812738291	 1.2661632669	 0.093343
H	 2.1276535334	 0.7179728628	 2.130360019	 0.106326
H	-0.9583420025	-0.4189870831	 0.0614951555	 0.073439
H	 0.6101638359	-1.4282724565	-1.6292531239	 0.089944
H	 1.369181223	 0.1866252821	-3.1357614273	 0.233552
H	 3.0047531112	-0.4516885675	-1.5851568724	 0.08517
185.3704	298.2708	319.1409	348.5238	403.5692	517.3154	566.4701	598.1544	686.7245	776.1705	789.0473	834.0614	844.0952	891.5638	902.8634	915.3552	918.5525	942.6856	1006.6754	1022.2065	1039.5181	1079.7326	1099.197	1104.3338	1131.21	1148.2	1190.7449	1227.9265	1236.4108	1260.0608	1293.6442	1325.1822	1333.7168	1345.6085	1371.1364	1396.2331	1406.3241	1437.1259	1484.4137	1496.6479	1513.8461	3009.4356	3023.3007	3049.5185	3060.9832	3083.3336	3087.7433	3140.6213	3160.5295	3506.1614	3538.7347
C1NC2COC1C1NC21	C1N[C@H]2CO[C@@H]1[C@H]1N[C@@H]21	
InChI=1S/C6H10N2O/c1-4-6-5(8-6)3(7-1)2-9-4/h3-8H,1-2H2	InChI=1S/C6H10N2O/c1-4-6-5(8-6)3(7-1)2-9-4/h3-8H,1-2H2/t3-,4-,5-,6+/m0/s1
