14
gdb 35155	2.47181	1.32688	1.02433	3.9051	80.35	-0.2633	-0.0127	0.2506	1155.7976	0.097978	-362.338374	-362.329524	-362.32858	-362.371847	32.628	
C	-0.0984508811	-1.1872591477	-0.0524148959	-0.421861
C	-0.0457741626	 0.0119802763	 0.0033109525	 0.340913
C	-0.0072309721	 1.4397647719	 0.0602973499	-0.247634
C	 0.4907764444	 2.1634504194	 1.2781158676	-0.303948
C	 1.3697968524	 2.1800663162	 0.0284751257	-0.004922
C	 2.5856629285	 1.4170055343	 0.0129880594	 0.261357
C	 3.6054182106	 0.7832755978	-0.0007390322	-0.407228
C	 1.3873857486	 3.404353773	-0.7384577758	 0.243807
N	 1.3773584332	 4.3868421242	-1.3480186506	-0.337956
H	-0.1391872923	-2.2474162463	-0.1016015445	 0.208455
H	-0.7742778183	 1.9508343711	-0.5132586364	 0.150691
H	 0.0072798233	 3.093757671	 1.5502090419	 0.153725
H	 0.8639182263	 1.5645139053	 2.0989571453	 0.15688
H	 4.5074438691	 0.2226348335	-0.0161576869	 0.207722
98.7136	108.3274	134.8695	201.705	228.2849	259.5364	412.9192	456.0601	487.7144	533.8243	587.5279	604.1077	615.5716	623.3721	660.1277	670.9096	678.6936	777.8448	850.3183	940.9263	986.4737	1053.1045	1092.4714	1136.7448	1229.5063	1287.6581	1386.2105	1471.9478	2245.0052	2249.8659	2356.4675	3155.535	3163.4146	3256.9211	3501.8593	3503.0024
C#CC1CC1(C#C)C#N	C#C[C@H]1C[C@]1(C#C)C#N	
InChI=1S/C8H5N/c1-3-7-5-8(7,4-2)6-9/h1-2,7H,5H2	InChI=1S/C8H5N/c1-3-7-5-8(7,4-2)6-9/h1-2,7H,5H2/t7-,8+/m0/s1
