17
gdb 70979	3.63628	1.30056	1.13076	2.7427	73.03	-0.2403	-0.0424	0.1979	1100.9225	0.133802	-421.767643	-421.759574	-421.75863	-421.800599	30.379	
C	-0.1058189365	 1.4966074591	 0.0276196208	-0.507198
C	 0.0505900085	 0.007610446	-0.0264366053	 0.275735
C	 1.0672796421	-0.8120361761	-0.8219440106	-0.309776
C	 0.2156370871	-2.0449185441	-0.4099773809	 0.33144
O	 0.4049800825	-2.1417934149	 1.0278945189	-0.331141
C	-0.3634401406	-0.9419647631	 1.1219026954	 0.0547
C	-1.0201978028	-1.0682919076	-0.2094446882	-0.231104
C	 0.2419207204	-3.3495349466	-1.1350259041	 0.042355
O	 0.1735550387	-3.438415917	-2.3350927981	-0.253908
H	 0.7723087446	 1.9674097071	 0.4839570025	 0.129597
H	-0.2324888948	 1.9220704955	-0.9739603302	 0.127366
H	-0.9809820471	 1.782228665	 0.621567586	 0.122255
H	 0.9863695227	-0.6285116973	-1.8955056144	 0.125507
H	 2.1137279614	-0.8284616925	-0.5007121587	 0.103271
H	-0.7295440846	-0.6255412353	 2.0899099293	 0.112245
H	-2.04114363	-1.0667023106	-0.5657348374	 0.110851
H	 0.3178945485	-4.2382911977	-0.471824505	 0.097804
55.1791	142.624	189.8581	213.777	276.1914	306.787	428.4332	493.8738	530.1713	603.4182	686.2082	746.1245	782.9924	822.9232	834.3458	897.613	923.4315	959.7088	978.614	1020.7618	1030.0499	1064.7928	1091.068	1095.29	1136.5963	1159.1819	1193.8583	1245.3843	1294.9656	1300.8956	1398.9597	1404.8448	1424.8099	1485.0086	1489.5016	1499.2522	1820.4883	2904.6768	3025.0204	3049.8586	3089.0804	3092.6171	3125.0653	3202.2242	3215.5987
CC12CC3(OC1C23)C=O	C[C@@]12C[C@]3(O[C@@H]1[C@@H]23)C=O	
InChI=1S/C7H8O2/c1-6-2-7(3-8)4(6)5(6)9-7/h3-5H,2H2,1H3	InChI=1S/C7H8O2/c1-6-2-7(3-8)4(6)5(6)9-7/h3-5H,2H2,1H3/t4-,5+,6-,7-/m0/s1
