15
gdb 47119	3.30237	1.26351	0.93358	2.8254	79.84	-0.2166	-0.0328	0.1837	1187.708	0.113096	-416.79669	-416.788635	-416.787691	-416.829476	30.396	
N	-0.1717170528	 1.1740468664	-0.4825009811	-0.576121
C	-0.0209351843	 0.0363223583	 0.0577791387	 0.447689
N	-1.1147918677	-0.6378179739	 0.5851988147	-0.414551
C	-1.0806617554	-2.0106730175	 0.8580174456	 0.243006
C	 0.1081427927	-2.5876959975	 1.0951326336	-0.222522
C	 1.3040212448	-1.6911058493	 1.0867017171	-0.135774
O	 1.1625370174	-0.6202948697	 0.1270612585	-0.248368
C	-2.329563918	-2.6890659702	 0.8656232728	 0.240311
C	-3.4065488172	-3.2259473866	 0.8745164545	-0.411692
H	 0.7311763704	 1.5411619146	-0.7749677672	 0.225036
H	-2.0006193197	-0.2021868531	 0.3842401962	 0.272226
H	 0.2007774243	-3.6459170212	 1.288581179	 0.115025
H	 1.4800007493	-1.242678797	 2.0772590882	 0.125629
H	 2.2141239138	-2.2183417099	 0.7924563959	 0.132957
H	-4.3495195075	-3.7149999035	 0.8816952136	 0.207149
91.8426	133.4989	151.6763	185.6267	366.7501	410.8524	454.74	516.4383	555.6035	566.0011	597.3537	653.3864	676.7276	694.8527	720.8124	759.2005	812.2555	855.9791	953.888	1003.2287	1059.6359	1084.0319	1134.0665	1201.3847	1259.0528	1309.4171	1332.8367	1441.0376	1466.4451	1499.0037	1696.4835	1756.143	2234.779	2979.9129	3102.1874	3245.7386	3500.0558	3527.476	3653.0722
N=C1NC(=CCO1)C#C	[NH][C]1NC(=CCO1)C#C	
InChI=1S/C6H6N2O/c1-2-5-3-4-9-6(7)8-5/h1,3H,4H2,(H2,7,8)	InChI=1S/C6H6N2O/c1-2-5-3-4-9-6(7)8-5/h1,3H,4H2,(H2,7,8)
