17
gdb 51111	4.47301	1.04811	0.98149	3.7424	74.41	-0.2352	0.0132	0.2483	1223.8121	0.135258	-417.901366	-417.893512	-417.892568	-417.934368	29.885	
N	-0.1111642976	 1.2849076344	-0.0039899819	-0.435027
C	-0.1044236601	 0.0402413057	-0.1963372138	 0.10526
O	-1.0828929202	-0.7265271972	 0.351022372	-0.221117
C	-0.9700869278	-2.0959393369	 0.1585745698	 0.41967
C	-1.1340958524	-2.7821787095	-1.1674086465	-0.368256
C	-2.0611464289	-3.1053674519	-0.0116003772	-0.091763
N	-1.5299539275	-3.9801309067	 1.1126611717	-0.133458
C	-0.1411502737	-4.4044459894	 0.8362841593	-0.248662
C	-0.3880661214	-3.0106821087	 1.2590889242	-0.106736
H	 0.6750513813	 1.7154830391	-0.4864448181	 0.232873
H	 0.6171479389	-0.5388837017	-0.7853839127	 0.095857
H	-1.6317265762	-2.1558035795	-1.9023661692	 0.135276
H	-0.4092182837	-3.4656132955	-1.5956863399	 0.120261
H	-3.134581849	-2.9950210944	-0.0831016286	 0.125331
H	 0.226126035	-5.0873500335	 1.5976094116	 0.130904
H	 0.1792721629	-4.6560911528	-0.1678834218	 0.123257
H	-0.1204285198	-2.6156808116	 2.2338019611	 0.11633
59.3613	103.1618	141.1253	293.1665	343.8212	390.7362	448.6697	480.8507	555.2769	682.7455	719.6614	761.9686	818.2405	825.6985	856.632	897.4475	968.0852	976.1874	991.9346	1031.9725	1043.5356	1049.8753	1063.4138	1072.7723	1103.229	1114.3129	1133.8504	1200.0544	1226.7574	1249.9385	1279.3904	1325.6968	1388.6475	1412.0561	1476.4676	1516.2924	1747.9728	3047.6556	3121.7988	3133.8316	3167.7153	3203.9082	3211.258	3215.6339	3518.4171
N=COC12CC1N1CC21	[NH][CH]O[C@]12C[C@H]1N1C[C@@H]21	
InChI=1S/C6H8N2O/c7-3-9-6-1-4(6)8-2-5(6)8/h3-5,7H,1-2H2	InChI=1S/C6H8N2O/c7-3-9-6-1-4(6)8-2-5(6)8/h3-5,7H,1-2H2/t4-,5+,6-,8?/m1/s1
