20
gdb 114372	2.42767	1.3839	1.09989	2.1197	80.08	-0.2414	-0.0387	0.2026	1194.8668	0.170216	-403.107088	-403.098031	-403.097086	-403.141486	33.133	
C	 0.047501886	 1.6707045768	-0.0108185402	-0.380765
C	-0.1177373136	 0.1467125466	-0.0117781371	-0.21708
C	 0.6636829551	-0.5155556981	-1.1428699317	 0.034193
C	 2.2169330757	-0.6237164882	-1.131003904	-0.195064
N	 2.1603018297	-2.0984563036	-1.4874561282	-0.148306
C	 1.5029286056	-2.8276332207	-0.3806959716	-0.086999
C	 1.6671252656	-2.6149438537	 1.0844846741	 0.147411
O	 2.0876940633	-1.6354163155	 1.654782851	-0.265974
C	 0.6658831474	-2.0312849653	-1.3398605236	-0.089567
H	 1.0971394818	 1.9538816163	 0.1233336245	 0.123898
H	-0.2975827046	 2.1105367368	-0.9535343096	 0.111034
H	-0.5243040845	 2.1298963736	 0.8009581303	 0.115487
H	 0.202693978	-0.2531327421	 0.9529466874	 0.124935
H	-1.1801017622	-0.1079035201	-0.124962748	 0.092545
H	 0.3528451737	-0.0643632169	-2.0925432779	 0.086207
H	 2.7095558944	-0.0880485223	-1.9437260524	 0.111376
H	 2.7188064992	-0.4210187172	-0.1871504392	 0.145371
H	 1.4715877762	-3.8924374383	-0.6090305577	 0.106641
H	 1.3624684148	-3.5138847464	 1.6683507082	 0.084068
H	-0.0002921416	-2.5724003916	-2.007317764	 0.100588
64.0721	71.8676	138.6276	168.1861	225.1827	249.0483	305.8984	350.9517	414.1295	498.4725	687.7946	706.8569	743.5184	784.621	814.881	867.7246	884.0154	948.091	957.7712	980.5202	1002.0931	1043.4764	1060.8798	1080.0756	1104.2577	1144.9525	1167.4465	1208.5647	1241.7324	1264.4838	1286.9735	1305.1546	1338.944	1362.0533	1402.3988	1409.4247	1419.8664	1441.28	1485.9286	1495.1805	1500.4006	1506.2009	1805.2293	2865.8461	3021.8792	3029.7934	3034.6943	3087.6446	3089.6036	3105.9733	3115.4356	3118.9098	3141.1069	3165.9308
CCC1CN2C(C=O)C12	CC[C@H]1CN2[C@@H](C=O)[C@@H]12	
InChI=1S/C7H11NO/c1-2-5-3-8-6(4-9)7(5)8/h4-7H,2-3H2,1H3	InChI=1S/C7H11NO/c1-2-5-3-8-6(4-9)7(5)8/h4-7H,2-3H2,1H3/t5-,6-,7+,8?/m0/s1
