20
gdb 65713	3.45218	1.17238	1.11348	3.6527	79.28	-0.2453	0.0298	0.2752	1179.5928	0.170709	-403.146766	-403.137962	-403.137018	-403.180041	33.82	
C	-0.0431655991	 1.6639054818	 0.1836490989	-0.444507
C	 0.0383358128	 0.1432852516	 0.070558976	 0.341652
C	 1.089818047	-0.4668087465	-0.9303268877	-0.260812
C	 1.6985643895	-1.2793638678	 0.2194986836	-0.038242
C	 2.1907147072	-0.3498474208	 1.2889733972	-0.290699
C	 0.7186106975	-0.6441873225	 1.2059171696	-0.101747
N	-1.2916459322	-0.4295864454	-0.1544424281	-0.322898
C	-2.0096018821	-0.264982249	-1.2933792519	 0.152335
O	-1.6326642495	 0.3356398186	-2.2797072117	-0.335303
H	 0.9435087703	 2.0997912117	 0.3618228855	 0.112315
H	-0.4428220291	 2.0821312671	-0.7432909062	 0.152468
H	-0.7001189096	 1.9544185146	 1.0106366381	 0.106532
H	 0.609586484	-1.0630575597	-1.7039766316	 0.126491
H	 1.7606263904	 0.2539822007	-1.4074000575	 0.098637
H	 2.0262038879	-2.3096175421	 0.1586304858	 0.086221
H	 2.6950177459	-0.8201429229	 2.1271332998	 0.114173
H	 2.5850287039	 0.6294986497	 1.0304245798	 0.110313
H	 0.1856208638	-1.0918558952	 2.0395247795	 0.076506
H	-1.7308008808	-0.9195385503	 0.6092982973	 0.242685
H	-3.0001500479	-0.7611918136	-1.2309768764	 0.073878
75.08	150.2441	168.607	221.2095	250.3741	262.2168	359.4749	388.948	421.2469	472.1084	517.5726	616.4443	745.9144	788.4065	818.0632	849.3336	860.7318	930.0403	962.671	970.1347	992.5268	997.6609	1030.0061	1046.28	1064.4065	1089.3003	1137.8494	1164.814	1170.6358	1196.2959	1234.3875	1249.9843	1264.0251	1308.8008	1363.5032	1405.5794	1429.6979	1477.9854	1480.6291	1494.8885	1506.6671	1514.9499	1796.1279	2918.8243	3039.2826	3061.3013	3108.47	3114.6829	3131.8806	3148.219	3151.0128	3186.6144	3202.685	3623.7834
CC1(CC2CC12)NC=O	C[C@]1(C[C@H]2C[C@@H]12)NC=O	
InChI=1S/C7H11NO/c1-7(8-4-9)3-5-2-6(5)7/h4-6H,2-3H2,1H3,(H,8,9)	InChI=1S/C7H11NO/c1-7(8-4-9)3-5-2-6(5)7/h4-6H,2-3H2,1H3,(H,8,9)/t5-,6-,7-/m1/s1
