14
gdb 132859	3.04894	1.42182	0.97549	5.0304	69.65	-0.228	-0.0557	0.1723	1122.7207	0.101242	-478.037829	-478.030238	-478.029294	-478.070048	28.296	
C	 0.0154735769	 1.5323863337	 0.030151189	-0.466954
C	-0.0340137155	 0.0334830438	 0.0136317999	 0.284755
C	-1.1783580484	-0.6769456463	-0.1509657867	-0.064054
N	-1.1353385076	-2.0499661951	-0.152453936	-0.342668
C	 0.020931223	-2.8042885824	 0.0053158508	 0.30436
O	 0.0349585889	-4.018377747	 0.0004490099	-0.371184
C	 1.1822293385	-1.9066123757	 0.1730198519	 0.213923
F	 2.3329270948	-2.5344708139	 0.3305312797	-0.042155
N	 1.1669373139	-0.6302542201	 0.1782270055	-0.333569
H	 0.6696984409	 1.9067907254	-0.7642016286	 0.143199
H	-0.9785252235	 1.9654189683	-0.1073680417	 0.121329
H	 0.4234651736	 1.895820412	 0.9792542257	 0.143194
H	-2.1520778025	-0.2244497981	-0.2845592002	 0.137336
H	-1.9816902329	-2.5893222047	-0.2742971392	 0.272486
107.2938	151.195	218.7526	289.1266	322.5955	339.614	445.9123	481.8029	534.35	592.5823	612.1723	689.6867	708.8761	792.8551	820.1776	843.7473	984.981	1026.1749	1065.8761	1133.7533	1219.1582	1307.9771	1334.5915	1375.2423	1419.9822	1468.8506	1471.9542	1494.3548	1621.277	1685.0481	1799.5268	3037.2668	3094.3892	3122.729	3219.8382	3606.1917
CC1=CNC(=O)C(F)=N1	Cc1c[nH]c(=O)c(F)n1	
InChI=1S/C5H5FN2O/c1-3-2-7-5(9)4(6)8-3/h2H,1H3,(H,7,9)	InChI=1S/C5H5FN2O/c1-3-2-7-5(9)4(6)8-3/h2H,1H3,(H,7,9)
