18
gdb 61910	3.52405	0.74691	0.66466	3.8763	75.03	-0.2563	0.012	0.2683	1654.4552	0.144875	-439.08874	-439.078399	-439.077455	-439.12493	36.974	
N	 0.0579811796	 1.2760693908	-0.0914929087	-0.518279
C	 0.057264871	-0.0765167572	-0.0304273132	 0.383335
O	 1.0765685912	-0.7459787414	 0.0187862267	-0.374788
C	-1.314431713	-0.7726847929	-0.008569718	 0.024852
O	-1.1073115586	-2.1513006746	-0.1624976363	-0.434968
C	-2.0693509632	-0.4690637186	 1.2989371129	-0.18945
C	-3.4044222417	-1.2357375243	 1.3650850428	-0.351994
C	-4.1385667353	-0.9799179996	 2.5972959506	 0.288065
C	-4.7233838053	-0.7490712952	 3.6219313924	-0.436268
H	 0.9404449275	 1.7604583059	-0.114180602	 0.270608
H	-0.7895378861	 1.8077893397	-0.18330525	 0.268138
H	-1.9102922676	-0.3992430162	-0.8583167409	 0.082434
H	-0.1425017129	-2.262170896	-0.092225378	 0.294893
H	-1.4408772131	-0.7596033035	 2.1476413801	 0.122997
H	-2.258258115	 0.6068392413	 1.3891269336	 0.095206
H	-4.02732092	-0.961478429	 0.5028293876	 0.124178
H	-3.1940756965	-2.3054616475	 1.2628224025	 0.15828
H	-5.250300521	-0.5594329616	 4.5237882681	 0.192762
47.6754	78.1845	99.5025	100.1755	202.3578	220.9994	263.1945	330.705	351.6716	410.6077	470.1854	506.0783	513.644	573.0917	614.5577	636.3791	653.5708	728.6492	774.9418	853.2066	940.6031	974.2813	1041.311	1079.729	1093.5648	1141.6896	1200.3692	1240.9088	1286.4392	1313.1963	1355.5019	1366.641	1385.7854	1462.9598	1471.8022	1486.8167	1621.7919	1785.4522	2238.8232	2965.5227	3018.9672	3039.2008	3073.4861	3092.8905	3507.7494	3604.8733	3634.157	3738.9195
NC(=O)C(O)CCC#C	NC(=O)[C@@H](O)CCC#C	
InChI=1S/C6H9NO2/c1-2-3-4-5(8)6(7)9/h1,5,8H,3-4H2,(H2,7,9)	InChI=1S/C6H9NO2/c1-2-3-4-5(8)6(7)9/h1,5,8H,3-4H2,(H2,7,9)/t5-/m0/s1
