16
gdb 26709	2.39879	1.5375	0.94634	2.2671	67.77	-0.1553	0.0572	0.2126	1169.0877	0.125021	-471.213606	-471.204235	-471.203291	-471.246948	35.03	
N	-0.178382324	 1.4220069131	 0.0325618168	-0.631249
C	-0.0154738029	 0.0055124552	-0.0202861602	-0.01284
C	-1.0906170849	-0.836752755	-0.0737998388	 0.37974
O	-2.4189121807	-0.5741935971	-0.088461483	-0.444087
N	-0.6504121963	-2.1395174141	-0.1169479205	-0.383186
C	 0.7251054497	-2.1297222185	-0.0906231538	 0.37974
O	 1.4073724982	-3.2988771839	-0.1239128161	-0.444087
C	 1.1700954108	-0.8387262925	-0.0312846533	-0.01284
N	 2.562527364	-0.5297828785	 0.0071273304	-0.631249
H	 0.2637635382	 1.8862257316	-0.7559670842	 0.231016
H	 0.2330787259	 1.8219843503	 0.8713038264	 0.231016
H	-2.4775757387	 0.3913122836	-0.0514557641	 0.302932
H	-1.2328446703	-2.9568665645	-0.1602020467	 0.270129
H	 2.339362959	-3.0388079964	-0.0961627935	 0.302932
H	 2.8162945724	-0.0176089368	 0.8473959011	 0.231017
H	 2.8468717597	 0.0468951236	-0.7798667205	 0.231015
148.2396	188.2882	212.438	213.2504	236.1615	250.7757	262.6886	301.1272	303.1133	387.6179	480.5425	480.7172	547.0862	613.8303	645.2561	666.7035	681.3503	758.5734	819.8336	866.5309	955.0677	1129.0375	1165.8252	1205.201	1206.1816	1206.8043	1253.4683	1348.1989	1391.732	1533.4261	1539.2602	1631.0206	1642.8505	1686.0908	1711.0443	3472.2689	3472.5097	3530.1306	3530.6703	3692.9673	3754.5867	3755.5929
NC1=C(O)NC(O)=C1N	Nc1c(O)[nH]c(O)c1N	
InChI=1S/C4H7N3O2/c5-1-2(6)4(9)7-3(1)8/h7-9H,5-6H2	InChI=1S/C4H7N3O2/c5-1-2(6)4(9)7-3(1)8/h7-9H,5-6H2
