21
gdb 94943	2.8284	1.29817	1.18352	1.151	78.25	-0.2406	0.0771	0.3177	1168.0582	0.181769	-424.222308	-424.213261	-424.212317	-424.255343	35.324	
C	 0.4553754023	 1.4135094694	-0.288533935	-0.396145
C	-0.1013877398	 0.0398454566	 0.0861758963	 0.102832
O	 0.0949263127	-0.9110765643	-0.9739802275	-0.272891
C	 1.2601014853	-1.6958691525	-0.7196865966	-0.109877
C	 1.4748017652	-1.6747769651	 0.7808918737	-0.143706
C	 0.591084107	-0.5521764682	 1.3026291209	-0.09675
C	 0.302029134	-1.9740669475	 1.6942771583	 0.388648
C	-0.9254454581	-2.7407069218	 1.257404783	-0.474932
O	 0.6607337433	-2.2045466264	 3.0386565496	-0.473006
H	 1.5440618235	 1.3801102512	-0.4000020586	 0.117269
H	 0.0209398833	 1.7474310003	-1.234622156	 0.122388
H	 0.2143832184	 2.1522493048	 0.4832912122	 0.114031
H	-1.1885323833	 0.1138320935	 0.2162827827	 0.083171
H	 1.0720559175	-2.6920682894	-1.1371706366	 0.103336
H	 2.1421541911	-1.2782964967	-1.2297382205	 0.09554
H	 2.4727764258	-1.8272922418	 1.1751656132	 0.089311
H	 0.9355467641	 0.1142533023	 2.0845341954	 0.097586
H	-1.2070805699	-2.5031631408	 0.2306853727	 0.149858
H	-0.7409832479	-3.8210144908	 1.3179607496	 0.101969
H	-1.7651617655	-2.5096627193	 1.920660476	 0.123668
H	 0.8940524109	-3.1360278935	 3.1219957872	 0.277702
121.2703	175.2505	206.911	227.9849	241.1115	269.3365	298.6592	319.8776	408.3662	410.0729	456.9824	511.6891	673.7476	722.1756	744.2043	836.8603	852.9266	867.3497	953.0732	970.7546	980.0122	1016.7309	1027.7966	1037.3246	1076.0165	1099.1933	1114.2109	1129.6916	1139.2349	1187.0101	1228.8018	1281.9078	1285.0395	1308.1386	1336.8279	1376.6708	1386.336	1401.9101	1417.8319	1448.6939	1488.9494	1494.4085	1500.2796	1506.6754	1522.7536	2980.3371	3022.9621	3025.0195	3035.3505	3047.8146	3086.9718	3105.5003	3119.364	3145.2101	3178.6818	3187.9134	3791.1449
CC1OCC2C1C2(C)O	C[C@H]1OC[C@H]2[C@@H]1[C@]2(C)O	
InChI=1S/C7H12O2/c1-4-6-5(3-9-4)7(6,2)8/h4-6,8H,3H2,1-2H3	InChI=1S/C7H12O2/c1-4-6-5(3-9-4)7(6,2)8/h4-6,8H,3H2,1-2H3/t4-,5+,6-,7-/m1/s1
