21
gdb 87958	3.86716	1.00493	0.90201	2.0719	87.63	-0.2281	0.0186	0.2468	1393.6718	0.181409	-387.1041	-387.094767	-387.093822	-387.138685	34.9	
C	-0.0678730012	 1.5549880729	-0.028704089	-0.420891
C	-0.0679777392	 0.0532155763	 0.1030668649	-0.002565
O	 1.1566953713	-0.6285587292	-0.1872331373	-0.307321
C	 0.6518387394	-0.6726911657	 1.1662370187	 0.423844
C	 1.4822175475	-0.0116968653	 2.2755943655	-0.321469
C	 1.4612328902	-1.0185158354	 3.4552364712	-0.315063
C	 0.6557176373	-2.1964757325	 2.945326028	 0.31716
C	 0.4206692833	-3.4003485258	 3.8001551449	-0.487165
C	 0.2215646687	-1.9881290156	 1.6995456028	-0.249568
H	 0.8282820943	 1.9930241319	 0.4169156637	 0.125895
H	-0.0983752491	 1.8445921078	-1.0845448903	 0.12717
H	-0.9491820344	 1.9838918412	 0.4612414987	 0.118434
H	-0.9494737126	-0.4364864729	-0.3200077852	 0.077936
H	 2.4955564072	 0.1658026904	 1.9071454987	 0.122132
H	 1.0697915735	 0.957873408	 2.5675079334	 0.10682
H	 2.4682913321	-1.3313386881	 3.7599478557	 0.107771
H	 0.9981834881	-0.5879955312	 4.3525708518	 0.105929
H	-0.1067595112	-3.1324730428	 4.7248304036	 0.126062
H	-0.1684344375	-4.1601456237	 3.2800325865	 0.125669
H	 1.3713138049	-3.8547917156	 4.1075418234	 0.127863
H	-0.3695782024	-2.6803701547	 1.1103986104	 0.091357
35.459	115.3755	166.2321	177.6597	196.5677	269.5388	287.6668	394.1095	425.0691	450.3641	517.973	535.136	599.3854	738.3455	812.7889	837.7636	872.1828	879.68	908.9339	973.3629	990.3932	1010.1619	1020.3456	1036.5146	1082.6196	1123.1117	1155.2798	1173.5067	1184.7579	1235.9649	1252.3375	1275.7021	1303.534	1335.8015	1370.6804	1406.0688	1413.1057	1465.3244	1478.061	1478.5064	1486.6781	1489.5667	1499.118	1507.1986	1719.4284	3014.6645	3019.7182	3034.6429	3040.4112	3061.9478	3064.1773	3067.0404	3096.2228	3107.5003	3112.9447	3127.2932	3195.5277
CC1OC11CCC(C)=C1	C[C@H]1O[C@]21CCC(=C2)C	
InChI=1S/C8H12O/c1-6-3-4-8(5-6)7(2)9-8/h5,7H,3-4H2,1-2H3	InChI=1S/C8H12O/c1-6-3-4-8(5-6)7(2)9-8/h5,7H,3-4H2,1-2H3/t7-,8-/m1/s1
