17
gdb 124163	3.38414	0.99014	0.77337	1.9237	88.06	-0.2149	0.0047	0.2196	1462.9057	0.135977	-380.881583	-380.872135	-380.871191	-380.918606	32.564	
C	 0.0103067274	 1.440189272	 0.0351605406	-0.508203
C	 0.0213318183	-0.0135986687	-0.0003777387	 0.186646
C	 0.0474550133	-1.2191398107	-0.0309802492	-0.051128
C	 0.0181989823	-2.6358238678	-0.0630574056	 0.139733
N	 1.1386888236	-3.3667432895	-0.1593018448	-0.296764
N	 0.7033932349	-4.6341513793	-0.1596749683	-0.201938
C	-0.6473018536	-4.7425599773	-0.0678559441	-0.114025
C	-1.1449813286	-3.4606748896	-0.0017213727	 0.117723
C	-2.5682105291	-3.0158116395	 0.1091542891	-0.517014
H	 0.744137475	 1.8252157916	 0.7521804467	 0.151349
H	 0.2512710633	 1.8660054407	-0.9456510853	 0.149769
H	-0.9732869805	 1.8224983369	 0.3297641411	 0.147567
H	 1.378451646	-5.3766178893	-0.2253138393	 0.274846
H	-1.1421328973	-5.7012330227	-0.0567462783	 0.131985
H	-2.7358472422	-2.4345453413	 1.0225947509	 0.135142
H	-2.8528902222	-2.3736088903	-0.7315004006	 0.135351
H	-3.2502134706	-3.8703039452	 0.1252417586	 0.11896
8.9874	63.2692	81.4031	111.7435	247.6953	250.0748	299.9413	354.0638	474.4695	482.1155	507.7761	552.735	662.0368	680.6752	750.8131	780.9697	947.6547	995.8699	1007.2852	1050.4293	1053.6283	1067.7842	1088.767	1163.4065	1261.4802	1322.0422	1363.9011	1411.9017	1421.5283	1472.6456	1475.216	1477.6877	1480.7387	1488.7391	1510.1842	1603.8654	2362.2214	3023.6533	3031.7796	3082.1302	3083.0589	3086.8424	3111.2756	3256.1113	3676.4523	8.9354	63.2755	81.403	111.7433	247.6952	250.0749	299.9413	354.0637	474.4694	482.1155	507.7762	552.735	662.0365	680.6749	750.8132	780.9684	947.6546	995.8698	1007.2847	1050.4296	1053.6286	1067.7835	1088.7665	1163.4061	1261.48	1322.0417	1363.9005	1411.9021	1421.5277	1472.6456	1475.2169	1477.6886	1480.7376	1488.7385	1510.1838	1603.8652	2362.2216	3023.6533	3031.7797	3082.1301	3083.059	3086.8423	3111.2757	3256.1111	3676.4522
CC#CC1=NNC=C1C	CC#Cc1n[nH]cc1C	
InChI=1S/C7H8N2/c1-3-4-7-6(2)5-8-9-7/h5H,1-2H3,(H,8,9)	InChI=1S/C7H8N2/c1-3-4-7-6(2)5-8-9-7/h5H,1-2H3,(H,8,9)
