14
gdb 132093	3.00044	1.46945	0.99246	0.6415	72.51	-0.2246	-0.0803	0.1443	1098.7716	0.099903	-477.991405	-477.983661	-477.982716	-478.023987	28.531	
C	 0.0581216261	 1.5293755155	 0.0118455539	-0.481633
C	-0.048331878	 0.0494952946	 0.1120207556	 0.226171
C	-1.1217019466	-0.7101290394	-0.1857077138	 0.210317
F	-2.2515286803	-0.1529209239	-0.6241033082	-0.071128
N	-1.1460217109	-2.0649842556	-0.0691992119	-0.250757
C	-0.0726428534	-2.6398311032	 0.3515077289	-0.082881
C	 1.1573310283	-1.9270564803	 0.7072889051	 0.35894
N	 2.2590567373	-2.3968827648	 1.1281415002	-0.505757
O	 1.0855412278	-0.5567110833	 0.5564030856	-0.23379
H	 0.865107982	 1.8093499012	-0.6739617314	 0.155115
H	-0.8808810524	 1.9494887598	-0.3485370254	 0.154913
H	 0.2953873943	 1.9629327907	 0.9894307479	 0.155111
H	-0.0660866586	-3.723169428	 0.4535474323	 0.135159
H	 2.2013524445	-3.4111534133	 1.2018397211	 0.23022
84.9457	135.6918	174.3743	270.7835	337.9156	360.1704	437.205	476.9884	513.4105	593.1632	594.9199	703.3033	746.5403	805.2425	810.7514	894.8123	926.9145	1024.5668	1059.5278	1078.25	1168.3698	1239.0483	1336.0966	1342.6982	1402.3187	1423.2855	1473.0639	1476.688	1600.1608	1686.2678	1720.021	3039.9075	3093.9158	3152.178	3158.2735	3510.6411
CC1=C(F)N=CC(=N)O1	CC1=C(F)[N]C=C([NH])O1	
InChI=1S/C5H5FN2O/c1-3-5(6)8-2-4(7)9-3/h2,7H,1H3	InChI=1S/C5H5FN2O/c1-3-5(6)8-2-4(7)9-3/h2,7H,1H3
