15
gdb 26019	5.02547	1.01704	0.85557	2.9713	68.82	-0.1993	0.0436	0.2429	1273.1739	0.113922	-454.014847	-454.006656	-454.005712	-454.048998	30.343	
N	-2.3305668096	 1.2390168631	 0.0650064464	-0.562306
C	-2.5203394856	-0.1130030016	 0.14502737	 0.473178
O	-3.5773236896	-0.6563689312	 0.3453228571	-0.377199
O	-1.3135244477	-0.728400638	-0.0117109901	-0.293683
C	-1.2002586047	-2.0997940216	 0.0974834713	 0.344237
C	 0.0180021284	-2.6838321038	 0.3567016438	-0.192039
N	-0.1857673114	-4.0420251404	 0.3405750458	-0.234062
C	-1.5014382416	-4.3154155232	 0.0806020719	-0.068496
C	-2.1708425893	-3.123384036	-0.0811599476	-0.258428
H	-3.1599630129	 1.7933128853	-0.0589352223	 0.268833
H	-1.4673721	 1.5862621948	-0.3165725812	 0.264602
H	 0.9849142894	-2.2461453582	 0.5361159918	 0.120255
H	 0.52761831	-4.7289416316	 0.5046058863	 0.263698
H	-1.8613369952	-5.3304328513	 0.0366463422	 0.120554
H	-3.2181022704	-2.9887974661	-0.2786470152	 0.130857
20.4348	81.9101	173.8372	327.9911	342.7028	372.0539	390.7894	437.374	505.4601	618.7855	629.9514	637.2716	676.5619	748.601	766.1991	771.0084	841.2757	896.4067	936.8397	1027.3165	1081.875	1091.1537	1116.1653	1164.9949	1273.9009	1319.7394	1353.8095	1414.449	1472.0146	1524.2881	1607.1771	1617.9023	1845.1037	3266.5853	3280.9415	3313.542	3615.9227	3697.5418	3745.9539
NC(=O)OC1=CNC=C1	NC(=O)Oc1c[nH]cc1	
InChI=1S/C5H6N2O2/c6-5(8)9-4-1-2-7-3-4/h1-3,7H,(H2,6,8)	InChI=1S/C5H6N2O2/c6-5(8)9-4-1-2-7-3-4/h1-3,7H,(H2,6,8)
