19
gdb 44850	3.15955	1.62372	1.46052	2.9102	77.59	-0.2278	-0.0054	0.2224	963.1354	0.162938	-385.913273	-385.906692	-385.905748	-385.943985	28.117	
O	 0.0206599982	 0.0346953207	 0.1053290133	-0.3325
C	 0.0017494235	 1.2348381134	 0.0411976139	 0.432162
C	-1.2528187727	 2.140886356	 0.0285614524	-0.319686
C	-0.628345104	 3.5567287545	 0.0228174105	-0.040113
C	 0.5932323109	 3.3149254483	-0.8980402085	-0.260572
C	 1.2051960997	 2.193273944	-0.0312346662	-0.129507
C	 1.2202619208	 2.8069092719	 1.3791927541	-0.024667
C	 1.3851459259	 4.2988200095	 1.550981124	-0.336406
C	 0.001955825	 3.7226111202	 1.4107134159	-0.011098
H	-1.8322088623	 1.9363760247	-0.8791740007	 0.121278
H	-1.8968837925	 1.9300526776	 0.8869309458	 0.121172
H	-1.3047692296	 4.3545047394	-0.2893163098	 0.067738
H	 0.2984336538	 2.9601454495	-1.8899863681	 0.103479
H	 1.2417201382	 4.1808861937	-1.0299879882	 0.10779
H	 2.1274832702	 1.721384084	-0.3676411817	 0.078417
H	 1.4614222808	 2.1539656674	 2.2097079731	 0.101293
H	 1.6626586849	 4.6165707082	 2.5506624414	 0.115987
H	 1.8239080816	 4.909469991	 0.7707610983	 0.115941
H	-0.6625618024	 3.7398013858	 2.2678634106	 0.089291
122.364	276.3238	334.6219	443.5039	464.6745	502.3973	529.9059	599.0181	682.8431	747.1004	764.2902	811.0023	826.7152	876.465	902.7709	919.5944	927.6852	944.511	979.8704	1003.4934	1021.2703	1050.5263	1075.8189	1081.5077	1105.9559	1118.8437	1144.9811	1160.1338	1197.9146	1202.1286	1228.6933	1264.4529	1292.0975	1298.2419	1308.6477	1346.064	1376.2389	1454.1868	1485.2144	1528.9215	1855.0966	3047.005	3068.643	3093.3429	3099.1623	3124.3842	3128.2639	3140.4297	3165.3811	3181.5922	3217.0599
O=C1CC2CC1C1CC21	O=C1C[C@@H]2C[C@H]1[C@H]1C[C@@H]21	
InChI=1S/C8H10O/c9-8-2-4-1-7(8)6-3-5(4)6/h4-7H,1-3H2	InChI=1S/C8H10O/c9-8-2-4-1-7(8)6-3-5(4)6/h4-7H,1-3H2/t4-,5-,6-,7-/m0/s1
