16
gdb 42362	2.64005	1.27855	0.94572	0.0602	69.22	-0.2575	-0.0437	0.2137	1206.8348	0.122865	-437.886621	-437.877722	-437.876778	-437.922021	30.418	
O	-0.6772323924	 0.1261249166	 1.3368190582	-0.272557
C	-0.1762064239	 0.9812902737	 0.6591118262	 0.363395
C	 1.3450363526	 1.2634890243	 0.7782439176	-0.442759
C	 1.9717920668	 1.796731907	-0.4247913892	 0.266642
N	 2.4442242041	 2.2153753673	-1.3931898446	-0.310424
C	-0.9487849919	 1.8429780168	-0.3253931949	 0.039935
C	-0.9911168838	 1.2801608385	-1.7768165548	-0.285525
C	-2.5067050649	 1.1667533504	-1.5107255431	-0.069316
O	-2.3621880237	 1.7271991438	-0.1850142373	-0.26765
H	 1.4732090611	 1.9845988435	 1.5959873819	 0.185103
H	 1.8334321507	 0.3362944816	 1.088569578	 0.183544
H	-0.6037804536	 2.8838809701	-0.2494427075	 0.105754
H	-0.687300893	 1.9914773038	-2.5433501526	 0.140805
H	-0.4660804725	 0.3369839955	-1.9312801991	 0.127938
H	-3.1493168038	 1.7877652332	-2.1440984799	 0.114522
H	-2.9062383017	 0.1476267239	-1.475684389	 0.120595
45.8265	57.6077	75.3441	118.9855	209.588	268.8231	345.3571	378.2268	483.1463	556.3296	662.0868	735.0072	791.0049	841.616	897.6726	946.6864	954.5136	974.6475	1036.5	1058.0711	1083.4343	1140.3713	1162.0386	1204.5909	1216.4717	1248.3837	1256.7981	1280.7152	1346.2803	1376.9446	1435.0398	1487.0705	1528.3358	1838.2601	2358.1767	3007.9234	3034.8886	3043.4152	3080.1302	3096.4973	3111.2639	3157.5344
O=C(CC#N)C1CCO1	O=C(CC#N)[C@H]1CCO1	
InChI=1S/C6H7NO2/c7-3-1-5(8)6-2-4-9-6/h6H,1-2,4H2	InChI=1S/C6H7NO2/c7-3-1-5(8)6-2-4-9-6/h6H,1-2,4H2/t6-/m1/s1
