18
gdb 47088	2.71885	1.69197	1.1928	2.9364	71.69	-0.2586	0.022	0.2806	1033.8282	0.151194	-439.109118	-439.101814	-439.10087	-439.141513	27.93	
N	 0.0220530715	 1.2354870255	 0.2947423831	-0.538952
C	 0.0368156995	 0.0055497904	 0.0113476541	 0.400133
O	 1.1555130479	-0.6988911586	-0.3352491916	-0.237558
C	 0.8241420967	-2.048008825	-0.7005978835	-0.11926
C	-0.5683713868	-2.3168576964	-0.1235508551	-0.042816
C	-0.5993584002	-2.8374788127	 1.3256378097	-0.098052
O	-1.7780397282	-2.2942232181	 1.8853704347	-0.243471
C	-1.8955904772	-0.9540424067	 1.4168240482	-0.089801
C	-1.1737226686	-0.9078022575	 0.0420716731	-0.137369
H	 0.9563766018	 1.6391631771	 0.2113246058	 0.222981
H	 0.8376804082	-2.1320878245	-1.7934659542	 0.115622
H	 1.6011291964	-2.7021444459	-0.2935857084	 0.121527
H	-1.1616325931	-2.9622403107	-0.7734118857	 0.090187
H	-0.6570165171	-3.9261781658	 1.402857751	 0.113735
H	 0.2987370682	-2.4965057527	 1.8703856465	 0.096049
H	-2.9603859102	-0.7201305583	 1.3454269796	 0.114032
H	-1.4279246754	-0.2451522833	 2.1121009795	 0.120876
H	-1.8580243635	-0.6284695468	-0.7613159868	 0.112136
56.9491	137.2948	216.8606	258.17	328.9572	443.9841	565.1301	612.1086	646.1548	716.5761	770.941	813.0471	869.3438	893.1668	941.8058	949.4569	979.6994	1004.8822	1015.7904	1047.3074	1084.5903	1111.4216	1125.89	1139.9432	1205.0402	1233.6778	1243.6291	1267.9409	1273.7875	1281.6233	1326.5952	1327.8609	1370.6247	1391.3977	1417.55	1511.7531	1522.339	1528.4624	1772.7733	2953.3956	3026.8867	3035.0094	3084.0132	3087.1438	3091.1486	3100.372	3108.3302	3475.7375
N=C1OCC2COCC12	[NH][C]1OC[C@H]2COC[C@@H]12	
InChI=1S/C6H9NO2/c7-6-5-3-8-1-4(5)2-9-6/h4-5,7H,1-3H2	InChI=1S/C6H9NO2/c7-6-5-3-8-1-4(5)2-9-6/h4-5,7H,1-3H2/t4-,5-/m1/s1
