19
gdb 54190	2.63969	1.49439	1.24615	2.9317	75.17	-0.2331	-0.0138	0.2193	1086.0804	0.157184	-423.013346	-423.004428	-423.003484	-423.046934	34.097	
C	 0.0903790575	 1.3330908928	 0.6230582583	-0.474365
C	 0.0583678202	 0.0707964027	-0.2103806193	 0.371318
O	 1.0305024736	-0.3397707088	-0.8066537804	-0.3147
C	-1.248449659	-0.7188584006	-0.2355082431	 0.302009
O	-2.3106769064	 0.1898363405	-0.0185527103	-0.488
C	-1.4735777036	-1.7026036395	-1.4319963728	-0.288528
C	-1.5651106151	-2.8744086604	-0.4400513593	-0.052066
C	-0.2888122612	-2.9861326976	 0.3379810501	-0.283169
C	-1.2873470453	-1.9303004032	 0.7332374706	-0.132778
H	 1.1090483012	 1.7205755875	 0.6584956963	 0.132047
H	-0.5844437218	 2.0769413312	 0.1884512353	 0.156065
H	-0.2815478243	 1.1372795759	 1.6338898241	 0.138634
H	-3.1122117512	-0.3239243053	 0.1292248528	 0.280337
H	-2.4175134009	-1.4637088223	-1.9276476632	 0.101581
H	-0.6719480686	-1.7570535116	-2.1714422766	 0.120455
H	-2.2758445197	-3.6896963201	-0.4956975944	 0.087396
H	-0.2304330009	-3.8263257645	 1.0227615704	 0.113189
H	 0.6559773829	-2.6977164752	-0.1117763417	 0.142517
H	-1.7294418573	-1.8806496115	 1.7224659133	 0.088059
51.8169	149.4782	157.6222	200.3587	273.1195	307.4127	345.3783	379.694	430.3686	447.6512	544.6982	602.4615	617.4647	743.3605	785.4417	820.8984	900.5252	928.6448	938.6505	961.1133	976.9145	986.979	1041.3043	1048.0818	1061.7146	1091.475	1107.0097	1148.3017	1187.3147	1205.638	1214.8252	1238.7009	1285.0098	1345.8833	1377.4624	1399.3749	1456.3518	1467.4942	1471.4124	1490.9405	1799.0028	3047.598	3067.5295	3111.1256	3126.487	3127.0814	3156.5419	3168.1979	3186.5549	3214.522	3802.7814
CC(=O)C1(O)CC2CC12	CC(=O)[C@@]1(O)C[C@H]2C[C@@H]12	
InChI=1S/C7H10O2/c1-4(8)7(9)3-5-2-6(5)7/h5-6,9H,2-3H2,1H3	InChI=1S/C7H10O2/c1-4(8)7(9)3-5-2-6(5)7/h5-6,9H,2-3H2,1H3/t5-,6-,7+/m1/s1
