16
gdb 129880	4.5856	0.86618	0.78466	2.6601	73.84	-0.2029	-0.0358	0.1671	1416.4276	0.124484	-434.080508	-434.071774	-434.07083	-434.115418	30.844	
N	-0.2028755769	 1.406781682	-0.1715995548	-0.606727
C	-0.0659470104	 0.0177079781	-0.0328834982	 0.171069
C	-1.051921823	-0.9509081258	-0.0739202137	-0.120665
N	-0.4441206889	-2.1405018219	 0.2225044678	 0.055216
C	-1.033022832	-3.4546733438	 0.1890183887	-0.244382
C	-1.0746817973	-4.0435528856	-1.2206173372	 0.148158
O	-1.869486477	-4.8743019025	-1.567758056	-0.225856
N	 0.8745248661	-2.0038702238	 0.4289516305	-0.266068
C	 1.1108714847	-0.7003682599	 0.2848570534	-0.050286
H	 0.6429715361	 1.8467889541	-0.5095276892	 0.246632
H	-0.9742392484	 1.6724718309	-0.7695215976	 0.244652
H	-2.1114502787	-0.8879037992	-0.2645325351	 0.126574
H	-0.4116551996	-4.1074469318	 0.8112282689	 0.165114
H	-2.0437988575	-3.4408828852	 0.6056594128	 0.146026
H	-0.2890090401	-3.6443992057	-1.8995574494	 0.103528
H	 2.110310953	-0.3137509401	 0.4235363392	 0.107016
35.813	65.3252	98.1936	173.1207	277.2688	284.7884	380.213	420.7022	430.7551	624.3269	654.002	666.001	717.7389	724.3328	761.9272	821.2926	848.9089	1001.6138	1028.405	1037.4768	1061.5362	1103.2302	1187.7764	1209.7127	1252.4015	1329.4122	1383.9295	1404.535	1408.3473	1436.933	1440.5362	1488.5039	1633.8543	1661.0398	1842.1173	2899.1278	3059.1664	3116.4719	3239.6393	3259.5465	3542.066	3630.1028
NC1=CN(CC=O)N=C1	Nc1cn(CC=O)nc1	
InChI=1S/C5H7N3O/c6-5-3-7-8(4-5)1-2-9/h2-4H,1,6H2	InChI=1S/C5H7N3O/c6-5-3-7-8(4-5)1-2-9/h2-4H,1,6H2
