16
gdb 45005	2.69094	1.71016	1.11993	1.9646	72.32	-0.2593	-0.0139	0.2454	1041.4587	0.127283	-434.096202	-434.088944	-434.088	-434.128064	28.15	
N	-0.1238730593	 1.3523635266	-0.1135505254	-0.507834
C	-0.0203223512	 0.0979018178	 0.0607528525	 0.389109
C	-1.2460099379	-0.7955643827	 0.0287760556	-0.305186
C	-1.1280401039	-1.9113300138	 1.0519749054	-0.019419
C	-0.8353656411	-3.3242602434	 0.6451752059	-0.251734
N	 0.2015161516	-2.4814635673	 1.2229173979	-0.112562
C	 1.277435827	-1.984294315	 0.4802907901	 0.40439
O	 2.252638085	-2.628398332	 0.1773929462	-0.358127
N	 1.1735009459	-0.6142872239	 0.2155275097	-0.378365
H	 0.7878690748	 1.8147658212	-0.0989696366	 0.211335
H	-2.1282767521	-0.1788590011	 0.1970543296	 0.146025
H	-1.3205536088	-1.2109692856	-0.9838351962	 0.134096
H	-1.6532243101	-1.749604394	 1.99038819	 0.116026
H	-1.1634795251	-4.1510101765	 1.2678852599	 0.136528
H	-0.7716104806	-3.5432871335	-0.4178945454	 0.13672
H	 2.0347182457	-0.1848664969	-0.092620259	 0.258999
109.475	126.2966	223.2793	353.5791	408.0544	446.7749	491.1014	514.1451	569.1644	584.7296	705.1315	733.869	776.4481	880.4004	893.112	907.3108	940.4771	951.6853	1036.4235	1083.3754	1105.3718	1133.5776	1144.4208	1169.1505	1218.5874	1238.469	1311.3222	1345.4629	1395.8398	1408.1433	1426.3688	1472.3323	1512.8715	1739.9699	1823.5788	3039.5194	3113.0707	3131.1456	3146.1552	3204.6551	3447.6278	3608.3873
N=C1CC2CN2C(=O)N1	[NH][C]1C[C@H]2CN2C(=O)N1	
InChI=1S/C5H7N3O/c6-4-1-3-2-8(3)5(9)7-4/h3H,1-2H2,(H2,6,7,9)	InChI=1S/C5H7N3O/c6-4-1-3-2-8(3)5(9)7-4/h3H,1-2H2,(H2,6,7,9)/t3-,8?/m0/s1
