21
gdb 58590	2.4479	1.43566	1.23522	2.0368	73.61	-0.26	0.0769	0.3369	1136.0098	0.181489	-461.367898	-461.358408	-461.357464	-461.401982	35.801	
C	 0.0280286724	 1.6105695535	 0.0130944856	-0.412481
C	 0.0297224391	 0.0793803551	 0.013347431	 0.106835
O	 0.7980527652	-0.4237849362	 1.0948090458	-0.440079
C	-1.3832014185	-0.5457103226	 0.0501326064	 0.340398
C	-2.272418809	-0.0998395807	-1.1095101034	-0.449677
C	-1.3179695981	-2.1001721116	 0.1799861003	-0.150712
O	-1.7297018824	-2.3773681788	 1.5139354677	-0.235535
C	-2.5607665162	-1.305941796	 1.8619978489	 0.005984
O	-1.9686736655	-0.1501929097	 1.3122336744	-0.299461
H	 1.0562908049	 1.9654730938	 0.1173184305	 0.123934
H	-0.3840254882	 2.0225357295	-0.9126856655	 0.112257
H	-0.5594866899	 1.993434513	 0.8531489875	 0.128726
H	 0.5292682947	-0.2829292425	-0.8942711718	 0.083798
H	 0.2521260393	-0.3068238238	 1.8828583713	 0.283271
H	-1.8262827865	-0.3834696323	-2.0693521326	 0.120211
H	-3.255403369	-0.5756203306	-1.0444127044	 0.120122
H	-2.4185886313	 0.9820411216	-1.1021359232	 0.132645
H	-1.9939594662	-2.5797363792	-0.5423747486	 0.091161
H	-0.3075231371	-2.4901857092	 0.0537297925	 0.13425
H	-3.5808992942	-1.4453119837	 1.4579246866	 0.083874
H	-2.5983450539	-1.2120064593	 2.9508540209	 0.120479
67.0114	99.1378	201.8898	212.8683	236.5192	255.8536	291.8348	358.9609	362.0223	387.4869	421.2477	488.8388	570.1879	633.0457	739.1185	780.2002	861.1077	907.9404	935.4043	975.9315	980.823	1019.9305	1047.506	1092.8793	1110.1512	1115.4072	1144.7936	1176.462	1206.4049	1219.3143	1252.5977	1276.6214	1301.935	1360.5929	1369.2004	1398.7216	1408.2718	1417.4178	1437.0865	1486.2138	1489.0536	1498.8676	1501.0672	1509.1946	1541.0511	2928.6379	2999.9744	3030.4666	3039.8791	3044.2558	3091.1951	3104.9572	3116.4387	3124.8018	3126.2583	3133.0266	3776.5164
CC(O)C1(C)COCO1	C[C@@H](O)[C@@]1(C)COCO1	
InChI=1S/C6H12O3/c1-5(7)6(2)3-8-4-9-6/h5,7H,3-4H2,1-2H3	InChI=1S/C6H12O3/c1-5(7)6(2)3-8-4-9-6/h5,7H,3-4H2,1-2H3/t5-,6-/m1/s1
