19
gdb 89186	2.61378	1.41623	1.1431	1.435	75.37	-0.2405	-0.0202	0.2203	1126.4982	0.157613	-423.022038	-423.013117	-423.012173	-423.055725	33.699	
C	-0.2538089403	 1.5309288528	 0.1897201173	-0.498796
C	 0.0674407829	 0.0705020386	-0.0317761613	 0.225098
C	-1.1257926466	-0.9555725601	-0.0237680956	-0.342484
C	-0.4633663667	-1.7103684048	 1.1634498744	 0.168054
O	-0.4366888646	-3.113433393	 1.1740904745	-0.431361
C	 0.8405527049	-0.9011354767	 0.9655586001	-0.120273
C	 1.753668206	-1.3709673366	-0.2019970382	-0.379625
C	 1.0816945821	-0.3175855087	-1.1076005108	 0.37457
O	 1.3302146609	 0.1124551309	-2.1973988303	-0.307206
H	 0.654288364	 2.1213945671	 0.3482290366	 0.124486
H	-0.7674704699	 1.9427325781	-0.6856769816	 0.13817
H	-0.9058186875	 1.6686586559	 1.0587518215	 0.118838
H	-2.1036780466	-0.5128654833	 0.1789797418	 0.117163
H	-1.2094837342	-1.5517762356	-0.9380824416	 0.107063
H	-0.934903851	-1.4263942681	 2.1087097695	 0.098042
H	-0.1019606604	-3.4211732043	 0.3255059376	 0.281022
H	 1.3637304486	-0.5446997616	 1.8527949735	 0.076209
H	 2.8195415064	-1.1743207615	-0.0551329563	 0.140141
H	 1.656844762	-2.4128925293	-0.5264316609	 0.11089
53.8051	136.2384	182.777	229.8558	233.2362	265.9686	282.9516	404.9332	431.2417	495.5963	553.6375	572.8732	658.6558	742.8347	767.6341	832.3781	856.053	911.1467	943.3597	988.2038	1027.1423	1037.1624	1054.9878	1106.4916	1113.1505	1119.8289	1158.501	1188.0518	1212.0766	1229.8411	1276.3752	1304.4147	1322.3616	1326.8373	1409.6158	1432.9161	1445.6146	1482.6536	1488.2396	1491.2703	1880.2394	3030.316	3047.1588	3051.2213	3068.0122	3098.2639	3099.0428	3101.6552	3109.3273	3114.5806	3813.544
CC12CC(O)C1CC2=O	C[C@]12C[C@@H](O)[C@H]1CC2=O	
InChI=1S/C7H10O2/c1-7-3-5(8)4(7)2-6(7)9/h4-5,8H,2-3H2,1H3	InChI=1S/C7H10O2/c1-7-3-5(8)4(7)2-6(7)9/h4-5,8H,2-3H2,1H3/t4-,5-,7+/m1/s1
