22
gdb 84880	2.09364	1.74062	1.32211	2.0077	81.68	-0.2423	0.0299	0.2722	1102.45	0.194525	-404.373579	-404.364377	-404.363433	-404.406651	35.93	
C	-0.1051431496	 1.5434419786	-0.0921911892	-0.404622
C	 0.044329026	 0.017464483	-0.0057726253	 0.037293
N	 0.6867340289	-0.4526102674	-1.2391414736	-0.272494
C	 1.8824381442	-0.8584182751	-1.1956760077	 0.114633
O	 2.7297610219	-0.933910664	-0.1417356273	-0.227516
C	 2.2606467818	-0.3192907725	 1.0661108529	-0.085202
C	 0.7536225015	-0.5175492879	 1.2726425526	 0.207398
C	 0.3256347402	 0.2248934117	 2.5471669613	-0.43573
C	 0.441674435	-2.017769496	 1.4384328378	-0.417382
H	 0.8603498794	 2.051328919	 0.0048641282	 0.112632
H	-0.5160896181	 1.804756249	-1.070638607	 0.131635
H	-0.7779695881	 1.927260548	 0.6790361551	 0.113624
H	-0.9702656948	-0.4031436674	-0.0188684305	 0.080221
H	 2.3757027527	-1.2352798573	-2.0904108358	 0.12104
H	 2.8399437914	-0.7740164688	 1.8746396979	 0.112627
H	 2.5097922276	 0.7492514014	 1.0272673958	 0.107688
H	 0.6134888992	 1.2799233281	 2.5310070569	 0.117759
H	-0.7603425459	 0.1755365545	 2.6800320932	 0.119423
H	 0.7850673185	-0.2323568796	 3.4307838724	 0.112116
H	 0.9956300039	-2.4401854427	 2.2838804161	 0.108014
H	-0.6259312557	-2.1650787417	 1.6318587789	 0.113814
H	 0.7008133	-2.5920917728	 0.5458866075	 0.13303
109.8773	184.4604	201.5866	235.3079	243.0135	280.338	316.1932	330.0966	355.4225	404.6503	448.4048	518.9671	530.5208	600.2804	710.281	843.0462	864.7233	895.0483	930.8588	956.1819	961.0706	973.5116	1003.2375	1022.1823	1077.7409	1093.2566	1116.1252	1173.3922	1214.1934	1230.6855	1261.0963	1301.4218	1334.9821	1367.9482	1395.2795	1399.5381	1403.938	1413.7425	1432.9515	1482.3947	1487.3123	1493.9844	1494.8731	1507.1773	1510.9299	1514.8456	1731.7783	3005.5347	3019.8064	3028.9728	3035.7866	3040.2714	3087.3509	3091.5087	3098.4998	3108.7281	3110.0683	3122.8639	3125.7173	3152.4312
CC1N=COCC1(C)C	C[C@H]1N=COCC1(C)C	
InChI=1S/C7H13NO/c1-6-7(2,3)4-9-5-8-6/h5-6H,4H2,1-3H3	InChI=1S/C7H13NO/c1-6-7(2,3)4-9-5-8-6/h5-6H,4H2,1-3H3/t6-/m1/s1
