18
gdb 99094	4.29786	0.76663	0.75266	4.9487	71.2	-0.2468	-0.0013	0.2454	1559.9133	0.145323	-476.274846	-476.264532	-476.263588	-476.311769	34.396	
C	 0.1691176948	 1.3760172067	 0.2108351061	-0.24116
O	 0.1111615478	-0.0395892315	-0.0235122413	-0.227981
C	 0.7391601371	-0.4682668726	-1.1317375747	 0.443829
O	 1.3314468042	 0.2414244932	-1.9007753571	-0.343034
C	 0.5772059563	-1.9843858749	-1.2611733917	-0.327418
N	 1.3197254679	-2.5489727935	-2.3541762599	-0.009
C	 2.7705454037	-2.603008876	-2.2624878357	-0.353473
C	 0.6869694141	-2.977361436	-3.4870967563	 0.163424
O	 1.2289131795	-3.4459342234	-4.4630680366	-0.335682
H	 1.2055657254	 1.7028744802	 0.3239633736	 0.145488
H	-0.2840338219	 1.9209946595	-0.6206678567	 0.1468
H	-0.3891018123	 1.5467205983	 1.1308856875	 0.139133
H	 0.8659014146	-2.4428640816	-0.3067542705	 0.140654
H	-0.4896241174	-2.1947145947	-1.3944260372	 0.150406
H	 3.077148234	-3.1861938962	-1.3857315835	 0.119109
H	 3.1381768835	-3.0870777132	-3.1670607965	 0.170065
H	 3.1904277673	-1.5956353215	-2.1901840992	 0.148962
H	-0.4123152988	-2.8569121928	-3.4091178103	 0.06988
37.4311	47.9619	107.7091	120.5941	148.3792	168.6214	238.3567	293.1923	323.2304	352.8682	378.763	397.1181	585.9451	690.2716	735.491	882.7619	898.1827	989.0782	1021.3738	1027.202	1104.0079	1156.2328	1179.0733	1206.7086	1226.5865	1231.6521	1294.022	1387.1397	1424.3884	1441.019	1442.5709	1460.9655	1474.6674	1482.13	1496.2149	1497.1065	1521.4649	1805.1959	1835.5608	2928.1423	3027.2159	3030.6379	3055.5974	3080.8418	3097.4173	3132.1981	3161.2774	3164.8715
COC(=O)CN(C)C=O	COC(=O)CN(C)C=O	
InChI=1S/C5H9NO3/c1-6(4-7)3-5(8)9-2/h4H,3H2,1-2H3	InChI=1S/C5H9NO3/c1-6(4-7)3-5(8)9-2/h4H,3H2,1-2H3
