17
gdb 60719	3.32012	1.09452	0.8615	1.2819	74.42	-0.2489	-0.0727	0.1762	1321.7326	0.133684	-455.189101	-455.179076	-455.178131	-455.225213	34.209	
C	-0.2282148632	 1.5493295832	 0.0883548049	-0.326599
N	-0.1019576031	 0.0881531098	 0.0194332235	-0.127739
C	 0.0516940226	-0.619831683	 1.2173688679	 0.098014
N	 0.0836516721	-0.0226285664	 2.3376057981	-0.467226
C	-0.1344306913	-0.6462646993	-1.1504584521	 0.348252
O	-0.1143139342	-1.8641490235	-1.1826476079	-0.355354
C	-0.1242695222	 0.1108651092	-2.5005450387	 0.283494
C	-0.7839063914	-0.6348582222	-3.6330262246	-0.472315
O	 0.4466157095	 1.1673153489	-2.6277362668	-0.283621
H	 0.7367357568	 2.0345574897	-0.0689468039	 0.151449
H	-0.9260930498	 1.9052298832	-0.6670644456	 0.138286
H	-0.5957440079	 1.7912495114	 1.0845117028	 0.166061
H	 0.1366252064	-1.6915491669	 1.0424482325	 0.147256
H	 0.2012900583	-0.6996370415	 3.0890544412	 0.235938
H	-0.3512611104	-1.6346190541	-3.7187285329	 0.172924
H	-1.8488202782	-0.77684414	-3.4152004692	 0.14864
H	-0.662636734	-0.0735709986	-4.5594952392	 0.14254
37.6745	61.5404	118.5061	125.8824	165.974	201.6279	278.9442	313.9206	328.6263	379.5025	397.4612	504.083	593.6702	630.1697	725.1073	764.403	837.9463	908.6566	990.6066	1035.3075	1085.2322	1093.8138	1151.2263	1168.6386	1226.7829	1345.7271	1366.4905	1383.1909	1414.1868	1455.5724	1460.3008	1467.6267	1484.8226	1511.7728	1709.6423	1751.6279	1812.0039	3046.7421	3076.3836	3116.7751	3147.3881	3152.4125	3166.4573	3178.1027	3507.9504
CN(C=N)C(=O)C(C)=O	CN(C=N)C(=O)C(=O)C	
InChI=1S/C5H8N2O2/c1-4(8)5(9)7(2)3-6/h3,6H,1-2H3	InChI=1S/C5H8N2O2/c1-4(8)5(9)7(2)3-6/h3,6H,1-2H3
