19
gdb 51546	4.74116	0.79155	0.76123	2.3649	77.47	-0.2295	-0.021	0.2086	1512.2837	0.157144	-422.996842	-422.98771	-422.986766	-423.032358	32.508	
O	-0.5498176181	 1.3078318828	 1.1713407026	-0.237951
C	-0.1470576093	 1.3033567021	 0.0372264648	 0.173214
C	 1.2888416221	 1.5586389783	-0.3735437518	-0.307342
C	 1.3840268647	 2.7175240536	-1.3507540347	-0.104953
C	 1.3581635983	 4.1604770412	-0.8515005742	-0.35933
C	 2.6082124324	 3.576343052	-1.421971687	 0.452568
C	 3.9892695966	 3.3879722226	-0.8021123134	-0.35633
C	 4.4922308238	 3.8657968972	-2.1818891033	-0.07291
O	 3.1385524898	 4.0092688247	-2.6742133119	-0.305972
H	-0.8398596996	 1.1161202661	-0.8167618399	 0.072573
H	 1.8746834916	 1.7445266844	 0.5316976658	 0.119349
H	 1.6731338268	 0.6432822686	-0.847290087	 0.119763
H	 0.8991141546	 2.5555271718	-2.3106059081	 0.103634
H	 0.8289182128	 4.8909507429	-1.4538432125	 0.126904
H	 1.3114823259	 4.3311550953	 0.2203243285	 0.122898
H	 4.2201380517	 4.0475365733	 0.0361910548	 0.119021
H	 4.2506778585	 2.3611965294	-0.5380038692	 0.116272
H	 5.0275629224	 4.8215181972	-2.1879354634	 0.110057
H	 5.0585854348	 3.1303655565	-2.7638922502	 0.108536
41.4862	60.2105	76.3338	135.1749	197.2591	270.4091	335.7821	389.9315	477.5161	516.9959	591.0674	764.6322	790.889	844.7819	865.7845	867.2406	905.3424	926.6208	970.7159	1016.7389	1020.9931	1042.0688	1076.0762	1099.3306	1120.8849	1153.1702	1165.5866	1192.906	1214.6372	1231.5975	1247.9811	1286.9998	1330.1769	1365.7236	1415.2996	1429.1154	1459.8036	1482.6176	1491.6446	1532.994	1835.6621	2856.8267	3007.6532	3029.759	3072.6882	3074.1569	3091.0334	3123.0558	3127.5683	3139.8884	3215.5365
O=CCC1CC11CCO1	O=CC[C@H]1C[C@]21CCO2	
InChI=1S/C7H10O2/c8-3-1-6-5-7(6)2-4-9-7/h3,6H,1-2,4-5H2	InChI=1S/C7H10O2/c8-3-1-6-5-7(6)2-4-9-7/h3,6H,1-2,4-5H2/t6-,7-/m0/s1
