20
gdb 120426	3.83442	0.83837	0.73128	4.387	82.78	-0.2408	-0.0257	0.2151	1583.5919	0.171482	-403.206121	-403.196975	-403.196031	-403.240666	33.764	
C	 0.017659972	 1.6235823862	-0.044704613	-0.382234
C	 0.0068224171	 0.0945461692	 0.0324127587	-0.174696
C	-1.4081157852	-0.4926378588	-0.0148163614	-0.166238
C	-1.4414674113	-2.031450301	 0.0241266473	-0.032879
N	-0.9524910625	-2.5988365476	 1.265880219	-0.327866
C	-1.8517275583	-3.4526532727	 1.8757953023	 0.397966
O	-1.6590661044	-4.1040317086	 2.8802710023	-0.385368
C	-3.0775729719	-3.3819814756	 1.0225718896	-0.19867
C	-2.8424444693	-2.5954005475	-0.0274970598	-0.073642
H	 1.0383265742	 2.0160122126	-0.0065001265	 0.116597
H	-0.4411317035	 1.9769753337	-0.9747181428	 0.116365
H	-0.5406459181	 2.065015963	 0.7879235457	 0.12047
H	 0.5997291319	-0.3201594649	-0.7940079226	 0.096446
H	 0.5021878238	-0.2233298067	 0.9586167568	 0.099406
H	-2.0015087142	-0.1110735373	 0.8247205521	 0.109118
H	-1.9077657639	-0.1636427931	-0.9357863773	 0.09683
H	-0.8597835077	-2.4111450133	-0.8328679682	 0.09586
H	 0.0107771232	-2.5741741055	 1.5539789537	 0.2524
H	-3.9802198026	-3.921776753	 1.2706039131	 0.123094
H	-3.5261184992	-2.3402612992	-0.8275458692	 0.11704
66.4351	93.7147	117.5131	138.5739	245.8356	276.0602	311.1785	388.018	424.8813	486.8023	542.0818	666.9871	707.9882	743.4704	784.5325	831.9926	878.4264	905.9184	926.4673	937.977	975.9877	1031.9736	1046.3919	1073.7358	1111.3303	1130.1697	1147.6853	1217.2725	1256.8326	1269.3062	1323.1919	1331.9027	1343.1169	1378.8486	1390.4001	1413.7108	1416.2632	1476.0227	1492.278	1499.8943	1509.2641	1655.1121	1823.024	2962.9293	3012.6884	3020.6916	3032.2585	3044.3731	3072.3118	3099.7549	3105.8568	3211.155	3249.429	3672.0412
CCCC1NC(=O)C=C1	CCC[C@H]1NC(=O)C=C1	
InChI=1S/C7H11NO/c1-2-3-6-4-5-7(9)8-6/h4-6H,2-3H2,1H3,(H,8,9)	InChI=1S/C7H11NO/c1-2-3-6-4-5-7(9)8-6/h4-6H,2-3H2,1H3,(H,8,9)/t6-/m1/s1
