20
gdb 109113	3.1245	1.23538	0.90517	1.4333	83.1	-0.215	0.0058	0.2208	1311.379	0.171333	-399.370867	-399.361265	-399.360321	-399.405992	34.293	
C	-0.0511018594	 1.5365919973	 0.0781478743	-0.369315
C	 0.0272830792	 0.014773695	-0.0416083002	-0.29752
C	 0.7329429413	-0.4475943414	-1.2814284882	 0.385594
N	 1.2313406251	 0.3283739774	-2.1718310025	-0.309942
C	 1.8158899258	-0.5436494143	-3.1925208894	-0.277951
C	 1.5655677158	-1.9777117286	-2.7310967991	 0.338074
N	 1.8508785466	-3.1177922698	-3.219748773	-0.557584
N	 0.8835781493	-1.8153927761	-1.5292282347	-0.107687
C	 0.4286552785	-2.9192212145	-0.7112423453	-0.352497
H	 0.9482090482	 1.9772850312	 0.0934789035	 0.135811
H	-0.5820018654	 1.9667097517	-0.7740254876	 0.135855
H	-0.5736597982	 1.8182089394	 0.9965055457	 0.10743
H	 0.539071052	-0.4140169561	 0.8307378643	 0.122252
H	-0.9795582853	-0.4244516284	-0.0297441975	 0.122276
H	 1.3559942782	-0.3575457367	-4.1705482495	 0.134981
H	 2.8889458442	-0.345878836	-3.3025704463	 0.134976
H	 2.3494096186	-3.0171132132	-4.1018375248	 0.21863
H	 0.7223729676	-3.8367310433	-1.2236229735	 0.176902
H	 0.8905816759	-2.9015107024	 0.2818455353	 0.12986
H	-0.6601627778	-2.9096836513	-0.5920172116	 0.129855
50.1757	79.1251	117.4032	173.7358	187.8785	198.3626	263.0727	299.7196	368.5462	514.2364	521.2846	615.1526	622.812	716.8809	737.2001	808.8033	815.0102	942.0876	987.1498	987.7904	1025.1937	1039.3416	1102.4752	1108.7834	1154.527	1157.0764	1190.8758	1240.6112	1287.5653	1288.9741	1319.4085	1391.5693	1415.392	1422.9797	1454.3644	1466.679	1471.753	1489.3482	1498.5308	1500.876	1508.5946	1696.1507	1736.6456	3017.361	3028.1901	3034.2253	3042.5242	3054.4662	3063.8972	3082.8675	3126.7028	3135.5024	3144.5463	3501.9734
CCC1=NCC(=N)N1C	CCC1=NC[C]([NH])N1C	
InChI=1S/C6H11N3/c1-3-6-8-4-5(7)9(6)2/h7H,3-4H2,1-2H3	InChI=1S/C6H11N3/c1-3-6-8-4-5(7)9(6)2/h7H,3-4H2,1-2H3
