21
gdb 41589	2.72435	1.70389	1.58564	1.4613	79.62	-0.2359	0.0715	0.3074	977.4684	0.186091	-387.066427	-387.059295	-387.058351	-387.097857	29.406	
C	-0.1216422129	 1.4037967372	 0.4295627182	-0.236237
C	 1.2021956397	 1.7305168599	-0.3332722053	-0.232829
C	 1.3794475826	 0.2294333446	-0.6686744071	-0.038357
C	 0.0475859562	-0.1044683186	 0.0934251152	-0.036232
C	-0.5758147309	-0.6438248592	-1.2337090885	-0.038298
C	-1.697232594	 0.1067885505	-1.9605617475	-0.25292
C	-0.9506654641	 1.1747522231	-2.7892759459	-0.083741
O	 0.3868601804	 0.7074131813	-2.9811970087	-0.261214
C	 0.7198864817	-0.2579696353	-2.0009726533	 0.102974
H	-0.0575443792	 1.6036886236	 1.5020603644	 0.099425
H	-1.0315660007	 1.8847992464	 0.0618481017	 0.095688
H	 1.1185011434	 2.3824695288	-1.2050936488	 0.114623
H	 1.9869906212	 2.1261689086	 0.3153111257	 0.096381
H	 2.338620199	-0.2306853599	-0.4269754337	 0.056178
H	 0.0027909887	-0.7928901511	 0.9383486785	 0.060485
H	-0.7718988447	-1.7164434949	-1.1804326852	 0.070999
H	-2.2341667969	-0.5797819897	-2.621851077	 0.105192
H	-2.4315832189	 0.5543803458	-1.2847169757	 0.105933
H	-1.3923927145	 1.3292688339	-3.7790577448	 0.103862
H	-0.9430712231	 2.1438243111	-2.2725297469	 0.095067
H	 1.271332577	-1.0611512259	-2.4990043151	 0.07302
113.0377	179.0221	231.3697	241.1258	421.9503	507.0002	588.9403	677.0643	683.1456	716.9702	761.5795	807.5899	837.7925	866.1152	872.674	904.6481	932.7469	953.0956	957.7718	1000.6476	1016.1059	1026.3573	1067.5352	1103.4966	1124.4371	1132.3912	1138.8272	1192.7234	1205.4261	1223.2098	1231.6027	1242.7951	1262.914	1265.3475	1279.9115	1291.0358	1306.4872	1330.3476	1338.8116	1357.09	1400.3002	1475.7182	1489.5386	1495.4573	1533.0563	3005.13	3050.7637	3052.646	3058.6259	3067.6757	3068.6577	3080.8624	3088.5403	3098.8134	3099.8378	3104.3058	3123.5284
C1CC2C1C1CCOC21	C1C[C@H]2[C@@H]1[C@H]1CCO[C@@H]21	
InChI=1S/C8H12O/c1-2-6-5(1)7-3-4-9-8(6)7/h5-8H,1-4H2	InChI=1S/C8H12O/c1-2-6-5(1)7-3-4-9-8(6)7/h5-8H,1-4H2/t5-,6+,7-,8+/m1/s1
