19
gdb 121324	2.77749	1.10915	0.90965	2.3809	72.47	-0.2444	-0.0294	0.215	1349.8045	0.158014	-460.182015	-460.172762	-460.171818	-460.217331	32.782	
C	-0.2963457095	 1.3620982685	-0.2487655081	-0.386804
C	-0.0190020293	-0.114380329	-0.0327543581	-0.042485
O	 0.638526782	-0.6193424963	-1.1950553013	-0.261468
C	 0.9619496207	-1.9776767905	-1.1191620704	 0.097824
O	-0.1567011541	-2.8258608419	-1.1738977726	-0.254307
C	-0.5346955114	-2.9765378142	-2.5550249138	-0.094186
C	 0.787297947	-3.0440100909	-3.3254660482	-0.344622
C	 1.7585688214	-2.3036331857	-2.404017456	 0.38719
O	 2.9103957387	-2.0408341017	-2.6061872381	-0.293172
H	 0.635215078	 1.9087244065	-0.41932505	 0.131647
H	-0.9442960729	 1.509076978	-1.1175743384	 0.126417
H	-0.7935719411	 1.7852490275	 0.6292064999	 0.118039
H	 0.6281333655	-0.2679530439	 0.8453003939	 0.094331
H	-0.949006722	-0.6710768414	 0.1396343496	 0.109334
H	 1.5102076674	-2.2106642387	-0.1969787497	 0.0925
H	-1.1373362562	-3.8833480046	-2.6249606746	 0.118547
H	-1.1420408665	-2.1216948246	-2.8762235369	 0.114544
H	 1.139496525	-4.074570541	-3.4410841884	 0.144834
H	 0.7668590774	-2.5838155162	-4.3156417586	 0.141838
46.5646	74.0387	98.4611	132.4811	188.6868	247.9762	287.7465	371.1383	435.8009	547.9667	572.3771	647.3505	694.7827	819.2379	829.7731	841.5997	898.2105	934.3577	989.0293	1025.8284	1050.1022	1074.098	1117.7076	1140.0191	1166.1157	1185.7905	1203.9597	1242.0216	1274.0956	1293.9903	1317.4079	1355.3154	1392.3805	1402.9917	1434.3312	1446.8983	1483.3268	1500.2242	1517.0732	1527.707	1873.279	2983.3962	3031.322	3033.7515	3041.266	3045.5544	3061.1582	3114.2256	3119.1808	3123.9751	3124.0645
CCOC1OCCC1=O	CCO[C@H]1OCCC1=O	
InChI=1S/C6H10O3/c1-2-8-6-5(7)3-4-9-6/h6H,2-4H2,1H3	InChI=1S/C6H10O3/c1-2-8-6-5(7)3-4-9-6/h6H,2-4H2,1H3/t6-/m0/s1
