19
gdb 107950	3.03094	1.51669	1.32891	1.6219	78.88	-0.2261	-0.0035	0.2226	1045.8158	0.159086	-385.823128	-385.815458	-385.814514	-385.855216	30.694	
C	-0.1025266841	 1.5722077498	 0.0893712337	-0.38148
C	-0.0171749303	 0.0415235287	 0.0677971283	-0.32879
C	 0.793045992	-0.5106542177	 1.2003446643	 0.465992
O	 0.3542426254	-0.230760853	 2.582008825	-0.361
C	 1.562381557	-1.0443011455	 2.7328778542	 0.066985
C	 1.1379923789	-2.0063602156	 1.5739834851	-0.14615
C	 2.3910631428	-2.3838740498	 0.8134615782	-0.112778
C	 3.1381188901	-1.2735039263	 0.827752268	-0.112993
C	 2.3072965465	-0.2689638322	 1.596699101	-0.134832
H	 0.8873620265	 2.0245062564	-0.0288010094	 0.117795
H	-0.7381167293	 1.9383298002	-0.7218624369	 0.112875
H	-0.5189247886	 1.9207629026	 1.038220797	 0.140506
H	-1.0223050196	-0.3943402874	 0.1240169575	 0.113088
H	 0.4308916519	-0.3107161138	-0.8696188382	 0.112035
H	 1.8941261479	-1.2800437656	 3.7471303206	 0.088801
H	 0.3248997488	-2.712225052	 1.7369995909	 0.073208
H	 2.6036741092	-3.3441772228	 0.3644612072	 0.106329
H	 4.1128702115	-1.1008553483	 0.3929597348	 0.105736
H	 2.6549730835	 0.7454025223	 1.7849323185	 0.074673
85.1129	162.4297	187.5559	253.1604	334.1353	445.8679	500.4289	535.612	607.4926	684.048	688.6359	742.7537	782.2625	799.1198	841.2589	901.6653	913.5204	921.6297	940.9079	948.0018	975.7516	994.4235	1003.4547	1053.5246	1109.9054	1128.6727	1137.4937	1166.8088	1187.6123	1218.3872	1242.4597	1270.7264	1294.9973	1325.6985	1344.8911	1392.3245	1410.7271	1468.3113	1497.3441	1507.6398	1627.1439	3028.5269	3042.7441	3065.498	3088.7558	3110.3128	3124.0085	3137.2043	3141.5428	3216.1458	3241.8322
CCC12OC3C1C=CC23	CC[C@@]12O[C@H]3[C@@H]1C=C[C@@H]23	
InChI=1S/C8H10O/c1-2-8-5-3-4-6(8)7(5)9-8/h3-7H,2H2,1H3	InChI=1S/C8H10O/c1-2-8-5-3-4-6(8)7(5)9-8/h3-7H,2H2,1H3/t5-,6+,7-,8+
