19
gdb 85311	2.42726	1.68769	1.15089	1.7895	74.78	-0.2402	-0.0232	0.217	1091.5831	0.159888	-423.043844	-423.035795	-423.034851	-423.076559	30.785	
C	 0.1035633003	 1.569647363	 0.0077296436	-0.404637
C	 0.0739011106	 0.0426890686	-0.0094080128	-0.000674
C	 0.7927303845	-0.6133862936	-1.2048445005	-0.337458
C	 1.1643186894	-2.0184377666	-0.7223074035	 0.398398
O	 1.3169491789	-2.9950295995	-1.4095015387	-0.318472
C	 1.2958578145	-1.9780131372	 0.8000528238	-0.189665
C	 2.6534855688	-1.4012260489	 1.2716903262	-0.084026
O	 2.0795849976	-0.0930809634	 1.4599976084	-0.293489
C	 0.7404508113	-0.5982691374	 1.2185338968	 0.112341
H	 1.1348790378	 1.9261821348	 0.0826869168	 0.137712
H	-0.3408383697	 1.983372463	-0.9026480077	 0.116037
H	-0.4536122929	 1.9664311789	 0.8630361716	 0.115293
H	-0.9704295534	-0.301636594	-0.0063672127	 0.081223
H	 0.2091982768	-0.6550329014	-2.1263864834	 0.125964
H	 1.7251373983	-0.0774339498	-1.4294785661	 0.135822
H	 0.953020547	-2.8963935612	 1.2739730914	 0.100741
H	 3.0081467868	-1.8323058463	 2.2159460755	 0.11199
H	 3.4756033594	-1.3998928755	 0.5466277745	 0.116262
H	 0.127698284	-0.5398440334	 2.1250279667	 0.076635
92.6808	118.0961	221.8772	227.5645	239.9762	300.5041	453.7169	479.984	510.1303	586.2686	659.9422	757.6957	824.6158	862.5471	883.0722	891.7335	925.818	960.8414	985.7584	1000.5977	1038.2188	1068.7873	1115.8597	1144.2487	1153.5856	1175.2895	1192.179	1211.1765	1256.5319	1264.5955	1277.1722	1327.7598	1335.4749	1364.1337	1373.3666	1409.851	1452.8153	1496.2447	1502.0067	1527.3523	1844.523	3003.6599	3017.295	3030.4926	3036.706	3045.8241	3064.5695	3102.1771	3117.2128	3119.4636	3130.7666
CC1CC(=O)C2COC12	C[C@H]1CC(=O)[C@H]2CO[C@@H]12	
InChI=1S/C7H10O2/c1-4-2-6(8)5-3-9-7(4)5/h4-5,7H,2-3H2,1H3	InChI=1S/C7H10O2/c1-4-2-6(8)5-3-9-7(4)5/h4-5,7H,2-3H2,1H3/t4-,5+,7-/m0/s1
