21
gdb 111767	2.4962	1.30168	1.0355	0.765	79.61	-0.2351	0.0868	0.3219	1263.6572	0.180742	-424.170633	-424.160981	-424.160037	-424.205358	35.063	
C	-0.4291755632	 1.0735711017	 0.1127266927	-0.234566
O	 0.4450229094	 0.0077541954	-0.2036269885	-0.241239
C	 0.9732875622	-0.6112969167	 0.9272447257	 0.056227
C	 0.2133092753	-1.6479666358	 1.7295814877	-0.205406
C	-0.6752219201	-2.4820292691	 0.7959608672	-0.219393
C	 0.5777443891	-2.8801870277	-0.0482197132	-0.295051
C	 1.4436303971	-2.024371548	 0.8864483016	 0.379365
O	 2.6921064306	-2.3915738665	 1.342709294	-0.278754
C	 3.724679628	-2.1441620785	 0.4011304805	-0.259097
H	 0.0942718954	 1.8796169418	 0.6492904158	 0.105561
H	-0.8125210609	 1.4687532006	-0.8310102762	 0.12576
H	-1.2716991989	 0.7370023626	 0.7334141501	 0.111935
H	 1.6016954478	 0.0346431903	 1.5447144472	 0.086665
H	 0.1100534246	-1.5696152781	 2.8054100327	 0.09111
H	-1.1305713314	-3.3373774554	 1.2982192301	 0.104559
H	-1.451508917	-1.9279873754	 0.2623687737	 0.103529
H	 0.8182793467	-3.9409475478	 0.0503678428	 0.106608
H	 0.5737592876	-2.5993070929	-1.1037732308	 0.106639
H	 3.5800133699	-2.7232528611	-0.5215973158	 0.114345
H	 3.7810021469	-1.0786286564	 0.1385044905	 0.11544
H	 4.6629583408	-2.4510356529	 0.8684844821	 0.125763
73.4399	99.6121	150.6322	163.9853	180.7211	187.7187	246.8508	288.106	368.9322	406.9472	499.7258	565.7583	662.431	783.0016	795.9495	841.7318	917.6239	935.2505	956.4993	987.5321	1031.0382	1041.7895	1069.7013	1110.9977	1138.7874	1145.9768	1180.3445	1182.3782	1204.4742	1214.9058	1226.8251	1239.0745	1241.6359	1258.0674	1304.6803	1328.8361	1435.7098	1468.7541	1479.0015	1483.7252	1485.5614	1487.599	1505.3782	1506.7449	1515.2992	2982.1718	2994.2475	3034.31	3047.9047	3063.0434	3069.5152	3084.6331	3110.8405	3116.8719	3121.5719	3129.0403	3182.6973
COC1C2CCC12OC	CO[C@H]1[C@H]2CC[C@@]12OC	
InChI=1S/C7H12O2/c1-8-6-5-3-4-7(5,6)9-2/h5-6H,3-4H2,1-2H3	InChI=1S/C7H12O2/c1-8-6-5-3-4-7(5,6)9-2/h5-6H,3-4H2,1-2H3/t5-,6+,7+/m1/s1
