18
gdb 17632	3.24304	1.56004	1.1314	2.9629	68.32	-0.2585	-0.0256	0.2329	1059.3321	0.151615	-384.947038	-384.938191	-384.937247	-384.981026	31.886	
C	-0.1693391564	 1.4138544376	 0.0675556127	-0.475313
C	-0.0063763416	-0.080943802	-0.0653038288	 0.361494
O	 1.0711999343	-0.6026478293	-0.2631096855	-0.320184
C	-1.2501142274	-0.9767048489	 0.0498048937	 0.027898
O	-0.8812556774	-2.3138275019	-0.1544587401	-0.438114
C	-1.9450665093	-0.801829777	 1.3895222663	 0.011528
C	-3.057439144	 0.2054380597	 1.5630898567	-0.274225
C	-3.3678043225	-1.2689373798	 1.5399939628	-0.265436
H	 0.7759209896	 1.9087301988	-0.1581931201	 0.145966
H	-0.9534500055	 1.7781895971	-0.603879608	 0.141708
H	-0.483375741	 1.6656458929	 1.0856494972	 0.157367
H	-1.9513663158	-0.651433582	-0.7409782789	 0.078251
H	 0.0785917276	-2.2896268765	-0.3040927864	 0.290402
H	-1.2933828458	-0.9665759834	 2.243722725	 0.090841
H	-3.1250307928	 0.7369716447	 2.5056649656	 0.115211
H	-3.3531775205	 0.7964315712	 0.7021746204	 0.111598
H	-3.8582415183	-1.6720605411	 0.6605925044	 0.123441
H	-3.6491013432	-1.75357249	 2.4677101931	 0.117565
55.0575	88.1795	110.5702	155.9737	272.0461	278.5817	339.9405	391.6009	449.0149	514.5225	561.2291	636.5719	762.6727	816.768	829.8262	880.3805	939.3863	968.628	972.7218	1027.3517	1059.3666	1081.2434	1131.467	1135.4504	1168.8278	1196.1307	1210.0047	1226.2769	1278.772	1318.6279	1383.9651	1403.0678	1441.454	1462.002	1470.6574	1472.7498	1505.3671	1794.8739	2934.6887	3046.7603	3109.8024	3130.7612	3138.7519	3142.8455	3154.5965	3209.9623	3227.6563	3664.1678
CC(=O)C(O)C1CC1	CC(=O)[C@@H](O)C1CC1	
InChI=1S/C6H10O2/c1-4(7)6(8)5-2-3-5/h5-6,8H,2-3H2,1H3	InChI=1S/C6H10O2/c1-4(7)6(8)5-2-3-5/h5-6,8H,2-3H2,1H3/t6-/m1/s1
