15
gdb 44919	3.15812	1.52625	1.50217	2.7018	66.25	-0.2517	-0.006	0.2457	923.1103	0.11606	-453.988508	-453.981997	-453.981052	-454.019385	26.191	
N	-0.0817297774	 1.2684845565	-0.0233011198	-0.559343
C	-0.0425680727	 0.0109031733	-0.0097456257	 0.456145
O	 1.0858657747	-0.7779038255	 0.0361880638	-0.2648
C	 0.6188833266	-2.1669254659	 0.034830684	-0.030228
C	-0.6115586397	-2.0868163268	-0.8742997043	-0.244407
C	-1.2146891462	-0.960526788	-0.0047050737	-0.107638
N	-1.2056176295	-1.6303446939	 1.3098773019	-0.307177
C	-0.0247771837	-2.3483479992	 1.4308217186	 0.428845
O	 0.4037842795	-2.9147734877	 2.4030515405	-0.364695
H	 0.8597527811	 1.6653791038	 0.0063975422	 0.231447
H	 1.4521536812	-2.821212042	-0.2005302245	 0.116094
H	-0.3661885728	-1.7719886972	-1.8903250054	 0.131861
H	-1.2224654828	-2.9903817157	-0.8786130497	 0.132354
H	-2.177829538	-0.5357375207	-0.270348329	 0.115791
H	-1.6162103902	-1.198701911	 2.1253424412	 0.26575
123.0045	216.3741	355.3692	403.4288	456.1786	491.9696	513.8125	591.1327	684.0568	736.8807	758.246	790.9047	868.5403	888.2199	904.0399	930.3696	955.2978	971.8698	990.7316	1021.6615	1067.6516	1129.5074	1177.95	1213.943	1251.058	1266.46	1289.1687	1330.7685	1346.6257	1386.624	1484.3714	1801.0034	1864.1047	3084.4987	3150.2218	3177.6077	3185.379	3466.8854	3618.5301
N=C1OC2CC1NC2=O	[NH][C]1O[C@@H]2C[C@H]1NC2=O	
InChI=1S/C5H6N2O2/c6-4-2-1-3(9-4)5(8)7-2/h2-3,6H,1H2,(H,7,8)	InChI=1S/C5H6N2O2/c6-4-2-1-3(9-4)5(8)7-2/h2-3,6H,1H2,(H,7,8)/t2-,3-/m1/s1
