19
gdb 64936	4.25622	0.70089	0.65818	1.843	88.61	-0.2275	0.0381	0.2656	1758.7067	0.157805	-385.830917	-385.821529	-385.820585	-385.866595	34.779	
O	 0.3191861363	 1.273613771	 0.3644785789	-0.445617
C	 0.0399862589	-0.0731461722	 0.0680272884	 0.232461
C	-0.7313795892	-0.8632784447	 1.1157463315	-0.31246
C	-1.4286188284	-0.3518830421	-0.1199741971	-0.289376
C	 1.0179317159	-0.7516640002	-0.7406399222	 0.072091
C	 1.8761059876	-1.2956922571	-1.3931080045	 0.028523
C	 2.8779952904	-1.9393697275	-2.1896993317	-0.159077
C	 4.2798835636	-2.1505919586	-1.634927917	-0.250784
C	 3.3744868133	-3.3299023538	-1.8191279872	-0.25065
H	 1.1744774068	 1.2982955915	 0.8081244043	 0.281853
H	-0.5365344639	-1.9256816624	 1.2032993888	 0.119987
H	-0.9211635396	-0.3420167004	 2.0471552179	 0.119601
H	-2.079429783	 0.5077476902	-0.0093805397	 0.129116
H	-1.7153696439	-1.0587842418	-0.8886189689	 0.12569
H	 2.8245764981	-1.7315335008	-3.254773524	 0.110459
H	 5.1079563135	-2.0179616285	-2.3219400893	 0.119155
H	 4.4663048133	-1.8028912174	-0.6260173549	 0.124216
H	 2.9438322774	-3.786209156	-0.9360147395	 0.125617
H	 3.5734353828	-4.0163280291	-2.6343258739	 0.119194
23.0564	81.3696	88.263	202.2324	205.9922	291.2746	336.4617	372.1453	463.0193	475.9678	565.4881	573.8896	600.9525	773.1876	783.5959	822.206	823.0764	883.6065	894.5751	905.0661	923.662	983.5681	1024.9759	1052.2074	1062.9669	1079.5937	1081.1822	1119.8017	1148.5218	1193.7845	1201.5376	1216.3396	1236.1009	1305.4769	1370.4346	1407.7583	1447.8183	1466.2622	1486.3221	1497.435	2345.6882	3138.6148	3139.9983	3141.1759	3146.5972	3146.7756	3225.76	3229.2961	3240.8493	3244.8682	3797.4441
OC1(CC1)C#CC1CC1	OC1(CC1)C#CC1CC1	
InChI=1S/C8H10O/c9-8(5-6-8)4-3-7-1-2-7/h7,9H,1-2,5-6H2	InChI=1S/C8H10O/c9-8(5-6-8)4-3-7-1-2-7/h7,9H,1-2,5-6H2
