18
gdb 83782	2.81827	1.9066	1.69355	1.4064	70.09	-0.2195	0.0569	0.2764	879.9049	0.150234	-439.019524	-439.012713	-439.011769	-439.050326	28.08	
O	-0.071788273	 1.507747253	-0.0208618347	-0.427788
C	-0.0311137024	 0.1073257699	 0.041468968	 0.147553
C	 0.1778665782	-0.620547674	 1.4008934603	-0.095297
C	-0.4873397998	 0.2000720898	 2.5017944298	-0.079931
O	-1.8101425401	 0.5646442264	 2.1055553737	-0.265162
C	-2.3390626732	-0.3750988541	 1.189961542	 0.103574
C	-2.0106536445	-1.8141560775	 1.6438030947	-0.196989
N	-0.7186728904	-1.7466583394	 0.8781855174	-0.162175
C	-1.3511023535	-0.6554891933	 0.0031826848	-0.052195
H	 0.8006418919	 1.8287081837	-0.2660497554	 0.288739
H	 0.6363032064	-0.3161068192	-0.7192592527	 0.087558
H	 1.1806519444	-0.9512512769	 1.6841132307	 0.072546
H	-0.5071699481	-0.3589333547	 3.4483837287	 0.09669
H	 0.0664208521	 1.1296718396	 2.6676689025	 0.111794
H	-3.365178942	-0.0707867014	 0.9742027293	 0.081357
H	-1.9441957178	-2.0100388872	 2.7176459871	 0.108921
H	-2.6446217189	-2.5754636937	 1.1797810297	 0.110423
H	-1.8038605694	-0.9561548613	-0.9452573159	 0.070382
190.3374	216.5938	249.3387	319.7408	426.2177	449.0387	513.5312	608.4685	630.9786	723.2948	750.5393	810.7528	839.8669	847.82	888.3711	949.2237	970.61	995.8442	1008.4161	1026.3983	1067.7958	1104.5148	1116.8724	1164.5922	1171.1025	1199.9021	1206.0888	1221.5652	1239.4702	1261.4077	1279.0262	1286.4013	1321.891	1348.7383	1358.5398	1400.5194	1450.5747	1487.4041	1514.3588	2997.5986	3025.4375	3052.025	3070.619	3074.607	3075.9643	3094.0262	3106.0854	3832.5544
OC1C2COC3CN2C13	O[C@H]1[C@H]2CO[C@@H]3CN2[C@H]13	
InChI=1S/C6H9NO2/c8-6-3-2-9-4-1-7(3)5(4)6/h3-6,8H,1-2H2	InChI=1S/C6H9NO2/c8-6-3-2-9-4-1-7(3)5(4)6/h3-6,8H,1-2H2/t3-,4-,5+,6+/m1/s1
