17
gdb 68964	2.60739	1.66725	1.25832	3.4316	79.88	-0.229	0.0185	0.2475	1030.7748	0.135165	-380.836542	-380.828168	-380.827224	-380.86897	32.641	
C	-0.064696968	 1.527253197	-0.0812207384	-0.491001
C	 0.0060160333	 0.0285110412	-0.0088490599	 0.289834
C	-0.7971002904	-0.7846755918	 0.9591733876	-0.345918
C	 0.7229776908	-0.81674339	 1.1029191258	 0.117271
N	 1.4116705718	-1.8908665754	 0.4231656967	-0.288296
C	 1.1845600529	-1.7438888738	-0.8310666116	 0.026309
N	 0.3611804796	-0.6963915743	-1.2072541284	-0.332268
C	 1.3337973272	-0.2475242601	 2.2658350531	 0.228963
C	 1.8294955632	 0.2668037763	 3.2339778422	-0.408353
H	 0.8407948486	 1.9440113097	-0.5359045865	 0.1245
H	-0.9313591264	 1.8605311146	-0.663815827	 0.126949
H	-0.1540197297	 1.9450485911	 0.9244438682	 0.144439
H	-1.3273456695	-0.2379247673	 1.7304296644	 0.125421
H	-1.2803016088	-1.691728129	 0.6106273057	 0.121422
H	 1.5740532722	-2.4145883634	-1.5900307784	 0.127701
H	 0.561044311	-0.1826595368	-2.0533790791	 0.245782
H	 2.2750828522	 0.703599652	 4.0928558155	 0.187243
123.1187	141.7347	172.2888	230.9833	305.2213	378.9909	399.9588	439.8078	519.6447	529.2546	567.3945	572.9969	617.5074	662.606	669.7474	746.9966	803.9234	908.0557	928.778	958.4301	968.656	983.5991	1058.1678	1095.8276	1110.3969	1129.844	1252.931	1278.6242	1329.7798	1353.6628	1416.0495	1440.7153	1477.5733	1484.8513	1497.8667	1643.0887	2234.8752	3028.1967	3088.8358	3123.2021	3129.372	3196.7191	3226.9168	3503.9488	3599.6514
CC12CC1(N=CN2)C#C	C[C@]12C[C@]1(N=CN2)C#C	
InChI=1S/C7H8N2/c1-3-7-4-6(7,2)8-5-9-7/h1,5H,4H2,2H3,(H,8,9)	InChI=1S/C7H8N2/c1-3-7-4-6(7,2)8-5-9-7/h1,5H,4H2,2H3,(H,8,9)/t6-,7+/m0/s1
