19
gdb 106716	2.47432	1.56879	1.25182	2.5507	75.44	-0.2427	0.0736	0.3162	1092.6832	0.157205	-422.954825	-422.946041	-422.945097	-422.988233	32.934	
C	-0.2929418645	 1.2601274978	 0.0599358452	-0.256168
O	 0.2127740872	-0.0573677105	-0.0798044249	-0.281319
C	 0.8224335144	-0.539583739	 1.0536874739	 0.411636
C	 0.0308591019	-1.0795283802	 2.2292418151	-0.401793
C	 0.9260849536	-2.0195353325	 1.440603403	 0.199982
C	 0.442053692	-3.2158410965	 0.6741984923	-0.493402
C	 2.3631617152	-1.7519570215	 1.8566081916	-0.026118
O	 3.0948142021	-1.2653438081	 0.7274309538	-0.244913
C	 2.2712914364	-0.3358843424	 1.4543774201	-0.076412
H	 0.5102479966	 1.9835329883	 0.2584699985	 0.113247
H	-0.7743181514	 1.5180491475	-0.8857387035	 0.130624
H	-1.0307647684	 1.3233034634	 0.871938107	 0.111367
H	 0.2684827374	-0.8036094165	 3.2533092272	 0.106562
H	-1.0314797432	-1.1942469325	 2.0316387355	 0.118871
H	-0.5219856992	-3.0086878621	 0.1997897221	 0.127663
H	 1.1551200574	-3.4758258759	-0.1142189352	 0.136565
H	 0.3167380654	-4.0881970237	 1.3254820441	 0.118256
H	 2.9292450389	-2.1867186568	 2.6725903716	 0.101809
H	 2.7655161382	 0.5310726413	 1.8767602626	 0.103542
77.9968	141.2252	169.248	196.4772	207.614	252.336	297.8815	408.2116	438.3377	546.4658	585.0762	637.7339	754.4927	785.7409	832.2549	872.6867	888.4118	914.428	966.3176	973.226	987.4038	1052.6076	1062.0385	1079.7204	1103.4696	1144.0655	1180.5646	1196.077	1213.868	1234.2508	1270.3156	1337.6892	1349.4981	1389.5272	1420.1508	1477.0733	1486.7152	1488.8009	1497.1249	1502.9513	1506.6091	2992.9285	3031.3151	3046.8705	3095.1269	3108.7762	3110.7079	3124.206	3178.9353	3193.1449	3196.4007
COC12CC1(C)C1OC21	CO[C@@]12C[C@]1(C)[C@H]1O[C@@H]21	
InChI=1S/C7H10O2/c1-6-3-7(6,8-2)5-4(6)9-5/h4-5H,3H2,1-2H3	InChI=1S/C7H10O2/c1-6-3-7(6,8-2)5-4(6)9-5/h4-5H,3H2,1-2H3/t4-,5+,6+,7+/m0/s1
