23
gdb 42046	2.71223	1.41518	1.02705	1.9032	84.48	-0.2378	0.0734	0.3112	1226.5621	0.209281	-388.294945	-388.28683	-388.285885	-388.327667	32.415	
C	 0.1423014101	 1.6226047848	 0.1065361384	-0.096216
O	 1.397457883	 1.4987273505	-0.5907358448	-0.296395
C	 1.2687813729	 0.0586630456	-0.6731373127	 0.149504
C	 2.4679968149	-0.6762119921	-0.0955309324	-0.214563
C	 2.2400296732	-2.1944468436	 0.0139058768	-0.194888
C	 1.4601445495	-2.638108629	 1.2629849979	-0.17842
C	 0.0130079808	-2.1331874668	 1.3911354592	-0.189435
C	-0.139211827	-0.6033725006	 1.4742548125	-0.215323
C	-0.0674626869	 0.0926644561	 0.119065412	-0.038746
H	 0.2647602817	 2.0919723925	 1.0920904372	 0.094979
H	-0.5922340766	 2.2002327675	-0.4690868312	 0.095212
H	 1.1309125184	-0.2520439337	-1.7197703721	 0.068133
H	 3.3276593786	-0.4695557419	-0.744042443	 0.10015
H	 2.7175154542	-0.2571401619	 0.8864423472	 0.096617
H	 1.7274610206	-2.5534541245	-0.8901699259	 0.091421
H	 3.2123430311	-2.7000228936	 0.0253269844	 0.095607
H	 1.4462411468	-3.7347501432	 1.2917964132	 0.091441
H	 2.0205497457	-2.3207820145	 2.1537082038	 0.094183
H	-0.5861610412	-2.5101015356	 0.550156227	 0.090425
H	-0.4200549155	-2.5821030012	 2.2929960293	 0.0928
H	-1.1077898587	-0.3592853062	 1.9289785376	 0.093842
H	 0.6215609061	-0.1945968774	 2.1522222896	 0.096544
H	-0.9166990916	-0.2277187111	-0.4918329139	 0.073129
68.3252	163.6824	218.7924	285.3078	290.8503	320.5997	388.4437	422.372	500.3316	529.7261	722.6233	748.7065	811.3735	844.9974	855.7107	902.3622	908.7046	949.6411	980.44	1003.9846	1023.1819	1038.2812	1052.7537	1064.0635	1095.3788	1113.82	1159.6522	1179.2449	1199.4924	1208.928	1219.8423	1262.0391	1283.5484	1296.9731	1303.4365	1342.9493	1345.1086	1376.1378	1378.937	1388.1835	1390.8869	1397.9083	1405.2634	1483.4801	1484.1738	1488.1044	1495.0863	1506.4018	1527.4412	2979.7988	3001.5419	3005.0685	3008.0412	3009.6421	3015.5346	3029.7221	3037.6822	3045.5387	3051.1601	3053.9058	3060.0008	3065.4916	3073.1382
C1OC2CCCCCC12	C1O[C@H]2CCCCC[C@@H]12	
InChI=1S/C8H14O/c1-2-4-7-6-9-8(7)5-3-1/h7-8H,1-6H2	InChI=1S/C8H14O/c1-2-4-7-6-9-8(7)5-3-1/h7-8H,1-6H2/t7-,8-/m0/s1
