14
gdb 125276	3.23858	1.26221	0.9134	4.5612	80.87	-0.1954	-0.0634	0.132	1195.2999	0.10071	-432.900103	-432.891911	-432.890966	-432.932978	29.707	
C	-0.0214376135	 1.4638698309	-0.0346654514	-0.498429
C	 0.0008603144	-0.0243597394	 0.0162247513	 0.381771
C	-0.040994546	-0.9277256682	-0.9913249599	-0.377885
C	 0.0100038384	-2.2374733045	-0.3710825675	 0.242795
C	 0.0862606181	-2.080516323	 1.1038011784	 0.363463
N	 0.0758272487	-0.6946229909	 1.2425883999	-0.403904
O	 0.1442583601	-2.9064483306	 1.9901359246	-0.391108
N	-0.0135357961	-4.4436176073	-1.3968983161	-0.225248
N	-0.0046870912	-3.4061467671	-0.9378940823	 0.105479
H	 0.8820837492	 1.8951641967	 0.4138998754	 0.138771
H	-0.0828497529	 1.8063368913	-1.0695027235	 0.142878
H	-0.881317355	 1.8720222708	 0.5108542187	 0.13868
H	-0.1000694206	-0.7206645406	-2.046923445	 0.119423
H	 0.1168062863	-0.2566129681	 2.1475246674	 0.263314
117.698	139.1851	160.3945	174.1321	282.2951	303.1351	423.1822	437.8025	516.4847	520.0965	598.6147	614.7912	659.1826	711.885	754.548	799.518	984.7593	1010.0478	1062.313	1146.6069	1168.787	1237.7564	1289.3921	1406.7198	1420.696	1452.1339	1474.2693	1493.3694	1662.2732	1809.4799	2213.7088	3021.4381	3068.2064	3131.0302	3270.2458	3670.4185
CC1=CC2=C(N1)ON=N2	C[C]1C=C(C(=O)N1)[N][N]	
InChI=1S/C5H5N3O/c1-3-2-4-5(6-3)9-8-7-4/h2,6H,1H3	InChI=1S/C5H5N3O/c1-3-2-4(8-6)5(9)7-3/h2H,1H3,(H,7,8,9)
