19
gdb 31640	3.4241	1.07127	0.86705	2.1954	79.53	-0.1951	0.0506	0.2457	1377.6191	0.159528	-419.260949	-419.251401	-419.250456	-419.296074	34.215	
C	 0.0331689861	 1.5366758554	-0.1295641889	-0.364636
C	-0.0164039825	 0.012126115	 0.0598027351	-0.285742
C	-1.4035289201	-0.5418377653	-0.0221075155	 0.28453
C	-1.9233998492	-1.4237957783	-0.9253523436	-0.233047
N	-3.2597675492	-1.6082742254	-0.5673338943	-0.049833
C	-4.237401843	-2.4542221928	-1.2188957572	-0.34578
C	-3.449127671	-0.8237032773	 0.5224776749	 0.434024
O	-4.6584164442	-0.7822819092	 1.1147220501	-0.431874
N	-2.3828740367	-0.1671958015	 0.892541397	-0.428252
H	 1.0547141985	 1.913697302	-0.0169094773	 0.102842
H	-0.3277206305	 1.8192702513	-1.1238465485	 0.110596
H	-0.6014747721	 2.0320665199	 0.6101285389	 0.133555
H	 0.6094540276	-0.4805064803	-0.6930103238	 0.093702
H	 0.4138180532	-0.2386427484	 1.0380602358	 0.107447
H	-1.4952255247	-1.9373741036	-1.7702765875	 0.117873
H	-3.9032917702	-3.4966646284	-1.2298162434	 0.139314
H	-5.1760081993	-2.3916118728	-0.6681263668	 0.163161
H	-4.4109562991	-2.1296438193	-2.2501625463	 0.13911
H	-4.5664742536	-0.175176271	 1.8593323412	 0.313009
54.6024	59.3216	118.407	175.97	200.8812	277.0126	280.3754	321.659	385.2128	408.972	514.7979	591.645	667.3404	670.1133	706.8813	733.7019	792.3085	832.8571	959.6968	1018.7668	1065.0376	1075.5191	1090.2589	1153.93	1173.9484	1196.8616	1266.0638	1307.512	1333.3771	1354.5611	1377.3065	1403.7001	1455.0262	1478.0593	1490.272	1494.3281	1508.6215	1510.5392	1591.5414	1600.4884	1617.9459	3021.1728	3036.1328	3037.0876	3063.182	3092.679	3103.7524	3121.1107	3156.1167	3268.3235	3809.5205
CCC1=CN(C)C(O)=N1	CCc1cn(C)c(O)n1	
InChI=1S/C6H10N2O/c1-3-5-4-8(2)6(9)7-5/h4H,3H2,1-2H3,(H,7,9)	InChI=1S/C6H10N2O/c1-3-5-4-8(2)6(9)7-5/h4H,3H2,1-2H3,(H,7,9)
