21
gdb 54261	2.83286	1.23971	1.11467	1.9464	78.19	-0.2329	-0.0135	0.2194	1212.4784	0.181425	-424.265143	-424.255469	-424.254525	-424.300538	35.858	
C	-0.0229409	 1.3627864771	 0.7927036019	-0.471761
C	 0.0515761814	 0.1251391508	-0.0787245202	 0.315724
O	 1.0539593553	-0.1724188979	-0.6897186544	-0.314628
C	-1.1914658696	-0.7831405646	-0.1333394047	 0.289119
O	-2.3394806367	-0.1376399128	 0.421849586	-0.480015
C	-1.4669515733	-1.3437955315	-1.5521676579	-0.25658
C	-1.9304239225	-2.8164731012	-1.3641067984	-0.203805
C	-2.0064862	-3.0338366705	 0.1616739129	-0.207792
C	-0.9658649835	-2.0523213421	 0.7179452864	-0.21238
H	 0.9645601476	 1.8216494792	 0.8523397694	 0.135394
H	-0.7347158691	 2.0808356983	 0.3704328071	 0.131847
H	-0.3993856642	 1.1152607758	 1.7892542742	 0.148355
H	-2.7173610247	 0.4371168301	-0.2513053207	 0.277377
H	-2.2208548396	-0.7298989039	-2.0577582572	 0.0857
H	-0.5506567806	-1.2866761546	-2.1423934936	 0.13098
H	-2.8828808826	-3.0210965619	-1.8596432656	 0.097784
H	-1.1922040932	-3.4937105547	-1.8052517	 0.106537
H	-2.996012169	-2.7574626191	 0.5375818828	 0.112066
H	-1.8137968573	-4.0690918702	 0.4561201966	 0.093079
H	 0.0500553953	-2.4188086362	 0.537591246	 0.117392
H	-1.0783700337	-1.8419408603	 1.7847174096	 0.105607
33.0659	51.6606	147.2286	179.7508	212.0012	272.4618	303.4968	346.0566	373.5847	418.5966	519.6843	589.2126	597.2921	604.6001	756.077	785.4972	849.9915	888.2726	905.8298	927.778	944.5529	995.6043	1013.4973	1030.017	1057.8424	1065.9261	1091.6517	1190.0085	1222.5446	1226.194	1257.616	1291.727	1301.4109	1316.6855	1346.7727	1348.4712	1360.0098	1381.8242	1452.2946	1468.6623	1476.2186	1479.822	1489.9031	1510.6821	1799.7534	3040.3378	3044.513	3051.7801	3054.5235	3057.9825	3089.8969	3102.2114	3106.9552	3113.1741	3120.389	3156.4256	3816.4622
CC(=O)C1(O)CCCC1	CC(=O)C1(O)CCCC1	
InChI=1S/C7H12O2/c1-6(8)7(9)4-2-3-5-7/h9H,2-5H2,1H3	InChI=1S/C7H12O2/c1-6(8)7(9)4-2-3-5-7/h9H,2-5H2,1H3
