18
gdb 79364	2.42842	1.94701	1.80757	0.9031	69.15	-0.1917	0.0643	0.256	881.1141	0.151281	-439.056415	-439.049499	-439.048554	-439.087426	28.438	
O	-0.1455964892	 1.4505525295	-0.0044505267	-0.425829
C	-0.0530147971	 0.0377529375	-0.0228902411	 0.123373
C	-1.4063211121	-0.6181389783	-0.1733879023	-0.140167
C	-1.8887088156	-0.7587374244	-1.6061992378	-0.028874
N	-1.2810675463	 0.0287208054	-2.6560202654	-0.308611
C	 0.1850807392	 0.1700667453	-2.5288403907	-0.139936
C	 0.6719932135	-0.5449937422	-1.2670989442	-0.01445
O	 0.252651153	-1.9143326618	-1.3059220022	-0.267681
C	-1.1219224699	-1.8829048972	-0.9565152151	 0.069478
H	 0.7215079281	 1.8045212175	 0.2173431485	 0.284492
H	 0.428409756	-0.3309912295	 0.895055972	 0.072556
H	-2.1155612201	-0.5789965414	 0.6440513412	 0.090957
H	-2.9590724138	-0.8828198283	-1.7358677598	 0.093028
H	-1.5050643473	-0.3970044641	-3.5469409394	 0.22257
H	 0.6955175072	-0.2657239475	-3.3946635626	 0.095617
H	 0.4571145273	 1.2317026662	-2.4749864218	 0.100823
H	 1.7623321078	-0.5285197821	-1.1915182324	 0.07566
H	-1.5214584509	-2.8638431248	-0.7289739104	 0.096993
132.0096	230.8977	282.2803	298.2391	404.7856	479.0661	540.1809	597.5661	650.9318	666.0017	737.454	775.4905	786.274	838.5842	899.0463	917.1728	928.1579	985.0423	1031.1705	1056.6848	1071.3405	1079.8494	1092.3684	1106.3169	1121.0946	1133.8826	1208.6292	1219.1604	1248.7274	1280.3889	1298.2189	1325.6	1344.7651	1362.954	1390.5533	1426.2163	1444.0097	1482.4667	1498.5795	2989.2266	3017.9869	3057.3214	3081.0291	3157.4448	3180.3197	3190.7665	3541.8523	3816.6119
OC1C2C3NCC1OC23	O[C@H]1[C@H]2[C@H]3NC[C@@H]1O[C@@H]23	
InChI=1S/C6H9NO2/c8-5-2-1-7-4-3(5)6(4)9-2/h2-8H,1H2	InChI=1S/C6H9NO2/c8-5-2-1-7-4-3(5)6(4)9-2/h2-8H,1H2/t2-,3+,4+,5+,6-/m0/s1
