18
gdb 76283	2.4026	1.57196	1.01592	2.5893	73.32	-0.2444	-0.0371	0.2073	1159.4463	0.146524	-439.156383	-439.147247	-439.146303	-439.190708	32.893	
C	-0.0488159892	 1.6263851712	 0.0334996693	-0.396937
C	 0.0351972283	 0.0976500803	-0.0270782777	-0.087702
N	 0.7472667271	-0.433997581	-1.1786067305	-0.08337
C	 0.3086920361	-0.1987716061	-2.5376691313	-0.351895
C	 1.7876263019	-1.2858820202	-0.8932599711	 0.411015
O	 2.4740076582	-1.8571393104	-1.7138315974	-0.386303
C	 1.9110574757	-1.3844094387	 0.6231969687	-0.469491
C	 0.824158479	-0.4746484917	 1.1639768923	 0.401376
O	 0.5959009061	-0.2081305166	 2.3139297125	-0.30686
H	 0.9458106669	 2.0743907673	-0.053397943	 0.127196
H	-0.6800419738	 2.0230977927	-0.7659525962	 0.12545
H	-0.4801315437	 1.9178748743	 0.9941931442	 0.14985
H	-0.9873360154	-0.3126631282	 0.0168333847	 0.109477
H	 0.3779391657	 0.8613596498	-2.8044382959	 0.130925
H	 0.9581825414	-0.7767538991	-3.1961500385	 0.171227
H	-0.7306059091	-0.5234390644	-2.6750347235	 0.124415
H	 1.765688966	-2.4176583156	 0.9550288319	 0.165849
H	 2.9030374488	-1.0778784435	 0.9678311616	 0.165777
52.0747	106.9161	148.5386	169.0048	215.9439	247.9602	301.4732	380.2332	409.4516	493.3355	543.5028	569.3463	618.7572	655.1959	741.6251	790.081	916.4316	956.9857	1012.1165	1065.4853	1093.1518	1111.5889	1149.805	1160.251	1204.2375	1240.3666	1271.2661	1304.7452	1348.7708	1399.1553	1411.7405	1421.0505	1447.1659	1489.4604	1493.7106	1501.2204	1520.1888	1806.4169	1862.7116	2968.3934	3019.1212	3045.5527	3066.4306	3074.2885	3107.072	3119.5303	3134.2149	3150.7365
CC1N(C)C(=O)CC1=O	C[C@H]1N(C)C(=O)CC1=O	
InChI=1S/C6H9NO2/c1-4-5(8)3-6(9)7(4)2/h4H,3H2,1-2H3	InChI=1S/C6H9NO2/c1-4-5(8)3-6(9)7(4)2/h4H,3H2,1-2H3/t4-/m1/s1
