24
gdb 6053	2.86929	1.41949	1.23554	1.3356	80.98	-0.2584	0.0667	0.3251	1162.9722	0.22038	-351.420741	-351.410008	-351.409064	-351.455426	40.298	
C	 0.1062224111	 1.5811786816	 0.1996621155	-0.389485
C	-0.0715149553	 0.0816699349	-0.0610958698	-0.208599
C	 0.6408902515	-0.4475263537	-1.3298633392	 0.366736
C	 0.0769816279	 0.1975904375	-2.5990256565	-0.410235
O	 2.019359989	-0.040633921	-1.2974459536	-0.46233
C	 0.5895842096	-2.0069491333	-1.3707992747	 0.018375
C	-0.8280716414	-2.6008767473	-1.3666882341	-0.405523
C	 1.4056585082	-2.5926828745	-2.5339027156	-0.402339
H	 1.1638575605	 1.8557959704	 0.1819217022	 0.124255
H	-0.4079503983	 2.1888423223	-0.5509576821	 0.116396
H	-0.3055694674	 1.8519220097	 1.1767824931	 0.10609
H	 0.3170713258	-0.4806921947	 0.8006905251	 0.07929
H	-1.1396319824	-0.1540898898	-0.1167407769	 0.098843
H	 0.2140072853	 1.2804847895	-2.5630846416	 0.124321
H	 0.5974083276	-0.1696862571	-3.4860918491	 0.122263
H	-0.9907672513	-0.0104082766	-2.7084859067	 0.111739
H	 2.4216690035	-0.4387336717	-0.5170737001	 0.271284
H	 1.0771787652	-2.3303925101	-0.4366839892	 0.054153
H	-0.7747019282	-3.6944868951	-1.3757321445	 0.111801
H	-1.4051699675	-2.309451872	-0.4855479539	 0.114412
H	-1.3912839786	-2.2977111709	-2.2560183578	 0.117203
H	 2.3866060393	-2.1181812371	-2.6044496616	 0.124061
H	 1.5482620759	-3.669093917	-2.3930794063	 0.104291
H	 0.8928221199	-2.4577797938	-3.4921507827	 0.112997
71.7675	98.9395	181.0872	198.2429	224.9171	234.6285	247.0574	289.8097	318.5625	329.0178	345.7701	363.5444	407.8367	452.1966	485.663	561.3584	702.663	792.7673	855.0332	917.7037	925.0374	933.5689	966.1223	989.5592	1006.5291	1057.767	1092.5616	1123.8249	1158.1565	1165.414	1207.3386	1215.702	1295.4027	1332.8941	1349.3494	1367.6343	1386.4157	1395.4243	1407.8725	1419.0395	1431.9576	1477.8706	1486.4796	1489.9373	1493.5334	1495.6444	1507.6364	1510.5241	1514.2469	1519.5166	2965.0468	3002.3835	3034.8327	3039.301	3043.4506	3056.1862	3068.3498	3093.1394	3098.7332	3105.1399	3117.3302	3125.146	3129.0582	3129.5398	3133.7999	3792.5466
CCC(C)(O)C(C)C	CC[C@@](C)(O)C(C)C	
InChI=1S/C7H16O/c1-5-7(4,8)6(2)3/h6,8H,5H2,1-4H3	InChI=1S/C7H16O/c1-5-7(4,8)6(2)3/h6,8H,5H2,1-4H3/t7-/m1/s1
