22
gdb 112674	3.24941	1.0219	0.8182	2.6504	83.7	-0.2213	-0.0159	0.2055	1466.2006	0.193347	-404.376883	-404.36721	-404.366266	-404.411518	35.828	
C	-0.0604266251	 1.5865674092	-0.1871618996	-0.389648
C	 0.023600624	 0.0771403082	 0.0344351031	-0.108929
N	-1.2823907325	-0.5491122919	 0.1586273397	-0.073805
C	-1.2493775026	-2.0141174857	 0.1293747486	-0.1756
C	-2.6752764555	-2.4201514528	 0.5181580455	-0.094572
C	-2.8804818949	-3.8288205514	 1.0656333514	-0.406892
C	-3.0558421038	-1.316572827	 1.5108689774	 0.397346
O	-3.9584246356	-1.3508710007	 2.3055676369	-0.318573
C	-2.0509926064	-0.1765618465	 1.3389757779	-0.277457
H	 0.9392002872	 2.0027348264	-0.3438806582	 0.1156
H	-0.6730439916	 1.8123208185	-1.0649505753	 0.12536
H	-0.4989605167	 2.0984746928	 0.6749358195	 0.121727
H	 0.5282719181	-0.387215403	-0.8214181976	 0.100003
H	 0.6541782304	-0.1331666254	 0.9225890837	 0.074783
H	-0.9489611284	-2.3653507783	-0.8626792226	 0.106758
H	-0.5299419574	-2.4322898382	 0.8625443591	 0.078334
H	-3.3256992783	-2.2625506748	-0.354591049	 0.113615
H	-2.2017529142	-4.0286070834	 1.9013988461	 0.11988
H	-3.9036667285	-3.9407530234	 1.4333865783	 0.140205
H	-2.7017867462	-4.5849210486	 0.2955782342	 0.115552
H	-1.4395065589	-0.1304884679	 2.2640777614	 0.103543
H	-2.557383603	 0.7876988941	 1.2365606093	 0.132773
76.5456	97.8298	126.8296	192.6434	207.6893	239.4874	250.8187	330.835	346.8391	407.5765	493.1484	541.9493	580.534	620.8819	740.0644	811.4695	858.8391	908.903	933.8074	956.9989	978.6649	1045.7954	1080.0623	1109.8004	1118.4791	1151.937	1161.0902	1191.0814	1196.9231	1209.7881	1258.4248	1292.9894	1302.9728	1323.5286	1346.309	1371.5059	1402.4523	1408.5872	1424.7167	1475.6898	1489.7923	1494.2723	1496.3567	1498.3886	1510.3639	1522.3985	1853.4596	2890.1243	2893.6503	2903.2995	3010.1481	3040.8129	3041.4867	3044.0127	3068.8237	3076.7845	3107.5681	3111.3561	3117.771	3124.1844
CCN1CC(C)C(=O)C1	CCN1C[C@@H](C)C(=O)C1	
InChI=1S/C7H13NO/c1-3-8-4-6(2)7(9)5-8/h6H,3-5H2,1-2H3	InChI=1S/C7H13NO/c1-3-8-4-6(2)7(9)5-8/h6H,3-5H2,1-2H3/t6-/m1/s1
