19
gdb 46355	3.33086	1.09199	0.86908	3.1622	75.69	-0.2413	-0.0252	0.216	1320.4082	0.158665	-423.008536	-422.999792	-422.998847	-423.044253	31.041	
O	 0.2570014335	 0.0798994238	-0.2519845699	-0.298024
C	 0.0621214398	 1.2470279389	-0.0699076049	 0.391097
C	-1.1908730834	 2.1023612952	 0.1738090822	-0.336224
C	-0.2456122446	 3.2106607355	 0.7316024934	-0.263386
C	 1.0022065644	 2.4442770569	 0.1793194748	-0.105979
C	 2.2153907052	 2.2024344062	 1.0563897776	-0.039873
C	 3.3738808466	 1.4067057137	 0.4090892416	-0.079506
O	 4.2624098008	 2.5415226059	 0.4947265421	-0.272548
C	 3.2600930643	 3.3405302245	 1.1505481847	-0.088148
H	-1.6783410746	 2.3792607602	-0.7667925498	 0.135245
H	-1.9436845467	 1.6753281978	 0.8406765971	 0.131933
H	-0.4011786119	 4.2176660924	 0.3437637548	 0.112807
H	-0.2525189358	 3.2476743778	 1.8238209086	 0.114717
H	 1.3165460368	 2.860840935	-0.7874571195	 0.105535
H	 1.9027930385	 1.8089851768	 2.0275093623	 0.079732
H	 3.7401104973	 0.551360994	 0.9888304921	 0.105766
H	 3.207283633	 1.0870064203	-0.6260613119	 0.110739
H	 3.0220364893	 4.2511878783	 0.584754955	 0.096752
H	 3.5596066173	 3.6249076468	 2.1674322996	 0.099366
23.451	55.6253	82.1423	119.2969	243.7902	296.3215	364.8933	445.2705	557.4583	676.2644	703.2602	763.8302	834.1461	880.3538	897.2337	923.1414	949.9897	980.1538	990.0757	1017.4514	1042.9957	1072.0263	1088.2769	1102.0741	1151.5042	1162.1749	1190.4878	1203.977	1231.2967	1239.7191	1253.1609	1260.0272	1288.5407	1309.3852	1371.8134	1397.3953	1442.2022	1492.4378	1511.3441	1536.8129	1884.3747	3001.0575	3019.2195	3025.8848	3041.3451	3058.9793	3061.682	3073.5026	3077.7027	3114.5473	3135.7409
O=C1CCC1C1COC1	O=C1CC[C@H]1C1COC1	
InChI=1S/C7H10O2/c8-7-2-1-6(7)5-3-9-4-5/h5-6H,1-4H2	InChI=1S/C7H10O2/c8-7-2-1-6(7)5-3-9-4-5/h5-6H,1-4H2/t6-/m0/s1
