16
gdb 20867	6.93949	1.05836	0.97633	4.1829	67.53	-0.2678	-0.0339	0.2339	1192.996	0.130226	-379.912643	-379.904868	-379.903924	-379.945656	27.473	
C	-0.1204176369	 1.5770998334	 0.0447523774	-0.385341
C	-0.0737528539	 0.0484634421	 0.0157816961	-0.16529
C	 0.8146659436	-0.5291239577	 1.135774972	-0.302672
C	 0.8606789352	-2.017900852	 1.1378425321	 0.415551
C	 1.8530031653	-2.9278945974	 0.9295912608	-0.212308
N	 1.2912347248	-4.1761679275	 1.0453625586	-0.107415
N	 0.0655068978	-4.0924446355	 1.3004468964	-0.012837
O	-0.2667817176	-2.6911054386	 1.3713774313	-0.21837
H	 0.878292906	 2.0092115015	-0.0825956913	 0.118208
H	-0.7554385127	 1.9647042002	-0.757026827	 0.122471
H	-0.5222545882	 1.943906883	 0.9955399524	 0.120909
H	-1.0837300095	-0.362150668	 0.1195137588	 0.124703
H	 0.3041919046	-0.2980561398	-0.9531594911	 0.110242
H	 1.8383768844	-0.1532968402	 1.0367594409	 0.122156
H	 0.4415389708	-0.1842521349	 2.1083067522	 0.132967
H	 2.8980100362	-2.7865662584	 0.7139911303	 0.137027
58.1844	88.9486	119.2321	244.5242	304.5167	316.4608	370.6109	626.6918	670.8448	702.5854	748.5711	767.4163	821.0314	878.7185	900.3033	989.3281	1040.298	1054.1975	1092.5469	1111.351	1131.2055	1241.8366	1253.9571	1308.7694	1321.8909	1378.3661	1388.2907	1415.49	1458.6922	1478.9602	1493.9005	1499.5858	1509.8308	1606.1915	3030.3701	3032.5494	3043.7381	3068.5308	3086.8352	3105.3	3110.6595	3291.2982
CCCC1=CN=NO1	CCCc1cnno1	
InChI=1S/C5H8N2O/c1-2-3-5-4-6-7-8-5/h4H,2-3H2,1H3	InChI=1S/C5H8N2O/c1-2-3-5-4-6-7-8-5/h4H,2-3H2,1H3
