14
gdb 124096	3.74219	1.63428	1.17409	5.0982	62.87	-0.2328	-0.0103	0.2224	957.5954	0.104708	-469.987604	-469.981232	-469.980288	-470.018477	24.54	
C	 0.0237036762	 1.3820142366	 0.0224409323	 0.000227
O	 1.3051338152	 1.9476481446	-0.0179466478	-0.234022
C	 2.083500335	 1.6803040205	 1.1513720446	-0.193468
C	 1.8719156825	 0.24162488	 1.4890043577	 0.204457
C	 0.9101775441	-0.5197703447	 0.8718361799	 0.372184
O	 0.0370734408	-0.0457854943	-0.0420224114	-0.250492
N	 0.9671593768	-1.7977890543	 1.306267959	-0.279797
N	 1.9334834819	-1.8790504992	 2.1854608392	-0.113307
N	 2.483522298	-0.6521354642	 2.3043112067	-0.290374
H	-0.5050982669	 1.6805862341	 0.9418167361	 0.102894
H	-0.5049818216	 1.7237554714	-0.8664126675	 0.139026
H	 3.1193243447	 1.9071002483	 0.8794032284	 0.14059
H	 1.7942716576	 2.3542912918	 1.9734197121	 0.119824
H	 3.2484377356	-0.5230192508	 2.9469338208	 0.282258
128.1242	222.2163	320.6391	391.2068	415.8679	481.6009	527.9315	593.2614	694.9972	733.951	745.4223	787.2705	943.516	997.9603	1020.3975	1030.8639	1066.7421	1095.6208	1149.9721	1217.4562	1236.4248	1265.3898	1318.3852	1349.8595	1359.2739	1395.1529	1442.98	1493.7852	1506.015	1553.76	1640.0615	2974.1917	2980.8403	3072.7873	3149.1333	3658.5143
C1OCC2=C(O1)N=NN2	C1OCc2c(O1)nn[nH]2	
InChI=1S/C4H5N3O2/c1-3-4(6-7-5-3)9-2-8-1/h1-2H2,(H,5,6,7)	InChI=1S/C4H5N3O2/c1-3-4(6-7-5-3)9-2-8-1/h1-2H2,(H,5,6,7)
