20
gdb 98448	2.51349	1.3401	1.10456	1.8228	75.44	-0.2238	0.0112	0.235	1206.5595	0.169898	-440.297374	-440.287582	-440.286637	-440.333558	34.995	
C	-0.136484903	 1.3688432463	-0.3659906305	-0.24187
O	-0.2460172456	-0.0542549373	-0.5057957102	-0.240278
C	-1.1792805821	-0.6393374335	 0.2756542835	 0.410738
O	-1.8781199244	-0.0241968021	 1.0420882943	-0.374189
C	-1.2508116908	-2.1557167775	 0.0744284354	 0.20171
C	-1.1754422778	-2.8408838789	 1.4361632249	-0.439753
C	-2.4616909333	-2.5133225766	-0.8493819324	-0.264722
C	-1.4197700333	-2.6705557029	-1.9809245915	-0.152967
N	-0.3493338796	-2.7233538591	-0.9557166953	-0.340931
H	 0.6552783982	 1.6751059815	-1.0496159503	 0.133472
H	-1.0800577131	 1.8534404156	-0.6285856851	 0.142475
H	 0.1187857008	 1.6344511481	 0.6626704641	 0.143957
H	-1.9461601551	-2.4493654931	 2.1046679291	 0.137762
H	-1.3080822164	-3.9177620818	 1.3089274674	 0.119207
H	-0.1984779804	-2.6730292744	 1.9029201978	 0.116879
H	-2.9230963677	-3.4570370185	-0.5522094553	 0.113212
H	-3.2352988438	-1.7544084337	-0.9670047024	 0.116353
H	-1.4872785888	-3.5666375078	-2.6056489436	 0.101525
H	-1.3756197483	-1.7882073055	-2.6330125108	 0.095915
H	 0.4629313044	-2.1510749288	-1.1567297591	 0.221504
12.4747	109.829	121.7736	154.5582	213.2727	224.1951	269.3528	299.2371	339.9538	352.8477	488.7914	544.5192	662.223	764.2021	771.3481	794.2384	862.4901	906.3842	965.6388	979.127	1002.9048	1019.974	1040.4009	1142.6608	1164.223	1174.3218	1179.5752	1205.6516	1210.9287	1217.9272	1245.8821	1282.5998	1332.1157	1393.3644	1404.9312	1469.8824	1480.5708	1485.1985	1485.3603	1495.6553	1496.4689	1522.9397	1809.7011	3011.2183	3039.4682	3053.8857	3067.2138	3083.1071	3109.9451	3129.9135	3136.7602	3142.3688	3160.4631	3542.404
COC(=O)C1(C)CCN1	COC(=O)[C@@]1(C)CCN1	
InChI=1S/C6H11NO2/c1-6(3-4-7-6)5(8)9-2/h7H,3-4H2,1-2H3	InChI=1S/C6H11NO2/c1-6(3-4-7-6)5(8)9-2/h7H,3-4H2,1-2H3/t6-/m1/s1
