18
gdb 127472	2.38717	1.60153	0.97186	2.3386	77.01	-0.1906	0.0493	0.2399	1200.1427	0.147285	-435.291504	-435.281471	-435.280526	-435.326722	35.316	
C	 0.0221249796	 1.4008495185	-0.0828196821	-0.323493
N	 0.0203400187	-0.0380976335	 0.0005750573	-0.029428
N	 0.0794658569	-0.8006427426	-1.1383171587	-0.374455
C	 0.1158857947	-2.0505904228	-0.6959237919	 0.313483
N	 0.2587616497	-3.1240659141	-1.5807205601	-0.58865
C	 0.0761765926	-2.1400416131	 0.721122312	-0.005959
C	 0.1278596781	-3.3614481016	 1.5829136548	-0.53414
C	 0.0154528004	-0.8125451001	 1.1048502853	 0.394393
O	-0.0278231841	-0.2220450676	 2.3232019467	-0.440012
H	 0.9941153354	 1.775124568	-0.4227817128	 0.13631
H	-0.7453979772	 1.7301734369	-0.7883346989	 0.141205
H	-0.192770861	 1.8090223703	 0.9054521715	 0.149672
H	 0.1378735385	-2.8170566947	-2.538508172	 0.246838
H	-0.3748337488	-3.8881796583	-1.3822583642	 0.241018
H	 0.8395022179	-4.0912165941	 1.1809156988	 0.141209
H	 0.4625764745	-3.1266242025	 2.6014302107	 0.102718
H	-0.8410562849	-3.8708175684	 1.6768011801	 0.121598
H	-0.0928835709	-0.9115174302	 2.9916826237	 0.307694
48.6102	99.2007	124.3951	174.7735	214.3971	226.1939	246.9211	281.6403	295.1922	319.755	391.8439	572.0301	588.2119	630.5252	648.5892	703.1721	746.3015	800.645	886.622	1007.2457	1056.0157	1063.8651	1145.4744	1153.6687	1173.5047	1258.9205	1289.1983	1335.2904	1422.1243	1448.8486	1471.9104	1480.059	1481.8541	1502.0383	1513.6632	1541.8347	1603.5797	1636.1156	1663.9443	3001.692	3036.5201	3048.1436	3080.0889	3099.0574	3152.9815	3528.4296	3621.771	3833.7917
CN1N=C(N)C(C)=C1O	Cn1nc(N)c(C)c1O	
InChI=1S/C5H9N3O/c1-3-4(6)7-8(2)5(3)9/h9H,1-2H3,(H2,6,7)	InChI=1S/C5H9N3O/c1-3-4(6)7-8(2)5(3)9/h9H,1-2H3,(H2,6,7)
