19
gdb 99681	2.61277	1.07352	0.80428	1.8927	76.92	-0.2505	0.0358	0.2862	1401.7624	0.157621	-422.959302	-422.949659	-422.948715	-422.994817	34.455	
O	 0.0436522982	 1.4324510127	 0.0594813157	-0.419502
C	 0.0116938158	 0.0240491464	 0.079572658	-0.06238
C	-1.4257783262	-0.541115175	-0.0104134923	-0.209685
C	-2.0610638092	-0.0689625131	-1.2403799367	 0.302173
C	-2.5365236046	 0.3310757237	-2.2708949728	-0.45806
C	-1.4361157983	-2.0725929497	 0.0696297575	-0.028117
C	-1.1491820017	-2.7092448927	 1.4498357605	-0.092925
O	-2.4329040966	-3.3605507606	 1.4686759246	-0.27081
C	-2.809171107	-2.7663037836	 0.2087431758	-0.087123
H	-0.393967092	 1.7147798153	-0.7528753037	 0.287119
H	 0.6162155074	-0.412248142	-0.731611678	 0.09419
H	 0.4581378649	-0.2811972209	 1.0313772697	 0.11481
H	-1.987566152	-0.1403812301	 0.8449461694	 0.117012
H	-2.981582876	 0.6752592303	-3.1719776497	 0.203829
H	-0.8250195481	-2.4858648341	-0.736659552	 0.090745
H	-0.3216823586	-3.4274947492	 1.4891236914	 0.104369
H	-1.0377305255	-1.9958416723	 2.2786840857	 0.101455
H	-3.6635111372	-2.0846636597	 0.3113876742	 0.10639
H	-3.0475694733	-3.5225509856	-0.5478382374	 0.10651
50.9225	74.5762	111.9069	127.4964	165.3047	217.6793	321.5632	359.0424	399.3019	435.8287	493.3964	575.2425	633.9756	660.6953	798.9248	831.9835	891.9665	901.0452	971.9582	994.9398	1037.6249	1044.2228	1083.1284	1090.529	1111.4351	1149.9992	1165.3522	1175.1374	1212.2178	1263.7272	1266.2713	1313.0871	1331.3084	1370.0636	1386.1121	1398.7938	1430.7175	1504.6121	1513.3889	1538.1895	2226.0056	2977.3336	2999.4537	3012.8807	3017.7586	3048.2395	3057.8507	3077.6686	3083.5579	3500.933	3782.3107
OCC(C#C)C1COC1	OC[C@@H](C#C)C1COC1	
InChI=1S/C7H10O2/c1-2-6(3-8)7-4-9-5-7/h1,6-8H,3-5H2	InChI=1S/C7H10O2/c1-2-6(3-8)7-4-9-5-7/h1,6-8H,3-5H2/t6-/m1/s1
