21
gdb 107744	2.72265	1.3804	1.22395	1.7109	82.63	-0.2317	0.0688	0.3006	1138.7806	0.182418	-387.040632	-387.031852	-387.030907	-387.073854	33.971	
C	-0.0729242553	 1.5618902824	-0.0856938384	-0.529458
C	 0.0049905	 0.0732765629	 0.0075939219	 0.287661
C	 0.3210250481	-1.0045758909	-1.0034008073	-0.115235
C	 1.3818641816	-1.6322139514	-0.1055540659	-0.26362
C	 0.6478240356	-0.9315340706	 1.0734279118	 0.303331
C	 1.3797336097	-0.5463726009	 2.326188532	-0.208366
O	 1.784071183	-1.7454309487	 2.9775666644	-0.422939
C	-0.7228498423	-1.6645449762	 1.1334436017	-0.263721
C	-1.0074907066	-1.0250160556	-0.22135266	-0.115214
H	 0.9211288938	 2.0230363663	-0.1300783241	 0.117702
H	-0.6118772728	 1.8586218359	-0.9926237047	 0.122654
H	-0.603775348	 1.9994807587	 0.7684024865	 0.117687
H	 0.3239042016	-0.9086524081	-2.0825393186	 0.077091
H	 1.4703158309	-2.723105488	-0.0612168306	 0.092687
H	 2.3681094954	-1.1914078701	-0.2818610572	 0.089312
H	 2.250716645	 0.081121091	 2.0727730437	 0.081943
H	 0.720849839	 0.0551849357	 2.9746701768	 0.081952
H	 2.2517644771	-1.5059070441	 3.7829669065	 0.287501
H	-0.7021475323	-2.7564822429	 1.2176503017	 0.092671
H	-1.3654581519	-1.2487289785	 1.9159037756	 0.089268
H	-1.9544684217	-0.9436844068	-0.7413170759	 0.077094
81.7793	132.3065	191.0449	211.287	247.9599	252.6957	332.9049	383.0538	460.8341	471.7998	587.3225	697.232	710.4483	744.6139	858.0149	867.446	903.142	917.593	948.4615	974.1902	989.0047	1008.4456	1016.627	1058.5849	1084.8057	1090.2298	1128.6694	1131.5848	1168.779	1176.4909	1209.1363	1229.179	1241.8205	1265.5414	1269.3528	1311.274	1339.9183	1411.0288	1449.7169	1468.6704	1483.8522	1490.7324	1499.3866	1509.9941	1519.111	2952.1081	2978.1871	3014.9411	3032.5357	3038.7888	3070.5194	3084.6646	3086.6	3090.4374	3179.807	3190.1968	3827.5601
CC12C3CC1(CO)CC23	C[C@@]12[C@H]3C[C@]1(CO)C[C@@H]23	
InChI=1S/C8H12O/c1-7-5-2-8(7,4-9)3-6(5)7/h5-6,9H,2-4H2,1H3	InChI=1S/C8H12O/c1-7-5-2-8(7,4-9)3-6(5)7/h5-6,9H,2-4H2,1H3/t5-,6+,7-,8+
