15
gdb 128676	4.89012	1.07518	0.8863	3.5637	72.33	-0.2233	-0.0587	0.1647	1239.6266	0.114108	-453.98129	-453.973551	-453.972606	-454.013739	28.688	
C	-0.0077026836	 1.4127150845	 0.007951248	-0.232779
O	-0.023420715	-0.0140218857	 0.0034423889	-0.263175
C	-1.2335221598	-0.6047479322	 0.0107928895	 0.452503
N	-2.3167732563	 0.1073991745	 0.0214619794	-0.302004
N	-3.480530235	-0.584584167	 0.0281392611	-0.285773
C	-3.6748038531	-1.9615455868	 0.0250758222	 0.426644
O	-4.7942953079	-2.4456128667	 0.0320783287	-0.3972
C	-2.4105464205	-2.6965853759	 0.0129804466	-0.187975
C	-1.2307593747	-2.0416110041	 0.0060707491	-0.15906
H	 1.0452408594	 1.6952648023	 0.0007025826	 0.134602
H	-0.5164146939	 1.8114376427	-0.8751244523	 0.13774
H	-0.5026265305	 1.8056716312	 0.9013898867	 0.137737
H	-4.3128555531	-0.0114814769	 0.036409132	 0.272485
H	-2.4802393469	-3.7776965399	 0.0099781005	 0.135253
H	-0.2760857091	-2.5557891701	-0.0029332128	 0.131002
90.1165	145.5257	198.5308	221.8992	339.2626	392.9795	400.6188	469.2967	542.3288	561.7962	628.5603	695.4296	764.3893	802.042	824.7199	872.3687	994.605	1019.0044	1052.5777	1128.4198	1179.1763	1201.6326	1247.2232	1287.9582	1308.7919	1434.0642	1443.4583	1478.0148	1495.4608	1502.8318	1591.8612	1667.3715	1785.3036	3038.5519	3107.0442	3153.2879	3194.9157	3218.9768	3607.3822
COC1=NNC(=O)C=C1	COc1n[nH]c(=O)cc1	
InChI=1S/C5H6N2O2/c1-9-5-3-2-4(8)6-7-5/h2-3H,1H3,(H,6,8)	InChI=1S/C5H6N2O2/c1-9-5-3-2-4(8)6-7-5/h2-3H,1H3,(H,6,8)
