16
gdb 75996	2.05521	1.70213	1.10516	3.7624	71.97	-0.2516	-0.0012	0.2504	1102.5759	0.12329	-434.060681	-434.051295	-434.05035	-434.095467	32.49	
C	-0.1428381986	 1.318960088	 0.5147975959	-0.354411
N	-0.0517128912	-0.1041617295	 0.2942840347	-0.053706
C	-1.1147328063	-1.0323821148	-0.099280409	-0.226162
C	-1.8783196667	-0.607825807	-1.2726248324	 0.302978
N	-2.4499993401	-0.2430228702	-2.2088787386	-0.323239
C	 0.054320063	-2.067558893	-0.444540939	 0.077734
O	 0.0607532401	-2.7217302566	-1.6613253074	-0.399558
C	 0.9865278804	-0.8699742891	-0.2275055804	 0.305407
N	 2.2073623654	-0.708322177	-0.5055289118	-0.547425
H	 0.8546095367	 1.6995244774	 0.7500936791	 0.144793
H	-0.5233341602	 1.8513329988	-0.3671100848	 0.147712
H	-0.7976283303	 1.533674337	 1.3651137663	 0.142753
H	-1.7967030108	-1.3175631554	 0.7081764794	 0.125933
H	 0.1271509711	-2.8216520675	 0.3425050881	 0.132676
H	 0.3387187731	-2.1056809294	-2.3492313046	 0.305204
H	 2.5337087042	 0.2400543482	-0.3136791655	 0.219312
67.5615	97.776	112.8085	131.2874	164.1838	234.8376	283.7504	310.8526	377.2463	465.3581	537.3587	597.4968	662.9971	756.0518	802.4494	820.0355	839.6159	949.0301	979.4154	1031.911	1130.2935	1146.3589	1160.5689	1205.7349	1258.6803	1265.6444	1308.3842	1354.7332	1391.3574	1433.8942	1454.528	1480.1783	1512.8851	1795.068	2351.4684	3014.1034	3059.9586	3083.6168	3096.8412	3120.6715	3468.355	3802.7889
CN1C(C#N)C(O)C1=N	CN1[C@@H](C#N)[C@@H](O)[C]1[NH]	
InChI=1S/C5H7N3O/c1-8-3(2-6)4(9)5(8)7/h3-4,7,9H,1H3	InChI=1S/C5H7N3O/c1-8-3(2-6)4(9)5(8)7/h3-4,7,9H,1H3/t3-,4+/m0/s1
