20
gdb 86496	3.78665	1.00658	0.89114	2.3868	83.19	-0.2274	0.0251	0.2525	1383.5776	0.170529	-403.134527	-403.125618	-403.124674	-403.16882	33.319	
C	-0.0993040212	 1.6897799751	-0.7668921009	-0.39928
C	 0.3235737857	 0.5048745985	 0.0720339833	 0.148892
C	 0.6910311745	-0.8128569784	-0.6492908019	-0.393869
C	 2.0727216583	-0.5589435484	-0.0890803529	 0.463852
O	 1.7103178458	 0.6304393387	 0.5406956968	-0.28614
N	 3.1624071508	-1.1649707196	-0.1399049369	-0.337785
C	 4.3712238772	-0.737332672	 0.4864612247	 0.0422
C	 4.8002575504	 0.7123498445	 0.6049553548	-0.272161
C	 4.4320261671	-0.0628302274	 1.8432118804	-0.271735
H	 0.565380751	 1.8133811518	-1.6274611529	 0.128296
H	-1.1210831662	 1.5464546518	-1.1342026744	 0.125073
H	-0.0748555531	 2.6103026188	-0.1761419209	 0.133813
H	-0.3345030106	 0.371819792	 0.9365101067	 0.093475
H	 0.2033817218	-1.7178671786	-0.2827302397	 0.133418
H	 0.6252745136	-0.7813027348	-1.739224359	 0.131043
H	 5.1764193063	-1.4371705887	 0.2880515303	 0.089555
H	 5.8438312281	 0.9402864829	 0.4167335198	 0.107653
H	 4.1001353883	 1.4677330899	 0.2716242262	 0.12775
H	 3.4915240201	 0.1862988448	 2.3178314373	 0.12812
H	 5.2179946721	-0.3772415008	 2.5212630491	 0.10783
53.5974	79.9507	135.3785	167.4695	238.9736	300.6262	369.7611	396.6422	432.5927	539.5094	591.098	702.9083	765.6171	793.128	824.1413	855.3567	888.1365	905.7887	923.211	958.6767	988.5886	1046.2008	1059.4065	1064.689	1076.4228	1110.2619	1131.402	1145.0624	1197.2881	1201.8382	1202.1524	1228.448	1265.1315	1315.1855	1382.1758	1404.901	1413.6691	1459.5826	1468.1016	1485.1088	1490.7803	1495.5659	1852.2343	3037.2419	3058.6896	3078.549	3110.6638	3117.6357	3132.9494	3139.9971	3143.1543	3154.1643	3230.4802	3243.4645
CC1CC(O1)=NC1CC1	C[C@H]1CC(=NC2CC2)O1	
InChI=1S/C7H11NO/c1-5-4-7(9-5)8-6-2-3-6/h5-6H,2-4H2,1H3	InChI=1S/C7H11NO/c1-5-4-7(9-5)8-6-2-3-6/h5-6H,2-4H2,1H3/t5-/m0/s1
