17
gdb 99508	1.84728	1.29644	0.96498	2.2779	71.78	-0.2573	-0.0445	0.2129	1291.3963	0.131114	-458.915821	-458.905439	-458.904495	-458.952207	35.774	
C	 0.3131488186	 0.5729373038	-0.9202160068	-0.243977
O	 0.1747861533	-0.6011397855	-0.1368868282	-0.23893
C	 0.5666939139	-0.4158010864	 1.2111045211	-0.130243
C	 0.0248217044	-1.4974732265	 2.0266329568	 0.282523
C	-0.376724728	-2.3881302816	 2.7252462793	-0.403958
C	 2.1089476529	-0.405855057	 1.3604425443	 0.326844
O	 2.6704618382	 0.3920876072	 2.0745551135	-0.31448
C	 2.902246471	-1.4468231289	 0.5905611987	-0.129717
O	 4.2718079459	-1.3240184744	 0.8394218034	-0.423557
H	 1.3573458811	 0.912029228	-0.9835345976	 0.120256
H	-0.0379807431	 0.322690906	-1.9228323479	 0.142465
H	-0.2961838565	 1.3947801764	-0.5181012546	 0.122061
H	 0.2118058653	 0.5520626023	 1.5976857895	 0.121222
H	-0.7476437932	-3.1723504556	 3.3387418672	 0.210735
H	 2.5196645238	-2.4391732824	 0.8799204106	 0.134005
H	 2.6779171571	-1.3378033873	-0.480734803	 0.131146
H	 4.3554364353	-0.6040163981	 1.4835641438	 0.293606
41.9603	71.9206	98.2483	143.8343	162.6177	165.83	232.7906	314.7302	359.6875	362.3076	407.7723	466.6882	537.0814	570.5425	635.6442	684.0625	690.5572	806.8568	964.3671	987.8946	1038.9375	1114.4998	1130.4545	1164.2989	1182.1237	1217.1546	1234.2289	1284.7197	1314.745	1349.643	1447.8616	1478.116	1482.7002	1489.4732	1505.8733	1805.9498	2240.8081	2987.5549	2988.8223	2993.5475	3017.1877	3042.9168	3133.393	3501.138	3700.9298
COC(C#C)C(=O)CO	CO[C@@H](C#C)C(=O)CO	
InChI=1S/C6H8O3/c1-3-6(9-2)5(8)4-7/h1,6-7H,4H2,2H3	InChI=1S/C6H8O3/c1-3-6(9-2)5(8)4-7/h1,6-7H,4H2,2H3/t6-/m0/s1
