20
gdb 64930	4.16603	0.70468	0.65824	1.3784	92.04	-0.2292	0.0441	0.2733	1783.5355	0.170218	-365.947211	-365.937661	-365.936717	-365.983607	35.024	
C	 0.4115757062	 0.9989412152	 0.8308848254	-0.458439
C	-0.01944359	-0.0652711322	-0.165047145	 0.098051
C	 0.3667353691	 0.1040540303	-1.5999453379	-0.260557
N	 1.0295357706	-0.9202784977	-0.7833048799	-0.329218
C	-1.2526708955	-0.7417645779	 0.1589512254	 0.067078
C	-2.295299321	-1.2706454883	 0.4560660181	 0.115278
C	-3.5313489911	-1.9127088965	 0.7964827608	-0.162679
C	-3.5657812869	-3.4102051293	 1.0625634284	-0.250023
C	-3.7543454394	-2.4530332897	 2.2011778103	-0.25193
H	 1.3280789993	 1.4963817414	 0.4958865539	 0.108315
H	-0.3669460138	 1.7587284009	 0.9489762078	 0.133219
H	 0.5969096231	 0.5551662383	 1.8143240759	 0.130453
H	-0.28449657	-0.2840995821	-2.3767758379	 0.125183
H	 0.9131038495	 1.0058471612	-1.8664753938	 0.11024
H	 1.9415477121	-0.5818107661	-0.4827070428	 0.22798
H	-4.4111747482	-1.5042751626	 0.3070525004	 0.107448
H	-4.4264581902	-3.9584040395	 0.696313645	 0.116983
H	-2.6244822373	-3.9416810073	 0.9927220779	 0.130991
H	-2.9414342034	-2.3346129456	 2.9074394403	 0.125295
H	-4.7455831631	-2.3378430826	 2.6251164776	 0.116333
12.5666	81.6619	87.6169	194.5494	204.606	234.1565	326.9939	353.8679	453.0717	467.442	543.7917	571.9166	599.3631	770.1157	801.5953	821.5556	823.258	894.0383	895.7748	930.1743	973.1209	993.1105	1032.5054	1058.5563	1063.3286	1079.9379	1117.9615	1118.7079	1139.3481	1166.4814	1201.2227	1220.2831	1265.5786	1315.0513	1356.3356	1406.9033	1413.1601	1466.8615	1480.1667	1497.0544	1500.4709	1507.155	2357.5232	3030.2829	3101.8103	3106.1212	3106.959	3138.6692	3139.8534	3145.6182	3198.601	3224.9695	3240.1298	3485.1384
CC1(CN1)C#CC1CC1	C[C@]1(CN1)C#CC1CC1	
InChI=1S/C8H11N/c1-8(6-9-8)5-4-7-2-3-7/h7,9H,2-3,6H2,1H3	InChI=1S/C8H11N/c1-8(6-9-8)5-4-7-2-3-7/h7,9H,2-3,6H2,1H3/t8-/m1/s1
