24
gdb 100974	2.29742	1.06223	0.98151	2.1328	85.84	-0.2375	0.0659	0.3034	1431.0472	0.21496	-405.533948	-405.52271	-405.521766	-405.570319	41.245	
C	-0.136082191	 1.6069618232	-0.16378901	-0.383596
C	-0.1633594989	 0.0770854017	-0.2141363967	-0.20403
C	 0.937281902	-0.5068568324	-1.1091763358	 0.09482
O	 2.2444508184	-0.1576641529	-0.6505619656	-0.44088
C	 0.809258094	-2.0178812486	-1.3035216875	 0.316493
C	 0.970421004	-2.8581350137	-0.0498994872	-0.494995
N	-0.2360663229	-2.4025255311	-2.2731469454	-0.376685
C	 1.1833983201	-2.6486209162	-2.6024240048	-0.038817
C	 1.7669756381	-1.935430071	-3.7988376125	-0.403535
H	 0.8422203025	 1.9667878354	 0.1670707426	 0.122634
H	-0.3277768696	 2.0345052975	-1.1539561449	 0.117462
H	-0.8958254958	 1.9957546976	 0.5209689421	 0.107294
H	-0.0585362247	-0.3264592558	 0.8032176109	 0.081725
H	-1.1298402218	-0.2764893447	-0.5909038704	 0.114629
H	 0.85292954	-0.0341680488	-2.0914166329	 0.087991
H	 2.3008184552	-0.3867782135	 0.2831465031	 0.277073
H	 0.179487564	-2.6546880691	 0.6804199138	 0.122931
H	 0.9354019472	-3.9255188783	-0.2897027866	 0.115687
H	 1.9345426279	-2.6669594176	 0.4347729903	 0.118269
H	-0.6933546391	-3.2630314716	-1.9812375962	 0.222395
H	 1.5229769479	-3.6807577242	-2.5094638766	 0.074396
H	 1.3225289252	-0.9485737926	-3.9393477016	 0.129629
H	 2.8498080776	-1.8158282681	-3.6885359937	 0.124292
H	 1.5794457495	-2.5126450152	-4.7107796544	 0.114816
39.646	105.2695	118.2217	173.6941	189.4424	200.7352	241.5986	251.741	253.1446	291.6472	310.7706	384.9558	456.2713	473.9741	513.9978	551.7805	744.9179	783.9466	790.0566	854.4107	910.6983	969.0862	980.5075	986.7033	1021.0521	1044.8736	1059.1356	1091.0272	1095.4474	1125.3527	1133.3615	1146.4444	1239.5419	1249.3649	1279.9092	1331.0455	1337.0361	1358.2252	1397.2075	1402.2524	1408.7195	1412.922	1415.0419	1462.9493	1482.7317	1489.64	1492.5922	1496.024	1499.6613	1508.2458	1509.31	3006.7238	3027.079	3036.884	3038.4592	3065.0145	3081.2226	3089.0676	3092.7243	3098.181	3100.3408	3102.9571	3116.9201	3136.3995	3490.0225	3808.2987
CCC(O)C1(C)NC1C	CC[C@@H](O)[C@@]1(C)N[C@H]1C	
InChI=1S/C7H15NO/c1-4-6(9)7(3)5(2)8-7/h5-6,8-9H,4H2,1-3H3	InChI=1S/C7H15NO/c1-4-6(9)7(3)5(2)8-7/h5-6,8-9H,4H2,1-3H3/t5-,6+,7-/m0/s1
