16
gdb 8468	2.95805	2.12384	1.58675	1.8755	67.09	-0.2376	0.0227	0.2602	857.4186	0.130352	-379.895787	-379.888024	-379.887079	-379.927412	29.535	
C	-0.1470739994	 1.481271407	 0.0822753872	-0.489824
C	 0.0364863529	 0.0045056958	 0.056753759	 0.427507
C	 1.1902418844	-0.8056739932	-0.4188350261	-0.361518
C	 0.6735268437	-0.9991277511	 1.0133154158	 0.125658
N	 1.5258442518	-0.8116352805	 2.1273421279	-0.59747
C	-0.6485339721	-1.7004478125	 0.9245242981	 0.383561
N	-1.1899281669	-2.6502477123	 1.5385859574	-0.564407
O	-1.1617917539	-0.8329076518	-0.038713076	-0.309022
H	 0.7972319888	 1.964816541	 0.347667786	 0.140796
H	-0.461702369	 1.8581847907	-0.8968694663	 0.136539
H	-0.9044019864	 1.7648829336	 0.8192108245	 0.134898
H	 1.0475000194	-1.5755588324	-1.1706853471	 0.12548
H	 2.1451840927	-0.2892450419	-0.44603307	 0.130401
H	 0.9865387099	-0.7451759754	 2.9849354742	 0.244673
H	 2.1615224173	-1.5963293847	 2.2339712103	 0.244165
H	-2.1538945731	-2.7898397424	 1.2307801951	 0.228563
137.7899	164.1982	192.3373	251.0232	279.01	360.1743	381.3096	470.2846	531.7381	617.2083	655.3824	722.4182	750.6577	801.5314	865.3643	873.6846	908.5338	962.151	970.0176	991.5162	1075.878	1098.5927	1113.9753	1175.381	1257.9583	1277.5609	1364.9792	1415.0537	1429.5364	1474.0787	1493.179	1516.8067	1667.3866	1825.0186	3037.4735	3102.6551	3121.2156	3123.065	3216.9307	3475.5454	3497.9661	3571.3899
CC12CC1(N)C(=N)O2	C[C@@]12C[C@]1(N)[C]([NH])O2	
InChI=1S/C5H8N2O/c1-4-2-5(4,7)3(6)8-4/h6H,2,7H2,1H3	InChI=1S/C5H8N2O/c1-4-2-5(4,7)3(6)8-4/h6H,2,7H2,1H3/t4-,5+/m1/s1
