19
gdb 104245	3.06934	1.13338	1.00605	1.9432	77.36	-0.2534	0.0343	0.2877	1238.9711	0.156684	-422.973987	-422.964337	-422.963393	-423.008732	35.694	
C	-0.4020485966	 1.6254497766	 0.147668718	-0.436582
C	-0.1451569694	 0.1323799966	 0.1013737749	 0.39447
C	-1.3714789553	-0.6673833956	-0.3453505303	-0.089823
O	-1.6868894172	-0.3765625976	-1.6904777107	-0.420655
O	 0.9479381324	-0.1902945966	-0.8143095492	-0.332837
C	 1.7280452704	-0.7970514054	 0.2311983154	-0.075845
C	 0.6355958798	-0.5162242219	 1.2986778635	-0.329504
C	 1.0040938815	 0.3140876572	 2.4243040295	 0.343712
C	 1.3203269136	 1.0024667749	 3.3582386897	-0.459039
H	 0.5205878848	 2.1743344828	 0.3463249424	 0.126611
H	-0.8161974405	 1.9490194097	-0.810636071	 0.135778
H	-1.121923697	 1.8644191021	 0.9369717584	 0.122805
H	-1.1723771759	-1.7424089405	-0.2051854686	 0.080708
H	-2.2462397938	-0.4045872961	 0.259664901	 0.111203
H	-0.8665393796	-0.5112726209	-2.1828627491	 0.293334
H	 1.9297679094	-1.8570513981	 0.0401556034	 0.109275
H	 2.6729071308	-0.269511043	 0.3965650838	 0.117111
H	 0.1473041301	-1.4290796673	 1.6534855637	 0.108319
H	 1.5961905126	 1.6091582533	 4.1850520352	 0.200957
41.7346	110.484	145.6553	172.4986	214.2495	245.6832	307.8168	343.1326	390.4105	426.8984	492.3735	504.0308	601.0013	625.2286	640.951	687.9775	787.6359	873.0737	893.3747	936.8299	968.5194	1015.2567	1054.4571	1066.5993	1089.3206	1136.5621	1165.9121	1177.0524	1197.7714	1248.2385	1278.3776	1338.5864	1360.0608	1383.7555	1410.1472	1431.2599	1477.1823	1488.2288	1501.1745	1524.0624	2235.8168	2969.1233	3029.2809	3047.1162	3055.4414	3071.3412	3083.6101	3120.7179	3138.1099	3502.0618	3770.247
CC1(CO)OCC1C#C	C[C@@]1(CO)OC[C@H]1C#C	
InChI=1S/C7H10O2/c1-3-6-4-9-7(6,2)5-8/h1,6,8H,4-5H2,2H3	InChI=1S/C7H10O2/c1-3-6-4-9-7(6,2)5-8/h1,6,8H,4-5H2,2H3/t6-,7+/m1/s1
