17
gdb 31838	5.04346	1.03591	0.86614	1.3268	82.98	-0.1859	-0.0233	0.1626	1314.8718	0.138201	-414.246086	-414.23738	-414.236436	-414.279566	31.824	
C	 0.0128968704	 1.4411887337	-0.0501921498	-0.309473
N	-0.0822705376	 0.0068607875	 0.1120941145	-0.348871
C	 0.5998411817	-0.670706169	 1.0861573822	 0.44313
N	 1.1638826238	 0.0388640611	 2.0730099669	-0.318118
C	 1.7813892172	-0.657321015	 3.0247451869	-0.041089
C	 1.8665326924	-2.0496957545	 3.0273870759	 0.222525
N	 2.5839007797	-2.7677530773	 3.9991024543	-0.598477
C	 1.2480774218	-2.6734791943	 1.9370826651	-0.037611
N	 0.6211107683	-2.0122299393	 0.974564667	-0.325454
H	 1.0213652038	 1.776263207	-0.3324831736	 0.118166
H	-0.6903988637	 1.7526966083	-0.8261381769	 0.117396
H	-0.2506357922	 1.9424703029	 0.8839853436	 0.146133
H	-0.3159238327	-0.554811912	-0.6897110517	 0.247055
H	 2.2386639371	-0.0789961944	 3.8279539378	 0.096663
H	 2.6382604039	-2.2910820601	 4.8897227576	 0.245295
H	 2.238206186	-3.7081723768	 4.1388452795	 0.245357
H	 1.2687940002	-3.7599314079	 1.8464122508	 0.097372
85.9183	104.5284	157.7118	183.7991	201.6652	344.6789	377.7338	423.9894	444.3851	465.4696	535.2342	590.4518	666.3788	695.5201	798.7238	820.4255	870.0453	945.7533	972.4654	1041.8043	1094.0308	1111.832	1156.1768	1176.5018	1261.0754	1301.8565	1316.185	1377.758	1437.4808	1450.8804	1478.9901	1486.629	1517.7112	1567.8334	1598.2531	1651.4002	1664.8165	3000.9351	3087.8414	3120.6274	3123.7844	3130.691	3538.9604	3629.845	3654.2404
CNC1=NC=C(N)C=N1	CNc1ncc(N)cn1	
InChI=1S/C5H8N4/c1-7-5-8-2-4(6)3-9-5/h2-3H,6H2,1H3,(H,7,8,9)	InChI=1S/C5H8N4/c1-7-5-8-2-4(6)3-9-5/h2-3H,6H2,1H3,(H,7,8,9)
