16
gdb 43782	4.14764	1.22086	1.10421	3.4054	75.67	-0.2374	-0.016	0.2214	1089.0771	0.124503	-400.699031	-400.691576	-400.690631	-400.730821	29.646	
O	 0.0534204915	 0.0527305284	-0.0322317951	-0.323378
C	 0.0244631242	 1.2494640044	 0.0088029669	 0.468141
C	-1.1916739496	 2.2010231278	 0.0267687944	-0.359588
C	-0.3887867308	 3.5232756055	 0.0220576335	 0.226275
C	 0.7077407905	 3.2597712544	-1.0611834618	-0.277993
C	 1.1796861445	 2.2554750676	 0.025667626	-0.134179
N	 0.6410553827	 3.183974905	 1.1021157971	-0.357756
C	-1.1023193519	 4.7694312663	 0.1116033839	 0.057159
C	-1.6852502015	 5.8187364655	 0.1779365462	-0.323101
H	-1.8318282423	 2.0683035819	-0.8483476389	 0.132702
H	-1.7841400961	 2.0813776515	 0.9356716754	 0.147314
H	 0.4009445641	 2.8958840989	-2.0471547056	 0.113293
H	 1.3909003443	 4.1063842317	-1.1572382476	 0.118377
H	 2.1918246871	 1.8688346277	 0.1128953536	 0.095174
H	 1.2805212914	 3.9792756036	 1.1573762353	 0.226211
H	-2.2052368881	 6.7427465198	 0.2405597468	 0.191347
116.032	136.4383	194.1203	382.3256	408.7384	489.7473	505.525	512.8468	545.4757	616.944	632.1243	649.1992	668.7437	762.802	819.8462	824.4233	877.9575	955.6119	966.657	999.605	1028.0906	1034.5108	1120.9203	1125.8556	1165.6578	1182.8025	1208.038	1232.8759	1252.1123	1310.4298	1356.5442	1447.9071	1498.4619	1889.0231	2240.862	3047.8186	3080.5958	3122.4395	3137.9589	3162.1978	3438.8036	3501.2442
O=C1CC2(CC1N2)C#C	O=C1C[C@@]2(C[C@H]1N2)C#C	
InChI=1S/C7H7NO/c1-2-7-3-5(8-7)6(9)4-7/h1,5,8H,3-4H2	InChI=1S/C7H7NO/c1-2-7-3-5(8-7)6(9)4-7/h1,5,8H,3-4H2/t5-,7+/m1/s1
