17
gdb 77319	2.9694	1.2778	0.942	2.0609	74.18	-0.2779	0.0046	0.2825	1201.5182	0.137095	-418.048484	-418.040045	-418.039101	-418.08183	30.943	
C	-0.1991093497	 1.5381578559	 0.0336249297	-0.408303
C	 0.0821036939	 0.0404275224	 0.0144321952	-0.086875
C	 0.9455103378	-0.4743874669	-1.1639804527	-0.181062
C	 1.5425408557	-1.7686884047	-0.5685895387	-0.105507
O	 1.7032207247	-1.484284143	 0.8232156277	-0.237972
C	 0.8774152496	-0.460541284	 1.2081576534	 0.412382
N	 0.7951165596	-0.0033132421	 2.3786281963	-0.535802
C	 0.2176985976	-0.6846970673	-2.4072314809	 0.274582
N	-0.3654081408	-0.8589455287	-3.389653602	-0.314897
H	 0.7331263436	 2.1108901477	 0.0078026621	 0.125659
H	-0.8120465493	 1.82963364	-0.8238282952	 0.131823
H	-0.7256513553	 1.801523627	 0.9530452782	 0.155728
H	-0.8681786179	-0.5099922837	 0.0049472683	 0.127386
H	 1.7545023203	 0.2418728135	-1.3508354507	 0.137629
H	 0.8604090896	-2.6163682171	-0.7009791435	 0.13441
H	 2.5185073478	-2.0260141687	-0.9832609559	 0.140686
H	 1.4107005729	-0.5100542103	 3.0165247687	 0.230133
75.0248	132.6807	161.8762	216.6649	232.4505	263.2752	358.6404	440.5999	485.0767	562.8165	568.1297	628.8191	683.9595	815.9712	850.2329	895.3506	980.3366	1000.3168	1023.8726	1043.9496	1080.2837	1096.9308	1134.2144	1158.5796	1229.9737	1253.6885	1277.1031	1303.4938	1355.1936	1359.3148	1407.7788	1416.2412	1492.1228	1496.8793	1521.4081	1785.5126	2362.4394	3024.8174	3041.2864	3047.3308	3052.2097	3117.5623	3122.7887	3139.5962	3480.8247
CC1C(COC1=N)C#N	C[C@H]1[C@@H](CO[C]1[NH])C#N	
InChI=1S/C6H8N2O/c1-4-5(2-7)3-9-6(4)8/h4-5,8H,3H2,1H3	InChI=1S/C6H8N2O/c1-4-5(2-7)3-9-6(4)8/h4-5,8H,3H2,1H3/t4-,5+/m0/s1
