20
gdb 13898	2.78545	1.64077	1.27998	2.604	71.09	-0.246	0.0615	0.3075	1045.3975	0.175959	-386.125307	-386.11622	-386.115276	-386.158563	34.353	
C	 0.4671504827	 0.600239003	-1.3410355403	-0.402651
C	-0.0046426395	 0.033694059	-0.0048175657	 0.110245
O	 0.1038182833	 1.0276642976	 1.0391080078	-0.435871
C	-1.4145980596	-0.5250344383	-0.0754393826	-0.110533
C	-1.7240482853	-2.0117988297	 0.0845608906	-0.047462
C	-0.6477521777	-3.0610051203	 0.2580568866	-0.408782
C	-2.0444860122	-1.0462170308	 1.1979733862	 0.085753
O	-1.2588504156	-1.0802724141	 2.3507746631	-0.429636
H	 1.4752959623	 1.0126329532	-1.2483663488	 0.124911
H	 0.4741745058	-0.1794118879	-2.1093816219	 0.125433
H	-0.2020966261	 1.3988807481	-1.6843770918	 0.107512
H	 0.6921098073	-0.7436053382	 0.3169787961	 0.101849
H	-0.5144624888	 1.736847861	 0.8280222699	 0.280823
H	-2.0714927222	 0.0236557532	-0.7482196002	 0.074599
H	-2.5822915735	-2.343946492	-0.4938491446	 0.082635
H	 0.038166978	-2.7917869048	 1.0637114639	 0.139056
H	-1.1016134431	-4.0198476544	 0.5292056206	 0.117905
H	-0.0722700864	-3.2151882791	-0.6614868177	 0.109029
H	-3.0931160508	-0.8112009548	 1.3803737026	 0.080281
H	-0.7576910087	-0.2510934206	 2.3630851362	 0.294903
73.7194	142.7331	199.4093	212.9375	245.0493	256.8067	305.36	326.1215	395.6272	438.0197	503.2266	569.4915	618.0595	659.5919	766.6107	796.8797	854.8927	896.2469	968.8206	986.0967	1010.9974	1063.5995	1073.5371	1105.6064	1111.0864	1148.7827	1177.5635	1187.8603	1249.4937	1279.1067	1319.5352	1371.8808	1393.9413	1403.2239	1408.5733	1417.2598	1427.7844	1442.3388	1489.5412	1494.0169	1497.776	1509.8932	3026.4417	3035.2151	3083.6713	3091.0586	3092.8275	3102.3345	3115.7867	3122.1451	3126.6872	3143.6867	3703.2499	3794.7773
CC(O)C1C(C)C1O	C[C@@H](O)[C@H]1[C@@H](C)[C@H]1O	
InChI=1S/C6H12O2/c1-3-5(4(2)7)6(3)8/h3-8H,1-2H3	InChI=1S/C6H12O2/c1-3-5(4(2)7)6(3)8/h3-8H,1-2H3/t3-,4-,5-,6-/m1/s1
