24
gdb 100044	2.90247	1.02683	0.95356	1.581	85.76	-0.2163	0.0666	0.2829	1386.8507	0.214889	-405.506492	-405.495494	-405.49455	-405.542321	40.918	
C	-0.276100167	-2.0750814399	 3.927159701	-0.316498
N	-0.6908922021	-0.6815238647	 3.8951962567	-0.102247
C	 0.0876881717	 0.2993473842	 4.6377860677	-0.273691
C	 0.0112027727	 0.3618905865	 3.1468041182	 0.014143
C	 1.1955551523	 0.235200982	 2.1761440768	 0.221989
C	 2.4087774857	-0.5715171888	 2.674204421	-0.438053
C	 0.6836073576	-0.3621901354	 0.8485428884	-0.407732
C	 1.6582118482	 1.6894151645	 1.9261728948	-0.078378
O	 2.6886366202	 1.6915480545	 0.9483789142	-0.427375
H	-0.8319749034	-2.5750237783	 4.7281163145	 0.120383
H	-0.5443950701	-2.5622739942	 2.9844195289	 0.122272
H	 0.7939726684	-2.2400180553	 4.1129010771	 0.105494
H	-0.4706678341	 0.9983036132	 5.2574862614	 0.107132
H	 1.0260943857	-0.0357209355	 5.0780862331	 0.10483
H	-0.7125615807	 1.0756450239	 2.7472591405	 0.083057
H	 3.242970741	-0.4110560304	 1.9869130255	 0.136296
H	 2.734160581	-0.2496965254	 3.6682096658	 0.105989
H	 2.2058529007	-1.6431976322	 2.7085080962	 0.11408
H	-0.180502073	 0.1977229447	 0.4738403254	 0.106385
H	 1.4652505434	-0.3260677164	 0.0862776991	 0.130687
H	 0.374055754	-1.4030148652	 0.9805774174	 0.111988
H	 0.8004755131	 2.2906785409	 1.5861880229	 0.083359
H	 2.0130620946	 2.1215873385	 2.874954381	 0.087359
H	 2.9786972702	 2.5985707989	 0.8193750326	 0.28853
37.0806	118.0536	151.2657	197.7001	213.5586	226.7443	234.6726	253.9013	296.6322	314.3215	349.6953	378.0221	384.8297	420.8679	494.7616	606.6884	706.4873	766.1744	828.1299	923.8523	934.6986	960.5632	963.1725	997.3671	1039.7027	1065.393	1080.5927	1102.1107	1133.6252	1154.4828	1168.0088	1184.6737	1207.8861	1218.8705	1222.6682	1288.3146	1305.7639	1373.6701	1393.0834	1402.7993	1422.3173	1449.7881	1460.033	1483.3512	1488.1495	1493.2804	1499.4337	1508.7593	1517.1888	1521.4616	1523.7078	2967.2116	3001.244	3001.9056	3035.7982	3050.1906	3065.9966	3069.8561	3083.9438	3095.5831	3101.9095	3118.3198	3126.932	3135.9755	3161.8027	3840.1962
CN1CC1C(C)(C)CO	CN1C[C@H]1C(C)(C)CO	
InChI=1S/C7H15NO/c1-7(2,5-9)6-4-8(6)3/h6,9H,4-5H2,1-3H3	InChI=1S/C7H15NO/c1-7(2,5-9)6-4-8(6)3/h6,9H,4-5H2,1-3H3/t6-,8?/m0/s1
