20
gdb 111621	3.07773	1.23345	1.16708	1.8372	77.87	-0.2259	0.0654	0.2913	1150.1087	0.172703	-403.088	-403.079995	-403.079051	-403.120604	31.549	
O	-0.1062561435	 1.4367440053	-0.0559004712	-0.429788
C	 0.0922924379	 0.0291476514	 0.0364536023	-0.13102
C	-1.2885275676	-0.5875133532	-0.0127223856	 0.019103
C	-1.9332702795	-1.2287389298	-1.2193212516	-0.069764
C	-1.0409795125	-1.9097073645	-2.2661502264	-0.269738
C	-0.5072250979	-3.1788077924	-1.5909500661	-0.008849
C	 0.4551811628	-3.1091287737	-0.460356746	-0.253745
N	-0.983805846	-3.2413848461	-0.1934390364	-0.099504
C	-1.7638983501	-2.0339537449	 0.0538069598	-0.052467
H	 0.7565989581	 1.8607610112	-0.0227862692	 0.284172
H	 0.7272185225	-0.3198618211	-0.7892390315	 0.090325
H	 0.598342622	-0.23274954	 0.9797257127	 0.095298
H	-1.9700657818	 0.0591538503	 0.5373992109	 0.10091
H	-2.8998914988	-0.8637867369	-1.5494282488	 0.087511
H	-1.6463813202	-2.1856286201	-3.1340229739	 0.110868
H	-0.2402272615	-1.260676939	-2.6385099987	 0.111549
H	-0.5713715322	-4.1057790543	-2.1565079862	 0.089828
H	 1.0373549739	-3.9918748767	-0.2056226014	 0.112322
H	 0.9574287535	-2.1777148602	-0.2389487034	 0.117144
H	-2.6010747892	-2.2204214456	 0.7177006305	 0.095844
75.3877	169.0368	200.8368	250.1405	258.0235	327.2039	404.0282	472.5427	632.0025	649.3874	706.6562	719.1435	774.9776	804.8751	841.0926	857.9081	894.3272	955.8496	969.5872	1024.9736	1042.1918	1057.6523	1068.8598	1099.7952	1107.9559	1116.5946	1125.1585	1134.9912	1160.9674	1196.9567	1219.3732	1263.6772	1274.7084	1298.4647	1300.6425	1328.6924	1356.4225	1393.0298	1411.2065	1469.3398	1488.1927	1512.1418	1528.2304	2966.9369	3010.6787	3041.6701	3086.1492	3117.8288	3123.1923	3128.9942	3157.296	3167.3732	3239.5342	3824.9736
OCC1C2CC3CN3C12	OC[C@H]1[C@H]2C[C@H]3CN3[C@@H]12	
InChI=1S/C7H11NO/c9-3-6-5-1-4-2-8(4)7(5)6/h4-7,9H,1-3H2	InChI=1S/C7H11NO/c9-3-6-5-1-4-2-8(4)7(5)6/h4-7,9H,1-3H2/t4-,5+,6-,7+,8?/m0/s1
