19
gdb 117593	2.12163	1.09441	0.91963	4.4684	82.06	-0.2672	0.0028	0.2701	1395.6065	0.156501	-382.038687	-382.02805	-382.027106	-382.074339	38.26	
C	-0.0360364821	 1.6105640959	 0.0607396017	-0.38868
C	 0.0059226598	 0.0808710245	-0.0122984831	-0.197916
C	 0.7248970618	-0.5330831472	 1.1919990743	-0.18469
C	 0.7777654454	-2.0974459849	 1.1997163455	-0.148026
N	 1.4419388715	-2.7121431821	 0.0362739317	-0.518771
C	 1.4761492207	-2.5340459157	 2.4173562819	 0.37863
C	 2.0779868038	-2.8399390747	 3.4095126289	-0.435098
C	-0.6128504753	-2.6156251701	 1.2360929816	 0.327947
N	-1.710707804	-2.9738668262	 1.2472537903	-0.345552
H	 0.972929642	 2.036246366	 0.0913875935	 0.11722
H	-0.5492933267	 2.0306288361	-0.8090790668	 0.120933
H	-0.566404763	 1.9488005855	 0.9570951685	 0.124065
H	-1.0155775289	-0.3131707384	-0.0680011997	 0.129689
H	 0.5091619381	-0.2196710308	-0.9398500935	 0.091795
H	 1.764809041	-0.1878906997	 1.2344725977	 0.107714
H	 0.2451329665	-0.2049587283	 2.1208868829	 0.124941
H	 1.0027118686	-2.3876804027	-0.8200929754	 0.244754
H	 2.4124365146	-2.4119424133	 0.0204462593	 0.241315
H	 2.5989433762	-3.1315532939	 4.2884176507	 0.209729
75.2236	96.6886	117.6116	131.2502	192.8177	201.5076	240.2366	249.3708	297.9927	326.0882	406.488	477.8158	516.3592	570.3416	613.6852	649.8245	676.4949	721.9443	750.236	838.96	869.9059	909.9423	978.4327	1035.0813	1046.4026	1072.3961	1126.2385	1195.0334	1265.279	1301.6965	1335.3261	1347.2524	1395.0721	1415.0058	1473.3915	1492.971	1499.3787	1509.8546	1641.0868	2247.2143	2362.5866	3023.1013	3032.729	3036.6065	3060.9036	3083.9098	3103.432	3110.1413	3490.9762	3499.987	3583.6732
CCCC(N)(C#C)C#N	CCC[C@@](N)(C#C)C#N	
InChI=1S/C7H10N2/c1-3-5-7(9,4-2)6-8/h2H,3,5,9H2,1H3	InChI=1S/C7H10N2/c1-3-5-7(9,4-2)6-8/h2H,3,5,9H2,1H3/t7-/m0/s1
