17
gdb 51964	5.20144	0.76557	0.72021	6.2	71.83	-0.2647	-0.034	0.2306	1549.5919	0.13391	-458.985828	-458.976721	-458.975776	-459.021093	31.744	
O	 0.5165871814	 0.1706011231	 0.1124439354	-0.2728
C	 0.5984773953	 1.3494413308	 0.2669006683	 0.190596
O	 0.5020840382	 2.2192893903	-0.7676653467	-0.165499
C	 0.6974224689	 3.5875832636	-0.4749756661	-0.20958
C	 2.1500056816	 3.9189528445	-0.1199412277	 0.368798
O	 2.942495499	 3.0400335849	 0.1381930987	-0.315554
C	 2.4904893215	 5.3633470565	-0.0837739761	-0.115619
C	 3.5319176791	 5.8125004084	 0.9343671374	-0.245709
C	 3.9043283489	 5.7539711683	-0.5037939339	-0.244544
H	 0.7219872163	 1.8513026159	 1.2435435848	 0.081518
H	 0.3904768207	 4.1421944024	-1.365974268	 0.150738
H	 0.0550156201	 3.9250763362	 0.3534273884	 0.137425
H	 1.6903191641	 6.0558067223	-0.3222972789	 0.094071
H	 3.3754737011	 6.7787078474	 1.3994800203	 0.126022
H	 3.9153799376	 5.033453776	 1.5830154209	 0.14522
H	 4.5372177157	 4.9352547576	-0.8258650983	 0.147838
H	 4.0102585204	 6.6778109018	-1.0600911486	 0.12708
44.6734	66.565	86.3209	184.4209	205.6007	250.276	300.4568	314.5921	379.4664	566.9156	630.1289	702.8879	792.1898	827.852	844.2606	869.9524	907.9287	1001.7816	1030.0349	1050.9058	1076.0785	1090.1965	1100.7218	1113.7082	1124.8759	1180.0526	1210.7642	1223.3979	1290.99	1369.6931	1414.8595	1429.5683	1454.9411	1470.2294	1486.2487	1799.7782	1876.4211	2974.6892	2999.4202	3099.1508	3144.0755	3145.5414	3168.2955	3232.2552	3246.5633
O=COCC(=O)C1CC1	O=COCC(=O)C1CC1	
InChI=1S/C6H8O3/c7-4-9-3-6(8)5-1-2-5/h4-5H,1-3H2	InChI=1S/C6H8O3/c7-4-9-3-6(8)5-1-2-5/h4-5H,1-3H2
