24
gdb 11132	5.885	0.87533	0.82505	0.076	86.22	-0.2768	0.0888	0.3656	1519.2786	0.223179	-314.276853	-314.267264	-314.266319	-314.311385	35.627	
C	 0.1025995273	 1.5121484032	-0.1118363849	-0.37716
C	 0.0416515511	-0.0002571395	 0.1267667221	-0.193972
C	-1.3711897706	-0.5644176861	 0.0521626935	 0.067656
C	-2.1042726876	-0.602904039	-1.3202126507	-0.258139
C	-2.6859072429	-1.9915424661	-0.9348888982	 0.067655
C	-2.7925231637	-3.0712761694	-2.0038945036	-0.193972
C	-3.2618700462	-4.4224836003	-1.4543777174	-0.37716
C	-1.5761012651	-2.101750493	 0.1506944628	-0.258139
H	 1.1306512043	 1.8844559596	-0.0617649716	 0.109394
H	-0.2982777835	 1.7741804506	-1.0970943082	 0.117711
H	-0.4847993783	 2.0545393984	 0.637618984	 0.111825
H	 0.6710358554	-0.5147283441	-0.6123962447	 0.087403
H	 0.4729556842	-0.2351513281	 1.1093958876	 0.091415
H	-2.0054344055	-0.0598153947	 0.7919899729	 0.063366
H	-2.8074347951	 0.1999889032	-1.5566905142	 0.090536
H	-1.3883093584	-0.6913617752	-2.1466336076	 0.089965
H	-3.6612958145	-1.8608167928	-0.449336027	 0.063366
H	-3.4820374839	-2.7344705723	-2.7899546711	 0.091415
H	-1.8139703349	-3.1914608308	-2.4888243051	 0.087403
H	-3.3183759053	-5.1782654026	-2.2440683632	 0.109394
H	-2.5777528443	-4.7963079205	-0.6847443128	 0.117711
H	-4.2557495177	-4.340739408	-1.0000316559	 0.111825
H	-0.7015807365	-2.6410654812	-0.23369222	 0.089965
H	-1.8410953282	-2.5225065415	 1.1242129535	 0.090536
61.2122	82.7301	114.3327	194.5255	197.2582	230.7121	249.527	375.3431	393.8743	412.1201	434.5563	597.6019	748.6851	781.0897	795.7667	816.4911	906.2234	934.3956	945.6037	973.1688	981.7772	990.8976	1020.8565	1027.7146	1089.2952	1112.2825	1146.9908	1148.6674	1202.5909	1229.7736	1234.1157	1263.0498	1266.829	1287.4624	1297.6946	1315.6723	1341.217	1348.5712	1383.0767	1404.7998	1410.6946	1412.3112	1475.9804	1483.6623	1486.5901	1499.6866	1499.7331	1502.0118	1507.0339	1508.6647	3006.805	3007.2482	3019.0066	3019.2992	3028.2099	3029.3036	3029.4467	3034.7853	3042.4302	3043.6576	3090.9856	3094.542	3095.2973	3097.0123	3100.6074	3100.7701
CCC1CC(CC)C1	CC[C@H]1C[C@@H](CC)C1	
InChI=1S/C8H16/c1-3-7-5-8(4-2)6-7/h7-8H,3-6H2,1-2H3	InChI=1S/C8H16/c1-3-7-5-8(4-2)6-7/h7-8H,3-6H2,1-2H3/t7-,8+
