23
gdb 87150	2.54166	1.33318	1.17072	2.7378	85.84	-0.2232	0.0794	0.3026	1218.7972	0.204345	-384.423002	-384.412905	-384.411961	-384.45741	38.365	
C	-0.2338542825	 1.6006358527	 0.3809384093	-0.319957
N	-0.1749034453	 0.1470234737	 0.3735527232	-0.116457
C	 0.9121125785	-0.5033561709	-0.354780384	-0.289871
C	 0.841588432	-0.5821400901	 1.1375653366	 0.253481
C	 1.8748370441	 0.156680729	 1.9687627183	-0.473744
C	 0.3217957257	-1.8649000678	 1.7700760391	 0.292014
C	 1.3538171166	-2.9544549273	 1.9823010543	-0.460823
C	-0.8374884763	-1.7495290183	 2.6927828095	-0.276192
N	-1.0025115687	-2.3439201085	 1.3527760148	-0.363074
H	 0.7443186246	 2.0993186572	 0.3139099307	 0.103392
H	-0.8335653214	 1.9274558462	-0.4745202639	 0.12846
H	-0.7329511671	 1.9432859833	 1.2929285896	 0.124751
H	 0.6298553494	-1.3545307188	-0.969813159	 0.119994
H	 1.6821402558	 0.1354918631	-0.786753465	 0.104682
H	 2.2461684768	 1.054008207	 1.4692727584	 0.117657
H	 1.4570174094	 0.4499922023	 2.9382719706	 0.123587
H	 2.738057902	-0.4860872583	 2.1634697635	 0.130167
H	 2.1013648882	-2.671530341	 2.7308578857	 0.111843
H	 0.8592635331	-3.8680626624	 2.3199008947	 0.129672
H	 1.8797623663	-3.1820583072	 1.0478889047	 0.114762
H	-0.9451454075	-2.4401760225	 3.52541198	 0.108091
H	-1.2534855311	-0.7593446663	 2.8643053121	 0.102721
H	-1.4037185025	-1.624612725	 0.7487725068	 0.234844
66.9882	146.6909	173.4153	184.4625	199.6704	219.6343	283.5924	302.1416	317.4502	358.5833	437.3522	460.6963	491.105	521.5787	615.5669	782.7992	792.7867	852.3443	892.702	923.4512	934.0889	974.0075	1003.6873	1027.6472	1061.4318	1086.3309	1107.2704	1110.6377	1119.416	1132.3306	1151.5601	1175.2243	1209.8147	1249.2124	1306.0869	1338.9677	1370.0831	1389.3646	1413.1393	1415.9629	1451.6393	1482.1042	1485.9129	1490.9021	1494.9229	1499.6163	1506.9522	1512.4622	1515.9087	2987.8999	3030.8954	3040.2712	3069.716	3084.7878	3091.1666	3098.1047	3101.972	3104.2433	3123.8643	3125.5504	3171.8421	3182.4016	3444.6097
CN1CC1(C)C1(C)CN1	CN1C[C@]1(C)[C@@]1(C)CN1	
InChI=1S/C7H14N2/c1-6(4-8-6)7(2)5-9(7)3/h8H,4-5H2,1-3H3	InChI=1S/C7H14N2/c1-6(4-8-6)7(2)5-9(7)3/h8H,4-5H2,1-3H3/t6-,7-,9?/m1/s1
