16
gdb 46575	3.25133	1.72103	1.37806	5.6332	69.03	-0.2509	0.0101	0.261	928.6141	0.126747	-437.826373	-437.819956	-437.819012	-437.85707	26.064	
O	-0.135952792	-0.0567383332	 0.0723263398	-0.332922
C	 0.0010336264	 1.1272690911	 0.0455152403	 0.445518
O	-1.09202055	 1.9754783577	-0.0645351429	-0.244356
C	-0.7502354816	 3.3817386463	 0.0154259926	-0.184199
C	 0.6735226341	 3.3199083563	 0.504833179	 0.287635
C	 2.1099616439	 3.9111038391	 0.5289978013	-0.319843
C	 2.1501949088	 2.4608922189	 1.1444665804	-0.046108
N	 0.8791421936	 2.7428288111	 1.907106767	-0.338366
C	 1.2414902361	 2.0032312382	-0.0293532597	-0.157482
H	-0.8450815942	 3.8369998317	-0.9766235029	 0.122794
H	-1.4497527286	 3.8562079314	 0.7078270389	 0.130192
H	 2.6085508867	 4.0869807814	-0.4291687172	 0.109542
H	 2.2916171961	 4.7250078634	 1.2361946422	 0.106172
H	 2.9976961707	 1.9436731033	 1.5941619288	 0.103528
H	 1.035777892	 3.5112938035	 2.5661196027	 0.210429
H	 1.680434518	 2.0076717898	-1.0293190302	 0.107466
154.2593	219.9003	302.0783	355.0151	479.6761	565.4483	598.3107	613.5791	670.0108	750.8534	780.4834	830.344	889.4783	913.6383	921.4768	967.9659	1000.0604	1013.113	1026.1811	1061.0104	1084.3445	1113.7139	1131.8289	1167.5848	1180.4143	1196.8683	1219.2177	1274.247	1289.9439	1299.0868	1356.4809	1380.2973	1501.6263	1508.3031	1897.5659	3043.1367	3046.052	3095.7156	3107.598	3116.2087	3119.928	3392.6254
O=C1OCC23CC(N2)C13	O=C1OC[C@@]23C[C@@H](N2)[C@@H]13	
InChI=1S/C6H7NO2/c8-5-4-3-1-6(4,7-3)2-9-5/h3-4,7H,1-2H2	InChI=1S/C6H7NO2/c8-5-4-3-1-6(4,7-3)2-9-5/h3-4,7H,1-2H2/t3-,4+,6-/m1/s1
