18
gdb 47023	3.6572	1.32439	1.01666	4.5493	80.14	-0.2346	-0.027	0.2075	1149.0914	0.150593	-401.982298	-401.974888	-401.973944	-402.014104	29.334	
O	 0.0206493176	-0.0508400391	 0.1261636791	-0.383679
C	-0.0119832395	 1.1647519409	 0.0409791881	 0.423679
N	-1.2079909431	 1.8509007116	-0.0895033677	-0.344998
C	-1.3544361853	 3.284576558	 0.1695179465	-0.198518
C	-0.2155058334	 3.9926818341	-0.5515698006	-0.044969
C	 0.4727718412	 5.2913552407	-0.0160315166	-0.251153
C	 1.8628549811	 4.5918634603	-0.2154660474	-0.323684
C	 1.096354328	 3.2913920652	-0.293679788	 0.384763
C	 1.2109465504	 2.0137807975	 0.0556610682	-0.39287
H	-2.0141375995	 1.2585304618	 0.0461783516	 0.243611
H	-2.3385922458	 3.6039886688	-0.1864202424	 0.112124
H	-1.3035929324	 3.5056721222	 1.2481930229	 0.1012
H	-0.4262043701	 4.0727839942	-1.6250514147	 0.096014
H	 0.2947785749	 6.2138154442	-0.5711611576	 0.108623
H	 0.2543111329	 5.4584027229	 1.0417640557	 0.114265
H	 2.321961039	 4.8693761419	-1.1706208518	 0.124118
H	 2.6129038018	 4.6910816071	 0.5726016632	 0.121772
H	 2.1328864023	 1.5303054276	 0.3573308915	 0.109701
108.8783	187.1424	206.9044	301.6179	341.3909	439.2284	457.0158	519.1434	558.7261	656.5627	708.8713	734.345	785.6429	819.6468	872.6491	888.9965	916.6467	923.9969	998.7414	1049.2587	1086.4891	1089.1569	1111.1795	1136.777	1197.098	1217.1274	1238.1654	1255.4917	1264.2945	1278.0615	1325.7516	1358.3701	1381.2003	1460.6231	1466.7987	1487.1266	1511.5204	1741.3512	1779.0768	2967.8252	3031.5111	3048.0261	3068.6052	3074.152	3105.5707	3130.0478	3202.8246	3612.9889
O=C1NCC2CCC2=C1	O=C1NC[C@H]2CC[C]2[CH]1	
InChI=1S/C7H9NO/c9-7-3-5-1-2-6(5)4-8-7/h3,6H,1-2,4H2,(H,8,9)	InChI=1S/C7H9NO/c9-7-3-5-1-2-6(5)4-8-7/h3,6H,1-2,4H2,(H,8,9)/t6-/m1/s1
