20
gdb 17327	3.29929	2.08779	1.73422	0.3103	77.33	-0.2369	0.0856	0.3225	866.8211	0.178962	-311.856222	-311.849147	-311.848203	-311.886851	29.32	
C	-0.003541202	 1.5278302719	 0.0101387001	-0.488777
C	 0.0499503603	 0.01743292	 0.0031506814	 0.374082
C	-0.61028123	-0.7585565721	 1.1195060946	-0.343586
C	 0.894815884	-0.7785744672	 0.9834897965	-0.069004
C	 1.5799162468	-1.9270607025	 0.2362327062	-0.249916
C	 1.1335846523	-1.8321922275	-1.2274570033	-0.025293
C	-0.3132839583	-2.0584672905	-1.5863875763	-0.303375
C	 0.1894291789	-0.6528210916	-1.358897076	-0.089562
H	 0.8425983482	 1.9588912662	-0.5383500012	 0.11379
H	-0.9242663338	 1.8983053031	-0.4562222447	 0.116323
H	 0.0291382026	 1.9186377882	 1.0320373478	 0.111547
H	-1.0173907914	-0.1787097315	 1.9427581209	 0.101501
H	-1.1829791308	-1.6533736338	 0.9041859584	 0.106672
H	 1.4668436056	-0.2725054752	 1.7553128042	 0.076621
H	 2.6657974163	-1.7922796358	 0.2892658355	 0.100101
H	 1.3644536593	-2.907332493	 0.6788566266	 0.099528
H	 1.8754284145	-2.0434002521	-1.9905415652	 0.079282
H	-0.5236971624	-2.3432582885	-2.6125569042	 0.104548
H	-0.9812214545	-2.5191738425	-0.8679037637	 0.109639
H	 0.2373173644	 0.0119011445	-2.2148304779	 0.07588
173.9565	218.7273	253.063	309.6972	335.1398	433.9417	470.6027	580.615	671.6731	690.4308	787.1092	805.4596	823.6606	844.6872	861.4588	900.525	961.0377	974.4984	995.8568	1026.9745	1043.0134	1055.2747	1064.4165	1077.9248	1105.2569	1110.8462	1120.778	1138.3461	1204.6884	1223.9963	1234.8956	1288.2369	1311.8522	1346.0037	1381.7227	1406.3893	1420.4262	1482.6106	1488.4365	1491.1112	1502.4137	1511.5576	3019.1312	3029.5268	3065.4624	3076.487	3096.6736	3122.1733	3131.9031	3149.0507	3155.1626	3165.1016	3201.8037	3213.5884
CC12CC1CC1CC21	C[C@]12C[C@H]1C[C@H]1C[C@@H]21	
InChI=1S/C8H12/c1-8-4-6(8)2-5-3-7(5)8/h5-7H,2-4H2,1H3	InChI=1S/C8H12/c1-8-4-6(8)2-5-3-7(5)8/h5-7H,2-4H2,1H3/t5-,6+,7+,8-/m0/s1
