13
gdb 21481	5.17101	1.64152	1.24725	1.1871	62.26	-0.2319	-0.0114	0.2205	892.9272	0.098527	-390.972628	-390.965864	-390.964919	-391.003692	25.239	
N	-0.1120547886	 1.3203569023	 0.1330871999	-0.555162
C	 0.070484002	-0.0369802624	 0.021658813	 0.2523
N	 1.1732476597	-0.6868328517	-0.0538817836	-0.536102
C	-1.1908135292	-0.7987925028	 0.0315544866	 0.353643
C	-1.3757984659	-2.1624865192	 0.0364710497	-0.152401
N	-2.7174060245	-2.3012538632	 0.0337045474	-0.156297
N	-3.347304719	-1.1079955124	 0.0263169725	-0.109987
N	-2.4174708322	-0.2000056264	 0.0252808551	-0.27867
H	 0.6508956056	 1.9267045008	-0.1176162074	 0.248187
H	-1.0454793134	 1.6726797978	-0.0169158461	 0.27166
H	 1.9756591691	-0.054950176	-0.0469959192	 0.199618
H	-0.681806683	-2.9841068459	 0.0408142151	 0.175634
H	-3.2672095108	-3.1459624309	 0.0360370869	 0.287578
91.4745	202.2301	210.6877	359.9502	407.6342	491.8081	519.584	593.5361	633.5117	657.7929	722.1297	769.0443	845.3514	850.4929	983.8799	1020.3891	1044.694	1104.5321	1122.5646	1143.5002	1259.1398	1309.3425	1332.0001	1425.9327	1492.353	1597.0189	1635.632	1713.944	3306.0614	3458.0197	3579.9085	3656.2885	3707.9599
NC(=N)C1=CNN=N1	NC(=N)c1c[nH]nn1	
InChI=1S/C3H5N5/c4-3(5)2-1-6-8-7-2/h1H,(H3,4,5)(H,6,7,8)	InChI=1S/C3H5N5/c4-3(5)2-1-6-8-7-2/h1H,(H3,4,5)(H,6,7,8)
