16
gdb 113601	3.48441	0.71894	0.62945	4.6895	85.5	-0.2817	-0.0575	0.2242	1723.0139	0.122656	-400.717165	-400.707934	-400.70699	-400.752335	32.213	
C	 0.2853186632	 1.5366517347	 0.0966421951	-0.380178
C	-0.3155070552	 0.1729495852	-0.2663875342	-0.227068
C	 0.4697170337	-0.509616301	-1.3564967866	 0.096377
O	 1.720560853	-1.0948013377	-0.9993234901	-0.230587
C	 0.6759000675	-1.9783053281	-1.432128378	-0.205571
C	 0.1300500472	-2.8779380781	-0.4560780667	 0.127134
C	-0.3353650898	-3.664463162	 0.3352789636	 0.086434
C	-0.862694964	-4.5455713266	 1.2340318057	 0.206822
N	-1.3146501816	-5.2945071585	 1.9986908576	-0.330785
H	 1.3144526455	 1.4230351132	 0.4494881688	 0.13888
H	 0.2970291215	 2.2099830346	-0.7671619326	 0.119874
H	-0.2954467955	 2.0178807183	 0.8880666056	 0.124469
H	-0.3448746676	-0.4752627002	 0.6147466196	 0.122565
H	-1.3500337903	 0.2941752688	-0.6114123534	 0.11301
H	 0.4938387368	 0.0124378914	-2.3160393864	 0.105725
H	 0.8396405657	-2.4239701141	-2.4131183879	 0.132899
57.0187	73.4653	105.5666	168.0845	209.6893	242.827	262.3921	370.2973	440.842	505.343	552.678	576.9655	598.2683	721.8433	764.5823	839.2372	863.5451	937.4414	1010.8334	1048.0482	1083.9602	1131.1546	1173.914	1195.0948	1281.3995	1290.9767	1341.8329	1386.6921	1410.894	1456.6723	1474.6693	1498.729	1507.5791	2264.4934	2395.4472	3036.0577	3040.1027	3078.9994	3092.3074	3112.2566	3115.8033	3121.8071
CCC1OC1C#CC#N	CC[C@H]1O[C@H]1C#CC#N	
InChI=1S/C7H7NO/c1-2-6-7(9-6)4-3-5-8/h6-7H,2H2,1H3	InChI=1S/C7H7NO/c1-2-6-7(9-6)4-3-5-8/h6-7H,2H2,1H3/t6-,7+/m1/s1
