17
gdb 22933	2.83774	1.50167	1.11286	0.8381	80.14	-0.2119	-0.0335	0.1784	1093.5959	0.135775	-417.955522	-417.947381	-417.946437	-417.987891	31.409	
C	-0.0595085051	 1.5008157538	-0.020838724	-0.470919
C	-0.0130137266	-0.0059906086	-0.0303798882	 0.238299
C	 0.2920135236	-0.7714517601	 1.2209313874	-0.270474
N	 1.2979401127	-0.682464775	 0.1316940503	-0.144109
C	 1.2327678799	-1.8147165869	-0.7317809683	-0.051768
C	 0.1218984729	-1.8781213037	-1.485199293	-0.189568
C	-0.7333162728	-0.7512500599	-1.1181364887	 0.346307
N	-1.8481157741	-0.3388414127	-1.5941926659	-0.267878
O	-2.2903826249	-1.168358459	-2.639258731	-0.391019
H	 0.5874910865	 1.9046633708	 0.7616573385	 0.122081
H	 0.2667811473	 1.9017391621	-0.9847396182	 0.131272
H	-1.084578232	 1.8397720093	 0.1540218246	 0.139011
H	 0.537655798	-0.2154080208	 2.1210996618	 0.125269
H	-0.1821529648	-1.7361328538	 1.3758396138	 0.126544
H	 2.0589324235	-2.5147691311	-0.7051820759	 0.122112
H	-0.1261454991	-2.6220331991	-2.2260284726	 0.128258
H	-3.1135171149	-0.7430017954	-2.9008330205	 0.306582
124.4606	164.423	203.2096	217.5546	311.3433	317.9558	367.7634	426.9051	477.2549	516.8777	596.9397	711.1731	754.0561	774.746	826.7395	832.3903	862.0623	933.2567	943.4546	980.3837	989.883	1048.7222	1093.2276	1114.6491	1128.0251	1150.4182	1172.2785	1319.7617	1334.5023	1364.1213	1410.0477	1414.2592	1479.4069	1492.9728	1494.2775	1613.1625	1720.9883	3046.8914	3113.1056	3117.7994	3128.8732	3209.9031	3211.054	3265.0885	3822.0018
CC12CN1C=CC2=NO	C[C@]12CN1C=CC2=NO	
InChI=1S/C6H8N2O/c1-6-4-8(6)3-2-5(6)7-9/h2-3,9H,4H2,1H3	InChI=1S/C6H8N2O/c1-6-4-8(6)3-2-5(6)7-9/h2-3,9H,4H2,1H3/t6-,8?/m1/s1
