14
gdb 50453	3.12761	1.38486	0.97445	6.6226	65.08	-0.2494	-0.0932	0.1562	1116.2289	0.100455	-473.886694	-473.878638	-473.877694	-473.920235	28.053	
O	-0.2072333802	 0.0264789091	 0.185011604	-0.25052
C	-0.0499903338	 1.2124151555	 0.1146498627	 0.163558
N	 1.1775496039	 1.8713519869	 0.0115765005	-0.142089
C	 1.2215931299	 3.3411443577	-0.1049620909	-0.191718
C	 2.7007557884	 3.7164770942	 0.0827496162	-0.351538
C	 3.4627016458	 2.4153403737	-0.1080135139	 0.314759
O	 4.6394422675	 2.2615206494	-0.2657890193	-0.263922
C	 2.4370009346	 1.2570906885	-0.0481484733	 0.327113
O	 2.6901451807	 0.0860792023	-0.0472793215	-0.294138
H	-0.8839927383	 1.9436280764	 0.1311909813	 0.090314
H	 0.8574422307	 3.6501844594	-1.0906472715	 0.14133
H	 0.5740599365	 3.7953057453	 0.6491833412	 0.139283
H	 3.0481065266	 4.4876653272	-0.6064961031	 0.156397
H	 2.8948038677	 4.0727585942	 1.1006885976	 0.161172
65.7684	76.7097	174.8327	205.414	220.3648	329.5523	406.3126	452.8621	546.3921	604.4715	671.998	703.7565	730.4655	849.5869	1004.3148	1019.0938	1024.9296	1046.6922	1116.3064	1178.9617	1203.321	1241.3433	1288.3443	1303.4897	1396.0702	1448.1759	1455.621	1527.9698	1806.1857	1869.5512	1878.7128	2923.5557	3044.3401	3057.5511	3094.0224	3127.7965
O=CN1CCC(=O)C1=O	O=CN1CCC(=O)C1=O	
InChI=1S/C5H5NO3/c7-3-6-2-1-4(8)5(6)9/h3H,1-2H2	InChI=1S/C5H5NO3/c7-3-6-2-1-4(8)5(6)9/h3H,1-2H2
