19
gdb 56312	4.36358	0.64799	0.60887	2.5366	75.6	-0.2583	0.0223	0.2807	1824.5506	0.158053	-456.379631	-456.369419	-456.368475	-456.416804	35.01	
C	-0.0041721521	 1.3473407671	-0.1672165647	-0.442002
C	 0.1022708362	-0.1492951772	-0.1035445182	 0.414053
N	 1.211336365	-0.7509986776	-0.2153906248	-0.513345
O	-1.136607647	-0.6951615331	 0.0873726047	-0.254878
C	-1.246919027	-2.1157036092	 0.1650007087	-0.09465
C	-2.71969733	-2.4374628456	 0.3685049089	-0.176133
N	-3.5355722967	-1.957075769	-0.7295895735	-0.27077
C	-4.2950354392	-2.7800459862	-1.5021799929	 0.158194
O	-4.4054083675	-3.977913712	-1.3492849223	-0.321231
H	 0.9862282216	 1.7770967957	-0.3082522809	 0.152156
H	-0.6565151042	 1.6471025976	-0.9935815079	 0.134888
H	-0.4485178758	 1.7353082849	 0.7546244125	 0.139558
H	 1.1263326545	-1.7641617932	-0.1516946811	 0.21947
H	-0.877190617	-2.5727470911	-0.7617656237	 0.124577
H	-0.6558697449	-2.4973101975	 1.0079931905	 0.117209
H	-2.8624981976	-3.5188795207	 0.4205677073	 0.155631
H	-3.0570791094	-1.99792322	 1.3149719556	 0.122935
H	-3.4810387742	-0.9783566668	-0.9621330725	 0.255824
H	-4.8180694846	-2.2213923961	-2.3029070957	 0.078515
30.2925	58.0479	67.1083	140.5247	143.9655	197.7016	234.9321	251.3362	351.5905	413.7604	514.4178	558.2955	561.1278	609.7503	751.5491	833.1437	872.06	897.7262	950.0492	1015.2044	1031.9866	1068.9521	1075.7484	1094.4511	1121.5236	1135.9673	1215.1714	1252.9566	1289.7139	1318.7654	1387.8582	1403.0436	1422.3399	1429.7112	1474.1604	1478.7305	1481.5056	1509.5533	1529.466	1741.3432	1806.4378	2943.3795	3011.1629	3034.3892	3050.1477	3064.0137	3107.6822	3126.8586	3171.3683	3502.6144	3643.7193
CC(=N)OCCNC=O	C[C]([NH])OCCNC=O	
InChI=1S/C5H10N2O2/c1-5(6)9-3-2-7-4-8/h4,6H,2-3H2,1H3,(H,7,8)	InChI=1S/C5H10N2O2/c1-5(6)9-3-2-7-4-8/h4,6H,2-3H2,1H3,(H,7,8)
