18
gdb 7107	4.81794	0.83891	0.7728	2.6221	70.45	-0.2488	-0.0379	0.2109	1490.832	0.150235	-384.975609	-384.966051	-384.965107	-385.011701	32.339	
C	-0.1565095907	 1.5762642541	-0.1834768738	-0.387984
C	 0.1434312057	 0.0958235093	 0.0629143085	-0.161762
C	 0.6939277504	-0.607500763	-1.1768840659	-0.289015
C	 0.99726553	-2.0793919701	-0.9737795763	 0.359941
O	 0.8113100224	-2.6566285649	 0.0728544126	-0.303741
C	 1.5385358161	-2.8421000582	-2.1877885082	-0.372964
C	 0.65115207	-4.037625682	-2.5052962166	 0.162765
O	 0.2688209338	-4.314734217	-3.6105836552	-0.231841
H	 0.7446794141	 2.1227725767	-0.4835784925	 0.114352
H	-0.9006456888	 1.7066470469	-0.9771810257	 0.115837
H	-0.5480253638	 2.0534167846	 0.7198208962	 0.119043
H	 0.8617271691	-0.0136798554	 0.8825366137	 0.114145
H	-0.7622124004	-0.4241116126	 0.3929036651	 0.115744
H	-0.0047266991	-0.5294340894	-2.0239490663	 0.129105
H	 1.6153371082	-0.1235181513	-1.5344065683	 0.125123
H	 1.6538636332	-2.2226946821	-3.0791489179	 0.126433
H	 2.5197642643	-3.2407572058	-1.8971732253	 0.156176
H	 0.3782413454	-4.6400912795	-1.6143499941	 0.108642
25.8411	72.6162	100.1135	101.8231	159.3676	232.4833	249.3268	329.321	380.3822	465.6798	517.2796	639.2454	739.881	786.9908	859.7962	872.2827	911.5312	979.2122	1027.4077	1052.195	1088.3121	1117.4322	1137.0021	1195.9891	1252.0833	1272.7245	1324.109	1329.2953	1396.3522	1407.6453	1416.6825	1443.1424	1447.9036	1487.1715	1501.2555	1507.9352	1795.2108	1839.9373	2927.9716	3002.2881	3026.7062	3030.0825	3035.057	3050.0863	3076.4616	3101.5852	3106.4754	3125.7112
CCCC(=O)CC=O	CCCC(=O)CC=O	
InChI=1S/C6H10O2/c1-2-3-6(8)4-5-7/h5H,2-4H2,1H3	InChI=1S/C6H10O2/c1-2-3-6(8)4-5-7/h5H,2-4H2,1H3
