20
gdb 120827	2.4831	0.9853	0.78356	3.0977	77.16	-0.2447	0.023	0.2677	1500.3645	0.169558	-440.279383	-440.269311	-440.268367	-440.315816	35.028	
C	 0.2037154902	 1.2897608419	-0.1061266671	-0.224965
O	-0.0042733326	-0.0952884577	-0.2341819851	-0.235278
C	 0.9387712135	-0.7079018267	-1.0927979538	-0.079465
C	 0.6827456954	-2.1901898581	-1.094587296	 0.003917
C	-0.3876658493	-2.7844731327	-1.9751616758	-0.324653
C	 1.0638796242	-3.06020958	-2.2681061866	 0.022762
N	 1.6403626296	-2.48775602	-3.4516334504	-0.28239
C	 2.9280584038	-2.0440581485	-3.511529649	 0.151121
O	 3.6808852425	-1.9548936776	-2.5668317312	-0.317685
H	 1.199515754	 1.5192566742	 0.305747184	 0.105325
H	 0.1087671308	 1.8108593426	-1.0729619353	 0.098764
H	-0.5580990954	 1.6745494099	 0.5765472587	 0.124079
H	 0.851288654	-0.2987512069	-2.1123710076	 0.077993
H	 1.9655178876	-0.5064433365	-0.7503518741	 0.111771
H	 0.8214672371	-2.6557507802	-0.1237819271	 0.100172
H	-1.0000610508	-3.59439946	-1.5964167888	 0.120728
H	-0.9045484302	-2.1026307096	-2.6431845812	 0.117359
H	 1.4471233032	-4.0466499199	-2.0182325847	 0.107816
H	 1.1481263983	-2.607451674	-4.3238611538	 0.248806
H	 3.2105170542	-1.75079953	-4.543429095	 0.073822
41.3517	69.2867	88.5242	120.3297	158.554	223.5394	242.167	276.3223	333.074	393.6974	467.5106	513.0713	579.9614	762.9351	826.3921	858.4029	885.8531	922.3936	990.6482	1033.0957	1043.9674	1052.27	1072.2342	1131.8339	1139.1327	1152.7938	1175.9853	1193.6207	1207.05	1230.6949	1269.4819	1278.5318	1368.4099	1405.3782	1431.3796	1443.7556	1480.5156	1483.7699	1487.6118	1504.274	1506.1665	1527.7398	1810.3293	2925.1168	2960.9789	2973.9897	3005.0317	3008.4241	3110.8599	3126.4305	3134.2799	3161.3149	3222.4347	3614.2693
COCC1CC1NC=O	COC[C@H]1C[C@H]1NC=O	
InChI=1S/C6H11NO2/c1-9-3-5-2-6(5)7-4-8/h4-6H,2-3H2,1H3,(H,7,8)	InChI=1S/C6H11NO2/c1-9-3-5-2-6(5)7-4-8/h4-6H,2-3H2,1H3,(H,7,8)/t5-,6-/m1/s1
