22
gdb 61916	3.35892	0.77476	0.69413	1.9289	89.56	-0.2282	0.064	0.2922	1691.0859	0.191822	-367.148683	-367.138353	-367.137408	-367.184784	38.035	
C	-0.1033627258	 1.6061402709	 0.2022417296	-0.426218
C	 0.0371806198	 0.0770535945	 0.1310798061	 0.059254
C	-1.3491964219	-0.5855917213	 0.1124775021	-0.170079
C	-1.2895989952	-2.1190439902	 0.2525624283	-0.354252
C	-2.6056831996	-2.7425415663	 0.19963316	 0.294058
C	-3.7036861317	-3.2304568126	 0.1525036829	-0.446573
N	 0.8236879095	-0.4739035144	-0.9842725392	-0.068563
C	 0.9311306713	 0.226219295	-2.2570206953	-0.222424
C	 2.107799708	 0.0960201375	-1.3493976526	-0.226768
H	 0.8633397697	 2.1169376766	 0.1618276974	 0.116814
H	-0.7318132773	 1.9945872675	-0.605739833	 0.121696
H	-0.5777478807	 1.8852029378	 1.1478780297	 0.121324
H	 0.5631294455	-0.2541900395	 1.0376284082	 0.081769
H	-1.9591118988	-0.1701604701	 0.9220272315	 0.102855
H	-1.8566715651	-0.3286826407	-0.8252295446	 0.108495
H	-0.6472470948	-2.5184675748	-0.539117548	 0.148158
H	-0.8008404471	-2.3791596819	 1.2012307519	 0.121054
H	-4.6666018568	-3.6752295772	 0.1115596968	 0.188801
H	 0.8433843929	-0.3956833063	-3.1439583376	 0.115826
H	 0.4978134356	 1.2183877471	-2.3585684536	 0.110741
H	 2.4466244249	 1.0023498251	-0.8510179739	 0.108591
H	 2.8968936377	-0.6213631165	-1.5606569268	 0.115444
46.3615	61.3991	107.7113	121.9131	209.9457	234.5665	290.7622	292.0268	349.5015	360.5482	459.106	509.7479	551.8572	608.4758	630.5158	690.9367	781.8587	819.7087	886.7853	910.8887	940.9966	956.8567	981.0779	1031.1598	1034.8162	1083.9751	1110.3097	1117.8273	1121.155	1147.6681	1165.509	1181.0815	1216.6682	1273.0085	1308.8319	1333.0539	1346.7554	1375.6711	1386.1235	1406.4704	1473.2974	1484.1787	1488.8135	1495.985	1509.612	1525.0466	2236.7444	3005.5388	3018.681	3035.6451	3040.4938	3068.6086	3087.1652	3093.8532	3104.8514	3108.7217	3109.8711	3171.5079	3189.454	3508.51
CC(CCC#C)N1CC1	C[C@@H](CCC#C)N1CC1	
InChI=1S/C8H13N/c1-3-4-5-8(2)9-6-7-9/h1,8H,4-7H2,2H3	InChI=1S/C8H13N/c1-3-4-5-8(2)9-6-7-9/h1,8H,4-7H2,2H3/t8-/m0/s1
