21
gdb 26264	3.35292	1.07648	0.99038	0.2793	92.54	-0.2366	0.0036	0.2402	1323.5036	0.18424	-350.034714	-350.026016	-350.025072	-350.068341	33.58	
C	 0.0327053345	 1.5551235012	-0.014815347	-0.381157
C	-0.0025538741	 0.0172883953	 0.041314722	-0.0814
C	 0.8037184084	-0.5098937801	 1.2418192123	-0.381272
C	-1.4264542767	-0.5161911501	 0.0375917809	 0.34912
C	-2.3185378321	-0.2203243753	 1.0752617822	-0.190675
C	-3.6202872151	-0.711840893	 1.0648946299	-0.091257
C	-4.0596945267	-1.5128461522	 0.0126032646	-0.125651
C	-3.184654789	-1.8157072673	-1.0262081499	-0.088024
C	-1.8824316421	-1.3204802048	-1.0099649988	-0.220715
H	 1.0653367942	 1.9162538437	-0.0684240295	 0.109441
H	-0.5071178818	 1.9319938557	-0.888682374	 0.117267
H	-0.4270001686	 1.995799578	 0.8763215094	 0.115018
H	 0.4818459747	-0.3562770141	-0.8696909485	 0.074095
H	 0.3789269912	-0.1618717705	 2.1894846119	 0.115023
H	 0.8129814185	-1.6037624856	 1.2630523143	 0.117269
H	 1.8404160556	-0.1596842187	 1.1946462033	 0.109456
H	-1.9936370902	 0.4022860372	 1.9033123277	 0.088936
H	-4.2937739309	-0.4689109324	 1.8806977101	 0.09225
H	-5.0744709125	-1.8965744852	 0.0036157238	 0.092984
H	-3.5136632935	-2.4384514229	-1.8520622766	 0.092239
H	-1.206481744	-1.5623646389	-1.825442498	 0.087053
43.3557	127.4633	206.4919	227.1846	260.9389	303.4632	318.3702	415.3954	461.3109	549.6202	563.964	630.8064	720.2962	749.267	786.4601	865.7788	898.1068	923.5548	929.5462	953.9939	963.3456	986.6288	1013.8428	1048.7459	1070.0182	1107.8171	1123.2573	1173.2849	1181.6264	1205.6667	1233.6199	1309.2014	1344.5018	1347.1744	1379.9485	1396.6403	1418.6423	1482.9706	1486.0779	1489.1701	1501.1645	1507.0742	1528.5923	1623.1364	1644.3361	3019.8006	3028.3828	3032.5624	3094.1959	3100.8492	3106.4586	3108.6278	3160.2103	3164.2471	3175.3758	3183.2676	3196.2297
CC(C)C1=CC=CC=C1	CC(C)c1ccccc1	
InChI=1S/C9H12/c1-8(2)9-6-4-3-5-7-9/h3-8H,1-2H3	InChI=1S/C9H12/c1-8(2)9-6-4-3-5-7-9/h3-8H,1-2H3
