15
gdb 5297	4.82139	1.6812	1.2563	2.4727	69.44	-0.2232	-0.031	0.1923	924.7204	0.119911	-362.730084	-362.722988	-362.722044	-362.761523	26.48	
C	-0.011782317	 1.5105933738	 0.0083146613	-0.50431
C	 0.0603583712	-0.001228459	 0.0016276144	 0.423652
O	 1.0995485422	-0.616146991	-0.0087117511	-0.320184
N	-1.1728745676	-0.6802715666	 0.0088063652	-0.068691
C	-2.4548428142	-0.1368750021	 0.0210721879	-0.076539
C	-3.3510124577	-1.1649381715	 0.0242571828	-0.171931
C	-2.6037677368	-2.3901816807	 0.0135715704	-0.179289
C	-1.2795771645	-2.066187026	 0.0042810476	-0.05586
H	 1.0068392145	 1.8958381878	 0.0016814849	 0.15463
H	-0.5482696738	 1.8825143312	-0.8697504404	 0.152442
H	-0.5340140691	 1.8753227035	 0.8979251997	 0.15247
H	-2.6063737627	 0.9285701011	 0.0264195268	 0.128416
H	-4.4257779923	-1.0646247759	 0.0332007444	 0.106707
H	-3.0086854452	-3.3906745261	 0.012930845	 0.107959
H	-0.382860747	-2.6609588188	-0.0051669887	 0.150527
100.8303	156.4269	169.3433	237.4966	397.8953	525.0245	567.6286	616.7495	641.4738	642.9355	703.1391	773.4615	846.8809	876.7303	883.325	936.9527	986.3323	1053.194	1056.6744	1089.6304	1105.2565	1164.4563	1283.7139	1335.9972	1350.0531	1395.9607	1437.5114	1474.0972	1482.404	1509.6855	1593.3129	1811.0778	3052.1648	3117.3036	3168.4261	3243.9017	3257.0169	3290.1573	3300.3981
CC(=O)N1C=CC=C1	CC(=O)n1cccc1	
InChI=1S/C6H7NO/c1-6(8)7-4-2-3-5-7/h2-5H,1H3	InChI=1S/C6H7NO/c1-6(8)7-4-2-3-5-7/h2-5H,1H3
