18
gdb 66565	2.33332	2.24038	1.63024	1.1772	74.07	-0.2232	0.0637	0.2869	902.16	0.147426	-401.863972	-401.856472	-401.855528	-401.895346	30.3	
C	-0.0358526899	 1.4618742757	 0.044792953	-0.533449
C	 0.066841191	-0.0283320173	 0.0521450605	 0.289933
C	 0.2834973912	-1.0235059393	-1.0269337518	-0.115272
C	 0.6268399196	-2.0769913039	 0.0541038781	-0.125513
C	-0.8756907069	-2.0951082523	 0.4672120345	 0.009829
C	-0.5446959778	-1.5878267406	 1.8793115585	-0.3154
C	 0.6706799459	-0.949112512	 1.1525469469	 0.343311
O	 1.8646957546	-0.599528646	 1.7641638934	-0.480601
N	-1.0826344905	-0.8674083725	-0.4199256889	-0.195362
H	 0.9549388436	 1.9224591704	 0.1289344691	 0.121197
H	-0.4957121907	 1.8087742974	-0.8848355183	 0.138947
H	-0.655371801	 1.8205116781	 0.8756109422	 0.120525
H	 0.4726499449	-0.9253972552	-2.0893954611	 0.094279
H	 1.3117354661	-2.9196269511	 0.0254695672	 0.079132
H	-1.5840846774	-2.8955597754	 0.2645694609	 0.079796
H	-1.2689201011	-0.9438717267	 2.387556641	 0.097092
H	-0.2256683038	-2.404839276	 2.5336237511	 0.107932
H	 1.7249083421	 0.2076677666	 2.2724015737	 0.283624
187.0045	190.8209	205.3397	232.72	330.0477	371.8858	445.8948	549.7349	593.4172	628.7016	751.1976	767.2343	780.544	817.1437	853.6423	875.6295	902.2174	945.5981	956.2902	997.6185	1005.7828	1018.8294	1050.5895	1086.7908	1095.2217	1126.6856	1172.5486	1188.6616	1210.1545	1238.1248	1254.1482	1260.7034	1312.9889	1367.3374	1395.4315	1440.2921	1480.0564	1484.6047	1491.788	3024.0582	3047.1651	3085.072	3110.7188	3112.1851	3135.839	3158.8884	3181.9852	3793.1225
CC12C3C4C(CC14O)N23	C[C@@]12[C@H]3[C@@H]4[C@@H](C[C@]14O)N23	
InChI=1S/C7H9NO/c1-6-5-4-3(8(5)6)2-7(4,6)9/h3-5,9H,2H2,1H3	InChI=1S/C7H9NO/c1-6-5-4-3(8(5)6)2-7(4,6)9/h3-5,9H,2H2,1H3/t3-,4+,5-,6-,7-,8?/m1/s1
