17
gdb 62984	2.31165	1.63048	1.28845	3.3724	72.18	-0.2516	0.0054	0.257	1032.4317	0.134833	-417.969527	-417.961027	-417.960083	-418.002239	32.398	
C	-0.1249799044	 1.5920490072	-0.1026795372	-0.469003
C	 0.0287323546	 0.081745597	-0.0430977073	 0.387153
O	-1.2111052936	-0.5567168729	 0.169818614	-0.464519
C	 0.7297871985	-0.6476878764	-1.1881281186	-0.046571
C	 2.1650283639	-0.3260539389	-1.2701803084	-0.260925
N	 1.7382739538	-1.3302695089	-0.2757477333	-0.131015
C	 1.1497231707	-0.5551190735	 0.8823557553	-0.192043
C	 2.0653433519	 0.3239997178	 1.5933855302	 0.301055
N	 2.7737762781	 1.0587660587	 2.1379561218	-0.337597
H	 0.8231976313	 2.0978295505	-0.2954883664	 0.141174
H	-0.8339759242	 1.8573365248	-0.892479603	 0.135201
H	-0.5080372938	 1.9756856	 0.8509143422	 0.124941
H	-1.6809148973	-0.0853038678	 0.8666885935	 0.286488
H	 0.1897263721	-1.2005990889	-1.9484837158	 0.115456
H	 2.7262925027	-0.7719892861	-2.0848254539	 0.137818
H	 2.5508322837	 0.6314095411	-0.9306385784	 0.136513
H	 0.6890726921	-1.2597798536	 1.5768833154	 0.135872
116.8803	134.7895	209.5175	226.5663	268.7261	300.3204	382.6467	388.9408	408.8731	483.379	553.5837	564.0993	653.9431	754.5925	790.2281	834.0368	894.5534	973.6731	981.8235	998.8314	1030.1071	1058.8659	1115.6006	1118.3308	1134.6992	1164.6033	1178.5501	1217.8028	1242.1942	1323.5202	1341.4303	1404.4656	1416.2808	1484.723	1492.5574	1506.9751	2344.521	3033.0729	3102.1783	3102.3704	3120.11	3134.7677	3183.0958	3209.7546	3804.4454
CC1(O)C2CN2C1C#N	C[C@@]1(O)[C@H]2CN2[C@H]1C#N	
InChI=1S/C6H8N2O/c1-6(9)4(2-7)8-3-5(6)8/h4-5,9H,3H2,1H3	InChI=1S/C6H8N2O/c1-6(9)4(2-7)8-3-5(6)8/h4-5,9H,3H2,1H3/t4-,5+,6-,8?/m0/s1
