19
gdb 77707	3.14599	1.30582	1.09323	1.041	76.36	-0.2439	0.0533	0.2971	1149.0183	0.159873	-419.132634	-419.124294	-419.12335	-419.165582	32.518	
O	 0.5403773797	 0.8013535083	-0.5250387149	-0.427009
C	 0.0908412206	-0.4716537015	-0.1234512086	-0.018431
C	 0.1897417226	-0.8387164643	 1.3743174699	 0.309781
C	 1.3875218553	-1.2153670565	 2.1443147987	-0.315178
N	 0.7260743071	 0.0905918092	 2.3681650016	-0.360843
C	-1.2582687342	-1.3465411744	 1.3953121638	-0.371798
C	-1.4224063154	-0.735203861	-0.006118231	 0.311461
C	-2.4784545245	 0.1727359232	-0.5099896151	-0.309316
N	-2.3393481942	-1.2000400498	-1.035979727	-0.370406
H	-0.0051141635	 1.456074986	-0.0734031532	 0.284174
H	 0.601816331	-1.1889076166	-0.7758571971	 0.096596
H	 1.3046942357	-1.9136981634	 2.9730559878	 0.120804
H	 2.3451485278	-1.2320684987	 1.6287346909	 0.11509
H	 1.2537463416	 0.8125995917	 1.8764874753	 0.228339
H	-1.3450504044	-2.4368436076	 1.3943907686	 0.114604
H	-1.8877402345	-0.9324188236	 2.1861074914	 0.117947
H	-3.3715084859	 0.3482566574	 0.0839646582	 0.124428
H	-2.17827213	 1.0037178362	-1.1448453071	 0.115297
H	-1.8857214147	-1.1763584545	-1.9472229821	 0.23446
54.6002	207.0034	222.1266	234.8707	263.2219	329.5593	366.5593	378.4827	448.6497	512.6628	575.3012	709.5087	797.6695	813.3401	851.5047	887.5128	905.6152	933.7729	945.5473	973.3754	989.2677	1036.6009	1056.1061	1075.0426	1107.848	1110.0957	1136.8569	1145.0296	1212.1091	1238.3174	1247.1019	1259.8444	1278.8957	1295.4329	1305.6941	1391.8457	1422.2155	1430.3335	1477.3884	1504.5156	1516.0718	3047.9318	3060.8206	3099.0246	3100.597	3116.8103	3185.9095	3186.6637	3453.7004	3483.6651	3793.5032
OC1C2(CN2)CC11CN1	O[C@H]1[C@]2(CN2)C[C@]21CN2	
InChI=1S/C6H10N2O/c9-4-5(2-7-5)1-6(4)3-8-6/h4,7-9H,1-3H2	InChI=1S/C6H10N2O/c9-4-5(2-7-5)1-6(4)3-8-6/h4,7-9H,1-3H2/t5-,6-/m1/s1
