16
gdb 82718	2.45547	1.97197	1.55125	2.4212	67.74	-0.2438	-0.0314	0.2124	896.9443	0.12524	-437.836977	-437.829908	-437.828963	-437.868428	27.673	
O	 0.0415126879	 1.4633655244	 0.0546798013	-0.419259
C	 0.01569183	 0.0650893835	-0.0368888159	 0.117529
C	-1.3893290828	-0.555007802	-0.0350385759	-0.012923
C	-2.4113967998	 0.1762025319	-0.9202977735	-0.250499
C	-1.7713223907	-0.5427426778	-2.1329839154	-0.130509
N	-0.9995940881	-1.4926691781	-1.1918346203	-0.164333
C	 0.2607096173	-0.6339960958	-1.4076180779	-0.203572
C	-0.4436802607	 0.0824864055	-2.5558879915	 0.448089
O	-0.0757685367	 0.7307585151	-3.4913045492	-0.310322
H	 0.9543161389	 1.7673137943	 0.0144073152	 0.294963
H	 0.6437990566	-0.4087004286	 0.7292687261	 0.090802
H	-1.74021846	-0.9937076513	 0.8997847956	 0.083469
H	-3.4242599581	-0.1903373914	-0.7425483238	 0.121975
H	-2.4099488791	 1.2673543371	-0.9091291745	 0.13607
H	-2.4155085185	-0.9564801401	-2.9107160151	 0.102354
H	 1.2237373638	-1.1107732166	-1.5983147353	 0.096166
117.2332	159.816	254.9846	260.4401	391.3003	456.6596	545.9956	562.9756	604.8772	704.105	764.6545	828.2043	871.0898	877.7688	909.0258	921.8897	963.6246	979.7064	1021.2775	1059.9054	1078.5428	1113.1661	1152.03	1157.6558	1170.4664	1206.0464	1222.5381	1236.8332	1257.488	1298.015	1335.9523	1351.6809	1422.3588	1480.285	1891.2805	3011.5095	3076.1405	3099.5253	3101.0997	3104.9368	3134.8494	3816.213
OC1C2CC3N2C1C3=O	O[C@H]1[C@H]2C[C@@H]3N2[C@H]1C3=O	
InChI=1S/C6H7NO2/c8-5-2-1-3-6(9)4(5)7(2)3/h2-5,8H,1H2	InChI=1S/C6H7NO2/c8-5-2-1-3-6(9)4(5)7(2)3/h2-5,8H,1H2/t2-,3+,4-,5+/m1/s1
