21
gdb 99852	1.74437	1.4776	1.20839	1.8443	79.96	-0.254	0.0401	0.2941	1207.9157	0.178944	-424.191648	-424.180745	-424.179801	-424.227102	40.659	
C	-0.0381908585	 1.5406584076	-0.1409215827	-0.418324
C	-0.0766797543	 0.0320330751	 0.0886825023	 0.109832
O	 0.3110912425	-0.6734360862	-1.0911203783	-0.450805
C	 0.7407852468	-0.4699144654	 1.3237674775	 0.024189
C	 0.0582755291	-0.0241548045	 2.6342404239	-0.433657
C	 0.7976194072	-2.0336064176	 1.2809715266	-0.077391
O	-0.4646297009	-2.6173148248	 1.0348198146	-0.429141
C	 2.1178913101	 0.0186350401	 1.2501070012	 0.323839
C	 3.2619758239	 0.381206288	 1.1557639262	-0.491662
H	 0.9886757314	 1.8881219628	-0.2933949011	 0.125358
H	-0.6245286595	 1.78333181	-1.0310562272	 0.124477
H	-0.4581672942	 2.0912481641	 0.7053775089	 0.122076
H	-1.1108389117	-0.27960063	 0.2630356546	 0.098108
H	 1.2325090039	-0.4495096872	-1.2711438037	 0.285545
H	-0.9254038656	-0.4973194529	 2.7065102423	 0.135514
H	 0.6543253353	-0.3349656478	 3.4965155061	 0.125025
H	-0.0641408576	 1.0599484565	 2.6866022349	 0.12203
H	 1.5336219121	-2.3465666172	 0.5329962143	 0.096982
H	 1.1347123685	-2.3972579972	 2.2566470661	 0.111837
H	-0.6194865685	-2.5252526639	 0.0874290736	 0.297881
H	 4.2705144899	 0.7095743906	 1.09608842	 0.198286
61.3321	96.7154	140.568	156.5323	209.8173	225.4117	245.2416	274.9136	345.0401	349.304	378.8015	428.3753	461.5557	503.0577	535.9486	558.6598	623.493	628.6788	646.9926	691.3478	878.8153	908.9383	923.0272	944.7859	1027.2324	1075.2538	1091.695	1105.0805	1122.3303	1180.3881	1202.5662	1265.7647	1307.423	1345.6843	1392.3082	1403.574	1411.8803	1417.7726	1437.4648	1487.4382	1492.2066	1495.8286	1496.2699	1503.6424	2219.5413	3037.9387	3041.9115	3047.0854	3069.0139	3089.8411	3115.1158	3120.8786	3121.7267	3129.6785	3496.8835	3780.946	3797.4511
CC(O)C(C)(CO)C#C	C[C@@H](O)[C@@](C)(CO)C#C	
InChI=1S/C7H12O2/c1-4-7(3,5-8)6(2)9/h1,6,8-9H,5H2,2-3H3	InChI=1S/C7H12O2/c1-4-7(3,5-8)6(2)9/h1,6,8-9H,5H2,2-3H3/t6-,7-/m1/s1
