21
gdb 115210	4.09342	0.93805	0.7987	4.4068	79.4	-0.2337	0.06	0.2937	1456.5655	0.185094	-420.468784	-420.459506	-420.458562	-420.50313	34.492	
C	 0.1223318044	 1.5633938442	 0.015247223	-0.393828
C	 0.0100088858	 0.0352485638	 0.0002440605	-0.181734
C	-1.4296295961	-0.4973057463	 0.0064759288	 0.020717
C	-2.200438931	-0.1450010467	-1.2712341366	-0.161405
N	-3.5198069668	-0.7517231278	-1.2368650894	-0.342841
C	-3.797256473	-1.9954224717	-0.7095144544	 0.430001
O	-4.8573372776	-2.5664451382	-0.9031297095	-0.418593
N	-2.8144269437	-2.5160999934	 0.1046874703	-0.344825
C	-1.451355023	-2.0201934519	 0.1780458226	-0.168196
H	 1.1693398185	 1.874838439	 0.0769190807	 0.118029
H	-0.2988161911	 2.0154010965	-0.8880879253	 0.121535
H	-0.402972602	 1.9900379384	 0.8767473407	 0.120135
H	 0.5394412456	-0.3644726793	-0.8752341186	 0.099544
H	 0.5304469617	-0.3685599346	 0.8779121365	 0.099138
H	-1.9722171682	-0.0587930461	 0.8542924403	 0.092239
H	-2.321611535	 0.9389912925	-1.360044136	 0.110577
H	-1.6170590801	-0.476811544	-2.1473535648	 0.097432
H	-4.2103058763	-0.452422995	-1.9063199413	 0.247491
H	-3.0050181755	-3.4639046114	 0.3872317938	 0.247705
H	-0.8059453091	-2.4809945411	-0.588878376	 0.098108
H	-1.0300799476	-2.2907936766	 1.1527897347	 0.108767
75.8481	96.3708	114.5779	178.3765	208.435	257.6034	348.3111	415.8999	419.3707	459.6359	484.9279	550.5563	584.7129	723.384	762.5173	776.0527	837.0646	910.8343	937.4812	950.6168	1000.387	1036.2396	1097.0279	1124.5674	1158.3624	1168.6701	1170.1489	1235.2837	1272.4219	1279.8896	1301.423	1328.4325	1374.5474	1388.0839	1406.7017	1414.2635	1420.6866	1469.6401	1479.4959	1486.9637	1501.7594	1507.9819	1526.9537	1534.5182	1804.7332	2951.1518	2959.3656	3014.2515	3026.7455	3036.7579	3046.4786	3055.5191	3070.7121	3104.1034	3108.7029	3644.258	3646.9362
CCC1CNC(=O)NC1	CCC1CNC(=O)NC1	
InChI=1S/C6H12N2O/c1-2-5-3-7-6(9)8-4-5/h5H,2-4H2,1H3,(H2,7,8,9)	InChI=1S/C6H12N2O/c1-2-5-3-7-6(9)8-4-5/h5H,2-4H2,1H3,(H2,7,8,9)
