18
gdb 68658	5.24095	0.89179	0.87236	2.9367	75.2	-0.2577	0.0181	0.2758	1346.4768	0.146857	-439.02968	-439.021176	-439.020232	-439.063599	32.04	
O	-0.084369273	 1.2967366632	 0.0234831295	-0.467673
C	 0.0164860449	-0.0753637743	-0.0104878776	 0.40601
C	 0.6492396323	-1.0374697665	 1.051874095	-0.347511
C	 0.0359188922	-1.9210216594	-0.0516380416	 0.4424
C	-1.2243740847	-1.0008659238	-0.0335080881	-0.321266
C	 0.6585938093	-0.9739335714	-1.1200002366	-0.355122
O	 0.0951307701	-3.3098675005	 0.0037848766	-0.237899
C	-0.5159661174	-3.9919836855	-0.9912940467	 0.109325
N	-0.4769239649	-5.2522417892	-0.9974330941	-0.442223
H	 0.8032605329	 1.6707072045	 0.0380474339	 0.288044
H	 1.7397121296	-1.0458471019	 1.1272013548	 0.096907
H	 0.1652364936	-1.07355607	 2.0302353933	 0.10609
H	-1.8318458136	-1.0251642825	 0.8737799773	 0.107375
H	-1.8342802124	-0.9682691105	-0.9396838786	 0.098034
H	 0.1812946666	-0.9458679143	-2.1027954379	 0.097588
H	 1.7495597118	-0.9738693268	-1.189533015	 0.098015
H	-1.0100759884	-3.3468356807	-1.7273914525	 0.091047
H	-0.9838563289	-5.6101151304	-1.8044605317	 0.230862
43.3292	79.4864	140.3089	255.6753	292.9774	336.6056	429.366	440.6702	469.5668	558.0669	560.6354	649.1939	738.2063	752.6478	799.3764	825.6393	944.8881	956.7558	974.2175	1044.2894	1047.5899	1050.3943	1073.5793	1106.8421	1121.2675	1132.3198	1140.199	1153.1217	1175.835	1195.4739	1286.6464	1294.5224	1328.5936	1396.8916	1422.5586	1492.6825	1495.2979	1567.857	1746.9647	3049.4533	3052.835	3057.4439	3066.0321	3124.0037	3131.0291	3134.2247	3517.2294	3809.8042
OC12CC(C1)(C2)OC=N	O[C@@]12C[C@@](C1)(C2)O[CH][NH]	
InChI=1S/C6H9NO2/c7-4-9-6-1-5(8,2-6)3-6/h4,7-8H,1-3H2	InChI=1S/C6H9NO2/c7-4-9-6-1-5(8,2-6)3-6/h4,7-8H,1-3H2/t5-,6+
