16
gdb 44766	2.72284	1.69435	1.24555	3.8434	75.52	-0.2404	0.0151	0.2555	1001.9446	0.125112	-400.723825	-400.716416	-400.715472	-400.755432	29.697	
O	-0.0189205113	 0.0328718235	 0.0612378813	-0.359584
C	 0.0051718966	 1.2301774102	-0.0263656437	 0.404015
N	-1.0652227227	 2.1199461636	-0.1160898301	-0.325859
C	-0.4186600963	 3.442856319	 0.0273381776	-0.033151
C	 0.7059402394	 3.3021845528	-1.0262293349	-0.246021
C	 1.2132136716	 2.2136586205	-0.0071116984	 0.06935
C	 0.6686299401	 3.1966952934	 1.1119927583	-0.260285
C	 2.539252686	 1.6689641391	-0.0122692236	 0.088681
C	 3.6577446621	 1.2289203351	-0.0176293476	-0.338049
H	-1.9167679623	 1.8972101244	 0.3795553565	 0.252285
H	-1.1176263672	 4.2757276591	 0.046535581	 0.091875
H	 0.4205318432	 2.9677057928	-2.0246900548	 0.120999
H	 1.3794031477	 4.1593791301	-1.06555064	 0.118451
H	 1.3422189288	 4.0401717415	 1.2746928789	 0.118751
H	 0.3550037113	 2.7548713078	 2.0607202011	 0.114386
H	 4.6407686531	 0.8275102772	-0.0222320216	 0.184156
132.5923	145.3905	210.9151	384.2521	422.5719	472.8289	493.44	508.9388	536.8627	621.7089	634.8262	644.0919	670.1532	744.2688	781.1658	850.7499	916.6869	930.3072	944.378	983.6122	1001.6374	1055.8465	1082.2458	1151.4395	1163.4509	1177.2199	1216.5733	1229.73	1297.4634	1324.4808	1376.3263	1479.4571	1515.6387	1874.0779	2243.5681	3067.8591	3080.6668	3137.4157	3148.9219	3151.4053	3503.1471	3609.3014
O=C1NC2CC1(C2)C#C	O=C1N[C@@H]2C[C@]1(C2)C#C	
InChI=1S/C7H7NO/c1-2-7-3-5(4-7)8-6(7)9/h1,5H,3-4H2,(H,8,9)	InChI=1S/C7H7NO/c1-2-7-3-5(4-7)8-6(7)9/h1,5H,3-4H2,(H,8,9)/t5-,7+
