16
gdb 126401	4.41838	0.96723	0.83831	2.5751	74.97	-0.2797	-0.0602	0.2195	1358.5002	0.12505	-434.114302	-434.106022	-434.105078	-434.148157	29.188	
C	 0.1100667636	 1.5174936499	 0.1476080625	-0.379781
C	-0.1088921015	 0.0223142295	-0.1354144312	-0.282354
C	 0.6426431737	-0.4469607614	-1.336817252	 0.371243
N	 0.0515596511	-0.915285085	-2.4160461899	-0.267879
N	 1.106335528	-1.2057173181	-3.2361040256	-0.022668
C	 0.9737174937	-1.7423549457	-4.5272976231	 0.192389
O	-0.0645023062	-2.0052248653	-5.0564317397	-0.244461
C	 2.2736485639	-0.8899512466	-2.5930086636	 0.029983
N	 2.026706821	-0.4131595331	-1.4059452219	-0.305151
H	 1.1732892595	 1.7334761968	 0.2814652415	 0.13999
H	-0.2610402177	 2.1308349439	-0.6789945349	 0.126331
H	-0.4197886248	 1.8149486314	 1.0567718445	 0.11926
H	 0.2240834584	-0.5628811032	 0.7299428166	 0.125158
H	-1.1690869735	-0.1933621652	-0.2904997613	 0.130358
H	 1.9696351265	-1.8866041298	-4.9848726328	 0.107134
H	 3.2447161543	-1.034577408	-3.044184369	 0.16045
44.597	123.3195	153.9827	176.24	230.6678	265.9393	372.5226	429.3533	518.6741	646.2924	658.2037	762.1976	801.0258	831.9102	871.843	968.2334	994.182	1021.4808	1022.3431	1080.0566	1102.8791	1215.5261	1271.7334	1287.7755	1334.9945	1360.7745	1394.6037	1407.8724	1450.968	1474.2006	1496.0668	1497.2756	1516.7175	1589.3015	1856.0364	2973.3642	3042.4602	3045.6993	3101.0834	3117.5518	3128.9323	3251.7132
CCC1=NN(C=O)C=N1	CCc1nn(C=O)cn1	
InChI=1S/C5H7N3O/c1-2-5-6-3-8(4-9)7-5/h3-4H,2H2,1H3	InChI=1S/C5H7N3O/c1-2-5-6-3-8(4-9)7-5/h3-4H,2H2,1H3
