21
gdb 116520	2.84335	1.24297	0.97738	3.6253	74.99	-0.2492	0.0738	0.323	1265.2516	0.183604	-461.358009	-461.349076	-461.348132	-461.391853	33.645	
O	 0.0258884367	 1.4501457365	-0.0231410293	-0.419346
C	 0.0502882876	 0.045294662	 0.0704926194	-0.060618
C	-1.3547736724	-0.5579906737	 0.0560246598	 0.181033
O	-2.0376137586	-0.1609307969	 1.2127952945	-0.244135
C	-3.0204085906	-1.0438813418	 1.736932714	-0.066101
C	-4.0047536338	-1.6170841693	 0.7031215319	-0.229411
C	-4.2964936727	-0.6732147606	-0.4729013415	-0.196834
C	-3.1772768117	-0.6569647653	-1.5200422907	-0.068417
O	-1.9675595888	-0.0417354365	-1.1076127598	-0.263272
H	-0.6160899694	 1.6572159109	-0.7127704153	 0.291297
H	 0.6214687235	-0.4117839087	-0.7541268596	 0.083723
H	 0.5386800615	-0.215589774	 1.0139345088	 0.109754
H	-1.2922170206	-1.6593020401	-0.0038934139	 0.054732
H	-2.5386136804	-1.8674099041	 2.2865182244	 0.093336
H	-3.5600662394	-0.4374663199	 2.471044777	 0.114802
H	-3.6259109283	-2.565805428	 0.3027672131	 0.101225
H	-4.9326764822	-1.8655398653	 1.2309011821	 0.103523
H	-5.2073153485	-1.0083471669	-0.9840175774	 0.099383
H	-4.4814654487	 0.3470068797	-0.1188448327	 0.117135
H	-2.97330265	-1.6917636627	-1.8441590777	 0.088651
H	-3.4951553232	-0.0928194452	-2.4020335871	 0.109541
84.7616	95.1281	146.9554	181.2239	285.4198	307.3179	332.726	354.7162	402.7048	438.4856	545.3667	605.7312	685.9377	796.7686	821.977	848.7542	919.7598	941.1694	971.4309	984.6234	1023.4788	1061.8114	1090.5922	1114.268	1116.9085	1157.1962	1163.0429	1225.5802	1238.638	1259.3173	1301.5033	1311.7439	1364.8861	1372.3902	1375.6063	1388.8061	1400.9457	1419.3474	1423.1472	1450.0259	1471.6316	1489.948	1496.0184	1501.3632	1511.6669	2944.7347	2964.1531	2975.0398	2984.2173	3026.8203	3032.4452	3058.1675	3079.7125	3080.1368	3085.4902	3088.6318	3792.6888
OCC1OCCCCO1	OCC1OCCCCO1	
InChI=1S/C6H12O3/c7-5-6-8-3-1-2-4-9-6/h6-7H,1-5H2	InChI=1S/C6H12O3/c7-5-6-8-3-1-2-4-9-6/h6-7H,1-5H2
