16
gdb 29618	3.02568	1.29179	0.90529	2.2659	75.89	-0.1778	0.0364	0.2142	1217.935	0.125577	-434.093517	-434.084689	-434.083744	-434.127117	32.508	
O	 0.1201682538	 1.3367953018	 0.2736977118	-0.467406
C	 0.0825736835	-0.0118441603	 0.0319981037	 0.200736
C	 0.0648098908	-0.7105824588	-1.151688039	-0.203562
N	 0.027474469	-2.048584726	-0.8215358934	-0.251437
C	 0.0204225351	-2.2111957344	 0.5409388829	-0.14427
C	 0.0547946873	-0.95056044	 1.1017998392	 0.281796
N	 0.0642700388	-0.556800181	 2.441886004	-0.399431
C	 0.0397805993	-1.3718436613	 3.5337636613	 0.076577
N	 0.0035259825	-2.6493079955	 3.4580775277	-0.471792
H	 0.1368539714	 1.8090782629	-0.5632501633	 0.29758
H	 0.075699413	-0.3744081766	-2.1751737326	 0.110266
H	 0.0047107564	-2.8010018997	-1.4842175217	 0.261515
H	-0.0071374326	-3.1715739001	 1.0197323415	 0.155785
H	 0.09256015	 0.4370442085	 2.5965686555	 0.258813
H	 0.0551319839	-0.793753738	 4.4657339927	 0.080588
H	-0.0089772322	-3.0490474015	 4.3930185998	 0.214242
73.6492	126.1896	169.8394	190.2915	250.9286	265.7914	321.985	408.8618	464.3551	473.7457	595.4893	598.671	613.278	697.8555	701.1324	764.1907	790.844	843.2872	916.6392	1026.1399	1059.1027	1089.1583	1146.1443	1161.1261	1237.7277	1239.7005	1288.7738	1361.3649	1409.6942	1459.528	1478.4038	1549.1553	1618.8291	1652.1426	1716.1052	3042.4773	3265.1058	3323.9023	3515.3385	3659.2794	3708.7102	3847.1196
OC1=CNC=C1NC=N	Oc1c[nH]cc1NC=N	
InChI=1S/C5H7N3O/c6-3-8-4-1-7-2-5(4)9/h1-3,7,9H,(H2,6,8)	InChI=1S/C5H7N3O/c6-3-8-4-1-7-2-5(4)9/h1-3,7,9H,(H2,6,8)
