16
gdb 47329	3.07796	1.18121	0.87844	3.7503	80.32	-0.2605	-0.0941	0.1664	1250.0567	0.125787	-400.807424	-400.799576	-400.798632	-400.84015	29.223	
O	 0.0108761638	-0.0456527923	 0.1320734537	-0.313926
C	-0.0276656538	 1.1600781488	 0.0038830955	 0.388167
C	-1.3303790691	 1.943301859	-0.065986893	-0.31175
C	-1.1991561306	 3.2009699767	-0.933876358	-0.234761
C	-0.0479460064	 4.0917171028	-0.4524765134	-0.296749
C	 1.2199581984	 3.2915369438	-0.2376130154	 0.163113
C	 1.222283135	 1.957204773	-0.0526358949	-0.229119
C	 2.4500478394	 4.0209206667	-0.2278907064	 0.239295
N	 3.4262661995	 4.6442869241	-0.2249335762	-0.317014
H	-2.1159725992	 1.2715292766	-0.4197048482	 0.132939
H	-1.591293102	 2.2264334009	 0.9643664418	 0.131202
H	-1.0107156403	 2.9063919421	-1.9732469216	 0.121445
H	-2.1347792382	 3.7677716693	-0.9298537253	 0.11609
H	 0.1487213257	 4.897664301	-1.1663158403	 0.137438
H	-0.3105021184	 4.5860777173	 0.4938509133	 0.13929
H	 2.1462124561	 1.4050964803	 0.0817126887	 0.134341
97.7146	125.2162	150.0784	248.9253	338.0387	392.825	427.5664	466.7718	521.0708	578.8747	598.4564	649.2254	758.0212	840.4904	871.8858	903.5731	947.4671	972.3544	1056.3033	1073.3259	1130.5174	1152.4707	1203.9183	1254.3248	1273.4981	1320.2334	1350.1751	1372.9765	1385.0441	1458.416	1474.6192	1495.6172	1659.3802	1781.5122	2334.3437	3013.4398	3016.3281	3040.5305	3080.0128	3089.7097	3108.0516	3200.9036
O=C1CCCC(=C1)C#N	O=C1CCCC(=C1)C#N	
InChI=1S/C7H7NO/c8-5-6-2-1-3-7(9)4-6/h4H,1-3H2	InChI=1S/C7H7NO/c8-5-6-2-1-3-7(9)4-6/h4H,1-3H2
