17
gdb 107549	2.3357	1.45577	1.11273	3.2612	68.8	-0.2502	-0.0303	0.2199	1118.3123	0.133798	-458.910986	-458.902282	-458.901338	-458.945034	31.445	
O	 0.0206899723	 1.4381242331	 0.1059054025	-0.409631
C	 0.026280153	 0.0266748088	-0.0725857814	-0.184752
C	-1.3567480382	-0.5443019313	-0.0680565124	 0.213578
C	-2.1099771383	-1.0167535189	 1.1714181102	-0.36195
C	-1.9251721615	-1.9438382543	 0.0150712943	 0.054094
O	-2.9066343467	-1.6996799182	-0.99601853	-0.282692
C	-2.3890433951	-0.3712165477	-1.2041433332	 0.004334
C	-3.361389066	 0.7648588299	-1.0089745358	 0.141198
O	-4.465788561	 0.6617029367	-0.542865931	-0.246709
H	-0.3861359181	 1.6213083583	 0.9598130459	 0.286904
H	 0.5078652171	-0.1392715016	-1.0425830026	 0.11763
H	 0.6404321532	-0.4786983711	 0.6891081418	 0.095839
H	-1.4689692437	-1.2072413847	 2.0278030995	 0.118649
H	-3.1055799387	-0.6483918676	 1.3994463307	 0.147609
H	-1.4583234104	-2.9212440455	 0.0427631067	 0.115205
H	-1.9041398921	-0.2858663932	-2.1868612819	 0.102345
H	-2.9287632562	 1.7514658173	-1.2957475235	 0.088349
73.8934	82.8452	104.1232	207.9883	243.395	293.5577	340.648	382.5791	433.1212	469.8702	681.0906	726.595	756.6572	847.6253	875.0713	922.807	938.6188	961.2281	1003.0249	1028.1509	1052.2329	1056.3396	1076.6078	1091.4103	1119.5967	1179.5587	1209.9677	1256.9099	1287.7521	1349.3839	1364.4282	1396.8501	1415.0558	1429.2246	1477.2138	1500.3569	1833.5038	2868.2594	2983.7135	3015.2205	3067.4353	3118.8532	3187.7373	3213.0657	3806.9196
OCC12CC1OC2C=O	OC[C@]12C[C@H]1O[C@H]2C=O	
InChI=1S/C6H8O3/c7-2-5-6(3-8)1-4(6)9-5/h2,4-5,8H,1,3H2	InChI=1S/C6H8O3/c7-2-5-6(3-8)1-4(6)9-5/h2,4-5,8H,1,3H2/t4-,5+,6-/m1/s1
