18
gdb 18127	3.7153	2.06527	1.5892	1.6939	65.84	-0.2426	0.0737	0.3163	835.4823	0.157316	-384.949853	-384.94331	-384.942366	-384.980771	25.48	
C	 0.1222324775	 1.214600601	 0.3092634338	-0.084258
C	 1.4315638226	 1.8847355244	-0.1278487679	-0.240438
C	 2.2439162617	 0.693232843	-0.6615658112	-0.043065
C	 3.0753800661	-0.0708306044	 0.3882348151	-0.097531
O	 2.9217689875	-1.446556756	 0.0783936768	-0.242749
C	 1.5642215402	-1.6225154978	-0.2959055978	-0.104314
C	 1.1486932529	-0.3401228603	-1.0581108854	 0.092633
O	-0.1088411503	 0.1875446349	-0.6483171557	-0.261738
H	 0.2176173835	 0.7935992925	 1.3232117636	 0.091102
H	-0.7438209967	 1.8818674912	 0.3013397033	 0.110866
H	 1.2364901205	 2.605275106	-0.927363676	 0.109534
H	 1.930967705	 2.4123317204	 0.6901934357	 0.103436
H	 2.8691432334	 0.9640186974	-1.5138455186	 0.081674
H	 4.1425328058	 0.1630383021	 0.361046494	 0.10962
H	 2.7028857845	 0.1430813513	 1.4051649148	 0.084351
H	 1.4989129297	-2.5334114751	-0.8957633182	 0.108717
H	 0.9111894667	-1.7341235662	 0.5847509004	 0.09634
H	 1.0858830394	-0.5146370045	-2.1352732367	 0.085821
86.6439	177.7807	262.521	351.3064	416.4054	581.1207	608.1563	657.5523	718.9659	828.1565	852.1825	919.7775	940.2863	958.9032	979.4738	985.7428	1021.2413	1050.9599	1064.9114	1113.6391	1121.1174	1148.0083	1211.8125	1215.5454	1238.8754	1256.4798	1280.146	1297.1116	1319.6021	1331.6974	1350.4512	1368.4798	1394.9366	1400.3773	1487.3304	1504.2096	1513.3179	1525.6756	2952.1103	2972.9947	2981.5837	3055.1459	3068.2008	3086.809	3088.875	3097.5418	3101.7208	3108.0108
C1CC2COCC2O1	C1C[C@H]2COC[C@H]2O1	
InChI=1S/C6H10O2/c1-2-8-6-4-7-3-5(1)6/h5-6H,1-4H2	InChI=1S/C6H10O2/c1-2-8-6-4-7-3-5(1)6/h5-6H,1-4H2/t5-,6+/m0/s1
