16
gdb 35322	4.401	1.02463	0.92517	4.5283	75.84	-0.2677	-0.0175	0.2503	1237.1087	0.124901	-400.751629	-400.743925	-400.742981	-400.784429	29.013	
N	-0.0182349365	-1.1863061054	 0.0555773981	-0.320833
C	-0.0129627245	-0.0318572237	 0.0013293638	 0.268595
C	-0.0019654864	 1.4305738557	-0.0708214159	-0.197819
C	-0.7321858234	 2.122508159	 1.1223496226	-0.332016
C	 0.1766396264	 3.2959703962	 1.4993912449	 0.42654
C	-0.3078700548	 4.6380050376	 1.8645321661	-0.248548
O	 0.1753184415	 3.7349215908	 2.8605549676	-0.273888
C	 1.4762612136	 3.0473643151	 0.8238292536	-0.144818
C	 1.4005963458	 2.0248558294	-0.0235778803	-0.078149
H	-0.4833228185	 1.7035431454	-1.0196798083	 0.138118
H	-1.7476355879	 2.4255203667	 0.8624302867	 0.124113
H	-0.7913752943	 1.4421256699	 1.9754208846	 0.151931
H	 0.316065233	 5.5123456362	 1.6811106727	 0.118297
H	-1.3804214893	 4.8297683301	 1.883831226	 0.119294
H	 2.350374109	 3.6578742074	 1.0144782549	 0.120774
H	 2.1973763066	 1.6455119297	-0.650605527	 0.12841
49.0984	142.1534	189.7833	291.0817	343.8009	348.7922	449.9741	487.2327	568.0914	592.6	691.7784	783.2108	820.0115	834.921	860.1109	913.3638	943.628	974.721	1011.1489	1034.8404	1053.3817	1123.3863	1129.9435	1163.956	1184.139	1243.4538	1263.7155	1283.1476	1324.9836	1346.9345	1426.2798	1484.6308	1527.0254	1681.6941	2358.4913	3016.7665	3075.9711	3078.4653	3128.8249	3163.659	3206.2767	3229.6164
N#CC1CC2(CO2)C=C1	N#C[C@H]1C[C@]2(CO2)C=C1	
InChI=1S/C7H7NO/c8-4-6-1-2-7(3-6)5-9-7/h1-2,6H,3,5H2	InChI=1S/C7H7NO/c8-4-6-1-2-7(3-6)5-9-7/h1-2,6H,3,5H2/t6-,7+/m1/s1
