17
gdb 28100	4.99156	1.21856	0.99141	3.1077	84.17	-0.1838	-0.0034	0.1804	1170.1229	0.138527	-380.920776	-380.91334	-380.912396	-380.952422	29.051	
C	-0.0209159543	 1.4557810859	 0.0513473146	-0.485803
C	-0.0003759048	-0.0366608689	-0.0229245876	 0.301539
C	-0.0361378952	-0.7990832535	-1.1434069617	-0.314519
C	 0.0043036722	-2.1895076473	-0.7303323384	 0.333303
C	 0.0648725019	-2.2954388468	 0.6359062309	 0.263209
C	 0.067845816	-0.917713827	 1.2289820879	-0.452732
N	 0.1035294943	-3.5985121441	 1.0440727543	-0.341536
C	 0.0664776447	-4.2874767498	-0.0818203266	-0.025531
N	 0.0048474622	-3.4783766435	-1.198142338	-0.393056
H	 0.8768943767	 1.8493316646	 0.5457659168	 0.126086
H	-0.0763294052	 1.9016242912	-0.9458846776	 0.122151
H	-0.8788754353	 1.8209333868	 0.6308684592	 0.125997
H	-0.08608221	-0.4240680147	-2.1578066386	 0.093676
H	 0.9687759498	-0.6989529527	 1.8169808355	 0.130153
H	-0.7861776453	-0.7276350731	 1.8921506145	 0.130164
H	 0.0805641272	-5.3637640287	-0.1645235715	 0.123645
H	-0.0313059948	-3.7925643884	-2.1527519135	 0.263254
136.2444	158.5426	242.4586	269.5373	299.4356	447.2474	472.1899	495.6936	520.5102	659.6349	714.0924	734.66	762.9426	795.471	833.5893	864.9209	919.5079	967.0264	1008.2426	1052.2918	1079.5812	1130.4354	1142.0137	1153.1649	1207.0708	1275.2275	1310.094	1371.0633	1386.1256	1413.3764	1435.3805	1466.9141	1476.4986	1485.0749	1521.1677	1570.3598	1636.0843	3011.0483	3030.0519	3052.658	3059.7256	3104.9455	3208.6359	3254.2025	3671.0221
CC1=CC2=C(C1)N=CN2	CC1=Cc2c(C1)nc[nH]2	
InChI=1S/C7H8N2/c1-5-2-6-7(3-5)9-4-8-6/h2,4H,3H2,1H3,(H,8,9)	InChI=1S/C7H8N2/c1-5-2-6-7(3-5)9-4-8-6/h2,4H,3H2,1H3,(H,8,9)
