21
gdb 76713	3.08686	0.86264	0.78273	4.3605	80.3	-0.2713	0.0115	0.2828	1532.5568	0.180491	-424.237584	-424.227252	-424.226308	-424.274345	36.3	
C	-0.4502931736	 1.0919590953	-1.3968256448	-0.417099
C	-0.1321780983	-0.1557765216	-0.5993110395	-0.013793
C	 1.2792262917	-0.655163524	-0.3701098401	-0.035699
C	 2.5075563692	 0.0488451612	-0.911992132	-0.409006
C	 0.4619470974	-0.1295964523	 0.7967912115	-0.041745
C	 0.8202385532	 1.1433989006	 1.5157579143	-0.106327
O	-0.3229659421	 1.6316638459	 2.2441964462	-0.175839
C	-0.8219941996	 2.8356498166	 1.9215990831	 0.174142
O	-1.7779489971	 3.3087792437	 2.4595718243	-0.27886
H	 0.2809370386	 1.8918815617	-1.2549525013	 0.110197
H	-0.4749655844	 0.8677639651	-2.4688331355	 0.12398
H	-1.4326904833	 1.4903510403	-1.1215458746	 0.131101
H	-0.8701440946	-0.9405941525	-0.7451179191	 0.09033
H	 1.3847001051	-1.7372764613	-0.3792469643	 0.089467
H	 2.4061429699	 1.1366142234	-0.9329649541	 0.115575
H	 3.3919958168	-0.1866916802	-0.3098808504	 0.121681
H	 2.7135446077	-0.2755522501	-1.937809861	 0.123602
H	 0.0825333826	-0.8833299118	 1.4813500217	 0.098533
H	 1.6019773475	 0.961490289	 2.2606351443	 0.123886
H	 1.1818978198	 1.9231712477	 0.8374776704	 0.103793
H	-0.2506697763	 3.3359460035	 1.114077221	 0.07208
32.7987	45.5859	117.645	161.0361	173.2328	185.8917	217.3031	271.6138	306.2214	376.2339	446.3435	494.4282	533.6573	680.5659	744.1953	777.7275	851.6352	926.7654	957.111	1008.8339	1024.6311	1037.175	1044.9128	1051.859	1112.3852	1126.3635	1154.3523	1160.9993	1189.6394	1211.8638	1274.3487	1309.3085	1367.8201	1380.8144	1410.295	1418.8143	1424.071	1437.205	1458.2869	1486.228	1496.0638	1501.7275	1508.3105	1517.8752	1863.8475	2937.3952	3033.203	3034.9268	3042.2959	3081.7355	3089.591	3092.2317	3104.5834	3115.9663	3130.3113	3135.4373	3150.8028
CC1C(C)C1COC=O	C[C@H]1[C@@H](C)[C@H]1COC=O	
InChI=1S/C7H12O2/c1-5-6(2)7(5)3-9-4-8/h4-7H,3H2,1-2H3	InChI=1S/C7H12O2/c1-5-6(2)7(5)3-9-4-8/h4-7H,3H2,1-2H3/t5-,6+,7-
