17
gdb 28350	3.1625	1.40858	0.98635	2.6865	83.32	-0.22	-0.0553	0.1647	1186.5928	0.13558	-418.050554	-418.04204	-418.041096	-418.083657	31.638	
C	 0.0425006002	 1.5161993502	 0.0050962713	-0.474913
C	-0.0776525917	 0.0326003849	 0.0688692746	 0.365729
C	-1.1484558533	-0.7136259818	-0.2551346018	-0.157105
N	-1.155304454	-2.09582096	-0.1586802614	-0.296291
C	-0.0875541207	-2.6881698861	 0.2600489289	 0.282626
C	-0.044178589	-4.1796612224	 0.3821106795	-0.457406
C	 1.1312741498	-1.9461308644	 0.6365505879	 0.320712
N	 2.1860921497	-2.5190582346	 1.0494016677	-0.521391
O	 1.0623292687	-0.5698381465	 0.513702433	-0.258933
H	 0.8565260053	 1.8112623572	-0.66639968	 0.146512
H	-0.888334115	 1.9580630234	-0.3546900311	 0.141595
H	 0.2712754127	 1.9298926543	 0.9935967637	 0.146512
H	-2.0586853872	-0.2465006757	-0.6094179945	 0.112999
H	-1.0028218136	-4.5987476494	 0.0747130232	 0.133091
H	 0.7618470097	-4.5918200862	-0.2338346112	 0.146304
H	 0.1826778943	-4.4740032194	 1.4120691897	 0.146324
H	 2.9148730442	-1.8349063434	 1.2573296206	 0.223636
90.7252	145.732	163.2186	170.4195	281.363	310.1957	339.2264	418.8098	486.8383	509.1769	543.2882	602.2433	708.782	748.2616	762.4819	856.9067	871.9376	954.9803	983.1396	1029.5107	1053.6542	1063.8592	1075.7824	1189.1734	1203.2742	1239.0773	1340.383	1387.3101	1408.0614	1417.665	1464.4529	1466.3375	1467.4203	1484.1787	1619.6516	1681.8023	1724.659	3035.3328	3044.6669	3089.2197	3098.7137	3139.9244	3153.119	3207.6858	3480.1488
CC1=CN=C(C)C(=N)O1	CC1=C[N]C(=C([NH])O1)C	
InChI=1S/C6H8N2O/c1-4-3-8-5(2)6(7)9-4/h3,7H,1-2H3	InChI=1S/C6H8N2O/c1-4-3-8-5(2)6(7)9-4/h3,7H,1-2H3
