15
gdb 47338	3.40413	1.17753	0.8962	4.8982	79.67	-0.2601	-0.0726	0.1875	1221.1864	0.112706	-420.642537	-420.634677	-420.633733	-420.675122	29.454	
O	-0.0536989035	-0.0416553319	-0.1505482955	-0.335862
C	-0.0360626524	 1.1481093532	 0.0337222351	 0.432229
O	-1.2079114205	 1.8349761009	 0.1148638775	-0.235267
C	-1.1686075789	 3.1776402245	 0.6165670777	-0.086602
C	-0.0866011662	 4.0147001203	-0.0511073238	-0.317715
C	 1.2322737139	 3.2747596471	 0.0264248301	 0.134163
C	 1.2153839784	 1.9310454168	 0.1168348772	-0.296879
C	 2.4343171803	 4.0242639384	-0.025465947	 0.217247
C	 3.430904966	 4.700087427	-0.0706032712	-0.371348
H	-2.1645567468	 3.5858418988	 0.4339353394	 0.129051
H	-1.0010345289	 3.1463968648	 1.7010430189	 0.119307
H	-0.33529296	 4.2130455061	-1.101609572	 0.14148
H	-0.0108463579	 4.985940529	 0.446883427	 0.131867
H	 2.1238227539	 1.3439671013	 0.1592858927	 0.130195
H	 4.3196827523	 5.2807309436	-0.110677126	 0.208133
108.3505	136.343	144.3137	248.1864	322.7943	404.1696	443.4282	477.3216	554.5258	582.3628	635.6635	646.0868	660.4791	741.8142	796.9661	856.7671	921.3964	932.3629	1008.6646	1078.4631	1104.5513	1148.7591	1222.3735	1233.9677	1283.5539	1318.7694	1372.9729	1427.2774	1465.8331	1507.8278	1659.5888	1819.9983	2219.2907	3024.6306	3035.487	3091.6183	3113.568	3222.4351	3499.1723
O=C1OCCC(=C1)C#C	O=C1OCCC(=C1)C#C	
InChI=1S/C7H6O2/c1-2-6-3-4-9-7(8)5-6/h1,5H,3-4H2	InChI=1S/C7H6O2/c1-2-6-3-4-9-7(8)5-6/h1,5H,3-4H2
