21
gdb 58211	2.18589	1.07355	1.05009	0.3587	80.37	-0.2486	0.0456	0.2943	1347.697	0.178484	-424.196113	-424.185089	-424.184145	-424.231859	40.68	
C	 0.0097919494	 1.5343085725	 0.4145032422	-0.407775
C	-0.0076731899	 0.0116524349	 0.3259800142	 0.099372
O	 0.4375592543	-0.5938158058	 1.5395212602	-0.427186
C	-1.3989234387	-0.5323292263	-0.0629322501	 0.104499
O	-1.8932781385	 0.0798721131	-1.241525037	-0.435806
C	-1.4105055836	-2.0820202544	-0.1757362961	-0.143468
C	-2.8496045993	-2.6316880004	-0.18831606	-0.402835
C	-0.6821668115	-2.4873145229	-1.3781562694	 0.298782
C	-0.1127135581	-2.7669456131	-2.4014390744	-0.474023
H	 1.0141729912	 1.8893676852	 0.6602225212	 0.120287
H	-0.3115319094	 1.979992648	-0.5289964046	 0.135681
H	-0.6794651607	 1.8826773602	 1.1955398412	 0.102573
H	 0.7117815881	-0.3206692907	-0.4330456966	 0.09547
H	-0.044062242	-0.1799408641	 2.2646279878	 0.278553
H	-2.1055786895	-0.2530291526	 0.7312115163	 0.071978
H	-1.4158835464	-0.314861352	-1.9840861706	 0.284572
H	-0.8782696873	-2.4652325294	 0.7018805581	 0.125349
H	-3.4208587156	-2.1756438353	-1.00070076	 0.136679
H	-2.8545363171	-3.7159211626	-0.3238631751	 0.123288
H	-3.3484881436	-2.3992548023	 0.7577200249	 0.113364
H	 0.4065726281	-3.051078282	-3.2834319922	 0.200648
61.6146	85.0514	141.6026	169.5047	209.1572	227.2042	248.2205	264.8647	290.778	325.3273	378.7516	395.8607	442.8934	460.3346	496.7266	558.0517	628.558	652.8478	698.6111	782.149	870.6438	910.6915	976.2961	1001.5244	1040.8632	1074.1199	1092.8746	1114.3978	1128.4331	1179.7032	1232.1553	1261.8778	1308.9125	1320.1314	1360.2179	1393.7378	1397.7531	1403.6187	1417.6298	1430.3709	1489.4612	1493.4877	1495.4459	1501.6544	2221.269	3012.0203	3021.0332	3043.0496	3044.6211	3056.209	3100.5632	3117.1754	3131.8586	3139.1788	3500.5344	3747.7813	3795.8461
CC(O)C(O)C(C)C#C	C[C@@H](O)[C@@H](O)[C@@H](C)C#C	
InChI=1S/C7H12O2/c1-4-5(2)7(9)6(3)8/h1,5-9H,2-3H3	InChI=1S/C7H12O2/c1-4-5(2)7(9)6(3)8/h1,5-9H,2-3H3/t5-,6+,7-/m0/s1
