20
gdb 116869	3.71108	0.56443	0.51173	4.1712	89.84	-0.2643	0.0217	0.286	2196.2486	0.168795	-366.010886	-365.999978	-365.999034	-366.050033	37.412	
C	-0.115161188	 1.5930355264	-0.0408951725	-0.382527
C	-0.1220685767	 0.0637525982	-0.0738863587	-0.156712
C	 0.8801262064	-0.5025041128	-1.1010398557	-0.337634
C	 0.8949161359	-1.9599950811	-1.1484606694	 0.029375
C	 0.8897610034	-3.1634285162	-1.1584448417	 0.146799
C	 0.890388505	-4.6268224924	-1.2085161654	-0.301669
C	 1.2926983227	-5.1659552402	-2.6039597373	-0.379526
C	 1.7712701384	-5.1895847328	-0.1688407805	 0.289047
N	 2.4609600512	-5.6518490637	 0.6342591385	-0.323581
H	 0.8740130969	 1.9804286964	 0.2272214982	 0.118802
H	-0.3823399964	 2.0136137279	-1.0167998728	 0.116592
H	-0.8314653291	 1.9739576891	 0.6928741213	 0.118064
H	 0.1224562749	-0.3370741853	 0.9158494723	 0.11519
H	-1.124832322	-0.304554792	-0.3175241478	 0.109239
H	 0.6431288669	-0.1075898252	-2.098107842	 0.128943
H	 1.8888559363	-0.1382203298	-0.8650458135	 0.133852
H	-0.1225881344	-4.9890470472	-0.983918564	 0.153828
H	 1.2567660959	-6.2579703813	-2.6135094981	 0.137457
H	 0.6001879954	-4.7767049062	-3.3532237908	 0.136356
H	 2.3037452274	-4.8424558717	-2.8589749801	 0.148103
5.6903	61.0856	75.7664	111.218	171.8411	204.2385	231.394	240.9523	291.6886	310.8367	383.9664	461.0596	487.1442	565.0945	586.7599	742.7491	751.2779	853.7069	871.9534	896.3855	992.9099	1041.9677	1073.0137	1091.4653	1108.7161	1122.4075	1185.2437	1258.8849	1298.018	1305.7119	1322.4414	1327.0748	1381.4072	1407.0096	1413.8214	1471.2283	1489.1206	1491.932	1496.9934	1499.0881	1508.7461	2361.8316	2373.5791	3013.1631	3013.2444	3030.5947	3040.7854	3043.0363	3056.1767	3075.2015	3101.5462	3107.8037	3138.3339	3144.9129	5.7056	61.0871	75.7672	111.2183	171.8409	204.2385	231.3949	240.9532	291.6884	310.8368	383.9654	461.059	487.1439	565.0944	586.7597	742.7492	751.2778	853.707	871.9533	896.3855	992.9098	1041.9676	1073.0136	1091.4652	1108.7159	1122.4072	1185.2434	1258.8845	1298.0179	1305.7117	1322.4409	1327.0747	1381.4071	1407.0094	1413.8212	1471.228	1489.1202	1491.9315	1496.993	1499.0878	1508.7456	2361.8315	2373.5786	3013.1631	3013.2445	3030.5947	3040.7855	3043.0363	3056.1768	3075.2015	3101.5462	3107.8037	3138.3339	3144.913
CCCC#CC(C)C#N	CCCC#C[C@@H](C)C#N	
InChI=1S/C8H11N/c1-3-4-5-6-8(2)7-9/h8H,3-4H2,1-2H3	InChI=1S/C8H11N/c1-3-4-5-6-8(2)7-9/h8H,3-4H2,1-2H3/t8-/m1/s1
