12
gdb 11635	3.51877	1.8843	1.55021	4.0925	57.64	-0.2637	-0.0521	0.2116	805.6963	0.08143	-418.414028	-418.407209	-418.406265	-418.445472	24.277	
O	 0.0382838823	-0.0341583159	-0.0821701186	-0.2304
C	 0.0174646865	 1.1589374039	 0.0690394723	 0.039041
C	 1.2220304011	 2.0286748029	 0.0259867219	 0.191774
C	 1.7648736672	 3.0463553496	 1.0675182131	-0.2698
C	 2.8732492052	 2.8879564437	-0.0001901084	-0.06246
O	 2.5723367151	 1.434479887	-0.0494319943	-0.306404
C	 1.7836608919	 3.0166417247	-1.0912497885	 0.429639
O	 1.548988719	 3.4490049182	-2.1637343076	-0.280411
H	-0.9262317088	 1.7239394338	 0.2363089369	 0.092376
H	 1.2656898062	 4.0117806428	 1.1773425162	 0.127308
H	 2.0232589633	 2.5749684107	 2.0170495085	 0.139461
H	 3.9192661509	 3.1833806586	 0.0243116385	 0.129875
84.2918	178.9648	185.8247	214.9047	397.245	513.7699	543.1087	615.5928	716.4358	793.1064	800.2161	833.7453	921.6778	958.1587	973.6157	1021.2051	1035.789	1107.3193	1174.1066	1205.6141	1215.2752	1308.3999	1422.3919	1472.301	1820.5985	1947.811	2888.9259	3071.7822	3156.9992	3164.5955
O=CC12CC(O1)C2=O	O=C[C@@]12C[C@@H](O1)C2=O	
InChI=1S/C5H4O3/c6-2-5-1-3(8-5)4(5)7/h2-3H,1H2	InChI=1S/C5H4O3/c6-2-5-1-3(8-5)4(5)7/h2-3H,1H2/t3-,5-/m1/s1
