21
gdb 92595	2.13603	1.61283	1.4639	1.2816	77.21	-0.2463	0.0685	0.3148	1066.2375	0.182942	-424.22252	-424.213862	-424.212917	-424.255727	33.793	
C	-0.8347855753	 1.2826483763	-0.0028317413	-0.423677
C	-0.0406277272	-0.0130156717	-0.0860683552	-0.012672
C	 1.2221849432	-0.0422514435	-0.9949361889	-0.25393
C	 2.0386292776	-0.7140162779	 0.1447476618	-0.056243
C	 3.1702174837	 0.1266969579	 0.7262347742	-0.104486
O	 2.5129487031	 1.1979731595	 1.4048883625	-0.253367
C	 1.3921407201	 0.6204506336	 2.0599663957	-0.147008
C	 0.8437742368	-0.4746719526	 1.118958297	 0.35448
O	 0.4051405777	-1.6238580832	 1.8118211832	-0.481985
H	-0.1831866796	 2.1347081304	 0.2176260194	 0.130166
H	-1.3361534438	 1.4899664295	-0.95456863	 0.116724
H	-1.609152857	 1.2388727057	 0.772496782	 0.104676
H	-0.7039850761	-0.8477331831	-0.3354143235	 0.074387
H	 1.1318749335	-0.6130483448	-1.92127313	 0.09878
H	 1.5910977048	 0.9593911125	-1.2345230363	 0.104863
H	 2.2904216764	-1.7625435975	-0.0153821639	 0.080895
H	 3.7766282185	-0.463339632	 1.4324544249	 0.092231
H	 3.8334783859	 0.5677055514	-0.023416771	 0.107003
H	 1.6899304693	 0.1263875424	 2.9988677588	 0.090872
H	 0.6901521253	 1.4267003794	 2.290458482	 0.101465
H	-0.3904934972	-1.3949705024	 2.3048745386	 0.276827
50.9519	198.6313	210.588	230.8501	247.9899	296.4504	334.4805	384.7198	437.4319	482.5812	556.119	605.9935	697.4006	750.2987	834.5466	881.7652	891.1424	905.7399	939.7763	966.7516	1009.6103	1029.1216	1052.6273	1099.0861	1111.9604	1140.6345	1153.6745	1174.5518	1183.6283	1227.3964	1232.662	1261.9387	1283.2137	1290.7266	1321.7048	1326.1808	1354.1668	1372.161	1406.3354	1409.2095	1481.6753	1493.1582	1494.9811	1505.86	1515.5345	2973.6704	2979.523	3022.994	3048.9632	3056.3111	3084.479	3086.0359	3087.9844	3100.2108	3107.534	3120.7463	3797.8814
CC1CC2COCC12O	C[C@H]1C[C@H]2COC[C@@]12O	
InChI=1S/C7H12O2/c1-5-2-6-3-9-4-7(5,6)8/h5-6,8H,2-4H2,1H3	InChI=1S/C7H12O2/c1-5-2-6-3-9-4-7(5,6)8/h5-6,8H,2-4H2,1H3/t5-,6-,7+/m0/s1
