15
gdb 33854	4.42097	1.298	1.15807	3.1209	70.79	-0.2579	0.0153	0.2732	1034.9961	0.111573	-420.550685	-420.543513	-420.542568	-420.582114	28.394	
C	-0.0145764057	-1.1907891529	 0.0337321652	-0.36303
C	 0.0409995291	 0.0093955149	-0.0061988431	 0.2218
C	 0.0717342643	 1.4422678539	-0.0853685475	 0.216509
C	-0.955831674	 2.1814219887	-0.9547199346	-0.339042
C	-0.2708820764	 3.4759330212	-1.3824209579	 0.03209
O	 0.0669993621	 4.3710462123	-0.3232338606	-0.229742
C	 1.0956160389	 3.521433736	-0.829389568	 0.004465
C	 1.3098282169	 2.2648065256	-0.0054555453	-0.057081
O	 0.4395095411	 2.1478976859	 1.1124194483	-0.261087
H	-0.0553681134	-2.2510813345	 0.0811576445	 0.195983
H	-1.1934264006	 1.5760380351	-1.8350061865	 0.122623
H	-1.8841368613	 2.3632911979	-0.4055479109	 0.139645
H	-0.5520703958	 3.9513142025	-2.3193098546	 0.103334
H	 1.9370256656	 4.009509108	-1.3121123331	 0.103169
H	 2.3001242892	 1.8325362554	 0.103909504	 0.110364
129.8202	146.2285	275.7947	302.3907	400.543	443.1708	517.9999	581.7356	621.2091	627.5688	672.1355	712.1778	737.3864	814.9528	850.3378	881.2167	905.7485	955.3142	963.187	1011.9091	1034.5139	1070.728	1105.409	1180.7053	1208.2266	1241.0524	1272.8878	1313.9697	1330.5211	1394.1767	1431.3872	1461.0036	2240.6623	3061.5925	3109.0919	3139.6655	3157.0277	3170.2416	3501.2295
C#CC12CC3OC3C1O2	C#C[C@]12C[C@H]3O[C@H]3[C@H]1O2	
InChI=1S/C7H6O2/c1-2-7-3-4-5(8-4)6(7)9-7/h1,4-6H,3H2	InChI=1S/C7H6O2/c1-2-7-3-4-5(8-4)6(7)9-7/h1,4-6H,3H2/t4-,5-,6-,7+/m1/s1
