19
gdb 94384	2.90149	1.47628	1.24738	2.0677	75.1	-0.2347	0.064	0.2987	1067.5496	0.15906	-422.970338	-422.962239	-422.961295	-423.003056	31.489	
O	 0.1658264776	 1.1207296173	-0.5331864998	-0.427378
C	 0.1086493722	-0.1580770023	 0.0501475155	-0.013397
C	-0.044227364	-0.27463744	 1.5822347233	-0.116926
O	-1.2323193791	-1.0783377598	 1.422342419	-0.328296
C	-1.2886880238	-0.8041314219	 0.0050469149	 0.457536
C	-2.5624980999	-0.0345466792	-0.4641138886	-0.305051
C	-2.9179815641	-1.2268012733	-1.3645820724	-0.043989
C	-1.7868948347	-1.4908218689	-2.3136831523	-0.285206
C	-1.6725389445	-1.9759601915	-0.8882748721	-0.131327
H	 1.0793702789	 1.4223839462	-0.5273164283	 0.288917
H	 0.8830421829	-0.8231282705	-0.3540395598	 0.077587
H	 0.737755141	-0.8038862551	 2.1383853022	 0.098061
H	-0.2547981681	 0.6902676009	 2.0618954308	 0.100289
H	-3.234419627	 0.0768371725	 0.3897155614	 0.115137
H	-2.4169861873	 0.9324286498	-0.952935531	 0.110067
H	-3.9151227501	-1.6124181143	-1.5358053613	 0.086286
H	-1.9544173722	-2.2713334331	-3.0490509661	 0.110758
H	-1.1647275151	-0.6709252776	-2.6655908649	 0.11783
H	-1.5356974427	-3.0190671292	-0.6308746607	 0.089101
79.4893	118.6639	191.5684	246.1414	289.3891	372.2787	403.191	437.6524	503.7597	553.3029	728.3616	771.8618	790.9697	838.3967	877.7544	915.3367	942.3455	946.7506	968.53	1005.2051	1016.4096	1057.6146	1062.2214	1086.4414	1103.0546	1127.8369	1137.4884	1161.5581	1167.014	1179.4902	1224.3566	1236.6556	1250.8737	1303.6673	1324.5899	1329.0697	1357.6287	1441.3844	1470.414	1494.2732	1516.1858	3011.6268	3014.9607	3062.3571	3068.4885	3108.2959	3123.6304	3183.8315	3190.0486	3203.3833	3823.4852
OC1COC11CC2CC12	O[C@H]1CO[C@]21C[C@H]1C[C@@H]21	
InChI=1S/C7H10O2/c8-6-3-9-7(6)2-4-1-5(4)7/h4-6,8H,1-3H2	InChI=1S/C7H10O2/c8-6-3-9-7(6)2-4-1-5(4)7/h4-6,8H,1-3H2/t4-,5-,6+,7-/m1/s1
