19
gdb 116717	3.81192	0.85927	0.71374	4.6054	84.46	-0.2372	-0.0137	0.2235	1597.3707	0.158497	-419.228897	-419.219557	-419.218612	-419.263927	33.244	
C	 0.5007331843	 0.8689435292	 0.7407057931	-0.396701
C	-0.2907653295	 0.3735900371	-0.4735596116	-0.107475
N	 0.3975971697	-0.3855700658	-1.5036385995	-0.205075
C	 1.6304337902	-0.6362924871	-1.4001047886	 0.081536
N	 2.331572888	-1.3577054636	-2.3575251385	-0.125598
C	 3.7542301864	-1.7331201855	-2.3882163275	-0.175277
C	 3.4844908757	-2.4374936406	-3.7444158478	-0.371534
C	 2.0207986216	-1.9757403491	-3.5799454177	 0.426143
O	 1.0089329001	-2.0780976981	-4.2063620165	-0.325268
H	 0.9348598727	 0.0419254675	 1.3131784213	 0.118845
H	 1.3116217733	 1.5471703699	 0.4532465814	 0.118862
H	-0.1668579992	 1.4187257618	 1.4107400667	 0.11732
H	-1.1291390716	-0.2484639817	-0.132078813	 0.117405
H	-0.7605255873	 1.2301612393	-0.9755286238	 0.117403
H	 2.2822593992	-0.3286289225	-0.5728181619	 0.086967
H	 4.4338145494	-0.8768064908	-2.4338653764	 0.121566
H	 4.051822158	-2.3949802328	-1.5693317873	 0.121575
H	 3.9924557517	-2.0076500593	-4.6093214514	 0.139653
H	 3.6118646771	-3.5212866179	-3.7475385909	 0.139652
52.9992	89.0791	112.5362	168.8554	195.9667	220.5294	269.4181	343.4972	418.7474	464.4195	539.7586	551.3891	766.2318	777.4468	814.1925	828.7717	890.0783	957.7462	976.3537	1045.5711	1048.3294	1055.9357	1097.2656	1144.2018	1154.0925	1157.1575	1194.0714	1230.9084	1290.646	1310.8479	1368.2029	1396.4923	1400.954	1422.0733	1460.7697	1480.6211	1495.2417	1507.7955	1525.1694	1749.9816	1898.1351	3014.9663	3029.5496	3034.6547	3037.832	3047.2762	3089.8361	3092.521	3098.23	3108.094	3146.533
CCN=CN1CCC1=O	CCN=CN1CCC1=O	
InChI=1S/C6H10N2O/c1-2-7-5-8-4-3-6(8)9/h5H,2-4H2,1H3	InChI=1S/C6H10N2O/c1-2-7-5-8-4-3-6(8)9/h5H,2-4H2,1H3
