15
gdb 20574	4.64035	1.48825	1.27872	1.4133	61.9	-0.262	-0.0113	0.2507	946.1873	0.120366	-395.984097	-395.976476	-395.975532	-396.017358	27.197	
C	 0.0827036235	 1.4603788023	-0.2440863539	-0.387203
C	 0.0283830576	-0.0154194299	 0.1814832199	 0.022325
O	 0.5457701626	-0.1877364797	 1.4888868182	-0.432014
C	-1.3696634997	-0.5654548987	 0.0708850188	 0.315959
N	-2.1543715961	-0.6389624325	 1.1477721761	-0.299022
N	-3.2940163233	-1.1240833182	 0.6709128956	-0.066133
N	-3.3282851341	-1.3795072392	-0.6270606633	-0.192688
C	-2.107888281	-1.0275335417	-1.0345609548	-0.135094
H	 1.1060701124	 1.8311255793	-0.1434486611	 0.126572
H	-0.2383536265	 1.586510273	-1.2834164594	 0.112946
H	-0.5723083273	 2.0625108405	 0.393667605	 0.120221
H	 0.6813354874	-0.5937158917	-0.4846965381	 0.096293
H	-0.194284317	-0.1020335171	 2.1017443719	 0.29512
H	-4.0831764455	-1.3092342756	 1.2686768001	 0.295321
H	-1.8209067728	-1.1233522809	-2.0695244151	 0.127396
17.0584	156.0949	204.3381	262.4293	276.2014	343.7324	443.1322	496.9238	513.5054	694.8517	720.7686	747.5073	880.7827	904.981	997.8263	1014.8554	1048.1032	1095.6223	1121.1432	1163.3489	1202.6964	1234.6011	1287.5215	1346.7879	1362.057	1397.5618	1413.6385	1430.0495	1474.926	1489.9184	1504.0863	1562.1037	3027.2989	3035.5555	3109.6133	3124.5211	3269.998	3669.7145	3788.7298
CC(O)C1=NNN=C1	C[C@@H](O)c1n[nH]nc1	
InChI=1S/C4H7N3O/c1-3(8)4-2-5-7-6-4/h2-3,8H,1H3,(H,5,6,7)	InChI=1S/C4H7N3O/c1-3(8)4-2-5-7-6-4/h2-3,8H,1H3,(H,5,6,7)/t3-/m1/s1
