19
gdb 70338	2.18499	2.07331	1.37575	0.7123	73.94	-0.245	0.0727	0.3177	996.9396	0.158672	-423.006508	-422.998396	-422.997452	-423.038427	32.702	
C	-0.0660378962	 1.4954125388	-0.0596668599	-0.498431
C	 0.1653249071	 0.011048895	-0.0880670538	 0.340833
O	-0.5494518347	-0.779277297	 0.8808135783	-0.300302
C	 0.8878642233	-0.7703960098	 0.9319445618	-0.016919
C	 1.5520634309	-1.9817812358	 0.2918723565	-0.263508
C	 1.1376877639	-1.9457102811	-1.1820056254	-0.088377
C	-0.3279484729	-2.0544972904	-1.5651503926	-0.349453
C	 0.3242708518	-0.7019934799	-1.4344917944	 0.322837
O	 0.5824907148	 0.0895002089	-2.5546267312	-0.463258
H	 0.7094909574	 2.0154356731	-0.6279047879	 0.13753
H	-1.0350577186	 1.7475049072	-0.5058320821	 0.11854
H	-0.0648442632	 1.8603314774	 0.9700947937	 0.128021
H	 1.3083666707	-0.3303713368	 1.8346182612	 0.090149
H	 2.6401456412	-1.880956473	 0.3780751245	 0.107358
H	 1.2692209111	-2.9115513261	 0.7977131914	 0.114807
H	 1.8567158925	-2.2662017489	-1.927119456	 0.095715
H	-0.5201352809	-2.3930964635	-2.5782277121	 0.106072
H	-1.0542694381	-2.3514596652	-0.8192886163	 0.133372
H	-0.2617828302	 0.3756654072	-2.9198848257	 0.285013
151.3422	184.6279	242.1119	270.5703	302.0825	326.914	387.4515	426.0846	449.1365	489.0832	604.2937	610.1323	699.891	790.5189	804.984	846.1861	859.6195	910.6031	929.9627	963.7397	991.0332	1025.5332	1059.7747	1085.2591	1089.3345	1102.7552	1114.7947	1169.7096	1216.9691	1242.983	1287.4317	1314.0329	1320.8873	1337.7153	1393.0231	1407.3745	1442.8461	1470.1771	1480.1351	1483.8718	1499.3579	3037.4162	3039.2917	3077.8041	3103.6621	3126.8848	3133.2001	3135.3969	3177.9492	3235.8211	3797.222
CC12OC1CC1CC21O	C[C@]12O[C@H]1C[C@H]1C[C@@]21O	
InChI=1S/C7H10O2/c1-6-5(9-6)2-4-3-7(4,6)8/h4-5,8H,2-3H2,1H3	InChI=1S/C7H10O2/c1-6-5(9-6)2-4-3-7(4,6)8/h4-5,8H,2-3H2,1H3/t4-,5-,6-,7-/m0/s1
