13
gdb 56120	4.53881	0.85896	0.8477	4.4725	60.48	-0.2892	-0.0921	0.1971	1327.0857	0.08731	-489.93689	-489.927788	-489.926843	-489.972137	30.849	
N	-0.1091344675	 1.1751909439	 0.0258361383	-0.561486
C	-0.1858699143	-0.1592007013	 0.2616097596	 0.516853
O	 0.2291809718	-0.7445152022	 1.230995523	-0.394372
O	-0.7734858221	-0.7815708549	-0.8134878189	-0.245099
C	-0.9572850351	-2.165857377	-0.6479161772	-0.18517
C	-2.1867693044	-2.4676278845	 0.1967982653	 0.299891
O	-2.9036980241	-1.6403644221	 0.6893780961	-0.250851
C	-2.4468810087	-3.9135879816	 0.3640456678	 0.221682
N	-2.6324048877	-5.049839039	 0.469999526	-0.286404
H	 0.1458802927	 1.7556543292	 0.8060213775	 0.278573
H	-0.6683793313	 1.5770897201	-0.7070720289	 0.274552
H	-1.0927091148	-2.6001411996	-1.6441542019	 0.15866
H	-0.0894189744	-2.6371072611	-0.1721514866	 0.173172
42.8489	70.9819	74.0092	154.0987	260.27	290.4104	320.1324	343.1209	412.1895	506.9484	545.3144	553.9225	592.5532	685.1085	777.7439	838.7128	873.8698	1018.4636	1066.1367	1118.1318	1166.0359	1290.9374	1347.7811	1402.6304	1437.9715	1614.4852	1818.3972	1852.38	2339.4767	3046.1885	3098.0125	3618.0287	3747.1774
NC(=O)OCC(=O)C#N	NC(=O)OCC(=O)C#N	
InChI=1S/C4H4N2O3/c5-1-3(7)2-9-4(6)8/h2H2,(H2,6,8)	InChI=1S/C4H4N2O3/c5-1-3(7)2-9-4(6)8/h2H2,(H2,6,8)
