18
gdb 64736	2.65949	1.26028	1.09954	2.5173	78.07	-0.2597	0.025	0.2846	1174.5379	0.145637	-401.915283	-401.906015	-401.905071	-401.949425	34.206	
C	 0.0167865476	 1.6021000344	 0.0142349369	-0.449804
C	 0.0192499792	 0.0760839272	 0.005820145	 0.156832
C	-1.3939479375	-0.5244626959	 0.1846548602	-0.417075
C	-2.0881624246	-0.0835826013	 1.3873298104	 0.328098
C	-2.6729169292	 0.2864611512	 2.3692907664	-0.440895
C	 0.8216823112	-0.5972265685	-1.1380879409	-0.126236
O	 1.7552381627	-1.1617992357	-0.1684896597	-0.258842
C	 1.0883620048	-0.5654324037	 0.8840622134	 0.4172
N	 1.3319582031	-0.5718038782	 2.112264125	-0.537546
H	 1.0254688099	 1.9971006294	-0.1367206924	 0.123937
H	-0.6286364161	 1.9920650286	-0.7807859581	 0.116646
H	-0.3563861688	 1.9718409159	 0.9718664619	 0.156853
H	-1.9903137116	-0.2549510371	-0.6979565969	 0.131776
H	-1.3220237732	-1.6192674408	 0.1853584098	 0.13746
H	-3.1774098285	 0.6032863096	 3.2482343245	 0.199278
H	 0.3088266004	-1.3869589954	-1.6943040208	 0.116269
H	 1.3331461959	 0.0817597141	-1.8251583351	 0.118153
H	 2.1644816848	-1.1238678139	 2.3264884603	 0.227897
66.7896	95.8574	145.1769	193.4134	223.7486	271.4083	322.5374	347.5905	356.5343	472.0668	501.5796	623.0385	648.7378	682.4771	728.8156	756.5259	864.3223	878.683	913.5578	947.8954	976.5111	990.3141	999.8224	1009.6672	1146.3512	1155.1746	1184.7924	1228.207	1242.0531	1292.1511	1347.4129	1374.6607	1414.5098	1465.9381	1492.1983	1496.6247	1517.2103	1825.1816	2242.6011	3012.0913	3037.1381	3049.9286	3053.842	3105.8976	3112.2251	3133.447	3473.6435	3506.6963
CC1(CC#C)COC1=N	C[C@@]1(CC#C)CO[C]1[NH]	
InChI=1S/C7H9NO/c1-3-4-7(2)5-9-6(7)8/h1,8H,4-5H2,2H3	InChI=1S/C7H9NO/c1-3-4-7(2)5-9-6(7)8/h1,8H,4-5H2,2H3/t7-/m1/s1
