20
gdb 75163	3.99703	1.00916	0.8571	1.5896	80.6	-0.2374	0.0338	0.2712	1391.6339	0.1715	-403.165226	-403.156409	-403.155465	-403.199717	32.48	
C	-0.2662596416	 1.4090227419	 0.0492601511	-0.471493
C	-0.023726951	-0.0578628512	-0.060828747	 0.401318
N	-0.1698534625	-0.7694426817	-1.1034402295	-0.306644
C	 0.1823998721	-2.1421105091	-0.7214805258	-0.20883
C	 0.5625424598	-2.0682940475	 0.7856483094	 0.080998
O	 0.3945077473	-0.655439187	 1.0900696722	-0.264888
C	-0.2913736106	-2.9004934502	 1.7008473507	 0.018718
C	 0.1485438701	-4.3038253124	 2.0459712778	-0.271669
C	 0.17495358	-3.2235836213	 3.0959837184	-0.269726
H	 0.6504055591	 1.9222682813	 0.3565885898	 0.142811
H	-0.6002403969	 1.7988063919	-0.9115980868	 0.150201
H	-1.0230780102	 1.6118868458	 0.8135027317	 0.142701
H	-0.6683697321	-2.8121644127	-0.8926096884	 0.111002
H	 1.0082619605	-2.5055768869	-1.341863674	 0.111637
H	 1.6198131312	-2.3041718965	 0.9545946636	 0.080052
H	-1.3588639954	-2.7458025102	 1.5656254321	 0.088913
H	-0.6103921053	-5.0748612006	 2.1117080354	 0.116675
H	 1.0978805003	-4.6508971575	 1.6507656407	 0.114066
H	 1.1407239557	-2.8388387404	 3.4062081106	 0.117898
H	-0.5655071705	-3.2537985157	 3.8870902879	 0.116263
45.1039	70.8056	135.7194	173.0498	245.3666	284.7833	326.745	368.2848	475.5992	606.7407	671.882	742.8605	782.3813	830.8767	832.9396	910.1227	928.5666	957.8283	972.386	990.015	1002.0616	1050.8292	1061.9377	1067.9171	1081.5606	1091.926	1134.4806	1174.4884	1196.5803	1224.9137	1241.1924	1255.9138	1320.3084	1327.5795	1356.2953	1413.1263	1441.3086	1470.6674	1475.5323	1476.6867	1504.6802	1507.2684	1743.3247	3029.9597	3035.8067	3050.1907	3069.3798	3107.0806	3132.8136	3136.573	3141.8676	3165.495	3211.5424	3226.2437
CC1=NCC(O1)C1CC1	CC1=NC[C@@H](O1)C1CC1	
InChI=1S/C7H11NO/c1-5-8-4-7(9-5)6-2-3-6/h6-7H,2-4H2,1H3	InChI=1S/C7H11NO/c1-5-8-4-7(9-5)6-2-3-6/h6-7H,2-4H2,1H3/t7-/m1/s1
