19
gdb 85258	2.50788	1.54768	1.16374	4.9351	76.17	-0.2326	0.0251	0.2577	1114.346	0.160937	-419.230492	-419.222102	-419.221158	-419.263633	32.202	
C	 0.6248231109	 1.4487921771	-0.1857555053	-0.3903
C	-0.0855131109	 0.1113866402	 0.0491007832	 0.030749
C	 0.1130327559	-0.9070246392	-1.1082924965	-0.328128
C	 1.2732078304	-1.7704515739	-0.6418119054	 0.206329
C	 1.7633156443	-2.9932853899	-1.3108230998	-0.286391
N	 2.5999969982	-1.7818342354	-1.3005591937	-0.339592
C	 1.3223657866	-1.6410977852	 0.8693245584	 0.40591
O	 1.9779263312	-2.3028870449	 1.6418320361	-0.382542
N	 0.4616043795	-0.6222652371	 1.186063365	-0.327914
H	 1.6864273443	 1.2904727574	-0.4016125766	 0.13508
H	 0.172221561	 1.9830447823	-1.0277716175	 0.118451
H	 0.5513831566	 2.0912432534	 0.6977922207	 0.117725
H	-1.1533773481	 0.2969041378	 0.2106161318	 0.08662
H	-0.7901426047	-1.5151560292	-1.2226162739	 0.119477
H	 0.301907212	-0.4069006563	-2.0624368152	 0.105336
H	 2.1401167178	-3.8016517647	-0.691163275	 0.142695
H	 1.2815315186	-3.2934441431	-2.2382287639	 0.109847
H	 2.5187283255	-1.3086440051	-2.1988385468	 0.227681
H	 0.4284271607	-0.2676684741	 2.1294316346	 0.248966
65.4677	101.6746	238.5199	260.4762	267.9257	311.4496	368.9609	427.022	476.1121	513.1992	584.8565	689.6362	731.3306	745.2486	817.666	844.6191	886.2982	937.7085	956.1528	981.6551	995.359	1043.8063	1049.097	1117.6612	1135.942	1145.6722	1195.6723	1235.6093	1265.625	1283.5171	1331.4805	1335.1678	1390.6935	1406.9227	1414.5357	1435.8659	1481.9893	1495.9361	1496.914	1498.9152	1837.2578	3031.5707	3032.5176	3050.2166	3093.7018	3103.9692	3106.9151	3111.9802	3201.7424	3478.5356	3632.448
CC1CC2(CN2)C(=O)N1	C[C@H]1C[C@]2(CN2)C(=O)N1	
InChI=1S/C6H10N2O/c1-4-2-6(3-7-6)5(9)8-4/h4,7H,2-3H2,1H3,(H,8,9)	InChI=1S/C6H10N2O/c1-4-2-6(3-7-6)5(9)8-4/h4,7H,2-3H2,1H3,(H,8,9)/t4-,6-/m0/s1
