17
gdb 46524	3.81161	1.23938	1.06822	4.8716	68.88	-0.2398	0.061	0.3008	1120.2088	0.137897	-455.168843	-455.160745	-455.159801	-455.202172	30.155	
O	 0.0025794003	-0.0709188616	-0.0254264373	-0.416122
C	-0.0129527012	 1.1454131253	 0.0467916426	 0.445035
N	-1.186821979	 1.863202513	 0.1328789066	-0.345182
C	-1.305229518	 3.3042761474	 0.0002648672	-0.222714
C	-0.0448209677	 3.9608200495	 0.5178394281	 0.406047
C	-0.0574475962	 5.3502325744	 0.9781869249	-0.24124
O	-0.0301076494	 4.2694788499	 1.9145850306	-0.258753
C	 1.2184590994	 3.3384637856	-0.0338376312	-0.222755
N	 1.1429088038	 1.8948039537	 0.1019777134	-0.345177
H	-2.0070831597	 1.2920398636	 0.0119011159	 0.252774
H	-1.4677561448	 3.6102718254	-1.0466284438	 0.107045
H	-2.1580236686	 3.6578218358	 0.5874019798	 0.123134
H	 0.8526273785	 5.9464433471	 0.9208364218	 0.117485
H	-0.9845830884	 5.92151005	 0.9457007669	 0.117486
H	 1.3440850858	 3.6480215637	-1.0847571786	 0.107037
H	 2.0769699304	 3.7154586252	 0.5299068709	 0.123129
H	 1.9748119046	 1.3460734719	-0.0413034478	 0.25277
56.786	74.8302	165.6824	295.9985	347.7103	353.3128	432.3898	461.4642	475.8531	530.7741	590.8389	684.1777	755.1473	797.7377	836.8175	890.2631	943.6913	952.2492	1010.6161	1073.1771	1075.4172	1127.5775	1159.4176	1177.5934	1231.1708	1268.3606	1276.4747	1315.0321	1350.171	1415.0503	1438.8042	1477.2304	1479.0112	1508.3318	1526.7601	1538.8177	1806.7123	2957.6906	2967.0116	3075.155	3077.2909	3080.7597	3164.8893	3651.5044	3654.2234
O=C1NCC2(CO2)CN1	O=C1NCC2(CO2)CN1	
InChI=1S/C5H8N2O2/c8-4-6-1-5(2-7-4)3-9-5/h1-3H2,(H2,6,7,8)	InChI=1S/C5H8N2O2/c8-4-6-1-5(2-7-4)3-9-5/h1-3H2,(H2,6,7,8)
