14
gdb 49172	3.00859	1.42086	1.03578	4.7476	70.05	-0.2455	-0.0924	0.1531	1086.433	0.10119	-436.686877	-436.679495	-436.678551	-436.719058	27.182	
O	-0.9367347064	 1.2234355248	-0.1112187002	-0.265846
C	 0.1990697087	 0.8540663081	 0.0851325775	 0.081354
C	 1.3781713822	 1.7366893195	-0.0231680697	 0.074331
C	 1.3702786184	 3.0488192726	-0.3282782402	-0.105127
C	 2.7446473438	 3.6265778386	-0.2689036818	-0.096184
N	 3.3075382957	 3.5159146318	 1.1090852652	-0.319619
C	 3.6585033653	 2.5094474485	 0.0710934351	-0.172037
C	 2.7858299801	 1.2686417566	 0.1901316852	 0.381105
O	 3.1549931955	 0.1354615427	 0.3774602872	-0.319477
H	 0.4339425035	-0.1930249595	 0.3596023811	 0.104541
H	 0.4780340093	 3.622045393	-0.551193239	 0.153327
H	 3.035101203	 4.4610803508	-0.8951849536	 0.116475
H	 4.0933352769	 4.1619922255	 1.1928189061	 0.245691
H	 4.6787111842	 2.4274991271	-0.283015503	 0.121465
107.4648	158.4792	173.2668	217.5619	352.6506	361.4702	440.3446	553.9494	619.2528	705.1467	797.8074	820.7865	839.4148	862.4732	894.2325	924.2616	951.6586	1014.2099	1054.6499	1065.7317	1130.7506	1149.1197	1211.5999	1256.8225	1314.6897	1347.9051	1379.0035	1430.8546	1644.5211	1791.1746	1827.6646	2947.6594	3191.4878	3200.4881	3215.9014	3462.8874
O=CC1=CC2NC2C1=O	O=CC1=C[C@H]2N[C@H]2C1=O	
InChI=1S/C6H5NO2/c8-2-3-1-4-5(7-4)6(3)9/h1-2,4-5,7H	InChI=1S/C6H5NO2/c8-2-3-1-4-5(7-4)6(3)9/h1-2,4-5,7H/t4-,5-/m1/s1
