14
gdb 125349	3.3955	1.78965	1.18056	2.3622	68.81	-0.2232	-0.02	0.2031	967.8686	0.103588	-432.887425	-432.880647	-432.879703	-432.918726	25.385	
C	-0.0155595081	 1.5095467451	 0.0938308499	-0.49459
C	-0.0103593461	 0.0258505841	-0.0012336024	 0.249977
C	-0.0391238513	-0.858772879	-1.0606443972	-0.162423
N	-0.0194271465	-2.2004545255	-0.6746268901	-0.395205
C	 0.0208880876	-2.0946660228	 0.6157560767	 0.474854
O	 0.0596743848	-2.9268484126	 1.6942615579	-0.199923
C	 0.0887823675	-2.0668082894	 2.7553049798	 0.079563
N	 0.0727837004	-0.8059675745	 2.4680445173	-0.236316
N	 0.0291189244	-0.8253808356	 1.0933390165	-0.034394
H	 0.8816644503	 1.8908246774	 0.5947602041	 0.140533
H	-0.0499748171	 1.9387698648	-0.9100861495	 0.141209
H	-0.8832018321	 1.8810159532	 0.6510731451	 0.140533
H	-0.0738394418	-0.5980231906	-2.1078745161	 0.117687
H	 0.1224905179	-2.4977283647	 3.741602738	 0.178493
132.9161	183.137	218.1798	236.742	376.7848	548.784	617.5167	621.9437	634.4035	719.4151	730.8407	809.0456	820.1547	835.7911	950.7132	1003.704	1068.1317	1090.186	1115.4845	1163.8853	1213.6042	1270.1477	1292.8293	1396.0524	1421.6496	1432.1446	1475.6273	1498.2879	1567.4766	1590.6876	1644.0609	3029.3872	3078.3281	3126.9486	3249.7488	3304.9666
CC1=CN=C2OC=NN12	Cc1cnc2ocnn12	
InChI=1S/C5H5N3O/c1-4-2-6-5-8(4)7-3-9-5/h2-3H,1H3	InChI=1S/C5H5N3O/c1-4-2-6-5-8(4)7-3-9-5/h2-3H,1H3
