25
gdb 107011	2.76089	1.19573	0.99894	0.3143	92.61	-0.2406	0.0793	0.3199	1356.8963	0.228132	-352.343094	-352.332912	-352.331968	-352.377696	39.074	
C	-0.8861637661	 0.9116148427	-0.5355612379	-0.373383
C	-0.1664684956	-0.4355407388	-0.3772363155	-0.296755
C	 0.8624201312	-0.7001760558	-1.4447879401	 0.392177
C	 0.5094683463	-1.2943041927	-2.7826915469	-0.337914
C	 1.4747055428	-2.0312404578	-1.8921206589	-0.135599
C	 2.8764620043	-1.4105936996	-1.9514548965	 0.015501
C	 3.6774083757	-1.5236954246	-3.2447648983	-0.405016
C	 2.2501666593	-0.0254384743	-1.5142925457	-0.06004
C	 2.4384862027	 1.2077799442	-2.3927900623	-0.411792
H	-0.1824074671	 1.7482430283	-0.4729169401	 0.118093
H	-1.3910167484	 0.975154034	-1.5050358972	 0.116873
H	-1.6378647544	 1.0522637832	 0.2477570653	 0.108006
H	 0.3143707	-0.4752865022	 0.6100170568	 0.091042
H	-0.906977026	-1.2459510834	-0.3881924984	 0.092485
H	-0.4833807891	-1.7314640424	-2.8383494252	 0.104565
H	 0.8350548787	-0.8423857742	-3.7159070976	 0.10055
H	 1.251374797	-3.0283852763	-1.5276252194	 0.075624
H	 3.487975262	-1.7948912279	-1.1285954092	 0.068039
H	 3.1099864267	-1.1866175692	-4.1175387974	 0.11238
H	 4.5964593994	-0.929049226	-3.1966186311	 0.110229
H	 3.9671474708	-2.5649503711	-3.425553573	 0.111799
H	 2.589790248	 0.2125689154	-0.4999754228	 0.064713
H	 2.080737301	 1.048034478	-3.4142221838	 0.11338
H	 1.8921321518	 2.0649187591	-1.9844890185	 0.114185
H	 3.495503949	 1.4901886016	-2.4538539861	 0.110858
74.2046	109.7041	181.4208	193.3616	210.4872	216.4108	230.5791	281.7095	311.8445	354.8705	413.5844	498.8996	556.9736	643.1633	676.3949	748.8966	786.7583	826.9944	856.8748	903.599	940.6813	968.2634	999.3637	1011.5189	1017.2589	1043.2353	1053.084	1074.8729	1081.4257	1101.4794	1130.0019	1147.3734	1168.645	1218.044	1235.9973	1263.1554	1295.4046	1327.8786	1355.8663	1365.4325	1373.3572	1403.1342	1404.4855	1407.7043	1423.8973	1480.0744	1487.3293	1489.564	1493.8567	1499.281	1503.7258	1506.7943	1510.9967	3006.498	3026.2846	3029.1745	3031.6769	3033.5927	3040.6692	3049.5712	3087.9345	3091.4581	3101.1948	3102.4482	3104.2391	3108.0974	3113.2963	3161.556	3190.6705
CCC12CC1C(C)C2C	CC[C@]12C[C@H]1[C@@H](C)[C@H]2C	
InChI=1S/C9H16/c1-4-9-5-8(9)6(2)7(9)3/h6-8H,4-5H2,1-3H3	InChI=1S/C9H16/c1-4-9-5-8(9)6(2)7(9)3/h6-8H,4-5H2,1-3H3/t6-,7+,8-,9+/m0/s1
