13
gdb 24891	3.50828	1.29824	0.94758	2.6159	78.48	-0.2452	-0.0728	0.1724	1135.0897	0.090702	-415.642772	-415.635554	-415.63461	-415.674604	27.261	
O	-0.0947576429	-0.065609141	 0.0038136711	-0.381452
C	 0.0091754331	 1.1441084267	 0.0091309447	 0.403415
N	-1.1478869083	 1.9613982394	 0.0293834908	-0.386176
C	-1.1300785106	 3.3258364599	 0.0367042335	 0.269509
N	-0.0289835684	 4.025947289	 0.0255753517	-0.319119
C	 1.1360771054	 3.3047460909	 0.0057299304	-0.001528
C	 1.214797197	 1.9468631113	-0.0028499633	-0.21245
C	-2.4016396295	 3.9770281423	 0.0575554898	 0.236749
C	-3.4891427758	 4.489100185	 0.0751367248	-0.351373
H	-2.0323770693	 1.469532205	 0.0386766297	 0.274012
H	 2.0403370148	 3.9069437171	-0.0032525509	 0.124122
H	 2.1627991847	 1.4249923075	-0.0186490431	 0.127128
H	-4.4417532001	 4.9604380068	 0.0906520908	 0.217163
126.3528	144.4977	176.5923	329.8892	421.8345	447.2071	496.4984	539.8652	576.3533	657.0336	681.0704	681.6695	747.7026	749.8183	784.2921	864.6636	929.5398	1002.8804	1016.0629	1090.7594	1210.5659	1232.7148	1291.1678	1427.2033	1466.6699	1565.8184	1620.9671	1807.9632	2240.3935	3171.8518	3225.0023	3495.5678	3592.9367
O=C1NC(=NC=C1)C#C	O=c1[nH]c(ncc1)C#C	
InChI=1S/C6H4N2O/c1-2-5-7-4-3-6(9)8-5/h1,3-4H,(H,7,8,9)	InChI=1S/C6H4N2O/c1-2-5-7-4-3-6(9)8-5/h1,3-4H,(H,7,8,9)
