19
gdb 37571	3.66455	1.58792	1.35604	2.0849	78.21	-0.2279	0.0732	0.3011	983.7942	0.161219	-385.788412	-385.781718	-385.780774	-385.819466	27.891	
C	-0.0386467119	 1.5530383161	-0.1852814577	-0.190609
C	 1.4231821074	 2.1010135623	 0.0064060286	-0.255127
C	 2.2852708869	 0.8472958402	-0.1769465207	-0.057594
C	 3.2582256793	 0.2236062817	 0.8542877552	-0.123998
C	 2.131305226	 0.012605078	 1.89899521	 0.041172
O	 2.4072367706	-1.4018490569	 2.1166685065	-0.327963
C	 2.6031921828	-1.2090177206	 0.6887102052	-0.037806
C	 1.4163745527	-0.2048131806	 0.5071509686	 0.376251
C	-0.0387497359	 0.0140200952	 0.171753535	-0.380832
H	-0.7549977842	 2.1099771591	 0.4246184115	 0.102979
H	-0.3480245502	 1.6834765521	-1.2266428928	 0.105799
H	 1.6455617829	 2.9106894554	-0.6933416999	 0.09524
H	 1.540815038	 2.5074314165	 1.0169879374	 0.100989
H	 2.5280210248	 0.6482378372	-1.2267872084	 0.065495
H	 4.3105216618	 0.4207637711	 1.0619598869	 0.080094
H	 1.8389899595	 0.6180274065	 2.7562746869	 0.09392
H	 2.9185239556	-2.0566266791	 0.0798973261	 0.09306
H	-0.712796052	-0.2259152968	 0.9983868038	 0.111243
H	-0.3538914041	-0.5817146774	-0.6905754523	 0.107687
93.5298	230.4597	268.5915	328.0965	514.0398	579.9773	617.5917	696.6992	720.4237	771.0444	772.335	820.2582	847.5903	857.1268	874.3368	906.2915	915.3483	926.6362	977.666	1003.0677	1017.8526	1058.6312	1083.9975	1103.0025	1121.8568	1140.7637	1168.0811	1176.8027	1197.147	1214.4231	1232.647	1259.0221	1276.3713	1283.9401	1311.8382	1319.6103	1357.993	1392.9374	1484.0842	1494.077	1507.9491	3039.9864	3046.2812	3048.9873	3060.0469	3084.7887	3096.6272	3108.2826	3109.8468	3118.3372	3129.5614
C1CC2C3C4OC3C24C1	C1C[C@H]2[C@H]3[C@@H]4O[C@H]3[C@]24C1	
InChI=1S/C8H10O/c1-2-4-5-6-8(4,3-1)7(5)9-6/h4-7H,1-3H2	InChI=1S/C8H10O/c1-2-4-5-6-8(4,3-1)7(5)9-6/h4-7H,1-3H2/t4-,5-,6-,7+,8+/m0/s1
