18
gdb 72818	2.82193	1.55239	1.26781	3.0341	71.41	-0.2422	0.0259	0.2682	1037.1747	0.148882	-439.119345	-439.111348	-439.110404	-439.151895	30.547	
C	-0.1269241912	 1.4995487826	 0.1332897887	-0.460401
C	 0.0228129157	-0.0053137415	 0.0482007704	 0.432212
C	-1.2996721994	-0.7686677559	-0.1757031179	-0.212032
N	-1.1183764479	-1.9886563325	 0.5878683389	-0.316786
C	-0.0203787928	-2.0447688546	 1.4041639745	 0.412624
O	 0.2586586409	-2.9479061841	 2.1622607324	-0.386256
C	 0.7903205507	-0.7767173586	 1.1480557053	-0.251547
C	 1.8764098054	-0.9603025769	 0.0695704571	-0.087922
O	 1.0164097797	-0.3907512568	-0.9415390789	-0.323965
H	 0.8447800503	 1.9742122623	 0.293956505	 0.127883
H	-0.5450434469	 1.892217895	-0.7999415152	 0.130985
H	-0.7939427715	 1.782197435	 0.9542589059	 0.121742
H	-2.1651246213	-0.1932307064	 0.1797118132	 0.104014
H	-1.4286432611	-0.9645347556	-1.2459591621	 0.126412
H	-1.7916821753	-2.7383304741	 0.6022723384	 0.252851
H	 1.0724671463	-0.278197783	 2.0745140644	 0.102226
H	 2.7773498812	-0.3545864425	 0.2264625744	 0.106021
H	 2.1687682974	-1.9904052325	-0.1591232844	 0.121941
82.3596	142.337	222.1991	229.0219	276.3383	346.2391	378.2831	478.8308	530.2686	568.6235	634.7073	715.2624	752.2703	804.482	876.719	896.2196	940.9685	971.7984	1001.3533	1012.1345	1068.3323	1082.2515	1127.0469	1157.483	1159.1975	1212.1391	1237.7089	1246.18	1264.8557	1323.2091	1344.3816	1363.3246	1411.2136	1450.3512	1484.6524	1490.2622	1518.6374	1527.3666	1827.0159	3008.1052	3021.7209	3035.4623	3063.7529	3076.1415	3104.6032	3118.2074	3126.3627	3641.3114
CC12CNC(=O)C1CO2	C[C@]12CNC(=O)[C@H]1CO2	
InChI=1S/C6H9NO2/c1-6-3-7-5(8)4(6)2-9-6/h4H,2-3H2,1H3,(H,7,8)	InChI=1S/C6H9NO2/c1-6-3-7-5(8)4(6)2-9-6/h4H,2-3H2,1H3,(H,7,8)/t4-,6+/m1/s1
