21
gdb 102383	1.76229	1.44662	1.05517	1.6929	80.11	-0.2556	0.0395	0.2951	1271.3026	0.179657	-424.186526	-424.175619	-424.174675	-424.222618	39.882	
C	 0.0780479424	 1.5853824221	 0.2648038205	-0.400661
C	-0.0606786349	 0.0860953302	-0.008677296	-0.210642
C	 0.6793001237	-0.4392967632	-1.2668477921	 0.016994
C	 0.6705233991	-1.9911948551	-1.2112317986	-0.103683
O	 1.0749937712	-2.5923954861	-2.4293802267	-0.434015
C	-0.035767087	 0.0189659416	-2.5762309493	-0.080923
O	-1.2797833012	-0.6266389412	-2.7610816081	-0.42862
C	 2.0710883363	 0.0093833724	-1.3235205522	 0.326481
C	 3.2266778708	 0.3330896381	-1.4213823121	-0.491866
H	 1.1249482775	 1.867928398	 0.4071916298	 0.128975
H	-0.3238738096	 2.1908624994	-0.5535381508	 0.121135
H	-0.4726710763	 1.8562796056	 1.1706547978	 0.114992
H	 0.3007162243	-0.4717795689	 0.8640647631	 0.098513
H	-1.1168613236	-0.1756000834	-0.1379454448	 0.120272
H	 1.2906779901	-2.3254955489	-0.3684017248	 0.102842
H	-0.3541977128	-2.328142191	-1.0345522594	 0.11747
H	 1.9781208671	-2.302580922	-2.6057008039	 0.29017
H	-0.2370204256	 1.0924014707	-2.5257883824	 0.11682
H	 0.6326678172	-0.1537818474	-3.4267583633	 0.099002
H	-1.0826186962	-1.5090815539	-3.0955491625	 0.297794
H	 4.2410567475	 0.6410875931	-1.4890797943	 0.198949
46.296	92.0853	111.8318	137.5251	167.7055	208.0519	250.0424	283.443	308.6134	388.9078	404.3625	440.0634	485.5996	501.0322	537.0651	613.1338	629.99	650.0099	738.7181	791.5393	858.2942	913.0138	990.1984	1023.79	1037.4824	1077.2791	1084.9875	1109.2167	1163.9533	1183.433	1246.1995	1252.8179	1327.0051	1362.05	1376.3212	1405.12	1409.2906	1418.4204	1423.955	1483.4304	1490.8025	1501.4635	1504.8152	1507.3051	2218.143	3011.3283	3027.8741	3040.2131	3043.7805	3071.9614	3098.4214	3098.8657	3108.2335	3118.7597	3498.1919	3787.0931	3800.6794
CCC(CO)(CO)C#C	CCC(CO)(CO)C#C	
InChI=1S/C7H12O2/c1-3-7(4-2,5-8)6-9/h1,8-9H,4-6H2,2H3	InChI=1S/C7H12O2/c1-3-7(4-2,5-8)6-9/h1,8-9H,4-6H2,2H3
