21
gdb 111876	2.53509	1.46669	1.31306	0.4324	77.87	-0.2124	0.0742	0.2866	1107.0097	0.183863	-424.197189	-424.188634	-424.18769	-424.230361	32.631	
C	 0.0270587138	 1.1522018238	 0.4110061836	-0.235758
O	-0.2136355492	 0.1250661228	-0.5382994439	-0.236677
C	-1.400246942	-0.5578451367	-0.2929735691	 0.063317
C	-1.4459696562	-2.0087123632	-0.7259402185	-0.141912
C	-0.2107548042	-2.6678720274	-1.3312798993	-0.222382
C	 0.6098192814	-3.3686689919	-0.2393617384	-0.209861
C	 0.8940771841	-2.4040228196	 0.9056491566	-0.054962
O	-0.2915566841	-1.9193590676	 1.5415910162	-0.264469
C	-1.4107661315	-1.655036596	 0.7482062452	 0.066462
H	 0.9737139783	 1.6241424309	 0.1367134261	 0.122644
H	-0.7679936341	 1.9122959639	 0.3854602107	 0.105518
H	 0.0980116819	 0.7454724793	 1.4267327034	 0.131072
H	-2.3023270184	 0.0451267854	-0.4183476826	 0.076257
H	-2.4014599153	-2.3514436226	-1.1097742119	 0.089555
H	-0.5168306208	-3.3858928116	-2.0971209859	 0.096091
H	 0.409791676	-1.9139152679	-1.8262131247	 0.120587
H	 0.06190775	-4.2373761115	 0.1460977362	 0.10177
H	 1.5618103473	-3.7330433136	-0.6409071843	 0.095461
H	 1.4603291939	-2.8947228266	 1.7033583121	 0.10094
H	 1.4893525513	-1.5591891088	 0.5330677691	 0.101529
H	-2.3141399822	-1.7929209411	 1.3354308292	 0.094817
102.5995	118.4266	150.8992	183.6905	245.5997	293.5827	336.5455	438.8433	472.3188	574.173	634.4464	704.4231	742.1724	773.2498	819.0516	879.4794	901.4693	921.0169	1011.3481	1021.118	1052.6846	1071.2333	1087.6784	1121.5434	1122.2228	1152.5463	1171.3144	1187.3652	1215.4271	1231.3369	1244.6387	1279.6361	1308.1073	1340.359	1359.0043	1370.8764	1379.0337	1415.4214	1439.2279	1476.1504	1480.8822	1486.7518	1491.1663	1507.8696	1511.5299	2991.8402	3011.0798	3029.0819	3049.6891	3063.1704	3070.4089	3074.6377	3077.6526	3093.5429	3119.1808	3142.2565	3155.6825
COC1C2CCCOC12	CO[C@H]1[C@H]2CCCO[C@@H]12	
InChI=1S/C7H12O2/c1-8-6-5-3-2-4-9-7(5)6/h5-7H,2-4H2,1H3	InChI=1S/C7H12O2/c1-8-6-5-3-2-4-9-7(5)6/h5-7H,2-4H2,1H3/t5-,6+,7-/m1/s1
