18
gdb 97534	2.67512	0.77851	0.72317	2.8435	81.65	-0.2718	0.0093	0.2812	1650.4334	0.144726	-401.929135	-401.918449	-401.917505	-401.966155	37.14	
C	 0.0082486288	 1.4943908314	 0.0241566892	-0.394683
C	 0.0267063077	-0.0569629559	-0.0117012851	-0.111363
C	 0.7765782997	-0.614728282	 1.2268877317	-0.393771
C	-1.3685934224	-0.5467906084	 0.0211360865	 0.291374
N	-2.4609346584	-0.9201715598	 0.0692192413	-0.341737
C	 0.6686302496	-0.5240014914	-1.2469485399	 0.113272
C	 1.2305978408	-0.8832397847	-2.2492986231	 0.035201
C	 1.8745911646	-1.3813409167	-3.4665349519	-0.196639
O	 2.3035868601	-2.7299040525	-3.367169381	-0.3977
H	 1.0356455178	 1.865648089	 0.0035009938	 0.135157
H	-0.5280801996	 1.8960728857	-0.8375241925	 0.145562
H	-0.4798821592	 1.8420252662	 0.9383010196	 0.136438
H	 0.2882553213	-0.2773312748	 2.1448385959	 0.135555
H	 0.7886304545	-1.7061493526	 1.2139591893	 0.145215
H	 1.8073810331	-0.2526761935	 1.2151298352	 0.135893
H	 1.1933636213	-1.2340543862	-4.3194245772	 0.126067
H	 2.7759574573	-0.7957027105	-3.6780415932	 0.144519
H	 1.538063073	-3.2611733234	-3.1236641787	 0.29164
22.1045	78.8137	90.7587	183.6877	198.9762	202.6692	234.2554	265.4818	290.593	331.9159	356.5313	446.5022	481.0375	519.6386	586.3334	612.6873	657.5823	824.6954	932.2239	945.0661	982.2519	1037.3342	1040.8331	1084.0699	1139.3592	1213.1065	1216.8215	1266.0055	1364.1682	1395.8103	1417.0893	1419.1691	1478.5291	1481.6037	1488.5489	1493.0019	1505.8667	2356.09	2364.4441	2982.7595	3050.9446	3053.8818	3066.4385	3131.3897	3135.6407	3141.9427	3143.1799	3815.4007
CC(C)(C#N)C#CCO	CC(C)(C#N)C#CCO	
InChI=1S/C7H9NO/c1-7(2,6-8)4-3-5-9/h9H,5H2,1-2H3	InChI=1S/C7H9NO/c1-7(2,6-8)4-3-5-9/h9H,5H2,1-2H3
