25
gdb 110050	1.98107	1.44732	0.97309	1.2579	88.19	-0.2596	0.0745	0.3341	1343.3032	0.229272	-389.506793	-389.496457	-389.495513	-389.541764	39.102	
C	-0.9080073835	 1.1451187617	-0.0353495953	-0.402786
C	 0.0706160475	-0.0288241044	-0.0186179751	 0.049358
C	 1.1686754138	 0.054758156	-1.1098033473	-0.216324
C	 2.353473721	-0.8010741233	-0.5892201213	-0.217836
C	 1.9044917989	-1.3411555947	 0.7924183929	 0.039585
C	 3.0568499944	-1.6917725912	 1.734104092	-0.424623
C	 0.86098194	-0.3043191352	 1.2877172337	-0.005403
C	 1.484183412	 0.9385565699	 1.9266746929	-0.091385
O	 0.4471765502	 1.6793181295	 2.5626780358	-0.419471
H	-0.4000553407	 2.0982369479	 0.1344489767	 0.112499
H	-1.4138121958	 1.1993925037	-1.0063729273	 0.097259
H	-1.6718773215	 1.0437288724	 0.7406278898	 0.115577
H	-0.5094093778	-0.9429445073	-0.2088739926	 0.065056
H	 0.7933692729	-0.2887591233	-2.0783950731	 0.092459
H	 1.4767196356	 1.0968366468	-1.2530059975	 0.092319
H	 2.6166972982	-1.6162517023	-1.2699975991	 0.093092
H	 3.2560852359	-0.1888751437	-0.4786621572	 0.091303
H	 1.3363533775	-2.2643383625	 0.6154742114	 0.071708
H	 3.7323609027	-0.8441122453	 1.891041733	 0.113325
H	 2.6925621081	-2.017694557	 2.714617635	 0.111779
H	 3.656964962	-2.5081073242	 1.3174528805	 0.110522
H	 0.2103641401	-0.74592769	 2.051983977	 0.069683
H	 2.2391934668	 0.6365496846	 2.6666305439	 0.086598
H	 1.9994935329	 1.5517074068	 1.1697573919	 0.082706
H	 0.8384607985	 2.4676911549	 2.9500174192	 0.283
80.8104	95.0909	130.6879	197.6534	225.7696	242.8642	252.4613	257.6774	300.6916	330.0581	374.525	461.0662	526.1024	594.0583	600.3258	780.8874	814.9256	849.8723	885.6058	924.4691	959.8632	968.6402	998.8414	1027.3924	1039.4284	1043.927	1069.0436	1111.862	1126.948	1166.8923	1187.656	1191.4052	1227.9192	1258.952	1268.4566	1287.5254	1299.3884	1310.5227	1337.1946	1344.591	1372.2804	1382.6703	1392.2301	1412.7474	1417.8611	1463.7179	1488.1301	1489.9477	1495.6539	1496.4056	1502.7047	1512.5444	1524.0017	2970.5984	2992.5002	3003.7871	3007.1311	3026.2103	3029.4503	3032.5938	3042.262	3043.8513	3067.3653	3088.1272	3091.1802	3095.7692	3098.731	3118.2501	3828.0258
CC1CCC(C)C1CO	C[C@H]1CC[C@@H](C)[C@H]1CO	
InChI=1S/C8H16O/c1-6-3-4-7(2)8(6)5-9/h6-9H,3-5H2,1-2H3	InChI=1S/C8H16O/c1-6-3-4-7(2)8(6)5-9/h6-9H,3-5H2,1-2H3/t6-,7+,8-
