16
gdb 30018	3.21632	1.66581	1.11821	2.2099	71.93	-0.1685	0.0419	0.2104	1040.895	0.125671	-437.877606	-437.869833	-437.868889	-437.91012	28.648	
C	-0.0112067193	 1.4483735262	 0.0484829572	-0.346548
N	 0.0393217018	 0.0014763533	 0.0246924801	-0.126925
C	-0.0563655628	-0.8087417813	-1.1062674041	-0.091374
C	-0.1154442775	-2.1447750791	-0.7328502676	-0.338185
C	-0.0886541394	-2.1279363446	 0.679150204	 0.25383
C	-0.0128568548	-0.8390151625	 1.0894872829	 0.323984
O	 0.2737089567	-0.7160254133	 2.4239787493	-0.293626
C	-0.0279749442	-2.0648875019	 2.8678024545	 0.006118
O	 0.1311781899	-2.9634612524	 1.7681265599	-0.280899
H	 0.5851356983	 1.8235569049	 0.8834987795	 0.152659
H	 0.4114120543	 1.8346398192	-0.8812689323	 0.142975
H	-1.0366682913	 1.8209878155	 0.1548516052	 0.139914
H	-0.1745930009	-0.3538107467	-2.076525536	 0.115969
H	-0.1761458498	-2.9863010254	-1.403430539	 0.10835
H	 0.6611538016	-2.3356155572	 3.6688153085	 0.131318
H	-1.0768776625	-2.0820060247	 3.2050883978	 0.102439
88.7663	135.887	165.2101	243.8515	250.998	308.6654	509.8698	580.5633	610.3581	616.7901	656.0186	665.6524	767.4135	775.9208	815.5907	895.6655	1021.9617	1052.1657	1075.1729	1106.7249	1138.9756	1150.2762	1212.0952	1237.6814	1261.671	1349.3098	1410.2491	1449.1168	1466.6404	1484.4632	1494.4966	1510.7893	1520.7778	1586.1994	1648.3944	2970.4387	3031.5027	3103.7345	3126.2564	3138.2404	3255.9078	3272.5745
CN1C=CC2=C1OCO2	Cn1ccc2c1OCO2	
InChI=1S/C6H7NO2/c1-7-3-2-5-6(7)9-4-8-5/h2-3H,4H2,1H3	InChI=1S/C6H7NO2/c1-7-3-2-5-6(7)9-4-8-5/h2-3H,4H2,1H3
