14
gdb 14581	14.4893	0.65679	0.63581	1.4805	63.93	-0.3054	-0.0066	0.2988	1599.1345	0.105994	-378.731013	-378.722394	-378.72145	-378.765501	28.172	
N	-0.0448654263	-1.1190796999	-0.003939272	-0.293503
C	-0.0178536819	 0.0356771712	 0.0018418185	 0.248504
C	 0.0455456426	 1.4936554218	 0.009025278	-0.341077
C	 1.4927367948	 1.9971101006	-0.0020565964	-0.053053
O	 1.4256725141	 3.4085146685	 0.006152124	-0.23785
C	 2.6982880698	 4.0112475003	-0.0025538737	-0.190066
C	 2.5375132233	 5.4674396574	 0.0070130578	 0.267558
N	 2.4417624892	 6.6176107491	 0.0143258807	-0.283966
H	-0.4828022065	 1.887460292	-0.8651687157	 0.171289
H	-0.4660500094	 1.878027472	 0.8972639929	 0.171294
H	 2.0343638643	 1.6229464061	 0.8797962123	 0.122167
H	 2.017408689	 1.6324840378	-0.8980380168	 0.122167
H	 3.2915899513	 3.7152042354	 0.8774589339	 0.148268
H	 3.2748062656	 3.7249880078	-0.8968409937	 0.148267
41.2864	86.0216	99.1357	126.1429	165.9229	314.4193	372.1813	383.9559	397.3668	521.9089	595.8905	797.8502	941.0285	960.6141	1028.5049	1031.8579	1079.44	1094.1429	1161.7228	1227.4156	1258.7483	1302.2292	1304.4713	1388.607	1446.8965	1470.9534	1494.8314	1528.0682	2369.3001	2376.9037	2977.4514	2987.5406	3005.8147	3023.1525	3060.0957	3104.261
N#CCCOCC#N	N#CCCOCC#N	
InChI=1S/C5H6N2O/c6-2-1-4-8-5-3-7/h1,4-5H2	InChI=1S/C5H6N2O/c6-2-1-4-8-5-3-7/h1,4-5H2
