16
gdb 112997	3.59577	1.04452	0.86043	5.0543	68.59	-0.2639	-0.0472	0.2167	1292.832	0.123648	-475.055075	-475.046301	-475.045357	-475.089327	30.662	
O	 0.0291327111	 1.4166749468	 0.1457306202	-0.415208
C	 0.0683700001	 0.036642074	-0.1371413138	-0.072621
C	-1.3422730458	-0.5584585648	-0.1078439194	-0.173234
C	-1.5159272566	-2.1043268025	-0.0615798297	-0.214556
N	-2.1166447129	-1.9463550638	 1.2827090734	-0.131665
C	-2.5878481884	-2.8860791706	 2.1853163188	 0.154506
O	-3.038935748	-2.6343902006	 3.2701714208	-0.262041
C	-1.9468606242	-0.5464556826	 1.3030254947	 0.446241
O	-2.1311418529	 0.2887441857	 2.1402473385	-0.334191
H	-0.4275298237	 1.5292907634	 0.9898163259	 0.303228
H	 0.5097061521	-0.0711766048	-1.133347107	 0.119019
H	 0.712859739	-0.5130334588	 0.5696088527	 0.095305
H	-1.9761758219	-0.0581188932	-0.8435243148	 0.125755
H	-2.1999358632	-2.5236889778	-0.8023974898	 0.135077
H	-0.5814354113	-2.6724443571	-0.0496232421	 0.133056
H	-2.4991499934	-3.9119330634	 1.7738719317	 0.091328
57.499	106.0983	147.8695	181.5788	201.7269	212.9557	322.2344	378.8626	461.9121	489.4871	540.9524	700.4084	771.0886	791.4129	880.7605	974.0293	1008.5415	1033.6572	1080.359	1090.0329	1125.8473	1144.9238	1170.1985	1185.9485	1249.6227	1267.3317	1332.5998	1359.2587	1388.5486	1433.1889	1442.3147	1513.1571	1515.8045	1807.8724	1896.5633	2932.0324	2963.4732	3060.3409	3071.0599	3097.4037	3118.8513	3767.3144
OCC1CN(C=O)C1=O	OC[C@H]1CN(C=O)C1=O	
InChI=1S/C5H7NO3/c7-2-4-1-6(3-8)5(4)9/h3-4,7H,1-2H2	InChI=1S/C5H7NO3/c7-2-4-1-6(3-8)5(4)9/h3-4,7H,1-2H2/t4-/m1/s1
