15
gdb 79556	4.07047	1.14936	1.01267	5.1146	70.42	-0.2506	-0.0099	0.2408	1137.8662	0.112139	-416.712875	-416.705291	-416.704347	-416.744775	29.338	
O	-0.0437814375	 1.3211349513	-0.0450536944	-0.423227
C	 0.0452859896	-0.0727454344	-0.0197532747	 0.056187
C	-0.5250506022	-0.6950360494	 1.2397878323	-0.057507
C	-1.3135050052	-0.7024575371	-0.0488846252	-0.126008
C	-1.2575939312	-2.2435620481	 0.0201336075	 0.14209
C	 0.1031882432	-2.8260717036	 0.1978221155	-0.272988
N	-0.5390776307	-2.2055078066	 1.3627700984	-0.160657
C	-2.4167268883	-3.0547141257	-0.1976176655	 0.241582
N	-3.3597648789	-3.6909032793	-0.4092668104	-0.334999
H	 0.6709873219	 1.6775119259	 0.4939067776	 0.296924
H	 0.8932967556	-0.4780964866	-0.5667639511	 0.098981
H	-0.6686362411	-0.1208772495	 2.145439462	 0.12158
H	-2.2021580052	-0.1526141057	-0.3233990736	 0.128291
H	 0.1426632344	-3.9074724534	 0.2889343124	 0.15167
H	 0.9713301957	-2.3876211079	-0.2774813307	 0.138081
136.9451	140.3371	278.0296	283.6401	298.4597	357.4029	434.9919	464.9215	550.9338	561.2681	607.7267	729.7394	816.5666	835.1656	864.5507	900.6961	926.5398	977.9131	989.5299	1054.5505	1078.4927	1108.3586	1115.265	1139.162	1187.5524	1196.8357	1256.4083	1280.709	1298.942	1338.3671	1438.7222	1506.3055	2347.902	3111.9769	3141.8631	3204.6407	3227.9978	3230.5919	3803.3193
OC1C2C1C1(CN21)C#N	O[C@H]1[C@H]2[C@@H]1[C@]1(CN21)C#N	
InChI=1S/C6H6N2O/c7-1-6-2-8(6)4-3(6)5(4)9/h3-5,9H,2H2	InChI=1S/C6H6N2O/c7-1-6-2-8(6)4-3(6)5(4)9/h3-5,9H,2H2/t3-,4+,5+,6+,8?/m0/s1
