18
gdb 93520	2.4436	1.54562	1.15148	4.1707	68.38	-0.2579	0.0449	0.3028	1096.7319	0.148706	-476.272864	-476.264276	-476.263332	-476.306171	32.324	
C	 0.0228323817	 1.5697862692	-0.0213495343	-0.402306
C	 0.0222632465	 0.0448816144	 0.050055384	 0.041202
N	 0.6288192542	-0.5302120939	-1.1516828202	-0.373528
C	 1.5423982408	-1.5433348987	-1.2442139437	 0.447372
O	 2.0863703959	-1.8708515543	-2.2673501059	-0.385955
O	 1.8543657981	-2.17922528	-0.0703682952	-0.256064
C	 0.9860575685	-1.9921576561	 1.0563285256	-0.110986
C	 0.7682517149	-0.5027162847	 1.2796043846	 0.103644
O	 1.997702324	 0.1530502665	 1.5270147666	-0.435013
H	 1.0458539634	 1.9503741183	-0.0162691612	 0.142955
H	-0.4853572312	 1.9153640121	-0.9276857403	 0.114549
H	-0.5072950245	 1.9892908187	 0.8390393839	 0.124828
H	-1.0191872489	-0.3040632739	 0.1299230236	 0.08552
H	 0.4495707624	-0.0838437073	-2.0378288485	 0.25683
H	 0.0350161337	-2.5139843862	 0.8917799908	 0.118296
H	 1.5034293444	-2.4504250379	 1.9014225358	 0.131205
H	 0.143922186	-0.3415854911	 2.1645321276	 0.097757
H	 2.6674099102	-0.256498015	 0.9657665967	 0.299693
78.9488	100.6709	203.1346	235.6612	255.2827	332.6294	367.3977	382.4537	435.3225	515.9379	543.5514	587.7638	629.0359	746.6202	765.0493	856.3103	877.0425	909.8487	991.2948	998.0622	1037.828	1088.755	1102.4595	1145.5312	1210.012	1245.331	1267.9065	1295.0705	1334.8033	1368.7945	1393.2944	1408.3167	1425.1107	1427.7646	1462.8952	1491.3307	1498.229	1502.9068	1852.0388	2973.8262	3033.5505	3041.9422	3067.1599	3107.6608	3117.5059	3141.5469	3633.2614	3787.5994
CC1NC(=O)OCC1O	C[C@H]1NC(=O)OC[C@H]1O	
InChI=1S/C5H9NO3/c1-3-4(7)2-9-5(8)6-3/h3-4,7H,2H2,1H3,(H,6,8)	InChI=1S/C5H9NO3/c1-3-4(7)2-9-5(8)6-3/h3-4,7H,2H2,1H3,(H,6,8)/t3-,4-/m1/s1
