15
gdb 25859	4.13036	1.13372	0.89339	6.8771	85.77	-0.1903	-0.0489	0.1413	1226.5931	0.11482	-450.156709	-450.148689	-450.147745	-450.189237	30.606	
N	 0.1485681161	 1.3487526054	 0.1755067962	-0.562099
C	-0.0104659525	-0.0172049156	 0.0099407293	 0.17913
N	 1.1599958344	-0.7198919308	-0.1492392741	-0.541912
H	 1.0430854318	-1.7233979528	-0.1390764882	 0.284136
H	 1.9402269838	-0.3930087139	 0.4036259358	 0.262201
C	-1.2209380928	-0.6469771794	 0.0121608794	 0.358701
C	-2.5665769379	-0.2009129613	-0.027831423	-0.142853
N	-3.4109151541	-1.1944460643	-0.0141717979	-0.308352
C	-2.6304867267	-2.361727238	 0.0278236585	 0.422395
N	-2.9724521661	-3.5806685358	 0.0475829818	-0.558303
O	-1.2798517325	-2.029164005	 0.0434107546	-0.266407
H	 0.8043200897	 1.7679887475	-0.4723963292	 0.26191
H	-0.7097958257	 1.8752483781	 0.2393955167	 0.264101
H	-2.9007153472	 0.8303158086	-0.0717314601	 0.117749
H	-3.9895674902	-3.6268307527	 0.0313907303	 0.229604
114.456	124.2122	164.6082	288.4297	351.6075	375.7115	422.3044	432.9632	520.3463	566.8419	612.715	618.1139	657.5444	701.8217	761.8808	775.1165	823.9839	908.7986	934.7794	943.0682	1026.0184	1063.4526	1135.592	1241.6629	1244.0934	1307.8986	1376.8315	1462.7192	1557.5662	1633.4034	1637.9808	1735.5651	1743.5896	3188.968	3521.318	3541.142	3556.1507	3660.6905	3666.1717
NC(=[NH2+])C1=C[N-]C(=N)O1	NC(=[NH2])c1cnc([NH])o1	
InChI=1S/C4H5N4O/c5-3(6)2-1-8-4(7)9-2/h1H,(H4-,5,6,7,8)/q-1/p+1	InChI=1S/C4H6N4O/c5-3(6)2-1-8-4(7)9-2/h1,7H,5-6H2
