18
gdb 81142	2.44058	1.69336	1.23982	5.0119	76.26	-0.2593	0.0121	0.2714	1048.4229	0.148692	-401.939793	-401.931987	-401.931042	-401.971886	30.53	
C	-0.1877408484	 1.5559550505	-0.0103164051	-0.44212
C	 0.0025566491	 0.0475612348	-0.0109852625	-0.008691
C	 0.8150099175	-0.6074063117	-1.1849495703	-0.108047
C	 2.1144732954	-0.2190908677	-0.4113629799	-0.284687
C	 1.1967979803	-0.5714212999	 0.789664186	 0.351424
O	 0.9854774543	-1.9845022083	 0.6385539006	-0.320098
C	 0.704473153	-2.082074978	-0.784466297	-0.087291
C	 1.4954033488	-0.2159837259	 2.1611118248	 0.20084
N	 1.7252025272	 0.1343810628	 3.2379017574	-0.342378
H	 0.7149983712	 2.1086503806	-0.2814550439	 0.125999
H	-0.9704813852	 1.8327837878	-0.72405858	 0.127224
H	-0.5042605798	 1.9010488348	 0.97924055	 0.142009
H	-0.9423795752	-0.4510841556	 0.2263123465	 0.091976
H	 0.6517980819	-0.3439904442	-2.2285648185	 0.086587
H	 2.999305165	-0.8463049595	-0.5334836952	 0.118612
H	 2.3727458723	 0.8353052835	-0.4783417548	 0.125332
H	-0.2944075725	-2.5049273149	-0.9348809077	 0.1119
H	 1.4482315349	-2.7280623893	-1.2629538303	 0.111409
124.3657	156.4046	189.0083	277.1151	291.813	361.3314	475.464	483.7879	539.6599	549.0225	589.2127	657.5142	787.1975	836.6308	896.9186	907.4373	942.5029	960.6452	987.411	993.7645	1059.2639	1078.4009	1100.0547	1112.2487	1141.8077	1163.9798	1189.2185	1229.5808	1248.5114	1265.0273	1284.4197	1353.3558	1383.8547	1419.9059	1487.8855	1495.6916	1508.8719	1529.9457	2363.8986	3036.3954	3041.6075	3061.096	3081.4719	3092.4321	3103.272	3121.4684	3136.4387	3170.8564
CC1C2CC1(OC2)C#N	C[C@H]1[C@H]2C[C@@]1(OC2)C#N	
InChI=1S/C7H9NO/c1-5-6-2-7(5,4-8)9-3-6/h5-6H,2-3H2,1H3	InChI=1S/C7H9NO/c1-5-6-2-7(5,4-8)9-3-6/h5-6H,2-3H2,1H3/t5-,6-,7+/m0/s1
