21
gdb 120171	3.32873	0.8953	0.81366	1.9312	79.52	-0.258	0.0789	0.3369	1476.7628	0.182126	-424.168196	-424.158983	-424.158039	-424.202637	34.963	
O	-0.0078742746	 1.4436837467	-0.2532888899	-0.420542
C	 0.0216949662	 0.0380154666	-0.0544096644	-0.069239
C	-1.4042686316	-0.4846159374	-0.1929221999	-0.237618
C	-1.4806004507	-1.9981517675	-0.0539900638	 0.015515
C	-1.4455459116	-2.7311227493	 1.3334043255	-0.064739
C	-2.9073194753	-2.2608881628	 1.5841319007	-0.297213
C	-2.8389480704	-2.734629811	 0.0958713339	 0.382997
O	-3.8227302213	-2.6813160781	-0.8736815216	-0.474497
C	-2.0352832463	-3.9729834478	 0.606380865	-0.287389
H	 0.8890310366	 1.7787508409	-0.1652366037	 0.283922
H	 0.6729538327	-0.4552999648	-0.7949436054	 0.082638
H	 0.4168858008	-0.2144570999	 0.9432437128	 0.083869
H	-2.0308471777	 0.0348417857	 0.537622204	 0.107098
H	-1.7808916334	-0.1980719769	-1.1822318319	 0.116406
H	-0.8267873407	-2.4707373001	-0.7981273954	 0.061718
H	-0.6327538256	-2.7345146799	 2.0559237606	 0.077963
H	-3.4984622998	-2.8826842031	 2.2631810902	 0.083335
H	-3.0783766528	-1.2013527517	 1.7743938053	 0.09953
H	-4.5875329898	-3.1782041389	-0.5638628115	 0.282344
H	-1.3906331841	-4.4727511102	-0.1214542563	 0.091197
H	-2.5770022408	-4.6880082404	 1.2322100158	 0.082703
64.2399	85.309	119.3558	238.7447	248.0507	264.7466	307.2127	348.6143	410.4801	454.7449	579.4348	612.8698	649.5009	743.5672	787.1692	819.105	892.4834	911.0385	943.4443	958.2533	997.9353	1012.6563	1038.339	1067.2906	1085.3735	1103.7138	1112.6523	1133.7238	1152.4609	1158.4604	1205.291	1213.9283	1220.2788	1237.5511	1251.1291	1297.6534	1315.1313	1332.4408	1365.1758	1440.1387	1461.5647	1487.5781	1502.482	1527.6699	1545.3502	2957.9429	2983.2347	3021.6812	3043.5835	3046.9991	3059.2462	3093.7041	3116.0497	3136.3159	3142.9152	3808.7826	3829.2926
OCCC1C2CC1(O)C2	OCC[C@H]1[C@H]2C[C@]1(O)C2	
InChI=1S/C7H12O2/c8-2-1-6-5-3-7(6,9)4-5/h5-6,8-9H,1-4H2	InChI=1S/C7H12O2/c8-2-1-6-5-3-7(6,9)4-5/h5-6,8-9H,1-4H2/t5-,6-,7-/m0/s1
