16
gdb 112399	3.52296	1.16488	0.90609	0.9477	66.64	-0.2686	-0.0249	0.2437	1213.4079	0.125152	-475.079616	-475.071665	-475.070721	-475.112754	29.563	
O	-0.0428492995	 1.499153811	-0.1923632371	-0.420639
C	 0.0527132624	 0.1023576231	-0.1092869053	-0.063178
C	-1.3259880674	-0.5680769011	 0.0320519321	-0.124105
C	-1.3251590772	-2.1003345112	 0.0872190074	-0.390817
C	-2.3110717489	-2.4477039144	 1.1892998277	 0.422365
O	-2.7849057287	-3.4942558032	 1.4924701479	-0.296818
O	-2.6151122939	-1.2850783887	 1.8952019224	-0.210961
C	-2.0010946086	-0.1879331281	 1.3342726547	 0.431854
N	-1.999271718	 0.9616870861	 1.8515205376	-0.537973
H	-0.5607504431	 1.7854411422	 0.5771959908	 0.301205
H	 0.5275096354	-0.2467097308	-1.0328668324	 0.113246
H	 0.6900040023	-0.2249267117	 0.731028775	 0.087544
H	-1.9582855538	-0.2081989587	-0.7876316442	 0.131271
H	-1.6132971227	-2.5964671825	-0.84024675	 0.157589
H	-0.3462577463	-2.4993590854	 0.3805333032	 0.156016
H	-2.5012854621	 0.9880096534	 2.7390792803	 0.243401
54.9216	140.1401	171.6895	215.2172	311.7112	368.7546	405.6857	546.8444	549.9532	598.272	639.902	653.0307	704.4192	783.1698	868.5249	902.3432	916.3996	998.4475	1055.4083	1095.3478	1099.6858	1107.5221	1129.9929	1188.9191	1223.2131	1269.8071	1298.2578	1318.6413	1361.5932	1393.0033	1459.7082	1472.5576	1510.0715	1773.633	1926.8849	2951.4582	3046.8693	3053.4166	3066.9361	3130.6553	3493.7302	3678.6966
OCC1CC(=O)OC1=N	OC[C@H]1CC(=O)O[C]1[NH]	
InChI=1S/C5H7NO3/c6-5-3(2-7)1-4(8)9-5/h3,6-7H,1-2H2	InChI=1S/C5H7NO3/c6-5-3(2-7)1-4(8)9-5/h3,6-7H,1-2H2/t3-/m1/s1
