16
gdb 133778	3.15831	1.01257	0.94133	2.2599	58.32	-0.2867	0.0694	0.3561	1271.7629	0.119161	-569.376563	-569.367581	-569.366637	-569.411703	31.741	
C	-0.1145790022	 1.5667470738	-0.3169008203	-0.381439
C	 0.0013632867	 0.1918330981	 0.353255229	-0.229028
C	-1.3240702324	-0.5302381335	 0.358052751	 0.087087
O	-1.7884514635	-1.1140842639	-0.8728338034	-0.242542
C	-1.5336809484	-1.9789856198	 0.2196045671	-0.129958
C	-0.4214205042	-2.9940697814	 0.0535258059	 0.281097
F	 0.5455822899	-2.5898763302	-0.773056667	-0.064058
F	 0.1351857658	-3.2686328785	 1.2449699124	-0.077002
F	-0.9142410705	-4.1431511447	-0.4316354046	-0.074593
H	 0.8457056843	 2.089471487	-0.3002997758	 0.120146
H	-0.4274631204	 1.4618681443	-1.3598693647	 0.137358
H	-0.8493829897	 2.1992986174	 0.1929842881	 0.116889
H	 0.75551245	-0.4117330703	-0.1528479814	 0.125907
H	 0.3243271378	 0.3080245366	 1.3957415589	 0.110156
H	-2.1165784345	-0.0041427688	 0.8961331867	 0.099961
H	-2.4101535986	-2.4356704761	 0.6805608681	 0.12002
33.4864	64.5207	148.4526	183.6392	230.2363	253.2087	304.7842	393.0263	464.3031	500.3489	528.4188	614.2627	688.816	759.534	791.4595	851.909	902.4172	974.0177	1037.7818	1062.8134	1104.9879	1149.139	1176.6582	1188.8614	1194.1668	1276.9298	1303.6656	1317.0422	1354.7318	1409.6403	1425.8102	1479.5609	1497.9872	1499.7633	1510.5358	3036.9691	3038.1912	3080.1641	3101.8058	3113.9747	3119.1326	3138.5458
CCC1OC1C(F)(F)F	CC[C@H]1O[C@H]1C(F)(F)F	
InChI=1S/C5H7F3O/c1-2-3-4(9-3)5(6,7)8/h3-4H,2H2,1H3	InChI=1S/C5H7F3O/c1-2-3-4(9-3)5(6,7)8/h3-4H,2H2,1H3/t3-,4-/m1/s1
