23
gdb 59644	3.2096	1.03677	0.83586	1.0734	82.42	-0.2515	0.0837	0.3352	1466.1717	0.204361	-425.447096	-425.43692	-425.435976	-425.482645	37.211	
C	 0.5396021806	-0.5052469232	 1.3037209734	-0.399273
C	-0.0349098243	 0.0728513713	 0.0026191251	 0.000282
C	 0.060980022	 1.6036731615	-0.0150124286	-0.392467
C	 0.6649671833	-0.5344227168	-1.2113989385	 0.126119
C	 0.4952776076	-2.0609124337	-1.3968212952	-0.111262
O	 0.2854853062	-2.236313913	-2.7931241296	-0.271017
C	 0.4035765715	-0.9622419566	-3.4088788252	 0.22985
C	-0.5569095694	-0.8434592299	-4.5704132231	-0.40416
O	 0.099975676	-0.0170049663	-2.4126450593	-0.269133
H	 0.4251984496	-1.5926534472	 1.3598832808	 0.118272
H	 1.6074179169	-0.2746551843	 1.3982138515	 0.115897
H	 0.032057275	-0.0743086392	 2.1720720971	 0.117782
H	-1.0941818831	-0.2092225135	-0.071111389	 0.080814
H	 1.1047844633	 1.9306400499	 0.0651771758	 0.109336
H	-0.3498420976	 2.0103494212	-0.9415616971	 0.134539
H	-0.487666207	 2.0358506765	 0.8280092579	 0.108374
H	 1.7395443692	-0.2824359343	-1.1774743477	 0.064999
H	 1.3793148904	-2.6190847905	-1.0659825654	 0.101385
H	-0.3808548171	-2.4414634341	-0.8562317422	 0.101476
H	 1.4501172028	-0.8211658386	-3.7432201462	 0.055691
H	-1.5815101613	-0.9720293309	-4.2133859449	 0.128958
H	-0.458044258	 0.1383418419	-5.0406426258	 0.125052
H	-0.3367224566	-1.6138196403	-5.3135150637	 0.128486
49.5537	83.4235	114.3181	170.9826	214.0756	214.5035	235.0829	300.6077	320.6853	360.7263	433.7276	462.0694	516.0937	673.1548	709.2385	843.8736	856.0209	895.0941	921.7962	932.9482	966.213	987.5787	1038.9733	1057.0156	1083.1024	1119.9185	1137.7859	1161.3281	1167.6442	1188.1329	1205.454	1231.6698	1314.4713	1326.5886	1346.3632	1370.7424	1382.9486	1394.2953	1400.0528	1409.3763	1421.9597	1446.0946	1484.7719	1486.8524	1488.9232	1490.047	1503.7727	1513.2742	1525.7093	2908.1067	2945.9737	3012.3701	3016.2713	3027.682	3032.5128	3053.4136	3054.0288	3091.6403	3096.6421	3105.0034	3128.6094	3133.6643	3139.1398
CC(C)C1COC(C)O1	CC(C)[C@H]1CO[C@@H](C)O1	
InChI=1S/C7H14O2/c1-5(2)7-4-8-6(3)9-7/h5-7H,4H2,1-3H3	InChI=1S/C7H14O2/c1-5(2)7-4-8-6(3)9-7/h5-7H,4H2,1-3H3/t6-,7-/m1/s1
