19
gdb 67482	2.39862	1.62063	1.21371	1.0869	86.27	-0.2096	0.043	0.2526	1099.2293	0.15772	-348.647164	-348.638793	-348.637849	-348.679519	33.571	
C	 0.0196226205	 1.4795625353	-0.015108347	-0.492849
C	-0.0351535619	-0.0204781436	 0.0088865927	 0.315293
C	-1.4031649835	-0.7581511862	 0.1306850118	-0.113628
C	-1.3835466525	-2.2359168534	-0.1504917512	-0.316263
C	-0.7917631173	-1.7258160898	 1.1330954144	-0.053628
C	 0.5747434285	-1.0082129383	 0.9889599145	-0.133702
C	 1.1451773853	-0.8806040909	-0.4193643535	-0.257199
C	 1.2696297034	-1.8544269738	-1.4711892291	 0.284877
C	 1.4833203737	-2.6167425542	-2.378448674	-0.419615
H	 1.0381484826	 1.8443316692	 0.151979326	 0.118165
H	-0.3235738282	 1.8738163364	-0.9795804578	 0.12565
H	-0.6224089209	 1.9073816643	 0.7640738469	 0.120417
H	-2.3265487259	-0.1992842178	 0.2174224573	 0.08675
H	-2.3537120256	-2.7086681885	-0.0204888449	 0.107776
H	-0.782462719	-2.6715971666	-0.9350463657	 0.143247
H	-1.1767503775	-2.013712633	 2.1025633998	 0.089585
H	 1.2116859514	-0.8025725201	 1.8414297153	 0.089002
H	 2.0490556215	-0.2714376129	-0.3676351541	 0.115857
H	 1.6372142054	-3.3059960761	-3.1711326212	 0.190267
119.0883	170.3178	203.5006	214.5797	293.5377	352.5418	360.6463	424.7997	530.7716	588.264	608.1514	633.2841	650.6141	704.1413	751.9606	760.2025	843.8084	874.6109	913.7299	925.9278	950.522	974.9025	991.1808	1029.666	1056.5636	1067.396	1088.6688	1108.8082	1133.5469	1182.1067	1219.3974	1255.0134	1291.9304	1323.3072	1346.7996	1414.9632	1456.1611	1482.684	1490.9659	1499.2747	2222.3083	3017.8795	3075.2967	3092.2224	3098.1476	3133.2781	3173.8355	3184.5484	3198.0966	3244.0933	3503.0331
CC12C3CC3C1C2C#C	C[C@]12[C@H]3C[C@H]3[C@H]1[C@H]2C#C	
InChI=1S/C9H10/c1-3-6-8-5-4-7(5)9(6,8)2/h1,5-8H,4H2,2H3	InChI=1S/C9H10/c1-3-6-8-5-4-7(5)9(6,8)2/h1,5-8H,4H2,2H3/t5-,6-,7+,8+,9+/m1/s1
