21
gdb 113169	3.04214	0.99586	0.86618	3.5541	80.59	-0.2431	0.0223	0.2654	1433.2928	0.181483	-420.433158	-420.422665	-420.421721	-420.468798	38.123	
C	 0.0093606363	 1.4897129013	-0.0756888072	-0.373448
C	-0.0197439538	 0.0102520888	 0.3276834694	-0.198525
C	-1.411048044	-0.5694733461	 0.2027592477	-0.004275
N	-1.8696906453	-0.9763237956	-1.1245336505	-0.363847
C	-1.7078356767	-2.0151227705	-0.0907928113	 0.187838
C	-0.6169779843	-3.0408817234	-0.3237808258	-0.496181
C	-3.0190031763	-2.4786105973	 0.5102164439	 0.369271
N	-3.0095096884	-3.6906479698	 1.1300132751	-0.540708
O	-4.0304660914	-1.7986697936	 0.4312113995	-0.385183
H	 1.0173451897	 1.9051674741	 0.0169013559	 0.110166
H	-0.3158264204	 1.6088429512	-1.1135950763	 0.132805
H	-0.6578315043	 2.0865996814	 0.5558777687	 0.114569
H	 0.6767301512	-0.5515826327	-0.3012843853	 0.100944
H	 0.3228585052	-0.1013742856	 1.364610444	 0.095011
H	-2.1588479693	-0.0863337689	 0.8310531998	 0.099474
H	-2.8693043038	-0.784140624	-1.1973582048	 0.244368
H	 0.1874505424	-2.6082217642	-0.9190308349	 0.143381
H	-0.181022865	-3.3989702028	 0.6171028484	 0.112268
H	-1.0033880106	-3.9043434327	-0.8761201023	 0.127249
H	-2.1700224446	-4.2240474751	 1.2640219219	 0.261386
H	-3.8554444766	-3.9915692043	 1.5850082341	 0.263437
62.1395	76.0613	141.3031	158.4196	169.8284	211.7117	243.8958	280.41	292.5	361.0462	420.2354	471.5261	476.3722	571.	611.9191	693.9434	759.6553	779.7464	841.1316	862.8316	920.4212	985.1847	1025.6412	1070.2118	1089.8272	1096.7428	1114.4081	1121.1257	1141.8793	1258.6872	1261.664	1307.8552	1334.0698	1355.3843	1387.0646	1407.1767	1415.3407	1457.9018	1476.3013	1495.5727	1498.3552	1501.8361	1510.2991	1615.0354	1769.3185	3024.6315	3028.2997	3034.8658	3080.298	3085.6168	3103.5992	3113.829	3119.8031	3142.5619	3463.5	3612.4369	3749.5656
CCC1NC1(C)C(N)=O	CC[C@H]1N[C@]1(C)C(=O)N	
InChI=1S/C6H12N2O/c1-3-4-6(2,8-4)5(7)9/h4,8H,3H2,1-2H3,(H2,7,9)	InChI=1S/C6H12N2O/c1-3-4-6(2,8-4)5(7)9/h4,8H,3H2,1-2H3,(H2,7,9)/t4-,6+/m1/s1
