18
gdb 55034	2.94525	1.16123	1.07155	3.9379	71.98	-0.2411	0.023	0.2641	1193.6322	0.148889	-435.24151	-435.232651	-435.231706	-435.276068	32.57	
N	 1.0680358157	-0.1346644614	 0.7013837431	-0.515218
C	-0.049252272	-0.0022692565	-0.0566864254	 0.399309
O	-0.2245046973	 0.8745704081	-0.8811749237	-0.370607
C	-1.1010826479	-1.0669450603	 0.1611236541	-0.124218
N	-0.9622336141	-2.0027242558	 1.2892759679	-0.36572
C	-2.0662325233	-1.0317014852	 1.299855461	-0.028598
C	-2.056125353	 0.016456707	 2.3767745728	-0.009814
C	-2.3244793148	-0.3882044212	 3.7802478001	-0.241755
N	-0.9804601118	 0.0554960271	 3.3742833473	-0.310431
H	 1.7570709857	 0.598308148	 0.6816499822	 0.263702
H	 1.116108978	-0.8542863365	 1.4020611661	 0.26839
H	-1.4958747956	-1.4400132662	-0.7803243266	 0.114109
H	-1.28026923	-2.9338955013	 1.0389459708	 0.244463
H	-3.0592825437	-1.4107041531	 1.0605738999	 0.10176
H	-2.3907780717	 0.9971671948	 2.0452898703	 0.112183
H	-2.8523817207	 0.2829090381	 4.4515984987	 0.120258
H	-2.4798903154	-1.4464425196	 3.9777334155	 0.108636
H	-0.403108618	-0.771880896	 3.233471896	 0.23355
38.6165	77.7479	116.0526	197.6858	256.4893	293.002	317.3674	459.6212	478.5655	527.7377	589.725	646.2546	733.6965	749.4375	839.9212	853.2644	880.7438	914.2967	963.5957	964.6026	991.582	1040.0662	1075.299	1104.2976	1115.1448	1148.7048	1168.0486	1191.7104	1210.3095	1247.3254	1280.1369	1316.4664	1350.9769	1391.5952	1420.8517	1459.1886	1509.6041	1595.4036	1800.5317	3104.5975	3110.7107	3133.4393	3150.0963	3191.5658	3483.3507	3521.4318	3602.8816	3741.0333
NC(=O)C1NC1C1CN1	NC(=O)[C@H]1N[C@H]1[C@H]1CN1	
InChI=1S/C5H9N3O/c6-5(9)4-3(8-4)2-1-7-2/h2-4,7-8H,1H2,(H2,6,9)	InChI=1S/C5H9N3O/c6-5(9)4-3(8-4)2-1-7-2/h2-4,7-8H,1H2,(H2,6,9)/t2-,3+,4+/m1/s1
