19
gdb 108968	3.95094	1.22949	1.096	1.4898	80.21	-0.208	0.0271	0.2351	1145.7762	0.160634	-385.853474	-385.845828	-385.844884	-385.885746	30.294	
O	 0.0209551341	 1.4030184757	-0.0758185741	-0.412931
C	-0.0055672185	-0.0072423819	 0.0550264744	-0.19038
C	-1.4176589182	-0.482274645	 0.1174750286	 0.313062
C	-2.5415921776	 0.2380311909	 0.0286388648	-0.179003
C	-3.7201034799	-0.6759925766	 0.0524096149	-0.074627
C	-3.7209666002	-1.922861943	-0.8730195065	-0.06431
C	-2.3213991723	-2.2661514102	-1.3671286103	-0.228033
C	-1.7811100754	-1.9546130552	 0.0872495313	-0.161211
C	-3.2701322414	-2.0149992683	 0.5668562004	-0.075895
H	 0.9391283718	 1.6868815117	-0.0593347221	 0.288037
H	 0.5111448528	-0.4984165169	-0.7902608059	 0.092954
H	 0.5284419634	-0.3344900038	 0.9659923997	 0.091803
H	-2.5977326769	 1.3109130604	-0.0923501081	 0.106629
H	-4.7066233336	-0.3112549237	 0.3152682943	 0.079529
H	-4.6510065261	-2.2552985373	-1.3191630056	 0.08202
H	-2.2500990116	-3.3354348436	-1.5829621933	 0.099871
H	-1.8891250679	-1.6920212779	-2.1941383714	 0.090438
H	-1.0504262613	-2.6539479306	 0.4945211954	 0.06062
H	-3.6817976913	-2.5490479648	 1.4147991435	 0.081427
73.6975	165.1146	188.777	237.5072	346.4141	398.8405	463.5308	561.607	641.314	721.3151	747.1708	782.839	790.2288	839.146	854.5061	887.3947	908.4909	966.0213	973.2461	994.5889	1011.441	1043.7049	1050.5299	1069.7538	1078.8931	1090.3667	1133.1905	1167.7621	1191.8578	1210.4814	1227.9121	1246.1781	1268.7212	1272.7982	1317.3762	1336.63	1375.9741	1465.9346	1488.8859	1507.8234	1698.4555	2929.0159	2937.7821	3035.697	3096.5762	3107.2683	3172.7263	3174.4156	3189.3147	3233.6231	3837.3892
OCC1=CC2C3CC1C23	OCC1=C[C@H]2[C@H]3C[C@@H]1[C@@H]23	
InChI=1S/C8H10O/c9-3-4-1-6-7-2-5(4)8(6)7/h1,5-9H,2-3H2	InChI=1S/C8H10O/c9-3-4-1-6-7-2-5(4)8(6)7/h1,5-9H,2-3H2/t5-,6-,7+,8-/m0/s1
