16
gdb 10705	2.55959	1.93507	1.44852	3.0922	60.83	-0.2496	-0.0262	0.2233	921.34	0.127594	-420.866487	-420.85776	-420.856816	-420.900225	30.713	
C	-0.7278766572	 1.1952094182	 0.2535166389	-0.479981
C	 0.3244894956	 0.1329005593	 0.0269691191	 0.335272
O	 1.1839415616	-0.1316109619	 0.83517977	-0.302016
C	 0.2863135825	-0.6189170099	-1.291807267	 0.262554
C	 1.6289790827	-0.9723819154	-1.8968012507	-0.131374
O	 2.2425163431	 0.1774740407	-2.4493588699	-0.418424
C	-0.9171959196	-1.413224437	-1.6102902754	-0.215722
O	-0.686293755	-0.1636748558	-2.2513399357	-0.269237
H	-0.5475146301	 2.0284334873	-0.4350262696	 0.156996
H	-1.7335689063	 0.8274555201	 0.0313373023	 0.141546
H	-0.6687953018	 1.5485895415	 1.2832195067	 0.142276
H	 2.2912259667	-1.3376933227	-1.1089093465	 0.142589
H	 1.4983446969	-1.7643469049	-2.6486455629	 0.0887
H	 1.6400646448	 0.5165272864	-3.1215562149	 0.292427
H	-0.8108544562	-2.2958596984	-2.2388909147	 0.129353
H	-1.7539341676	-1.4366377576	-0.9138267797	 0.125041
64.2494	78.7312	126.7583	178.6472	233.8188	294.03	319.3334	423.8712	454.0875	492.2445	532.1726	617.2092	694.8419	819.5211	899.2753	945.4634	946.8596	998.3657	1046.4087	1073.6026	1126.6397	1136.6012	1174.5551	1215.151	1315.4511	1350.1864	1386.9391	1403.9827	1423.908	1452.0978	1468.6308	1486.3585	1525.9069	1808.7249	2998.567	3046.6969	3087.6926	3109.3293	3118.0728	3159.327	3176.1519	3796.7149
CC(=O)C1(CO)CO1	CC(=O)[C@@]1(CO)CO1	
InChI=1S/C5H8O3/c1-4(7)5(2-6)3-8-5/h6H,2-3H2,1H3	InChI=1S/C5H8O3/c1-4(7)5(2-6)3-8-5/h6H,2-3H2,1H3/t5-/m1/s1
