18
gdb 46143	4.54966	0.97806	0.83345	3.2335	78.7	-0.2405	0.0254	0.2659	1333.9692	0.148913	-401.965763	-401.957269	-401.956325	-401.999059	32.213	
O	 0.0241116989	-0.0947696379	-0.0732018938	-0.375801
C	-0.0127731834	 1.1198339253	-0.0152309776	 0.40138
C	-1.3296914774	 1.8899031942	 0.0137713771	-0.328129
C	-1.2237181539	 3.370027777	-0.3663636208	-0.214235
C	-0.0395368242	 4.0216269618	 0.3766397775	-0.176794
C	 1.2609026802	 3.3103390524	-0.0399424589	-0.153481
N	 1.1301361506	 1.8677322274	 0.0988315735	-0.319553
C	 0.0590760352	 5.4546420514	 0.1271448217	 0.294931
C	 0.1457223063	 6.63198538	-0.0983437157	-0.425804
H	-2.0280082323	 1.3536603982	-0.6329841031	 0.132678
H	-1.719731896	 1.7910429007	 1.03520681	 0.132591
H	-1.0635240116	 3.4810898698	-1.445439859	 0.116015
H	-2.1529529248	 3.8954938282	-0.1292994446	 0.115835
H	-0.1826315696	 3.8594625244	 1.454278871	 0.114159
H	 1.4983935091	 3.5928190038	-1.0760019318	 0.118552
H	 2.0897682043	 3.6541009477	 0.5865753331	 0.123606
H	 1.9741357514	 1.3141226615	 0.0536174515	 0.246034
H	 0.2172565872	 7.6746619042	-0.28694377	 0.198016
69.5862	137.2219	157.9942	163.4743	298.9425	374.2075	423.5288	461.2286	502.7186	521.7243	565.2962	636.8985	650.8648	658.3075	689.1375	770.3799	819.9212	924.1078	957.591	989.0588	1037.2997	1076.766	1098.8617	1135.7636	1188.4994	1225.3544	1276.6628	1296.2	1314.3595	1338.508	1355.8632	1386.2923	1398.7868	1462.2445	1482.4101	1499.4866	1526.5184	1791.5469	2239.6978	2994.6415	3011.7475	3034.5963	3043.4103	3072.2529	3092.1625	3108.713	3503.7988	3600.7016
O=C1CCC(CN1)C#C	O=C1CC[C@@H](CN1)C#C	
InChI=1S/C7H9NO/c1-2-6-3-4-7(9)8-5-6/h1,6H,3-5H2,(H,8,9)	InChI=1S/C7H9NO/c1-2-6-3-4-7(9)8-5-6/h1,6H,3-5H2,(H,8,9)/t6-/m0/s1
