17
gdb 61297	4.52365	0.74651	0.67285	3.6479	69.76	-0.2621	0.0015	0.2636	1573.2277	0.136214	-455.197428	-455.188245	-455.187301	-455.232206	32.866	
N	-0.1806983487	 0.8433215285	-0.0147548155	-0.524176
H	-0.3638918249	-0.1555071606	-0.0373304042	 0.266824
H	 0.8252665805	 0.9691182163	-0.0992635596	 0.24641
H	-1.065255917	 2.0452593105	-1.0202270595	 0.317085
C	-0.6838364371	 1.4482026601	 1.2269378708	 0.001755
C	 0.0542275412	 0.9666250255	 2.5041355482	-0.349759
C	 0.0421208084	-0.4895666567	 2.6129025373	 0.253778
N	 0.0145377781	-1.6445913937	 2.6421391018	-0.29668
C	-0.6140333949	 2.9787652523	 1.1142484147	-0.340915
C	-1.4779509576	 3.5984042306	 0.0033105633	 0.400673
O	-1.5645558093	 2.8929383771	-1.1303360441	-0.368665
O	-2.0185044478	 4.6627883587	 0.1420181873	-0.325171
H	-1.733277804	 1.1454282669	 1.3149278476	 0.130201
H	 1.0952898933	 1.3122827367	 2.4870468784	 0.15266
H	-0.4117282934	 1.3997246794	 3.3959136072	 0.16573
H	-0.9199747585	 3.4520813756	 2.0491589867	 0.141536
H	 0.4278103218	 3.279303783	 0.9319118495	 0.128715
60.6078	91.2804	109.2017	132.1075	245.859	304.4929	347.0082	395.9033	408.8909	423.4136	464.8061	562.6796	623.1671	699.4627	854.8077	869.2003	883.4555	917.4665	952.2701	964.4093	1001.7849	1043.7669	1120.1729	1151.6245	1204.5678	1264.7944	1283.8573	1315.9736	1336.4868	1375.1729	1419.1268	1457.4605	1467.6887	1483.7941	1654.1945	1863.333	2360.7337	3019.2218	3038.1105	3058.2884	3087.4522	3119.5103	3295.4288	3486.6135	3571.21
[NH3+]C(CC#N)CC([O-])=O	N[C@@H](CC#N)CC(=O)O	
InChI=1S/C5H8N2O2/c6-2-1-4(7)3-5(8)9/h4H,1,3,7H2,(H,8,9)	InChI=1S/C5H8N2O2/c6-2-1-4(7)3-5(8)9/h4H,1,3,7H2,(H,8,9)/t4-/m0/s1
