23
gdb 72276	2.92081	1.52519	1.27125	0.1124	88.79	-0.2359	0.085	0.3208	1118.2298	0.209207	-351.151901	-351.14406	-351.143115	-351.183594	32.72	
C	-0.1258632077	 1.5891863015	 0.0001412472	-0.495418
C	-0.0335459365	 0.0896131265	-0.0525639815	 0.344883
C	 0.5986808491	-0.6730927211	-1.2233150836	-0.305873
C	-0.4241525396	-1.8419744982	-1.0063095857	-0.005931
C	 0.142781268	-3.1517972688	-0.4484124439	-0.204619
C	 1.1824055911	-2.8875774038	 0.6526080267	-0.20308
C	 0.686054625	-1.8906710199	 1.7186557422	-0.223741
C	-0.1946958161	-0.764981247	 1.1912322056	-0.057368
C	-1.1426115525	-0.9687523435	 0.044148885	-0.130811
H	 0.8512223191	 2.0422557679	 0.211061072	 0.115607
H	-0.4779601232	 1.9991052855	-0.9542350139	 0.111129
H	-0.8169209417	 1.9218897712	 0.7819629946	 0.113673
H	 0.400918438	-0.1562037586	-2.1674621219	 0.092131
H	 1.6692054112	-0.8957465876	-1.1793260899	 0.087416
H	-1.0305410759	-2.0294395497	-1.8952055867	 0.064131
H	-0.6862147444	-3.7537112261	-0.0512846881	 0.09105
H	 0.6027063206	-3.7430133898	-1.2496541568	 0.08765
H	 1.4643813839	-3.8279502624	 1.138506571	 0.086762
H	 2.0986249873	-2.5050910491	 0.1905572509	 0.101345
H	 0.0859790939	-2.4362385018	 2.4603879775	 0.094887
H	 1.5423746139	-1.4802498664	 2.2683397663	 0.091394
H	-0.6345430125	-0.1765187179	 1.995408147	 0.073986
H	-2.2161173412	-0.8386391808	 0.1279372061	 0.070796
155.7978	197.9785	228.3086	281.516	287.9026	383.2396	386.8755	487.7124	521.6945	609.4492	655.8792	712.3885	754.2958	810.3483	853.6371	858.7846	910.3584	924.0423	950.6676	954.9868	971.7866	984.1602	1030.1177	1050.1727	1080.5292	1087.8482	1115.5817	1134.9118	1160.5349	1186.4736	1207.1549	1233.4274	1246.8199	1258.3659	1294.9073	1322.357	1326.9557	1337.5067	1370.7905	1382.6577	1388.6849	1416.2079	1462.3222	1483.1736	1485.085	1488.8687	1496.0423	1500.9663	1519.0563	3005.2722	3010.35	3013.6744	3033.8159	3041.5369	3045.6705	3051.8406	3069.2026	3071.8679	3078.966	3089.2897	3090.5132	3114.9705	3165.1528
CC12CC3CCCC1C23	C[C@@]12C[C@H]3CCC[C@@H]1[C@@H]23	
InChI=1S/C9H14/c1-9-5-6-3-2-4-7(9)8(6)9/h6-8H,2-5H2,1H3	InChI=1S/C9H14/c1-9-5-6-3-2-4-7(9)8(6)9/h6-8H,2-5H2,1H3/t6-,7-,8+,9-/m1/s1
