18
gdb 97023	2.59406	1.61289	1.08593	2.767	82.09	-0.2128	-0.0056	0.2071	1128.2451	0.148119	-398.141898	-398.133237	-398.132292	-398.1757	31.794	
C	-0.0343651166	 1.4015132356	-0.0150167464	-0.338718
N	-0.0149467548	-0.050890234	-0.0291506705	-0.337486
C	 0.5623253633	-0.643842843	 0.9336788252	 0.36504
N	 1.212475329	-0.1203026081	 2.0570909658	-0.374396
C	 1.6824209713	-1.180010035	 2.8235964906	 0.035972
N	 1.4319237683	-2.3459990835	 2.3602972918	-0.298793
C	 0.7081337394	-2.1193893066	 1.1342451794	 0.268636
C	-0.38970855	-3.0752919412	 0.708196199	-0.293543
C	 0.8984393191	-3.050734428	-0.0477147996	-0.293514
H	 0.9784181432	 1.8356882101	-0.0339829483	 0.10505
H	-0.5631853266	 1.769168576	-0.8978812906	 0.127204
H	-0.5511383177	 1.806763174	 0.8700841774	 0.104761
H	 1.3170934413	 0.8555431709	 2.2715783829	 0.263589
H	 2.2196115578	-0.985916503	 3.7452161162	 0.133204
H	-0.5798593837	-3.9059057355	 1.3772447543	 0.12913
H	-1.2579860617	-2.6109617849	 0.2541228146	 0.137373
H	 0.9120851998	-2.5696362579	-1.0193361597	 0.137354
H	 1.5986026888	-3.8643487456	 0.0989352979	 0.129137
49.4567	117.6717	152.9547	176.1813	254.7063	280.4569	291.1424	412.9647	499.5984	551.3775	625.5571	725.9519	741.0927	789.9701	862.0318	887.9381	918.9328	928.5247	964.253	1000.5916	1039.6404	1061.3303	1078.7282	1086.3387	1108.5704	1147.4586	1165.0737	1204.9806	1277.5133	1347.5616	1367.4388	1397.5438	1437.3904	1441.5135	1481.1922	1493.1648	1504.5729	1659.9297	1770.7003	2959.5615	3003.6918	3099.4956	3140.9595	3141.306	3203.7051	3233.4847	3247.579	3684.8688
CN=C1NC=NC11CC1	CN=C1NC=NC21CC2	
InChI=1S/C6H9N3/c1-7-5-6(2-3-6)9-4-8-5/h4H,2-3H2,1H3,(H,7,8,9)	InChI=1S/C6H9N3/c1-7-5-6(2-3-6)9-4-8-5/h4H,2-3H2,1H3,(H,7,8,9)
