20
gdb 97665	3.47237	0.68836	0.6744	2.2417	87.23	-0.2304	0.0272	0.2577	1787.2135	0.168028	-403.080265	-403.069623	-403.068679	-403.117117	37.646	
C	-0.3373486768	 1.3936641733	 0.0900666487	-0.314295
N	-0.0579296813	-0.0328020465	 0.1573499731	-0.097165
C	 1.2531315163	-0.4981128875	-0.2512005125	-0.270372
C	 0.8531603916	-0.5569919602	 1.1988457498	 0.089231
C	 1.5422598708	 0.3622207243	 2.1981328688	-0.461804
C	 0.4408592228	-1.8244708233	 1.7580448546	 0.003439
C	 0.1347793313	-2.876081452	 2.2620471698	 0.138257
C	-0.3148952486	-4.1361658097	 2.851056384	-0.19564
O	-1.4272900155	-3.9899592712	 3.7246389208	-0.40328
H	 0.5395507721	 2.0443801081	 0.2256912693	 0.101255
H	-0.76474462	 1.6107959258	-0.8941899305	 0.128973
H	-1.0835110419	 1.6549537458	 0.8467867402	 0.127792
H	 1.2783258705	-1.4038630313	-0.8506747073	 0.119382
H	 2.0079703768	 0.2460530125	-0.5081646495	 0.105703
H	 1.914255561	 1.2755032157	 1.7299521298	 0.118965
H	 0.8581240389	 0.6376409378	 3.0069382143	 0.131846
H	 2.3936515395	-0.1572064029	 2.646855398	 0.135331
H	-0.531955086	-4.8557796496	 2.0451254031	 0.117309
H	 0.4836014263	-4.576603162	 3.4588365285	 0.137219
H	-2.0951115177	-3.4820640171	 3.2519936371	 0.287853
25.7294	76.7523	96.0567	169.8164	180.9797	184.9286	265.0177	287.5419	312.7196	339.3853	350.1429	444.3395	522.4973	533.3976	568.2203	650.6953	753.5795	823.2183	924.4364	957.7839	989.0819	1030.0985	1061.9508	1073.9347	1091.8026	1123.0391	1144.5016	1176.4074	1204.1843	1216.572	1286.6197	1357.0829	1363.319	1410.4375	1420.3022	1449.4276	1482.7936	1484.569	1492.466	1497.166	1507.048	1512.2033	2355.4568	2973.8594	2986.3435	3046.4737	3059.148	3069.9325	3080.7887	3104.2905	3111.3081	3132.7894	3177.8608	3815.1915
CN1CC1(C)C#CCO	CN1C[C@]1(C)C#CCO	
InChI=1S/C7H11NO/c1-7(4-3-5-9)6-8(7)2/h9H,5-6H2,1-2H3	InChI=1S/C7H11NO/c1-7(4-3-5-9)6-8(7)2/h9H,5-6H2,1-2H3/t7-,8?/m0/s1
