20
gdb 115065	3.22346	1.31169	1.03545	2.2271	79.51	-0.2317	0.0209	0.2526	1202.2389	0.172339	-403.154919	-403.1466	-403.145656	-403.188014	31.889	
C	 0.0476434425	 1.53134917	-0.0356210531	-0.388268
C	-0.0092647436	 0.0028628371	-0.0967098873	-0.177435
C	-1.415290992	-0.5653715995	 0.0808687842	 0.111563
O	-2.2268959464	-0.0250074199	-0.9894588222	-0.248995
C	-3.3551048336	-0.6905873225	-1.339820563	 0.114394
N	-3.657627737	-1.9019789404	-1.1363001105	-0.25855
C	-2.6897232958	-2.7228664403	-0.4732235836	 0.004815
C	-1.3295505043	-2.9055309658	-1.1213654922	-0.301133
C	-1.4673455054	-2.0777208829	 0.1291992611	-0.062424
H	 1.072142517	 1.889823225	-0.1717240109	 0.113183
H	-0.576116004	 1.9751828065	-0.8153291106	 0.135158
H	-0.3095419416	 1.9021782213	 0.9316911899	 0.112855
H	 0.387925342	-0.3567595725	-1.0529969084	 0.107167
H	 0.62241327	-0.4310269945	 0.6883776912	 0.098411
H	-1.844528677	-0.1823602526	 1.0194193367	 0.085605
H	-4.0267116296	-0.0319521406	-1.8869604227	 0.121995
H	-3.1250494449	-3.585591944	 0.0187360921	 0.095644
H	-0.8501505718	-3.8750250665	-1.0427055244	 0.116162
H	-1.1693636577	-2.3969258774	-2.0661865755	 0.128235
H	-1.0735904568	-2.4946909303	 1.0518754291	 0.091617
84.1233	102.8904	172.7021	214.2219	266.4796	331.4836	371.4202	444.1964	544.8544	575.9771	636.8935	744.6893	784.2012	817.9821	852.3021	861.2626	913.2791	935.9067	954.4599	992.5131	1023.4892	1046.3781	1058.2478	1088.3734	1117.5438	1131.3346	1143.0419	1174.4959	1178.5536	1217.9766	1295.4499	1328.2535	1362.4355	1373.8131	1401.0005	1406.0358	1411.5178	1415.6307	1474.4187	1482.9903	1497.7794	1508.5597	1719.934	2985.7213	3032.6159	3038.0811	3071.9263	3103.8401	3126.7488	3133.4179	3146.69	3159.9811	3167.3836	3222.4287
CCC1OC=NC2CC12	CC[C@H]1OC=N[C@H]2C[C@@H]12	
InChI=1S/C7H11NO/c1-2-7-5-3-6(5)8-4-9-7/h4-7H,2-3H2,1H3	InChI=1S/C7H11NO/c1-2-7-5-3-6(5)8-4-9-7/h4-7H,2-3H2,1H3/t5-,6+,7-/m1/s1
