14
gdb 133165	2.30762	1.86877	1.03914	0.622	69.56	-0.2401	-0.0628	0.1773	1051.9184	0.1	-477.950832	-477.943091	-477.942147	-477.983288	28.464	
C	-0.0225765357	 1.5327952708	 0.0301098609	-0.488043
C	-0.0212408546	 0.0346721957	 0.011751337	-0.022825
C	-0.1117668119	-0.6932338021	-1.1131861246	 0.372108
F	-0.21126808	-0.1715493368	-2.3162001556	-0.033422
O	-0.1187289994	-2.0307323264	-1.2244668905	-0.25288
N	-0.0244894883	-2.8110446234	-0.068264591	-0.062675
C	 0.0651287495	-2.1749205308	 1.0420623556	-0.009454
C	 0.0809674013	-0.7199616133	 1.2501719548	 0.223054
N	 0.1732981497	-0.137751478	 2.3927047659	-0.521088
H	 0.8940753255	 1.9034585069	 0.499765054	 0.151244
H	-0.1050460459	 1.9470558983	-0.9753176083	 0.131692
H	-0.8527147872	 1.9002220852	 0.6417413397	 0.151216
H	 0.1351306992	-2.8326754554	 1.9064425194	 0.144923
H	 0.2352734376	-0.8241815007	 3.1469813525	 0.216149
106.2581	134.8939	187.4812	262.4099	268.8791	349.7035	469.5007	488.7374	515.354	558.2062	646.899	665.969	739.4688	853.7892	854.1144	919.6201	955.0228	962.493	1062.8524	1102.7747	1162.6185	1227.2167	1299.2342	1330.2229	1411.2901	1448.1867	1474.6753	1483.5506	1635.195	1682.6017	1725.8314	3047.2509	3100.0648	3148.7365	3160.5954	3453.1658
CC1=C(F)ON=CC1=N	CC1=C(C=NO[C]1F)[NH]	
InChI=1S/C5H5FN2O/c1-3-4(7)2-8-9-5(3)6/h2,7H,1H3	InChI=1S/C5H5FN2O/c1-3-4(7)2-8-9-5(3)6/h2,7H,1H3
