18
gdb 36283	4.0675	1.06291	1.00427	3.9884	80.15	-0.2392	0.0022	0.2414	1212.174	0.149612	-364.791174	-364.783736	-364.782792	-364.823553	29.347	
N	 0.041598365	-1.1482117678	-0.0401277311	-0.310444
C	 0.0027759483	-0.0023480103	 0.1055499002	 0.265608
C	-0.0179649357	 1.4497697337	 0.2796870833	-0.393314
C	 1.3780964904	 2.0654226355	 0.0885963724	 0.054726
C	 1.9753543875	 2.1415003538	-1.3694680376	-0.077732
C	 1.0872980744	 3.4179280105	-1.5710086208	-0.22113
C	 1.466757699	 3.633174554	-0.0647608903	-0.095169
C	 2.989494426	 3.7790810989	-0.1938215068	-0.089603
C	 3.3210720363	 2.8047378006	-1.0468472267	-0.081786
H	-0.7552949822	 1.8678632808	-0.4115451718	 0.151202
H	-0.3775581872	 1.6702182968	 1.2921439183	 0.152587
H	 2.0578933418	 1.6409657535	 0.8312180113	 0.089945
H	 1.9529762659	 1.291334683	-2.0500093767	 0.080457
H	 1.4503722905	 4.1636103062	-2.2803901149	 0.102977
H	 0.0287956407	 3.213073648	-1.7519955613	 0.095443
H	 0.9244482488	 4.3151219026	 0.5905202158	 0.064043
H	 3.6071615213	 4.5062051713	 0.3132431952	 0.10517
H	 4.2867882591	 2.5111626391	-1.4321318984	 0.107021
61.7813	109.4266	281.5552	289.1828	392.0745	425.1419	507.1689	536.4646	590.8202	695.6926	724.4369	797.7267	833.5127	840.7592	898.4236	913.2713	915.485	940.8866	963.1408	979.8259	1001.9661	1052.4174	1070.3494	1081.7004	1111.4056	1140.6843	1196.615	1219.1452	1233.109	1240.2866	1246.7061	1263.5978	1304.8078	1331.0597	1388.1714	1462.8249	1512.2661	1622.0876	2360.0876	3044.3819	3064.462	3078.3397	3101.6946	3114.7027	3128.4239	3128.8365	3224.2479	3250.8379
N#CCC1C2CC1C=C2	N#CC[C@H]1[C@H]2C[C@@H]1C=C2	
InChI=1S/C8H9N/c9-4-3-8-6-1-2-7(8)5-6/h1-2,6-8H,3,5H2	InChI=1S/C8H9N/c9-4-3-8-6-1-2-7(8)5-6/h1-2,6-8H,3,5H2/t6-,7+,8+
