15
gdb 130995	7.16311	0.75318	0.68442	4.3913	68.54	-0.2299	-0.0277	0.2022	1529.5934	0.11231	-453.959364	-453.951021	-453.950076	-453.993898	28.99	
O	-0.1560228061	 0.2034129059	 0.563372765	-0.238819
C	 0.084626946	 1.1175841155	-0.1789394967	 0.138998
C	 1.3867530771	 1.8928291882	-0.1479184491	-0.151452
O	 1.3093107737	 2.8881292674	-1.156679788	-0.277745
C	 2.3878043017	 3.6852277525	-1.2852846434	 0.464302
N	 3.465781982	 3.5617695227	-0.5226258452	-0.313942
N	 4.2891518371	 4.5386160315	-0.9776838707	-0.211917
C	 3.7513019351	 5.2539459639	-1.9912989803	 0.006021
C	 2.4998177693	 4.7305226344	-2.230860389	-0.338625
H	-0.6335857171	 1.4689780302	-0.9522658649	 0.096655
H	 1.5337552402	 2.3401473401	 0.8438766744	 0.147454
H	 2.2319631773	 1.2138733728	-0.3211730688	 0.147544
H	 5.190193408	 4.6500724224	-0.5478180952	 0.277272
H	 4.2864324589	 6.0657562486	-2.4584045154	 0.140234
H	 1.7757879167	 5.0414811639	-2.9640054028	 0.114019
47.766	57.9406	118.767	120.7192	307.5473	335.023	392.4356	416.9265	578.4566	650.8985	715.6093	732.5246	764.164	766.1893	835.7467	937.8863	996.5245	1054.6588	1068.4702	1081.2876	1110.1917	1125.999	1224.9968	1229.7547	1311.5702	1341.6716	1404.6406	1417.2499	1469.8669	1492.7988	1532.3226	1591.4884	1846.1242	2898.3205	3022.1713	3058.706	3260.3176	3288.7914	3691.8179
O=CCOC1=NNC=C1	O=CCOc1n[nH]cc1	
InChI=1S/C5H6N2O2/c8-3-4-9-5-1-2-6-7-5/h1-3H,4H2,(H,6,7)	InChI=1S/C5H6N2O2/c8-3-4-9-5-1-2-6-7-5/h1-3H,4H2,(H,6,7)
