17
gdb 34873	2.25831	1.75125	1.20328	1.3357	78.59	-0.2302	0.0399	0.2701	1055.3098	0.135864	-380.750502	-380.742607	-380.741663	-380.782829	30.969	
C	-0.1131931546	-1.2605417184	-0.0740362063	-0.46102
C	-0.0534274518	-0.0617445546	-0.0003205447	 0.355291
C	 0.029098659	 1.3834449175	 0.0541974011	-0.300841
C	-0.2369055959	 2.1174912939	 1.3909018254	-0.055843
N	 0.8401369928	 1.7371882617	 2.3262545907	-0.326951
C	 1.0787996248	 2.810584571	 1.3246166943	-0.152088
C	 1.4311449341	 2.0799271816	 0.0457570231	 0.401659
C	 2.7152880528	 1.5564664218	-0.442928432	-0.298714
N	 2.0518141771	 2.7060056634	-1.1078946021	-0.387448
H	-0.1668381509	-2.3201508325	-0.1168508728	 0.195306
H	-0.5899755656	 1.8338745844	-0.7314034949	 0.107052
H	-1.1990989674	 2.4664308879	 1.742505442	 0.103306
H	 0.6360712071	 2.1940120492	 3.2151228062	 0.232753
H	 1.3617734607	 3.8150240398	 1.6111249192	 0.107632
H	 3.6386053893	 1.7978651392	 0.0754553766	 0.122097
H	 2.7021383929	 0.5886989868	-0.9371582476	 0.124925
H	 1.5982571055	 2.4012658872	-1.9665420083	 0.232885
100.1108	131.0007	185.688	281.4573	311.8534	357.7285	476.4094	497.2791	563.8953	620.6251	632.2345	647.3755	753.2863	829.2416	836.5705	865.4874	900.2671	922.1907	944.3996	963.0136	980.4666	1016.9067	1046.5082	1075.6362	1100.5659	1106.2164	1128.1772	1171.4046	1246.5992	1247.7872	1273.4915	1315.6873	1338.2866	1361.9374	1440.2145	1516.8703	2234.4389	3034.4952	3111.8153	3195.7174	3200.2909	3209.7144	3472.1218	3488.7719	3503.0551
C#CC1C2NC2C11CN1	C#C[C@H]1[C@H]2N[C@H]2[C@]21CN2	
InChI=1S/C7H8N2/c1-2-4-5-6(9-5)7(4)3-8-7/h1,4-6,8-9H,3H2	InChI=1S/C7H8N2/c1-2-4-5-6(9-5)7(4)3-8-7/h1,4-6,8-9H,3H2/t4-,5+,6+,7+/m0/s1
