18
gdb 71138	2.89796	1.70989	1.34689	4.137	75.27	-0.2327	0.0253	0.258	987.9465	0.149503	-401.968059	-401.960849	-401.959905	-401.999244	29.664	
C	-0.0376008484	 1.5475605115	 0.0279177149	-0.487348
C	 0.0588371663	 0.0399303529	 0.0398911648	 0.298122
C	-1.2383623748	-0.8044450888	 0.3367512884	-0.270074
C	-0.3826495423	-1.6989055399	 1.2282662351	-0.072448
C	 0.9789055635	-2.0280285225	 0.5829084278	-0.167655
C	 0.7447454789	-0.6973979139	 1.2368998827	-0.105565
C	 1.1323857486	-1.823363466	-0.8994920329	 0.405434
O	 1.5178005355	-2.6122770796	-1.732253263	-0.382262
N	 0.7520326822	-0.5077697471	-1.1273049923	-0.344691
H	 0.9559168395	 1.9969212682	-0.065486112	 0.13221
H	-0.6498817471	 1.8963895089	-0.811561131	 0.120843
H	-0.4991733637	 1.911881609	 0.9502510567	 0.125264
H	-1.9545871244	-0.2348184335	 0.9358207497	 0.10563
H	-1.7477449912	-1.2436898571	-0.5277517093	 0.097232
H	-0.73611278	-2.325511268	 2.0374322263	 0.098781
H	 1.5650581979	-2.7986825231	 1.0652597619	 0.109416
H	 1.3308110739	-0.2648436524	 2.0369804707	 0.096574
H	 0.4427359256	-0.2706187587	-2.0600942986	 0.240535
153.8811	230.1609	257.8647	288.1241	362.4146	457.6627	470.3494	543.0015	592.4658	641.0165	686.1086	736.6762	796.9461	806.869	852.4306	866.0858	915.5147	953.7487	961.872	985.684	1008.3916	1021.6171	1058.2413	1068.5175	1129.6638	1153.5166	1187.5036	1219.0156	1242.467	1279.7065	1290.1584	1326.4505	1366.0179	1396.1661	1417.6007	1488.0587	1490.969	1494.7051	1833.485	3032.3699	3039.3954	3097.6287	3099.6599	3115.8935	3190.6755	3201.6457	3217.336	3598.3053
CC12CC3C(C13)C(=O)N2	C[C@]12C[C@H]3[C@H]([C@@H]13)C(=O)N2	
InChI=1S/C7H9NO/c1-7-2-3-4(5(3)7)6(9)8-7/h3-5H,2H2,1H3,(H,8,9)	InChI=1S/C7H9NO/c1-7-2-3-4(5(3)7)6(9)8-7/h3-5H,2H2,1H3,(H,8,9)/t3-,4+,5-,7-/m0/s1
