12
gdb 130051	2.7888	1.48134	0.96813	4.6713	60.38	-0.2465	-0.0358	0.2107	1095.3379	0.078037	-506.000863	-505.993328	-505.992384	-506.033138	27.203	
N	 0.0561701829	 1.3174939765	 0.1342288285	-0.58068
C	-0.0436832087	-0.0314498217	 0.0382601382	 0.516415
N	-1.1207097737	-0.7384939803	 0.0119914676	-0.30787
N	-0.6233559597	-2.0464151671	 0.0022756443	-0.152615
C	-1.4371089903	-3.1808874094	-0.0222932991	 0.177387
O	-2.6353299055	-3.1520247142	-0.0297354402	-0.270501
C	 0.7633784314	-2.0767579962	 0.0012277636	 0.511138
O	 1.5321559979	-2.9876041669	-0.0178299695	-0.366787
O	 1.1262443916	-0.7285782821	 0.0274866241	-0.229624
H	 0.8964543692	 1.7286007086	-0.2420445428	 0.282928
H	-0.7969983651	 1.8210106347	-0.0562109698	 0.287731
H	-0.8123153799	-4.0885592719	-0.0339017848	 0.132476
108.1564	186.8274	196.2172	233.7459	310.2159	356.7899	404.5624	444.7123	525.411	630.1633	680.0635	713.2522	741.4537	766.3069	891.2744	975.0022	1027.7853	1041.7577	1144.871	1219.0317	1350.9057	1427.7367	1456.5193	1617.8552	1737.3697	1834.8551	1919.9095	3021.0566	3588.6132	3701.8767
NC1=NN(C=O)C(=O)O1	Nc1nn(C=O)c(=O)o1	
InChI=1S/C3H3N3O3/c4-2-5-6(1-7)3(8)9-2/h1H,(H2,4,5)	InChI=1S/C3H3N3O3/c4-2-5-6(1-7)3(8)9-2/h1H,(H2,4,5)
