18
gdb 98984	5.12122	0.70332	0.62558	6.9151	71.59	-0.2429	-0.0179	0.225	1757.5407	0.144188	-476.269725	-476.258958	-476.258014	-476.307881	35.914	
C	-0.1435897294	 1.423593658	 0.2550791137	-0.371985
C	 0.0523863608	-0.0551552211	-0.0680491945	-0.315825
C	 0.7983519142	-0.2692824349	-1.3851911797	 0.434001
O	 1.1864004163	 0.6281901786	-2.0860720185	-0.298716
N	 0.97988323	-1.629434516	-1.6852736875	-0.402292
C	 1.6165215834	-2.1900107477	-2.8031186663	 0.417695
O	 2.1141564643	-1.5646794319	-3.6955148118	-0.276803
C	 1.5969809927	-3.724560153	-2.7411538887	-0.195891
O	 2.241091738	-4.2231067022	-3.879025585	-0.384671
H	 0.8186863779	 1.9348489881	 0.3324241403	 0.138941
H	-0.7137208644	 1.920872878	-0.5329609409	 0.138936
H	-0.6789411703	 1.5411345951	 1.2011545775	 0.110691
H	 0.611688957	-0.5596550757	 0.731641931	 0.122427
H	-0.9141615098	-0.5735709162	-0.1302303071	 0.122435
H	 0.6049810659	-2.2809983086	-1.0109316405	 0.24895
H	 2.0907697194	-4.0338833258	-1.8030589825	 0.108389
H	 0.5438165688	-4.0495849608	-2.6719338394	 0.108204
H	 2.2288464153	-5.1835410143	-3.8334587399	 0.29551
30.6647	38.65	65.2361	90.1227	118.4694	203.583	209.1654	251.5147	293.4944	333.0874	398.1861	542.4172	550.4992	628.0936	632.5748	702.787	816.9632	847.4216	954.4054	1006.4698	1029.6758	1085.6536	1096.7468	1129.8437	1155.4912	1172.3395	1240.7698	1255.5738	1284.735	1364.8223	1416.4444	1441.172	1462.3905	1492.2651	1498.6428	1507.272	1508.3205	1820.1698	1880.0079	2944.176	2968.1561	3015.5436	3047.0057	3055.569	3127.8004	3135.5082	3602.9194	3838.352
CCC(=O)NC(=O)CO	CCC(=O)NC(=O)CO	
InChI=1S/C5H9NO3/c1-2-4(8)6-5(9)3-7/h7H,2-3H2,1H3,(H,6,8,9)	InChI=1S/C5H9NO3/c1-2-4(8)6-5(9)3-7/h7H,2-3H2,1H3,(H,6,8,9)
