19
gdb 40043	3.72088	1.39017	1.18405	2.2407	81.	-0.2137	0.0151	0.2288	1078.4726	0.161667	-382.019699	-382.012417	-382.011472	-382.051502	29.214	
C	 0.705589927	 1.5502096347	-0.1127080991	-0.307648
N	 1.5410836865	 0.3556622901	 0.1402040565	-0.362935
C	 0.10087822	 0.2091647406	-0.0110257585	 0.35067
C	-0.8036021223	-0.430382515	 1.0420661885	-0.241002
N	-1.3418484638	-1.3640308359	 0.0105767681	-0.095525
C	-2.7902411506	-1.2886294296	-0.2397390154	-0.222142
C	-2.9330133123	-0.310270118	-1.3857382194	-0.074504
C	-1.7420200807	 0.061938202	-1.8517209773	-0.079703
C	-0.6387653556	-0.6120678487	-1.0809747421	-0.124003
H	 0.6420959961	 2.2458248202	 0.7202678696	 0.119355
H	 0.7439461121	 2.0228108558	-1.091754641	 0.109543
H	 2.0188041751	 0.0712081624	-0.7124153993	 0.229824
H	-0.282710896	-0.9323655447	 1.8633785178	 0.113975
H	-1.5587881292	 0.2522265897	 1.4564352159	 0.095051
H	-3.2041726118	-2.2736726781	-0.5019505824	 0.107986
H	-3.3178919209	-0.9631441194	 0.6675837847	 0.105884
H	-3.8940746704	 0.0049298407	-1.7761907417	 0.09931
H	-1.5626340043	 0.7302434809	-2.6856384376	 0.097393
H	 0.0124136115	-1.2267896679	-1.7205651974	 0.078471
77.651	166.8394	266.734	295.9567	360.4447	426.8701	494.1123	517.1247	699.8579	729.2403	780.6284	812.7478	824.8765	899.0938	909.835	927.142	948.9872	957.8186	971.2143	984.3272	1027.4714	1039.0452	1067.2212	1077.2675	1115.8572	1124.6475	1129.3328	1183.3132	1230.825	1234.9789	1257.9465	1276.4176	1293.0062	1301.0203	1335.7086	1353.3884	1428.8569	1492.528	1509.3685	1518.4679	1672.5191	2983.3473	2990.1959	3002.2331	3023.0791	3072.9633	3099.0828	3181.7971	3189.1865	3214.3286	3486.8404
C1NC11CN2CC=CC12	C1N[C@]21CN1CC=C[C@@H]21	
InChI=1S/C7H10N2/c1-2-6-7(4-8-7)5-9(6)3-1/h1-2,6,8H,3-5H2	InChI=1S/C7H10N2/c1-2-6-7(4-8-7)5-9(6)3-1/h1-2,6,8H,3-5H2/t6-,7+/m0/s1
