19
gdb 90497	2.74224	1.17878	1.03419	3.2618	77.62	-0.2359	-0.0201	0.2158	1224.6771	0.15742	-423.00449	-422.995379	-422.994435	-423.03819	34.052	
C	 0.0116524276	 1.5533270099	 0.0026926408	-0.496181
C	 0.0804519125	 0.0534938129	-0.0043007165	 0.323694
C	 0.5943242469	-0.9307622244	-1.0396277382	-0.123993
C	 1.2574737361	-1.7839471014	 0.0479861402	-0.274481
C	 0.7146796977	-0.7821667892	 1.1238289049	 0.054474
O	 1.7223929617	-0.0141902797	 1.7481505869	-0.433691
C	-0.9054967295	-0.7910676872	-0.8091332904	-0.158218
C	-1.7822844498	-1.8516870463	-0.2613218412	 0.147431
O	-2.9280068022	-2.0164625591	-0.610523566	-0.272625
H	 0.9663207743	 1.9752979664	 0.32703324	 0.143667
H	-0.2190040881	 1.9384184375	-0.9953780109	 0.119911
H	-0.7654229755	 1.9111815597	 0.6876010337	 0.126419
H	 0.9961290532	-0.7399993017	-2.0281175349	 0.097392
H	 0.9717036916	-2.8374294707	 0.1179214554	 0.10102
H	 2.3463829437	-1.7080380574	 0.0112067318	 0.113269
H	 0.023676217	-1.1923487528	 1.8730616622	 0.068311
H	 2.1717189919	-0.5736676017	 2.3896292525	 0.286862
H	-1.4097052608	-0.2145427562	-1.5801723166	 0.106868
H	-1.3320409282	-2.5142223386	 0.5085388263	 0.069873
83.0496	133.8796	189.9483	211.0108	223.0299	248.9495	262.1539	362.8726	401.6122	434.9007	476.5311	545.839	625.4166	742.8302	825.6571	849.5724	888.5849	908.9523	974.57	1001.9495	1015.4854	1041.9175	1054.1798	1101.8288	1122.9669	1157.9273	1178.3131	1205.052	1236.0983	1243.495	1256.526	1307.4308	1329.1642	1395.3733	1417.7236	1431.5095	1471.669	1481.531	1485.6188	1499.7655	1804.9524	2893.9538	2998.5011	3034.1659	3056.5837	3096.8078	3116.192	3121.5515	3155.7238	3177.3171	3818.6867
CC12C(CC1O)C2C=O	C[C@@]12[C@@H](C[C@H]1O)[C@H]2C=O	
InChI=1S/C7H10O2/c1-7-4(2-6(7)9)5(7)3-8/h3-6,9H,2H2,1H3	InChI=1S/C7H10O2/c1-7-4(2-6(7)9)5(7)3-8/h3-6,9H,2H2,1H3/t4-,5+,6+,7-/m0/s1
