19
gdb 86627	2.4688	1.44394	1.37545	3.2704	70.4	-0.2499	0.0686	0.3185	1053.8857	0.159641	-460.123681	-460.115497	-460.114553	-460.156269	32.121	
O	-0.4411346549	 1.0544075769	 1.2583928817	-0.451843
C	-0.0675133517	 0.088725535	 0.2945650441	 0.090923
C	 0.5103420396	-1.2239428961	 0.8827546114	-0.291925
C	-0.896351725	-1.8864536838	 0.7777532397	-0.116866
C	-1.7227173318	-1.9226134158	 2.0379728995	 0.094317
C	-1.1629150734	-2.2026318954	 3.3651379713	-0.193758
O	-1.5252435566	-0.8635473225	 2.9984509525	-0.250676
C	-1.3066929963	-0.7214288381	-0.2024452161	 0.133194
O	-2.5444158535	-0.0988779914	-0.0348993061	-0.433106
H	-0.6639207686	 0.58362251	 2.0791213832	 0.303207
H	 0.522007189	 0.6109144335	-0.4624688076	 0.08272
H	 1.2369177062	-1.6966182055	 0.2180265617	 0.110619
H	 0.9590993513	-1.1286558374	 1.8746456723	 0.109886
H	-0.9180610907	-2.8867264406	 0.333143906	 0.080062
H	-2.7757944582	-2.1473962814	 1.8760742537	 0.116654
H	-1.7893649522	-2.6458678558	 4.1365281475	 0.126788
H	-0.0953046262	-2.383225412	 3.4732101814	 0.12253
H	-1.2033293119	-1.0420779336	-1.2446163055	 0.079305
H	-2.3687358053	 0.6485737842	 0.5588137592	 0.287969
98.0021	153.9011	191.165	241.0928	264.1352	335.8293	407.0448	468.7445	511.2254	574.7292	597.2054	694.6144	740.2702	748.6817	822.6057	859.6156	895.2812	910.7894	930.02	979.8165	1013.1265	1070.8595	1097.2571	1110.1918	1126.8223	1160.304	1167.0982	1171.3037	1184.8219	1242.0738	1257.4263	1266.3045	1287.853	1328.672	1336.7911	1368.573	1424.3796	1433.9293	1466.0782	1475.6511	1527.0309	3045.3008	3057.2664	3068.541	3086.5286	3097.4413	3121.1667	3130.9422	3185.8334	3649.6174	3690.2605
OC1CC(C2CO2)C1O	O[C@H]1C[C@@H]([C@H]2CO2)[C@H]1O	
InChI=1S/C6H10O3/c7-4-1-3(6(4)8)5-2-9-5/h3-8H,1-2H2	InChI=1S/C6H10O3/c7-4-1-3(6(4)8)5-2-9-5/h3-8H,1-2H2/t3-,4-,5+,6+/m0/s1
