16
gdb 129802	3.19972	1.57573	1.07811	1.5809	71.52	-0.1983	0.0262	0.2245	1068.9453	0.127592	-434.067211	-434.059415	-434.05847	-434.099933	28.878	
N	 0.1737025298	 1.4231002114	 0.0523425366	-0.621562
C	-0.0420638671	 0.0311340878	 0.0249206643	 0.135535
C	-1.1174168359	-0.8130480284	-0.1412686338	 0.281041
O	-2.4516227219	-0.7258637304	-0.396995511	-0.307272
C	-2.9578699422	-2.0830010506	-0.2132564502	-0.097311
C	-1.7505780576	-3.0788394703	-0.2421041755	-0.363407
C	-0.6252410786	-2.1122066889	-0.0197734053	 0.259584
N	 0.6823116537	-2.1461955051	 0.2011972557	-0.330363
N	 1.0123271508	-0.8352410541	 0.2289062984	-0.212999
H	 0.2543471775	 1.8151344561	-0.8814548389	 0.249602
H	-0.5939173901	 1.8988433199	 0.5131338605	 0.252306
H	-3.4650206083	-2.1203530832	 0.7578117358	 0.115169
H	-3.6909763497	-2.2652571679	-1.001326177	 0.118969
H	-1.8514395535	-3.8446833047	 0.5314957645	 0.125969
H	-1.6701504548	-3.5914390337	-1.207660393	 0.124608
H	 1.9549511178	-0.5573594379	 0.4446808388	 0.27013
70.3082	118.7251	166.5276	262.0766	293.9411	342.5947	451.3351	532.2664	606.1906	639.3344	650.7842	711.5802	766.4989	814.0048	823.0959	843.5646	937.6501	980.386	1071.7696	1086.2184	1167.4269	1168.3818	1195.3952	1234.4376	1247.8029	1284.7335	1299.5494	1378.2045	1447.5293	1487.5764	1508.2663	1528.8612	1531.1633	1650.4447	1687.48	3035.6353	3036.8807	3088.8589	3114.2165	3495.6288	3575.5757	3673.3881
NC1=C2OCCC2=NN1	Nc1c2OCCc2n[nH]1	
InChI=1S/C5H7N3O/c6-5-4-3(7-8-5)1-2-9-4/h1-2H2,(H3,6,7,8)	InChI=1S/C5H7N3O/c6-5-4-3(7-8-5)1-2-9-4/h1-2H2,(H3,6,7,8)
