19
gdb 68072	2.62499	1.70554	1.24573	1.7853	75.5	-0.2373	0.0143	0.2516	1030.968	0.159324	-423.022868	-423.014966	-423.014022	-423.054363	32.979	
O	-0.0584616847	 1.4074834905	-0.038632844	-0.487336
C	-0.0051875992	 0.0053444115	 0.0235225361	 0.409408
C	 0.2177022471	-0.6889029654	 1.404656094	-0.308306
C	-0.7223814698	-1.7927843034	 0.8590965544	 0.387377
O	-1.4770497764	-2.4724255119	 1.8259880945	-0.494388
C	-1.3877511137	-0.6843949923	-0.0211511949	-0.312459
C	 0.0908656402	-2.6915124043	-0.0566635473	-0.14071
C	 0.8792168691	-2.1180782437	-0.964941571	-0.069715
C	 0.9276443539	-0.6081192342	-1.0377115822	-0.323239
H	 0.843256089	 1.7460609761	-0.003065675	 0.27353
H	 1.2278858744	-0.9804727866	 1.7011655401	 0.090681
H	-0.2731730633	-0.1153654197	 2.1943470813	 0.109364
H	-2.0909571018	-3.0593891345	 1.3709977841	 0.275126
H	-2.1125394424	-0.1095760001	 0.5600881665	 0.109769
H	-1.7994137663	-0.9674775819	-0.9928523538	 0.08973
H	 0.0151338942	-3.7672364053	 0.0729260648	 0.088077
H	 1.4926520617	-2.6960008721	-1.6491419489	 0.09405
H	 0.6307693453	-0.2492156231	-2.0325996787	 0.114201
H	 1.9580394027	-0.2526470594	-0.8785927799	 0.09484
235.4488	244.3346	252.397	297.6627	317.4755	338.0361	412.1877	442.113	454.2472	488.5861	527.2475	577.443	700.5195	707.5843	713.4924	860.3289	912.5351	924.2887	939.2152	957.1771	969.756	971.4701	1013.8704	1046.8927	1069.403	1085.4071	1156.0855	1171.6267	1194.5809	1211.693	1244.8149	1256.477	1270.8606	1340.235	1364.7051	1378.6566	1395.6218	1470.1554	1472.693	1511.8877	1694.1142	2985.3665	3031.5602	3058.0069	3065.3252	3126.9023	3131.2704	3162.6321	3186.3694	3795.3655	3799.1099
OC12CC(O)(C1)C=CC2	O[C@@]12C[C@@](O)(C1)C=CC2	
InChI=1S/C7H10O2/c8-6-2-1-3-7(9,4-6)5-6/h1-2,8-9H,3-5H2	InChI=1S/C7H10O2/c8-6-2-1-3-7(9,4-6)5-6/h1-2,8-9H,3-5H2/t6-,7+
