20
gdb 47409	2.65014	1.54105	1.18215	3.5557	78.99	-0.2354	0.0318	0.2672	1107.9583	0.173615	-403.191515	-403.183397	-403.182453	-403.224339	31.372	
O	-0.3546149186	 0.0180712062	 0.2121728336	-0.398137
C	-0.1836812823	 1.2193937722	 0.1760345212	 0.365829
N	-1.1625952888	 2.1757435586	 0.1989766687	-0.317698
C	-0.6806593342	 3.5345861318	 0.0154277234	-0.171811
C	 0.8115370461	 3.401436307	 0.3940752017	-0.297309
C	 1.15685059	 1.9436719491	 0.0596002902	 0.248535
C	 2.3741900026	 1.299170215	 0.7715434569	-0.275066
C	 3.2148385045	 1.4768128938	-0.5198236757	-0.212567
C	 1.8950666594	 1.6998985224	-1.3033822529	-0.265382
H	-2.1318362515	 1.9127615892	 0.1146609427	 0.248937
H	-0.8059521775	 3.8733070108	-1.0231994655	 0.106826
H	-1.2130457499	 4.2392895685	 0.6617731751	 0.113509
H	 1.4361147123	 4.1324567517	-0.1251072833	 0.106093
H	 0.9264554786	 3.5675019061	 1.4708993149	 0.111789
H	 2.7275602278	 1.7906088841	 1.6821807691	 0.091872
H	 2.162394422	 0.2484348422	 0.9869775045	 0.127255
H	 3.83535973	 2.3768381924	-0.4903824918	 0.099334
H	 3.8401687129	 0.6369202957	-0.8298855926	 0.102366
H	 1.5403127507	 0.7816932498	-1.7777903265	 0.122138
H	 1.8627966158	 2.5150781934	-2.0315459237	 0.093487
89.903	110.5048	173.9656	208.7777	281.5869	348.9997	403.6004	515.2803	572.1517	637.7689	700.4029	711.295	729.6098	808.3728	833.1082	873.4636	920.3158	946.6247	946.7585	968.539	981.2677	1059.0607	1070.1372	1115.1262	1139.4678	1195.6509	1208.7239	1222.9293	1236.8921	1258.5132	1265.1408	1276.3935	1289.8352	1311.1334	1328.1653	1369.8834	1443.2878	1469.1152	1480.4811	1492.3528	1502.5802	1534.9617	1818.7466	2996.2537	3044.0456	3052.6627	3054.2991	3062.5496	3069.1197	3100.5811	3101.8198	3113.3521	3124.304	3638.2835
O=C1NCCC11CCC1	O=C1NCCC21CCC2	
InChI=1S/C7H11NO/c9-6-7(2-1-3-7)4-5-8-6/h1-5H2,(H,8,9)	InChI=1S/C7H11NO/c9-6-7(2-1-3-7)4-5-8-6/h1-5H2,(H,8,9)
