18
gdb 82353	3.35853	1.34858	1.12732	1.54	77.27	-0.2322	0.032	0.2641	1097.6019	0.148101	-401.886826	-401.878746	-401.877802	-401.919276	31.827	
O	-0.1006068607	 1.4944069662	-0.0211415031	-0.430448
C	-0.0196957476	 0.0828210028	-0.0090967467	 0.089554
C	-1.4088012011	-0.5362343903	-0.129767995	-0.048473
C	-2.4095456814	 0.1660717054	-0.965637667	-0.233018
N	-1.6559597014	-0.960446006	-1.5327935105	-0.104846
C	-0.466631012	-0.5623285493	-2.3157394794	-0.181428
C	 0.6891323483	-0.4802812971	-1.2833621495	-0.178455
C	 1.8443005459	 0.2983182493	-1.6948725084	 0.271131
C	 2.7776728861	 0.9945385982	-1.9997800668	-0.43254
H	 0.7809587293	 1.8307615275	-0.2285016679	 0.286129
H	 0.4886935503	-0.2667344906	 0.8997048038	 0.075744
H	-1.7197900942	-1.2338911049	 0.6419896355	 0.092364
H	-3.4681473332	-0.0250306472	-0.812646064	 0.11291
H	-2.1603545856	 1.1721988119	-1.2889300374	 0.133345
H	-0.265417774	-1.3149914276	-3.08175669	 0.116626
H	-0.6051576466	 0.4024452745	-2.8156254936	 0.115501
H	 1.0024107832	-1.5057131332	-1.0512238104	 0.113881
H	 3.6134713946	 1.5819872801	-2.2908267596	 0.202024
86.938	139.2166	197.3911	255.3335	362.9856	377.9293	421.8668	461.1616	501.0002	573.8072	626.1021	648.0899	657.0418	721.559	776.5776	811.0876	854.4076	906.6416	971.3651	1005.4871	1027.2656	1048.6878	1061.7035	1100.0185	1117.3949	1127.6211	1167.0051	1212.8507	1237.5961	1277.4231	1297.6791	1305.6787	1329.6373	1362.0136	1388.6638	1426.5944	1497.2922	1521.2235	2226.3875	3007.1542	3034.2932	3046.7953	3099.8235	3113.6684	3150.6357	3205.7529	3500.8699	3760.9232
OC1C2CN2CC1C#C	O[C@H]1[C@H]2CN2C[C@H]1C#C	
InChI=1S/C7H9NO/c1-2-5-3-8-4-6(8)7(5)9/h1,5-7,9H,3-4H2	InChI=1S/C7H9NO/c1-2-5-3-8-4-6(8)7(5)9/h1,5-7,9H,3-4H2/t5-,6-,7-,8?/m1/s1
