18
gdb 7254	3.48845	1.28562	1.05295	2.2385	69.52	-0.2488	-0.043	0.2059	1146.6668	0.150185	-384.975241	-384.965683	-384.964738	-385.010626	32.856	
C	 0.2596594249	 1.5519830307	 0.2433045403	-0.387029
C	-0.0423800705	 0.0831366845	-0.0552304856	-0.07106
C	 0.2801447713	-0.8299218729	 1.1488987349	-0.405522
C	-1.4979151474	-0.1194996419	-0.4617904522	 0.36657
O	-2.3541353037	 0.7190847818	-0.3037922245	-0.30907
C	-1.8684984859	-1.4897797748	-1.0518049322	-0.369715
C	-2.7872256582	-2.229590873	-0.0918812418	 0.163984
O	-2.5493937341	-3.3164799993	 0.3647065469	-0.234212
H	 1.3114243477	 1.6757549734	 0.5178199937	 0.110973
H	 0.0515471692	 2.1849336884	-0.6233635432	 0.123493
H	-0.3594614489	 1.9131447045	 1.0687442634	 0.133947
H	 0.5710060536	-0.2569612747	-0.9018814105	 0.093687
H	-0.2924459701	-0.5193937572	 2.0291569605	 0.132577
H	 0.0513643817	-1.8812161835	 0.951624048	 0.139748
H	 1.3429636849	-0.7573989698	 1.396457361	 0.127615
H	-2.4366965157	-1.2900257444	-1.9680601477	 0.150325
H	-1.0031274571	-2.1140075121	-1.2785868905	 0.12659
H	-3.7064695518	-1.6665808595	 0.1734937595	 0.107099
35.7889	60.3765	97.1332	187.5768	200.9895	236.4741	244.9817	306.5014	334.9937	424.267	475.14	605.0099	655.0996	762.8596	852.2434	893.4597	928.4596	965.2242	984.9316	1031.3449	1087.8724	1114.7881	1133.8173	1183.4255	1207.2465	1272.6324	1308.1406	1368.1157	1401.3322	1406.963	1421.677	1453.642	1485.0887	1486.9644	1503.1753	1509.8646	1791.668	1836.282	2920.3996	3008.3563	3038.6028	3046.9244	3048.6745	3109.853	3115.6656	3118.4181	3125.1372	3135.8226
CC(C)C(=O)CC=O	CC(C)C(=O)CC=O	
InChI=1S/C6H10O2/c1-5(2)6(8)3-4-7/h4-5H,3H2,1-2H3	InChI=1S/C6H10O2/c1-5(2)6(8)3-4-7/h4-5H,3H2,1-2H3
