18
gdb 127047	3.09593	1.10134	0.82487	2.162	75.32	-0.2444	0.0069	0.2513	1394.0147	0.146648	-439.087113	-439.077959	-439.077015	-439.121763	32.427	
C	 0.0566246636	 1.5079809395	 0.0705227525	-0.393333
C	 0.0280170032	-0.006201249	 0.0061457079	-0.045671
O	 0.7111325901	-0.5039091425	 1.1712832975	-0.272031
C	 0.7859264991	-1.8320414586	 1.2876055881	 0.432334
N	 0.2791783817	-2.6687147866	 0.4116266477	-0.251946
O	 0.5813053361	-3.9372557412	 0.9178109908	-0.19184
C	 1.2541028464	-3.791753871	 2.0720621458	 0.012309
C	 1.4310025007	-2.485633706	 2.3871019714	 0.027884
C	 2.1086052363	-1.8462321676	 3.5541479426	-0.504888
H	 1.0856962654	 1.878056454	 0.0780432243	 0.129928
H	-0.4545347886	 1.9254475776	-0.8018464264	 0.124267
H	-0.4467854836	 1.8690969072	 0.9717263976	 0.129918
H	-0.9955611225	-0.3975162917	 0.0006732252	 0.124975
H	 0.5299684814	-0.3884077064	-0.8898731616	 0.124945
H	 1.5453426532	-4.708460849	 2.562785259	 0.147467
H	 2.9356422547	-1.2045378218	 3.2318145477	 0.139135
H	 1.4157641858	-1.213522772	 4.119233321	 0.139127
H	 2.5111002771	-2.599689715	 4.2358825289	 0.12742
68.6232	97.2674	112.1435	131.4644	243.6187	250.5635	256.9462	350.3573	365.7014	511.9706	591.1399	635.9078	737.3856	782.6313	814.1138	842.8448	911.0186	926.7226	964.8183	1018.153	1061.9324	1069.4578	1134.1046	1157.4966	1182.9578	1245.5219	1292.6567	1307.2566	1388.963	1414.4659	1423.5496	1453.0013	1479.7344	1484.4319	1497.7192	1501.3613	1517.1216	1560.5403	1677.2665	3036.2303	3038.0106	3046.974	3076.0115	3088.3116	3118.818	3122.451	3125.3274	3255.8571
CCOC1=NOC=C1C	CCOc1nocc1C	
InChI=1S/C6H9NO2/c1-3-8-6-5(2)4-9-7-6/h4H,3H2,1-2H3	InChI=1S/C6H9NO2/c1-3-8-6-5(2)4-9-7-6/h4H,3H2,1-2H3
