14
gdb 24907	4.97617	1.33048	1.05851	2.8528	69.9	-0.2068	0.0002	0.207	1043.5102	0.103815	-432.890044	-432.883379	-432.882435	-432.92113	25.953	
N	-0.0528499719	 1.2375246997	-0.0373265774	-0.515215
C	 0.0013571162	-0.0237027711	 0.0412992584	 0.372636
C	-1.2476566501	-0.9427606117	-0.0055364609	-0.412829
C	-0.604673934	-2.2945159917	-0.0786482242	 0.199277
C	 0.7279324984	-2.1435040091	 0.0006329902	 0.387984
N	 1.1706320885	-0.8401970556	 0.1782164616	-0.453946
O	 1.3441422253	-3.3354318966	 0.0563944879	-0.205089
C	 0.2664117252	-4.2140324446	-0.0111896104	 0.023142
N	-0.8963306619	-3.6495632226	-0.077037042	-0.325881
H	 0.8715035962	 1.668865373	 0.0136324083	 0.214064
H	-1.8468282695	-0.7898364139	 0.8992434998	 0.151893
H	-1.8750201527	-0.6643212754	-0.8572695231	 0.151571
H	 2.041972754	-0.5076783674	-0.2100061739	 0.259674
H	 0.5207350062	-5.2603598928	-0.0268612044	 0.15272
110.5935	208.0405	303.5611	345.323	410.008	530.7409	546.0376	562.4062	642.0235	707.5022	737.2776	750.9523	814.0489	852.3554	872.4174	931.6768	969.4463	1030.4654	1039.2859	1134.9182	1152.9174	1232.0824	1265.0338	1292.5966	1321.4467	1381.8178	1463.9671	1507.1472	1520.5155	1675.441	1762.6471	3049.0172	3088.1308	3295.8518	3462.779	3599.1575
N=C1CC2=C(N1)OC=N2	[NH][C]1Cc2c(N1)ocn2	
InChI=1S/C5H5N3O/c6-4-1-3-5(8-4)9-2-7-3/h2H,1H2,(H2,6,8)	InChI=1S/C5H5N3O/c6-4-1-3-5(8-4)9-2-7-3/h2H,1H2,(H2,6,8)
