25
gdb 114235	3.5943	0.82991	0.76584	0.1353	94.4	-0.25	0.0884	0.3384	1658.0743	0.228068	-352.344765	-352.334621	-352.333677	-352.380119	38.546	
C	-0.2473907615	 1.4856577267	 0.0282480945	-0.378193
C	 0.0405228682	-0.0179271691	-0.0321694642	-0.193356
C	 0.7926677713	-0.5352563793	 1.1870619395	 0.069928
C	 0.0476601738	-0.5728029997	 2.5593846874	-0.313923
C	 0.6225191189	-1.9795252495	 2.7804874685	 0.379487
C	 1.4641484863	-2.4012908448	 3.9539650998	-0.350701
C	 0.1302078983	-3.067594255	 3.6888503525	-0.060759
C	-1.0440426931	-2.8368129479	 4.6140938199	-0.403611
C	 1.0404204237	-2.0700168644	 1.3071878754	-0.334157
H	 0.681821561	 2.0638411846	 0.0837604229	 0.112394
H	-0.7975463226	 1.8236539025	-0.8555360047	 0.109853
H	-0.8465107185	 1.7392777104	 0.9096637685	 0.118045
H	-0.904418716	-0.5701960076	-0.1298120808	 0.089088
H	 0.6205120335	-0.2455144652	-0.9367941907	 0.092392
H	 1.7393086375	 0.0070557792	 1.292287316	 0.066692
H	 0.3083037513	 0.197151033	 3.29084325	 0.093783
H	-1.0419735835	-0.5755068379	 2.4329791363	 0.092553
H	 2.3728708001	-2.9644132653	 3.7629253107	 0.103981
H	 1.5303488912	-1.7239361357	 4.8014175339	 0.103247
H	 0.1876109732	-4.0740814522	 3.2780088169	 0.076273
H	-1.0555290731	-1.8076432987	 4.987805098	 0.114545
H	-1.9977990758	-3.012558398	 4.1030958388	 0.113048
H	-1.0046041153	-3.5037589454	 5.4826668046	 0.114376
H	 0.3322610061	-2.6485460511	 0.7018661297	 0.091593
H	 2.0517788851	-2.4288133496	 1.0944837164	 0.093423
43.5882	91.1862	148.5123	176.2567	193.9334	224.0032	255.2017	319.2907	331.367	411.4321	423.8421	465.5779	545.9243	711.2922	771.3397	789.8114	832.5675	865.0039	889.1386	912.9841	921.8449	949.5081	975.2764	990.4601	1007.7462	1036.6466	1069.9854	1077.1363	1110.6123	1128.2146	1135.1321	1169.3219	1183.4042	1221.174	1229.0616	1236.5443	1254.8949	1275.8305	1306.387	1333.898	1343.6787	1389.1234	1408.5827	1411.0219	1428.0746	1474.1756	1484.8272	1487.8429	1492.475	1497.8899	1500.2388	1505.7878	1507.9917	3007.1548	3023.3223	3025.9773	3027.6783	3029.9819	3032.1323	3046.0402	3082.9804	3083.7784	3087.4209	3093.6034	3095.7739	3100.8337	3110.0085	3122.0193	3194.3595
CCC1CC2(CC2C)C1	CC[C@H]1C[C@]2(C[C@H]2C)C1	
InChI=1S/C9H16/c1-3-8-5-9(6-8)4-7(9)2/h7-8H,3-6H2,1-2H3	InChI=1S/C9H16/c1-3-8-5-9(6-8)4-7(9)2/h7-8H,3-6H2,1-2H3/t7-,8-,9+/m1/s1
