19
gdb 102033	2.12124	1.29838	0.86759	3.2092	74.06	-0.2445	-0.0329	0.2116	1355.429	0.158242	-456.393261	-456.383034	-456.382089	-456.429081	35.742	
C	-0.0508011137	 1.5618460661	-0.0563224798	-0.378266
C	 0.0436294144	 0.0365730716	-0.0441881677	-0.164092
N	 0.7537457657	-0.5061838362	-1.2175306531	-0.128806
C	 2.0969786937	-0.8234297295	-1.0804469474	 0.162544
O	 2.8334630265	-1.2445405713	-1.9386354939	-0.30349
C	 0.0029793202	-0.6379697423	-2.4097353417	 0.390718
O	-1.1621962445	-0.3014791551	-2.4073717551	-0.346813
C	 0.6706525514	-1.2049684058	-3.6670024075	-0.258047
N	-0.2255593661	-1.3119143319	-4.8044127241	-0.489671
H	 0.9430731117	 2.020583516	-0.0617443038	 0.120688
H	-0.6002313752	 1.9024311562	-0.9362789327	 0.150155
H	-0.5812161579	 1.9096358996	 0.8353666592	 0.124939
H	 0.5738223162	-0.310600894	 0.8469315812	 0.115301
H	-0.9540779529	-0.4036140779	-0.0361201125	 0.1444
H	 2.4395477793	-0.6416642358	-0.0445409856	 0.096732
H	 1.532382014	-0.5803541054	-3.920632956	 0.149705
H	 1.1025330644	-2.1822727774	-3.4321671726	 0.147884
H	-1.0204449066	-1.8914196286	-4.5481446771	 0.232876
H	-0.6299297706	-0.3989843782	-4.9951924697	 0.233245
59.0581	86.5582	92.0647	147.3362	205.238	212.2962	234.6388	263.0373	296.6885	375.0052	401.7817	437.3152	571.5238	595.0865	681.4019	784.7457	823.6624	915.4343	930.8204	939.0647	1035.7766	1037.8034	1108.944	1112.1705	1153.1406	1183.2136	1231.6043	1273.3259	1370.2695	1387.4381	1393.0311	1397.7821	1413.7042	1426.5108	1450.2929	1487.781	1493.515	1507.2181	1677.8014	1776.3601	1812.1785	2956.4314	3044.8301	3069.6495	3069.8075	3102.8481	3108.9931	3130.2203	3143.844	3492.4994	3558.6391
CCN(C=O)C(=O)CN	CCN(C=O)C(=O)CN	
InChI=1S/C5H10N2O2/c1-2-7(4-8)5(9)3-6/h4H,2-3,6H2,1H3	InChI=1S/C5H10N2O2/c1-2-7(4-8)5(9)3-6/h4H,2-3,6H2,1H3
