16
gdb 67016	2.35039	1.7225	1.58039	1.7557	69.38	-0.2382	-0.0106	0.2275	946.9399	0.123362	-437.840352	-437.832477	-437.831533	-437.872466	30.126	
C	 0.0728473308	 1.5599585027	 0.0177924549	-0.530963
C	-0.0365964333	 0.074354588	 0.0032737002	 0.256232
C	 0.4678907214	-0.9642518654	-0.9882703756	-0.219379
N	 0.935932291	-0.9265768483	 0.4400820712	-0.17009
C	-0.1098575997	-1.6565015143	 1.2555247463	-0.205229
C	-1.1905222647	-0.9988480219	 0.4038315222	 0.235659
O	-2.4840664402	-0.8311853307	 0.805276801	-0.465262
C	-0.9120591647	-1.5217583685	-1.0071675455	 0.362444
O	-1.6843318605	-1.9079330429	-1.8463284013	-0.359884
H	 1.0786887268	 1.8706025397	-0.2793352027	 0.144566
H	-0.6474003151	 2.007256066	-0.674122192	 0.140954
H	-0.1291391399	 1.9546286602	 1.0187441154	 0.142273
H	 1.2081866797	-0.8670617925	-1.769832235	 0.126289
H	-0.0385974817	-2.7498150986	 1.2477080576	 0.114966
H	-0.0565157429	-1.278281277	 2.2786087909	 0.127187
H	-3.0475189969	-1.0163687867	 0.038727362	 0.300236
127.8097	171.6437	179.6711	215.4084	272.7317	395.8383	437.541	455.5053	506.9189	598.693	641.2345	706.2005	734.4358	767.2052	793.0916	835.2265	891.7554	958.7175	1018.1786	1055.9905	1064.4161	1089.4815	1112.1188	1148.464	1178.5599	1219.3813	1276.0957	1359.8097	1387.2965	1417.637	1428.9389	1478.6236	1488.3072	1510.8286	1858.9431	3038.3652	3046.0313	3106.3055	3117.4988	3118.1976	3223.129	3717.2678
CC12C3N1CC2(O)C3=O	C[C@@]12[C@H]3N1C[C@]2(O)C3=O	
InChI=1S/C6H7NO2/c1-5-3-4(8)6(5,9)2-7(3)5/h3,9H,2H2,1H3	InChI=1S/C6H7NO2/c1-5-3-4(8)6(5,9)2-7(3)5/h3,9H,2H2,1H3/t3-,5-,6-,7?/m0/s1
