19
gdb 75234	2.9703	1.45634	1.07211	3.1242	83.68	-0.235	-0.0358	0.1992	1158.5686	0.159299	-385.931402	-385.922862	-385.921918	-385.964674	32.277	
C	-0.0165871798	 1.4928711317	 0.0736689675	-0.489815
C	-0.005117791	 0.0031343749	-0.0282221856	 0.219498
C	-0.0328135158	-0.7804762629	-1.1166899048	-0.171819
C	-0.0079656071	-2.2575369872	-0.8052950038	-0.374252
C	 0.041893538	-2.2855424189	 0.7158565541	 0.238517
C	-0.6669840044	-3.3100357662	 1.5797349177	-0.294437
C	 0.8260687066	-3.2950263296	 1.5309872124	-0.294423
C	 0.0429284346	-0.857676271	 1.1842619665	 0.280717
O	 0.0767388728	-0.481635668	 2.3386483494	-0.358443
H	 0.8733991153	 1.8489698313	 0.603952201	 0.142339
H	-0.0529998531	 1.9681861332	-0.909760641	 0.118975
H	-0.8774692048	 1.8316101583	 0.6603725994	 0.142335
H	-0.0696872001	-0.4165843935	-2.1389439007	 0.104898
H	-0.8952641572	-2.7607866325	-1.2115430854	 0.118862
H	 0.8607331254	-2.7434286788	-1.2688338098	 0.118862
H	-1.1466420283	-2.9265810134	 2.4740830909	 0.135036
H	-1.1961294735	-4.1078027433	 1.0694423491	 0.114058
H	 1.336714567	-4.0823267182	 0.986723593	 0.114056
H	 1.3552653254	-2.901415546	 2.3923735999	 0.135036
70.362	103.1014	214.2111	228.286	241.3624	268.0952	324.3963	421.8904	465.6302	531.2341	656.7793	711.9088	757.9548	790.3288	841.5932	866.5284	889.9676	923.7532	964.6624	995.2578	1015.1358	1024.5947	1056.1111	1069.1894	1070.2164	1092.2995	1178.8896	1188.74	1204.1064	1272.4407	1305.8949	1337.3469	1376.7098	1413.8456	1453.0356	1472.9595	1476.9381	1484.2218	1486.3087	1696.7635	1790.9171	3015.4462	3036.4795	3040.7386	3090.5188	3121.1539	3129.1884	3130.6546	3181.2495	3215.0823	3229.6741
CC1=CCC2(CC2)C1=O	CC1=CCC2(CC2)C1=O	
InChI=1S/C8H10O/c1-6-2-3-8(4-5-8)7(6)9/h2H,3-5H2,1H3	InChI=1S/C8H10O/c1-6-2-3-8(4-5-8)7(6)9/h2H,3-5H2,1H3
