19
gdb 41923	2.28643	2.17114	1.83238	2.4133	73.14	-0.2461	0.0731	0.3193	882.7797	0.163439	-423.026345	-423.019523	-423.018579	-423.057702	27.583	
C	 0.0680213988	 1.5009770132	 0.2878680584	-0.088871
O	 1.169245185	 2.1971488169	-0.2959853316	-0.275113
C	 2.1971251063	 1.4547301713	-0.9135108891	 0.19156
C	 2.485376776	 0.1280475439	-0.2049707046	-0.2517
C	 1.2402854178	-0.7313256791	-0.2844262957	-0.068191
C	-0.0411696415	 0.0347494737	-0.0783622299	-0.062842
C	 0.3232856445	-0.4620175889	-1.4586977597	-0.074412
C	 0.756327315	 0.4911355726	-2.5615391556	-0.089665
O	 1.9450167184	 1.2226571618	-2.282777839	-0.259711
H	 0.1409590449	 1.5892683641	 1.3827328505	 0.099697
H	-0.8389778256	 2.0387965043	-0.0177428297	 0.108286
H	 3.0705075472	 2.1118569441	-0.9066918598	 0.092023
H	 3.3369635343	-0.3467233291	-0.7022833935	 0.110057
H	 2.7662987785	 0.317587633	 0.8379975914	 0.103379
H	 1.3153904062	-1.7461747951	 0.0930492019	 0.082596
H	-0.8657889978	-0.4680110265	 0.4192596637	 0.085998
H	-0.2660920842	-1.2990631299	-1.8207349279	 0.088138
H	 0.962936183	-0.0771260681	-3.4752140802	 0.108437
H	-0.0597773969	 1.1929998277	-2.7917152396	 0.100333
75.6888	160.0537	331.9241	405.4375	434.2712	447.2334	562.3334	578.1008	709.0623	759.8703	767.8635	785.2843	867.8017	876.3097	907.692	955.5079	969.0734	1015.5703	1035.3716	1058.9723	1089.681	1099.7782	1113.1169	1124.2152	1129.6671	1144.157	1218.1447	1234.2046	1269.3551	1274.9729	1318.0607	1356.9674	1367.5261	1381.8339	1392.6738	1413.8446	1423.7285	1465.7948	1489.931	1515.3239	1523.7014	2983.1907	2984.0673	3027.2205	3032.3852	3054.62	3079.3196	3083.596	3141.4968	3145.9279	3159.5213
C1OC2CC3C1C3CO2	C1O[C@H]2C[C@H]3[C@@H]1[C@H]3CO2	
InChI=1S/C7H10O2/c1-4-5-2-8-7(1)9-3-6(4)5/h4-7H,1-3H2	InChI=1S/C7H10O2/c1-4-5-2-8-7(1)9-3-6(4)5/h4-7H,1-3H2/t4-,5+,6-,7+
