16
gdb 33400	2.85921	1.27232	1.01764	12.3381	78.59	-0.165	-0.0112	0.1539	1160.4101	0.126662	-396.87678	-396.868505	-396.867561	-396.910956	29.869	
N	 0.3850780983	-1.0721854178	-0.7026495444	-0.398092
C	 0.2022067716	 0.0142923262	-0.3203013416	 0.134919
C	-0.0716351214	 1.3081320132	 0.1291433321	-0.075529
C	 0.8640006728	 2.2205122676	 0.5989002168	 0.1697
N	 1.4118847606	 3.1692416653	 1.0286443265	-0.475942
C	-1.4727285647	 1.8526084682	 0.1422913296	-0.107723
C	-1.885541085	 2.5389376779	 1.4941288217	-0.192028
N	-1.452001982	 3.8777545572	 0.9029089169	-0.263783
H	-1.9800710623	 4.7144087957	 1.14420817	 0.299411
H	-0.4358081263	 4.0022561877	 1.0878111801	 0.32771
C	-1.6153488614	 3.2826554035	-0.4932022237	-0.191996
H	-2.183013042	 1.1168453837	-0.2296681875	 0.119762
H	-2.9587822886	 2.5729475252	 1.6884428556	 0.145359
H	-1.3202834324	 2.2819814777	 2.3881738261	 0.181467
H	-0.8356874076	 3.6156577131	-1.1759166613	 0.181432
H	-2.6116960297	 3.5283406855	-0.8642992267	 0.145334
23.2832	139.5207	148.049	167.1356	243.9832	374.7051	378.3513	527.785	529.0288	587.8659	612.1356	683.019	746.291	752.8672	877.1588	880.575	948.2248	960.803	967.3932	1063.1277	1071.4951	1174.7075	1182.3479	1235.9854	1269.9233	1275.9446	1300.1525	1320.0091	1366.3549	1382.6711	1474.0991	1494.8448	1609.3812	2192.6155	2288.759	3090.0401	3093.8785	3140.9887	3149.4543	3180.3791	3180.9947	3511.7429
N#C[C-](C#N)C1C[NH2+]C1	N#C[C](C#N)C1C[NH2]C1	
InChI=1S/C6H6N3/c7-1-5(2-8)6-3-9-4-6/h6,9H,3-4H2/q-1/p+1	InChI=1S/C6H7N3/c7-1-5(2-8)6-3-9-4-6/h6H,3-4,9H2
