16
gdb 133039	4.72358	0.98154	0.86406	1.8129	74.46	-0.2614	-0.0555	0.206	1303.0727	0.124877	-442.093558	-442.085728	-442.084784	-442.126783	28.795	
C	 0.014484804	 1.5326188672	-0.2252163044	-0.371767
C	-0.0147004396	 0.0272012089	 0.0837214989	-0.27198
C	-1.411397701	-0.5389481173	 0.0606081683	 0.315994
N	-2.2652307069	-0.127568961	 1.0135545691	-0.273701
C	-3.4991149376	-0.6125658745	 0.9893408576	-0.141579
C	-3.8831080012	-1.5192305204	-0.0002981075	 0.310156
F	-5.1247206844	-1.9892546087	-0.0013682837	-0.06476
N	-3.0780112584	-1.9423408285	-0.9426017904	-0.284985
C	-1.835264452	-1.4476145457	-0.9093563936	-0.073053
H	 1.0336687704	 1.9230925247	-0.1530101383	 0.117052
H	-0.3566828322	 1.7356606197	-1.2349395701	 0.118406
H	-0.6154909324	 2.0769076771	 0.4833302798	 0.139658
H	 0.6096695413	-0.51733434	-0.6326377194	 0.105435
H	 0.4121619699	-0.14481232	 1.0783255352	 0.122936
H	-4.2004562607	-0.2921685902	 1.754248293	 0.1315
H	-1.1560115291	-1.7918389813	-1.6848084443	 0.120689
46.1397	100.7614	210.9679	230.3406	332.6052	413.2795	439.1635	442.5347	521.9991	591.1132	652.4638	741.9745	787.0637	813.0443	890.431	926.9094	962.0414	981.9806	1043.0316	1074.2988	1087.5178	1240.9528	1255.0886	1275.9404	1310.9099	1333.8069	1356.1719	1394.9235	1404.5884	1480.7542	1496.2579	1506.6187	1517.0085	1596.3468	1620.0597	3039.0196	3041.3215	3078.7082	3111.5397	3125.4523	3164.7141	3174.9296
CCC1=NC=C(F)N=C1	CCc1ncc(F)nc1	
InChI=1S/C6H7FN2/c1-2-5-3-9-6(7)4-8-5/h3-4H,2H2,1H3	InChI=1S/C6H7FN2/c1-2-5-3-9-6(7)4-8-5/h3-4H,2H2,1H3
