22
gdb 95216	2.44028	1.66643	1.17606	2.4612	81.64	-0.2398	0.0687	0.3085	1132.5913	0.195939	-404.334244	-404.325683	-404.324739	-404.366942	34.063	
C	-0.0128449077	 1.5234964749	-0.1335549949	-0.413739
C	 0.0530433609	 0.0071513384	-0.0181908603	 0.134723
O	 0.6566480102	-0.4786389467	-1.2138897584	-0.253027
C	 0.4122240441	-1.853799914	-1.4219161377	-0.083081
C	 0.800319254	-2.7025410515	-0.2290341664	-0.041846
N	 2.154412357	-2.488224632	 0.292009691	-0.320699
C	 0.9950971612	-2.0365423087	 1.0883868515	-0.054537
C	 0.8020609934	-0.5223649665	 1.2274654697	 0.007207
C	 2.1378501627	 0.1814770911	 1.5017063748	-0.389923
H	 0.9821838523	 1.9451272254	-0.296645755	 0.132139
H	-0.6425775745	 1.8060392119	-0.9812976489	 0.118321
H	-0.4337287783	 1.964740897	 0.7754369385	 0.110357
H	-0.9785013001	-0.385518783	 0.0327095527	 0.055564
H	-0.6574141336	-2.0224181165	-1.6412767486	 0.081017
H	 0.9907438206	-2.1406156309	-2.3063751161	 0.109599
H	 0.4032620127	-3.7163485772	-0.2409072016	 0.080307
H	 2.5249417596	-3.3529695256	 0.6759649822	 0.22842
H	 0.7601775114	-2.6193161953	 1.9764034793	 0.079448
H	 0.1368535976	-0.3582002823	 2.0855106546	 0.064889
H	 2.7943502193	 0.0994153695	 0.6329647694	 0.146482
H	 1.9940414366	 1.2382186569	 1.7430347149	 0.105259
H	 2.6487288905	-0.2874361348	 2.3488326393	 0.103121
86.1843	205.5805	222.8076	250.1941	287.8905	298.3582	316.3589	361.8228	418.9777	475.1942	545.3284	659.5301	727.2807	738.69	795.3602	839.1949	876.0768	893.1826	942.9134	972.6308	1000.6397	1017.9091	1038.5129	1089.8655	1101.7818	1114.2068	1130.3795	1171.1451	1177.0352	1182.904	1216.0658	1262.1148	1292.7368	1329.9304	1340.169	1377.5319	1382.1579	1396.6636	1407.6354	1413.8924	1419.6529	1462.1415	1482.1827	1486.9101	1492.9524	1501.3064	1511.1337	2933.7144	2948.2297	3016.8196	3043.5539	3046.5688	3070.0638	3105.2584	3114.9686	3116.7362	3126.5187	3127.3676	3137.5135	3506.6916
CC1OCC2NC2C1C	C[C@H]1OC[C@H]2N[C@H]2[C@H]1C	
InChI=1S/C7H13NO/c1-4-5(2)9-3-6-7(4)8-6/h4-8H,3H2,1-2H3	InChI=1S/C7H13NO/c1-4-5(2)9-3-6-7(4)8-6/h4-8H,3H2,1-2H3/t4-,5+,6+,7-/m0/s1
