18
gdb 124728	4.11872	0.98383	0.93819	2.0596	74.36	-0.2519	-0.0132	0.2388	1339.6649	0.147536	-435.278147	-435.268904	-435.26796	-435.312669	33.129	
C	-0.1406335127	 1.459618941	 0.0075965894	-0.401743
C	-0.0283044837	-0.078963271	 0.0080004302	-0.084767
N	 0.6639043069	-0.6540725654	-1.1517919381	-0.517891
C	 0.6544161381	-0.5498579602	 1.2574437615	 0.469327
N	 0.1352229278	-1.1037235575	 2.3092659745	-0.359497
C	 1.2367933749	-1.275804371	 3.1254813468	 0.349604
C	 1.1602309009	-1.8940955331	 4.4780069352	-0.489
N	 2.3616953351	-0.8539884296	 2.6105671976	-0.170761
O	 1.9763764157	-0.3591141588	 1.3531885843	-0.216043
H	 0.852952873	 1.9188313469	 0.0106503751	 0.13071
H	-0.6719500306	 1.7901417013	-0.8904169768	 0.116661
H	-0.6905443138	 1.8210232841	 0.8825355726	 0.13213
H	-1.0338521658	-0.5086649997	 0.0435900362	 0.121542
H	 0.1994504653	-0.3482278655	-2.0018533457	 0.231969
H	 1.6136689737	-0.2941603399	-1.1957720375	 0.239758
H	 0.7636520829	-2.9112267776	 4.4060144182	 0.150488
H	 2.1487044115	-1.9249904218	 4.9383279303	 0.149527
H	 0.4812996507	-1.3224477922	 5.1177938264	 0.147985
42.5497	121.2288	142.8392	172.4044	243.7716	260.041	261.2746	301.1775	376.8139	425.8455	507.0415	643.7297	688.3981	726.4519	782.4038	860.2654	920.0372	925.3559	993.5996	1017.7244	1033.7394	1053.5655	1071.8444	1084.067	1118.6038	1220.5991	1314.3297	1343.9188	1371.6611	1400.4852	1404.3932	1423.5846	1474.3162	1475.7558	1489.296	1497.7969	1571.9967	1635.8753	1658.1069	3033.0119	3052.1225	3073.4423	3108.6584	3112.2895	3115.8268	3151.46	3487.9809	3569.1728
CC(N)C1=NC(C)=NO1	C[C@@H](N)c1nc(C)no1	
InChI=1S/C5H9N3O/c1-3(6)5-7-4(2)8-9-5/h3H,6H2,1-2H3	InChI=1S/C5H9N3O/c1-3(6)5-7-4(2)8-9-5/h3H,6H2,1-2H3/t3-/m1/s1
