18
gdb 17298	3.04218	2.40721	1.84988	1.4519	70.19	-0.2236	0.079	0.3026	795.3579	0.154558	-347.747637	-347.740884	-347.73994	-347.777912	28.175	
O	-0.0635917177	 1.394659726	-0.0549256333	-0.48428
C	 0.0174138933	 0.0009881963	 0.0073746199	 0.449271
C	-1.3677057813	-0.6942240832	-0.0033241122	-0.277774
C	-0.9615995988	-1.5129005836	 1.2679984749	-0.243109
C	 0.4213427322	-0.7949106312	 1.2901950802	-0.091794
C	 1.6094410361	-1.4126782515	 0.5106489637	-0.060042
C	 1.1733680366	-2.1405338148	-0.7293477696	-0.289805
C	 1.2087841294	-0.6389430132	-0.7549487357	-0.14191
H	 0.8275499073	 1.7519497778	 0.0305152583	 0.276333
H	-2.1640794427	 0.0284843072	 0.1865389029	 0.111295
H	-1.6187641046	-1.2654074191	-0.9005850363	 0.098487
H	-1.577873956	-1.2889440556	 2.1412869617	 0.101068
H	-0.9280172494	-2.5981946109	 1.1456296771	 0.100611
H	 0.7005947565	-0.2658219637	 2.2019284612	 0.065408
H	 2.5971159159	-1.5695502618	 0.9286678845	 0.082814
H	 1.9754162781	-2.6232216312	-1.2799633156	 0.111172
H	 0.2348656182	-2.6838784417	-0.7723364397	 0.113327
H	 1.8211126967	-0.095661056	-1.4680820121	 0.078928
194.7659	256.7332	303.2675	326.7278	368.9294	430.1554	494.8013	603.3279	680.2946	728.0793	754.3102	781.0442	850.1264	907.7827	920.2283	935.4782	940.3059	968.4101	990.1642	1018.1026	1052.0379	1054.9383	1086.6901	1099.9682	1115.5998	1128.3094	1183.3827	1211.4325	1232.81	1251.0298	1257.0612	1294.0035	1316.5087	1352.0894	1378.1377	1470.9685	1483.7384	1502.2234	3062.3925	3067.8056	3102.2044	3111.1812	3124.7201	3127.5553	3153.4512	3172.4516	3201.7974	3795.5174
OC12CCC1C1CC21	O[C@]12CC[C@H]1[C@H]1C[C@@H]21	
InChI=1S/C7H10O/c8-7-2-1-5(7)4-3-6(4)7/h4-6,8H,1-3H2	InChI=1S/C7H10O/c8-7-2-1-5(7)4-3-6(4)7/h4-6,8H,1-3H2/t4-,5+,6-,7-/m1/s1
