21
gdb 110721	2.32264	1.42126	1.13252	1.7493	83.11	-0.2288	0.0149	0.2437	1187.9217	0.182863	-387.086147	-387.077252	-387.076308	-387.119519	34.503	
C	-0.027501993	 1.4960768377	 0.0167047267	-0.483396
C	-0.0208701367	-0.0151111321	-0.009996143	 0.311297
C	-0.7313685991	-0.7094255135	-1.1853254319	-0.333385
C	-1.3733974348	-1.9326121051	-0.5678389364	-0.074375
C	-1.1666500993	-1.9892868746	 0.750727509	-0.080655
C	-0.322235311	-0.8585092904	 1.2274401297	-0.145343
C	 1.1033778284	-0.7582210658	 0.6725718648	-0.081531
C	 1.8581776771	-1.9281001277	 0.090304765	-0.092007
O	 2.4887168323	-2.7093574429	 1.0993353147	-0.420482
H	 0.5505097886	 1.9118618206	-0.8174949638	 0.11803
H	-1.0482704056	 1.8885680318	-0.059959357	 0.116093
H	 0.4102466489	 1.8797463643	 0.9436059425	 0.115592
H	-1.4859016356	-0.0435011768	-1.6274208231	 0.104881
H	-0.0444406557	-0.968062865	-2.0017486186	 0.110789
H	-1.9157885465	-2.6664664107	-1.1534464075	 0.094449
H	-1.5386957652	-2.7663307537	 1.4098424038	 0.091532
H	-0.5195715708	-0.4054537836	 2.194050646	 0.082867
H	 1.7471270585	-0.1168364154	 1.2716277455	 0.087227
H	 1.2038779624	-2.5482011003	-0.5362561506	 0.092218
H	 2.6713860039	-1.5624225178	-0.5467199334	 0.106513
H	 1.7934171533	-3.010880969	 1.6934732276	 0.279683
72.3245	152.3857	196.4192	220.7733	224.9362	294.9032	315.5027	354.5619	409.4089	490.4421	574.6173	592.4638	709.0202	757.5323	767.4336	846.4404	869.135	932.0582	941.2983	957.7139	961.4381	990.3997	1025.497	1048.4722	1057.7747	1079.9642	1106.381	1119.689	1148.3128	1181.5828	1203.1527	1243.5291	1275.2482	1313.2259	1332.9727	1373.4434	1388.1799	1414.975	1420.2535	1454.9072	1480.3644	1490.6584	1500.936	1503.618	1666.8556	3006.8536	3019.3314	3020.922	3037.6791	3065.6921	3078.2683	3098.7315	3127.2195	3155.1366	3180.2989	3205.9883	3810.1593
CC12CC=CC1C2CO	C[C@]12CC=C[C@H]1[C@H]2CO	
InChI=1S/C8H12O/c1-8-4-2-3-6(8)7(8)5-9/h2-3,6-7,9H,4-5H2,1H3	InChI=1S/C8H12O/c1-8-4-2-3-6(8)7(8)5-9/h2-3,6-7,9H,4-5H2,1H3/t6-,7+,8-/m0/s1
