16
gdb 20932	7.23739	1.13877	1.0011	4.0448	69.39	-0.2053	0.0183	0.2236	1153.9942	0.131205	-379.91693	-379.909146	-379.908202	-379.949779	27.947	
C	 0.048543689	 1.4732918178	 0.1086945581	-0.399885
C	-0.0340179886	-0.025539683	-0.1564629751	-0.121341
N	-1.4010168065	-0.5019310806	 0.0472723031	-0.403402
C	-1.6977787121	-1.8341416473	 0.0318342286	 0.541496
C	-2.8788950763	-2.5253414204	-0.0856170038	-0.388476
C	-2.4684459595	-3.8714637588	 0.0511193923	 0.053704
N	-1.1779864487	-4.0119337557	 0.2283243379	-0.169184
O	-0.6783335725	-2.6848489102	 0.2115175078	-0.220096
H	 1.0729638547	 1.8268640984	-0.0349232988	 0.129663
H	-0.5940466272	 2.0353201456	-0.5792099648	 0.116687
H	-0.2602517169	 1.706816698	 1.1315794307	 0.133551
H	 0.3229897942	-0.2534661992	-1.172291815	 0.109808
H	 0.6138097342	-0.5707975303	 0.5345693366	 0.142226
H	-2.1234507905	 0.0836739863	-0.3440012994	 0.247289
H	-3.8691445086	-2.1316616287	-0.2364111976	 0.10301
H	-3.0829686847	-4.7615095519	 0.0253589994	 0.124948
55.6011	85.2392	148.0852	254.7798	292.3121	343.2151	425.8012	518.286	625.9894	714.4527	733.2325	745.4878	810.2331	892.0498	919.8733	922.6813	934.4159	1019.2487	1062.578	1075.0507	1145.4042	1163.7886	1225.6245	1291.2339	1340.1317	1346.0455	1392.8662	1416.9355	1479.5738	1495.9449	1499.6627	1524.3006	1556.4816	1657.4314	2990.2585	3035.1749	3088.3911	3109.8832	3125.9429	3233.4574	3281.6032	3613.7453
CCNC1=CC=NO1	CCNc1ccno1	
InChI=1S/C5H8N2O/c1-2-6-5-3-4-7-8-5/h3-4,6H,2H2,1H3	InChI=1S/C5H8N2O/c1-2-6-5-3-4-7-8-5/h3-4,6H,2H2,1H3
