19
gdb 84494	2.58529	1.54514	1.14632	1.4292	76.84	-0.2495	-0.0054	0.2441	1102.1202	0.158941	-423.013681	-423.005202	-423.004258	-423.046602	32.974	
C	-0.6948339722	 1.2492902625	-0.0783525281	-0.407878
C	 0.0161243465	-0.0991605822	-0.0605084063	-0.09894
C	 1.0339785565	-0.3247372938	-1.220811933	 0.065025
O	 1.6296541509	 0.8719873003	-1.7245816115	-0.426944
C	 2.0705094807	-1.2363618077	-0.5991104587	-0.131154
C	 1.9704492364	-1.26367466	 0.7309553857	-0.137627
C	 0.8196645496	-0.444548736	 1.2002868686	 0.413249
C	 0.8612165716	 0.3438905985	 2.4454870747	-0.255168
O	 0.1068184043	-0.8658374295	 2.3708885097	-0.285337
H	 0.0136028897	 2.0797166151	-0.0199461269	 0.113451
H	-1.2652417704	 1.3722656477	-1.0037572856	 0.120606
H	-1.3948380875	 1.327146902	 0.7596064392	 0.121034
H	-0.734733571	-0.8952968801	-0.1436104132	 0.09786
H	 0.5431408286	-0.765025014	-2.0943274896	 0.090056
H	 2.2553740505	 1.1845096117	-1.0615056168	 0.276938
H	 2.8358264132	-1.7252466755	-1.1909744687	 0.107138
H	 2.6172183657	-1.7937325351	 1.4208651484	 0.110989
H	 1.7464426456	 0.3064554207	 3.0806542378	 0.109426
H	 0.2761007712	 1.2588220954	 2.5234489545	 0.117275
63.0916	194.6377	221.6255	252.8883	260.4425	322.325	345.335	360.3355	443.4034	489.1161	597.392	601.0972	722.5075	751.9844	809.5693	836.9917	867.4674	917.5703	955.9441	976.6607	991.1115	997.0627	1071.4776	1091.6052	1127.9016	1135.979	1154.3659	1165.4014	1229.3844	1244.6022	1284.0234	1327.9866	1340.9224	1368.6476	1405.9644	1418.1492	1430.5739	1492.4218	1499.4034	1527.2698	1668.7608	3027.4432	3041.317	3063.6972	3077.0711	3107.8022	3118.1368	3164.5484	3190.2685	3214.0439	3799.1947
CC1C(O)C=CC11CO1	C[C@H]1[C@@H](O)C=C[C@]21CO2	
InChI=1S/C7H10O2/c1-5-6(8)2-3-7(5)4-9-7/h2-3,5-6,8H,4H2,1H3	InChI=1S/C7H10O2/c1-5-6(8)2-3-7(5)4-9-7/h2-3,5-6,8H,4H2,1H3/t5-,6-,7+/m0/s1
