18
gdb 13437	3.33712	1.34191	1.19009	3.8406	69.3	-0.271	0.0034	0.2744	1083.281	0.151612	-384.951074	-384.941978	-384.941034	-384.985395	31.609	
C	 0.2533820158	 1.5261554723	 0.2752366701	-0.417183
C	 0.1732818859	 0.0338681352	 0.0355797841	-0.052173
C	 0.6639259655	-0.6175497276	-1.2490710193	-0.060305
C	 1.2722664512	 0.1705835311	-2.3900988112	-0.405596
C	 1.4098701029	-0.8374619666	 0.0361511424	 0.07744
O	 2.6835446536	-0.222381459	 0.1243553787	-0.184512
C	 3.1612286214	-0.0073550163	 1.3682370422	 0.176917
O	 4.2278130059	 0.490008432	 1.5693095525	-0.274263
H	 1.1842203663	 1.9563033692	-0.0989920356	 0.139467
H	-0.5768655993	 2.0426246027	-0.2175248135	 0.124635
H	 0.1926749431	 1.7517675559	 1.34564274	 0.121438
H	-0.7010163383	-0.4349304145	 0.4808244082	 0.090833
H	 0.0811461937	-1.4755031267	-1.5743924745	 0.092749
H	 1.9542807093	 0.9457747151	-2.038192559	 0.139729
H	 1.8444363566	-0.4919759494	-3.0474320877	 0.125354
H	 0.4907386914	 0.6459945153	-2.9917596614	 0.119372
H	 1.3809816511	-1.8159493457	 0.5076504744	 0.106203
H	 2.4648943639	-0.345917323	 2.1590358796	 0.079895
50.1469	121.8129	131.994	155.4378	161.996	217.8335	264.3559	298.2136	462.2836	489.8577	591.0756	672.7193	755.4909	777.1437	906.0643	954.4612	967.1191	1030.5365	1051.4732	1053.4398	1114.1126	1132.8768	1156.8394	1173.4003	1178.7425	1189.4602	1261.066	1363.9512	1372.335	1416.5867	1421.8875	1424.8103	1449.8749	1489.2678	1493.8821	1503.3612	1514.2447	1867.3951	2958.4152	3037.1715	3043.1937	3092.7152	3099.5445	3121.6838	3130.0793	3136.1759	3141.1364	3152.2228
CC1C(C)C1OC=O	C[C@H]1[C@@H](C)[C@H]1OC=O	
InChI=1S/C6H10O2/c1-4-5(2)6(4)8-3-7/h3-6H,1-2H3	InChI=1S/C6H10O2/c1-4-5(2)6(4)8-3-7/h3-6H,1-2H3/t4-,5+,6-
