20
gdb 55475	3.20761	1.12024	0.94964	4.9218	75.21	-0.2537	0.0202	0.2739	1275.8515	0.174362	-440.336687	-440.328533	-440.327589	-440.369662	31.544	
O	-0.2631100445	-0.1273721617	 0.0438927548	-0.368338
C	-0.0571746758	 1.2027530901	 0.0137946303	 0.407038
O	 1.0340977646	 1.6890551856	-0.1030720803	-0.340758
C	-1.3508749696	 2.0242616771	 0.0808998031	-0.106826
C	-1.7799451246	 2.3606649281	-1.3624087057	-0.172692
C	-3.1602610831	 3.0241217982	-1.4010778609	-0.216784
C	-4.1888912125	 2.1462519314	-0.6786489076	-0.175898
C	-3.7263692812	 1.8580173371	 0.7485278559	-0.153874
N	-2.3940164822	 1.2330051912	 0.7503197578	-0.330184
H	-1.2286326638	-0.2412615159	 0.1629464346	 0.297684
H	-2.1158550772	 1.0770336983	 1.715255481	 0.233913
H	-1.116542374	 2.9612744359	 0.6084539505	 0.090885
H	-1.0124733505	 2.9988781135	-1.8085161867	 0.124187
H	-1.8074794909	 1.4303434191	-1.943704679	 0.10653
H	-3.1109974508	 4.0073526034	-0.9136634103	 0.09989
H	-3.4614501564	 3.2016993844	-2.4386600149	 0.102449
H	-5.1690460374	 2.6332584538	-0.6510560149	 0.099949
H	-4.310170318	 1.1981969387	-1.2169715773	 0.105116
H	-3.727051435	 2.8023916326	 1.3211208298	 0.090411
H	-4.4177714671	 1.1742945591	 1.2514356594	 0.1073
85.613	112.8988	197.2877	235.3895	301.364	343.1632	395.56	450.7681	516.9245	546.5036	653.8878	731.0162	767.8088	817.7003	850.8962	859.0329	901.8776	911.7873	938.6153	949.4086	1043.0984	1064.5036	1080.641	1129.3327	1149.5304	1169.5588	1220.3983	1228.9495	1274.0129	1294.0704	1320.8928	1342.009	1363.8223	1376.1046	1382.7335	1394.2972	1420.4139	1476.5835	1485.6887	1491.6142	1495.1645	1507.2229	1874.4596	2947.2042	2991.2776	3018.1896	3031.7031	3034.0623	3069.2002	3074.7118	3083.368	3099.3819	3499.1222	3535.0374
[O-]C(=O)C1CCCC[NH2+]1	OC(=O)[C@H]1CCCCN1	
InChI=1S/C6H11NO2/c8-6(9)5-3-1-2-4-7-5/h5,7H,1-4H2,(H,8,9)	InChI=1S/C6H11NO2/c8-6(9)5-3-1-2-4-7-5/h5,7H,1-4H2,(H,8,9)/t5-/m1/s1
