19
gdb 41475	3.11896	1.71112	1.36463	0.6206	74.18	-0.2339	0.0676	0.3014	986.2175	0.161427	-423.003416	-422.996369	-422.995425	-423.034749	28.616	
C	 0.1931232921	 1.5468278677	 0.4402303301	-0.24189
C	 1.6047541621	 1.5245413124	-0.2393551613	-0.333187
C	 1.3530521608	 0.072063369	-0.6405568714	 0.408972
O	 1.8169997658	-0.4204262324	-1.8543867009	-0.297797
C	 1.5933987183	-1.8351487773	-1.8331170579	-0.104364
C	 1.858634213	-2.2765168543	-0.3787148251	-0.247764
C	 1.4574493875	-1.0451367382	 0.4333894358	 0.049167
O	 0.0434390534	-0.9560221144	 0.7415449628	-0.310781
C	-0.133003834	 0.1488646363	-0.1662172846	 0.033193
H	 0.2041348791	 1.5311308369	 1.5317832976	 0.115077
H	-0.457995342	 2.3553417429	 0.1022857593	 0.107368
H	 1.6478167037	 2.1735156601	-1.1175909717	 0.11748
H	 2.4782295478	 1.7222603459	 0.3874228824	 0.101647
H	 0.5565962358	-2.054389924	-2.1245159326	 0.106451
H	 2.2640011873	-2.2902856483	-2.5648999375	 0.112141
H	 1.290902214	-3.1633782093	-0.088744012	 0.118178
H	 2.9241066954	-2.4788892228	-0.2311183851	 0.109627
H	 2.0765759109	-0.8791236285	 1.3204377227	 0.07676
H	-1.0256869211	 0.0503776984	-0.7875304106	 0.079721
118.65	189.5531	227.2693	336.4911	385.1684	451.2189	486.9606	622.0919	681.9169	712.2762	784.9547	814.2851	857.4244	889.029	890.8599	909.214	929.1104	967.6272	1003.4693	1026.2374	1043.7845	1086.6513	1103.9313	1113.4868	1134.2317	1174.2493	1200.2573	1215.5594	1225.7819	1248.3095	1265.7958	1289.8712	1299.3511	1319.2508	1337.4235	1353.5182	1395.3513	1467.0424	1468.6463	1489.5529	1516.4128	3008.6421	3051.7249	3060.6504	3066.8782	3073.2952	3090.3977	3107.2455	3110.7298	3121.6623	3134.8676
C1CC23OCCC2OC13	C1C[C@@]23OCC[C@@H]2O[C@@H]13	
InChI=1S/C7H10O2/c1-3-7-5(1)9-6(7)2-4-8-7/h5-6H,1-4H2	InChI=1S/C7H10O2/c1-3-7-5(1)9-6(7)2-4-8-7/h5-6H,1-4H2/t5-,6-,7-/m0/s1
