18
gdb 85152	1.92132	1.68033	1.09858	2.9993	73.58	-0.2444	-0.0234	0.221	1151.4236	0.146303	-439.131824	-439.122503	-439.121559	-439.166476	34.152	
C	-1.1272903421	 1.1567085487	 0.0750819839	-0.425909
C	-0.2154661574	-0.0576963186	-0.0226850247	 0.028863
C	 1.1269258844	 0.065575514	-0.8122289014	-0.350297
C	 1.7638917272	-0.8205167611	 0.250537845	 0.41929
O	 2.7215449355	-1.5322089159	 0.3058990041	-0.300116
C	 0.5770646362	-0.5751055945	 1.2338508062	-0.266994
C	 0.9717059875	 0.4786273934	 2.2591491615	 0.429311
N	 1.0142695432	 0.0366527157	 3.5494952325	-0.528076
O	 1.2492202882	 1.6253435318	 1.9538157286	-0.370468
H	-0.5936666496	 2.0195565256	 0.4754468718	 0.156823
H	-1.516349241	 1.4125672289	-0.9163341079	 0.113844
H	-1.986605624	 0.9515716597	 0.722904816	 0.112753
H	-0.7796464814	-0.9106214391	-0.4142174687	 0.08697
H	 1.1803837341	-0.2649484855	-1.851823576	 0.121222
H	 1.5336077414	 1.079283173	-0.7220936702	 0.157355
H	 0.1920224048	-1.4798251778	 1.7107653703	 0.086921
H	 0.9461917804	-0.940744915	 3.774037843	 0.264392
H	 1.4213861027	 0.6532146565	 4.235218426	 0.264115
38.9381	92.9362	142.4061	199.8311	232.1558	269.9327	296.8806	385.9689	415.0262	446.8252	475.1988	569.792	621.6021	654.6727	708.3062	754.3001	817.2626	877.6326	924.4502	973.9817	1033.2628	1057.1859	1067.2477	1099.9027	1135.7157	1153.7815	1198.3734	1235.0973	1263.4644	1281.5702	1368.359	1385.3392	1410.803	1431.7663	1492.8823	1510.6145	1619.8126	1775.2777	1894.6531	3035.627	3047.3252	3055.1627	3081.3839	3093.3303	3121.8227	3148.1482	3594.0393	3729.4141
CC1CC(=O)C1C(N)=O	C[C@H]1CC(=O)[C@H]1C(=O)N	
InChI=1S/C6H9NO2/c1-3-2-4(8)5(3)6(7)9/h3,5H,2H2,1H3,(H2,7,9)	InChI=1S/C6H9NO2/c1-3-2-4(8)5(3)6(7)9/h3,5H,2H2,1H3,(H2,7,9)/t3-,5-/m0/s1
