16
gdb 79127	5.1979	1.21571	1.11983	3.8341	68.69	-0.2399	0.0156	0.2555	1054.7133	0.126185	-437.86538	-437.858493	-437.857549	-437.896416	27.812	
O	-0.0247636482	 1.4497485508	-0.0645651529	-0.443146
C	 0.0308759627	 0.045754883	 0.0042402866	 0.122701
C	 0.0015918719	-0.6331391447	 1.3948132539	-0.12142
C	-1.5072351615	-0.208271522	 1.5399294253	 0.015767
N	-2.2628107042	-1.269706155	 2.1910586584	-0.345503
C	-1.646467314	-2.4380198811	 1.7528569621	 0.416671
O	-1.827973042	-3.568680311	 2.1308720532	-0.370593
C	-0.6652478364	-1.8915186222	 0.7191638535	-0.177459
C	-1.3422070894	-0.6392198978	 0.0501372074	-0.072328
H	 0.8712774074	 1.7941875792	-0.0013012638	 0.287367
H	 0.7454735225	-0.3738106366	-0.7145312337	 0.075533
H	 0.7716812996	-0.646653934	 2.1686922264	 0.079994
H	-1.7914533178	 0.8055942467	 1.8025369762	 0.105077
H	-2.5916737934	-1.1988204404	 3.1417588473	 0.250108
H	-0.0819890586	-2.6038548139	 0.1402652131	 0.088421
H	-2.1191226286	-0.654822241	-0.7147333531	 0.088809
156.146	204.6439	274.5815	346.4796	393.0354	441.9563	449.3398	563.2674	662.0413	719.8085	749.8052	795.2041	834.0165	883.6712	890.1344	926.1412	938.5027	975.6248	1012.511	1038.2129	1096.5683	1109.8037	1116.7633	1150.4655	1170.7447	1176.1893	1205.6037	1218.0386	1248.1755	1273.2902	1315.203	1325.2517	1384.4454	1444.0031	1860.7463	3030.4557	3097.4776	3116.9971	3154.6804	3180.8511	3632.0176	3825.8214
OC1C2C3NC(=O)C2C13	O[C@H]1[C@H]2[C@@H]3NC(=O)[C@H]2[C@H]13	
InChI=1S/C6H7NO2/c8-5-2-1-3(5)4(2)7-6(1)9/h1-5,8H,(H,7,9)	InChI=1S/C6H7NO2/c8-5-2-1-3(5)4(2)7-6(1)9/h1-5,8H,(H,7,9)/t1-,2-,3+,4+,5+
