21
gdb 126502	2.9237	1.00381	0.79845	2.7019	85.73	-0.221	0.0293	0.2503	1499.1214	0.183331	-383.310293	-383.300455	-383.299511	-383.346453	35.028	
C	 0.0825269173	 1.5839028863	-0.1541199569	-0.38078
C	 0.0620874606	 0.055417428	-0.0878930358	-0.153817
C	-1.3646226768	-0.5150382192	 0.0507483264	-0.312596
C	-1.4139951757	-2.008392724	 0.1211874893	 0.288907
C	-1.3872456164	-2.8880460719	 1.193726011	 0.120568
C	-1.3204854974	-2.5601328733	 2.654501114	-0.514753
C	-1.4276968508	-4.1687472646	 0.5938991869	-0.073392
N	-1.4751880983	-4.1094124608	-0.7330995904	-0.235103
N	-1.460142994	-2.7885348957	-0.9934552944	-0.251899
H	 1.1041087022	 1.9638709182	-0.2499857518	 0.11646
H	-0.4918360483	 1.9526811448	-1.0114742638	 0.114301
H	-0.3539500452	 2.0254054388	 0.748789555	 0.116624
H	 0.529873909	-0.3647653573	-0.9866636755	 0.099098
H	 0.6662059853	-0.292129332	 0.7582428194	 0.10809
H	-1.8284955509	-0.1021673654	 0.9542198734	 0.114525
H	-1.9764176175	-0.1631235896	-0.791013293	 0.100994
H	-1.852100291	-3.3089408995	 3.2499278914	 0.127913
H	-0.2892795304	-2.5258148624	 3.0274554276	 0.127593
H	-1.7737059116	-1.5873196247	 2.871922813	 0.120582
H	-1.4320850649	-5.1312426943	 1.086634034	 0.101982
H	-1.5137105753	-2.4805507413	-1.9498851799	 0.264705
37.7569	58.0288	83.759	114.1734	230.0006	249.5221	253.9662	307.4542	359.9995	409.5996	506.5407	648.5961	689.0434	694.6158	742.8627	770.2739	867.822	882.0547	896.1806	956.4934	1000.5816	1041.9085	1062.6335	1075.2108	1108.5952	1142.726	1190.1138	1237.4762	1249.9486	1304.075	1312.9203	1342.1115	1376.6455	1381.3065	1411.9549	1420.5453	1445.0045	1479.3416	1487.4199	1491.7294	1497.0183	1498.1853	1509.8739	1521.5689	1625.5956	3014.6257	3022.5219	3028.6949	3032.335	3052.9425	3071.89	3074.8014	3097.592	3100.7706	3104.8355	3232.7136	3666.1554
CCCC1=C(C)C=NN1	CCCc1c(C)cn[nH]1	
InChI=1S/C7H12N2/c1-3-4-7-6(2)5-8-9-7/h5H,3-4H2,1-2H3,(H,8,9)	InChI=1S/C7H12N2/c1-3-4-7-6(2)5-8-9-7/h5H,3-4H2,1-2H3,(H,8,9)
