20
gdb 80655	2.50596	1.80125	1.30598	3.0818	79.51	-0.2485	0.0251	0.2736	1036.6393	0.17326	-403.159715	-403.152038	-403.151094	-403.191737	31.063	
C	-0.3982802226	 1.4149015183	 0.0281305028	-0.402256
C	 0.0597910485	-0.0482661618	-0.0194751183	-0.062539
C	 0.9127684469	-0.3793096657	-1.25299204	-0.024061
C	 1.4192742094	-1.8449236062	-1.1281462525	-0.258229
C	 2.5114724435	-1.2532495735	-0.2098115447	 0.123146
C	 2.3831382648	 0.0688616984	-0.998714544	-0.25152
O	 2.0040382638	-1.0847634531	 1.1239495969	-0.265837
C	 0.8070794724	-0.4356651533	 1.261136702	 0.389173
N	 0.3254027901	-0.1789060809	 2.4029941961	-0.527219
H	 0.4552287301	 2.1005133918	 0.0066740853	 0.115724
H	-1.0367496217	 1.641144711	-0.8319742697	 0.107637
H	-0.9574304887	 1.6018404065	 0.9461768923	 0.149948
H	-0.8387473702	-0.6790591619	-0.0458477317	 0.105843
H	 0.4191127773	-0.0684586866	-2.1762046537	 0.068147
H	 0.7519265147	-2.5937013617	-0.6928571924	 0.106512
H	 1.8426639695	-2.2208723282	-2.0627031365	 0.105692
H	 3.4757932246	-1.7481599153	-0.0953073305	 0.084559
H	 2.9832727751	 0.0511512106	-1.9113594896	 0.107311
H	 2.5681898502	 0.9967497374	-0.4517292149	 0.110454
H	 0.9537069623	-0.516541526	 3.1347993932	 0.217511
73.7896	211.1337	234.7886	284.1994	383.8101	394.6528	435.5122	461.3829	507.4912	585.0425	655.5858	751.3098	816.3585	839.2912	886.4197	894.2693	904.2203	920.3419	949.2657	974.7594	1027.3875	1043.4883	1067.2253	1079.9615	1104.7471	1124.368	1132.4909	1166.6005	1194.4435	1244.9821	1267.6699	1279.3434	1289.633	1311.5411	1335.8374	1367.3686	1397.7654	1408.7038	1469.5356	1493.5262	1497.5666	1504.0055	1744.9566	3018.5456	3038.9019	3058.647	3064.2298	3085.368	3103.0865	3114.4249	3119.6045	3124.177	3142.653	3465.7291
CC1C2CC(C2)OC1=N	C[C@H]1[C@@H]2C[C@@H](C2)O[C]1[NH]	
InChI=1S/C7H11NO/c1-4-5-2-6(3-5)9-7(4)8/h4-6,8H,2-3H2,1H3	InChI=1S/C7H11NO/c1-4-5-2-6(3-5)9-7(4)8/h4-6,8H,2-3H2,1H3/t4-,5-,6+/m0/s1
