16
gdb 29630	2.34822	1.94095	1.06977	4.9378	76.04	-0.2024	-0.023	0.1794	1061.214	0.125567	-437.961477	-437.953529	-437.952585	-437.993897	30.266	
C	-0.0182474502	 1.4514721432	 0.0682690198	-0.347168
N	 0.0020322601	-0.0126756252	 0.0409232158	-0.211611
C	-0.0226763817	-0.6527908318	-1.2469586717	 0.433154
O	-0.0589108498	 0.0299568974	-2.2590501116	-0.40956
C	-0.0003996902	-2.092219955	-1.1895480274	-0.26626
C	 0.0403934437	-2.7639526294	-0.003811446	-0.032224
C	 0.0630738385	-2.0817097071	 1.2333628806	-0.349229
C	 0.0426473691	-0.711442575	 1.2044675824	 0.512146
O	 0.0602361059	 0.0752854411	 2.3032642965	-0.410736
H	 0.8770937612	 1.8373518913	 0.5612516659	 0.139403
H	-0.0501263248	 1.7749434511	-0.969926602	 0.17785
H	-0.8972116432	 1.8119085673	 0.6077889741	 0.139401
H	-0.0180804184	-2.6021590455	-2.1435578257	 0.111469
H	 0.0561072644	-3.8496379037	-0.0004842492	 0.108781
H	 0.0954737785	-2.606832103	 2.1792917057	 0.090894
H	 0.0888417169	-0.4880154157	 3.0842649928	 0.313691
100.6042	130.4681	202.6073	245.5715	354.8347	395.4965	406.493	465.7564	495.0099	531.5314	584.6558	671.883	705.3978	720.7454	753.5362	819.7593	839.0104	969.417	986.4056	1072.3452	1117.7027	1156.4196	1182.6732	1185.6653	1231.5326	1269.9595	1319.1982	1413.9318	1444.3836	1496.7127	1503.0294	1533.9884	1580.522	1663.9176	1767.9908	3058.8865	3123.0774	3175.7497	3183.2971	3206.3482	3224.7229	3826.368
CN1C(=O)C=CC=C1O	Cn1c(=O)cccc1O	
InChI=1S/C6H7NO2/c1-7-5(8)3-2-4-6(7)9/h2-4,8H,1H3	InChI=1S/C6H7NO2/c1-7-5(8)3-2-4-6(7)9/h2-4,8H,1H3
