21
gdb 71895	2.33756	1.77419	1.59294	1.1433	81.62	-0.2286	0.0748	0.3034	1002.5379	0.182848	-387.057728	-387.049545	-387.048601	-387.089641	33.346	
C	 0.0223098587	 1.5294381883	 0.020621048	-0.493941
C	-0.0251150316	 0.0192709329	 0.0031024265	 0.317307
C	 0.4473315437	-0.7219724441	-1.2807399881	-0.271475
C	-0.6975821031	-1.7581082229	-1.1408256945	-0.116819
C	-0.4266384243	-2.8125976573	-0.0381917796	-0.22308
C	-0.7561452175	-1.7820471861	 1.0711048043	-0.116852
C	 0.3791702423	-0.7498329256	 1.2938159201	-0.271487
C	-1.3486657723	-0.8253854777	-0.0410724734	 0.362887
O	-2.5809189513	-0.2029534677	-0.0669144915	-0.479439
H	 1.0596780571	 1.8858693337	 0.051267683	 0.110995
H	-0.4500934733	 1.9540238509	-0.8716542693	 0.116745
H	-0.4957962933	 1.9350117142	 0.8962157843	 0.116715
H	 0.298675277	-0.0914641172	-2.1632762215	 0.096218
H	 1.4735289351	-1.1046566355	-1.294544267	 0.086673
H	-1.195441158	-2.0878306276	-2.0538785827	 0.0602
H	-1.1757875518	-3.6105436699	-0.0666578084	 0.091066
H	 0.567248031	-3.2717358683	-0.0168354725	 0.089226
H	-1.3014403469	-2.1311483439	 1.9491929041	 0.060188
H	 1.4034125001	-1.1333266192	 1.3536335439	 0.086679
H	 0.1836506398	-0.138489837	 2.1806870213	 0.096216
H	-3.2702152913	-0.87616626	-0.0911999472	 0.281976
178.5602	190.252	196.5563	249.8131	265.4251	364.2239	389.9382	405.1136	432.406	536.794	612.2454	634.2698	716.8454	819.9229	828.579	866.4064	907.2551	912.1536	920.9923	959.5963	982.5844	1020.5583	1036.1197	1046.2334	1053.1617	1094.3705	1105.2564	1161.7742	1188.8757	1191.001	1222.7614	1240.974	1246.2412	1263.9628	1285.0124	1300.9534	1311.2196	1342.577	1392.8775	1411.6739	1475.2249	1477.8193	1488.5568	1493.317	1499.1423	3019.1603	3032.5705	3035.0634	3038.3632	3082.4016	3083.0061	3083.647	3086.7219	3092.7534	3096.3922	3098.7116	3792.4492
CC12CC3CC(C1)C23O	C[C@@]12C[C@H]3C[C@@H](C1)[C@@]23O	
InChI=1S/C8H12O/c1-7-3-5-2-6(4-7)8(5,7)9/h5-6,9H,2-4H2,1H3	InChI=1S/C8H12O/c1-7-3-5-2-6(4-7)8(5,7)9/h5-6,9H,2-4H2,1H3/t5-,6+,7-,8-
