21
gdb 114365	2.52407	1.44017	1.3187	2.3708	78.13	-0.2433	0.0669	0.3101	1107.5253	0.183111	-424.184851	-424.176359	-424.175415	-424.217767	33.263	
C	 0.5022376377	 0.6376707108	 0.6639485541	-0.245269
O	 0.1539598586	-0.591655974	 0.0574888568	-0.245904
C	 0.5547595977	-0.6778018887	-1.3005374651	 0.104907
C	 2.0448888072	-1.0918373737	-1.5204238268	-0.264704
C	 1.5681676628	-2.4886939519	-1.957941964	-0.047915
C	 1.1812376093	-3.4498561661	-0.7650549425	 0.123069
O	 1.6761525189	-3.1161474513	 0.5085452385	-0.436632
C	-0.3267656891	-3.1326275689	-1.0128533762	-0.260547
C	 0.0772348199	-2.0014175953	-1.978051067	-0.058881
H	 1.5885961886	 0.8047848314	 0.6630696301	 0.116921
H	 0.0201340945	 1.4821387475	 0.149887586	 0.113797
H	 0.1495722101	 0.6013775233	 1.6973032187	 0.131626
H	 0.2482738713	 0.2366618167	-1.8258261456	 0.069062
H	 2.5177334718	-0.5305331953	-2.3307400913	 0.098503
H	 2.6893728981	-1.0561946045	-0.6378077278	 0.107888
H	 2.0574720999	-2.9657152783	-2.8078422665	 0.059451
H	 1.4654553374	-4.4908617561	-0.9381962509	 0.081656
H	 1.2377570994	-2.2939649206	 0.7697370174	 0.285082
H	-0.8401131673	-3.9445782291	-1.535832867	 0.09742
H	-0.9080106235	-2.8584941275	-0.1296926579	 0.10871
H	-0.5040498834	-1.8615926289	-2.8900350127	 0.061759
99.6609	134.9231	180.8447	193.9218	242.7946	325.7086	414.627	442.7557	471.2371	531.2399	580.9187	646.095	741.6599	763.779	813.4958	865.9317	898.6148	922.1233	969.5842	983.6541	1020.9158	1040.7813	1062.2638	1077.2859	1111.315	1138.7717	1142.8552	1171.3133	1185.7658	1200.5238	1223.4893	1239.4065	1260.5894	1272.3852	1289.5448	1298.2519	1317.9761	1339.9798	1376.3743	1463.5933	1466.6247	1471.7077	1482.7249	1487.5725	1510.091	2987.9817	3006.6243	3041.457	3056.3664	3056.8072	3073.5115	3094.5418	3104.8682	3111.638	3117.7485	3119.0554	3730.0974
COC1CC2C(O)CC12	CO[C@H]1C[C@H]2[C@@H](O)C[C@@H]12	
InChI=1S/C7H12O2/c1-9-7-3-4-5(7)2-6(4)8/h4-8H,2-3H2,1H3	InChI=1S/C7H12O2/c1-9-7-3-4-5(7)2-6(4)8/h4-8H,2-3H2,1H3/t4-,5-,6+,7+/m1/s1
