18
gdb 14911	4.47734	1.45127	1.16978	1.647	74.15	-0.2471	0.0401	0.2872	1033.3516	0.154567	-347.77976	-347.772209	-347.771264	-347.811355	29.407	
C	 0.0195738364	-1.1994165526	-0.0424456592	-0.411319
C	 0.0377360768	 0.0010770789	-0.010995595	 0.297575
C	 0.0105095128	 1.4595289083	 0.047754107	-0.055164
C	-0.7507606176	 1.9751537298	 1.2855335243	-0.195289
C	-0.6948800453	 3.5079925188	 1.3383635345	-0.216557
C	 0.7568991871	 3.9914184759	 1.2192892087	-0.194002
C	 1.4204171182	 3.35375938	-0.002254043	-0.059105
O	 1.3537208848	 1.9355216726	 0.039569184	-0.25756
H	 0.0152402506	-2.2607094046	-0.0780184289	 0.194502
H	-0.5051566872	 1.8366222213	-0.8552597358	 0.089434
H	-1.7839024034	 1.6146994963	 1.2514039262	 0.10522
H	-0.2803389596	 1.5437161681	 2.1761092011	 0.113379
H	-1.2850026122	 3.9213591699	 0.508720678	 0.096646
H	-1.1545078971	 3.8736691383	 2.2623725282	 0.098786
H	 0.8033942888	 5.0833453501	 1.137943433	 0.094505
H	 1.3195283813	 3.7050037255	 2.1161055563	 0.106411
H	 0.9411152627	 3.7249498928	-0.9255384756	 0.084153
H	 2.484678143	 3.5995563905	-0.0558696638	 0.108385
110.9932	151.0022	240.2854	261.891	366.8396	406.8434	440.2609	517.4424	536.5301	560.4788	619.2235	670.1374	810.7855	845.3361	857.4934	910.0576	936.586	961.4341	1048.7562	1065.0816	1071.885	1107.185	1137.0179	1196.9925	1225.3285	1280.7987	1291.9288	1324.8264	1361.3741	1366.6513	1379.0231	1386.785	1411.8847	1472.9285	1481.2612	1488.8131	1500.3175	2245.0578	2925.4118	2951.7638	3014.8134	3030.7633	3043.182	3070.5361	3077.5882	3087.8925	3092.3581	3505.2096
C#CC1CCCCO1	C#C[C@H]1CCCCO1	
InChI=1S/C7H10O/c1-2-7-5-3-4-6-8-7/h1,7H,3-6H2	InChI=1S/C7H10O/c1-2-7-5-3-4-6-8-7/h1,7H,3-6H2/t7-/m0/s1
