19
gdb 122036	2.66528	0.80365	0.64353	1.7385	80.56	-0.2478	-0.0422	0.2056	1745.1575	0.154216	-422.985425	-422.974559	-422.973615	-423.023174	36.939	
C	-0.1032516838	 1.4998396356	 0.2139527343	-0.385234
C	-0.2394576028	-0.0011945507	-0.0541502818	-0.18529
C	 0.7139794299	-0.4819687588	-1.137452571	-0.043613
O	 0.5038198552	-1.8785697378	-1.3272935127	-0.258849
C	 1.3284684478	-2.4418912181	-2.3297273434	-0.119717
C	 2.7640546582	-2.6094046865	-1.7853565774	 0.142679
O	 3.7526723284	-2.2356861642	-2.3529159488	-0.229693
C	 0.8244313668	-3.7612987482	-2.6902848104	 0.273525
C	 0.4769945463	-4.8751687518	-2.9763751203	-0.399039
H	 0.9091661418	 1.7574387749	 0.5436445572	 0.120236
H	-0.3192132513	 2.0880112812	-0.6846706092	 0.119457
H	-0.7979100051	 1.8208512635	 0.99503569	 0.121486
H	-0.0435391532	-0.5712651558	 0.860988797	 0.110973
H	-1.2631175295	-0.2436269699	-0.3608045842	 0.112997
H	 0.5305963224	 0.0532339476	-2.083462605	 0.097295
H	 1.7579068967	-0.2795624967	-0.8490408032	 0.101149
H	 1.3829471623	-1.7956874178	-3.2193459294	 0.114424
H	 2.7855864473	-3.1018289234	-0.7886819071	 0.099372
H	 0.1490809525	-5.8508167332	-3.2395531744	 0.207842
47.7769	50.1121	60.5017	101.2999	137.2568	172.3565	221.8512	229.6696	313.8942	366.3094	382.4705	468.2946	488.9799	605.5962	637.683	678.9951	764.5253	899.5955	904.8311	939.4345	1008.0345	1035.2137	1048.9146	1066.5527	1122.9556	1150.3981	1189.3155	1259.7256	1270.3845	1316.7317	1323.0663	1348.3896	1394.7298	1412.716	1438.6756	1492.1936	1500.0518	1507.418	1526.3184	1840.3862	2239.2108	2902.4772	2966.0869	2994.0877	2998.5075	3033.8307	3042.3807	3075.5534	3102.8017	3111.889	3502.3679
CCCOC(C=O)C#C	CCCO[C@@H](C=O)C#C	
InChI=1S/C7H10O2/c1-3-5-9-7(4-2)6-8/h2,6-7H,3,5H2,1H3	InChI=1S/C7H10O2/c1-3-5-9-7(4-2)6-8/h2,6-7H,3,5H2,1H3/t7-/m1/s1
