13
gdb 9816	3.72353	1.71312	1.29717	3.945	60.8	-0.2851	-0.0896	0.1955	896.973	0.093465	-398.600221	-398.592382	-398.591437	-398.632737	28.007	
O	 0.0331880009	 1.3926479695	-0.0034950077	-0.446804
C	 0.0155899985	 0.0028309825	 0.0230217663	 0.278323
C	-0.532965324	-0.7305110063	 1.2446957683	-0.302504
C	-1.3514919547	-0.6499108642	-0.0025276457	-0.272645
C	 1.0931653644	-0.6928919361	-0.7341709273	 0.230468
O	 1.1762593083	-1.8897768065	-0.8759139807	-0.292867
C	 2.12438621	 0.2006310292	-1.3108874669	 0.234039
N	 2.9657893784	 0.8623480809	-1.7480054655	-0.307018
H	 0.7295769426	 1.7146635866	 0.580559029	 0.29964
H	-0.0666380657	-1.6766090011	 1.4938771724	 0.148463
H	-0.8055319704	-0.0925078051	 2.0774534232	 0.135053
H	-2.1804488902	 0.0469783195	-0.0285701339	 0.145347
H	-1.449211038	-1.5414290189	-0.6103232216	 0.150508
48.7499	143.0042	229.666	255.2517	305.3759	323.9452	360.5443	416.3452	472.1033	558.6095	690.7901	753.7344	783.4136	849.1097	872.3684	954.7626	1004.9256	1051.244	1087.7947	1096.9063	1205.5215	1262.2134	1326.939	1363.7104	1441.4359	1473.6601	1775.6298	2338.5875	3143.1549	3150.4315	3238.7156	3253.946	3793.9627
OC1(CC1)C(=O)C#N	OC1(CC1)C(=O)C#N	
InChI=1S/C5H5NO2/c6-3-4(7)5(8)1-2-5/h8H,1-2H2	InChI=1S/C5H5NO2/c6-3-4(7)5(8)1-2-5/h8H,1-2H2
