21
gdb 87718	2.42035	1.28784	1.14602	1.9494	78.85	-0.2491	0.0558	0.3049	1218.0718	0.180181	-424.203396	-424.193653	-424.192709	-424.237666	36.521	
C	 0.0179735295	 1.4727671884	-0.2342207021	-0.419484
C	 0.0149236201	-0.016991634	-0.0184300715	-0.013525
O	 1.2893356768	-0.6870311169	-0.09107039	-0.30746
C	 0.6186648492	-0.6561465402	 1.1546299547	 0.429424
C	 1.1359394527	-0.0385452279	 2.4568462749	-0.341644
C	 0.2395888675	-1.0602007822	 3.2290750913	-0.04221
C	-1.078741913	-0.4815467498	 3.7304080695	-0.379634
C	 0.1065493403	-1.8837447389	 1.8961945839	 0.026804
O	-1.1601599906	-2.3386174219	 1.4842893983	-0.423704
H	 0.835853384	 1.9480702909	 0.3131307869	 0.125731
H	 0.1374772481	 1.7058138795	-1.2974841308	 0.129084
H	-0.9298692631	 1.9096355967	 0.0993940694	 0.121516
H	-0.7886004231	-0.5658390685	-0.51007778	 0.104671
H	 2.2064330004	-0.2127246041	 2.5955665243	 0.111069
H	 0.924998359	 1.0204279773	 2.6266443822	 0.10503
H	 0.7506147531	-1.593361926	 4.0353298282	 0.065809
H	-1.5994300527	 0.0680454053	 2.9401232675	 0.123156
H	-1.7536492042	-1.2719490685	 4.0733683556	 0.110093
H	-0.906392713	 0.2051324352	 4.5656475191	 0.110485
H	 0.854706288	-2.6879136586	 1.8566304977	 0.076856
H	-1.3061241291	-3.2177190556	 1.845851651	 0.287933
70.987	139.3234	179.8536	198.4794	221.6948	232.1807	239.0056	246.4052	349.4703	419.6852	456.9734	497.7546	550.3916	621.7541	766.2673	803.6194	814.4329	841.5127	894.6065	931.8463	972.3034	1023.0303	1036.1232	1080.4403	1098.5626	1113.4912	1133.0519	1169.3234	1174.3911	1195.3172	1212.3517	1231.4228	1269.8323	1294.868	1347.0108	1364.7683	1407.0908	1411.7744	1433.9873	1470.5188	1484.2311	1491.0757	1493.1393	1495.5665	1525.8255	3004.2101	3035.4836	3035.6588	3056.2805	3065.7647	3098.5601	3102.5687	3107.7489	3108.5575	3112.3093	3128.5342	3828.7839
CC1OC11CC(C)C1O	C[C@H]1O[C@]21C[C@@H](C)[C@H]2O	
InChI=1S/C7H12O2/c1-4-3-7(6(4)8)5(2)9-7/h4-6,8H,3H2,1-2H3	InChI=1S/C7H12O2/c1-4-3-7(6(4)8)5(2)9-7/h4-6,8H,3H2,1-2H3/t4-,5-,6-,7+/m1/s1
