18
gdb 10993	2.90297	2.36501	1.73656	2.3166	66.58	-0.2493	0.0675	0.3168	815.7617	0.155129	-384.928423	-384.921254	-384.92031	-384.959134	29.169	
O	-0.1691394095	 1.3825680282	-0.1176996432	-0.460778
C	-0.0075825909	-0.0184910383	-0.0169624424	 0.086442
C	 0.0946204694	-0.6159179355	 1.4180973862	-0.074934
C	-1.4244097751	-0.3190248789	 1.5613458871	-0.295361
C	-1.4153856278	-0.680717248	 0.0347675449	 0.430138
O	-2.4145648381	-0.3118640361	-0.8517692297	-0.496461
C	-1.0649098259	-2.1714386396	 0.0513519789	-0.252345
C	 0.1009721896	-2.1265560782	 1.0972929023	-0.22107
H	 0.6750350446	 1.8058312643	 0.0638317388	 0.287794
H	 0.7035931328	-0.3908824108	-0.7685183819	 0.056201
H	 0.8254091947	-0.2454903839	 2.1374273734	 0.05693
H	-2.0114166346	-0.9502836971	 2.2337944657	 0.086118
H	-1.633093392	 0.7361362808	 1.7327512637	 0.104662
H	-2.3883406616	 0.6505326618	-0.916625774	 0.288842
H	-1.9114552688	-2.7828158175	 0.3739859763	 0.104658
H	-0.7460824858	-2.52387426	-0.933474147	 0.101191
H	 1.0538686519	-2.4599417485	 0.6752440274	 0.096136
H	-0.1045650729	-2.7337456427	 1.9827454533	 0.101835
192.6639	246.5602	254.9176	283.5701	381.1555	390.6132	435.7944	451.5822	578.7449	611.4868	671.2236	813.6442	827.3816	859.6962	895.3116	925.4846	952.2399	972.179	997.9694	1043.216	1060.4965	1089.5037	1136.4946	1145.0939	1180.8667	1183.0349	1215.5356	1241.3104	1256.1777	1264.5088	1294.1558	1316.6607	1339.6624	1410.4911	1419.3749	1487.3213	1492.2994	1519.5186	2995.8548	3050.9747	3062.151	3067.8954	3090.5758	3110.7407	3111.44	3150.0921	3788.5806	3827.4794
OC1C2CC1(O)CC2	O[C@H]1[C@H]2C[C@]1(O)CC2	
InChI=1S/C6H10O2/c7-5-4-1-2-6(5,8)3-4/h4-5,7-8H,1-3H2	InChI=1S/C6H10O2/c7-5-4-1-2-6(5,8)3-4/h4-5,7-8H,1-3H2/t4-,5+,6-/m1/s1
