16
gdb 51292	4.13994	1.16089	0.97566	4.407	72.55	-0.2435	-0.0163	0.2272	1178.9988	0.12621	-434.074632	-434.06704	-434.066095	-434.107362	28.141	
O	-0.4146008684	 0.0950473916	-0.0621287157	-0.257973
C	-0.0882707389	 1.2455922626	 0.0431137032	 0.156271
N	 1.2060947937	 1.7370561482	 0.0741940911	-0.389076
C	 2.3996157095	 1.0358791628	 0.0265962889	 0.45138
N	 2.5557482273	-0.2255995334	-0.0108502393	-0.267033
C	 4.0040443124	-0.4720360021	-0.0170001196	-0.186496
C	 4.6546866698	 0.9127140881	-0.0929262386	-0.03285
C	 4.2963489753	 1.7764967784	-1.2392344335	-0.251276
N	 3.5538169232	 1.8970510036	 0.0492598113	-0.185457
H	-0.8098406154	 2.0835957495	 0.1257263863	 0.082373
H	 1.3175535552	 2.7349618395	 0.1737696465	 0.265793
H	 4.2910952648	-0.9922596153	 0.9047080139	 0.121514
H	 4.2768138417	-1.1263543634	-0.8527803986	 0.120875
H	 5.5549502424	 1.1196935488	 0.4754467145	 0.107389
H	 4.9074323755	 2.6398180193	-1.4819310519	 0.127959
H	 3.7646255118	 1.3301899516	-2.0755946886	 0.136607
53.1309	161.438	171.2595	269.5202	301.3807	349.0058	391.325	603.9846	610.4835	714.7518	737.5972	786.909	840.6097	842.1523	903.2369	936.6295	981.9682	1024.16	1036.1175	1084.839	1088.3126	1112.491	1128.3239	1171.6321	1206.1714	1235.9824	1267.4902	1332.4826	1370.0779	1444.4982	1488.0672	1500.1315	1536.43	1721.9669	1848.3184	2928.4762	3033.0497	3063.7059	3114.2262	3171.7259	3208.8484	3626.9949
O=CNC1=NCC2CN12	O=CNC1=NC[C@H]2CN12	
InChI=1S/C5H7N3O/c9-3-7-5-6-1-4-2-8(4)5/h3-4H,1-2H2,(H,6,7,9)	InChI=1S/C5H7N3O/c9-3-7-5-6-1-4-2-8(4)5/h3-4H,1-2H2,(H,6,7,9)/t4-,8?/m0/s1
