16
gdb 48612	3.69919	1.47527	1.25691	0.5948	68.12	-0.2574	-0.0485	0.2089	980.1093	0.12527	-437.884827	-437.8777	-437.876756	-437.91668	27.483	
O	-0.360181723	 0.3544073535	-0.5930840415	-0.25698
C	 0.076279188	 1.0887642316	 0.2555921879	 0.078985
C	 1.3330105935	 1.8909473151	 0.0567031957	 0.325108
C	 2.6516856303	 1.1967607218	-0.3932074081	-0.267628
C	 3.0242451487	 2.5919382989	-0.9738817282	-0.006425
C	 1.4980715742	 2.8059843344	-1.1917833684	-0.267631
N	 3.4683645858	 3.4572012023	 0.128145353	-0.252325
C	 2.7079060038	 3.4140345317	 1.1396868833	 0.099592
O	 1.5796844847	 2.6591764824	 1.2484040349	-0.278475
H	-0.4172260837	 1.2245760423	 1.2415934807	 0.099136
H	 3.2904596682	 0.7808860773	 0.3876797912	 0.118431
H	 2.4345709211	 0.4575251939	-1.1651477253	 0.133325
H	 3.7101123809	 2.6657225998	-1.815999319	 0.086567
H	 1.1176309921	 2.2945870194	-2.076790661	 0.133322
H	 1.109438659	 3.8232734763	-1.1220979212	 0.118432
H	 2.8885875364	 3.9912953793	 2.0419495759	 0.136564
65.6409	187.9578	211.1328	352.7894	397.4587	410.7146	473.4905	557.2135	616.8962	703.5164	776.6699	834.5482	858.9085	876.3362	907.5315	938.2279	946.5847	981.7017	997.8811	1064.0089	1102.0301	1126.3698	1149.3962	1180.1356	1208.0024	1237.2996	1250.4834	1278.973	1332.7018	1378.2712	1406.1957	1465.5816	1493.2416	1701.5715	1829.6728	2911.169	3078.4132	3082.7955	3124.4297	3150.4186	3153.7639	3186.8986
O=CC12CC(C1)N=CO2	O=C[C@@]12C[C@@H](C1)[N][CH]O2	
InChI=1S/C6H7NO2/c8-3-6-1-5(2-6)7-4-9-6/h3-5H,1-2H2	InChI=1S/C6H7NO2/c8-3-6-1-5(2-6)7-4-9-6/h3-5H,1-2H2/t5-,6+
