18
gdb 51860	4.39306	0.96416	0.83509	4.1412	77.5	-0.2596	0.0022	0.2618	1374.1149	0.148227	-439.086694	-439.078325	-439.077381	-439.120513	30.663	
N	-0.0358686137	 1.3175916006	-0.0818945843	-0.440668
C	-0.0091232152	 0.0577988988	-0.0799719015	 0.136552
O	-1.1704455836	-0.6375335153	-0.0368948952	-0.189376
C	-1.0419535328	-2.0394498678	 0.0483544678	 0.174765
O	-0.5769231407	-2.3434885346	 1.341959958	-0.256505
C	-0.7055908389	-3.7228824069	 1.6631522526	-0.079731
C	-2.1772596077	-4.1378478079	 1.7158122612	-0.258595
C	-2.9064212837	-3.5976488293	 0.5145509357	-0.061636
C	-2.3843340349	-2.6458167348	-0.2529520084	-0.086154
H	 0.9124732973	 1.6836982917	-0.1361708884	 0.229535
H	 0.8808872031	-0.5827321929	-0.1183664114	 0.097101
H	-0.2905679479	-2.3739291809	-0.6949783969	 0.071545
H	-0.1703909584	-4.3370041675	 0.9207712207	 0.096381
H	-0.2111423507	-3.8541857566	 2.6285560024	 0.116617
H	-2.2536662151	-5.2315880644	 1.7536727239	 0.109641
H	-2.6460038227	-3.7627680739	 2.6354764044	 0.127221
H	-3.8873702986	-4.0062857017	 0.2875928309	 0.101741
H	-2.8931470658	-2.2564920265	-1.1283035014	 0.111566
65.9714	90.0519	105.7411	198.2468	274.251	343.8543	393.7362	435.6891	505.0566	589.7477	638.6573	729.0888	789.4506	822.2777	875.4335	922.376	974.0154	994.2549	1004.5528	1038.8311	1041.2707	1084.3376	1086.7437	1097.9459	1158.5787	1205.0895	1236.348	1283.5223	1297.3231	1352.1554	1366.8365	1375.439	1412.2067	1422.9396	1431.0441	1469.3125	1501.6897	1729.756	1753.4462	2894.9401	2977.645	3020.384	3042.8214	3055.7104	3099.7252	3162.9877	3196.1567	3516.554
N=COC1OCCC=C1	[NH][CH]O[C@H]1OCCC=C1	
InChI=1S/C6H9NO2/c7-5-9-6-3-1-2-4-8-6/h1,3,5-7H,2,4H2	InChI=1S/C6H9NO2/c7-5-9-6-3-1-2-4-8-6/h1,3,5-7H,2,4H2/t6-/m1/s1
