18
gdb 128780	6.60945	0.77986	0.70884	2.8176	76.82	-0.1962	0.0338	0.23	1581.1864	0.148817	-435.273743	-435.264539	-435.263594	-435.308392	33.05	
C	-0.9110117725	 1.4823239246	 0.4098581034	-0.225568
O	-0.7991199995	 0.0913121194	 0.6060877888	-0.244008
C	-0.5315969361	-0.6133836964	-0.5902231085	-0.176142
C	-0.5467680262	-2.0766892658	-0.2875776391	 0.392553
C	 0.0171842282	-3.1640980228	-0.9252290585	-0.405342
C	-0.4178854225	-4.2821722158	-0.1684894776	 0.378965
N	-0.180267371	-5.6313692408	-0.4401584996	-0.590615
N	-1.1771044587	-3.9190074546	 0.8614821961	-0.310483
N	-1.2606513847	-2.5685577813	 0.747252239	-0.243861
H	-1.1260448813	 1.9318104012	 1.3818247541	 0.132558
H	 0.0228533455	 1.9128873416	 0.0170102732	 0.110608
H	-1.7254222557	 1.7309974374	-0.2883097431	 0.10975
H	-1.2941534154	-0.3641260883	-1.349549848	 0.108465
H	 0.4440578546	-0.3240280441	-1.0127232358	 0.108175
H	 0.6329728889	-3.1581586405	-1.8102452139	 0.091174
H	 0.7667250362	-5.8133437624	-0.7446574669	 0.242255
H	-0.408511224	-6.2099182994	 0.3586913126	 0.247583
H	-1.7187206059	-2.0260701021	 1.4583127539	 0.273933
46.6569	82.3266	120.1776	209.2476	227.406	260.4316	324.9291	349.8169	355.1979	463.5871	500.4543	654.4633	677.6411	699.0013	758.2968	780.2793	805.2823	984.6796	999.719	1035.9589	1049.7885	1096.0361	1153.4806	1179.4037	1185.6148	1206.9507	1222.9688	1248.6854	1316.439	1385.067	1455.6328	1480.0429	1485.5818	1500.755	1517.8396	1523.3739	1538.8414	1616.2404	1648.5111	2943.0093	2976.0671	2986.3923	3023.3699	3120.9213	3258.9	3539.4285	3634.6259	3693.4182
COCC1=CC(N)=NN1	COCc1cc(N)n[nH]1	
InChI=1S/C5H9N3O/c1-9-3-4-2-5(6)8-7-4/h2H,3H2,1H3,(H3,6,7,8)	InChI=1S/C5H9N3O/c1-9-3-4-2-5(6)8-7-4/h2H,3H2,1H3,(H3,6,7,8)
