18
gdb 67429	2.74894	1.48819	1.25558	3.0941	78.26	-0.2331	-0.0235	0.2095	1061.3109	0.147353	-401.889491	-401.881481	-401.880537	-401.922007	30.469	
C	-0.1401542585	 1.4946582104	-0.0149864956	-0.524438
C	-0.0413801042	 0.0103573118	-0.0441530646	 0.330522
C	-0.0129414327	-1.0542159197	-1.0780808183	-0.187522
C	 1.2569757566	-1.5996981413	-0.4516910777	-0.181131
N	 0.9110189099	-0.852860192	 0.8240956043	-0.20179
C	-0.3084837323	-1.6273226674	 1.2910489428	-0.240555
C	-1.0670648195	-1.1223517489	 0.0809158349	 0.201508
C	-2.5040265829	-1.0469262722	-0.1717665026	 0.039671
O	-3.3472753986	-1.5423533888	 0.541505156	-0.272004
H	 0.8170819045	 1.9496073923	-0.2916750929	 0.138749
H	-0.8995875596	 1.8452102505	-0.7207259272	 0.133027
H	-0.4082900773	 1.8534813373	 0.9838723531	 0.140977
H	-0.3324739713	-1.0071641993	-2.1124509604	 0.103649
H	 1.383588246	-2.6800395995	-0.3289973595	 0.108139
H	 2.1577064835	-1.1671742668	-0.8944245497	 0.117472
H	-0.1412733152	-2.7013398436	 1.4183414621	 0.10854
H	-0.6855633272	-1.2009711958	 2.2227644785	 0.123851
H	-2.7893294813	-0.4722983171	-1.0844639433	 0.061334
95.0617	159.3484	200.2043	215.0716	231.7166	313.3566	455.1454	470.6282	481.701	618.1548	673.5464	720.5466	804.4177	840.5514	863.0682	918.8964	930.2071	960.1623	988.6186	1034.7655	1063.9383	1078.7173	1105.3877	1127.5322	1150.722	1157.6885	1183.0945	1234.3054	1254.1134	1293.9983	1365.4854	1403.3858	1422.3569	1469.1811	1474.7026	1495.5201	1501.8522	1524.4685	1793.9366	2846.7112	3033.2244	3046.4533	3056.2247	3098.5111	3107.8142	3110.1376	3118.7261	3187.013
CC12C3CN1CC23C=O	C[C@@]12[C@H]3CN1C[C@@]23C=O	
InChI=1S/C7H9NO/c1-6-5-2-8(6)3-7(5,6)4-9/h4-5H,2-3H2,1H3	InChI=1S/C7H9NO/c1-6-5-2-8(6)3-7(5,6)4-9/h4-5H,2-3H2,1H3/t5-,6+,7+/m1/s1
