16
gdb 133038	4.65229	0.98513	0.87671	0.3266	74.04	-0.2519	-0.048	0.2038	1294.6926	0.124792	-442.090868	-442.08296	-442.082016	-442.124506	28.911	
C	-0.0249341485	 1.5408389301	 0.0059228427	-0.378067
C	 0.0137136787	 0.0027790149	 0.0188061611	-0.250137
C	 0.7370388498	-0.523705424	 1.2304754695	 0.348737
N	 2.0615423015	-0.7040149649	 1.1275761401	-0.268259
C	 2.7038088461	-1.1410231745	 2.2088965049	-0.102376
C	 2.0249884691	-1.3960016776	 3.3902670809	 0.218658
F	 2.6687145342	-1.8379079879	 4.4695609084	-0.067593
C	 0.6559637085	-1.1799855924	 3.414348885	-0.102374
N	 0.0099018802	-0.7430449006	 2.3352789596	-0.268236
H	 0.9881699824	 1.9543654556	-0.0066773133	 0.128191
H	-0.5533327793	 1.9054410245	-0.8796897154	 0.117392
H	-0.5399982014	 1.9234675271	 0.8924006371	 0.128234
H	-1.005938208	-0.3919434347	 0.0243344764	 0.116812
H	 0.5253578615	-0.3610869914	-0.8763627233	 0.116811
H	 3.7782637493	-1.2958875248	 2.1424122055	 0.131103
H	 0.0811946759	-1.3662393093	 4.3186759906	 0.131103
30.3616	93.4866	223.5589	231.5413	331.1686	417.3828	424.5552	433.6811	497.2184	558.0944	645.4036	740.9272	799.1832	829.6518	865.9729	956.0125	981.6595	985.3344	1047.5481	1072.2959	1082.5287	1233.0265	1255.1812	1282.9474	1300.1644	1315.1102	1364.4552	1404.0115	1414.8953	1471.477	1483.6866	1497.3398	1510.9577	1596.965	1634.6835	3039.1437	3060.9727	3101.6175	3114.4566	3124.2831	3161.8058	3162.5456
CCC1=NC=C(F)C=N1	CCc1ncc(F)cn1	
InChI=1S/C6H7FN2/c1-2-6-8-3-5(7)4-9-6/h3-4H,2H2,1H3	InChI=1S/C6H7FN2/c1-2-6-8-3-5(7)4-9-6/h3-4H,2H2,1H3
