16
gdb 62338	3.87093	1.13512	1.08723	3.3013	77.24	-0.2448	-0.0118	0.233	1136.6384	0.122692	-400.70725	-400.698893	-400.697949	-400.739906	31.963	
C	 0.0432944433	 1.5147522646	 0.0669049314	-0.46995
C	 0.0713243826	-0.005359286	 0.036343027	 0.101667
C	-1.1171439029	-0.6098380843	-0.512409753	 0.254493
C	-2.1077429365	-1.1050372294	-0.9817484418	-0.41232
C	 1.3373066776	-0.8155009007	-0.2013826064	-0.045749
N	 2.5273489752	-0.1907152512	 0.3670965248	-0.342996
C	 1.9603859628	-0.1367121161	 1.6569757957	 0.40129
O	 2.3587657632	 0.3277588881	 2.6854671162	-0.335399
C	 0.704934626	-0.856214259	 1.1731507	-0.259799
H	 0.9741842854	 1.9295170142	 0.4585899646	 0.131609
H	-0.1171887916	 1.9089511016	-0.9409256257	 0.132191
H	-0.775402768	 1.864161441	 0.7017046544	 0.142788
H	-2.984696999	-1.5391334753	-1.3946197952	 0.199143
H	 1.4120299901	-1.6049911494	-0.9367465304	 0.126111
H	 3.0373892664	 0.5766232757	-0.0555034104	 0.246644
H	 0.1523762453	-1.6433150038	 1.6640462587	 0.130276
123.9799	133.0218	171.3154	186.9059	274.4325	339.9155	434.3284	453.9718	520.7224	556.3892	596.5366	610.2993	651.813	656.9994	726.0254	773.3452	846.5798	864.7136	934.8613	959.5466	1015.9889	1025.8865	1069.3676	1102.4471	1129.8998	1165.7547	1250.8436	1275.5362	1319.3593	1349.2372	1417.9971	1484.1947	1497.8535	1898.4029	2232.6063	3049.45	3117.4982	3133.7243	3211.8394	3238.4479	3501.5738	3552.0194
CC1(C#C)C2NC(=O)C12	C[C@@]1(C#C)[C@H]2NC(=O)[C@@H]12	
InChI=1S/C7H7NO/c1-3-7(2)4-5(7)8-6(4)9/h1,4-5H,2H3,(H,8,9)	InChI=1S/C7H7NO/c1-3-7(2)4-5(7)8-6(4)9/h1,4-5H,2H3,(H,8,9)/t4-,5-,7-/m0/s1
