17
gdb 49737	2.88882	1.28022	1.21622	4.0881	70.14	-0.2415	-0.0192	0.2223	1089.8223	0.13614	-458.935753	-458.927942	-458.926998	-458.968576	29.125	
O	 0.0708245791	 0.0548998371	-0.9796332421	-0.274586
C	-0.0159664354	 1.1903111477	-0.5744996857	 0.169432
C	 1.1621282444	 2.0396338107	-0.2878722819	-0.197767
C	 1.0579985821	 3.5707037367	-0.2854832638	 0.01489
O	-0.2098563745	 4.1305025983	-0.4572510233	-0.250726
C	-0.7147422904	 4.6656118888	 0.7646271239	-0.094257
C	-0.8566435189	 3.5552464908	 1.7901687778	-0.079626
O	 0.3853035752	 2.896801845	 2.0386430823	-0.254071
C	 1.3120357716	 2.8753301511	 1.0046852781	 0.071065
H	-1.0041802511	 1.6629430251	-0.4080170049	 0.079764
H	 2.0920495287	 1.6147897639	-0.6513981388	 0.112664
H	 1.8533622458	 4.1297253807	-0.7756541844	 0.110124
H	-0.0504203274	 5.4577216129	 1.1394599211	 0.108333
H	-1.6899591773	 5.1020544306	 0.5353031349	 0.124057
H	-1.1921713394	 3.9510497862	 2.7537406453	 0.120105
H	-1.6004331383	 2.825993391	 1.4387148998	 0.114738
H	 2.3186312456	 2.8815427233	 1.4095940218	 0.125861
84.3549	104.2117	182.1651	197.1746	322.3312	409.9803	434.7142	495.3367	523.2672	602.9944	725.7071	744.676	819.2263	848.8785	909.3827	925.8548	974.358	1041.1846	1052.5344	1074.9929	1082.3745	1123.8223	1133.0233	1178.4206	1190.9152	1253.784	1268.105	1310.8296	1330.5386	1345.0049	1393.0143	1404.763	1437.469	1445.2116	1492.1408	1505.3841	1801.8988	2930.7493	3002.0294	3012.8109	3084.4064	3107.3631	3113.4605	3162.3979	3175.1981
O=CC1C2OCCOC12	O=C[C@H]1[C@H]2OCCO[C@@H]12	
InChI=1S/C6H8O3/c7-3-4-5-6(4)9-2-1-8-5/h3-6H,1-2H2	InChI=1S/C6H8O3/c7-3-4-5-6(4)9-2-1-8-5/h3-6H,1-2H2/t4-,5+,6-
