19
gdb 106691	2.44885	1.45927	1.17823	1.4249	74.76	-0.2519	0.0637	0.3156	1121.9931	0.157899	-422.963762	-422.954975	-422.954031	-422.997289	33.228	
C	 0.0489756954	 1.4815383765	 0.1125538458	-0.496033
C	 0.0078371149	-0.0197578286	 0.0662576577	 0.260797
C	 1.1819591846	-0.9005042585	-0.2892032578	-0.37816
C	 0.5711334236	-1.0469715706	 1.0854078193	 0.256472
C	 1.3099731192	-0.7826224057	 2.3652094497	-0.184689
O	 2.2014702447	-1.8311435212	 2.7335598447	-0.41188
C	-0.7240819986	-1.8294831925	 0.9539549507	-0.061213
O	-1.8249018621	-0.9749614103	 1.3034826956	-0.250926
C	-1.2570479936	-0.8548916047	-0.011434081	-0.037416
H	 1.0278728398	 1.8458961985	 0.4398824549	 0.121573
H	-0.1449951475	 1.9122417348	-0.8768782069	 0.123125
H	-0.7063954744	 1.8687744577	 0.8037865492	 0.133892
H	 1.0786798413	-1.6949170713	-1.0236442468	 0.108167
H	 2.1484504425	-0.4042465409	-0.3158381325	 0.120139
H	 1.9389328833	 0.107380273	 2.2562097029	 0.107902
H	 0.586694652	-0.5748571151	 3.1680880331	 0.10273
H	 1.6723615485	-2.6144336158	 2.9141597192	 0.282002
H	-0.8943324734	-2.8987493336	 1.0132677861	 0.100856
H	-1.9273318102	-1.0068941818	-0.8498323439	 0.102661
62.2099	132.7918	196.8414	209.5731	227.3452	264.3001	308.9689	388.673	419.1631	526.6795	600.64	620.1539	769.4497	792.8843	817.3043	865.8427	875.7719	905.3673	950.198	968.5186	984.9186	989.9942	1044.4358	1057.5959	1090.5482	1103.705	1125.7225	1199.4556	1224.5938	1232.5034	1294.6916	1344.6018	1354.2419	1374.5699	1386.7284	1413.7384	1429.24	1488.6902	1491.7778	1500.6018	1502.5368	2993.4898	3027.7768	3070.3309	3088.4432	3105.1951	3111.6371	3174.2713	3189.2159	3193.0641	3818.8464
CC12CC1(CO)C1OC21	C[C@@]12C[C@]1(CO)[C@H]1O[C@@H]21	
InChI=1S/C7H10O2/c1-6-2-7(6,3-8)5-4(6)9-5/h4-5,8H,2-3H2,1H3	InChI=1S/C7H10O2/c1-6-2-7(6,3-8)5-4(6)9-5/h4-5,8H,2-3H2,1H3/t4-,5+,6+,7+/m1/s1
