21
gdb 92134	2.77221	1.7417	1.55585	1.3947	80.64	-0.2294	0.0823	0.3117	983.2815	0.185967	-387.107145	-387.099924	-387.09898	-387.138513	30.215	
C	 0.3047860309	 1.5265992916	-0.0492010388	-0.388057
C	-0.0316547594	 0.0387044382	 0.032297048	 0.118107
O	 0.3605985345	-0.5821847222	-1.2014829864	-0.298065
C	 1.1746214134	-1.7437946266	-1.0600710683	 0.09865
C	 0.4937616427	-2.7677150716	-0.1298871453	-0.234396
C	 0.739323439	-2.1435369969	 1.2366305007	-0.079388
C	 1.9732833049	-1.2598943962	 1.1154458594	-0.063315
C	 2.4749398352	-1.3808614485	-0.3161032966	-0.233106
C	 0.5998627272	-0.6408778119	 1.2392532175	-0.042966
H	 1.3881021087	 1.680187092	-0.0649757676	 0.11725
H	-0.1180457303	 1.9558256243	-0.9618324165	 0.121262
H	-0.1096006543	 2.0650112176	 0.8101643161	 0.105632
H	-1.1262560332	-0.0623623226	 0.1135987381	 0.072073
H	 1.335251232	-2.1104244625	-2.0756939587	 0.074516
H	-0.5638630459	-2.8882538963	-0.3846040224	 0.102947
H	 0.9780529012	-3.7483927409	-0.2060134311	 0.095573
H	 0.5288832915	-2.703360736	 2.1404931313	 0.077956
H	 2.6764752053	-1.1600608656	 1.9341020349	 0.07798
H	 3.217489924	-2.1836662942	-0.4013522235	 0.093764
H	 2.9133836574	-0.4641492351	-0.7209859396	 0.102304
H	 0.3567595351	-0.1717094167	 2.1879534684	 0.081279
92.3831	229.6803	269.4225	349.5481	395.3104	433.0952	486.2066	502.1697	624.9246	691.7503	755.8673	792.6618	811.7335	830.7512	878.089	879.9604	912.2915	960.0808	969.2987	988.5967	1015.2767	1027.7307	1064.1267	1092.8951	1099.2149	1109.4784	1121.9241	1131.454	1171.7131	1179.8721	1228.2099	1244.4159	1307.1788	1310.696	1334.7279	1354.4486	1358.188	1383.4747	1390.2902	1403.6357	1436.4155	1478.6511	1486.6629	1494.1568	1496.3126	2959.3337	3030.933	3034.5359	3037.0954	3084.2261	3087.7337	3095.8656	3106.3389	3118.5641	3149.8828	3169.6231	3180.8327
CC1OC2CC3C(C2)C13	C[C@H]1O[C@@H]2C[C@H]3[C@@H](C2)[C@@H]13	
InChI=1S/C8H12O/c1-4-8-6-2-5(9-4)3-7(6)8/h4-8H,2-3H2,1H3	InChI=1S/C8H12O/c1-4-8-6-2-5(9-4)3-7(6)8/h4-8H,2-3H2,1H3/t4-,5-,6+,7-,8+/m1/s1
