14
gdb 25271	3.28823	1.79595	1.17228	2.0124	69.3	-0.2141	-0.0326	0.1815	958.4555	0.104673	-432.933548	-432.927006	-432.926061	-432.964514	25.388	
O	-0.04112283	-0.0450459859	-0.0121560737	-0.338529
C	-0.0294354194	 1.1556652958	-0.0126114759	 0.409052
C	-1.2351618072	 2.1192928538	 0.0366768323	-0.298087
N	-0.6634228597	 3.4596577336	-0.1201092252	-0.412714
C	 0.7073503588	 3.3344454209	-0.0393367207	 0.484928
N	 1.7136253185	 4.1521531053	 0.011554332	-0.384625
C	 2.8232385315	 3.2940067919	 0.0225082097	-0.075205
C	 2.4707972939	 1.9789505249	-0.0226648394	-0.149239
N	 1.0734369247	 2.0017046625	-0.0559044009	-0.087639
H	-1.9370169741	 1.8712708705	-0.7649659763	 0.158638
H	-1.7506445199	 1.9847056337	 0.9948900553	 0.153851
H	-1.0872625244	 4.2329003054	 0.3695838473	 0.266116
H	 3.8223085032	 3.7015258167	 0.0589820676	 0.121281
H	 3.028806984	 1.0600980009	-0.0373885822	 0.152172
138.6832	184.1693	298.4129	317.1671	484.3108	552.7166	569.5253	619.18	633.5358	694.3362	698.1037	755.2018	792.7558	875.5299	935.4393	990.4838	1042.7142	1067.0321	1094.8666	1121.426	1193.5416	1195.9022	1273.5428	1299.0968	1378.9586	1403.5246	1459.9682	1483.3836	1541.7755	1667.3542	1861.8654	3045.3297	3092.8317	3253.1389	3306.8554	3623.5924
O=C1CNC2=NC=CN12	O=C1CNc2nccn12	
InChI=1S/C5H5N3O/c9-4-3-7-5-6-1-2-8(4)5/h1-2H,3H2,(H,6,7)	InChI=1S/C5H5N3O/c9-4-3-7-5-6-1-2-8(4)5/h1-2H,3H2,(H,6,7)
