24
gdb 99027	2.99433	0.9151	0.85131	3.2986	87.17	-0.2395	0.0331	0.2726	1538.0239	0.21472	-405.598568	-405.587024	-405.58608	-405.635993	41.765	
C	-0.014192486	 1.3689510537	-0.3768856016	-0.334204
N	-0.2138970182	-0.0602671729	-0.2437623669	-0.302162
C	-1.1481378757	-0.5990832784	 0.5957877788	 0.403065
O	-1.8735226725	 0.0910866977	 1.2951499632	-0.37849
C	-1.2116402049	-2.1232509714	 0.5898378121	-0.323138
C	-2.5622369427	-2.7132299778	 0.0914497974	 0.283416
C	-2.9222640058	-2.1255487338	-1.2852897187	-0.409503
C	-2.3887280364	-4.2377460817	-0.0363971462	-0.406261
C	-3.6890103525	-2.4142778027	 1.0967972476	-0.405024
H	-0.2325633495	 1.7122648799	-1.3946710956	 0.123887
H	-0.7000624269	 1.8555361702	 0.317520296	 0.171665
H	 1.0137435329	 1.6530641955	-0.1254180582	 0.123862
H	 0.3482440988	-0.6808703547	-0.8005906835	 0.244025
H	-0.3980097395	-2.5348923506	-0.01997237	 0.079375
H	-1.0386763315	-2.4544579619	 1.6201316033	 0.122552
H	-2.1245560421	-2.300632467	-2.0169314968	 0.096321
H	-3.8346858852	-2.5893672485	-1.6745668794	 0.110654
H	-3.0976994454	-1.047055576	-1.2252864559	 0.127133
H	-2.0938808449	-4.6847905414	 0.9194444564	 0.109149
H	-3.3271870497	-4.7087675755	-0.348312731	 0.110415
H	-1.6235651304	-4.4946499714	-0.77801491	 0.10245
H	-3.793157963	-1.3412389005	 1.2642319145	 0.150249
H	-4.641222742	-2.8138561227	 0.7303157512	 0.098128
H	-3.480901127	-2.883759918	 2.0649356633	 0.102436
24.2689	71.6424	84.0457	135.7034	196.8495	223.5753	265.3142	271.22	288.9963	301.7987	322.929	378.9917	398.3686	415.61	453.3122	480.9121	629.4544	731.1115	788.4674	884.0417	904.1828	928.9556	939.831	946.1762	965.4496	1049.6285	1054.3388	1093.137	1150.5902	1158.7917	1174.5764	1221.0691	1257.2361	1265.3326	1306.4407	1358.2597	1399.1921	1401.8144	1432.1853	1435.8322	1472.7936	1478.857	1486.4615	1489.0379	1491.5364	1501.1551	1503.791	1509.2896	1519.7316	1556.3195	1764.6571	3018.9953	3021.2361	3024.3091	3025.3562	3032.2956	3071.8288	3076.3625	3085.1713	3087.8656	3090.5397	3095.6026	3104.9275	3141.7731	3153.0744	3658.3976
CNC(=O)CC(C)(C)C	CNC(=O)CC(C)(C)C	
InChI=1S/C7H15NO/c1-7(2,3)5-6(9)8-4/h5H2,1-4H3,(H,8,9)	InChI=1S/C7H15NO/c1-7(2,3)5-6(9)8-4/h5H2,1-4H3,(H,8,9)
