22
gdb 59871	3.03513	0.96272	0.82247	2.2029	81.58	-0.2344	0.0654	0.2998	1522.8593	0.191243	-441.539018	-441.52761	-441.526666	-441.57648	39.306	
C	 0.0616148322	 1.5254048048	-0.0019163476	-0.39627
C	-0.0176240546	 0.0020107319	-0.0074054427	 0.158579
C	-1.4385860534	-0.5285792176	-0.133238843	-0.39526
O	 0.7059094864	-0.5245636926	-1.146892166	-0.288432
C	 2.0505317589	-0.6372787892	-1.0033852621	 0.52634
O	 2.6480510589	-0.3431029886	 0.0139063108	-0.434385
N	 2.6412092285	-1.1212778126	-2.1370419087	-0.140839
C	 4.077349411	-1.3217106857	-2.145823573	-0.337941
C	 1.9262197359	-1.4900754035	-3.3436611946	-0.338224
H	 1.1001900185	 1.8489047391	 0.0911081866	 0.142686
H	-0.3619589029	 1.9371752645	-0.9239622443	 0.114673
H	-0.5018729183	 1.9287909865	 0.8454964256	 0.114752
H	 0.461531811	-0.3889931738	 0.8940364879	 0.109552
H	-1.9096883219	-0.1648025757	-1.0520668851	 0.120442
H	-1.4449362018	-1.6217433354	-0.1518593368	 0.121709
H	-2.040788897	-0.1935179361	 0.7164040559	 0.119047
H	 4.3224959516	-2.3803425925	-2.3041171594	 0.118057
H	 4.5434711698	-0.7415140074	-2.9527698785	 0.118038
H	 4.4799532772	-0.99810273	-1.1878559453	 0.168175
H	 0.8684307931	-1.2682737979	-3.2338861232	 0.159261
H	 2.3199137717	-0.9343463013	-4.2049587657	 0.12016
H	 2.0455922852	-2.5616652467	-3.554249221	 0.119878
52.0291	57.5357	81.2752	119.3961	150.1632	158.5185	216.4448	220.1986	255.3532	288.5503	351.1383	389.1134	416.1062	455.42	535.3367	625.2853	771.5185	844.1295	852.9984	929.5095	941.5549	951.2893	1061.4312	1086.1244	1136.2365	1145.2749	1162.0247	1183.2036	1200.2421	1214.8319	1293.8836	1353.5798	1380.9481	1399.4284	1414.3139	1431.2195	1436.2658	1471.3998	1480.2904	1486.3133	1489.5931	1495.863	1501.2413	1504.2463	1512.5746	1547.3442	1781.7273	3002.8064	3010.88	3038.1759	3042.6431	3045.1986	3051.8607	3077.5816	3106.6185	3118.502	3121.0923	3136.6207	3171.5172	3189.8377
CC(C)OC(=O)N(C)C	CC(C)OC(=O)N(C)C	
InChI=1S/C6H13NO2/c1-5(2)9-6(8)7(3)4/h5H,1-4H3	InChI=1S/C6H13NO2/c1-5(2)9-6(8)7(3)4/h5H,1-4H3
