18
gdb 55831	4.85297	0.82329	0.76117	3.8813	74.47	-0.2417	-0.0208	0.2209	1492.4004	0.145201	-439.105511	-439.096276	-439.095332	-439.140652	33.204	
C	 0.1900839479	 1.4268616578	 0.1615630195	-0.461188
C	-0.0837727027	-0.0537313172	 0.1149304803	 0.391175
N	-0.6188706326	-0.7948691895	 0.9954795362	-0.520003
O	 0.3352664447	-0.5659797763	-1.065855956	-0.249057
C	 0.1739086426	-1.9677201487	-1.2472485729	 0.152344
C	-1.2476122954	-2.4629152528	-1.6372964596	-0.352737
C	-0.6037133938	-3.1528063568	-2.8507877718	 0.391053
O	-0.9734772025	-3.9760320619	-3.6354433971	-0.285874
C	 0.7391283181	-2.4378271778	-2.6093122472	-0.379927
H	 1.2616606642	 1.6155040459	 0.0450202482	 0.149092
H	-0.3175946454	 1.9303241393	-0.666810586	 0.14794
H	-0.1495300602	 1.8579785233	 1.1043537869	 0.1293
H	-0.8648015506	-0.2522877104	 1.8200373266	 0.222625
H	 0.5768792373	-2.4977256465	-0.3832917543	 0.112719
H	-1.7828704772	-3.0930002988	-0.9254181509	 0.142381
H	-1.8992555227	-1.6372744567	-1.9428484614	 0.135956
H	 0.8756237062	-1.5985138804	-3.2996110147	 0.141695
H	 1.6399896922	-3.0550023425	-2.6137257856	 0.132507
51.6774	67.7567	99.4907	119.4897	188.0273	319.4282	340.456	415.8825	454.7476	489.1811	574.8182	581.3587	651.1688	689.6995	778.3067	859.5061	899.4063	925.1406	941.6278	1000.2665	1021.1017	1057.4266	1068.3479	1097.7197	1111.6428	1127.2449	1177.1859	1200.9129	1237.5551	1265.4124	1356.0133	1391.6088	1416.3782	1421.1388	1443.2212	1471.2491	1482.2242	1727.5017	1898.3964	3049.4686	3059.2222	3064.3847	3103.8304	3112.355	3126.3372	3135.6149	3146.399	3518.6388
CC(=N)OC1CC(=O)C1	C[C]([NH])OC1CC(=O)C1	
InChI=1S/C6H9NO2/c1-4(7)9-6-2-5(8)3-6/h6-7H,2-3H2,1H3	InChI=1S/C6H9NO2/c1-4(7)9-6-2-5(8)3-6/h6-7H,2-3H2,1H3
