18
gdb 34878	2.29874	1.75034	1.22257	1.7038	81.89	-0.2307	0.0264	0.2571	1063.3662	0.146877	-364.710258	-364.702215	-364.701271	-364.742617	31.773	
C	-0.1053481777	-1.2319561166	-0.1587416319	-0.470051
C	-0.062517848	-0.0341123806	-0.0561840551	 0.37469
C	 0.022457933	 1.4087900906	 0.0568567525	-0.2598
N	-0.2866293952	 2.0093220626	 1.4239915297	-0.134232
C	 0.7562421749	 1.5174236027	 2.3466255362	-0.243112
C	 1.1108125005	 2.6153986822	 1.4254305215	-0.118079
C	 1.4176092831	 2.0759684678	 0.0525621004	 0.381
C	 2.7131591808	 1.5691766889	-0.5011301556	-0.331187
C	 2.0485913	 2.7901218356	-1.1000687466	-0.339467
H	-0.1613274709	-2.2887774508	-0.2485581142	 0.200946
H	-0.6506013933	 1.8824923364	-0.6642746585	 0.114461
H	 0.5401953907	 1.7723464144	 3.379601088	 0.122351
H	 1.1706202159	 0.5243518545	 2.1940840094	 0.12667
H	 1.2816444021	 3.6362285802	 1.7529986481	 0.09917
H	 3.6119667742	 1.7101941229	 0.0903866376	 0.11566
H	 2.6844714134	 0.6423401771	-1.0647955986	 0.125165
H	 1.5832658054	 2.6954589973	-2.0763670886	 0.118545
H	 2.4970246611	 3.760982845	-0.9133457341	 0.117268
106.1221	130.9008	186.2055	256.7332	288.7011	370.0609	463.4124	485.507	548.6517	615.0237	621.4373	657.527	747.2738	766.5028	791.3821	808.1663	892.3319	924.7317	942.025	977.9973	990.3967	1032.5612	1051.1547	1056.6703	1072.9196	1080.6824	1111.7608	1140.0241	1186.8951	1213.3948	1231.4974	1255.2125	1311.205	1334.7714	1415.2859	1463.203	1496.925	1507.5221	2228.6311	3058.8001	3114.8499	3121.976	3128.6231	3158.9236	3201.6978	3205.4954	3218.2786	3501.4743
C#CC1N2CC2C11CC1	C#C[C@H]1N2C[C@H]2C21CC2	
InChI=1S/C8H9N/c1-2-6-8(3-4-8)7-5-9(6)7/h1,6-7H,3-5H2	InChI=1S/C8H9N/c1-2-6-8(3-4-8)7-5-9(6)7/h1,6-7H,3-5H2/t6-,7+,9?/m1/s1
