20
gdb 53141	2.69465	1.12641	0.94622	1.9535	88.24	-0.2207	0.0387	0.2594	1348.4219	0.170028	-365.944168	-365.934673	-365.933729	-365.979539	34.469	
C	 0.100852861	 1.5680558151	-0.2998647739	-0.502967
C	 0.0448602743	 0.1213416137	-0.1485054567	 0.080575
C	-0.0005112387	-1.0758924045	-0.011244313	 0.107215
C	-0.0131274622	-2.5107236776	 0.0624844473	-0.208506
C	-0.4387076598	-3.341965789	 1.222166949	-0.058021
C	-1.5866414463	-2.7623327509	 2.0503696338	 0.019935
C	-1.3545487338	-1.5921731603	 2.9977489244	-0.422264
C	-2.3299552786	-2.5851645528	 0.6952001601	-0.189763
N	-1.2533273117	-3.3316667632	-0.0572932579	-0.150552
H	 1.1330773404	 1.9304893395	-0.2400220492	 0.151868
H	-0.3055568933	 1.884615741	-1.2668924485	 0.151488
H	-0.4733169573	 2.0740559048	 0.4841447757	 0.149834
H	 0.779657705	-2.9755605809	-0.5213031253	 0.113327
H	 0.1548099319	-4.2069571423	 1.5080485993	 0.090896
H	-2.0565542572	-3.5841868295	 2.6002274721	 0.084753
H	-0.8842148345	-0.749399429	 2.4872215201	 0.135547
H	-2.3038200969	-1.2482981562	 3.4236107981	 0.111494
H	-0.7082935063	-1.8894463179	 3.8312617913	 0.113757
H	-3.2750313935	-3.1254536132	 0.6211177943	 0.107663
H	-2.4679861326	-1.5585618969	 0.3446931789	 0.11372
29.6338	84.4802	101.5469	187.5948	204.9008	253.8045	289.3782	331.3938	413.7938	435.7384	529.5384	561.0756	702.1728	744.8658	755.1514	820.9109	882.7515	897.9519	947.6537	971.1993	1044.5599	1050.9041	1053.4173	1057.4812	1086.3442	1135.6109	1137.2609	1161.7484	1203.9899	1252.923	1271.738	1293.5365	1352.98	1383.7496	1408.4088	1412.3752	1420.7506	1476.2628	1478.4897	1492.6648	1497.4324	1505.0669	2359.4054	3026.4112	3032.0987	3050.0062	3063.257	3087.0251	3088.6163	3090.1693	3119.6311	3122.2005	3131.9887	3139.5933
CC#CC1C2C(C)CN12	CC#C[C@H]1[C@H]2[C@@H](C)CN12	
InChI=1S/C8H11N/c1-3-4-7-8-6(2)5-9(7)8/h6-8H,5H2,1-2H3	InChI=1S/C8H11N/c1-3-4-7-8-6(2)5-9(7)8/h6-8H,5H2,1-2H3/t6-,7-,8+,9?/m0/s1
