23
gdb 109917	2.12888	1.50119	1.12449	0.982	87.09	-0.2381	0.0252	0.2633	1230.526	0.205179	-388.296371	-388.286474	-388.28553	-388.330774	37.085	
C	 0.1428429787	 1.7388513405	-0.7015241241	-0.237984
O	-0.1781292556	 0.3909065441	-0.4469158313	-0.236925
C	 0.6012163743	-0.5338106087	-1.1752245999	 0.113498
C	 2.0205277833	-0.8351771682	-0.5861908359	-0.06941
C	 2.1487570487	-0.6117544379	 0.9302858208	-0.386356
C	 2.1924679802	-2.2877570806	-0.9695230271	-0.070035
C	 1.047857635	-2.8605388356	-1.3397850627	-0.074127
C	-0.123382457	-1.9071411007	-1.2913579889	-0.072199
C	-1.109280096	-2.2188487929	-0.1522018006	-0.383546
H	 1.1723480611	 1.9902888051	-0.4064349912	 0.105957
H	 0.0232175608	 1.9870398401	-1.767972889	 0.10426
H	-0.5467302625	 2.3529352642	-0.1166224682	 0.124826
H	 0.746595902	-0.1510612574	-2.1977110202	 0.065157
H	 2.7740394957	-0.2090186477	-1.0818034842	 0.068101
H	 1.4193930295	-1.2080641359	 1.4843545048	 0.125978
H	 3.1480160324	-0.9021732438	 1.271998293	 0.107086
H	 1.994362172	 0.4376836622	 1.19580598	 0.116368
H	 3.1506574296	-2.7928444047	-0.8993892688	 0.088001
H	 0.9311771209	-3.9031770526	-1.6172297396	 0.089003
H	-0.6918072844	-1.9355928705	-2.230045369	 0.072446
H	-0.6078323983	-2.2465467143	 0.8191494173	 0.119725
H	-1.8938898909	-1.4601310049	-0.1064339665	 0.126223
H	-1.5777005396	-3.1952383495	-0.3151297687	 0.103954
81.8723	122.6483	174.4765	189.9748	199.2798	217.8079	225.1556	266.7447	313.7525	376.5068	463.0371	519.2543	556.8742	711.2266	753.0621	774.2258	778.2747	848.5017	905.6644	948.2924	980.3288	1008.3558	1048.1306	1058.2201	1078.6834	1099.515	1122.689	1144.1185	1147.7669	1169.1871	1185.3695	1232.9635	1271.925	1314.9163	1318.8998	1355.6273	1360.7733	1372.4497	1388.3769	1407.3477	1414.0691	1480.3801	1485.8056	1488.7921	1493.2196	1497.3487	1500.4248	1512.6773	1684.3032	2964.1192	2976.1533	3010.2116	3016.9038	3023.0235	3039.6936	3041.6043	3105.67	3108.4914	3110.3343	3123.5101	3129.2034	3169.649	3195.4715
COC1C(C)C=CC1C	CO[C@H]1[C@@H](C)C=C[C@H]1C	
InChI=1S/C8H14O/c1-6-4-5-7(2)8(6)9-3/h4-8H,1-3H3	InChI=1S/C8H14O/c1-6-4-5-7(2)8(6)9-3/h4-8H,1-3H3/t6-,7+,8-
