23
gdb 59567	2.91106	1.16844	1.02197	1.5534	84.4	-0.2579	0.0719	0.3299	1289.5573	0.206757	-388.292295	-388.283188	-388.282244	-388.326089	35.764	
C	-0.4350479678	 1.3268671074	-0.0038925861	-0.402524
C	-0.1683225963	-0.1640119977	 0.2161531252	 0.123903
O	 0.1375915453	-0.792677192	-1.0287985712	-0.427553
C	 0.9366324456	-0.4253587818	 1.2639648774	-0.008398
C	 0.5529182239	 0.0055459948	 2.7154606244	-0.24671
C	 0.3388657765	-1.2728837974	 3.5128476825	-0.018956
C	-0.644591798	-2.2856372548	 2.9784351541	-0.290029
C	 0.8283091969	-2.4440644838	 2.694047966	-0.017442
C	 1.358136343	-1.9234112681	 1.3667188367	-0.248428
H	 0.4802832339	 1.8336704549	-0.3363474654	 0.103123
H	-1.1968581215	 1.4588127666	-0.7768869569	 0.122877
H	-0.776857046	 1.8259770761	 0.9070140665	 0.11969
H	-1.0994509116	-0.6475401021	 0.5340340552	 0.089583
H	 0.9395184664	-0.381847669	-1.3718486827	 0.27345
H	 1.8006880171	 0.1662398497	 0.9323611414	 0.057322
H	 1.3698154729	 0.5799578678	 3.1657121451	 0.096496
H	-0.3288040266	 0.6560407499	 2.7329337328	 0.096755
H	 0.4930984572	-1.2327547928	 4.5858372166	 0.076412
H	-1.0884386625	-2.9689699505	 3.6948022468	 0.10607
H	-1.3131126647	-2.007446338	 2.1704067002	 0.11125
H	 1.3487775621	-3.2735927418	 3.1605819174	 0.07627
H	 0.9967954912	-2.4875384346	 0.5022255697	 0.117935
H	 2.4511037632	-2.0034946428	 1.3635250743	 0.088904
64.3428	93.3263	209.8012	225.6415	275.0148	298.7962	320.6959	355.1908	380.2222	451.3371	479.157	634.8229	732.9161	758.8618	772.903	821.5939	878.0404	893.2356	896.9093	935.6773	958.6541	992.8529	1016.0398	1032.9735	1053.348	1066.9077	1093.4908	1097.9801	1108.3877	1121.0022	1154.4026	1206.4326	1208.4028	1224.6235	1252.8021	1292.4483	1322.146	1322.8718	1329.6132	1358.291	1390.8953	1399.3349	1404.7442	1417.6424	1485.2744	1490.5587	1492.5559	1496.1023	1507.9704	2998.4009	3022.9094	3035.7251	3041.1641	3045.6054	3068.8132	3089.8685	3098.6541	3122.6168	3128.8968	3157.5095	3166.9626	3210.6217	3790.7539
CC(O)C1CC2CC2C1	C[C@@H](O)[C@H]1C[C@H]2C[C@H]2C1	
InChI=1S/C8H14O/c1-5(9)6-2-7-4-8(7)3-6/h5-9H,2-4H2,1H3	InChI=1S/C8H14O/c1-5(9)6-2-7-4-8(7)3-6/h5-9H,2-4H2,1H3/t5-,6-,7-,8+/m1/s1
