19
gdb 37811	2.9932	1.95386	1.73365	0.3702	84.45	-0.238	0.012	0.25	886.324	0.161758	-348.667671	-348.661338	-348.660393	-348.697803	27.688	
C	-0.1219092278	 1.5553385909	 0.0767459396	-0.299981
C	 1.3937183031	 1.3084692829	 0.0278507769	-0.102381
C	 1.2843789255	-0.0193094463	 0.8845415203	-0.114628
C	 2.1019529471	-0.828189434	-0.1378997659	-0.300825
C	 1.2346722598	 0.1248178624	-1.0014257683	 0.292854
C	 0.6397262517	-0.1279193836	-2.345425035	-0.230661
C	-0.5549123429	-0.724537438	-2.1897841158	-0.043475
C	-0.9784656383	-0.9149822176	-0.7240461592	-0.41052
C	 0.0088304901	 0.0224429774	-0.040266974	 0.310094
H	-0.5297831663	 1.9462385913	 1.0148175988	 0.085433
H	-0.5598813653	 2.0748652544	-0.7814708944	 0.093398
H	 2.2156222549	 2.025503704	 0.0860868883	 0.066271
H	 1.306267988	-0.0671244001	 1.975506007	 0.066698
H	 3.1834367426	-0.6591054294	-0.1492883274	 0.08855
H	 1.8806903866	-1.8979506065	-0.2147725678	 0.090916
H	 1.1176176865	 0.0492538262	-3.3027266907	 0.093327
H	-1.1725375401	-1.078968963	-3.0103537616	 0.093099
H	-2.0250270228	-0.6414658347	-0.5490576645	 0.108224
H	-0.8734018227	-1.9668746963	-0.4263422861	 0.113607
222.3034	251.3206	375.9156	412.2286	465.3028	499.7367	567.906	709.9726	742.1229	764.0976	775.9803	813.0479	863.3908	885.7336	906.1303	914.8791	922.5849	941.2917	963.9161	996.0901	1014.1794	1047.144	1062.7766	1074.9981	1115.8895	1124.5068	1138.7452	1152.7649	1170.8416	1195.2096	1215.1534	1229.9912	1257.4619	1268.6842	1293.9409	1303.3148	1364.9276	1472.1082	1502.9889	1509.8411	1619.8258	3018.5675	3034.9865	3036.858	3061.4526	3081.039	3092.0636	3093.0636	3093.2919	3167.5266	3195.5689
C1C2C3CC22C=CCC132	C1[C@H]2[C@@H]3C[C@@]42C=CC[C@@]134	
InChI=1S/C9H10/c1-2-8-4-7-6(8)5-9(7,8)3-1/h1-2,6-7H,3-5H2	InChI=1S/C9H10/c1-2-8-4-7-6(8)5-9(7,8)3-1/h1-2,6-7H,3-5H2/t6-,7-,8+,9+/m0/s1
