15
gdb 123494	5.10239	0.94802	0.89674	3.4028	67.35	-0.256	-0.0704	0.1856	1277.1695	0.112378	-450.03164	-450.024048	-450.023104	-450.0652	27.055	
C	-0.0721447404	 1.5299037954	-0.2758359456	-0.256039
N	-0.1127124929	 0.071246272	-0.2498905635	-0.066599
C	-0.2989835096	-0.5411817815	 1.0643285433	-0.219976
C	-1.4088835546	-0.5190446034	 0.0718179176	-0.220423
C	 1.329442103	 2.00593562	-0.0773896499	 0.427885
N	 1.7935736787	 2.5167538372	 1.0266645933	-0.142418
O	 3.0919199123	 2.7833215055	 0.7674734221	-0.139065
N	 3.3715701846	 2.4056809655	-0.549994542	 0.045289
N	 2.3174617325	 1.9428960562	-1.047457757	-0.186763
H	-0.4213667568	 1.8656573537	-1.2577456114	 0.140802
H	-0.7067267296	 1.9981965506	 0.4937387612	 0.118933
H	 0.2669882927	-1.4507337485	 1.2395114956	 0.129046
H	-0.3867012321	 0.1164179187	 1.9272532816	 0.124863
H	-2.2413595156	 0.1534858142	 0.2721896142	 0.115948
H	-1.668711902	-1.4109142556	-0.4900945892	 0.128517
44.6588	72.0809	120.7459	295.3414	320.4535	377.1276	424.5235	669.244	674.487	711.2452	768.8014	802.786	843.8236	911.3769	958.4772	993.041	1025.0969	1045.1522	1061.4613	1105.2228	1114.3441	1122.4268	1172.1755	1177.5854	1255.0341	1316.4473	1330.3292	1380.7784	1477.5436	1492.0368	1495.4318	1520.7945	1596.9186	2978.5056	3078.3311	3100.0003	3105.8207	3187.2444	3201.3419
C(N1CC1)C1=NON=N1	C(N1CC1)c1nonn1	
InChI=1S/C4H6N4O/c1-2-8(1)3-4-5-7-9-6-4/h1-3H2	InChI=1S/C4H6N4O/c1-2-8(1)3-4-5-7-9-6-4/h1-3H2
