16
gdb 51099	5.27116	0.90021	0.84454	3.6807	72.94	-0.2527	-0.0221	0.2306	1332.8444	0.122855	-437.863435	-437.855207	-437.854263	-437.897187	30.096	
N	-0.1483154341	 1.303890722	-0.047382101	-0.430607
C	-0.1423360569	 0.0592949044	-0.2332324724	 0.10416
O	-1.063436732	-0.7134688129	 0.4019081162	-0.226814
C	-0.9629877619	-2.0826490264	 0.2226390132	 0.4362
C	-1.144423092	-2.7609847831	-1.0863460501	-0.338442
C	-2.1527323455	-3.0425873058	 0.0389325773	-0.257178
C	-1.517721222	-3.9642723674	 1.0418141432	 0.438119
O	-1.8661972327	-4.9723971834	 1.5829558759	-0.304864
C	-0.2995009515	-3.0184382219	 1.2456854509	-0.430591
H	 0.5884920385	 1.7429844009	-0.5954745756	 0.23606
H	 0.5328661723	-0.5168532564	-0.877137325	 0.099014
H	-1.5694664452	-2.1504857758	-1.8768176378	 0.141123
H	-0.4579431239	-3.5314665615	-1.4255911199	 0.13188
H	-3.2062665627	-2.8417203066	-0.1070527572	 0.129023
H	 0.702006854	-3.3987703995	 1.0253989791	 0.121794
H	-0.3233895545	-2.6048003265	 2.2581258333	 0.151124
51.0498	94.2167	105.1456	214.4482	324.6028	373.1547	401.3294	466.3378	513.2476	559.9856	638.836	757.1754	786.8043	823.6211	854.449	923.6868	959.714	974.356	990.6365	1038.7833	1047.2485	1058.9943	1084.8798	1112.1571	1127.2816	1205.4981	1231.669	1263.2216	1278.0274	1374.2751	1412.3517	1453.9229	1494.8052	1749.4329	1894.9667	3050.0451	3058.5558	3117.9206	3119.3645	3206.3483	3213.3233	3521.3306
N=COC12CC1C(=O)C2	[NH][CH]O[C@]12C[C@H]1C(=O)C2	
InChI=1S/C6H7NO2/c7-3-9-6-1-4(6)5(8)2-6/h3-4,7H,1-2H2	InChI=1S/C6H7NO2/c7-3-9-6-1-4(6)5(8)2-6/h3-4,7H,1-2H2/t4-,6-/m0/s1
