18
gdb 113991	3.06547	0.94957	0.86088	2.7207	72.23	-0.2651	0.0023	0.2673	1376.9669	0.146534	-439.058586	-439.049179	-439.048234	-439.094098	33.487	
O	-0.1296988061	 0.8124071891	 0.9487941035	-0.424142
C	 0.0477213062	 0.1170321299	-0.27357357	-0.072316
C	-1.1820740626	-0.6808439375	-0.6630835322	-0.069907
C	-1.0198651379	-2.0355406284	-1.3265264866	-0.328316
C	-1.4965753415	-1.9306250024	 0.0986262087	 0.103547
O	-0.6242751871	-2.2317281773	 1.1631735629	-0.240656
C	-0.6170824388	-3.5855473894	 1.5491352971	-0.196301
C	 0.0847963712	-4.4679718756	 0.5965772311	 0.264947
N	 0.6427748558	-5.1636369586	-0.1376086037	-0.304599
H	-0.2449637082	 0.1381977164	 1.627763102	 0.288821
H	 0.2504518897	 0.879352844	-1.0325756633	 0.112817
H	 0.9228609807	-0.546481365	-0.2327357469	 0.094428
H	-2.0396541574	-0.0797747963	-0.9498442238	 0.10033
H	-1.7291479127	-2.3482836933	-2.0844161993	 0.122673
H	-0.0060127417	-2.3861241161	-1.4834323862	 0.142905
H	-2.5371183503	-2.1656790664	 0.3209846584	 0.096594
H	-0.1022968668	-3.6374478798	 2.5131296623	 0.163755
H	-1.6378909825	-3.9698116034	 1.6905694561	 0.145419
34.6819	71.7027	92.1678	178.5024	226.7479	229.9512	341.6914	367.6279	386.855	431.0737	468.2663	569.0776	648.8085	764.9921	839.6725	849.5963	906.4928	939.9619	988.4795	1022.7677	1048.4011	1067.3239	1071.7093	1098.4667	1133.4794	1147.7789	1167.877	1233.0241	1244.836	1303.4247	1355.8233	1382.8795	1409.615	1417.5776	1433.1714	1470.193	1483.1336	1503.3931	2359.9458	3007.6304	3008.7496	3078.4892	3092.5378	3105.2309	3142.7231	3157.8026	3231.6499	3805.1946
OCC1CC1OCC#N	OC[C@H]1C[C@H]1OCC#N	
InChI=1S/C6H9NO2/c7-1-2-9-6-3-5(6)4-8/h5-6,8H,2-4H2	InChI=1S/C6H9NO2/c7-1-2-9-6-3-5(6)4-8/h5-6,8H,2-4H2/t5-,6-/m1/s1
