16
gdb 18111	3.70333	2.33684	1.76955	1.6497	64.18	-0.2505	0.0093	0.2598	761.3918	0.13335	-383.751348	-383.745158	-383.744214	-383.781903	23.97	
C	-0.0945065319	 1.208913466	 0.0329529174	 0.014197
O	 1.1210055651	 1.8974679973	 0.2428569714	-0.260566
C	 2.1372497303	 0.9159436664	 0.4386154915	 0.07855
C	 2.5144711684	 0.7126020701	 1.9259622969	-0.277703
C	 1.863326926	-0.5988186687	 2.2913453469	-0.063553
C	 1.3128230573	-1.2116325636	 1.2447227713	-0.096982
C	 1.4646889983	-0.4149761407	-0.0280928929	 0.039173
O	 0.2270258734	 0.001392708	-0.6094883114	-0.250259
H	-0.6039929988	 1.0225171686	 0.9942601706	 0.084927
H	-0.7352625697	 1.8024161007	-0.6255721916	 0.117606
H	 2.9952981759	 1.2110318008	-0.1700156617	 0.087381
H	 3.6031899902	 0.6678064491	 2.0585247153	 0.11029
H	 2.1594583827	 1.553335123	 2.5317726275	 0.122388
H	 1.8753977758	-0.9877733662	 3.3044342662	 0.100946
H	 0.7983963225	-2.1652771353	 1.2622980298	 0.102536
H	 2.0105571645	-0.9506468256	-0.8101839773	 0.091071
82.6151	196.5731	304.1719	403.919	490.3109	591.7958	715.2222	751.4975	770.4827	826.1716	871.9003	886.478	950.9664	969.0487	982.9197	1005.2985	1022.6086	1045.847	1070.7984	1103.5443	1130.1666	1179.6132	1199.406	1230.5546	1247.2735	1293.0557	1323.2062	1343.7101	1358.4368	1385.6403	1428.7049	1473.8754	1540.0302	1684.3268	2951.3364	3026.0875	3064.3907	3070.3218	3080.9789	3087.7337	3181.2818	3211.7832
C1OC2CC=CC2O1	C1O[C@H]2CC=C[C@H]2O1	
InChI=1S/C6H8O2/c1-2-5-6(3-1)8-4-7-5/h1-2,5-6H,3-4H2	InChI=1S/C6H8O2/c1-2-5-6(3-1)8-4-7-5/h1-2,5-6H,3-4H2/t5-,6+/m1/s1
