14
gdb 29163	3.23319	1.39825	0.97746	4.3106	70.2	-0.2043	-0.0459	0.1584	1114.2439	0.102088	-473.879899	-473.872359	-473.871414	-473.911689	29.226	
N	 0.0254504755	 1.4331561318	 0.1545536891	-0.588949
C	 0.0121434422	 0.0339143536	 0.0363315102	 0.217004
C	-1.1289693	-0.6921524969	-0.0036547207	-0.031042
O	-1.1256329956	-2.0619893035	-0.0175741255	-0.20261
C	 0.0196567857	-2.7801640615	-0.0309979246	 0.377334
O	 0.0042184668	-3.9958477426	-0.0565049944	-0.397472
C	 1.2702793684	-2.0206489008	-0.0091364053	 0.214757
O	 2.3787456079	-2.7767091343	-0.0227247479	-0.416255
C	 1.2673382405	-0.6678801689	 0.0334128034	-0.228569
H	 0.7448806074	 1.8709782376	-0.406743869	 0.251552
H	-0.8689574561	 1.8633486787	-0.0411233244	 0.248284
H	-2.134169327	-0.2957735145	-0.0084851917	 0.125451
H	 2.0528547942	-3.6954764658	-0.0425693031	 0.312085
H	 2.20001726	-0.1157449031	 0.0760056239	 0.118429
131.0355	210.232	246.1186	307.1771	348.6775	365.4247	422.791	478.8804	507.2358	597.1722	619.9205	629.5476	681.3099	715.9811	770.0957	785.9976	841.2814	898.7748	995.681	1106.407	1160.9244	1199.0945	1232.3027	1278.4445	1347.76	1420.5446	1495.7944	1621.5004	1659.5077	1728.7967	1776.4747	3191.7456	3235.3052	3538.1854	3630.9536	3634.4578
NC1=COC(=O)C(O)=C1	Nc1coc(=O)c(O)c1	
InChI=1S/C5H5NO3/c6-3-1-4(7)5(8)9-2-3/h1-2,7H,6H2	InChI=1S/C5H5NO3/c6-3-1-4(7)5(8)9-2-3/h1-2,7H,6H2
