19
gdb 55474	3.30419	1.19589	0.93409	2.9938	73.34	-0.2292	0.0539	0.2832	1239.5242	0.162105	-456.38352	-456.375113	-456.374169	-456.417021	31.94	
N	 1.2474181594	-0.6626761323	-0.0927104724	-0.571017
C	 0.052414434	 0.0576152071	-0.0682557318	 0.443849
O	 0.0456414411	 1.2767083319	-0.0296784815	-0.405632
N	-1.1001255428	-0.6968801278	-0.0275427984	-0.11873
C	-2.3846686298	-0.0266854932	-0.1999218749	-0.169418
C	-3.39939321	-0.5798304534	 0.7954154181	-0.082986
O	-3.4953454396	-1.993716091	 0.6945481583	-0.242699
C	-2.2527625227	-2.6042876782	 0.9756155189	-0.067951
C	-1.1607986968	-2.1503295567	-0.0015520641	-0.190803
H	 2.0255642344	-0.0427142504	-0.2643135929	 0.259743
H	 1.2794578812	-1.5007012539	-0.6537620006	 0.2506
H	-2.2229039573	 1.0416356538	-0.0556578685	 0.15092
H	-2.759704683	-0.1924966416	-1.2216277487	 0.101522
H	-3.1118076526	-0.2935377896	 1.8201196093	 0.09841
H	-4.3969287253	-0.1833580549	 0.5877258055	 0.111444
H	-1.9347959028	-2.3666359179	 2.0043911904	 0.096974
H	-2.4042472929	-3.6847410797	 0.8969259203	 0.110173
H	-1.3833652534	-2.5519958954	-1.0031624658	 0.103909
H	-0.2051348312	-2.5569572668	 0.3340961487	 0.121693
48.2617	107.9015	211.9401	247.0415	283.0242	362.0998	403.0723	418.7132	475.4825	514.4694	571.7471	594.7243	626.3151	745.3071	781.5175	863.4723	875.0956	932.8275	1001.993	1030.6966	1089.5403	1096.4613	1116.854	1144.3357	1166.0251	1234.7994	1243.8865	1302.964	1313.2508	1332.7118	1364.7327	1394.156	1410.6686	1425.2346	1459.0777	1479.7732	1484.6913	1492.265	1499.9954	1623.7102	1779.1279	2967.2089	2977.4921	2980.5542	2992.7366	3089.158	3095.8071	3112.6052	3140.1385	3571.4272	3678.8888
NC(=O)N1CCOCC1	NC(=O)N1CCOCC1	
InChI=1S/C5H10N2O2/c6-5(8)7-1-3-9-4-2-7/h1-4H2,(H2,6,8)	InChI=1S/C5H10N2O2/c6-5(8)7-1-3-9-4-2-7/h1-4H2,(H2,6,8)
