17
gdb 95130	2.40008	1.59398	1.20757	3.5831	68.61	-0.2555	-0.0386	0.2169	1058.1349	0.13531	-458.963385	-458.955216	-458.954272	-458.996274	30.651	
O	 0.3592039764	 1.1918779375	-0.3731305161	-0.435509
C	 0.0199331809	-0.1665604212	-0.1928888159	 0.079068
C	 0.7573594322	-0.8476466936	 0.9923941747	-0.257621
C	-0.1982421367	-1.9289755426	 1.5375482445	-0.251514
C	-1.5803908217	-1.4126617775	 1.1821976072	 0.00029
O	-1.800138739	-0.0343667204	 1.469845733	-0.299241
C	-1.4538193352	-0.3937078886	 0.1144733626	 0.269751
C	-2.5284586413	-0.2080916911	-0.8975375408	 0.08152
O	-2.3326348436	-0.1815234519	-2.0857700202	-0.252058
H	 0.1053035531	 1.6582470731	 0.4322448605	 0.286527
H	 0.2478755203	-0.6535636347	-1.1461762267	 0.115178
H	 1.7289018898	-1.2466154223	 0.6954807724	 0.114998
H	 0.9378563245	-0.0880592432	 1.7584038039	 0.112708
H	-0.0515113819	-2.8914923912	 1.0337353866	 0.118307
H	-0.0830013067	-2.1025220166	 2.6119053696	 0.120641
H	-2.4592505265	-2.0469965708	 1.2752946958	 0.108301
H	-3.5443219246	-0.1107192448	-0.4542910411	 0.088652
88.2953	128.2977	169.5331	230.4298	241.5294	377.3455	404.8869	429.9036	478.775	558.0289	626.4925	668.4966	733.1667	827.8452	862.8403	891.634	941.364	959.3488	1009.3283	1032.7257	1047.4167	1099.1078	1104.1123	1167.0083	1222.1525	1246.144	1269.9344	1294.2979	1323.669	1332.3251	1344.022	1389.4824	1433.0274	1441.3598	1480.5119	1492.9246	1821.6264	2892.5577	3044.7072	3066.3119	3076.2723	3088.9329	3122.5978	3143.4621	3790.2112
OC1CCC2OC12C=O	O[C@H]1CC[C@H]2O[C@@]12C=O	
InChI=1S/C6H8O3/c7-3-6-4(8)1-2-5(6)9-6/h3-5,8H,1-2H2	InChI=1S/C6H8O3/c7-3-6-4(8)1-2-5(6)9-6/h3-5,8H,1-2H2/t4-,5+,6-/m0/s1
