15
gdb 131399	3.17306	1.40129	1.0515	2.6643	68.04	-0.2278	-0.0043	0.2235	1096.7253	0.114681	-450.090926	-450.083272	-450.082328	-450.124211	28.233	
O	 0.3873545889	 1.2947131785	-0.065080361	-0.417608
C	 0.1590169997	-0.0279946586	-0.0441375578	 0.33116
N	 0.1920372569	-0.7799540879	-1.1352757992	-0.271406
N	-0.0867424245	-1.9959752249	-0.6510278858	-0.089621
N	-0.2952403022	-2.0901812489	 0.6538203448	-0.275329
C	-0.1429806697	-0.8334271726	 1.0732241702	 0.239469
N	-0.2524076798	-0.340714136	 2.384261034	-0.216073
C	-1.249864695	-0.9649445225	 3.2717697206	-0.217846
C	 0.1966006199	-1.2116454063	 3.4852204764	-0.217843
H	 0.3034187676	 1.5950643619	 0.8506552054	 0.307226
H	-0.1343753746	-2.7983864629	-1.2550651453	 0.293776
H	-1.7874711184	-0.2721078447	 3.9120554903	 0.124367
H	-1.8385638814	-1.7739165563	 2.8503341276	 0.142676
H	 0.5840786908	-2.1871095826	 3.2078406469	 0.142685
H	 0.7272266918	-0.7010007562	 4.283147473	 0.124367
25.9975	159.9898	180.7176	293.6877	319.7091	371.3159	462.7666	495.4754	558.6697	600.4817	702.0214	753.2255	774.3446	828.3531	847.969	929.7175	982.5328	1043.6919	1113.0562	1135.4464	1150.069	1179.0522	1185.7445	1200.7028	1243.9038	1271.2872	1320.0956	1432.1703	1469.1216	1482.0724	1508.7894	1575.3072	1622.7918	3117.6805	3120.8123	3206.7975	3221.5929	3686.7965	3765.1185
OC1=NNN=C1N1CC1	Oc1n[nH]nc1N1CC1	
InChI=1S/C4H6N4O/c9-4-3(5-7-6-4)8-1-2-8/h1-2H2,(H2,5,6,7,9)	InChI=1S/C4H6N4O/c9-4-3(5-7-6-4)8-1-2-8/h1-2H2,(H2,5,6,7,9)
