22
gdb 101304	2.92548	0.98343	0.81297	2.9525	85.31	-0.2381	-0.0284	0.2097	1475.7751	0.191553	-404.332978	-404.322711	-404.321767	-404.368465	37.431	
C	 0.0191754523	 1.3256625775	-0.4970620313	-0.393397
C	 0.0902253588	-0.1795150973	-0.2257380135	-0.158886
C	 0.6147646299	-0.5697280187	 1.1660174268	 0.052609
C	 0.5564157157	-2.0855509531	 1.3619851351	-0.399965
N	 2.0116154141	-0.1195678598	 1.2866330131	-0.071665
C	 2.3069931671	 1.150502825	 1.8927067892	-0.250128
C	 2.7135006278	-0.125269283	 2.581662537	-0.096234
C	 2.0381325433	-0.452692904	 3.863599029	 0.156384
O	 2.5979279254	-0.9772977768	 4.7956415266	-0.271038
H	 1.0123202345	 1.782925959	-0.4995802538	 0.128348
H	-0.4342323316	 1.5198096664	-1.4739072761	 0.115669
H	-0.5887906039	 1.8403125363	 0.2560920258	 0.109235
H	-0.9112158887	-0.6137839538	-0.3335845487	 0.094733
H	 0.7265920756	-0.6614503915	-0.9776078569	 0.106598
H	-0.0321452986	-0.0833716682	 1.9167168975	 0.064829
H	 1.1994133969	-2.586590408	 0.6319010947	 0.130109
H	 0.8901938601	-2.3803793238	 2.3613589841	 0.126092
H	-0.4668354744	-2.4485838559	 1.2296231578	 0.118125
H	 3.0744917032	 1.7588845317	 1.4214761837	 0.130218
H	 1.4891383084	 1.7130453025	 2.3447209506	 0.119221
H	 3.7491612738	-0.4521505726	 2.5385622302	 0.112402
H	 0.9658109104	-0.1634715221	 3.9262855491	 0.076742
57.9927	87.8658	115.7543	181.482	206.6131	215.5293	245.0593	276.7373	316.9732	371.1782	388.6228	441.9069	497.3453	590.4527	690.2227	805.0519	847.6449	870.3869	911.1499	963.6605	983.7834	1016.6334	1026.3946	1043.4289	1070.2002	1115.2455	1120.1099	1134.3065	1170.7026	1188.3842	1189.9171	1293.5795	1308.2408	1326.9256	1338.3515	1373.8548	1389.6946	1410.8799	1413.5815	1442.8425	1474.8729	1491.6729	1499.8588	1500.287	1504.4565	1509.7762	1810.2789	2881.6606	2946.9064	3027.6083	3033.6756	3042.6098	3066.6381	3081.7111	3098.7487	3112.4112	3116.1481	3118.8916	3150.0492	3175.2939
CCC(C)N1CC1C=O	CC[C@@H](C)N1C[C@H]1C=O	
InChI=1S/C7H13NO/c1-3-6(2)8-4-7(8)5-9/h5-7H,3-4H2,1-2H3	InChI=1S/C7H13NO/c1-3-6(2)8-4-7(8)5-9/h5-7H,3-4H2,1-2H3/t6-,7+,8?/m1/s1
