18
gdb 18028	3.74648	2.08287	1.49671	1.1692	74.4	-0.2332	0.017	0.2502	869.0336	0.156183	-347.791891	-347.785209	-347.784265	-347.822507	26.748	
C	-0.0693164421	 1.3916418562	-0.015602799	-0.259576
C	 1.4692348204	 1.5567382064	 0.2454828574	-0.315902
C	 1.4578086576	 0.0855925449	 0.6084869899	 0.289498
C	 1.8810880381	-0.701451163	 1.5885114619	-0.241978
C	 1.075715599	-1.9618543156	 1.8263575235	-0.254668
C	-0.4152710633	-1.636636491	 1.6099025404	-0.069376
O	-0.6952451436	-1.1388105255	 0.3052559561	-0.271051
C	 0.1897252916	-0.1497210157	-0.1642176567	 0.100516
H	-0.6470031072	 1.6091845116	 0.885473301	 0.113395
H	-0.5035765913	 1.9118819935	-0.8719686947	 0.100186
H	 2.0142398403	 1.7757973177	-0.6787150627	 0.111574
H	 1.7834464242	 2.2638528654	 1.015792405	 0.11218
H	 2.6762633458	-0.4194790124	 2.2725742008	 0.086602
H	 1.3731551378	-2.7785630696	 1.1559598203	 0.114703
H	 1.2140690827	-2.326504892	 2.8500265498	 0.102023
H	-1.0342526126	-2.5329917591	 1.7112374149	 0.104041
H	-0.7333985657	-0.9149437081	 2.3781924262	 0.088992
H	 0.3768315581	-0.3761279137	-1.2222858941	 0.08884
128.3817	204.6348	302.4453	323.5639	398.8234	471.5091	517.2972	666.9392	675.7385	766.9517	776.7504	848.668	864.3943	907.574	922.5256	963.1787	985.9927	1037.6869	1052.9846	1082.1276	1086.9536	1111.5291	1154.9295	1178.1243	1216.3628	1229.1527	1251.7716	1258.1967	1292.0536	1336.3817	1342.7979	1378.8703	1412.7124	1473.0784	1476.3428	1489.764	1504.9289	1763.556	2983.0419	3014.152	3023.651	3049.8895	3068.2712	3072.7506	3081.8774	3108.4315	3133.049	3165.6199
C1CC2=CCCOC12	C1C[C]2[CH]CCO[C@@H]12	
InChI=1S/C7H10O/c1-2-6-3-4-7(6)8-5-1/h2,7H,1,3-5H2	InChI=1S/C7H10O/c1-2-6-3-4-7(6)8-5-1/h2,7H,1,3-5H2/t7-/m0/s1
