15
gdb 21228	7.49578	1.12562	1.00153	2.1816	63.1	-0.2352	-0.0246	0.2106	1136.1957	0.119992	-395.968091	-395.960574	-395.95963	-396.000988	25.933	
C	-0.362207268	 1.4670270036	-0.4828727802	-0.309617
N	-0.4528858144	 0.0235211622	-0.6407769239	-0.284943
C	-0.6302685214	-0.6745950567	 0.6186690257	-0.261794
C	-1.0010921813	-2.1000248358	 0.3747352873	 0.452488
N	-1.6881107504	-2.5841333709	-0.6179076362	-0.321668
C	-1.7462196588	-3.916912999	-0.2929055701	 0.041818
N	-1.148324641	-4.2483157928	 0.816927575	-0.114351
O	-0.6388032686	-3.0216720809	 1.2718476837	-0.197662
H	-0.2861821351	 1.9347517316	-1.4678888849	 0.12698
H	-1.2179068651	 1.9186706648	 0.0512747255	 0.097599
H	 0.5459418495	 1.720442617	 0.0763355455	 0.125124
H	-1.2111623191	-0.226843589	-1.2660324298	 0.241771
H	 0.2975980876	-0.6446177117	 1.202505132	 0.139894
H	-1.4147703635	-0.2310657644	 1.2661551231	 0.11497
H	-2.2478548803	-4.6563327981	-0.9000871128	 0.149391
48.0097	88.2598	145.1006	245.036	279.8997	345.0756	399.6275	653.164	695.2864	748.9664	799.1589	906.5628	932.2033	980.766	995.0967	1003.358	1034.3742	1148.8727	1149.9128	1189.0248	1199.3181	1251.1528	1259.8952	1304.7489	1401.2477	1461.1852	1485.8606	1494.6866	1503.3966	1518.1857	1528.0811	1622.18	2890.5402	2942.3562	3051.4188	3055.7411	3112.5254	3262.2747	3538.0347
CNCC1=NC=NO1	CNCc1ncno1	
InChI=1S/C4H7N3O/c1-5-2-4-6-3-7-8-4/h3,5H,2H2,1H3	InChI=1S/C4H7N3O/c1-5-2-4-6-3-7-8-4/h3,5H,2H2,1H3
