21
gdb 39313	2.83975	1.7199	1.30167	1.2494	81.26	-0.2379	0.0774	0.3154	1039.2821	0.18582	-387.073071	-387.065804	-387.06486	-387.104643	30.146	
C	 0.0574407077	 1.5910873801	-0.0557532645	-0.295596
C	 1.3200482133	 0.775147001	-0.0172199168	-0.032133
C	 2.1151684418	 0.7489700714	 1.2757491768	-0.10265
O	 1.2711854628	 0.7028999842	 2.4160832965	-0.26277
C	 0.5212102194	-0.4974034263	 2.4672785249	 0.118573
C	-0.7013514285	-0.3305869325	 3.39321346	-0.242601
C	-1.6099866446	-0.1525803711	 2.1426741262	-0.239271
C	-0.4361899392	-0.6575680228	 1.2472412837	-0.010693
C	-0.0264131364	 0.0800576428	-0.0134293082	-0.044748
H	-0.1989140503	 2.1385037506	 0.8445302492	 0.122798
H	-0.2132935059	 2.0870282602	-0.9813333242	 0.104771
H	 1.9232724168	 0.7157087223	-0.9185028929	 0.080705
H	 2.8049648347	-0.1127477233	 1.279982086	 0.084628
H	 2.7162634317	 1.6584353869	 1.3830508589	 0.106188
H	 1.1966934345	-1.3427443694	 2.6691420258	 0.056032
H	-0.9198587104	-1.2393138675	 3.9596910931	 0.09937
H	-0.633916268	 0.5114092311	 4.0850343377	 0.109555
H	-2.5311918517	-0.7392305351	 2.1146760553	 0.094077
H	-1.861973728	 0.8923625759	 1.9486831153	 0.106904
H	-0.5640093519	-1.7194768119	 1.0156069153	 0.067021
H	-0.3263212278	-0.3924125666	-0.9438930878	 0.079842
86.0793	209.1241	274.2202	327.9601	373.0442	413.7331	458.9827	577.3097	665.0233	717.3332	729.2587	783.3343	812.0502	829.4967	886.3066	894.4143	930.2905	955.0935	984.4788	987.5172	1026.7848	1069.4676	1079.3134	1083.1009	1109.9848	1113.4965	1130.3019	1144.7344	1163.8271	1215.7539	1223.9651	1243.6852	1260.4777	1280.2835	1289.7966	1305.8183	1346.2333	1361.8096	1378.8319	1399.8249	1418.8279	1468.0219	1486.5589	1496.8398	1498.6882	2956.4474	2977.0261	3052.6897	3062.1614	3064.0716	3070.2854	3111.3607	3129.3227	3134.5064	3141.2825	3152.5753	3222.489
C1C2COC3CCC3C12	C1[C@H]2CO[C@H]3CC[C@H]3[C@@H]12	
InChI=1S/C8H12O/c1-2-8-6(1)7-3-5(7)4-9-8/h5-8H,1-4H2	InChI=1S/C8H12O/c1-2-8-6(1)7-3-5(7)4-9-8/h5-8H,1-4H2/t5-,6-,7-,8-/m0/s1
