17
gdb 8527	4.56404	1.95413	1.65532	2.0915	68.05	-0.2399	0.0764	0.3164	816.0035	0.142243	-363.763665	-363.756918	-363.755974	-363.794027	27.379	
C	-0.1684147985	 1.6414573922	 0.0022660879	-0.455991
C	-0.0259684477	 0.1355613891	-0.0213305743	 0.453872
O	-1.265556514	-0.4211113165	-0.3753792508	-0.492315
C	 1.2147678905	-0.507771517	-0.6769782671	-0.076162
C	 2.1468779304	-0.2512314815	 0.543488643	-0.079281
C	 2.4843904666	-1.7393454346	 0.5727547672	-0.1875
N	 1.0136683288	-1.7972899248	 0.1773566607	-0.196806
C	 0.7361919919	-0.5810960354	 1.1138735183	-0.076159
H	 0.7708972528	 2.1298605239	 0.2731779925	 0.117239
H	-0.4802908992	 2.0036186435	-0.9819169004	 0.129353
H	-0.9362140841	 1.9337576745	 0.7248236104	 0.12935
H	-1.1400619714	-1.3798364149	-0.3811029791	 0.293385
H	 1.4959814712	-0.5900424829	-1.7296143677	 0.081557
H	 2.7724795913	 0.6228340601	 0.746457016	 0.070949
H	 3.157621523	-2.1343736713	-0.1952357286	 0.103476
H	 2.693562074	-2.20547184	 1.5412950357	 0.103476
H	 0.4573748143	-0.7491694344	 2.1569001663	 0.081557
201.5796	212.192	248.4496	332.7117	366.5191	487.3585	520.6843	572.0751	626.8438	735.5885	797.1567	837.3472	847.9036	883.2463	889.5891	926.9745	965.6107	1029.2003	1030.6821	1079.8848	1088.8364	1100.2583	1141.2065	1144.6679	1168.1071	1177.1936	1197.7354	1198.2849	1272.1156	1286.5189	1315.2844	1400.5686	1442.0748	1479.0818	1502.0283	1519.3377	3034.5365	3045.5058	3059.195	3087.3569	3093.8221	3095.1039	3113.2141	3126.9442	3757.0371
CC1(O)C2C3CN2C13	C[C@@]1(O)[C@H]2[C@@H]3CN2[C@H]13	
InChI=1S/C6H9NO/c1-6(8)4-3-2-7(4)5(3)6/h3-5,8H,2H2,1H3	InChI=1S/C6H9NO/c1-6(8)4-3-2-7(4)5(3)6/h3-5,8H,2H2,1H3/t3-,4+,5-,6+
