27
gdb 64117	2.52064	1.17313	1.11318	0.0324	94.88	-0.2938	0.07	0.3638	1348.609	0.25172	-353.591218	-353.580874	-353.57993	-353.625872	41.417	
C	 0.1076293197	 1.513892281	 0.0519582044	-0.42437
C	-0.0582558542	-0.0163300964	-0.0056761064	 0.345573
C	-1.5530352262	-0.3568856085	-0.0666914526	-0.44103
C	 0.7125664571	-0.5895331743	-1.2235419508	-0.24119
C	 2.1407992009	-0.809085098	-0.7134338454	-0.241233
C	 1.9659732054	-1.3630740229	 0.7248078201	 0.345641
C	 1.7947743083	-2.8932594212	 0.6843267114	-0.424376
C	 3.1642468184	-1.015836608	 1.6179075612	-0.441039
C	 0.6472336129	-0.6838069485	 1.2200709876	-0.289941
H	 1.1621238285	 1.8079740121	 0.0763750257	 0.109584
H	-0.3520280997	 1.9930234758	-0.8200286301	 0.106429
H	-0.3687292407	 1.9250422733	 0.9490229496	 0.108464
H	-2.0222167631	 0.075584201	-0.9581531839	 0.106779
H	-1.7107442595	-1.4405013557	-0.0988088691	 0.105942
H	-2.0863199499	 0.03218859	 0.8083001937	 0.107723
H	 0.2708039909	-1.5465423388	-1.5266989849	 0.089414
H	 0.6625693195	 0.0712227404	-2.0954847421	 0.085603
H	 2.7275305826	-1.4807692337	-1.3490181634	 0.085602
H	 2.6791328591	 0.1459503962	-0.6815129641	 0.089419
H	 2.7002080738	-3.381009311	 0.3055103177	 0.106427
H	 1.5951029437	-3.2907370734	 1.6857418315	 0.108462
H	 0.9610821295	-3.1922420255	 0.0404262887	 0.109575
H	 3.3111140123	 0.0680691112	 1.678790608	 0.105947
H	 3.0229211446	-1.39128151	 2.637932752	 0.107722
H	 4.0895336382	-1.4570440451	 1.2292589316	 0.106779
H	 0.8616442051	 0.0651878112	 1.9898265654	 0.086049
H	-0.0088573273	-1.424371571	 1.6897508241	 0.086045
32.9745	175.7999	240.0729	245.7644	248.0733	274.2615	293.9489	299.8502	345.9787	359.5506	370.0712	405.3956	425.2795	450.7605	545.2235	574.6283	730.362	773.9914	850.9167	890.1177	896.3958	929.5773	935.5093	952.1997	955.1932	982.6086	990.5856	1010.5563	1027.3413	1039.9464	1111.2304	1122.9792	1179.1011	1197.4089	1228.4201	1256.8793	1281.1467	1287.9802	1305.3982	1310.3747	1357.5075	1362.1141	1399.249	1401.8457	1420.3744	1424.898	1481.1299	1483.5137	1485.2782	1488.2927	1494.2213	1499.9312	1505.5294	1506.1135	1508.2474	1509.7807	1511.9702	3017.794	3017.8306	3021.3754	3023.6646	3029.863	3030.2681	3039.1503	3068.4723	3070.8758	3076.8767	3083.5132	3084.7846	3089.3145	3090.3808	3091.2494	3091.5205	3095.7458	3095.9205
CC1(C)CCC(C)(C)C1	CC1(C)CCC(C)(C)C1	
InChI=1S/C9H18/c1-8(2)5-6-9(3,4)7-8/h5-7H2,1-4H3	InChI=1S/C9H18/c1-8(2)5-6-9(3,4)7-8/h5-7H2,1-4H3
