20
gdb 122893	3.56036	0.61238	0.54355	3.13	77.2	-0.2713	0.019	0.2903	2004.7903	0.168157	-440.284819	-440.273864	-440.27292	-440.322396	37.251	
C	-0.6281144251	 1.7408813849	 0.2584261361	-0.399329
C	 0.1326421487	 0.4318527204	 0.0508314548	 0.006265
O	 1.0383539508	 0.2806246255	 1.1164927937	-0.241782
C	 1.9580930167	-0.7953528044	 0.967263498	-0.077795
C	 2.8932210863	-0.781242994	 2.1663109	-0.183598
C	 3.9192118358	-1.9067555581	 2.117656531	-0.073796
O	 4.7391695849	-1.7852580438	 3.2682995698	-0.41847
C	-0.8026061315	-0.7179881787	-0.0304799141	 0.262093
N	-1.5214815987	-1.6208275604	-0.0904746729	-0.325515
H	 0.0868085826	 2.5661896138	 0.2811590484	 0.137018
H	-1.341887262	 1.9035729808	-0.5525000293	 0.137981
H	-1.1679805441	 1.7138402079	 1.2074226222	 0.149538
H	 0.6744612391	 0.4664387874	-0.9092135629	 0.112791
H	 1.4149295539	-1.7504330912	 0.9047915143	 0.116024
H	 2.5212905606	-0.6736537286	 0.0269525794	 0.091732
H	 3.4165004731	 0.1796124707	 2.2113256482	 0.117701
H	 2.3048437335	-0.8717497151	 3.0851489311	 0.123582
H	 3.4049762284	-2.8814104902	 2.0938718182	 0.09192
H	 4.5157478589	-1.8319958127	 1.1930990286	 0.085971
H	 5.377479548	-2.504316484	 3.2604859352	 0.287668
43.0599	55.8714	95.5928	118.5289	133.5694	185.3507	214.6681	260.8335	264.5255	274.4339	317.0792	432.1903	497.7683	577.9767	619.4575	779.7331	802.2678	891.898	910.1291	1020.2959	1038.445	1064.8802	1089.8085	1102.5435	1148.1048	1164.8006	1178.3863	1231.9334	1246.5608	1306.4271	1308.9173	1318.7652	1336.8127	1361.2234	1406.3898	1443.5786	1467.9019	1481.4423	1495.83	1498.8885	1521.7635	1533.7101	2351.7988	2956.4232	2966.2271	2969.7857	2984.0063	3010.8956	3053.6876	3058.6431	3101.1841	3141.3809	3144.4494	3831.7394
CC(OCCCO)C#N	C[C@@H](OCCCO)C#N	
InChI=1S/C6H11NO2/c1-6(5-7)9-4-2-3-8/h6,8H,2-4H2,1H3	InChI=1S/C6H11NO2/c1-6(5-7)9-4-2-3-8/h6,8H,2-4H2,1H3/t6-/m1/s1
