16
gdb 7306	3.80205	1.20327	1.00899	7.1748	65.93	-0.239	0.0045	0.2435	1149.9019	0.129601	-417.106026	-417.097163	-417.096219	-417.139976	31.338	
C	-0.0021293961	 1.6182109913	-0.0332885448	-0.377528
C	-0.0773928251	 0.0901392282	 0.1187227324	-0.105896
N	-1.4530609838	-0.381293788	 0.0800043648	-0.251797
C	-2.0265916309	-0.6898900853	 1.174272321	 0.114395
N	-3.2886751657	-1.1991454674	 1.2372764357	-0.500871
H	-3.853582121	-1.1481403525	 0.4037086203	 0.264898
H	-3.777300961	-1.1819964724	 2.1154177855	 0.266496
C	 0.7131450198	-0.5616557431	-1.033851999	 0.425531
O	 1.9044900629	-0.4531107255	-1.1499211762	-0.349078
O	-0.0484972971	-1.2336460705	-1.9083602416	-0.367045
H	 1.0421863354	 1.9303660612	-0.1047410437	 0.145709
H	-0.5304682678	 1.9375714999	-0.9365435432	 0.127905
H	-0.4667476648	 2.1086318052	 0.8270249663	 0.10959
H	 0.4374054448	-0.1974806668	 1.0477007237	 0.093837
H	-0.9626176785	-1.159261945	-1.5606411707	 0.298971
H	-1.5374916612	-0.6037551995	 2.1531644694	 0.104883
53.7182	86.8903	161.1283	201.645	235.4275	257.2518	321.0786	381.1946	416.9647	445.7118	564.209	615.4449	632.2455	740.213	797.1031	836.8617	901.3022	1009.4161	1038.7105	1082.4054	1110.9268	1176.9811	1227.1265	1292.8283	1311.479	1333.8916	1395.9335	1417.7599	1426.2915	1491.0882	1498.1045	1630.9955	1760.5511	1869.3604	2993.6943	3042.8051	3043.8969	3115.7073	3137.2558	3507.9317	3597.9391	3726.722
CC(NC=[NH2+])C([O-])=O	C[C@@H](N=CN)C(=O)O	
InChI=1S/C4H8N2O2/c1-3(4(7)8)6-2-5/h2-3H,1H3,(H2,5,6)(H,7,8)	InChI=1S/C4H8N2O2/c1-3(4(7)8)6-2-5/h2-3H,1H3,(H2,5,6)(H,7,8)/t3-/m1/s1
