21
gdb 93052	2.08643	1.52935	0.92666	0.921	89.68	-0.2073	-0.0172	0.1901	1293.0484	0.183256	-387.109899	-387.100878	-387.099933	-387.143548	34.789	
C	-0.1444801655	 1.5215132167	 0.0915720133	-0.476771
C	-0.0228912065	 0.0279623764	-0.0419724489	 0.281002
C	-0.0738201595	-0.5665141931	-1.2457841419	-0.154375
C	 0.0622560807	-1.9823558141	-1.5744631075	-0.063176
C	 0.0010294197	-3.0739304586	-0.7966613935	-0.084239
C	-0.2812744065	-3.1915379159	 0.673492733	-0.283157
C	-0.766601167	-1.9422596961	 1.412435275	 0.11622
O	-0.8300326291	-2.2039030685	 2.8144955381	-0.436608
C	 0.1619562199	-0.7319809002	 1.2507919707	-0.301053
H	 0.7305123456	 1.9432165546	 0.6041834541	 0.125409
H	-0.2411404275	 2.0136924481	-0.8796273244	 0.118551
H	-1.0156959427	 1.7931661762	 0.7028823235	 0.125538
H	-0.188785771	 0.0826404953	-2.1118486055	 0.074263
H	 0.2515653714	-2.165545224	-2.6308788777	 0.081387
H	 0.1730588756	-4.0309462523	-1.2858692296	 0.086646
H	-1.0310033569	-3.9862569443	 0.8139141992	 0.092888
H	 0.6186230973	-3.5566074588	 1.1910347858	 0.118392
H	-1.763091166	-1.6630873649	 1.0367825387	 0.073179
H	-1.3836473174	-2.980086527	 2.9475544542	 0.279183
H	 1.2047939658	-1.0640857229	 1.3490607605	 0.115707
H	-0.0287211703	-0.0677678266	 2.0991386329	 0.111015
62.0209	140.2737	188.1348	228.5177	276.2265	290.4916	341.0221	357.4804	407.1926	446.2893	475.1002	538.0338	570.3475	730.0521	776.0659	844.953	876.3333	905.0862	921.3391	928.2637	1011.7379	1012.8168	1033.3602	1049.2892	1076.6978	1080.9015	1122.6687	1167.898	1192.0779	1247.1075	1274.4984	1292.81	1335.5551	1343.712	1392.1972	1410.1635	1411.3352	1430.5459	1450.1942	1468.5855	1476.3492	1483.8798	1490.6707	1691.6379	1717.2242	2975.974	2983.8089	3007.9111	3011.028	3021.9286	3051.5264	3081.4909	3110.6733	3122.9248	3138.0325	3152.8489	3814.9342
CC1=CC=CCC(O)C1	CC1=CC=CC[C@@H](O)C1	
InChI=1S/C8H12O/c1-7-4-2-3-5-8(9)6-7/h2-4,8-9H,5-6H2,1H3	InChI=1S/C8H12O/c1-7-4-2-3-5-8(9)6-7/h2-4,8-9H,5-6H2,1H3/t8-/m1/s1
