16
gdb 42600	3.96964	1.73474	1.62131	3.5486	70.37	-0.2417	-0.0058	0.2359	847.3361	0.127871	-400.729499	-400.723759	-400.722815	-400.759438	24.451	
O	 0.0346205904	-0.0043699882	 0.035497883	-0.317245
C	-0.0092078484	 1.1836208967	 0.0354698503	 0.478912
C	-1.0813627932	 2.2964764308	 0.0277981083	-0.156507
C	-0.8075696619	 2.9975065951	 1.371477435	-0.079977
C	-0.0938930274	 4.2918276812	 1.0672965185	-0.085054
C	-0.1437880564	 4.4577475323	-0.4402397243	-0.186722
N	-0.1039191207	 3.043997162	-0.8633757559	-0.13744
C	 0.9758580261	 2.3723683529	-0.031883042	-0.156508
C	 0.729433179	 3.0541436114	 1.3269090146	-0.079975
H	-2.1033459993	 2.1597106915	-0.318969059	 0.093225
H	-1.3744446919	 2.810961824	 2.2717589461	 0.103422
H	-0.1039455475	 5.1162860731	 1.7679519758	 0.098407
H	-1.0638172495	 4.9282471249	-0.7995639239	 0.114406
H	 0.7167476567	 4.9939256882	-0.8512459525	 0.114403
H	 1.983345271	 2.3104722823	-0.4375201595	 0.093227
H	 1.359629003	 2.9116915218	 2.1924806251	 0.103425
154.0548	314.9279	433.2277	568.982	576.0892	657.7186	705.2495	738.1122	795.4045	807.1801	815.1342	838.1969	840.645	904.4719	933.5888	954.3026	965.0545	1000.7093	1024.216	1045.371	1059.7156	1062.8221	1073.6684	1091.3996	1151.6712	1202.2244	1210.8364	1230.5881	1238.2841	1253.7927	1272.8102	1292.5616	1366.816	1496.4764	1932.8665	3057.1444	3106.1534	3146.0405	3148.293	3206.4707	3223.0928	3232.3197
O=C1C2C3C4CN2C1C34	O=C1[C@H]2[C@@H]3[C@@H]4CN2[C@H]1[C@H]34	
InChI=1S/C7H7NO/c9-7-5-3-2-1-8(5)6(7)4(2)3/h2-6H,1H2	InChI=1S/C7H7NO/c9-7-5-3-2-1-8(5)6(7)4(2)3/h2-6H,1H2/t2-,3+,4-,5+,6-
