20
gdb 64457	2.23184	1.68039	1.2287	3.2223	75.31	-0.2395	0.0251	0.2646	1096.9951	0.172342	-440.340582	-440.331782	-440.330838	-440.373844	34.216	
C	 0.0984096217	 1.563955814	-0.0437331236	-0.427211
C	 0.0446656421	 0.0327309503	-0.0185285055	 0.28667
O	-1.3127858108	-0.4121889069	 0.0787269784	-0.4741
C	 0.611372708	-0.5776485114	-1.3056676808	-0.221387
C	 0.9832770021	-2.0457208045	-1.1058915808	-0.218155
C	 2.0824816241	-2.1492900726	-0.0513745423	-0.153383
N	 1.6969186146	-1.426766613	 1.1566067775	-0.326662
C	 0.7332721887	-0.4768663681	 1.2684300008	 0.389182
O	 0.3648040143	-0.0488306578	 2.3536939681	-0.411301
H	 1.12688323	 1.9269035498	-0.1444009995	 0.11081
H	-0.489085171	 1.9334776376	-0.8890969258	 0.117005
H	-0.3135876691	 1.9643078245	 0.8852608379	 0.134073
H	-1.5906574086	-0.2108374706	 0.9821735456	 0.288612
H	-0.1415764384	-0.4592807709	-2.0908042264	 0.114349
H	 1.4983510173	-0.0119598756	-1.6157929315	 0.096095
H	 0.0994847882	-2.602407625	-0.7766665562	 0.125702
H	 1.3344874581	-2.4961391517	-2.0391766479	 0.100262
H	 2.2680319516	-3.1946292812	 0.2174641199	 0.113521
H	 3.0251240515	-1.7484489262	-0.453137231	 0.10868
H	 2.0810416557	-1.7245025409	 2.042363683	 0.247237
58.9347	139.6123	232.8995	264.3784	274.8613	305.4191	343.5123	392.1535	454.8505	471.301	490.4289	556.3831	593.7181	645.1781	677.7289	772.6503	859.4434	882.3592	900.654	947.9226	978.5274	1022.335	1047.3811	1102.8678	1142.2296	1152.6079	1171.4393	1230.6207	1240.6206	1300.8972	1327.2562	1378.7003	1382.3797	1393.0183	1406.0009	1416.2325	1472.1905	1477.9268	1485.4133	1494.1207	1501.0332	1526.5759	1761.9671	2990.8055	3032.7832	3040.2639	3047.6408	3063.4441	3087.274	3098.5673	3110.6573	3133.9572	3599.7554	3767.5898
CC1(O)CCCNC1=O	C[C@@]1(O)CCCNC1=O	
InChI=1S/C6H11NO2/c1-6(9)3-2-4-7-5(6)8/h9H,2-4H2,1H3,(H,7,8)	InChI=1S/C6H11NO2/c1-6(9)3-2-4-7-5(6)8/h9H,2-4H2,1H3,(H,7,8)/t6-/m1/s1
