19
gdb 17892	3.71865	1.95721	1.72723	0.2132	70.41	-0.2088	0.0809	0.2897	850.9924	0.167813	-365.022516	-365.015537	-365.014593	-365.053242	27.92	
C	-0.1499299847	 1.488546909	 0.0450786003	-0.420394
C	 0.0276064889	-0.0178302661	-0.0453888978	 0.061233
C	 0.8634584901	-0.5934394796	-1.2140624449	 0.114704
C	 2.0691519753	-0.4254744288	-0.2668488636	-0.222672
N	 1.1044985076	-0.5446709083	 0.8938155572	-0.130207
C	 0.8290316738	-1.9824196936	 1.0857182231	-0.186337
C	 0.8527317389	-2.7738125826	-0.2539753811	-0.082871
O	 0.5258380119	-1.9649343632	-1.386144926	-0.275418
H	 0.7846585272	 2.0300307038	-0.1278271145	 0.11817
H	-0.8791111224	 1.8308018636	-0.6970759035	 0.116479
H	-0.5146152793	 1.7653378756	 1.038818697	 0.126794
H	-0.9359406902	-0.521221819	 0.0872206064	 0.07108
H	 0.8444227649	-0.1339017264	-2.2065078151	 0.072442
H	 2.8710648587	-1.1663512866	-0.3000244	 0.107561
H	 2.5098229036	 0.5728065971	-0.293039451	 0.110671
H	 1.5774523887	-2.4069876853	 1.7653138162	 0.10245
H	-0.1442443752	-2.0671039678	 1.5800678071	 0.109118
H	 1.8484432213	-3.2143172141	-0.4036746057	 0.098383
H	 0.1356451108	-3.6001293977	-0.2391919441	 0.108815
176.8626	193.1824	248.9033	287.4734	344.2792	457.1061	466.2075	498.8606	658.2343	795.3492	813.0416	827.8196	833.5051	874.5657	921.6449	929.9849	954.338	1036.8082	1045.0858	1059.2403	1084.8114	1128.4904	1160.6023	1168.0151	1193.9731	1248.0758	1249.113	1264.8099	1285.0857	1291.7998	1344.8394	1358.3636	1382.8054	1405.8645	1412.791	1487.4624	1494.4114	1497.0268	1502.9852	1528.5889	2996.7314	3030.6857	3037.7006	3048.6366	3063.3854	3067.9152	3075.6493	3084.9021	3106.3723	3113.2268	3123.7772
CC1C2CN1CCO2	C[C@H]1[C@H]2CN1CCO2	
InChI=1S/C6H11NO/c1-5-6-4-7(5)2-3-8-6/h5-6H,2-4H2,1H3	InChI=1S/C6H11NO/c1-5-6-4-7(5)2-3-8-6/h5-6H,2-4H2,1H3/t5-,6+/m0/s1
