25
gdb 98263	2.67512	0.93691	0.81992	2.3038	89.3	-0.2367	-0.0064	0.2304	1592.8132	0.225392	-389.530322	-389.518538	-389.517593	-389.567945	42.289	
C	-0.0331399483	 1.5525352682	-0.0917135775	-0.377184
C	-0.1035001208	 0.049582929	 0.1624946001	-0.287525
C	 0.8072271606	-0.4309781692	 1.2831239042	 0.392235
O	 1.4406841329	 0.3413500777	 1.9685688958	-0.32834
C	 0.9165658921	-1.9479336305	 1.4814945148	-0.060401
C	 2.2235116525	-2.3930880658	 0.7914368576	-0.410431
C	 0.8545704387	-2.3130046387	 2.9832410366	 0.061571
C	-0.4953769287	-1.8988542918	 3.5893739749	-0.405765
C	 1.116136752	-3.8029422463	 3.2401556735	-0.408953
H	 0.9769112936	 1.8522272338	-0.3838410569	 0.128344
H	-0.7242304091	 1.8456129788	-0.8870097763	 0.108408
H	-0.2859735363	 2.11075476	 0.8129992331	 0.132971
H	-1.1246532808	-0.2615209575	 0.4281298058	 0.12444
H	 0.1351382658	-0.5258193695	-0.7427957455	 0.118793
H	 0.0746264403	-2.4285463676	 0.9641411725	 0.066574
H	 3.0903121979	-1.9801357654	 1.3166156685	 0.135558
H	 2.3120411294	-3.4816515061	 0.7718723023	 0.122341
H	 2.2635018745	-2.0426638197	-0.2455738166	 0.113792
H	 1.6396302867	-1.7280788112	 3.4776379488	 0.095949
H	-1.3236195822	-2.4403338105	 3.1152690836	 0.106048
H	-0.5266276595	-2.1238606708	 4.6601826249	 0.112711
H	-0.6788025288	-0.8266704901	 3.4733620998	 0.122808
H	 2.1206796915	-4.107994924	 2.93600405	 0.115486
H	 1.0146224523	-4.0280604705	 4.3069064057	 0.1125
H	 0.395528204	-4.4317691922	 2.7023432804	 0.108073
32.4258	65.6769	80.8077	157.6087	184.8692	202.9971	213.4591	232.1378	247.9737	285.2133	297.0764	335.0251	386.6419	426.3371	464.8481	570.197	654.6305	788.9267	799.8162	812.9863	917.0605	931.7837	962.9879	985.2673	986.2562	1021.0321	1036.0634	1058.4874	1116.5545	1127.3564	1148.9707	1190.1284	1202.8317	1276.0649	1304.2551	1325.9612	1356.4275	1367.8829	1385.4577	1399.705	1406.0568	1412.1861	1422.5144	1447.7735	1486.4397	1490.6928	1491.4781	1497.0486	1499.0761	1504.3891	1506.2191	1517.4171	1800.0031	3005.5745	3013.6532	3022.7916	3026.1069	3037.0399	3039.3442	3042.6105	3050.541	3086.2085	3094.4401	3101.2255	3107.9697	3112.2627	3120.4326	3126.4131	3127.4085
CCC(=O)C(C)C(C)C	CCC(=O)[C@@H](C)C(C)C	
InChI=1S/C8H16O/c1-5-8(9)7(4)6(2)3/h6-7H,5H2,1-4H3	InChI=1S/C8H16O/c1-5-8(9)7(4)6(2)3/h6-7H,5H2,1-4H3/t7-/m0/s1
