20
gdb 37245	3.38465	1.51429	1.34939	1.6608	81.82	-0.2195	0.0714	0.2909	1024.848	0.172509	-365.922834	-365.91562	-365.914675	-365.954116	30.154	
C	 0.0820924026	 1.5529525616	-0.0064897189	-0.315272
C	 1.3359857228	 0.7161688154	-0.0107806341	-0.353022
C	-0.0130519147	 0.0524731263	 0.0197716082	 0.381822
C	-0.546535805	-0.8697111423	 1.1411059001	-0.341592
C	-1.0987929402	-1.8211751459	 0.0365486511	-0.02601
C	-2.4951911505	-1.5348447326	-0.5394751914	-0.031119
C	-2.821129258	-0.1006839948	-0.6301283357	-0.245048
N	-1.939206202	-0.6692439461	-1.668695195	-0.156511
C	-0.5526815131	-0.8851636181	-1.0667789739	-0.061356
H	-0.1675878981	 2.0922384448	 0.9022333737	 0.112038
H	-0.1996978003	 2.0635246013	-0.9215997555	 0.123849
H	 1.9108394821	 0.656659404	-0.9297629575	 0.115521
H	 1.933650064	 0.6862655321	 0.8949677641	 0.111925
H	 0.2440844167	-1.3227999948	 1.746313168	 0.102963
H	-1.2955926557	-0.4382553613	 1.8123665604	 0.099356
H	-0.8273625703	-2.8741113571	 0.0879870086	 0.074189
H	-3.2359168565	-2.3032511196	-0.7406953815	 0.09082
H	-3.7995228155	 0.1556022284	-1.0269137275	 0.116479
H	-2.4302135355	 0.6159533592	 0.0836182041	 0.125674
H	 0.1383637273	-1.2087193505	-1.8460730973	 0.075294
123.3986	200.3932	256.7567	326.2603	334.4568	456.974	490.7153	589.9815	712.5139	719.9888	738.1094	780.8186	834.5415	860.6857	879.7254	884.4133	906.4279	924.7393	958.4155	982.4511	998.966	1025.2698	1049.9503	1058.3689	1073.1447	1084.0505	1111.9095	1133.0687	1154.1418	1166.585	1190.4274	1208.4055	1228.9551	1252.8723	1254.1756	1281.5104	1305.0307	1366.3172	1370.5464	1464.3717	1477.9874	1499.1136	1505.6716	3042.5425	3092.0474	3098.5328	3119.9491	3124.1014	3124.4722	3124.9308	3150.639	3199.0581	3209.3364	3214.2844
C1CC11CC2C3CN3C12	C1CC21C[C@H]1[C@H]3CN3[C@@H]21	
InChI=1S/C8H11N/c1-2-8(1)3-5-6-4-9(6)7(5)8/h5-7H,1-4H2	InChI=1S/C8H11N/c1-2-8(1)3-5-6-4-9(6)7(5)8/h5-7H,1-4H2/t5-,6+,7+,9?/m0/s1
