22
gdb 5895	4.15108	0.906	0.88821	0.331	75.57	-0.2477	0.064	0.3117	1438.7483	0.196716	-387.337308	-387.326756	-387.325812	-387.372713	37.888	
C	 0.0882603326	 1.369721821	-0.1156268652	-0.226593
O	 0.046301756	-0.0345623808	-0.065751258	-0.233164
C	-1.2686780228	-0.537216818	 0.0685214735	-0.062411
C	-1.1867779163	-2.0581503221	 0.1233228608	-0.218397
C	-2.5476976401	-2.7830293877	 0.0536638909	 0.337485
C	-2.324524395	-4.3019218989	 0.0523343042	-0.415374
C	-3.4782018521	-2.3850158572	 1.2034543351	-0.390722
O	-3.2488760757	-2.3999081326	-1.1389621852	-0.457394
H	 1.1352241003	 1.6645004035	-0.2239617902	 0.123408
H	-0.4831044676	 1.7676090491	-0.9699007921	 0.101409
H	-0.3148328047	 1.8256169399	 0.8033762302	 0.100598
H	-1.7342039071	-0.1310346558	 0.9816479178	 0.08297
H	-1.8944530003	-0.2258102825	-0.7822776465	 0.096878
H	-0.5690693724	-2.3879287507	-0.722756286	 0.092333
H	-0.6514820266	-2.3614448741	 1.0306213957	 0.10097
H	-1.850084885	-4.6376553475	 0.9800439147	 0.115327
H	-3.2804245976	-4.8218805997	-0.0579090669	 0.119978
H	-1.6736172576	-4.5994273336	-0.7785681661	 0.102633
H	-3.7343336497	-1.3242646728	 1.1497220621	 0.124733
H	-4.4086778967	-2.9566529075	 1.1457766083	 0.118931
H	-3.0076106937	-2.5822673476	 2.1710595819	 0.111539
H	-2.7272765777	-2.6965164946	-1.8928901492	 0.274864
67.9028	75.6615	127.3212	148.9216	214.832	236.004	252.1587	290.7933	302.1779	312.3639	347.7621	396.5569	435.2128	498.7576	538.6212	776.1975	799.5524	915.1354	932.9427	950.3464	984.8393	1004.4041	1052.5079	1079.1759	1140.078	1161.116	1180.2375	1204.5107	1226.8007	1239.3858	1250.062	1306.4597	1335.9177	1377.216	1402.8609	1419.6698	1429.5443	1473.3273	1481.358	1484.6746	1485.249	1490.6693	1498.0641	1505.8313	1511.395	1538.2718	2959.6359	2971.7142	3002.4979	3006.899	3019.6233	3027.2087	3046.9671	3068.8477	3093.2813	3109.3202	3112.978	3120.8839	3125.4667	3800.0822
COCCC(C)(C)O	COCCC(C)(C)O	
InChI=1S/C6H14O2/c1-6(2,7)4-5-8-3/h7H,4-5H2,1-3H3	InChI=1S/C6H14O2/c1-6(2,7)4-5-8-3/h7H,4-5H2,1-3H3
