12
gdb 123535	4.25769	1.84043	1.28498	1.1059	68.77	-0.2844	-0.0888	0.1956	863.9361	0.082771	-427.873143	-427.867725	-427.866781	-427.90298	21.051	
C	 0.0922912124	 1.283753995	 0.0087277792	 0.041813
N	 1.3490712549	 1.7537889536	-0.0009041822	-0.228748
N	 2.0580035768	 0.6246311355	-0.0143250259	 0.077546
N	 3.3895955486	 0.5794028139	-0.027651588	-0.196128
C	 3.8599413663	-0.6488504287	-0.0392879944	 0.108013
N	 3.1622549298	-1.8153090715	-0.0390898283	-0.261644
C	 1.8513709468	-1.7299703019	-0.0257298365	-0.052033
C	 1.2114951968	-0.4759946038	-0.0122987779	 0.387748
N	-0.0518958839	-0.0558959482	 0.0024846238	-0.337391
H	-0.7459835788	 1.9647427928	 0.0208473765	 0.14748
H	 4.9412630893	-0.7245593716	-0.0503156728	 0.153683
H	 1.2631623509	-2.6434747451	-0.0251809536	 0.159661
229.0628	245.0409	437.8331	466.827	584.0574	634.0373	676.4401	684.6164	801.1528	801.8905	919.0988	935.1741	947.4533	970.152	998.8209	1119.3701	1196.9259	1223.9208	1277.9699	1323.6071	1337.6546	1344.7747	1402.9643	1439.9775	1505.4629	1529.7504	1644.52	3179.444	3211.4529	3262.8386
C1=NN2N=CN=CC2=N1	c1nn2ncncc2n1	
InChI=1S/C4H3N5/c1-4-6-3-8-9(4)7-2-5-1/h1-3H	InChI=1S/C4H3N5/c1-4-6-3-8-9(4)7-2-5-1/h1-3H
