14
gdb 48504	3.72117	1.598	1.38484	2.9282	65.01	-0.2576	-0.0394	0.2182	902.3253	0.101169	-436.589028	-436.58272	-436.581776	-436.620024	24.472	
O	-0.1578265894	 0.1425935812	-0.3827918855	-0.260355
C	 0.091492005	 1.1914025145	 0.159482397	 0.032972
C	 1.4019313088	 1.8538703173	 0.0834300087	 0.278087
C	 2.0967435115	 2.5651849494	 1.2123018434	-0.111767
C	 3.5467908112	 2.4998008248	 0.6551902575	 0.064384
O	 3.7283225084	 1.2191491199	 0.0237491167	-0.281028
C	 2.6236246523	 1.5957010626	-0.8269875342	-0.011335
C	 2.8910475214	 3.1104988654	-0.6120370907	-0.032903
N	 1.5469480831	 3.3686730587	 0.0940253924	-0.2139
H	-0.6663317503	 1.7484500576	 0.752963076	 0.087969
H	 1.714364245	 2.6297732156	 2.223387858	 0.11858
H	 4.396510624	 2.858815791	 1.2305169056	 0.106094
H	 2.5321613953	 1.0311406719	-1.7501937853	 0.115999
H	 3.3049681135	 3.8302000202	-1.3129129796	 0.107204
107.1469	155.6382	250.8426	451.8998	536.7203	570.4315	692.5744	758.8636	794.4827	811.9971	821.7222	839.2673	861.4441	893.4072	928.8721	948.4724	969.5726	1002.6222	1038.1669	1071.6078	1117.1805	1150.8619	1184.6886	1199.7099	1217.8717	1231.4205	1286.8525	1313.9565	1372.977	1426.7118	1807.9661	2894.1739	3155.1037	3164.6704	3178.3765	3199.6936
O=CC12C3C4OC1C4N23	O=C[C@@]12[C@H]3[C@H]4O[C@@H]1[C@H]4N23	
InChI=1S/C6H5NO2/c8-1-6-4-3-2(7(4)6)5(6)9-3/h1-5H	InChI=1S/C6H5NO2/c8-1-6-4-3-2(7(4)6)5(6)9-3/h1-5H/t2-,3-,4+,5+,6+,7?/m0/s1
