22
gdb 102709	2.45079	1.04492	0.79715	0.8716	86.4	-0.2379	0.0334	0.2713	1537.0568	0.191796	-404.339441	-404.328804	-404.327859	-404.376829	37.515	
C	 0.4427988369	 0.0054125078	 1.6622827061	-0.374231
C	 0.0614885951	-0.1903611074	 0.1847865463	-0.268498
C	-1.3822319143	-0.6121134723	 0.021499952	 0.396633
O	-1.4960327264	-1.9249534619	 0.3730233765	-0.265282
C	-2.78451322	-2.4929245431	 0.3294786517	 0.175921
C	-3.1724284552	-3.2845497087	-0.8822392233	-0.277844
C	-2.8200598149	-3.9833340977	 0.4187103614	-0.301748
N	-2.4029758707	 0.0426979311	-0.3360928831	-0.294907
C	-2.341965462	 1.4437823892	-0.6818951783	-0.326215
H	 1.5003097146	 0.2688554597	 1.7566225261	 0.115871
H	-0.1475821991	 0.8059777829	 2.1187354157	 0.123001
H	 0.2647851287	-0.9119179871	 2.2291319651	 0.136064
H	 0.2513869998	 0.7254089429	-0.3786975937	 0.11223
H	 0.6863744819	-0.9761430047	-0.251546946	 0.120187
H	-3.5386464213	-1.8946860444	 0.8266976401	 0.108574
H	-4.206935898	-3.2563179932	-1.2053274039	 0.116211
H	-2.4452995643	-3.3408915265	-1.6841577296	 0.118293
H	-1.864663534	-4.4938242354	 0.4634458959	 0.12149
H	-3.6097879175	-4.4454700592	 1.0002507601	 0.114665
H	-1.3484619588	 1.9094993041	-0.6213630166	 0.100441
H	-2.7181562022	 1.5820566375	-1.7026923679	 0.124839
H	-3.0138503383	 2.0076796264	-0.0234632746	 0.124304
33.321	48.5865	82.0274	88.6221	153.7421	214.6833	232.5185	255.6772	318.2029	379.4614	410.6932	465.3065	608.9825	693.4	747.4446	783.3861	795.2096	824.43	847.9568	958.7418	979.0746	997.0953	1052.33	1071.2686	1077.9551	1082.6741	1112.6033	1128.7629	1136.6267	1148.046	1189.852	1192.1364	1234.2062	1257.8194	1312.0949	1348.2868	1392.5901	1406.5655	1445.4375	1454.423	1478.9537	1487.672	1495.9298	1498.4799	1505.5003	1513.8208	1762.1133	2995.662	3042.4851	3055.5672	3060.3522	3066.6272	3103.3654	3112.8849	3129.9716	3137.9386	3141.3132	3182.1545	3220.634	3235.2114
CCC(OC1CC1)=NC	CCC(=NC)OC1CC1	
InChI=1S/C7H13NO/c1-3-7(8-2)9-6-4-5-6/h6H,3-5H2,1-2H3	InChI=1S/C7H13NO/c1-3-7(8-2)9-6-4-5-6/h6H,3-5H2,1-2H3
