18
gdb 113019	4.79784	0.88594	0.81844	3.8034	79.41	-0.2218	-0.0121	0.2098	1415.4595	0.147616	-439.105877	-439.097051	-439.096107	-439.140237	31.491	
C	-0.2784074944	 1.2415404253	 0.0262958247	-0.239245
O	 0.1447841088	-0.103108334	 0.0521772471	-0.243722
C	 0.7853463147	-0.5288853416	-1.1469708853	 0.072033
C	 1.3300571577	-1.9569773752	-0.9030423217	-0.208014
N	 0.4749159317	-2.8219953043	-1.7282514548	-0.063851
C	 0.4840276157	-4.1876295028	-1.728827868	 0.145987
O	-0.2037863893	-4.8835558276	-2.4446943952	-0.325849
C	-0.3234524189	-2.0282220958	-2.5541555541	 0.025566
C	-0.1615125475	-0.7245788056	-2.3139341781	-0.199331
H	 0.5571143492	 1.9260194982	-0.1916613991	 0.103074
H	-1.071186318	 1.4169570085	-0.714903659	 0.110294
H	-0.672911918	 1.4730302604	 1.0184045352	 0.131486
H	 1.5994189026	 0.1760949568	-1.3753744346	 0.075239
H	 2.3737462656	-2.0447548917	-1.2200930632	 0.125234
H	 1.2529574153	-2.2058019972	 0.1573895359	 0.1429
H	 1.2020325213	-4.5930140704	-0.9901897539	 0.077271
H	-0.9534223973	-2.5339545122	-3.27120505	 0.159376
H	-0.6661711091	 0.0740555091	-2.8361666859	 0.111554
43.8067	94.9712	154.7716	196.6551	229.6535	259.8962	281.1994	354.0191	388.8412	558.6702	581.8851	754.6239	776.6264	810.6052	843.8058	914.2264	958.548	962.5559	1016.786	1025.2155	1076.5882	1111.6029	1136.7904	1181.5923	1211.1657	1237.3092	1250.6595	1298.7668	1317.9641	1336.1045	1373.6513	1438.6012	1446.142	1478.44	1489.3692	1499.5112	1510.3551	1671.1545	1792.3058	2948.9883	2973.5668	2980.7065	3028.8339	3054.5615	3116.9834	3117.6266	3243.4514	3265.6182
COC1CN(C=O)C=C1	CO[C@H]1CN(C=O)C=C1	
InChI=1S/C6H9NO2/c1-9-6-2-3-7(4-6)5-8/h2-3,5-6H,4H2,1H3	InChI=1S/C6H9NO2/c1-9-6-2-3-7(4-6)5-8/h2-3,5-6H,4H2,1H3/t6-/m1/s1
