17
gdb 22556	2.30363	1.33861	1.01336	2.7076	73.03	-0.2506	-0.0295	0.2211	1198.3019	0.133243	-455.084936	-455.075393	-455.074449	-455.119919	34.021	
C	-0.1442588047	 1.4949695977	 0.0042111346	-0.491473
C	 0.0247894432	 0.0009341676	 0.0419827418	 0.268167
N	 0.125243028	-0.7067045922	 1.1037884239	-0.167511
O	 0.0483216699	 0.0577346235	 2.2707035128	-0.388591
C	 0.0477968849	-0.751721032	-1.2525749258	 0.14314
C	-0.2048672595	-2.2275042741	-1.2679362848	-0.262392
N	-1.2265354206	-1.3275981963	-1.7880778712	-0.346815
C	 0.9182810696	-0.2259664838	-2.3494405398	 0.138468
O	 1.7705503191	 0.6147775968	-2.2132500527	-0.266454
H	 0.827984008	 1.9738808122	-0.1453634175	 0.170749
H	-0.7791403995	 1.7875131616	-0.8367655953	 0.130055
H	-0.5771993196	 1.8571071764	 0.9364195234	 0.149621
H	 0.1314991467	-0.6117200345	 2.9581345483	 0.309223
H	 0.2884253667	-2.8417996772	-2.0162997198	 0.128063
H	-0.3378709863	-2.6862420657	-0.294845623	 0.149592
H	-1.9513658718	-1.1928480074	-1.0856080238	 0.24514
H	 0.708673626	-0.7057303028	-3.3304359912	 0.091018
50.0485	78.6445	131.2009	164.3487	211.3797	245.2212	335.1218	340.4184	358.0423	417.0784	486.3775	499.0466	554.5207	620.778	766.2698	803.63	899.6349	927.9199	974.5963	985.5085	1029.2072	1050.9307	1058.2973	1095.819	1130.8724	1190.0851	1269.5363	1321.9425	1357.9732	1399.7741	1406.9316	1431.886	1482.2994	1484.8657	1500.6128	1716.6334	1822.1564	2901.6573	3055.3687	3115.8568	3121.8819	3157.9267	3222.1583	3493.0196	3819.4323
CC(=NO)C1(CN1)C=O	CC(=NO)[C@]1(CN1)C=O	
InChI=1S/C5H8N2O2/c1-4(7-9)5(3-8)2-6-5/h3,6,9H,2H2,1H3	InChI=1S/C5H8N2O2/c1-4(7-9)5(3-8)2-6-5/h3,6,9H,2H2,1H3/t5-/m0/s1
