19
gdb 108029	3.86662	1.38775	1.27345	1.2776	77.44	-0.2173	0.0726	0.2898	1038.9488	0.160742	-385.838594	-385.831284	-385.83034	-385.870282	29.786	
O	-0.0152747093	 1.2961547192	-0.3939876284	-0.421774
C	-0.0552053369	-0.0427290352	 0.090454085	-0.199635
C	-1.4805809119	-0.5074367171	 0.0912256155	 0.354488
C	-2.5356748859	 0.1646549546	 0.9535715496	-0.287688
C	-3.7314422858	-0.6829937302	 0.5712977278	-0.077157
C	-3.6183822874	-1.1503139929	-0.8683436576	-0.087115
C	-3.3012102096	-2.1065067414	 0.2637571438	-0.092079
C	-1.7906585062	-1.9892275701	-0.061220026	-0.145248
C	-2.108549257	-1.0305074177	-1.1908505382	-0.109921
H	 0.8840655565	 1.6217480483	-0.2925771406	 0.285164
H	 0.5519358888	-0.7112863075	-0.5415108766	 0.08182
H	 0.3533217974	-0.1007489202	 1.1124568929	 0.085968
H	-2.2981323899	 0.0952983062	 2.0222028857	 0.090157
H	-2.659759853	 1.2198363898	 0.6909742197	 0.112263
H	-4.715131653	-0.5101123398	 0.9919109835	 0.080895
H	-4.43392981	-1.1645532295	-1.5779093885	 0.083313
H	-3.8260422684	-2.9941695995	 0.5886821677	 0.082945
H	-1.0497624408	-2.7759059889	-0.0057733691	 0.078749
H	-1.6534776678	-0.930304708	-2.1666588362	 0.084857
89.0165	158.5077	245.8155	298.8212	357.2084	435.8518	540.2283	630.7026	708.5821	722.3286	752.167	772.7184	807.3852	847.2416	856.6247	905.6313	921.5965	947.7534	955.5543	976.4242	998.2655	1025.4048	1034.8535	1044.3158	1059.0349	1076.5996	1099.2932	1144.3654	1175.6617	1208.9595	1210.3705	1245.0719	1266.7951	1273.4116	1279.2729	1344.9549	1363.1381	1406.845	1467.459	1493.8929	1513.6988	2959.0853	2986.2732	3033.6869	3087.1788	3185.6548	3191.1014	3202.7604	3206.9893	3216.4258	3826.5202
OCC12CC3C4C3C1C24	OC[C@]12C[C@H]3[C@@H]4[C@H]3[C@H]1[C@H]24	
InChI=1S/C8H10O/c9-2-8-1-3-4-5(3)7(8)6(4)8/h3-7,9H,1-2H2	InChI=1S/C8H10O/c9-2-8-1-3-4-5(3)7(8)6(4)8/h3-7,9H,1-2H2/t3-,4+,5-,6+,7-,8-
