19
gdb 63858	2.28058	1.59334	1.27087	3.3984	80.74	-0.2344	0.017	0.2515	1083.0356	0.158858	-382.051185	-382.0424	-382.041455	-382.084055	34.034	
C	-0.0859972148	 1.5607312543	 0.0529991386	-0.424172
C	 0.0266100898	 0.0416908851	 0.0359806814	 0.253874
C	-1.3106409618	-0.6183222594	-0.2859036022	-0.449068
N	 1.1398034643	-0.4752854512	-0.8550032448	-0.358307
C	 1.6926694808	-1.2561611974	 0.2572279498	-0.049934
C	 2.1983593821	-0.3308757751	 1.3035516009	-0.319051
C	 0.7056171039	-0.633447336	 1.2630987843	 0.15077
C	 0.0125307288	-1.1993091884	 2.3681984455	 0.191746
N	-0.5672250912	-1.6616903562	 3.2587082462	-0.36685
H	 0.873634586	 2.032459846	 0.274947446	 0.122561
H	-0.4169103626	 1.9254627288	-0.9249586308	 0.122414
H	-0.8156736409	 1.8839436243	 0.8026565476	 0.125458
H	-1.6587075578	-0.2970287296	-1.2737375148	 0.121241
H	-1.2263997673	-1.7094696832	-0.2811437605	 0.125183
H	-2.073378978	-0.3386292659	 0.4476271397	 0.14068
H	 0.7550997	-1.0789817544	-1.5749881804	 0.224075
H	 2.0059187195	-2.2880446773	 0.1568827996	 0.119539
H	 2.7121076112	-0.7906430276	 2.1408266946	 0.139665
H	 2.556251848	 0.6531586031	 1.0182408292	 0.130175
115.7915	138.7307	199.3246	218.0751	261.1155	298.5568	344.2871	366.157	451.5879	475.4914	503.7253	575.3784	607.8184	644.9017	790.6635	818.4715	863.8987	897.431	934.6165	950.4062	985.3856	995.0375	1018.7453	1045.218	1061.7194	1092.9769	1160.3224	1186.2818	1221.7005	1250.2173	1313.3462	1344.1811	1396.8222	1410.4687	1424.2958	1474.7433	1478.1029	1487.9528	1499.6815	1503.55	2334.8782	3031.1673	3039.9366	3101.7083	3107.7779	3110.9141	3124.6323	3131.7721	3194.0186	3226.5693	3520.0357
CC1(C)NC2CC12C#N	CC1(C)N[C@H]2C[C@@]12C#N	
InChI=1S/C7H10N2/c1-6(2)7(4-8)3-5(7)9-6/h5,9H,3H2,1-2H3	InChI=1S/C7H10N2/c1-6(2)7(4-8)3-5(7)9-6/h5,9H,3H2,1-2H3/t5-,7-/m0/s1
