18
gdb 49551	2.69356	1.57262	1.49334	4.0468	77.09	-0.2345	-0.0008	0.2337	983.3602	0.150043	-401.958854	-401.951641	-401.950697	-401.990591	28.545	
O	 0.1032930156	 0.0762910499	-0.4164408658	-0.329013
C	 0.1167619734	 1.2652134701	-0.1777259611	 0.135289
N	 1.1974424676	 1.9568018458	 0.2680345615	-0.021625
C	 1.5632863647	 3.3862219326	 0.1239485295	-0.033131
C	 2.9202155613	 2.9937055404	 0.7765692357	-0.228289
C	 2.6307453434	 1.5869647103	 0.1665866672	-0.061351
C	 3.0363792254	 1.6122403964	-1.2991315155	-0.037421
C	 2.6159109047	 2.6510307904	-2.0221212757	-0.068491
C	 1.75819061	 3.718990045	-1.3708185163	-0.258934
H	-0.7847310669	 1.9113965727	-0.2441973415	 0.064791
H	 0.9168445267	 4.0979156679	 0.6426699837	 0.086027
H	 3.8176684644	 3.5069554855	 0.4321893526	 0.109159
H	 2.8548760834	 2.995333224	 1.8655133929	 0.114567
H	 2.9253437576	 0.6893133799	 0.707853054	 0.096271
H	 3.6493425029	 0.8169667927	-1.7079025404	 0.101311
H	 2.8542812518	 2.754201127	-3.0763192002	 0.099041
H	 0.7820865326	 3.7841009755	-1.8717769347	 0.116981
H	 2.2204409512	 4.7095763639	-1.4775514159	 0.114817
80.8256	165.6221	276.7375	301.7329	362.1965	458.1603	504.9146	524.34	580.9586	699.6084	742.6152	809.5646	844.793	862.5271	898.4834	928.0987	951.5974	976.2548	1007.2617	1031.7249	1060.9523	1077.1226	1093.6561	1108.8027	1168.4431	1184.542	1223.6352	1249.738	1287.2372	1300.5468	1323.3966	1357.3937	1378.6274	1392.3632	1428.1926	1469.3798	1488.5457	1693.6437	1791.4661	2902.8288	3010.2076	3040.3318	3079.9048	3089.0428	3128.7522	3153.9706	3170.7736	3199.6937
O=CN1C2CC1C=CC2	O=CN1[C@H]2C[C@@H]1C=CC2	
InChI=1S/C7H9NO/c9-5-8-6-2-1-3-7(8)4-6/h1-2,5-7H,3-4H2	InChI=1S/C7H9NO/c9-5-8-6-2-1-3-7(8)4-6/h1-2,5-7H,3-4H2/t6-,7+/m0/s1
