17
gdb 53477	6.06903	0.62083	0.56716	4.2901	80.38	-0.248	-0.0214	0.2266	1895.0593	0.134056	-418.01423	-418.003988	-418.003043	-418.051766	34.32	
C	-0.1019136298	 1.675397104	 0.0893749033	-0.498478
C	-0.1477015182	 0.221205516	 0.1036433746	 0.099485
C	-0.2075107481	-0.9794035967	 0.1121249496	 0.089721
C	-0.2487803307	-2.4309568119	 0.127018558	-0.480062
C	-1.6336924295	-3.0393852465	-0.0711632699	 0.409191
N	-2.6726610927	-2.3409750743	-0.2365834274	-0.481673
N	-1.5727523085	-4.4570391696	-0.0415009731	-0.346028
C	-2.6219166028	-5.3303709632	-0.1856602574	 0.167387
O	-3.7793769337	-5.0258971903	-0.363080966	-0.296652
H	 0.5436554897	 2.0473335464	-0.713877703	 0.14586
H	-1.1015792804	 2.0953783378	-0.0660555999	 0.156896
H	 0.2823592719	 2.0727272399	 1.0353002556	 0.145859
H	 0.4136851108	-2.8363514029	-0.6532127171	 0.142025
H	 0.1549106254	-2.8112321925	 1.0780129444	 0.142026
H	-3.4936141929	-2.9365038461	-0.3506566389	 0.253807
H	-0.6656650722	-4.8770287582	 0.1001706509	 0.256757
H	-2.2822492483	-6.382295722	-0.1196403437	 0.093879
25.3764	37.8721	72.495	90.7926	204.5144	212.9765	252.3714	293.7187	312.2788	372.8898	418.3178	522.5414	555.898	590.5955	791.5787	806.137	930.3217	943.6735	1005.432	1017.4783	1024.9862	1051.3471	1055.7017	1173.4158	1195.4789	1237.6563	1287.1556	1384.9726	1414.0201	1440.5859	1459.3355	1477.8187	1478.113	1509.4394	1746.53	1816.8109	2388.2705	2945.023	2987.4444	3010.5508	3027.5436	3087.2545	3091.2277	3488.6973	3607.2542
CC#CCC(=N)NC=O	CC#CCC(=N)NC=O	
InChI=1S/C6H8N2O/c1-2-3-4-6(7)8-5-9/h5H,4H2,1H3,(H2,7,8,9)	InChI=1S/C6H8N2O/c1-2-3-4-6(7)8-5-9/h5H,4H2,1H3,(H2,7,8,9)
