17
gdb 35262	3.25777	1.02564	0.87004	4.0271	73.07	-0.2556	0.0088	0.2645	1310.7551	0.136613	-417.961938	-417.953463	-417.952519	-417.997062	29.81	
N	-0.316628244	-1.1272698455	 0.3514937707	-0.33513
C	-0.1864413706	 0.0146994686	 0.2268897045	 0.335236
C	-0.0246094012	 1.4354185911	 0.0293481291	-0.20367
N	 0.5911607532	 2.1936396042	 1.1373961564	-0.320443
C	 1.3315898918	 2.0610678577	-0.1176744919	-0.026095
C	 2.6025128494	 1.2607978804	-0.0810155385	-0.036073
C	 3.2409803058	 0.9362708241	-1.4527815025	-0.086939
O	 4.38450704	 1.7672161809	-1.1712679749	-0.26966
C	 3.9009506147	 2.0710321224	 0.1517923561	-0.085323
H	-0.8413770328	 1.8936425125	-0.5216733548	 0.135299
H	 0.144452914	 3.1035846048	 1.2140414459	 0.249067
H	 1.3559554621	 2.9262396906	-0.7808915614	 0.107144
H	 2.4808546751	 0.4031686254	 0.5813732667	 0.11232
H	 3.5177351873	-0.1140046648	-1.601131428	 0.113907
H	 2.6848300741	 1.283839383	-2.3333176879	 0.100412
H	 3.7701365614	 3.1499167369	 0.3070224592	 0.099723
H	 4.5609457896	 1.6784105677	 0.9343580512	 0.110226
32.905	46.1857	103.1356	174.3553	249.6695	313.6551	346.9478	450.0575	578.3717	620.3273	764.436	829.2395	837.8911	884.4741	895.8148	934.4986	962.5539	976.8556	1038.5696	1045.8288	1061.4109	1084.5955	1145.3233	1158.9891	1162.4126	1204.8127	1225.6701	1243.9282	1269.169	1310.5071	1321.498	1383.1371	1406.3932	1470.9666	1513.1729	1538.6686	2360.3089	3006.6927	3017.1874	3055.7595	3057.8506	3102.6568	3116.4041	3150.5369	3512.5431
N#CC1NC1C1COC1	N#C[C@H]1N[C@H]1C1COC1	
InChI=1S/C6H8N2O/c7-1-5-6(8-5)4-2-9-3-4/h4-6,8H,2-3H2	InChI=1S/C6H8N2O/c7-1-5-6(8-5)4-2-9-3-4/h4-6,8H,2-3H2/t5-,6+/m1/s1
