21
gdb 96725	2.22721	1.24523	0.97605	1.7838	85.08	-0.2483	-0.0208	0.2275	1321.5603	0.180748	-420.440894	-420.430033	-420.429089	-420.478297	37.892	
C	-0.4546020166	 1.9402314488	 0.4028310349	-0.3237
N	-0.5530922146	 0.5185400723	 0.1268822954	-0.286526
C	 0.2055031266	-0.32858644	 0.70193532	 0.372889
N	-0.0688904879	-1.6556890704	 0.2792961952	-0.32584
C	 0.4336478338	-2.8942347194	 0.5708087338	 0.1651
O	 1.3245372594	-3.1849956466	 1.3382485065	-0.307855
C	 1.2918926665	-0.0378891659	 1.7231587775	-0.054909
C	 0.989924208	-0.6459984735	 3.1067627659	-0.411621
C	 2.7018306679	-0.3967750523	 1.2146018428	-0.411615
H	 0.5290827817	 2.3558641077	 0.1465418293	 0.125439
H	-1.199362005	 2.4626467669	-0.2033953868	 0.124746
H	-0.6562146614	 2.183969109	 1.4545063271	 0.125448
H	-0.8207095563	-1.6427345977	-0.3990969905	 0.252218
H	-0.1063067302	-3.6609977629	-0.0183892891	 0.092703
H	 1.2676199529	 1.048192529	 1.8442739822	 0.090479
H	-0.0057061052	-0.3553011112	 3.4573824432	 0.111043
H	 1.0558863938	-1.7339555148	 3.0845340471	 0.162076
H	 1.7214734602	-0.2732476822	 3.8310615032	 0.113402
H	 2.9018753134	 0.0680463208	 0.2437044616	 0.111046
H	 3.4465438066	-0.0221951501	 1.9243961878	 0.1134
H	 2.8282557563	-1.4759231175	 1.1254135329	 0.162078
18.7447	40.1027	134.6462	186.485	196.6608	223.6323	229.0597	247.7825	254.0292	262.9823	329.4283	371.5465	473.5808	566.1965	673.3991	695.5691	760.7357	844.4926	904.195	934.9206	975.9206	1007.3646	1024.0222	1096.0984	1100.0206	1130.4488	1147.7479	1185.2246	1205.2791	1311.7171	1343.9499	1377.4681	1393.0456	1419.0619	1438.6262	1454.3208	1482.5958	1486.1672	1499.8461	1508.6505	1511.0057	1515.0485	1527.0993	1719.8423	1807.8424	2942.5881	2997.956	3038.4623	3040.3299	3052.7569	3069.3957	3097.9501	3099.5451	3101.6149	3152.7192	3156.0921	3573.0318
CN=C(NC=O)C(C)C	CN=C(NC=O)C(C)C	
InChI=1S/C6H12N2O/c1-5(2)6(7-3)8-4-9/h4-5H,1-3H3,(H,7,8,9)	InChI=1S/C6H12N2O/c1-5(2)6(7-3)8-4-9/h4-5H,1-3H3,(H,7,8,9)
