17
gdb 48415	2.68585	1.21073	0.94168	2.6352	68.93	-0.2629	-0.0453	0.2176	1237.1065	0.133326	-458.921486	-458.912709	-458.911765	-458.955852	31.332	
O	-1.0330246031	 1.7212428555	-0.3397675759	-0.254568
C	-0.0286785057	 1.179207326	 0.044406104	 0.130526
C	 1.3494200987	 1.7608337262	-0.0742956635	 0.296574
C	 1.5486201783	 2.940991851	-0.9982796417	-0.329544
C	 1.4873214885	 2.5453058825	-2.459251799	 0.091433
C	 0.256657247	 2.6668964729	-3.2497441119	-0.170017
O	 1.3196042042	 3.6154952704	-3.3865169477	-0.239352
C	 2.2326363185	 1.5263131762	 1.0927761116	-0.221429
O	 2.3706198333	 0.7435114097	-0.0790098275	-0.261317
H	-0.0392763877	 0.1806967998	 0.534780399	 0.093598
H	 0.7739116069	 3.6863757073	-0.7945614873	 0.13222
H	 2.5207347603	 3.4012050726	-0.7922357026	 0.115573
H	 2.2229957569	 1.7995277726	-2.7625218285	 0.106282
H	 0.1003768449	 2.0168586714	-4.1092259537	 0.11597
H	-0.6462523733	 3.0358698104	-2.7686130222	 0.133241
H	 3.02298978	 2.2506841689	 1.2824906265	 0.133649
H	 1.8576583724	 0.9991745165	 1.9694913402	 0.127161
55.7481	86.7799	136.3952	151.7712	225.8455	305.1007	357.2421	379.4859	416.2435	483.8436	549.8251	784.6137	822.9701	851.2201	877.5616	883.8577	906.1497	951.4407	1007.2563	1042.8445	1079.8354	1119.6126	1137.2704	1155.1424	1163.0609	1182.7902	1210.9289	1287.4608	1313.3567	1322.1009	1362.0476	1429.106	1442.8711	1466.2864	1519.9637	1533.1891	1825.4248	2897.4085	3050.1097	3083.5398	3092.3517	3097.7324	3114.1663	3174.5351	3186.6853
O=CC1(CC2CO2)CO1	O=C[C@@]1(C[C@H]2CO2)CO1	
InChI=1S/C6H8O3/c7-3-6(4-9-6)1-5-2-8-5/h3,5H,1-2,4H2	InChI=1S/C6H8O3/c7-3-6(4-9-6)1-5-2-8-5/h3,5H,1-2,4H2/t5-,6-/m0/s1
