16
gdb 12229	2.59139	2.07828	1.9495	2.9081	60.67	-0.2609	-0.0455	0.2154	803.8644	0.130266	-420.871488	-420.864017	-420.863073	-420.903054	28.289	
O	-0.4218092032	 1.0238458285	 1.256264365	-0.450892
C	-0.0463066108	 0.0827159924	 0.2716626173	 0.089223
C	 0.4649000983	-1.268492247	 0.8258858375	-0.268644
C	-0.9604217832	-1.8847973744	 0.6886721878	-0.17428
C	-1.7810046044	-1.8362006694	 1.9413163174	 0.16508
O	-1.6648005312	-0.9873280743	 2.8017993067	-0.277626
C	-1.2985985456	-0.6581526739	-0.2887301436	 0.13769
O	-2.5051765022	 0.0143138344	-0.1643907603	-0.423154
H	-0.7190857167	 0.5267694804	 2.0394204908	 0.303228
H	 0.5816741075	 0.6108709178	-0.4490627184	 0.088965
H	 1.1773753099	-1.753000966	 0.1548874274	 0.115819
H	 0.8838612976	-1.2354332855	 1.8339112481	 0.122644
H	-1.0374168045	-2.8716628952	 0.2283390391	 0.083306
H	-2.557015106	-2.6205396224	 2.0487711188	 0.101834
H	-1.171234115	-0.9943832791	-1.3221391684	 0.094747
H	-2.3263020906	 0.7381140437	 0.4581978946	 0.292059
111.4858	168.7872	207.2048	261.2807	269.6442	408.7352	448.0952	496.0596	587.4585	654.8992	730.7862	732.5322	797.0948	837.2399	859.7544	919.7356	1006.2558	1017.1014	1055.9452	1095.8057	1117.8966	1168.6879	1177.5729	1243.0611	1246.9199	1265.3978	1308.1636	1338.5731	1376.4535	1425.9462	1438.9992	1468.5606	1478.1811	1782.4735	2931.5506	3062.0422	3071.3087	3089.7301	3095.8315	3131.9102	3615.0922	3679.7224
OC1CC(C=O)C1O	O[C@H]1C[C@@H](C=O)[C@H]1O	
InChI=1S/C5H8O3/c6-2-3-1-4(7)5(3)8/h2-5,7-8H,1H2	InChI=1S/C5H8O3/c6-2-3-1-4(7)5(3)8/h2-5,7-8H,1H2/t3-,4-,5+/m0/s1
