27
gdb 85937	2.33135	1.23812	1.0557	0.1398	94.95	-0.2943	0.0729	0.3672	1367.5235	0.251855	-353.589682	-353.579216	-353.578272	-353.624487	41.228	
C	-0.2706763381	 1.5626813751	-0.0075942175	-0.417081
C	 0.0029395347	 0.0620627867	 0.081514387	 0.042313
C	 0.7412267207	-0.5328201925	-1.1288425176	-0.247652
C	 1.2119516089	-1.9472955733	-0.6842451542	 0.354562
C	 0.218686508	-3.0183131261	-1.1683224855	-0.428368
C	 2.6084237079	-2.272276912	-1.2355377515	-0.440766
C	 1.2096157101	-1.8730143954	 0.8835098108	-0.266829
C	 0.8541541894	-0.4200208247	 1.2849092756	 0.020105
C	 2.1006385434	 0.4346545962	 1.5575601588	-0.398749
H	 0.6522143071	 2.1351181232	-0.1478392181	 0.114282
H	-0.9280334167	 1.7891999055	-0.8539807165	 0.10949
H	-0.7606502368	 1.9354507464	 0.8989793882	 0.108508
H	-0.9674415252	-0.449173546	 0.1628132049	 0.066267
H	 0.1145638182	-0.5694252371	-2.0265095489	 0.084598
H	 1.6057659093	 0.0952784636	-1.3779293476	 0.085643
H	 0.2152760227	-3.0894545946	-2.2620134692	 0.106085
H	 0.4782672491	-4.0058540037	-0.7699271521	 0.107436
H	-0.8030557223	-2.789953279	-0.8452445167	 0.107822
H	 3.3544663703	-1.5542643373	-0.8785108615	 0.10857
H	 2.9336999594	-3.2722648059	-0.926090989	 0.107044
H	 2.6175845026	-2.245585448	-2.3315320423	 0.10679
H	 0.4590831869	-2.563475273	 1.2831071786	 0.087751
H	 2.1715512561	-2.1855953909	 1.3034509287	 0.086531
H	 0.2462705035	-0.4153422932	 2.1975962541	 0.058682
H	 2.755200069	 0.5040349908	 0.6819351671	 0.115165
H	 1.8361501422	 1.4543177566	 1.854371954	 0.111939
H	 2.6898042297	-0.0028293014	 2.3703730004	 0.109861
43.0799	129.7568	229.0487	229.7605	247.0991	263.0469	278.1866	291.179	297.2073	332.0867	363.4751	417.6709	433.3462	494.9425	542.6126	622.7295	761.6107	782.9307	855.141	889.3881	903.8764	920.724	937.5004	950.2961	980.3662	1001.2368	1018.8251	1037.8118	1067.1898	1092.953	1108.3635	1132.8053	1182.4069	1212.6624	1226.7203	1245.5428	1280.5689	1292.8268	1315.5978	1337.0323	1347.7766	1382.6165	1387.3793	1400.6576	1410.9383	1415.591	1422.4574	1482.1624	1485.5926	1490.8592	1495.7765	1497.2175	1500.3485	1503.7823	1505.5239	1508.0728	1511.9529	2990.2826	3016.5987	3019.2368	3022.3467	3024.3996	3027.7727	3032.1504	3040.5343	3066.7511	3072.0231	3083.4831	3088.6851	3089.1521	3090.3146	3091.6459	3095.2581	3099.5445	3103.1016
CC1CC(C)(C)CC1C	C[C@H]1CC(C)(C)C[C@H]1C	
InChI=1S/C9H18/c1-7-5-9(3,4)6-8(7)2/h7-8H,5-6H2,1-4H3	InChI=1S/C9H18/c1-7-5-9(3,4)6-8(7)2/h7-8H,5-6H2,1-4H3/t7-,8+
