15
gdb 15757	6.38869	1.11605	1.02612	5.6463	65.23	-0.2494	-0.0302	0.2192	1123.0286	0.11854	-399.837701	-399.829771	-399.828826	-399.870938	27.734	
O	-0.4041615961	 0.0898966238	 0.2071995656	-0.25003
C	-0.0969327965	 1.2041683078	-0.1102421191	 0.16702
N	 1.1805084388	 1.7579049068	-0.0859102726	-0.368461
C	 2.3832303513	 1.1462674798	 0.3106171374	 0.458577
O	 2.4504941679	 0.0046823516	 0.6961306436	-0.325996
C	 3.5700178864	 2.0485585754	 0.2079746576	-0.146723
C	 4.6646286401	 1.8519330657	 1.2447807378	-0.245269
C	 4.8929607279	 1.3926858691	-0.1545395328	-0.245314
H	-0.8259223272	 1.9572891399	-0.4763564968	 0.082643
H	 1.2394345943	 2.7179651603	-0.3917191105	 0.254818
H	 3.4013579331	 3.058470341	-0.1509594511	 0.082084
H	 5.1737411913	 2.7412153418	 1.5974297127	 0.120779
H	 4.467315068	 1.0932051503	 1.9927264979	 0.147546
H	 4.8478339152	 0.3266156362	-0.3429460977	 0.147539
H	 5.5640132856	 1.9565721405	-0.7918382021	 0.120788
52.8335	74.6355	159.6366	214.3409	276.041	284.6441	348.0483	565.0319	607.5387	735.1682	756.125	800.3563	829.3563	913.9065	917.9988	935.0942	1029.0618	1066.115	1092.2019	1099.4772	1117.2291	1119.4355	1167.3459	1209.7702	1232.908	1405.8917	1447.9201	1453.1411	1486.7454	1503.8444	1800.425	1869.2098	2913.2217	3145.2363	3146.4062	3159.4814	3233.9556	3247.8331	3615.4875
O=CNC(=O)C1CC1	O=CNC(=O)C1CC1	
InChI=1S/C5H7NO2/c7-3-6-5(8)4-1-2-4/h3-4H,1-2H2,(H,6,7,8)	InChI=1S/C5H7NO2/c7-3-6-5(8)4-1-2-4/h3-4H,1-2H2,(H,6,7,8)
