19
gdb 11992	2.59787	2.13527	1.74691	0.5985	70.82	-0.2281	0.0761	0.3042	876.9725	0.164389	-365.019658	-365.011396	-365.010451	-365.051443	32.325	
C	-0.435570465	 1.5355964435	 0.3448589604	-0.418058
C	-0.1252998526	 0.0499498231	 0.2327516719	-0.031674
C	 0.2849139947	-0.5009996578	-1.1409289325	-0.059019
N	 1.5860166295	 0.1320470574	-1.474386291	-0.345858
C	 1.5466953465	-1.0643315077	-0.600748178	-0.079389
C	 1.2313980018	-0.559943054	 0.8138955774	 0.407849
C	 2.23180144	 0.3778147366	 1.4677902661	-0.458582
O	 0.9842496379	-1.7042366003	 1.6180796319	-0.485999
H	 0.3361031075	 2.1321446655	-0.1479172362	 0.136479
H	-1.3959859991	 1.7667106074	-0.1297116847	 0.109848
H	-0.5028527345	 1.8546311448	 1.3909858127	 0.106035
H	-0.934539801	-0.5579206156	 0.6485547164	 0.074214
H	-0.3614233886	-0.8761713944	-1.925455898	 0.087512
H	 1.8490240318	-0.1865130233	-2.4061267537	 0.229537
H	 2.0781938968	-1.9747423203	-0.8494193767	 0.09248
H	 2.5076086642	 1.1844866521	 0.7857377199	 0.142365
H	 1.8136844185	 0.825911322	 2.3780885882	 0.101102
H	 3.1339776648	-0.1763765165	 1.74575115	 0.117372
H	 0.6990050366	-1.3973724023	 2.4855294059	 0.273786
145.9288	215.1773	226.9972	251.4603	258.1501	278.3651	312.861	374.987	439.2975	525.3089	563.7173	633.0024	731.1272	822.0105	846.5899	860.7161	882.3276	934.9834	960.6431	1014.805	1019.5026	1071.451	1086.6831	1098.5171	1119.0364	1133.1302	1192.4524	1202.0443	1223.9978	1282.5592	1303.3845	1360.6878	1373.9679	1398.0553	1406.4694	1409.9208	1481.8325	1495.1818	1498.1955	1509.8402	3025.1294	3030.2381	3064.1822	3086.3127	3092.0514	3121.7388	3135.6746	3178.4218	3195.9059	3479.1557	3804.218
CC1C2NC2C1(C)O	C[C@H]1[C@H]2N[C@H]2[C@]1(C)O	
InChI=1S/C6H11NO/c1-3-4-5(7-4)6(3,2)8/h3-5,7-8H,1-2H3	InChI=1S/C6H11NO/c1-3-4-5(7-4)6(3,2)8/h3-5,7-8H,1-2H3/t3-,4+,5+,6+/m0/s1
