14
gdb 20455	6.27816	1.41069	1.255	2.2809	63.53	-0.2556	-0.0079	0.2477	934.7158	0.109153	-378.685005	-378.678558	-378.677614	-378.716182	23.84	
C	 1.0394333922	 1.0378528847	 0.046019327	-0.232305
N	 0.3057671661	 0.1300116017	-0.8400747437	-0.311984
C	-0.3483100595	 0.6108090948	 0.3904622643	-0.133527
C	-0.6144450464	-0.4064865585	 1.4272181691	 0.438038
N	-1.5254644247	-0.1841531706	 2.3472392915	-0.217578
O	-1.5202311134	-1.3116432931	 3.1633060847	-0.16553
C	-0.6056036406	-2.1759909065	 2.6990038181	 0.083094
C	 0.0110202602	-1.6767251825	 1.6008815211	-0.34105
H	 1.8811589305	 0.5890062471	 0.565453753	 0.126518
H	 1.1859856575	 2.0724904282	-0.2527215841	 0.122483
H	-0.057409903	 0.6309200607	-1.6460524313	 0.241494
H	-1.1238031028	 1.3669422298	 0.3086951917	 0.10544
H	-0.5128478391	-3.0999741173	 3.2487051159	 0.15044
H	 0.769121663	-2.1279257086	 0.9845592929	 0.134465
69.155	171.1006	185.826	401.5398	441.6815	612.7456	646.7887	722.6655	806.5927	860.3681	874.2327	892.8989	912.2541	918.0177	950.2545	973.6798	1005.7313	1061.3525	1102.531	1119.4237	1156.0657	1177.3003	1235.7899	1286.2314	1301.9063	1402.1759	1454.1105	1503.4668	1514.5506	1612.7649	3110.3382	3155.7758	3198.9005	3262.9437	3296.7121	3514.5387
C1NC1C1=NOC=C1	C1N[C@H]1c1nocc1	
InChI=1S/C5H6N2O/c1-2-8-7-4(1)5-3-6-5/h1-2,5-6H,3H2	InChI=1S/C5H6N2O/c1-2-8-7-4(1)5-3-6-5/h1-2,5-6H,3H2/t5-/m1/s1
