15
gdb 30906	2.43972	1.32035	0.89517	1.7748	65.06	-0.1903	0.0392	0.2296	1226.7387	0.1132	-491.119824	-491.111163	-491.110219	-491.153391	31.894	
O	 0.2275144166	 1.2985182999	 0.3862195333	-0.421416
C	-0.0353384735	 0.1590866804	-0.4406557086	-0.194515
C	-1.3500623227	-0.4692193482	-0.1696484567	 0.163892
C	-1.7385118103	-1.7271994674	 0.204430019	 0.268049
O	-0.932379397	-2.789996781	 0.4222376046	-0.437359
N	-3.1033494687	-1.8368961718	 0.3370371431	-0.448095
C	-3.5485066776	-0.6347413921	 0.049637217	 0.446494
O	-4.8299124196	-0.2376923184	 0.0623701895	-0.420664
N	-2.5705917901	 0.2298431434	-0.2755018121	-0.356998
H	 0.1517323065	 1.0018319324	 1.2999145983	 0.278032
H	 0.0286220878	 0.5496897053	-1.4640662103	 0.111626
H	 0.7400599902	-0.6122791298	-0.3380149996	 0.116426
H	-1.5083545732	-3.5240607923	 0.6655008592	 0.301186
H	-5.3522413129	-1.0052060294	 0.3265237323	 0.315771
H	-2.6746684955	 1.216332419	-0.4420934292	 0.277573
62.9855	118.119	224.9205	247.4016	290.8812	328.5063	336.4671	385.1526	399.5909	419.5163	487.3093	564.7232	648.2376	654.5513	711.8363	736.4091	839.9451	958.4662	1018.045	1068.4973	1130.4316	1185.7103	1187.6381	1249.6676	1281.4051	1357.388	1368.5175	1417.1256	1449.6533	1498.0851	1570.7988	1626.0294	1705.5354	3012.0778	3048.6056	3674.66	3800.4015	3809.7587	3813.8316
OCC1=C(O)N=C(O)N1	OCc1c(O)nc(O)[nH]1	
InChI=1S/C4H6N2O3/c7-1-2-3(8)6-4(9)5-2/h7-8H,1H2,(H2,5,6,9)	InChI=1S/C4H6N2O3/c7-1-2-3(8)6-4(9)5-2/h7-8H,1H2,(H2,5,6,9)
