15
gdb 46159	4.74497	1.05456	0.89134	1.9868	67.99	-0.2451	-0.038	0.2071	1226.6526	0.110562	-457.724763	-457.716584	-457.71564	-457.757954	30.036	
O	 0.0079526838	 0.0367928881	 0.4625311461	-0.285377
C	-0.0134147721	 1.1683915871	 0.0470993891	 0.349817
C	-1.3197192144	 1.9305648431	-0.1620223488	-0.187621
O	-1.2157629201	 3.0023477887	-1.0861609468	-0.238042
C	-0.0620733435	 3.7793028244	-0.8638044273	 0.023237
O	 1.1063932119	 3.0346807758	-1.1174004157	-0.238038
C	 1.2650011902	 1.9667100157	-0.196599929	-0.187632
C	-0.0901326858	 4.9320554007	-1.7571542012	 0.2848
C	-0.1130223505	 5.9063917513	-2.4556601626	-0.370608
H	-2.0861084632	 1.2456732236	-0.5298759567	 0.15229
H	-1.6416087332	 2.2974526091	 0.829346829	 0.127531
H	-0.0526131012	 4.1207354605	 0.1912294084	 0.08479
H	 1.6028230706	 2.3430075882	 0.7859000722	 0.127528
H	 2.0401908371	 1.3033833848	-0.5849522087	 0.152286
H	-0.1333848897	 6.7617614789	-3.085543028	 0.205037
57.5043	141.501	161.7402	179.4062	322.4128	401.8077	414.7897	435.2296	472.0399	551.0565	620.3344	661.7057	676.4276	681.1144	806.5574	812.789	963.7803	990.2515	1048.153	1073.6201	1094.9605	1161.7572	1215.267	1243.9847	1269.1923	1345.0046	1369.2932	1381.0213	1411.5642	1457.34	1461.0072	1835.8642	2262.2764	2897.2122	2952.7862	2957.9042	3119.3591	3120.3161	3502.7765
O=C1COC(OC1)C#C	O=C1COC(OC1)C#C	
InChI=1S/C6H6O3/c1-2-6-8-3-5(7)4-9-6/h1,6H,3-4H2	InChI=1S/C6H6O3/c1-2-6-8-3-5(7)4-9-6/h1,6H,3-4H2
