17
gdb 49382	5.04839	1.04499	1.03588	4.2237	73.55	-0.248	-0.0214	0.2266	1171.2315	0.136874	-421.784872	-421.777943	-421.776999	-421.81645	27.47	
O	-0.0470699787	 0.052793916	-0.2804319874	-0.266649
C	 0.0719456947	 1.1924947692	 0.0943156585	 0.153964
C	 1.3390602447	 1.9613772512	 0.0659446746	-0.12336
C	 1.2177039235	 3.4584002501	-0.1906784102	-0.079399
C	 1.5450588464	 2.9696326417	 1.1896589668	-0.079383
C	 2.9744377198	 3.5570709701	 1.3025608602	 0.045225
C	 2.7670939716	 5.0166277514	 0.8091505026	-0.217743
C	 2.5491825179	 4.1920122915	-0.4905649011	 0.04522
O	 3.5559726906	 3.2596838131	-0.0000616507	-0.278185
H	-0.802660867	 1.7559706897	 0.500967701	 0.062631
H	 2.19781161	 1.4314378249	-0.3253099445	 0.129912
H	 0.2684665308	 3.8976954817	-0.4717690831	 0.102789
H	 0.8614912285	 3.0123178493	 2.0286778544	 0.102795
H	 3.6017790373	 3.2781784553	 2.1478091549	 0.09307
H	 1.9349503777	 5.5991259166	 1.2127616761	 0.100116
H	 3.6970623228	 5.5868073238	 0.7905008795	 0.115929
H	 2.7378756095	 4.5680621746	-1.4949378016	 0.093069
97.9012	154.6009	255.7597	368.7373	377.4104	415.098	561.2179	643.2125	708.2665	802.2443	814.9383	854.8064	860.8217	889.8632	931.6504	936.2185	936.9042	967.9066	1019.002	1048.7712	1075.7084	1092.4142	1095.8059	1101.3289	1128.5682	1176.3755	1187.6334	1206.4478	1224.182	1253.9399	1271.4566	1282.6863	1309.2358	1374.7724	1440.8463	1485.2272	1823.707	2835.3359	3067.0448	3135.5528	3136.7391	3145.6177	3184.9538	3193.2097	3206.6761
O=CC1C2C1C1CC2O1	O=C[C@H]1[C@H]2[C@@H]1[C@@H]1C[C@H]2O1	
InChI=1S/C7H8O2/c8-2-3-6-4-1-5(9-4)7(3)6/h2-7H,1H2	InChI=1S/C7H8O2/c8-2-3-6-4-1-5(9-4)7(3)6/h2-7H,1H2/t3-,4+,5-,6+,7-
