17
gdb 48130	3.0621	1.23768	1.01718	1.2244	74.65	-0.2378	-0.0945	0.1433	1182.1864	0.135231	-421.856245	-421.847767	-421.846823	-421.890444	30.31	
O	-0.7092886779	 1.2847531335	-0.3573483235	-0.220273
C	 0.439179518	 0.9731170808	-0.5336229554	 0.09063
C	 1.6314069626	 1.9027785936	-0.2544515296	 0.291037
O	 2.7399423443	 1.4618636285	-0.451308597	-0.281502
C	 1.3146394398	 3.3076232488	 0.2349625861	-0.144059
C	 2.5748797462	 4.1191574207	 0.6219487963	-0.236099
C	 2.8509016264	 5.0709388622	-0.5730930553	-0.251729
C	 1.5588628619	 5.0433933302	-1.3511031192	-0.042573
C	 0.7170287233	 4.1076557708	-0.9177551627	-0.095483
H	 0.7538647812	-0.0256952985	-0.9040270999	 0.109228
H	 0.5921926783	 3.2069047586	 1.0540001279	 0.107007
H	 2.3616984287	 4.7017377346	 1.5217668415	 0.105853
H	 3.4204526435	 3.4636800218	 0.8359306254	 0.12265
H	 3.1181145335	 6.0811180622	-0.2432405991	 0.108083
H	 3.6855785323	 4.7207860765	-1.194540587	 0.120123
H	 1.3600455299	 5.7161623294	-2.1784434019	 0.100356
H	-0.2614446218	 3.8815288263	-1.3217375066	 0.116751
57.0793	69.1614	125.5703	161.0601	209.4802	290.2481	405.5456	500.1901	542.695	625.517	670.3274	744.8243	783.0329	790.8518	858.3019	917.4367	930.2855	976.0093	981.0408	1024.913	1054.2942	1064.3305	1127.2038	1159.3101	1181.1589	1215.1939	1264.04	1302.4033	1315.3546	1350.6876	1363.3051	1370.4539	1475.6419	1495.3634	1681.491	1799.1043	1821.9264	2921.2856	3024.2047	3035.9218	3055.7717	3074.5638	3126.9641	3189.7764	3226.165
O=CC(=O)C1CCC=C1	O=CC(=O)[C@H]1CCC=C1	
InChI=1S/C7H8O2/c8-5-7(9)6-3-1-2-4-6/h1,3,5-6H,2,4H2	InChI=1S/C7H8O2/c8-5-7(9)6-3-1-2-4-6/h1,3,5-6H,2,4H2/t6-/m1/s1
