22
gdb 6157	3.99296	1.21136	1.18738	1.4723	78.6	-0.2381	0.0834	0.3215	1183.8171	0.198268	-350.212377	-350.202937	-350.201993	-350.246389	35.222	
C	 0.1073551908	 1.3927419962	 0.4322098709	-0.379611
C	 0.0304057548	-0.09569276	 0.0812485995	-0.189359
C	-1.3852379694	-0.5402996169	-0.2472248668	 0.175814
C	-1.677646494	-2.0510539677	-0.3367788463	-0.365095
C	-2.7005435945	-1.791871205	 0.8005625116	 0.446621
C	-4.1639127424	-1.8914228238	 0.3848786266	-0.424894
C	-2.432093455	-2.5018225896	 2.1201401957	-0.427341
O	-2.2890190655	-0.3928223457	 0.8757199113	-0.342524
H	 1.1253898965	 1.685648181	 0.7056742073	 0.108903
H	-0.204706494	 2.015567407	-0.4136261437	 0.111338
H	-0.5526852477	 1.6171322055	 1.2749017322	 0.136756
H	 0.6719962072	-0.3205546493	-0.7816874436	 0.091983
H	 0.402573435	-0.6976452552	 0.9196511199	 0.094255
H	-1.7585927045	 0.0301779713	-1.1112534467	 0.065068
H	-2.096259075	-2.4074623147	-1.2797931248	 0.101026
H	-0.837079619	-2.6892615339	-0.0527657035	 0.100217
H	-4.4617448246	-2.9373980077	 0.251813751	 0.111205
H	-4.807086672	-1.446124543	 1.1508051097	 0.121274
H	-4.3381180741	-1.3608590836	-0.5557142713	 0.115301
H	-1.3819809656	-2.4019088281	 2.4080606442	 0.115376
H	-3.0465688715	-2.069628364	 2.9168911695	 0.121599
H	-2.6716563955	-3.5682866029	 2.0437008674	 0.112086
50.4367	107.139	166.3472	202.3981	229.4997	248.3405	311.8987	330.1479	374.2582	383.7734	452.8604	492.0224	636.0487	763.5144	797.7053	872.1659	896.4752	907.1582	945.9375	962.2447	975.1963	996.6848	1015.2033	1038.0313	1091.6271	1109.7108	1178.3629	1199.744	1237.3805	1279.3745	1280.2795	1289.3862	1314.2983	1349.5223	1398.9202	1405.8533	1411.4347	1413.4726	1472.3747	1476.0632	1480.9123	1490.5356	1495.1799	1497.2004	1505.1763	1509.4536	2981.3433	3015.9562	3028.6322	3034.2664	3035.3114	3055.7232	3066.4185	3098.2787	3101.3	3105.599	3110.1928	3114.1424	3118.5801	3122.1654
CCC1CC(C)(C)O1	CC[C@H]1CC(C)(C)O1	
InChI=1S/C7H14O/c1-4-6-5-7(2,3)8-6/h6H,4-5H2,1-3H3	InChI=1S/C7H14O/c1-4-6-5-7(2,3)8-6/h6H,4-5H2,1-3H3/t6-/m0/s1
