17
gdb 99585	2.03087	1.23812	1.12593	5.9896	70.6	-0.2544	0.0123	0.2666	1205.3697	0.133815	-455.162072	-455.151847	-455.150902	-455.19799	34.486	
C	-0.3607048393	-0.5488204998	 1.149256208	-0.355181
N	 0.176157194	 0.1130813613	-0.0294024851	-0.047844
C	 0.4862755771	 1.4523954324	 0.0189942661	 0.161861
O	 0.3791266238	 2.1406851507	 1.0093427558	-0.338908
C	 0.1781955002	-0.6286634726	-1.2819745803	-0.153883
C	-1.0935943	-0.4054395529	-2.1239825615	-0.073347
O	-1.1171439276	 0.9512448694	-2.4989739534	-0.400621
C	 1.3841089353	-0.3581853217	-2.0856009281	 0.303264
N	 2.3286366365	-0.193212964	-2.7291515033	-0.316345
H	-1.4083443436	-0.843069524	 1.0093809637	 0.124749
H	 0.2256051776	-1.4422232133	 1.3921014476	 0.131644
H	-0.3023193243	 0.1618030691	 1.9732269661	 0.179336
H	 0.8619758265	 1.8292325619	-0.9452775783	 0.119412
H	 0.2135178842	-1.6942398678	-1.0253029934	 0.140154
H	-1.0641714475	-1.0787882738	-2.9936406998	 0.11448
H	-1.9601825886	-0.6809713379	-1.5047960964	 0.107121
H	-1.9439894641	 1.1412359031	-2.9511864076	 0.304107
58.2281	84.4382	108.9661	145.2619	156.5654	168.0407	214.1914	300.9941	319.2947	338.71	373.1893	429.612	507.5102	640.4364	756.316	844.2496	884.4677	971.0646	1023.5918	1053.0407	1114.6107	1116.7295	1157.7685	1207.2494	1237.3017	1254.5762	1311.9926	1331.107	1420.5811	1445.8717	1448.8161	1452.3768	1498.8734	1512.243	1516.2466	1797.2213	2364.9652	2985.2444	3016.3738	3020.6393	3024.2026	3048.2967	3072.9426	3161.7137	3842.0989
CN(C=O)C(CO)C#N	CN(C=O)[C@@H](CO)C#N	
InChI=1S/C5H8N2O2/c1-7(4-9)5(2-6)3-8/h4-5,8H,3H2,1H3	InChI=1S/C5H8N2O2/c1-7(4-9)5(2-6)3-8/h4-5,8H,3H2,1H3/t5-/m1/s1
