18
gdb 100382	2.0767	1.18222	1.06885	3.7677	73.19	-0.258	-0.0293	0.2287	1259.1701	0.143318	-439.095071	-439.084667	-439.083723	-439.130822	36.02	
C	-0.1181382613	 1.2626697676	 0.1733786728	-0.260958
O	-0.0058713728	-0.1305366248	-0.080585962	-0.256381
C	 0.701875045	-0.5245064874	-1.2445244964	 0.18782
C	 2.1820905671	-0.1044199958	-1.2197257352	-0.428486
C	 0.5656461305	-2.0580735794	-1.2734552091	-0.303008
C	-0.8786545695	-2.5239763796	-1.1778835945	 0.166112
O	-1.2216956642	-3.4904335887	-0.5513228548	-0.240242
C	 0.0573723404	 0.057133354	-2.4549125338	 0.267088
N	-0.4361672407	 0.5261916268	-3.388955557	-0.340915
H	 0.8492006077	 1.7148549367	 0.4242160801	 0.120442
H	-0.5551206783	 1.7956677937	-0.6806471925	 0.138582
H	-0.7845845416	 1.3579318366	 1.0322698897	 0.14585
H	 2.6394994645	-0.4761768	-0.2990529772	 0.139874
H	 2.711050049	-0.5282808372	-2.076905398	 0.142046
H	 2.2926806297	 0.9811048451	-1.2605879025	 0.141419
H	 0.9893871594	-2.4430004293	-2.209479981	 0.141781
H	 1.1263801783	-2.4875964981	-0.4398837013	 0.138667
H	-1.6074237631	-1.9207261002	-1.7612233475	 0.100306
65.8259	97.2372	108.1434	143.3972	172.654	193.1406	212.9928	258.8252	291.9985	359.7448	402.9696	441.9833	476.8658	596.3552	633.0616	703.5599	770.1186	868.2506	950.9674	1008.8305	1029.6042	1101.6932	1125.0659	1155.3289	1183.5321	1204.0343	1233.6436	1269.624	1313.9053	1402.4402	1433.6284	1441.1892	1475.9144	1482.7571	1489.0448	1503.0482	1508.9036	1840.9233	2346.9288	2904.0905	3011.1928	3044.1614	3053.5296	3073.9072	3117.2758	3133.4938	3135.3441	3138.3005
COC(C)(CC=O)C#N	CO[C@@](C)(CC=O)C#N	
InChI=1S/C6H9NO2/c1-6(5-7,9-2)3-4-8/h4H,3H2,1-2H3	InChI=1S/C6H9NO2/c1-6(5-7,9-2)3-4-8/h4H,3H2,1-2H3/t6-/m0/s1
