20
gdb 92658	3.00745	1.48103	1.14299	2.3241	75.8	-0.2148	0.0859	0.3006	1118.5685	0.172406	-440.254372	-440.246421	-440.245477	-440.286772	30.716	
C	-0.0495473198	 1.5326376338	 0.0191583776	-0.325972
N	-0.0141360198	 0.0909306895	 0.0863297668	-0.062758
C	-1.2470649755	-0.638099516	 0.4402125111	-0.18308
C	-0.3923404608	-1.6413145922	 1.2376567511	 0.088299
O	-0.09293744	-2.7787396146	 0.4482466203	-0.254196
C	 1.2547308815	-3.1667080716	 0.535153362	 0.017882
O	 2.1302112238	-2.1829239404	 0.064365215	-0.223482
C	 2.1277468874	-1.046573223	 0.9152979137	-0.108497
C	 0.7165128256	-0.549372108	 1.1947504202	 0.0049
H	 0.9572739423	 1.9233881887	-0.1637596246	 0.120593
H	-0.684193686	 1.8505613443	-0.8146866393	 0.124538
H	-0.4374949208	 2.0044728769	 0.9437357344	 0.08656
H	-1.9236210452	-0.065287779	 1.0960381838	 0.081521
H	-1.8088316973	-1.0469001096	-0.4049212957	 0.114206
H	-0.7536213707	-1.9452005119	 2.2263860102	 0.073925
H	 1.511422329	-3.4330149059	 1.57957998	 0.069166
H	 1.3684209972	-4.0381853184	-0.1121431811	 0.118759
H	 2.6188298208	-1.2962193397	 1.8717960477	 0.086874
H	 2.7235187735	-0.2767657802	 0.4157122142	 0.114919
H	 0.7081882748	 0.0575351872	 2.1173103627	 0.055842
107.8564	149.7277	213.3566	229.142	295.4496	353.6726	372.2663	418.4029	471.5538	574.1253	691.9734	760.6036	818.34	845.7908	883.6898	952.1101	970.8469	1002.923	1028.3588	1055.0605	1066.7081	1102.7686	1134.5428	1158.0707	1181.9984	1203.4077	1212.4931	1241.3148	1265.0281	1277.326	1296.9741	1322.1017	1341.4357	1366.5609	1372.0141	1402.578	1445.5251	1452.5846	1480.1976	1484.44	1497.2362	1505.0513	1509.0255	2908.4989	2910.8803	2938.4682	2963.4711	2968.6553	3041.2446	3055.4837	3079.3918	3083.5564	3097.5022	3115.607
CN1CC2OCOCC12	CN1C[C@H]2OCOC[C@@H]12	
InChI=1S/C6H11NO2/c1-7-2-6-5(7)3-8-4-9-6/h5-6H,2-4H2,1H3	InChI=1S/C6H11NO2/c1-7-2-6-5(7)3-8-4-9-6/h5-6H,2-4H2,1H3/t5-,6-/m1/s1
