17
gdb 31348	3.42843	1.13625	0.91013	7.9187	78.25	-0.2266	-0.0211	0.2055	1276.1375	0.13772	-418.074912	-418.066644	-418.0657	-418.10842	30.479	
C	-0.2041659097	 1.5557069917	-0.0310636388	-0.375968
C	 0.0625364585	 0.0411062225	 0.0362636161	-0.29631
C	 0.7915022909	-0.4885157501	-1.1672048486	 0.384501
C	 2.0682223159	-0.9286309307	-1.1841469486	-0.307275
C	 2.7072715923	-1.4070779043	-2.4159415739	 0.383717
O	 3.8550361767	-1.8022725841	-2.4553284729	-0.363538
N	 1.9031976388	-1.3867210639	-3.5888191519	-0.306013
C	 0.6975055221	-0.9595178317	-3.5033395131	 0.092519
N	 0.0947183623	-0.5057527466	-2.3617294217	-0.351674
H	 0.7349797622	 2.1113207645	-0.1023062472	 0.140276
H	-0.8162633937	 1.8247351925	-0.8983002875	 0.114509
H	-0.7346828917	 1.8895681395	 0.8647750405	 0.130436
H	 0.6582000198	-0.1911514687	 0.9225998136	 0.133005
H	-0.8891366344	-0.4961409141	 0.1476494703	 0.116068
H	 2.6590350963	-0.9378610067	-0.27643338	 0.111354
H	 0.0614714726	-0.9371029602	-4.388304658	 0.130532
H	-0.865004099	-0.2001235398	-2.3921603783	 0.263861
53.7271	127.4797	132.7883	202.1154	293.3239	329.5044	432.3671	482.1616	511.8933	547.1618	585.001	673.22	769.0851	784.9245	790.9249	867.7883	895.4495	967.09	976.9289	1001.421	1074.833	1091.5205	1131.4717	1186.5866	1222.1821	1275.037	1352.3486	1369.2202	1414.9714	1425.256	1478.4084	1496.7652	1503.7965	1505.873	1646.2077	1702.9292	1777.3377	3021.6861	3040.9357	3093.2368	3113.8426	3124.8736	3131.7358	3210.1842	3636.3641
CCC1=CC(=O)N=CN1	CCc1cc(=O)nc[nH]1	
InChI=1S/C6H8N2O/c1-2-5-3-6(9)8-4-7-5/h3-4H,2H2,1H3,(H,7,8,9)	InChI=1S/C6H8N2O/c1-2-5-3-6(9)8-4-7-5/h3-4H,2H2,1H3,(H,7,8,9)
