20
gdb 91453	2.43105	1.73026	1.34729	3.1917	79.2	-0.2088	-0.0047	0.2041	1043.651	0.170745	-403.136868	-403.12834	-403.127396	-403.169473	33.167	
C	-0.1266963862	 1.4451965664	 0.0204220353	-0.332603
N	 0.091243921	 0.009892492	 0.0538364184	-0.093439
C	 0.9670916699	-0.5017790709	-1.0429404286	-0.176984
C	 1.9679668044	-1.3572433673	-0.2387134179	-0.168788
C	 2.3049664944	-0.3725438166	 0.9343647456	-0.297268
C	 0.7694714911	-0.5199519636	 1.2647128161	 0.208968
C	 0.1414824788	-0.1951267617	 2.5911050861	-0.509551
C	 1.00952725	-1.974846664	 0.793261484	 0.436928
O	 0.7397574795	-3.0656243014	 1.1967372346	-0.328435
H	 0.7927040839	 2.0518976036	 0.1211084459	 0.090922
H	-0.5936246449	 1.7081121243	-0.9341386612	 0.124991
H	-0.8173925945	 1.7394509127	 0.8158235147	 0.125503
H	 0.3953628573	-1.0836464699	-1.7740940353	 0.115088
H	 1.4772306685	 0.3140139716	-1.5723143698	 0.097724
H	 2.7151498297	-1.9304884899	-0.7825435451	 0.088211
H	 2.9610596676	-0.8036353709	 1.6929870831	 0.117442
H	 2.6479664506	 0.6226444151	 0.6428967415	 0.108807
H	 0.2539960444	 0.8616383374	 2.8524656825	 0.122295
H	-0.926774825	-0.4316261519	 2.5686617001	 0.138874
H	 0.6055508997	-0.790843365	 3.3821543699	 0.131317
117.6797	172.7575	194.3908	214.0363	243.3143	286.3001	331.8886	411.2602	444.6277	523.7287	564.6511	664.7109	677.78	774.6058	798.0601	815.5972	859.7068	920.7396	947.1434	980.6168	999.1882	1028.9168	1075.4825	1096.525	1110.0894	1151.6464	1166.4918	1179.1701	1206.6836	1230.9196	1252.7462	1260.6283	1346.4124	1351.7864	1415.8271	1453.5038	1479.5655	1484.8338	1490.3257	1497.2569	1503.4691	1523.4721	1905.4617	2929.2306	3008.3842	3040.7442	3059.4656	3065.7484	3069.8087	3105.8806	3110.3644	3117.8572	3135.2844	3151.6011
CN1CC2CC1(C)C2=O	CN1C[C@H]2C[C@]1(C)C2=O	
InChI=1S/C7H11NO/c1-7-3-5(6(7)9)4-8(7)2/h5H,3-4H2,1-2H3	InChI=1S/C7H11NO/c1-7-3-5(6(7)9)4-8(7)2/h5H,3-4H2,1-2H3/t5-,7-/m1/s1
