18
gdb 55179	3.31425	1.32172	1.10204	3.8429	71.45	-0.2321	0.0328	0.2649	1111.6118	0.149058	-439.083664	-439.075622	-439.074678	-439.117525	30.445	
N	 0.957979519	-0.232554837	-0.6485697637	-0.532554
C	 0.049912994	-0.077106476	 0.3497321779	 0.3744
O	 0.0784982653	 0.8410222804	 1.1493280374	-0.377743
C	-1.0670440123	-1.11635162	 0.3899258067	-0.084413
C	-2.3524119013	-0.8407755108	-0.4690634832	-0.256672
C	-2.333575549	-2.3138473428	-0.9687391123	-0.079739
C	-1.5446358815	-2.5212996569	-2.2677140005	-0.081228
O	-0.2838059014	-2.5628095179	-1.5443510858	-0.298877
C	-0.9648189226	-2.5195195308	-0.2606681577	 0.079403
H	 1.6977997898	 0.4457712977	-0.7246617353	 0.252133
H	 0.890300889	-1.0118165019	-1.2885910899	 0.271726
H	-1.3422749487	-1.2270307241	 1.4412554298	 0.106113
H	-3.2260131648	-0.5587120219	 0.1197062511	 0.119532
H	-2.2188372138	-0.1024787535	-1.2642826225	 0.112504
H	-3.2150732468	-2.9274625692	-0.7935180083	 0.086654
H	-1.726938428	-3.4762096188	-2.775019958	 0.111156
H	-1.5759436794	-1.707611778	-3.0018224019	 0.110476
H	-0.6790459576	-3.3658527385	 0.3685587961	 0.08713
22.3649	91.6549	204.8662	267.0421	331.7556	363.5056	396.2502	434.7712	591.8849	669.2019	700.2666	756.7576	768.1531	787.9213	841.2052	897.3253	919.5743	952.0646	988.4775	1007.0445	1022.942	1060.4522	1075.0597	1128.9967	1149.4101	1166.8812	1188.5687	1222.9728	1257.4395	1272.9637	1299.3673	1311.6291	1319.5211	1354.7333	1379.7603	1484.4666	1520.3329	1612.3935	1789.5824	3019.5194	3066.3466	3069.2732	3077.9647	3091.36	3124.0242	3135.9856	3532.5697	3702.4331
NC(=O)C1CC2COC12	NC(=O)[C@H]1C[C@H]2CO[C@@H]12	
InChI=1S/C6H9NO2/c7-6(8)4-1-3-2-9-5(3)4/h3-5H,1-2H2,(H2,7,8)	InChI=1S/C6H9NO2/c7-6(8)4-1-3-2-9-5(3)4/h3-5H,1-2H2,(H2,7,8)/t3-,4-,5+/m0/s1
