13
gdb 129518	5.29047	1.0041	0.84455	4.6936	61.93	-0.2399	-0.0377	0.2023	1241.8953	0.089873	-486.07782	-486.070049	-486.069105	-486.110716	28.24	
N	-0.1530648254	 1.3970527254	 0.1198077067	-0.573803
C	 0.0894270569	 0.0409002106	 0.0359603253	 0.47027
O	 1.2031926564	-0.4458523737	 0.0248111066	-0.377856
N	-1.05861753	-0.732599573	 0.0060407103	-0.463171
C	-1.0244373925	-2.1161078173	-0.01760658	 0.361886
C	-0.0085979015	-3.0199719578	-0.0704654923	-0.029946
O	-0.5665577673	-4.240583656	-0.0817903364	-0.15551
N	-1.9539891859	-4.0691049467	-0.0308986409	-0.001593
N	-2.1982359134	-2.8261526781	 0.0045629692	-0.221982
H	 0.6680036321	 1.9581422358	-0.0455905855	 0.272051
H	-1.005622066	 1.7701575944	-0.2679104949	 0.257144
H	-1.9678146404	-0.3229485893	 0.1519713594	 0.26727
H	 1.0606628471	-2.9361389043	-0.0995984774	 0.195238
73.9116	93.1817	162.993	333.9303	354.6912	365.9917	391.345	461.3882	515.7756	626.1978	643.3839	718.1637	751.8357	766.429	811.1017	824.1929	983.9342	1018.6419	1067.0975	1099.3918	1123.5985	1253.872	1294.3048	1366.5766	1424.7272	1557.0521	1630.1306	1663.9246	1805.8436	3340.4976	3585.5567	3638.1929	3701.9088
NC(=O)NC1=CON=N1	NC(=O)Nc1conn1	
InChI=1S/C3H4N4O2/c4-3(8)5-2-1-9-7-6-2/h1H,(H3,4,5,8)	InChI=1S/C3H4N4O2/c4-3(8)5-2-1-9-7-6-2/h1H,(H3,4,5,8)
