20
gdb 94745	3.77661	1.13982	1.00238	1.0839	86.77	-0.2282	0.0391	0.2673	1248.3869	0.171422	-365.978046	-365.969427	-365.968483	-366.010836	34.042	
C	 0.0243768536	 1.5711857028	 0.0243090607	-0.402987
C	 0.0330331866	 0.0416166081	 0.0059291563	 0.037267
C	 0.8021754136	-0.5658861422	-1.1963041454	-0.237878
C	 1.2874149689	-1.9578241221	-0.7344920046	-0.284793
C	 1.4565458052	-1.8102129732	 0.775168335	 0.208389
N	 2.1806854903	-0.5542323135	 1.1393362948	-0.379374
C	 0.7089410237	-0.5916407521	 1.2127524596	-0.092598
C	 1.6040147941	-2.966121962	 1.6061825078	 0.157692
C	 1.7461424314	-3.9499141728	 2.2848633715	-0.377478
H	 1.0460884368	 1.9546880734	 0.1089952157	 0.131039
H	-0.4155956534	 1.973184392	-0.8942900635	 0.112375
H	-0.556034278	 1.9595192107	 0.8681802339	 0.108168
H	-1.0034053199	-0.3235922888	-0.0081652065	 0.072609
H	 0.183372318	-0.6184120422	-2.0959074131	 0.095181
H	 1.6643587923	 0.0654804215	-1.4248239384	 0.119643
H	 0.5319671814	-2.7283598258	-0.9239319546	 0.108063
H	 2.2124585105	-2.2696730961	-1.227653736	 0.109522
H	 2.5648545068	-0.6700054217	 2.0742976933	 0.236645
H	 0.233153625	-0.5546819682	 2.1879267324	 0.091483
H	 1.8682578131	-4.8157517678	 2.886875771	 0.187033
111.0266	137.8267	168.6882	241.0232	259.9974	316.637	384.4941	440.4103	524.0796	529.7559	568.9959	589.7202	606.5457	656.2375	680.9492	816.8904	836.84	858.5172	921.9047	949.0674	967.128	991.5598	1006.0896	1056.5318	1070.6491	1113.4503	1133.1128	1147.3987	1224.424	1230.7854	1274.7887	1276.8603	1319.8531	1343.8997	1347.4096	1371.7475	1402.8103	1423.0157	1483.2375	1495.2282	1498.7417	1503.6804	2233.0881	3009.2616	3030.9174	3046.866	3065.7265	3091.6572	3095.765	3107.9517	3113.8103	3160.6679	3503.0975	3504.6157
CC1CCC2(NC12)C#C	C[C@H]1CC[C@]2(N[C@@H]12)C#C	
InChI=1S/C8H11N/c1-3-8-5-4-6(2)7(8)9-8/h1,6-7,9H,4-5H2,2H3	InChI=1S/C8H11N/c1-3-8-5-4-6(2)7(8)9-8/h1,6-7,9H,4-5H2,2H3/t6-,7-,8+/m0/s1
