20
gdb 116347	2.9574	1.32041	1.01387	3.4759	74.77	-0.2403	0.0653	0.3056	1198.1235	0.173323	-440.25862	-440.250445	-440.249501	-440.291416	31.872	
O	 0.0275816855	 1.3932974743	-0.040082341	-0.429347
C	 0.0352014185	-0.0176678205	 0.0417333544	-0.070617
C	-1.3832402287	-0.5825123685	 0.0432647161	 0.101198
O	-1.9887758978	-0.0926205924	-1.1478705038	-0.271275
C	-3.3033473151	-0.584229041	-1.345453914	-0.074983
C	-3.2962168397	-2.0795412555	-1.6821078148	-0.211043
C	-2.3879256377	-2.84605153	-0.7295695725	-0.03814
N	-0.9501457714	-2.8279985212	-1.0593725395	-0.322634
C	-1.4237798851	-2.0960312177	 0.1239556586	-0.063512
H	-0.5617277995	 1.6048005106	-0.7739891912	 0.289712
H	 0.5865715814	-0.475971348	-0.7921139586	 0.108352
H	 0.5407279653	-0.2847585755	 0.976073882	 0.097574
H	-1.9299747147	-0.1768169346	 0.9131886664	 0.068119
H	-3.9078611569	-0.4024048481	-0.4412035178	 0.088619
H	-3.7345749493	 0.0024779663	-2.1613863357	 0.107631
H	-4.3196882163	-2.4661651934	-1.6234550409	 0.096463
H	-2.9430693033	-2.2278443491	-2.7073425589	 0.12015
H	-2.788719214	-3.7717528969	-0.3240140327	 0.086654
H	-0.5125423904	-3.7008029393	-0.7772581934	 0.231157
H	-1.1917323208	-2.4993319498	 1.1081104273	 0.085922
94.4572	129.3867	167.2977	268.7665	297.1021	371.9194	406.5585	437.6397	463.8052	504.9726	608.3208	714.4318	782.3882	805.0769	855.172	892.6466	911.0483	924.9334	979.6034	1025.8347	1055.6359	1079.3901	1096.3134	1102.7907	1125.4717	1143.4976	1170.5861	1205.1648	1236.2916	1259.1624	1263.0336	1300.0758	1309.3275	1362.1496	1366.7768	1388.9605	1400.3126	1423.5044	1443.3705	1457.9972	1471.4604	1499.7939	1503.3488	2948.7403	2968.8711	3006.0376	3043.1131	3075.054	3083.7138	3094.022	3120.2574	3134.984	3506.3208	3793.2528
OCC1OCCC2NC12	OC[C@H]1OCC[C@H]2N[C@@H]12	
InChI=1S/C6H11NO2/c8-3-5-6-4(7-6)1-2-9-5/h4-8H,1-3H2	InChI=1S/C6H11NO2/c8-3-5-6-4(7-6)1-2-9-5/h4-8H,1-3H2/t4-,5-,6-/m1/s1
