18
gdb 89929	3.25525	1.29301	1.09676	4.7944	76.51	-0.2698	-0.0013	0.2685	1140.7224	0.147749	-401.929386	-401.921114	-401.92017	-401.96258	31.131	
C	-0.6051982416	 1.3504558914	-0.0654227597	-0.416835
C	 0.0784472626	-0.008410394	-0.0176847212	 0.029988
C	 1.4034247774	-0.1965472075	-0.8296334196	-0.303123
C	 2.1256029643	-0.6423479265	 0.4670694851	 0.324496
O	 2.7530258969	 0.4554898505	 1.1578354389	-0.317064
C	 1.6125727674	 0.6136778703	 2.0438620995	-0.093436
C	 0.8073331672	-0.4546402878	 1.2898640759	-0.158442
C	 2.9312491871	-1.8506754409	 0.4496612567	 0.227826
N	 3.5452623076	-2.8300572474	 0.4246418779	-0.339562
H	 0.0905690422	 2.1660775543	 0.1558877418	 0.127617
H	-1.0163373472	 1.5352680784	-1.063361314	 0.126134
H	-1.4324063416	 1.406811822	 0.6505588344	 0.121414
H	-0.6419493488	-0.7820340963	-0.2982899645	 0.090989
H	 1.3536922938	-0.9618738493	-1.6065487219	 0.124186
H	 1.8461032048	 0.712667505	-1.242485942	 0.12456
H	 1.8734519407	 0.3327087712	 3.070795553	 0.118582
H	 1.2270106964	 1.6379429576	 2.0381958051	 0.113029
H	 0.3451912506	-1.2448966709	 1.8783773848	 0.099643
51.4001	138.8078	179.1943	225.471	275.8369	329.6593	377.6512	425.1255	537.6389	548.3315	579.8804	657.6074	751.3674	832.2434	867.9568	920.6614	955.7055	970.5053	998.6008	1012.5101	1050.2446	1084.8453	1115.922	1140.8173	1142.6385	1160.9287	1196.7819	1232.2109	1264.9881	1291.4327	1324.8324	1345.507	1368.6653	1414.273	1464.794	1494.7472	1498.9596	1527.4506	2350.8087	3030.3287	3033.4803	3058.4588	3072.1965	3082.284	3099.2493	3105.1064	3132.1326	3133.9909
CC1CC2(OCC12)C#N	C[C@H]1C[C@]2(OC[C@@H]12)C#N	
InChI=1S/C7H9NO/c1-5-2-7(4-8)6(5)3-9-7/h5-6H,2-3H2,1H3	InChI=1S/C7H9NO/c1-5-2-7(4-8)6(5)3-9-7/h5-6H,2-3H2,1H3/t5-,6-,7-/m0/s1
