18
gdb 14833	2.96042	1.67054	1.13493	2.3371	71.61	-0.2278	0.0278	0.2556	1079.1663	0.153499	-381.097433	-381.088578	-381.087633	-381.131407	30.678	
C	-0.3142008377	 1.3794434416	-0.2018994629	-0.323999
N	 0.1594034757	 0.014890855	 0.0325994365	-0.292046
C	 0.7940827905	-0.5702314853	-1.1326456485	-0.13882
C	 1.1306186616	-2.0720900235	-1.0124835564	-0.10243
O	 0.1971827814	-2.3859668496	-2.0888293355	-0.265422
C	-0.1667697333	-1.0534002362	-2.2090575002	 0.502026
N	-1.0029745249	-0.5000550288	-2.9552019327	-0.331035
C	-1.7888502431	-1.3150279031	-3.872461502	-0.340494
H	 0.4825373544	 2.0810118933	-0.5062390279	 0.093401
H	-1.0645660573	 1.3623083999	-0.9958219121	 0.161723
H	-0.7800231514	 1.7601650264	 0.7112156944	 0.116403
H	 0.8263948559	 0.0163443818	 0.7986196605	 0.219273
H	 1.6168524125	 0.0343995	-1.5524102214	 0.080797
H	 2.1474517467	-2.37311959	-1.2752335659	 0.116463
H	 0.8138358365	-2.5299212108	-0.0722965996	 0.122029
H	-2.8532306398	-1.1473321001	-3.6754669394	 0.128023
H	-1.5977581087	-0.983259597	-4.8990382363	 0.126833
H	-1.583004949	-2.3894732336	-3.8060879507	 0.127275
76.0253	99.3083	114.1809	148.3789	207.2275	230.2485	248.0688	372.0797	409.6695	533.6084	682.9285	732.0326	797.9425	829.6263	938.466	976.3735	1025.4425	1057.6597	1071.7598	1111.1759	1131.945	1143.7492	1163.972	1166.9502	1184.4456	1214.3004	1278.2592	1329.9625	1379.0738	1438.6386	1455.7914	1478.1168	1494.2651	1494.6268	1496.8216	1505.5398	1521.5199	1846.6617	2945.8205	2951.5802	3018.6388	3062.0835	3080.2703	3083.7068	3089.7748	3125.1312	3131.3533	3502.9223
CNC1COC1=NC	CN[C@H]1COC1=NC	
InChI=1S/C5H10N2O/c1-6-4-3-8-5(4)7-2/h4,6H,3H2,1-2H3	InChI=1S/C5H10N2O/c1-6-4-3-8-5(4)7-2/h4,6H,3H2,1-2H3/t4-/m0/s1
