23
gdb 111144	3.41771	1.123	0.98333	1.097	87.02	-0.2453	0.0909	0.3362	1328.6333	0.20481	-388.226966	-388.217411	-388.216467	-388.261073	36.61	
C	-1.1328997177	 0.8408123428	-0.3114667088	-0.245136
O	-1.2450936532	-0.4278918966	-0.9155351023	-0.259387
C	-0.0895635951	-0.805918248	-1.6148801482	 0.190331
C	 1.1075071714	-1.4620487785	-0.8387221791	-0.141056
C	 0.1345377605	-2.6545263012	-0.5862382467	-0.244078
C	-0.0504879889	-2.2786349788	-2.0911235698	-0.13673
C	 1.5181452698	-2.1371012831	-2.2031003645	 0.360665
C	 2.1174785379	-1.2658067956	-3.3181371794	-0.470702
C	 2.3620965229	-3.4170138016	-2.1523280877	-0.461268
H	-0.3525761801	 0.8610118555	 0.4639225992	 0.107364
H	-0.9018901484	 1.6240223523	-1.05094496	 0.103203
H	-2.0963829222	 1.0677760866	 0.1512217305	 0.125898
H	 0.1571390003	-0.0262837021	-2.340135812	 0.055763
H	 1.7780456488	-0.9870931857	-0.1187572936	 0.059917
H	 0.5636877531	-3.6245700662	-0.3478533582	 0.088357
H	-0.7180311233	-2.436088997	 0.0530778299	 0.112445
H	-0.723815944	-2.7440789099	-2.8141005488	 0.065022
H	 1.6332246323	-0.3011551275	-3.4679526892	 0.116726
H	 3.1750517517	-1.069132172	-3.1074284673	 0.11413
H	 2.0775491159	-1.8018491114	-4.2733544253	 0.115481
H	 2.3516750667	-3.909866688	-3.1313627452	 0.113392
H	 3.4064149334	-3.1675289303	-1.9319290969	 0.113027
H	 2.0389777383	-4.1510703336	-1.4151190966	 0.116636
80.0212	115.9186	159.0529	181.4082	202.2747	208.5376	305.0909	372.9788	400.1382	455.0582	466.7496	530.1708	567.222	684.0839	731.4275	818.248	874.068	897.4596	922.2033	953.6776	959.3169	1006.5837	1012.328	1020.6435	1067.8934	1072.8991	1101.9102	1136.9025	1139.0942	1174.3553	1183.7885	1194.6478	1205.7562	1210.2731	1235.5939	1247.2642	1263.8114	1302.6584	1399.4178	1422.7875	1437.3655	1480.2481	1485.0617	1487.1643	1491.9456	1508.8855	1512.8477	1513.6314	1540.1392	2973.6446	3021.9637	3030.2968	3036.3783	3064.3304	3080.5391	3081.8966	3086.9923	3089.9836	3114.2684	3116.4142	3140.4987	3146.2452	3176.6096
COC1C2CC1C2(C)C	CO[C@H]1[C@H]2C[C@@H]1C2(C)C	
InChI=1S/C8H14O/c1-8(2)5-4-6(8)7(5)9-3/h5-7H,4H2,1-3H3	InChI=1S/C8H14O/c1-8(2)5-4-6(8)7(5)9-3/h5-7H,4H2,1-3H3/t5-,6+,7+
