17
gdb 61436	2.89296	1.08314	0.83184	4.823	65.76	-0.2546	0.0077	0.2624	1328.0196	0.135407	-492.358862	-492.349308	-492.348364	-492.394063	34.815	
N	 0.2970814522	 1.1087776415	-0.1467059968	-0.50794
C	-0.2830449911	-0.0802357119	-0.4443617906	 0.418115
O	-0.1591555313	-0.5859137618	-1.5545343486	-0.376258
C	-1.0907613071	-0.7103412931	 0.6807455316	-0.341298
C	-1.0151168977	-2.2563102133	 0.7441098432	 0.05303
O	-1.234180997	-2.6675108226	 2.064969619	-0.44413
C	-2.0618700358	-2.9662481419	-0.1482107913	 0.359926
N	-2.0067935428	-2.7012140478	-1.462913335	-0.517297
O	-2.8623421075	-3.7275932054	 0.3814868001	-0.393928
H	 0.827657037	 1.5775894883	-0.8631724002	 0.26784
H	 0.2437197288	 1.519643428	 0.7682108999	 0.269846
H	-0.7453643653	-0.3424776301	 1.6510794927	 0.125567
H	-2.1333688151	-0.3860350378	 0.5749805324	 0.142932
H	-0.0156399785	-2.5697839777	 0.4045548801	 0.100235
H	-1.9821285321	-3.2913513053	 1.9929268671	 0.293552
H	-1.3379910113	-2.0167280501	-1.8108606244	 0.291566
H	-2.6778351153	-3.1398410591	-2.0718001493	 0.258243
36.4352	78.1465	120.3934	211.6352	232.8077	251.0425	332.667	358.4363	418.0081	478.2069	484.7086	527.1205	560.3937	603.7724	647.2927	691.5544	719.3561	779.2481	802.4842	886.6013	983.3497	1059.4086	1091.5693	1133.7624	1159.9292	1192.7282	1276.0293	1289.9194	1360.8878	1377.7786	1409.7573	1460.0461	1477.7053	1620.2755	1629.3158	1757.6892	1781.3806	2984.0797	3042.4157	3094.7066	3425.5184	3581.1154	3603.9798	3680.8369	3742.2864
NC(=O)CC(O)C(N)=O	NC(=O)C[C@@H](O)C(=O)N	
InChI=1S/C4H8N2O3/c5-3(8)1-2(7)4(6)9/h2,7H,1H2,(H2,5,8)(H2,6,9)	InChI=1S/C4H8N2O3/c5-3(8)1-2(7)4(6)9/h2,7H,1H2,(H2,5,8)(H2,6,9)/t2-/m1/s1
