15
gdb 128082	4.66568	1.07101	0.88191	5.9851	68.26	-0.2645	-0.0319	0.2326	1250.759	0.113969	-450.169261	-450.160903	-450.159959	-450.203494	28.778	
C	 0.0087126355	 1.493110202	-0.0287408025	-0.330912
N	-0.0482399613	 0.0402010968	-0.0629875592	-0.363954
C	-1.2118495371	-0.6168880874	 0.1710043285	 0.530457
O	-2.2678425633	-0.104915256	 0.4603404928	-0.372054
N	-1.1032973209	-2.0400761488	 0.0640641864	-0.141131
C	-0.0143034734	-2.8848386987	 0.0308897891	 0.022163
N	-0.3926739701	-4.1265047365	-0.0602039662	-0.21656
N	-1.78223969	-4.1336717443	-0.0919261156	-0.230534
C	-2.1782093025	-2.8963884004	-0.0087743168	 0.062571
H	 0.9636262137	 1.8153024102	 0.3937250061	 0.138427
H	-0.1071315025	 1.930389006	-1.0270271468	 0.140966
H	-0.8058046523	 1.8482038313	 0.6021196625	 0.177891
H	 0.7100076346	-0.4541423257	-0.5026211706	 0.261308
H	 1.0078781802	-2.5503732933	 0.1119853502	 0.145614
H	-3.1936672004	-2.5369523751	 0.001730472	 0.175746
54.1579	72.1365	107.1055	162.0401	214.321	308.8222	394.1923	458.8157	512.8321	635.0668	686.0025	765.492	814.1086	818.2695	880.6431	952.1962	995.744	1014.8865	1078.9423	1153.3072	1172.97	1184.3164	1230.6302	1262.2176	1318.7611	1377.5095	1447.4386	1489.5158	1501.441	1515.8086	1535.1499	1565.0419	1824.7792	3037.6861	3106.0714	3165.0313	3264.9619	3294.9828	3653.3659
CNC(=O)N1C=NN=C1	CNC(=O)n1cnnc1	
InChI=1S/C4H6N4O/c1-5-4(9)8-2-6-7-3-8/h2-3H,1H3,(H,5,9)	InChI=1S/C4H6N4O/c1-5-4(9)8-2-6-7-3-8/h2-3H,1H3,(H,5,9)
