19
gdb 30667	3.68457	1.07662	0.86077	4.0809	78.34	-0.2149	0.0334	0.2483	1344.5959	0.16	-419.237782	-419.228707	-419.227763	-419.272421	32.796	
C	 0.0753436568	 1.5487869702	-0.7511167691	-0.236308
O	-0.2665554175	 0.1802902111	-0.7280867332	-0.263712
C	 0.8271214519	-0.7107080068	-0.9596650144	-0.00544
C	 1.7478456979	-0.8422947182	 0.2557499525	-0.398997
C	 0.2198013891	-2.0252778667	-1.3480874954	 0.324904
C	 0.6515612149	-3.3283046422	-1.3096066643	-0.18696
N	-0.2911517063	-4.1733858917	-1.8506315107	-0.26122
C	-1.2860008597	-3.3936002573	-2.2083515231	 0.009768
N	-1.0222924756	-2.0852864173	-1.9380627107	-0.294622
H	 0.7257693762	 1.834547269	 0.0868699494	 0.114759
H	 0.5794930274	 1.8249073027	-1.6902836818	 0.10807
H	-0.8573732494	 2.1125183542	-0.6713865409	 0.129555
H	 1.4149716022	-0.3100456747	-1.8054613404	 0.082606
H	 2.5463543163	-1.5601087195	 0.0469678585	 0.130113
H	 2.2184750977	 0.1134894814	 0.5010932876	 0.115377
H	 1.1806714679	-1.1939651469	 1.1212293967	 0.134588
H	 1.5888830693	-3.7077534904	-0.9320333499	 0.102642
H	-2.2134119771	-3.7145537301	-2.6587259124	 0.126211
H	-1.628687862	-1.287872607	-2.0358052383	 0.268665
42.8847	82.2753	155.6405	167.9659	206.5959	249.7306	316.6067	374.7005	428.6739	476.1495	587.0317	659.2277	691.2739	745.7068	809.338	844.6164	850.9244	935.692	1001.2346	1039.6253	1076.8492	1104.6144	1111.5514	1148.2342	1151.5309	1183.5365	1216.95	1248.1894	1276.3896	1354.2009	1370.3512	1389.5221	1403.4354	1429.7461	1476.1131	1482.8414	1485.8638	1502.1735	1502.91	1513.4112	1606.4348	2929.6785	2982.7588	3037.5937	3049.2225	3114.1178	3118.8539	3132.2753	3246.6205	3252.107	3667.9063
COC(C)C1=CN=CN1	CO[C@@H](C)c1cnc[nH]1	
InChI=1S/C6H10N2O/c1-5(9-2)6-3-7-4-8-6/h3-5H,1-2H3,(H,7,8)	InChI=1S/C6H10N2O/c1-5(9-2)6-3-7-4-8-6/h3-5H,1-2H3,(H,7,8)/t5-/m0/s1
