22
gdb 57879	2.63956	1.17222	1.01971	2.674	82.93	-0.2483	-0.022	0.2264	1312.2426	0.192365	-404.355533	-404.3452	-404.344256	-404.390761	38.094	
C	 0.0588532767	 1.5947445991	-0.636444291	-0.386733
C	-0.4263421256	 0.3033545335	 0.0268507986	-0.077925
C	-1.1410149582	 0.5896150917	 1.3666777865	-0.392798
C	-1.3801328785	-0.4655904405	-0.8842257499	 0.326378
O	-1.9625531693	 0.0834389089	-1.7995270896	-0.34216
C	-1.6363964406	-1.9329666749	-0.6097590696	 0.238119
C	-0.5993611404	-2.7599466218	 0.1200397402	-0.481815
C	-3.0956377965	-2.2652606666	-0.4674156168	-0.24937
N	-2.3705887142	-2.633895239	-1.6768658545	-0.340863
H	 0.7355757941	 2.1345575534	 0.032984569	 0.107083
H	 0.5910433829	 1.3865931273	-1.5687353006	 0.120793
H	-0.7853964807	 2.24457818	-0.8792775288	 0.134464
H	 0.4343371589	-0.3420456278	 0.2387649233	 0.092287
H	-0.4593338099	 1.0984822013	 2.0545805368	 0.123711
H	-2.0068162215	 1.2400179315	 1.2047703532	 0.131212
H	-1.4921965719	-0.3250399586	 1.8528681155	 0.124529
H	-0.4318180708	-2.4045041403	 1.1412945872	 0.121543
H	-0.9364824033	-3.7978160974	 0.1704691806	 0.134497
H	 0.3607678137	-2.7503565945	-0.4070488633	 0.12706
H	-3.3765268885	-3.0900797595	 0.1830031284	 0.118601
H	-3.8063509167	-1.4449941221	-0.5175732323	 0.125459
H	-2.5775743795	-1.938776274	-2.395637473	 0.245927
57.9108	72.5903	183.5924	200.5272	211.0599	219.996	247.1415	295.2382	309.0257	348.0395	360.2135	380.4479	459.852	571.416	695.6933	762.2295	819.5465	839.1591	888.0098	935.0323	946.3455	972.4959	999.0644	1029.2074	1047.826	1096.0161	1107.8208	1118.5233	1130.5419	1154.2745	1203.9726	1291.4382	1312.986	1333.2186	1364.5463	1380.3897	1400.4495	1420.5075	1421.9799	1484.5841	1486.616	1489.0523	1496.2559	1499.5512	1502.252	1510.7027	1768.7902	3036.1231	3038.0472	3042.3196	3046.098	3101.0716	3103.689	3109.8585	3113.2123	3114.885	3124.6341	3128.4975	3196.047	3457.8432
CC(C)C(=O)C1(C)CN1	CC(C)C(=O)[C@@]1(C)CN1	
InChI=1S/C7H13NO/c1-5(2)6(9)7(3)4-8-7/h5,8H,4H2,1-3H3	InChI=1S/C7H13NO/c1-5(2)6(9)7(3)4-8-7/h5,8H,4H2,1-3H3/t7-/m1/s1
