14
gdb 30984	2.48258	1.48129	0.96732	2.9181	62.64	-0.2084	0.0353	0.2437	1156.14	0.099	-510.953175	-510.944592	-510.943648	-510.986949	30.316	
C	-0.3170723686	 1.2370030393	-0.0834145277	-0.258815
O	 0.5194517264	 0.0828590533	 0.1197188203	-0.260579
C	 0.7995674754	-0.6098846783	-0.9752820508	 0.282608
C	 0.575261066	-1.8719197861	-1.3327244778	 0.196348
O	-0.1389393986	-2.8600275875	-0.7874388345	-0.40548
O	 1.1850822746	-2.1006242822	-2.5688570588	-0.242717
C	 1.7587347897	-0.9120481543	-2.9539058952	 0.512448
N	 2.4003931546	-0.6641330329	-4.0043409644	-0.573498
O	 1.527549731	 0.0199005742	-1.9877439601	-0.23363
H	 0.1695361495	 1.9525082144	-0.7519796888	 0.152012
H	-1.2846651533	 0.9362466068	-0.4994141019	 0.133338
H	-0.4561006735	 1.6826767537	 0.9015111656	 0.145573
H	 0.4380656556	-3.6053306906	-0.5722466797	 0.316332
H	 2.4542820712	-1.4902430098	-4.5942133261	 0.236059
67.8512	128.3049	141.4248	193.5363	217.9718	278.9595	318.0686	378.0401	441.8679	588.149	634.3216	664.4971	668.2154	729.8297	774.9033	824.821	970.4502	980.651	1032.5169	1072.3115	1172.5291	1198.4677	1249.452	1254.4284	1326.0887	1389.4603	1485.6206	1488.6366	1501.6969	1790.8683	1890.8323	3034.9547	3114.2252	3157.9342	3547.5747	3746.6534
COC1=C(O)OC(=N)O1	COC1=C(O)O[C@H]([NH])O1	
InChI=1S/C4H5NO4/c1-7-3-2(6)8-4(5)9-3/h5-6H,1H3	InChI=1S/C4H6NO4/c1-7-3-2(6)8-4(5)9-3/h4-6H,1H3/t4-/m0/s1
