12
gdb 18420	3.61506	1.88569	1.5971	3.2112	59.46	-0.2719	-0.0512	0.2207	789.7597	0.083804	-377.493242	-377.486763	-377.485819	-377.524113	23.804	
O	 0.0285638672	 0.0171545409	-0.0414620094	-0.280059
C	 0.0013515658	 1.2040227126	 0.0638920501	 0.422006
C	-1.1011447736	 2.2828216926	 0.0209258563	-0.30134
N	-0.0402300826	 3.3433894469	-0.1754985594	-0.122389
C	 0.7961023269	 3.3333434693	 1.0322773568	-0.154589
C	 0.2750164006	 3.024049024	 2.3436636279	 0.308091
N	-0.1446839825	 2.8138736027	 3.4002751912	-0.324399
C	 1.0494389376	 2.2901848719	-0.0154981928	-0.171463
H	-1.7083687639	 2.1932828805	-0.8827962746	 0.158483
H	-1.7419889218	 2.4265638718	 0.8928815767	 0.164882
H	 1.5132686119	 4.1499583653	 1.0399468294	 0.160574
H	 1.9720356244	 2.2842599315	-0.5852469322	 0.140201
94.8564	172.6093	244.1673	394.1563	443.9965	485.8525	577.5067	606.7372	653.6756	748.3824	794.8293	887.5696	912.3346	965.3221	1012.8122	1046.0075	1054.5459	1100.7758	1160.9328	1213.5201	1243.7569	1298.4139	1377.7142	1460.4887	1911.7917	2356.2414	3079.7962	3142.5756	3154.321	3189.8488
O=C1CN2C(C#N)C12	O=C1CN2[C@@H](C#N)[C@@H]12	
InChI=1S/C5H4N2O/c6-1-3-5-4(8)2-7(3)5/h3,5H,2H2	InChI=1S/C5H4N2O/c6-1-3-5-4(8)2-7(3)5/h3,5H,2H2/t3-,5-,7?/m0/s1
