20
gdb 99678	1.95368	1.42786	0.97516	3.4237	79.7	-0.2368	0.0301	0.2668	1279.3657	0.172053	-399.307281	-399.297815	-399.296871	-399.341988	34.246	
N	-0.0542997049	 1.4812711597	 0.0993202212	-0.513721
C	 0.0351240402	 0.0355491718	-0.069678142	-0.157307
C	 0.8025532676	-0.5463750226	 1.1306116079	-0.103284
C	 0.7176251113	-2.0276682776	 1.1426814214	 0.261564
N	 0.7126745053	-3.1841458907	 1.1484663642	-0.335619
N	 2.1714006717	-0.0615938822	 1.1438900713	-0.074675
C	 3.1811108399	-0.5971556469	 0.1957850751	-0.177763
C	 4.2433141472	-0.4546629434	 1.3129167441	-0.227524
C	 3.0513850617	-0.3629433108	 2.2959464392	-0.172077
H	 0.886492512	 1.8550060252	 0.1835612601	 0.236407
H	-0.4779941912	 1.9048468067	-0.7193035896	 0.230432
H	-0.9735254521	-0.3905484284	-0.0835510322	 0.122133
H	 0.5373604729	-0.298552232	-0.9940565103	 0.09811
H	 0.3156985129	-0.1761272516	 2.0408586341	 0.137209
H	 3.0032609571	-1.6473500793	-0.0766659005	 0.117407
H	 3.309540976	-0.0065229573	-0.7162103442	 0.105046
H	 4.9313398039	-1.2886980779	 1.447314559	 0.11647
H	 4.8061718455	 0.4775549427	 1.2441204749	 0.11589
H	 3.0690819267	 0.4137889361	 3.0666904837	 0.109485
H	 2.8295302662	-1.3327028114	 2.7652099027	 0.111816
77.6692	98.0417	120.8371	150.8408	190.1683	204.7284	278.3315	338.4398	362.6189	458.0469	535.3998	570.7382	685.3868	749.8383	847.4061	863.8126	901.6345	929.8196	942.0985	965.4774	996.8517	1033.7337	1088.9603	1126.5547	1140.7361	1157.681	1176.5454	1212.0312	1224.1713	1241.2924	1258.9954	1270.1204	1296.7287	1327.5959	1348.1955	1369.0431	1427.0185	1487.9149	1504.7074	1510.5725	1530.5255	1639.6119	2340.8159	2952.6612	2996.5476	3005.629	3049.0038	3070.4555	3071.2934	3073.4961	3091.2953	3148.392	3499.1745	3582.8085
NCC(C#N)N1CCC1	NC[C@@H](C#N)N1CCC1	
InChI=1S/C6H11N3/c7-4-6(5-8)9-2-1-3-9/h6H,1-4,7H2	InChI=1S/C6H11N3/c7-4-6(5-8)9-2-1-3-9/h6H,1-4,7H2/t6-/m0/s1
