15
gdb 85995	2.00593	1.80193	1.28797	2.0899	63.06	-0.2534	-0.0663	0.1871	1004.4153	0.109472	-494.898529	-494.889871	-494.888926	-494.93172	31.753	
O	 0.3791271061	 1.3511046388	 0.0896718821	-0.426799
C	 0.0749594006	-0.0076977069	 0.0024683609	 0.041049
C	-1.4464630188	-0.365897413	-0.1496282867	-0.321236
C	-1.2922779832	-0.5429418505	-1.704024626	 0.203761
O	-1.8520341745	-1.6373328712	-2.3603343599	-0.47705
C	-1.6287825308	 0.7287241448	-2.4600690637	 0.121898
O	-1.4525659862	 1.8506301949	-2.0433383595	-0.26794
C	 0.2336647911	-0.6796287689	-1.3879527501	 0.296117
O	 1.0220168129	-1.4138573955	-1.9055346324	-0.28731
H	-0.1913386674	 1.8248696498	-0.5390009914	 0.306489
H	 0.6207011266	-0.5212813797	 0.7977601489	 0.119172
H	-1.7109282281	-1.3157935577	 0.3179285435	 0.133172
H	-2.1298237477	 0.4254319747	 0.1623597798	 0.134795
H	-1.1324203724	-2.2509827127	-2.5639652371	 0.301564
H	-2.0566395782	 0.533657463	-3.4631507185	 0.122317
87.6306	147.5086	193.5026	221.1335	245.2916	251.6837	318.6598	367.6756	408.2908	493.3319	550.6754	621.5616	654.9	706.4377	774.2258	824.5674	851.3582	940.9446	1010.0111	1039.6945	1065.8059	1139.9664	1162.5779	1194.509	1210.73	1247.7195	1311.7918	1353.6191	1393.1103	1450.4836	1473.6831	1785.2594	1873.4281	2952.4433	3081.6893	3094.2057	3153.4845	3653.1449	3745.7276
OC1CC(O)(C=O)C1=O	O[C@H]1C[C@@](O)(C=O)C1=O	
InChI=1S/C5H6O4/c6-2-5(9)1-3(7)4(5)8/h2-3,7,9H,1H2	InChI=1S/C5H6O4/c6-2-5(9)1-3(7)4(5)8/h2-3,7,9H,1H2/t3-,5+/m0/s1
