21
gdb 89030	3.95676	0.6845	0.62745	1.513	80.25	-0.2445	-0.01	0.2346	1830.7763	0.178829	-424.236931	-424.226277	-424.225333	-424.274604	36.995	
C	 0.2917304157	 1.4915470394	-0.3616771	-0.419415
C	 0.1037058059	 0.0428695103	 0.0082434015	 0.078962
O	 1.2809521238	-0.7428205084	 0.2355560025	-0.269154
C	 0.3787752462	-0.5385976637	 1.3336610502	 0.05402
C	 0.9083617801	 0.2179851663	 2.5269974273	-0.223658
C	 1.9568366443	-0.6005869096	 3.2848065265	-0.289825
C	 2.5352770326	 0.1210146745	 4.4948197512	 0.374438
C	 3.5839467655	-0.6375425752	 5.2899175802	-0.473195
O	 2.1802877884	 1.2355527647	 4.8048832453	-0.291045
H	 1.0512697503	 1.9757403025	 0.2545351772	 0.131703
H	 0.6037958405	 1.5735423732	-1.4081367606	 0.129262
H	-0.6510211437	 2.0382477562	-0.2503564099	 0.12322
H	-0.6462833636	-0.474469437	-0.5951972264	 0.084902
H	-0.1858474064	-1.4386763948	 1.5938873657	 0.082185
H	 1.3504354294	 1.1695204034	 2.224678676	 0.118862
H	 0.0770223322	 0.4624694938	 3.1980747918	 0.11369
H	 1.5417835204	-1.5601968895	 3.6251331055	 0.116409
H	 2.7822096795	-0.8701971512	 2.6123179706	 0.138918
H	 3.1678552048	-1.5768835435	 5.6712824335	 0.137477
H	 4.430859803	-0.9045264003	 4.6479727178	 0.139816
H	 3.9321857409	-0.0259977409	 6.1230242042	 0.142431
28.5375	52.8522	86.2825	100.961	120.9147	167.1368	231.5126	242.3588	355.9399	406.5815	462.672	486.3748	534.4831	594.513	732.7467	772.1132	799.1491	862.457	905.4884	937.2905	952.5821	997.1674	1041.5469	1060.3659	1106.4837	1120.7326	1172.6859	1173.1675	1180.9339	1211.0743	1293.216	1310.3533	1313.7494	1377.4262	1386.0583	1405.3992	1420.8036	1449.3417	1465.4066	1468.7902	1477.3215	1477.6075	1490.9792	1513.2038	1810.1052	3015.374	3037.6043	3039.6382	3046.6083	3056.6449	3060.6154	3078.9909	3097.75	3099.569	3115.7191	3139.2208	3152.3288
CC1OC1CCC(C)=O	C[C@H]1O[C@H]1CCC(=O)C	
InChI=1S/C7H12O2/c1-5(8)3-4-7-6(2)9-7/h6-7H,3-4H2,1-2H3	InChI=1S/C7H12O2/c1-5(8)3-4-7-6(2)9-7/h6-7H,3-4H2,1-2H3/t6-,7+/m1/s1
