24
gdb 56145	3.09575	0.75311	0.70775	3.3514	86.24	-0.2429	0.0359	0.2788	1736.8422	0.214372	-405.601955	-405.590274	-405.58933	-405.639785	42.375	
C	-0.0122650573	 1.5644239573	 0.1706196213	-0.400185
C	 0.0050897568	 0.0288801265	 0.0520257883	 0.256083
C	 0.6117525453	-0.5806209107	 1.32980511	-0.401775
C	-1.4429988968	-0.4755633232	-0.0967545848	-0.402209
C	 0.787909199	-0.4239479804	-1.2041805283	-0.170138
C	 2.2562984573	 0.0064342343	-1.2917065256	-0.336666
C	 2.9794079798	-0.6857119379	-2.4479219976	 0.412899
N	 3.989668355	 0.0429032741	-3.0110866195	-0.523096
O	 2.6940865357	-1.8014924897	-2.8375280704	-0.359625
H	 0.9898502874	 1.9730403493	 0.337104105	 0.105339
H	-0.4176647119	 2.027084055	-0.7364794348	 0.106624
H	-0.6373643741	 1.8818050251	 1.0125329691	 0.10813
H	 0.0056774223	-0.3234023503	 2.2054220317	 0.108032
H	 0.6557917982	-1.6732588212	 1.2639609917	 0.113508
H	 1.6258883958	-0.2147077659	 1.5204721248	 0.105807
H	-1.9187362915	-0.0553456018	-0.9897594418	 0.107745
H	-1.473674041	-1.5669604052	-0.1852273183	 0.112029
H	-2.0496414338	-0.1919310215	 0.7703114627	 0.104731
H	 0.7613460763	-1.5160635494	-1.2762248838	 0.12122
H	 0.2639548469	-0.0522530502	-2.0943869168	 0.092349
H	 2.3528170517	 1.0935501987	-1.3861327637	 0.09771
H	 2.7941463081	-0.2753962459	-0.3772212109	 0.127976
H	 4.2815311288	 0.92967951	-2.6403332729	 0.255335
H	 4.5653161618	-0.4036012872	-3.7063019256	 0.25818
24.5028	57.4269	93.7803	140.7887	158.5895	222.7629	234.9912	264.8217	271.2528	309.0866	329.7225	381.2858	409.9009	459.6345	478.8682	528.8744	607.017	670.5921	749.2697	782.2187	866.8383	918.6186	931.5702	940.9112	957.6274	972.2873	1032.842	1065.39	1077.689	1099.0181	1167.4126	1216.4768	1266.7517	1270.3707	1277.4274	1331.2161	1364.485	1397.5107	1399.302	1405.1777	1432.2207	1464.9387	1480.9043	1483.6928	1486.6386	1490.423	1507.7059	1509.681	1518.4489	1615.9997	1796.7334	3019.6978	3020.9002	3022.6316	3031.1123	3031.9572	3064.467	3084.9906	3087.9062	3090.392	3092.9119	3094.7193	3097.138	3098.2256	3601.0305	3738.8012
CC(C)(C)CCC(N)=O	CC(C)(C)CCC(=O)N	
InChI=1S/C7H15NO/c1-7(2,3)5-4-6(8)9/h4-5H2,1-3H3,(H2,8,9)	InChI=1S/C7H15NO/c1-7(2,3)5-4-6(8)9/h4-5H2,1-3H3,(H2,8,9)
