21
gdb 107971	2.68453	1.36565	1.31095	1.5317	83.	-0.2182	0.0762	0.2944	1138.2084	0.182473	-383.171136	-383.16239	-383.161446	-383.204322	33.857	
C	-0.0047204987	 1.5432356343	 0.0165661965	-0.375315
C	-0.0125655301	 0.0137321421	-0.0950203454	-0.334766
C	 0.6863874867	-0.4876512797	-1.3248919116	 0.349359
N	 0.3161833281	-0.0960250908	-2.7316130789	-0.384494
C	 1.4693668733	-1.0353439541	-2.9112851174	-0.088539
C	 2.2079343226	-0.469679542	-1.6660781325	-0.052468
N	 2.4364801689	-1.7908999726	-0.9960401372	-0.384816
C	 1.1138910196	-1.9635818102	-1.6906149466	 0.282169
C	 0.3061853407	-3.2253351119	-1.6454548596	-0.528948
H	 1.0180367335	 1.9246790981	 0.0992046181	 0.119026
H	-0.4576022007	 2.0000463432	-0.8677539638	 0.133579
H	-0.5596285665	 1.8739862614	 0.8994810791	 0.109074
H	 0.4789752013	-0.4392335796	 0.7743479469	 0.121271
H	-1.0476091811	-0.35469948	-0.0968582791	 0.09548
H	-0.5582129258	-0.5553771417	-3.0045260496	 0.200614
H	 1.8806960812	-1.3036797057	-3.8873588939	 0.073173
H	 2.9029531965	 0.3678420356	-1.6108771946	 0.084999
H	 3.1653752892	-2.3131838477	-1.4912784554	 0.202475
H	 0.0966317448	-3.5142339055	-0.6107165625	 0.135697
H	-0.6490884439	-3.0888068935	-2.1652445589	 0.118709
H	 0.8346055805	-4.0540195897	-2.1297161936	 0.123722
84.4295	135.8491	180.4346	213.2131	240.0561	254.4461	288.7288	409.4879	502.6154	535.2605	637.8228	679.5239	737.2271	773.7297	789.6761	835.1672	843.7483	895.5603	921.0385	949.5307	957.5873	993.6636	1042.8844	1078.1061	1091.0826	1099.8014	1132.4887	1146.7492	1165.7333	1205.3301	1241.5648	1249.3859	1272.4846	1293.8889	1310.0649	1331.4007	1352.8188	1397.6327	1409.4966	1416.3103	1475.8957	1478.722	1492.1634	1495.7269	1507.1944	3014.9639	3026.7914	3040.9215	3061.36	3086.689	3091.0685	3103.9034	3108.3526	3119.5958	3124.4018	3383.9858	3388.6789
CCC12NC3C1NC23C	CC[C@@]12N[C@H]3[C@@H]1N[C@@]23C	
InChI=1S/C7H12N2/c1-3-7-5-4(9-7)6(7,2)8-5/h4-5,8-9H,3H2,1-2H3	InChI=1S/C7H12N2/c1-3-7-5-4(9-7)6(7,2)8-5/h4-5,8-9H,3H2,1-2H3/t4-,5-,6+,7+/m0/s1
