15
gdb 20907	5.02902	1.41137	1.19821	1.7061	64.08	-0.2288	0.0026	0.2314	998.4394	0.120338	-395.991231	-395.983758	-395.982814	-396.02375	26.917	
C	-0.0724871857	 1.5221213548	 0.1178557647	-0.378194
C	 0.0411906491	-0.0017902254	 0.0709076882	-0.125455
N	 0.7511567047	-0.5439584166	 1.2173843477	 0.146359
N	 2.0167867207	-0.9224057712	 1.1563973487	-0.218599
C	 2.3164157091	-1.2776424458	 2.4089205913	-0.134825
C	 1.1705716352	-1.0800951668	 3.1939161619	 0.368737
O	 1.0319384391	-1.3181922845	 4.5108971484	-0.423952
N	 0.1876599317	-0.6117433026	 2.4310754288	-0.343069
H	 0.9186641459	 1.9840581226	 0.1176337652	 0.135975
H	-0.6228136128	 1.8817055822	-0.7566963926	 0.122623
H	-0.6054936726	 1.8396624829	 1.0175682059	 0.141214
H	-0.9495135939	-0.4643613044	 0.0492165088	 0.131867
H	 0.5997372185	-0.3319186717	-0.8066241069	 0.14113
H	 3.2898242038	-1.6494005426	 2.6805834501	 0.128125
H	 0.127502457	-1.0860322508	 4.7545415297	 0.308063
42.3606	110.0698	212.9885	305.8855	328.178	379.0652	417.1235	470.6617	638.2125	676.5123	723.5625	758.5874	798.3196	836.2173	970.7619	1019.7992	1049.6229	1102.335	1116.9621	1174.9246	1236.9093	1281.3284	1364.9825	1388.121	1393.7723	1408.4647	1424.7842	1476.2467	1488.8699	1506.3062	1526.5315	1602.537	3047.1569	3070.5412	3120.4264	3122.6025	3143.2505	3284.5002	3802.78
CCN1N=CC(O)=N1	CCn1ncc(O)n1	
InChI=1S/C4H7N3O/c1-2-7-5-3-4(8)6-7/h3H,2H2,1H3,(H,6,8)	InChI=1S/C4H7N3O/c1-2-7-5-3-4(8)6-7/h3H,2H2,1H3,(H,6,8)
