18
gdb 26193	3.81153	1.00302	0.81755	1.3888	75.62	-0.1847	0.0374	0.2222	1371.0632	0.14737	-439.116309	-439.107089	-439.106144	-439.150324	34.678	
C	-0.6837215014	 1.2382129185	 0.0823729784	-0.398929
C	 0.1706248676	-0.0125965166	-0.1154021799	 0.008598
O	 1.2111654609	 0.197644783	-1.0789954422	-0.431456
C	 0.7511476611	-0.5356645118	 1.1684427957	 0.324786
C	 0.3731916162	-0.4100103908	 2.493661683	-0.414107
C	 1.2895092561	-1.1790427542	 3.2637329294	 0.330269
O	 1.3122326595	-1.3472904936	 4.6196209756	-0.450525
C	 2.2000245352	-1.7489318634	 2.4027079176	-0.178634
N	 1.8485252076	-1.3486867347	 1.131797347	-0.293756
H	-0.0978159683	 2.0397651668	 0.5454934606	 0.114439
H	-1.0569686238	 1.5866204324	-0.88385694	 0.123669
H	-1.5401196608	 1.0295086077	 0.7306285776	 0.124676
H	-0.4506736737	-0.787224336	-0.5857187787	 0.10356
H	 1.7819888666	 0.8927919189	-0.7298174167	 0.277623
H	-0.4657951864	 0.1569357739	 2.869086058	 0.085513
H	 0.5710388671	-0.8650973281	 4.9959570129	 0.294433
H	 3.0525151773	-2.3776156185	 2.5942361903	 0.117523
H	 2.3409284192	-1.5570729236	 0.2803395614	 0.262319
53.1482	138.762	167.1779	204.239	243.0042	306.1337	330.6156	357.5588	377.3793	461.4396	500.3186	536.6015	608.5891	635.8633	693.5485	697.73	733.9909	770.0264	886.3941	973.3341	998.2092	1034.4387	1079.2263	1104.4499	1129.6048	1171.0415	1191.8469	1279.194	1290.611	1326.6923	1363.6211	1400.4324	1418.7178	1462.9113	1474.1559	1489.304	1493.0842	1539.6565	1653.8232	3010.1071	3036.9193	3108.0055	3125.5729	3237.3609	3280.5634	3680.5993	3783.2787	3848.5496
CC(O)C1=CC(O)=CN1	C[C@@H](O)c1cc(O)c[nH]1	
InChI=1S/C6H9NO2/c1-4(8)6-2-5(9)3-7-6/h2-4,7-9H,1H3	InChI=1S/C6H9NO2/c1-4(8)6-2-5(9)3-7-6/h2-4,7-9H,1H3/t4-/m1/s1
