20
gdb 101454	3.43308	0.97473	0.80929	1.6994	75.38	-0.2497	0.0183	0.268	1411.1964	0.171204	-440.295277	-440.285922	-440.284977	-440.33007	33.87	
C	-0.0178715556	 1.5348882648	 0.0763083182	-0.401228
C	-0.0352798504	 0.0054543258	-0.0374587307	-0.007619
C	-1.4798079757	-0.5224964473	-0.0292543274	-0.073063
O	-2.1950938281	-0.1417981786	 1.1398279387	-0.420845
C	 0.7133484294	-0.478691279	-1.2895720666	 0.012817
C	 2.2231593788	-0.1079649789	-1.3197905342	-0.123867
O	 2.8955985859	-1.3646043687	-1.5824167729	-0.221457
C	 1.9185686417	-2.2995911653	-1.5614437285	 0.118241
N	 0.7104998649	-1.9547690938	-1.4068872023	-0.277472
H	 0.9934231564	 1.9316254484	 0.211544827	 0.108402
H	-0.441829571	 1.9952439696	-0.824537395	 0.112861
H	-0.6262088378	 1.8485166806	 0.9273879222	 0.13534
H	 0.479135625	-0.4241430942	 0.8367511286	 0.062876
H	-2.0339109711	-0.0858470079	-0.8693760005	 0.103746
H	-1.4776782911	-1.6098049462	-0.1658046458	 0.117761
H	-1.8447376348	-0.6539457251	 1.8753779731	 0.281385
H	 0.1988697842	-0.071954892	-2.1712836335	 0.088568
H	 2.4956168609	 0.5950501069	-2.1093420376	 0.12445
H	 2.5877007171	 0.2727782131	-0.360081867	 0.116703
H	 2.2722101711	-3.3168616622	-1.690673266	 0.1424
59.2969	89.7596	116.3847	163.7694	232.3566	266.625	284.5195	318.2775	378.8387	409.4576	471.4033	592.2353	726.7455	839.3665	882.4082	895.0086	911.8845	962.4697	966.4455	972.7944	1005.5581	1030.2457	1067.8097	1109.6219	1130.7242	1133.5294	1170.3204	1215.7054	1236.7176	1289.4191	1307.0955	1321.2625	1356.861	1368.2623	1382.6418	1396.6523	1404.7993	1418.2038	1491.5367	1506.7192	1509.5867	1514.8853	1708.3299	2980.7359	3007.4216	3027.5967	3031.732	3047.7721	3075.9258	3092.73	3110.4064	3127.7121	3212.8475	3818.3432
CC(CO)C1COC=N1	C[C@@H](CO)[C@H]1COC=N1	
InChI=1S/C6H11NO2/c1-5(2-8)6-3-9-4-7-6/h4-6,8H,2-3H2,1H3	InChI=1S/C6H11NO2/c1-5(2-8)6-3-9-4-7-6/h4-6,8H,2-3H2,1H3/t5-,6+/m0/s1
