18
gdb 116104	2.27882	1.61515	1.1276	3.2801	69.75	-0.2579	0.0201	0.278	1117.3424	0.147922	-476.217403	-476.208747	-476.207803	-476.251471	31.248	
C	-0.0953056874	 1.1082293004	 0.6292358535	-0.246788
O	-0.3280854973	-0.2891649763	 0.5190150092	-0.234201
C	-1.3815681491	-0.6297696356	-0.3301762626	 0.152876
C	-1.3692176161	-2.1621780432	-0.506901988	-0.093075
O	-2.3341094317	-2.8161965954	 0.2898848806	-0.242558
C	-2.5290655935	-2.1683045892	 1.5354011533	-0.177398
C	-3.1190342963	-0.8007590651	 1.2916577486	 0.411843
N	-4.0253826818	-0.3081112201	 2.0179846329	-0.523198
O	-2.6346805348	-0.1631233218	 0.176020289	-0.244437
H	 0.7840374044	 1.2310720089	 1.2637576547	 0.136577
H	 0.1058978835	 1.5514612843	-0.3566421755	 0.114091
H	-0.9474455982	 1.6260139617	 1.082436424	 0.132733
H	-1.2811266897	-0.1112643073	-1.292879606	 0.089084
H	-1.5994581426	-2.4186690931	-1.5442641542	 0.120619
H	-0.3529757439	-2.5089077096	-0.2711454083	 0.113973
H	-3.2360391853	-2.7615820925	 2.1145076414	 0.145359
H	-1.5859566156	-2.0836945084	 2.0959336054	 0.124117
H	-4.2822484844	 0.6240854523	 1.6852626418	 0.220384
59.0784	83.6743	127.1503	191.8902	251.5337	272.0618	382.6669	409.7105	464.085	474.4243	593.0886	653.7608	802.9729	831.5222	860.7133	917.2521	937.1764	986.0827	1035.826	1056.0612	1089.2171	1106.648	1145.9344	1170.8936	1180.2226	1222.9035	1254.0827	1303.0919	1309.9391	1368.2049	1382.3879	1410.0822	1423.6295	1477.1001	1482.4327	1485.395	1499.2281	1509.3517	1774.2282	3000.3706	3002.2596	3009.3059	3021.0595	3077.542	3095.5146	3136.3265	3143.7157	3458.6597
COC1COCC(=N)O1	CO[C@H]1COC[C]([NH])O1	
InChI=1S/C5H9NO3/c1-7-5-3-8-2-4(6)9-5/h5-6H,2-3H2,1H3	InChI=1S/C5H9NO3/c1-7-5-3-8-2-4(6)9-5/h5-6H,2-3H2,1H3/t5-/m1/s1
