15
gdb 127824	4.54245	1.04161	0.85235	2.6259	71.9	-0.2367	-0.0476	0.189	1286.2826	0.112165	-450.109243	-450.100816	-450.099872	-450.1426	30.375	
C	-0.0496496384	 1.4325194943	 0.030773436	-0.341503
N	-0.0482416787	-0.0176140552	 0.0295769374	-0.299482
C	 0.5602303949	-0.6047852731	-0.9312392842	 0.269668
N	 1.2487834725	-0.0238015772	-1.9703164154	-0.572803
C	 0.582136581	-2.0746427367	-0.9362531989	 0.266606
C	 0.089074567	-2.9671974958	-0.0340546805	-0.030387
O	 0.336146567	-4.1958118471	-0.4654877592	-0.158019
N	 1.0266379037	-4.0567943842	-1.7145626115	-0.007014
N	 1.1452749379	-2.8265511328	-1.9432555746	-0.204693
H	 0.9681479389	 1.8536243499	 0.0438006151	 0.116606
H	-0.5672210108	 1.8546311593	-0.8473212806	 0.107313
H	-0.5726269317	 1.7952884279	 0.91873339	 0.126514
H	 1.0622947767	 0.9402665567	-2.1875079692	 0.260969
H	 1.511328309	-0.6144907255	-2.7435747889	 0.273925
H	-0.4299551191	-2.8452664505	 0.9010417244	 0.192302
79.4408	139.516	145.0754	154.7258	295.5425	304.642	371.057	397.5904	482.0669	497.7154	616.1198	628.9281	690.2285	740.204	763.6672	889.2397	971.3939	990.426	1044.2264	1103.5286	1110.6336	1142.5838	1189.2379	1219.643	1336.5224	1371.1837	1433.939	1465.235	1492.0553	1503.9314	1614.5214	1642.0621	1724.6935	2956.6308	3004.3719	3103.4192	3302.2827	3597.4678	3718.9037
CN=C(N)C1=CON=N1	CN=C(N)c1conn1	
InChI=1S/C4H6N4O/c1-6-4(5)3-2-9-8-7-3/h2H,1H3,(H2,5,6)	InChI=1S/C4H6N4O/c1-6-4(5)3-2-9-8-7-3/h2H,1H3,(H2,5,6)
