17
gdb 32448	3.25803	1.2232	0.89862	1.5538	72.36	-0.1805	0.0595	0.2401	1259.6753	0.135349	-455.151214	-455.141332	-455.140388	-455.186595	34.925	
C	-0.0540347999	 1.3191693391	-0.0640819125	-0.243581
O	 0.0043158136	-0.090701465	-0.00706829	-0.285045
C	 0.6458683679	-0.6034879583	 1.082992242	 0.24074
C	 1.2564367253	 0.0151936019	 2.1555930694	-0.222194
N	 1.7412151499	-0.9878425027	 2.96284822	-0.278694
C	 1.4554989055	-2.2272513502	 2.4297260651	 0.188179
N	 1.8700427257	-3.3974106776	 3.104048409	-0.611785
C	 0.7700562742	-2.0078409061	 1.2547426364	 0.148606
O	 0.2966697872	-2.9738021997	 0.4114492757	-0.465649
H	 0.953456431	 1.7571838917	-0.093680312	 0.118222
H	-0.5893826401	 1.5803982135	-0.9787024487	 0.129458
H	-0.5910593708	 1.7294588994	 0.8025176161	 0.118246
H	 1.380588789	 1.0543702887	 2.4042113683	 0.11696
H	 2.247046857	-0.8701881861	 3.8220474315	 0.257759
H	 2.4683495807	-3.9684920211	 2.5145842987	 0.244608
H	 1.0760292205	-3.9782018357	 3.3572648414	 0.244233
H	-0.1294776668	-2.518239802	-0.3230400804	 0.299936
38.2931	66.2049	166.9004	178.7491	209.9751	252.1156	264.6289	299.3626	305.1556	351.3354	439.7505	544.0723	614.828	617.2917	628.6817	701.7248	754.2389	775.6939	837.3972	993.3326	1083.7896	1130.8528	1182.5167	1207.4608	1216.5195	1238.4406	1264.6858	1314.2224	1351.0686	1453.9174	1473.0847	1480.7784	1509.2976	1522.3828	1595.0401	1657.9586	1692.0864	2992.8481	3045.7439	3129.4321	3280.6832	3489.2745	3546.7477	3698.6034	3814.3195
COC1=CNC(N)=C1O	COc1c[nH]c(N)c1O	
InChI=1S/C5H8N2O2/c1-9-3-2-7-5(6)4(3)8/h2,7-8H,6H2,1H3	InChI=1S/C5H8N2O2/c1-9-3-2-7-5(6)4(3)8/h2,7-8H,6H2,1H3
