14
gdb 127373	2.52841	1.87788	1.08484	4.7956	67.6	-0.2536	-0.0608	0.1928	1027.2324	0.101652	-470.006479	-469.998694	-469.99775	-470.03913	28.098	
C	-0.3474027658	 1.4053932188	 0.0258809763	-0.336898
N	-0.0260895195	-0.0183689773	-0.0130567494	-0.11427
C	 0.0173098205	-0.7173856055	-1.1851098177	 0.144017
N	 0.2838237974	-1.959418507	-1.3597583602	-0.145853
O	 0.5700857081	-2.6991689443	-0.1809288315	-0.255496
C	 0.5648726528	-2.1430684674	 1.0545975386	 0.42194
O	 0.8135445642	-2.816578978	 2.0153908402	-0.316415
C	 0.2414670303	-0.6730715329	 1.1797246923	 0.234457
N	 0.2108416112	-0.0577133682	 2.2902343276	-0.516509
H	 0.4802002025	 1.9622471297	 0.4717731601	 0.165562
H	-0.5280852179	 1.756018247	-0.9906460695	 0.139189
H	-1.2347729784	 1.5705877494	 0.6416158116	 0.165559
H	-0.199760077	-0.1609610947	-2.0903472641	 0.158898
H	 0.4359204915	-0.7213784995	 3.0332134257	 0.255819
93.6337	128.5855	149.6608	211.04	323.0026	360.0102	471.9	484.0555	537.4491	571.917	576.3091	684.731	791.5697	873.6015	916.7737	929.3662	937.399	1014.8656	1089.469	1155.3494	1189.2641	1210.6455	1349.7759	1380.6357	1438.4678	1467.4961	1471.3492	1516.4062	1704.6253	1716.4758	1842.2442	3058.046	3126.8415	3156.682	3205.1645	3485.4637
CN1C=NOC(=O)C1=N	CN1C=NOC(=O)[C]1[NH]	
InChI=1S/C4H5N3O2/c1-7-2-6-9-4(8)3(7)5/h2,5H,1H3	InChI=1S/C4H5N3O2/c1-7-2-6-9-4(8)3(7)5/h2,5H,1H3
