15
gdb 27835	1.96254	1.81416	0.94329	4.0295	73.93	-0.1951	-0.0028	0.1923	1155.842	0.11381	-454.022927	-454.014737	-454.013792	-454.055369	31.543	
N	 0.0182010689	 1.3820863256	-0.138537447	-0.584492
C	 0.0025648624	 0.0054254672	-0.0553652858	 0.424063
C	-1.1855970719	-0.6971156076	-0.0297435249	-0.385019
C	-1.2225300073	-2.1245273099	-0.0020434311	 0.430451
O	-2.1921510834	-2.8670353696	 0.0247628941	-0.418244
N	 0.0797917797	-2.7229615814	 0.0014036816	-0.466575
C	 1.250392656	-2.0374189136	-0.019104714	 0.527016
O	 2.4106974766	-2.7281439097	-0.0088538161	-0.417956
C	 1.2578313397	-0.6754552916	-0.0476568055	-0.363245
H	 0.8506977927	 1.8488027188	 0.184295701	 0.254123
H	-0.8351308644	 1.8579021218	 0.108671124	 0.256982
H	-2.1410077631	-0.1874604805	-0.0323696534	 0.09063
H	 0.0551285376	-3.7328272101	 0.0355508149	 0.246614
H	 2.2435647744	-3.6763871401	-0.0242416426	 0.304296
H	 2.200078692	-0.1473456094	-0.0821692152	 0.101354
141.9186	177.6005	198.9211	212.1503	325.4662	353.2004	385.5709	479.6855	504.2552	521.2073	527.5272	581.6459	625.8926	648.7188	695.004	730.1522	764.8223	818.0971	942.9893	1007.2278	1045.7828	1109.1593	1189.0538	1221.9021	1225.7192	1304.72	1342.3881	1475.8402	1521.2259	1593.5579	1657.7619	1701.2348	1781.9792	3205.699	3228.5941	3587.9289	3600.5098	3695.4857	3826.1598
NC1=CC(=O)NC(O)=C1	Nc1cc(=O)[nH]c(O)c1	
InChI=1S/C5H6N2O2/c6-3-1-4(8)7-5(9)2-3/h1-2H,(H4,6,7,8,9)	InChI=1S/C5H6N2O2/c6-3-1-4(8)7-5(9)2-3/h1-2H,(H4,6,7,8,9)
