18
gdb 34028	3.36852	1.30902	1.10117	1.8715	78.16	-0.2414	0.0373	0.2787	1121.9104	0.148902	-401.891099	-401.883205	-401.882261	-401.923319	31.072	
C	-0.0025016779	-1.1963513812	 0.0952495801	-0.401733
C	 0.0129636233	 0.0055927002	 0.0663347853	 0.282106
C	 0.0141418963	 1.44459281	-0.0144058578	 0.094868
C	-1.1707792594	 2.0664195682	-0.7660152236	-0.308284
C	-0.7530595422	 3.2752771979	-1.609870971	-0.080537
O	 0.1602309871	 4.1151452791	-0.9178526777	-0.245116
C	 1.4198490714	 3.4865811353	-0.776241832	-0.124934
C	 1.3213597482	 2.1868491728	-0.0041480171	-0.06074
N	 0.5086020877	 2.1394969039	 1.2077880646	-0.353368
H	-0.0100470477	-2.2571718827	 0.1398536164	 0.191906
H	-1.6251349025	 1.312590867	-1.4150899064	 0.120139
H	-1.9364894482	 2.3561472733	-0.0364400904	 0.118247
H	-0.2948374421	 2.9362400727	-2.5528298235	 0.096837
H	-1.6183817448	 3.8950847391	-1.8592753302	 0.113728
H	 1.8716082418	 3.2971308455	-1.7645061734	 0.100051
H	 2.0604465616	 4.1969535479	-0.2421262667	 0.11985
H	 2.2410788896	 1.608213149	 0.0440494533	 0.102917
H	 0.000649748	 3.0208583522	 1.2886337801	 0.234061
108.3813	143.8954	186.2761	290.8447	364.0943	379.8137	412.0612	504.0085	525.9687	579.7232	608.213	645.2208	650.6076	727.9346	809.9103	850.6299	875.0476	931.8652	966.6537	999.756	1045.2015	1067.7997	1103.1501	1141.6291	1151.8907	1184.5862	1222.8598	1272.2279	1301.0459	1316.1565	1331.9979	1361.3388	1387.2461	1413.8541	1438.0962	1484.3597	1491.2441	1505.5369	2238.4054	2969.1591	2979.3293	3036.2215	3066.7729	3090.526	3096.232	3138.4102	3461.0795	3503.2321
C#CC12CCOCC1N2	C#C[C@]12CCOC[C@H]1N2	
InChI=1S/C7H9NO/c1-2-7-3-4-9-5-6(7)8-7/h1,6,8H,3-5H2	InChI=1S/C7H9NO/c1-2-7-3-4-9-5-6(7)8-7/h1,6,8H,3-5H2/t6-,7+/m1/s1
