18
gdb 19571	3.7576	2.04881	1.8898	1.7025	70.96	-0.2542	0.0955	0.3497	798.7689	0.156246	-347.772932	-347.766583	-347.765638	-347.803063	26.098	
C	 0.0492398089	 1.4777680174	 0.0096977824	-0.310065
O	 1.2284186446	 0.6414218468	-0.0066354116	-0.303107
C	-0.0396296139	 0.0253406248	 0.0026709184	 0.548416
C	-0.5818108909	-0.9648502161	 1.0416380035	-0.126029
C	-1.7360962952	-1.1781816256	 0.013056691	-0.230001
C	-0.6025602214	-0.9535301428	-1.0359874925	-0.126029
C	 0.3045094259	-2.1808305021	-0.797580925	-0.211414
C	 0.3201817657	-2.1893822815	 0.7718051455	-0.211414
H	-0.1082736707	 2.0333741545	 0.9334150722	 0.115985
H	-0.126627851	 2.0433891686	-0.9045809329	 0.115985
H	-0.7672388653	-0.6822361984	 2.0773473422	 0.065578
H	-2.2299474555	-2.1531498926	 0.0126765458	 0.094035
H	-2.4738617767	-0.3733879307	 0.0248100343	 0.100341
H	-0.8086056725	-0.6596684124	-2.0646460841	 0.065578
H	-0.1212701451	-3.0946393867	-1.2208977277	 0.095223
H	 1.3015725664	-2.0387046529	-1.2216606692	 0.110848
H	 1.3255305358	-2.0517772298	 1.1774121139	 0.110848
H	-0.097158559	-3.1077960105	 1.1935579937	 0.095223
168.3202	242.881	273.8192	388.0441	406.0394	554.1265	601.6269	686.0091	802.7739	833.7139	837.9111	865.862	886.9205	904.0341	937.5443	963.641	975.7537	991.9549	1028.36	1049.5618	1073.4404	1115.0773	1134.675	1137.8568	1169.7425	1170.5149	1216.8339	1223.9839	1255.4692	1264.2343	1267.3807	1317.6755	1324.1313	1453.43	1489.209	1491.6941	1512.6335	1553.3388	3055.7873	3062.8462	3065.3871	3080.0112	3097.4966	3115.4108	3121.2363	3123.2738	3128.0235	3164.5741
C1OC11C2CC1CC2	C1O[C@]21[C@H]1C[C@@H]2CC1	
InChI=1S/C7H10O/c1-2-6-3-5(1)7(6)4-8-7/h5-6H,1-4H2	InChI=1S/C7H10O/c1-2-6-3-5(1)7(6)4-8-7/h5-6H,1-4H2/t5-,6+,7-
