13
gdb 20705	3.37835	2.41089	1.41904	1.1967	64.39	-0.2594	-0.0883	0.171	814.56	0.095589	-394.762698	-394.755827	-394.754883	-394.793987	25.004	
C	 0.0925299461	 1.4845331101	 0.024206121	-0.464546
C	 0.0030457521	-0.0044268875	-0.0160795299	 0.301289
N	-0.1355200074	-0.6259754326	-1.1375413585	-0.301902
C	-0.2090419661	-2.0089618908	-1.0695209923	 0.094946
N	-0.1579431682	-2.7675670524	-0.0348076073	-0.06778
O	-0.0077164956	-2.1067526048	 1.1890249772	-0.272887
C	 0.0781354579	-0.7365497702	 1.2643218455	 0.367355
N	 0.2142784314	-0.1376648522	 2.373945955	-0.511695
H	 1.0317828451	 1.7906828329	 0.495840038	 0.161988
H	 0.0234105729	 1.8869552492	-0.9863166697	 0.14387
H	-0.705082931	 1.8907500167	 0.6544284155	 0.161984
H	-0.3256039193	-2.5372953172	-2.0101742093	 0.150485
H	 0.2469271121	-0.802987381	 3.1490425249	 0.236893
83.9368	152.1845	228.451	307.1016	387.6917	468.9793	540.7785	559.8574	571.5553	717.6259	754.9033	883.684	890.7105	947.4028	948.8621	984.2834	1047.9948	1051.7619	1183.3987	1213.6873	1341.6059	1375.9782	1412.432	1455.0394	1461.6282	1602.4094	1671.6451	1721.4534	3050.6409	3107.0543	3162.6164	3199.0196	3472.4929
CC1=NC=NOC1=N	CC1=C(ON=C[N]1)[NH]	
InChI=1S/C4H5N3O/c1-3-4(5)8-7-2-6-3/h2,5H,1H3	InChI=1S/C4H5N3O/c1-3-4(5)8-7-2-6-3/h2,5H,1H3
