12
gdb 131021	5.36361	1.11412	0.9225	1.7315	70.66	-0.2591	-0.0988	0.1602	1136.6298	0.078147	-468.808901	-468.80194	-468.800996	-468.840739	25.191	
O	-0.1457232445	-0.0433646887	-0.0006065546	-0.235582
C	-0.0650123571	 1.1448446548	 0.0081235128	 0.209507
N	 1.1719999387	 1.8607112849	 0.0000730587	 0.03774
N	 2.317860277	 1.1593490219	-0.0185123634	-0.143901
C	 3.4206215966	 1.8375048002	-0.0253821998	-0.04664
C	 3.4848631374	 3.3049039993	-0.014249068	 0.291025
O	 4.5199581554	 3.948156259	-0.0204716625	-0.342195
C	 2.1422439568	 3.8979948912	 0.005792131	-0.051371
N	 1.0508888504	 3.2020572192	 0.0124031116	-0.17035
H	-0.8943989683	 1.8678996643	 0.023285421	 0.135621
H	 4.3439186274	 1.2652453518	-0.0404058154	 0.159118
H	 2.0350610001	 4.9787855021	 0.0158472587	 0.157026
79.9449	176.1269	228.7297	286.7382	420.6711	454.9127	455.5077	473.517	611.2597	663.236	773.4627	802.194	855.4589	950.6075	959.3337	979.8569	1030.9773	1163.1298	1275.9197	1280.7339	1342.7095	1367.2908	1408.0149	1594.8074	1623.2899	1765.197	1867.0842	3042.6682	3183.5437	3185.509
O=CN1N=CC(=O)C=N1	O=Cn1ncc(=O)cn1	
InChI=1S/C4H3N3O2/c8-3-7-5-1-4(9)2-6-7/h1-3H	InChI=1S/C4H3N3O2/c8-3-7-5-1-4(9)2-6-7/h1-3H
