13
gdb 131377	3.50865	1.67373	1.13317	2.49	65.93	-0.2127	-0.0034	0.2093	968.831	0.09221	-452.757764	-452.751025	-452.750081	-452.788774	25.977	
O	 0.0933202281	 1.3529389841	 0.068814113	-0.428367
C	 0.0738588197	 0.006141752	 0.0737211293	 0.285819
N	 0.0770759681	-0.7092475105	-1.0445372025	-0.329291
N	 0.05376156	-2.0269981858	-0.6597038846	-0.376228
C	 0.035495569	-2.1412948848	 0.6904052452	 0.344138
C	 0.0480312557	-0.8524798659	 1.1874711615	 0.213547
O	 0.0317124575	-0.851454435	 2.5495083483	-0.210689
C	 0.0084876927	-2.175648951	 2.8956414962	 0.00382
C	 0.0092888556	-3.0187644902	 1.8215507863	-0.344571
H	 0.1085102998	 1.6284995456	-0.8567423252	 0.305348
H	 0.0511167929	-2.7348612208	-1.3700757454	 0.272798
H	-0.007066191	-2.3680773965	 3.9564535314	 0.141541
H	-0.0066823443	-4.0956742212	 1.8605327664	 0.122135
184.9413	188.5254	273.3118	286.9283	388.1091	471.0014	555.8041	590.6457	643.9802	660.3084	686.2572	734.2359	757.8993	814.9892	843.3602	912.1065	1052.4449	1086.3384	1131.3612	1172.69	1202.8726	1287.534	1348.59	1370.9075	1449.7333	1516.5757	1572.1454	1608.7031	1638.1942	3261.5848	3281.9125	3708.9491	3792.3692
OC1=NNC2=C1OC=C2	Oc1n[nH]c2c1occ2	
InChI=1S/C5H4N2O2/c8-5-4-3(6-7-5)1-2-9-4/h1-2H,(H2,6,7,8)	InChI=1S/C5H4N2O2/c8-5-4-3(6-7-5)1-2-9-4/h1-2H,(H2,6,7,8)
