17
gdb 29288	5.65402	0.94617	0.86171	2.241	78.17	-0.1914	0.0165	0.2079	1332.1753	0.137935	-418.000314	-417.992205	-417.991261	-418.033304	30.748	
N	-0.0928864306	 1.4342106584	-0.1738294092	-0.605354
C	 0.0084669419	 0.0470478804	-0.0070302678	 0.237798
C	-0.9479221577	-0.8334660959	 0.4016963055	-0.103111
O	-0.4096997501	-2.0932293864	 0.5229950867	-0.206036
C	 0.9004093027	-2.0057514752	 0.1763718189	 0.416121
C	 1.2131605333	-0.7233710322	-0.1581059566	-0.371177
C	 1.6906899164	-3.2420927546	 0.2140633126	-0.105622
C	 1.3954803546	-4.3057022601	 1.2158957849	-0.237244
N	 1.0885792038	-4.5281749259	-0.2031022124	-0.323895
H	 0.4705654631	 1.7765975949	-0.9412664798	 0.246091
H	-1.0462256996	 1.7508762783	-0.293003602	 0.243803
H	-1.992711741	-0.7407475768	 0.6437671953	 0.120032
H	 2.1810039388	-0.3593532924	-0.46740545	 0.105025
H	 2.716643185	-3.1076250322	-0.1162202364	 0.097661
H	 2.2081549543	-4.9087544559	 1.6114348536	 0.119663
H	 0.5757713725	-4.1230305542	 1.9042063625	 0.125553
H	 0.0927804826	-4.3800896204	-0.3546146858	 0.240692
59.7624	140.6525	166.1883	223.6892	306.0327	321.3492	427.3677	455.8169	618.9123	624.9507	656.2636	704.744	717.2106	750.9909	794.6583	814.8093	871.9589	958.5582	971.2826	995.8665	1002.6811	1094.7697	1106.3957	1134.0461	1152.9938	1164.8823	1188.5733	1264.9896	1274.021	1301.6454	1345.8504	1385.0762	1450.5706	1502.8117	1594.6645	1653.2815	1681.1979	3112.4382	3153.1588	3204.1432	3250.0017	3283.4923	3495.3657	3539.4359	3628.7749
NC1=COC(=C1)C1CN1	Nc1coc(c1)[C@H]1CN1	
InChI=1S/C6H8N2O/c7-4-1-6(9-3-4)5-2-8-5/h1,3,5,8H,2,7H2	InChI=1S/C6H8N2O/c7-4-1-6(9-3-4)5-2-8-5/h1,3,5,8H,2,7H2/t5-/m1/s1
