12
gdb 5054	3.69287	2.3013	1.58165	4.2649	63.91	-0.2571	-0.0954	0.1618	756.6912	0.085639	-377.546654	-377.540558	-377.539614	-377.576931	22.542	
O	-0.0726133265	 0.2923739283	-0.9856414374	-0.314502
C	-0.0476259808	 1.2511964593	-0.2504962534	 0.348395
C	-1.2957849934	 1.8451287872	 0.30143737	-0.156066
C	-1.5503690578	 3.1665600634	 0.2239167541	-0.070911
C	-0.620949863	 4.1610678954	-0.2798088013	 0.020925
N	 0.6702471033	 4.1379138975	-0.2948887892	-0.220981
C	 1.3858990487	 3.0723358828	 0.2228723294	 0.080437
N	 1.1348032454	 1.8170564931	 0.2243132109	-0.228192
H	-2.0593291551	 1.1480022248	 0.6352635549	 0.145181
H	-2.5430849952	 3.5326214778	 0.4743432143	 0.12481
H	-1.0767834944	 5.0761496969	-0.6651543502	 0.132279
H	 2.3414743286	 3.3838510835	 0.6475200279	 0.138626
119.2024	254.3501	296.3567	345.6959	448.8322	501.9029	627.2776	647.1672	773.5611	791.6299	857.6391	911.9669	945.3571	989.1625	1016.1192	1030.7246	1064.4466	1185.767	1225.9775	1405.6059	1432.8241	1441.2501	1570.9389	1664.2966	1679.0477	1793.9764	3103.2073	3125.2819	3159.0537	3182.763
O=C1C=CC=NC=N1	O=c1cccncn1	
InChI=1S/C5H4N2O/c8-5-2-1-3-6-4-7-5/h1-4H	InChI=1S/C5H4N2O/c8-5-2-1-3-6-4-7-5/h1-4H
