20
gdb 76952	2.52875	1.37487	1.19894	1.6236	82.08	-0.2302	-0.0336	0.1965	1150.4128	0.16956	-403.116734	-403.107667	-403.106723	-403.15043	33.729	
C	-0.3036777079	 1.4091359142	-0.3804581807	-0.336332
N	-0.0434450975	-0.0050229069	-0.1118357695	-0.15338
C	 1.3189951966	-0.5622670106	-0.2755538287	-0.195846
C	 2.5109795922	 0.2564347564	-0.5967053316	 0.149547
O	 2.7033467162	 1.404648486	-0.2574668531	-0.281208
C	 0.6403451303	-0.3937346282	 1.0733432259	 0.380626
C	 1.157619656	 0.446494817	 2.2513614223	-0.295822
C	 1.0765504851	-0.8390433109	 3.1277341233	-0.21433
C	 0.2385353042	-1.5362721733	 2.0155363882	-0.297675
H	 0.5049960362	 2.0832638062	-0.0825304915	 0.151828
H	-0.48478139	 1.5317316314	-1.4522001337	 0.12458
H	-1.2215602443	 1.682317921	 0.1496751926	 0.122481
H	 1.3292344227	-1.5541534986	-0.7242095659	 0.094801
H	 3.2727938872	-0.2885707678	-1.1986800351	 0.080735
H	 2.1272940384	 0.9313933638	 2.1358740892	 0.129826
H	 0.4274600899	 1.2046532227	 2.5520694173	 0.108962
H	 2.0544419998	-1.3058557669	 3.266321847	 0.108423
H	 0.5991255491	-0.7347924216	 4.1034037309	 0.104102
H	-0.8363853136	-1.5189811721	 2.2193601246	 0.113231
H	 0.5234122693	-2.5499240417	 1.7245597583	 0.10545
86.6265	144.2348	160.8305	179.5858	202.295	232.9297	247.7791	358.4801	415.7127	469.2213	575.912	672.0623	734.3976	752.9773	783.3425	863.8592	881.8928	931.1387	950.4792	965.9056	1016.6796	1048.3873	1076.9145	1091.5629	1131.72	1142.5536	1168.5254	1187.6723	1218.222	1237.0678	1247.9517	1269.716	1279.1417	1344.9825	1420.8697	1428.9286	1458.9648	1472.2359	1482.4656	1485.5788	1505.9441	1513.7348	1785.4497	2874.4374	3033.6535	3056.0373	3060.4799	3072.5127	3106.8032	3107.3293	3111.483	3122.5907	3123.5063	3134.4183
CN1C(C=O)C11CCC1	CN1[C@@H](C=O)C21CCC2	
InChI=1S/C7H11NO/c1-8-6(5-9)7(8)3-2-4-7/h5-6H,2-4H2,1H3	InChI=1S/C7H11NO/c1-8-6(5-9)7(8)3-2-4-7/h5-6H,2-4H2,1H3/t6-,8?/m0/s1
