21
gdb 74299	2.50436	1.20901	1.11226	2.5546	86.37	-0.2272	-0.0215	0.2057	1257.2293	0.180831	-387.128693	-387.119074	-387.118129	-387.163178	35.72	
C	 0.0533963851	 1.5371385333	 0.3854348748	-0.490507
C	 0.0751596232	 0.0632323751	 0.1339608038	 0.336493
C	-0.0096563725	-0.5559302103	-1.0464768378	-0.231518
C	-0.0005517695	-2.0730164174	-0.9167209637	 0.177406
C	 0.9030147601	-2.765098801	-1.9516874929	-0.453314
C	 0.4378808258	-2.2839045591	 0.5540713523	-0.260843
C	 0.1719358077	-0.9374161986	 1.2675746085	-0.305154
C	-1.4398811288	-2.5309028437	-1.1482003385	 0.148197
O	-2.1555299743	-3.0469734028	-0.3283555526	-0.259661
H	 0.9660151554	 1.8629944199	 0.9003525908	 0.127521
H	-0.0391331657	 2.1083219102	-0.5420865758	 0.123967
H	-0.7846456906	 1.8094978802	 1.0397382917	 0.131381
H	-0.1184616385	-0.0600527341	-2.0059876366	 0.087036
H	 1.917939324	-2.3606174769	-1.8947265434	 0.124415
H	 0.9519491706	-3.8449514274	-1.7751764793	 0.125269
H	 0.536563077	-2.6080620859	-2.9726866255	 0.11564
H	-0.0993715693	-3.1171685842	 1.0103107801	 0.1205
H	 1.5074216618	-2.5137125643	 0.576852752	 0.09517
H	 0.9589770827	-0.6779879284	 1.9856982355	 0.100327
H	-0.7682885447	-0.9553232238	 1.8354446142	 0.119079
H	-1.8119997294	-2.3247097707	-2.1800473674	 0.068596
59.5972	104.1452	145.0507	185.4157	226.7743	260.1494	278.2162	316.8568	357.9622	379.606	472.4856	535.5321	584.0011	646.276	779.8773	831.4152	860.6495	885.3167	906.014	942.7961	980.879	997.4479	1012.6309	1027.1879	1055.8828	1122.9993	1143.268	1175.0889	1216.0183	1247.9755	1278.7168	1285.6894	1323.4014	1359.1097	1400.1435	1413.2052	1424.6773	1473.4128	1478.8882	1486.5848	1490.7343	1495.4253	1497.3948	1711.0737	1822.615	2846.7402	3015.4264	3020.0491	3026.5831	3046.3418	3062.8769	3065.0312	3093.5069	3108.0183	3112.3537	3121.269	3178.8885
CC1=CC(C)(CC1)C=O	CC1=C[C@@](C)(CC1)C=O	
InChI=1S/C8H12O/c1-7-3-4-8(2,5-7)6-9/h5-6H,3-4H2,1-2H3	InChI=1S/C8H12O/c1-7-3-4-8(2,5-7)6-9/h5-6H,3-4H2,1-2H3/t8-/m1/s1
