18
gdb 120128	2.87047	1.10432	0.93797	3.4228	71.58	-0.2488	-0.0152	0.2335	1278.1354	0.146983	-439.05657	-439.04784	-439.046895	-439.090809	32.021	
O	 0.0821086094	 1.2807603549	-0.1580264182	-0.41686
C	-0.1275117606	-0.1129430228	-0.3021224012	-0.059493
C	-1.4399218473	-0.5734291503	 0.3499622164	-0.250405
C	-1.6057144289	-2.0751487199	 0.2837797487	 0.000336
C	-2.8653466463	-2.8243160222	 0.1421798884	-0.053459
C	-3.9172750226	-2.1033447819	-0.6978505871	-0.379114
C	-2.8077182851	-2.0018135106	-1.7566478027	 0.400972
O	-2.7041604974	-1.5327357031	-2.8469215951	-0.300928
N	-1.8480110939	-2.8027198213	-1.0149982483	-0.195527
H	-0.5289813458	 1.7347553078	-0.7466606504	 0.286211
H	-0.1089039534	-0.4226064335	-1.3564039308	 0.122021
H	 0.7212445306	-0.5976422996	 0.1931761028	 0.11398
H	-1.438581683	-0.264193178	 1.4017397936	 0.116746
H	-2.2780474016	-0.0559174781	-0.1298333794	 0.103236
H	-0.8358452506	-2.6119704472	 0.8357667005	 0.115664
H	-3.0434914516	-3.7532284364	 0.6709963344	 0.114626
H	-4.7187689455	-2.7653572253	-1.0363892595	 0.1468
H	-4.3545324064	-1.1760658926	-0.3208141723	 0.135193
55.2949	92.2252	119.9055	163.2125	266.6111	297.6204	356.9599	446.6121	476.7639	511.2039	606.162	645.9452	741.5382	780.8183	813.8252	851.8884	942.0863	962.2423	1002.852	1026.5885	1042.0048	1058.7698	1075.9498	1096.336	1116.4306	1156.8446	1194.7752	1224.9506	1262.4596	1293.0057	1316.1554	1355.4522	1401.6877	1419.7509	1445.5221	1458.5584	1487.4216	1510.5799	1910.7819	3011.2361	3038.0685	3062.9332	3071.0339	3085.9924	3123.882	3128.5427	3188.4286	3820.0038
OCCC1C2CC(=O)N12	OCC[C@H]1[C@H]2CC(=O)N12	
InChI=1S/C6H9NO2/c8-2-1-4-5-3-6(9)7(4)5/h4-5,8H,1-3H2	InChI=1S/C6H9NO2/c8-2-1-4-5-3-6(9)7(4)5/h4-5,8H,1-3H2/t4-,5+,7?/m0/s1
