16
gdb 70659	2.46066	1.5911	1.18682	2.0032	68.03	-0.2517	0.0208	0.2725	1039.5183	0.124655	-437.876078	-437.86823	-437.867285	-437.908405	30.032	
O	 0.3012749289	 1.256411822	-0.3071525015	-0.463971
C	 0.0070050583	-0.0720802684	-0.0489404501	 0.361328
C	-0.6846817941	-0.9458855422	-1.0767797473	-0.392319
C	-1.3928170596	-0.531979459	 0.2006960383	 0.058634
O	-1.4442610085	-1.4265975456	 1.279009092	-0.248485
C	-0.1290106816	-1.9120433133	 1.5135726401	-0.111467
C	 0.8372077096	-0.7943226458	 1.0243157833	-0.227264
C	 2.1195767606	-1.3053507886	 0.5549544258	 0.257902
N	 3.1308539873	-1.7044555362	 0.1616421111	-0.322565
H	 1.0148680116	 1.2898462623	-0.9550668587	 0.297272
H	-1.0109796395	-0.434035716	-1.9755786221	 0.130363
H	-0.368120599	-1.9726173802	-1.2250426284	 0.133522
H	-2.2455716194	 0.1339746871	 0.1643685871	 0.126463
H	-0.0247826705	-2.1226289189	 2.5796787346	 0.135658
H	 0.0538037999	-2.839776627	 0.9569588417	 0.123553
H	 1.0196351161	-0.0657033701	 1.8217478539	 0.141376
105.5651	128.5473	247.1824	252.041	337.1062	355.053	395.8752	449.9898	520.1727	537.5398	583.9116	688.6687	706.9021	832.5386	879.7982	941.4988	984.1108	996.9456	1023.792	1028.8475	1033.439	1057.829	1085.3498	1162.5904	1202.5028	1244.8909	1259.8932	1281.3333	1331.6334	1336.6803	1391.2571	1415.0555	1484.3006	1523.6855	2355.2142	3026.7495	3059.7805	3113.1642	3136.7489	3203.5466	3228.4205	3787.1646
OC12CC1OCC2C#N	O[C@]12C[C@H]1OC[C@H]2C#N	
InChI=1S/C6H7NO2/c7-2-4-3-9-5-1-6(4,5)8/h4-5,8H,1,3H2	InChI=1S/C6H7NO2/c7-2-4-3-9-5-1-6(4,5)8/h4-5,8H,1,3H2/t4-,5-,6+/m1/s1
