17
gdb 42704	3.17904	1.85858	1.7739	3.2223	74.1	-0.2315	-0.0122	0.2193	846.5461	0.13846	-384.63888	-384.632889	-384.631944	-384.669059	25.58	
O	 0.0014336378	 0.0416599099	 0.0337030659	-0.331538
C	-0.0141758797	 1.2398252269	 0.0599386806	 0.445069
C	-1.1197501516	 2.2942629352	-0.0263330932	-0.181965
C	-1.0928230784	 3.2231033041	 1.259630519	-0.045383
C	-0.0010242707	 2.7918983105	 2.2686928471	-0.252576
C	 1.0473991202	 3.2517044841	 1.2267940431	-0.045383
C	-0.04559699	 4.1560125251	 0.5517298272	-0.043076
C	-0.052629505	 3.2446730526	-0.7003783477	-0.049036
C	 1.0596706373	 2.3233854011	-0.0597680202	-0.181965
H	-2.0926742158	 2.0365072935	-0.44170639	 0.084129
H	-2.0678052835	 3.5536467605	 1.6149361718	 0.075614
H	 0.0031711613	 3.4669918821	 3.1302354975	 0.10334
H	 0.0182298452	 1.756067699	 2.6213625028	 0.113681
H	 2.0236429827	 3.6083224147	 1.5521601179	 0.075613
H	-0.059666344	 5.2434048562	 0.5819095311	 0.0701
H	-0.0725436896	 3.5314622717	-1.748745018	 0.079245
H	 2.0259321239	 2.0915368227	-0.504896365	 0.08413
126.7548	327.0605	399.7287	454.1829	544.6925	621.9012	668.8587	776.7975	790.3658	807.4113	815.1833	819.5401	871.4853	877.7324	888.4147	948.513	949.1848	989.3273	990.3551	1017.748	1028.401	1077.29	1098.2639	1115.1352	1160.0368	1161.0708	1179.3976	1184.3043	1202.9915	1218.265	1243.8731	1270.9146	1274.2162	1291.5414	1310.2036	1490.1996	1874.5418	3043.935	3098.0524	3112.6329	3114.8084	3129.1675	3130.3005	3132.8225	3149.2237
O=C1C2C3CC4C3C2C14	O=C1[C@H]2[C@H]3C[C@@H]4[C@H]3[C@H]2[C@H]14	
InChI=1S/C8H8O/c9-8-5-2-1-3-4(2)7(5)6(3)8/h2-7H,1H2	InChI=1S/C8H8O/c9-8-5-2-1-3-4(2)7(5)6(3)8/h2-7H,1H2/t2-,3+,4-,5-,6+,7+
