17
gdb 54204	2.80739	1.52879	1.22417	2.9756	67.8	-0.2358	0.0188	0.2546	1035.745	0.135778	-455.124221	-455.115814	-455.11487	-455.157129	32.457	
N	 0.0792930873	 1.2175865187	 0.5606332595	-0.528189
C	 0.1016521713	 0.0516053811	-0.1280815566	 0.379631
O	 1.0928984867	-0.398385855	-0.6772299039	-0.378366
C	-1.2221814877	-0.7174108551	-0.1402402458	 0.311818
O	-2.2606852093	 0.1664766564	 0.2467850068	-0.502863
C	-1.5374669117	-1.5613033058	-1.4049446216	-0.222996
N	-1.7093202285	-2.8281517779	-0.598136835	-0.137692
C	-0.3888077052	-3.0774450393	 0.0084425067	-0.243012
C	-1.252265617	-2.0518988469	 0.6253315889	-0.118497
H	 0.9085434574	 1.7878130573	 0.5683813708	 0.261675
H	-0.7937041672	 1.5796650102	 0.9040867045	 0.276338
H	-3.0623528713	-0.3494470635	 0.3853416476	 0.290822
H	-2.4836425657	-1.2618565041	-1.8613856825	 0.109689
H	-0.75114048	-1.6175867628	-2.1604438308	 0.130315
H	-0.3330820091	-4.0374609994	 0.5125547074	 0.121434
H	 0.508533561	-2.7655442826	-0.5164529221	 0.154477
H	-1.7202238911	-2.1649037715	 1.6000167659	 0.095415
58.6707	160.4452	208.3266	294.4376	306.1741	323.5185	383.3468	398.5093	433.1378	476.7466	555.81	619.5094	650.2117	737.3128	767.2539	794.8292	842.3896	923.2976	951.0194	974.8847	1050.1501	1072.5532	1089.7921	1097.5694	1117.0062	1128.2933	1187.7278	1205.3716	1225.6183	1273.5839	1309.5174	1350.3685	1429.685	1480.6131	1500.8746	1597.3127	1787.6456	3067.0616	3122.6539	3132.415	3145.0528	3218.0708	3601.4153	3741.2817	3808.2123
NC(=O)C1(O)CN2CC12	NC(=O)[C@@]1(O)CN2C[C@@H]12	
InChI=1S/C5H8N2O2/c6-4(8)5(9)2-7-1-3(5)7/h3,9H,1-2H2,(H2,6,8)	InChI=1S/C5H8N2O2/c6-4(8)5(9)2-7-1-3(5)7/h3,9H,1-2H2,(H2,6,8)/t3-,5+,7?/m0/s1
