15
gdb 128057	4.50332	1.09061	0.88302	1.4242	70.5	-0.2393	-0.0612	0.1781	1253.4769	0.113639	-450.13022	-450.121738	-450.120794	-450.164298	29.237	
C	-0.0187619534	 1.3738499479	 0.082966536	-0.313164
N	 0.0008680441	-0.0651735231	-0.0834272542	-0.316034
C	 0.6376376934	-0.6346728197	-1.1452528819	 0.259655
N	 1.160531983	 0.0586177373	-2.0862179983	-0.539411
C	 0.6591558512	-2.119435265	-1.1324529863	 0.434786
N	 1.1751506969	-2.9085411644	-2.0287943738	-0.319817
C	 0.9149746412	-4.1446841117	-1.4996503158	 0.039758
N	 0.2847757211	-4.1440586168	-0.3556058334	-0.10716
O	 0.1083092339	-2.778328554	-0.1027276146	-0.218347
H	 0.9884687731	 1.7820030348	 0.2328535342	 0.137355
H	-0.4354805032	 1.8470711797	-0.8102890668	 0.154338
H	-0.6408285019	 1.6203591805	 0.9452521263	 0.1242
H	-0.2458716596	-0.6516363749	 0.6942472911	 0.265386
H	 1.5509420446	-0.5593786988	-2.7953626254	 0.240972
H	 1.2022868658	-5.0698251118	-1.9775990271	 0.157482
60.5988	90.6613	113.9607	158.3126	224.4324	283.8543	327.8249	403.2317	477.5688	621.9115	655.909	785.2899	795.2874	864.0293	914.3112	935.5394	978.6701	988.7981	1049.3802	1157.0948	1181.4459	1186.8843	1202.4204	1241.3137	1295.665	1350.5909	1455.2232	1472.6041	1492.9107	1514.3959	1560.8997	1623.3796	1701.8854	3027.2654	3093.5526	3138.9374	3264.9408	3513.4724	3677.2409
CNC(=N)C1=NC=NO1	CNC(=N)c1ncno1	
InChI=1S/C4H6N4O/c1-6-3(5)4-7-2-8-9-4/h2H,1H3,(H2,5,6)	InChI=1S/C4H6N4O/c1-6-3(5)4-7-2-8-9-4/h2H,1H3,(H2,5,6)
