21
gdb 89175	2.30078	1.54035	1.16409	1.3927	78.95	-0.2383	0.0693	0.3076	1149.15	0.180102	-424.194001	-424.184201	-424.183257	-424.227601	37.771	
C	-0.0889377901	 1.5515442515	 0.0890044564	-0.457555
C	 0.0492997508	 0.0382940494	 0.0545697322	 0.248988
C	-1.1626676751	-0.6473258624	-0.5636854092	-0.455506
C	 1.3520607761	-0.6913586732	-0.2569011068	-0.164856
C	 2.5885278707	-0.0377312261	 0.3427293829	 0.110088
O	 2.9591011984	 1.1957690765	-0.2405568157	-0.427946
C	 1.9180590037	-0.0524824525	 1.7639624822	-0.361368
C	 0.7169164002	-0.7715831631	 1.138178189	 0.344168
O	 0.1402210101	-1.8928489156	 1.7185018372	-0.456471
H	 0.8031761756	 2.0505258829	 0.4639837524	 0.132809
H	-0.267814121	 1.9346224319	-0.9222481667	 0.114606
H	-0.9471250388	 1.844758952	 0.7068848901	 0.097242
H	-1.3012890491	-0.317587554	-1.5990558377	 0.11609
H	-1.0658872217	-1.7349852814	-0.5559586175	 0.128481
H	-2.0764797707	-0.3893458631	-0.0142438837	 0.104243
H	 1.3786307827	-1.4392759708	-1.0411589286	 0.083704
H	 3.4334747788	-0.73892064	 0.3218231577	 0.077097
H	 3.7617920083	 1.5017910852	 0.1937381356	 0.282771
H	 2.4533808281	-0.6926098723	 2.4689781848	 0.104902
H	 1.7327928415	 0.9214484014	 2.2269404559	 0.092787
H	-0.6174561884	-1.6078601061	 2.2412336893	 0.285726
142.9028	168.9984	178.7344	201.2224	221.7932	236.2697	288.4244	301.4644	319.6833	364.8321	420.7337	455.339	465.8901	594.4901	633.5058	678.1749	708.0233	848.8802	922.0301	948.2522	964.3935	973.269	988.013	1016.2056	1029.679	1072.7156	1137.8294	1153.4907	1161.8943	1174.5473	1216.1296	1250.4728	1264.0491	1276.9803	1325.3003	1337.7966	1403.0979	1419.2273	1425.99	1441.5339	1480.7864	1485.6633	1493.6085	1509.0911	1515.689	3004.0768	3021.4655	3026.7409	3052.1699	3076.3006	3081.591	3112.3379	3126.0606	3156.849	3175.2053	3792.387	3813.4823
CC1(C)C2C(O)CC12O	CC1(C)[C@H]2[C@@H](O)C[C@@]12O	
InChI=1S/C7H12O2/c1-6(2)5-4(8)3-7(5,6)9/h4-5,8-9H,3H2,1-2H3	InChI=1S/C7H12O2/c1-6(2)5-4(8)3-7(5,6)9/h4-5,8-9H,3H2,1-2H3/t4-,5+,7-/m0/s1
