17
gdb 16674	2.95595	2.30719	1.74733	1.0991	62.67	-0.2348	0.0575	0.2922	799.2112	0.144023	-400.970556	-400.963475	-400.962531	-401.001484	27.942	
O	-0.1749997424	 1.2422082394	 0.9946927621	-0.430113
C	 0.0695528394	 0.1094210594	 0.1784932693	 0.054126
C	 0.8821722921	-0.9425463779	 0.9484811652	-0.169993
N	-0.0418548593	-1.9507676052	 1.517802544	-0.099728
C	-1.1329660508	-1.3600423786	 2.3048963142	-0.263538
C	-1.3501026778	-1.7410155821	 0.8768556145	-0.076514
C	-1.270630246	-0.6270490766	-0.1523751033	 0.107461
O	-2.3801625429	 0.2682866769	-0.1542705852	-0.442821
H	-0.97346596	 1.6483971447	 0.6274177031	 0.281337
H	 0.5832325704	 0.4154660923	-0.7437793326	 0.073863
H	 1.5576805803	-1.4715988037	 0.2682525049	 0.109473
H	 1.4830971734	-0.4801873715	 1.7361023942	 0.12456
H	-1.5231740339	-2.0047773692	 3.0872259888	 0.117082
H	-1.0668573126	-0.3053274939	 2.5543884447	 0.136321
H	-1.9231767644	-2.6306142664	 0.6318261618	 0.094819
H	-1.2215292823	-1.0517545857	-1.1606824348	 0.092973
H	-2.7821899831	 0.2213863881	 0.7197714491	 0.290692
137.8033	202.2337	239.7984	309.9322	361.5086	398.4449	480.0245	552.245	584.1875	671.6719	736.0311	800.1513	816.5876	873.859	902.8857	960.7893	983.2025	1021.0033	1039.0701	1085.147	1114.2477	1130.3397	1140.6462	1183.005	1222.8816	1248.8533	1263.6727	1285.1337	1330.3267	1341.3586	1365.1081	1392.4131	1406.9248	1428.4064	1483.9643	1501.4699	2994.6364	3050.8591	3057.4844	3106.387	3113.5568	3149.6843	3207.6833	3731.0625	3812.0292
OC1CN2CC2C1O	O[C@H]1CN2C[C@H]2[C@H]1O	
InChI=1S/C5H9NO2/c7-4-2-6-1-3(6)5(4)8/h3-5,7-8H,1-2H2	InChI=1S/C5H9NO2/c7-4-2-6-1-3(6)5(4)8/h3-5,7-8H,1-2H2/t3-,4-,5+,6?/m0/s1
