16
gdb 126865	1.55847	0.98124	0.61536	3.9018	79.36	-0.2375	-0.0365	0.2009	1745.5048	0.117446	-434.107339	-434.095157	-434.094213	-434.150393	36.339	
C	 0.3633628234	 1.3965983093	-0.3014306697	-0.371728
C	-0.3847547892	 0.460835279	 0.6432372895	-0.151594
N	 0.5503785025	-0.3984047641	 1.3641109803	-0.267299
C	 0.6411250146	-0.681291386	 2.5252764263	 0.451911
C	 0.8134800419	-1.0833682446	 3.782595387	-0.380494
C	 0.1262817739	-2.261856824	 4.301187574	 0.152851
O	-0.6500345893	-2.9666924336	 3.6882011728	-0.303653
N	-2.6134668844	-3.7421723738	 1.1430977374	 0.010046
N	-2.1832840318	-2.7456943383	 0.9749213948	-0.011594
H	 0.9758028317	 0.8269678101	-1.0051232888	 0.138677
H	-0.3518899377	 1.9990414312	-0.8684946631	 0.126956
H	 1.0183114383	 2.0739804262	 0.2538453427	 0.130162
H	-1.0076670491	 1.0227865676	 1.3487831917	 0.124188
H	-1.040251329	-0.2087753485	 0.0783707709	 0.152055
H	 1.4749064469	-0.5196584963	 4.4299000586	 0.129503
H	 0.3788140373	-2.4810624943	 5.3614211857	 0.070013
14.4266	33.4502	38.3906	46.6158	57.0236	72.9743	95.7951	135.4396	165.3919	241.6252	291.9414	398.082	462.6583	609.4957	696.0303	742.9557	804.4122	848.3558	961.2219	1024.7526	1026.0499	1108.6651	1152.6357	1191.7301	1298.4405	1370.1298	1413.0882	1430.2165	1445.6211	1488.1304	1490.5887	1508.0064	1759.8437	2177.349	2435.0472	2891.1583	3035.556	3047.9086	3090.8128	3123.3847	3130.1661	3197.4312	14.4304	33.4524	38.3931	46.6165	57.0243	72.975	95.7955	135.4399	165.3927	241.6266	291.9427	398.082	462.6584	609.4962	696.0318	742.9568	804.4122	848.3569	961.2221	1024.7536	1026.0506	1108.6645	1152.6349	1191.7315	1298.4395	1370.1292	1413.0872	1430.2176	1445.6219	1488.1292	1490.5877	1508.005	1759.8443	2177.3504	2435.0472	2891.1586	3035.5563	3047.9085	3090.8129	3123.3847	3130.1662	3197.4313
CCN=C1C=CON=N1	CC[N][C][CH]C=O.N#N	
InChI=1S/C5H7N3O/c1-2-6-5-3-4-9-8-7-5/h3-4H,2H2,1H3	InChI=1S/C5H7NO.N2/c1-2-6-4-3-5-7;1-2/h3,5H,2H2,1H3;
