15
gdb 54435	3.73223	1.16422	0.99524	2.2492	67.48	-0.2584	-0.0576	0.2007	1161.8113	0.109215	-457.755309	-457.746863	-457.745919	-457.789059	30.328	
C	 1.0338996869	 0.4944294044	 0.5085479539	-0.487989
C	-0.3419279219	 0.3011564377	-0.0876683771	 0.279598
O	-1.3671060166	 0.6294599088	 0.4661666769	-0.295657
C	-0.4121559721	-0.3229545145	-1.441556277	 0.318067
C	-1.6243506019	-0.4283133536	-2.3764510039	-0.41682
C	-1.0888154902	-1.8356789559	-2.7669145919	 0.429916
O	-1.5289029645	-2.7527588555	-3.3880991316	-0.283617
C	 0.1341382702	-1.6628706434	-1.8585335173	-0.173196
O	 0.7515449717	-0.4347020469	-2.2586285079	-0.261538
H	 1.6221439809	-0.4271553595	 0.4613791321	 0.144096
H	 1.5829986272	 1.24379501	-0.0717302587	 0.160311
H	 0.9343708748	 0.8276650606	 1.5417687826	 0.147763
H	-2.5811602709	-0.5064151539	-1.8550239508	 0.163299
H	-1.6779334014	 0.328945578	-3.160060106	 0.142948
H	 0.7408610877	-2.3865839563	-1.3255969634	 0.132819
69.316	89.3721	117.0584	173.162	251.7112	333.3584	434.5804	449.7863	496.5918	571.8631	588.9373	619.9394	681.7174	780.2967	843.0553	924.516	949.0587	982.0333	994.1094	1033.8724	1047.4427	1090.7966	1134.1988	1200.0226	1212.9581	1273.1856	1380.6116	1402.7517	1443.7884	1456.2744	1470.9899	1797.1209	1908.464	3046.9772	3084.308	3108.73	3146.8837	3159.8449	3189.9898
CC(=O)C12CC(=O)C1O2	CC(=O)[C@]12CC(=O)[C@H]1O2	
InChI=1S/C6H6O3/c1-3(7)6-2-4(8)5(6)9-6/h5H,2H2,1H3	InChI=1S/C6H6O3/c1-3(7)6-2-4(8)5(6)9-6/h5H,2H2,1H3/t5-,6-/m1/s1
