18
gdb 80953	2.455	1.36843	1.25102	1.6614	79.76	-0.243	0.025	0.268	1117.1773	0.145819	-401.835721	-401.826928	-401.825984	-401.868697	33.96	
C	-0.0593155778	 1.5775981523	-0.0495660897	-0.449373
C	 0.085832914	 0.0729480256	 0.0469723164	 0.04915
N	 1.2808909678	-0.6104930885	-0.6790627332	-0.15993
C	 2.1371411929	-0.1637557245	 0.5161207844	-0.248627
C	 0.8299564456	-0.6456836805	 1.1886192097	 0.330894
O	 0.4341121864	-0.6293188895	 2.5099626527	-0.456948
C	 0.9487333205	-1.8520839818	 0.1900357809	-0.251032
C	-0.1963470044	-2.6542553674	-0.1757315334	 0.345462
C	-1.1263903505	-3.3662517789	-0.4493321698	-0.427446
H	-0.2446744797	 1.8639069255	-1.0898849446	 0.133194
H	-0.9249143363	 1.8920599106	 0.5424257485	 0.131547
H	 0.8056129456	 2.1399350885	 0.3074900166	 0.121449
H	-0.852090465	-0.4036107884	-0.2475330595	 0.094732
H	 3.038983878	-0.7679151321	 0.6488522381	 0.098463
H	 2.3741438018	 0.898032368	 0.5200227472	 0.109961
H	 1.0655388109	-1.1332962774	 3.0356281597	 0.284985
H	 1.8338660826	-2.4823454672	 0.3199612757	 0.096282
H	-1.9527903725	-3.9854682545	-0.6975066096	 0.197234
125.7445	146.6978	155.7801	203.6858	241.7275	312.2433	352.3853	398.5084	454.0722	513.5151	543.2237	619.1503	633.3854	656.9063	664.1978	762.7568	786.2042	823.7866	895.3091	926.4288	994.1711	1039.0098	1068.4239	1082.3098	1116.8607	1134.3536	1152.7106	1165.8137	1196.1315	1246.6502	1281.7416	1351.2737	1392.4825	1409.55	1441.9937	1493.4697	1498.5606	1541.6124	2230.355	3044.1996	3059.195	3068.4559	3082.773	3106.4308	3126.9368	3161.2197	3502.0221	3802.6657
CC1N2CC1(O)C2C#C	C[C@H]1N2C[C@]1(O)[C@H]2C#C	
InChI=1S/C7H9NO/c1-3-6-7(9)4-8(6)5(7)2/h1,5-6,9H,4H2,2H3	InChI=1S/C7H9NO/c1-3-6-7(9)4-8(6)5(7)2/h1,5-6,9H,4H2,2H3/t5-,6-,7-/m1/s1
