13
gdb 33350	5.76857	0.72301	0.69476	3.7676	77.47	-0.278	-0.0623	0.2157	1527.8048	0.090393	-415.599086	-415.591335	-415.590391	-415.63272	26.906	
N	-0.1693941297	-3.8066927536	-0.1872071816	-0.327515
C	-0.0964439275	-2.6492392815	-0.1245283386	 0.217946
C	-0.0140819964	-1.2882395318	-0.0509848763	-0.008598
C	 0.0625074417	-0.0847081224	 0.0133760701	 0.171045
C	 0.1103505136	 1.3643423586	 0.1027834893	-0.103116
C	-0.4874812796	 1.9529361587	 1.4309992501	-0.198821
N	 0.6297820655	 2.6722915031	 2.0506805771	-0.24412
C	 1.6200951735	 2.5284642796	 1.2795058609	 0.130211
O	 1.4906158551	 1.8176916307	 0.1262794559	-0.216026
H	-0.3602026425	 1.7989016744	-0.7849941638	 0.141464
H	-1.3160931068	 2.6366613838	 1.2278841445	 0.136678
H	-0.851841223	 1.167850914	 2.0984993643	 0.142407
H	 2.613862846	 2.9305730862	 1.4389973482	 0.158445
51.5965	84.4753	124.9019	229.2704	264.9268	426.8335	479.4379	512.6708	573.6872	589.1693	714.2862	755.3078	865.3088	925.471	956.9396	965.8996	987.7254	1041.0322	1103.1254	1182.4145	1208.0301	1283.6199	1312.6116	1332.1583	1365.6673	1498.2642	1718.2582	2267.7016	2401.9865	3056.3841	3064.9758	3107.0554	3226.8802
N#CC#CC1CN=CO1	N#CC#C[C@H]1CN=CO1	
InChI=1S/C6H4N2O/c7-3-1-2-6-4-8-5-9-6/h5-6H,4H2	InChI=1S/C6H4N2O/c7-3-1-2-6-4-8-5-9-6/h5-6H,4H2/t6-/m0/s1
