17
gdb 93340	2.2451	1.71383	1.01917	6.8833	70.72	-0.2461	-0.0093	0.2368	1135.3539	0.136946	-455.216641	-455.208065	-455.207121	-455.250326	30.937	
C	-0.1773447899	 1.5391573425	 0.0115372429	-0.409507
C	 0.062294265	 0.031492793	 0.0227066522	 0.039939
C	 0.8934237338	-0.4433115942	-1.1931435008	-0.186437
N	 1.6921822543	-1.5129124893	-0.6302262305	-0.362312
C	 1.8535035661	-1.3929220342	 0.7371080592	 0.474289
O	 2.640077582	-1.9834562167	 1.4256750554	-0.362356
N	 0.8748470606	-0.4457863932	 1.1565826178	-0.159584
C	 0.5203934807	-0.2097007208	 2.4757560069	 0.156941
O	 1.0870898926	-0.6159280895	 3.4546873004	-0.274411
H	 0.7712342187	 2.0808443048	 0.0731689826	 0.136315
H	-0.6790903722	 1.822587598	-0.919609316	 0.130582
H	-0.8137003664	 1.8622293668	 0.8389598562	 0.135473
H	-0.9022295266	-0.4930832901	 0.0260337063	 0.105825
H	 0.2501751413	-0.7940016503	-2.0048181836	 0.125167
H	 1.5123633054	 0.3805953864	-1.5778969037	 0.112234
H	 2.4596975098	-1.9237711388	-1.1374722	 0.260975
H	-0.3834523553	 0.4297387956	 2.5295672447	 0.076868
55.8834	129.8797	176.9468	201.3753	223.6197	261.5467	310.0304	454.758	475.2473	497.0096	528.6435	657.9059	726.9798	770.8917	805.9935	903.9004	964.5535	1004.2998	1030.605	1085.9063	1128.3	1148.3693	1186.6601	1221.9023	1244.5294	1304.6376	1344.8676	1385.611	1387.6822	1414.1818	1444.8498	1460.6288	1494.4627	1502.0404	1534.1229	1805.2656	1893.2825	2927.6235	2993.0395	3014.257	3042.7658	3080.6731	3113.1387	3126.8936	3646.6628
CC1CNC(=O)N1C=O	C[C@H]1CNC(=O)N1C=O	
InChI=1S/C5H8N2O2/c1-4-2-6-5(9)7(4)3-8/h3-4H,2H2,1H3,(H,6,9)	InChI=1S/C5H8N2O2/c1-4-2-6-5(9)7(4)3-8/h3-4H,2H2,1H3,(H,6,9)/t4-/m0/s1
