18
gdb 86753	3.0939	1.0997	0.88246	4.9102	79.05	-0.2625	-0.0036	0.2589	1310.2738	0.147334	-401.979037	-401.969926	-401.968982	-402.013214	33.224	
C	-0.1799126583	 1.5862963227	 0.0977212693	-0.503835
C	-0.1017907815	 0.0924712801	 0.0888148353	 0.312599
C	-0.2423094197	-0.7187151732	-0.9585734476	-0.170903
C	-0.034485434	-2.1784574645	-0.594318395	-0.174838
C	-0.0566962803	-2.1497044212	 0.9630105865	-0.235575
C	 0.2495650648	-0.6924462799	 1.3441379999	 0.015791
O	 1.6426476931	-0.5972915119	 1.6553263407	-0.436487
C	-1.0412697646	-3.0726086518	-1.1683281065	 0.259222
N	-1.8389825113	-3.774560963	-1.6235888521	-0.32921
H	 0.7674979642	 2.0321232181	 0.4279783522	 0.123549
H	-0.405673682	 1.9868013408	-0.8935069517	 0.136286
H	-0.9523044465	 1.9366828377	 0.7937298144	 0.134578
H	-0.4430924615	-0.4103744207	-1.9782486784	 0.114349
H	 0.942896448	-2.5191607507	-0.9624509483	 0.139198
H	-1.0533566387	-2.4244562868	 1.3147882506	 0.129273
H	 0.6665906843	-2.8334464509	 1.4095393761	 0.130323
H	-0.3438683291	-0.3713474045	 2.2132117788	 0.070945
H	 1.8358583431	 0.3118557597	 1.9054829657	 0.284737
58.6108	113.8522	156.9309	187.4865	240.1892	241.9467	283.1645	338.593	392.7072	500.7523	554.8746	578.6285	625.2894	684.5298	851.323	862.6292	875.4896	933.7836	976.4099	1006.8264	1034.6941	1050.9278	1062.5509	1079.6518	1177.0098	1206.9388	1229.9433	1269.9628	1290.189	1297.2217	1348.6087	1365.6022	1404.0231	1417.6015	1479.0656	1481.1909	1486.4774	1726.0002	2355.9564	2986.2151	3017.0705	3017.5511	3064.407	3083.6894	3118.1451	3138.1839	3200.1367	3819.2604
CC1=CC(CC1O)C#N	CC1=C[C@@H](C[C@H]1O)C#N	
InChI=1S/C7H9NO/c1-5-2-6(4-8)3-7(5)9/h2,6-7,9H,3H2,1H3	InChI=1S/C7H9NO/c1-5-2-6(4-8)3-7(5)9/h2,6-7,9H,3H2,1H3/t6-,7+/m0/s1
