13
gdb 11217	3.66282	1.7939	1.42217	5.394	54.4	-0.269	-0.0529	0.2161	845.9481	0.096206	-435.789161	-435.782244	-435.7813	-435.820974	24.34	
O	 0.0802159533	-0.121845898	 0.0054965036	-0.229854
C	 0.0260669636	 1.0730859806	 0.1175571485	 0.155162
C	 1.2433406191	 1.9867811594	 0.0036605902	-0.10169
C	 1.4983280345	 2.8328260746	 1.2775752888	-0.10078
O	 2.5152932235	 2.1260733772	 1.9813016993	-0.231226
C	 3.1108866538	 1.2072925083	 1.1541913022	 0.482499
O	 4.020564881	 0.509825892	 1.4897951495	-0.37134
N	 2.4890237582	 1.2667791611	-0.0875360789	-0.354323
H	-0.9361656529	 1.6062304464	 0.2921700821	 0.091854
H	 1.0685245664	 2.64562209	-0.8583506547	 0.120909
H	 1.8594721701	 3.833840596	 1.0216930096	 0.133992
H	 0.6172440187	 2.9248544278	 1.9187547872	 0.13264
H	 2.5076846707	 0.4053344347	-0.6146841374	 0.272156
76.0463	123.9502	174.4067	272.5562	337.9574	506.0579	534.7137	685.2348	720.2622	724.6217	773.9036	858.8681	917.9603	940.7713	995.5771	1083.2893	1101.6218	1149.6576	1218.4812	1232.3748	1278.8184	1356.4907	1390.1063	1416.6118	1428.1077	1521.4632	1838.5703	1908.6569	2879.1739	3012.7608	3050.9124	3098.4977	3620.9435
O=CC1COC(=O)N1	O=C[C@H]1COC(=O)N1	
InChI=1S/C4H5NO3/c6-1-3-2-8-4(7)5-3/h1,3H,2H2,(H,5,7)	InChI=1S/C4H5NO3/c6-1-3-2-8-4(7)5-3/h1,3H,2H2,(H,5,7)/t3-/m0/s1
