17
gdb 8686	2.72029	1.66554	1.30734	2.7371	64.32	-0.2905	0.0207	0.3112	999.0411	0.14033	-401.01201	-401.002843	-401.001899	-401.045564	33.013	
C	-0.0027905269	 1.5780330575	 0.0958489629	-0.39876
C	-0.0477422399	 0.0510224922	 0.0032296128	-0.202353
C	 0.6911377221	-0.5136215903	-1.2175870605	 0.20825
O	 2.039623819	-0.0980432977	-1.1626816386	-0.443019
C	 0.6461891866	-2.0586931686	-1.2584604242	-0.1092
O	 1.4910989695	-2.5461671854	-2.2868018105	-0.427597
C	 0.0694401766	-0.0272139247	-2.4832414784	 0.244456
N	-0.3976952923	 0.2875915988	-3.4930989646	-0.346055
H	 1.0300663942	 1.9318055079	 0.1293035057	 0.145021
H	-0.4946380897	 2.0417891662	-0.7647402288	 0.138139
H	-0.5142458828	 1.9187830725	 1.0001930275	 0.118308
H	 0.4251547525	-0.3939718584	 0.8856713586	 0.114868
H	-1.0852158368	-0.3014922928	-0.0255129435	 0.112232
H	 2.5242930631	-0.6981776676	-1.7486296117	 0.295359
H	 1.0597360709	-2.4318346047	-0.3172817279	 0.129536
H	-0.3859145975	-2.4165344822	-1.3622448654	 0.115836
H	 1.0559668615	-2.3884236327	-3.1335316734	 0.304979
91.6445	111.4214	159.0981	175.7881	207.7094	236.3475	314.5591	385.3744	399.1604	421.128	464.1247	556.1975	588.9973	650.6201	713.1676	795.9313	904.8224	965.8038	1005.4557	1032.6666	1084.3737	1088.9688	1149.364	1189.8847	1240.7545	1322.7729	1342.8206	1380.4745	1408.8157	1412.1962	1417.998	1470.9224	1488.7963	1496.4251	1508.2565	2341.6284	3026.7008	3039.4976	3048.3791	3080.1009	3103.7115	3116.5994	3134.6583	3732.1137	3791.7097
CCC(O)(CO)C#N	CC[C@@](O)(CO)C#N	
InChI=1S/C5H9NO2/c1-2-5(8,3-6)4-7/h7-8H,2,4H2,1H3	InChI=1S/C5H9NO2/c1-2-5(8,3-6)4-7/h7-8H,2,4H2,1H3/t5-/m0/s1
