17
gdb 72311	2.30906	1.93178	1.5574	4.7091	73.24	-0.2056	-0.0513	0.1543	940.6946	0.133909	-417.860931	-417.852717	-417.851773	-417.892995	31.981	
C	 0.0032932419	 1.4503401675	 0.0857209977	-0.502453
C	-0.0749671572	-0.0460912561	-0.0846012816	 0.225012
C	 0.7964372812	-0.7657816979	-1.1527268138	-0.213546
N	 0.51618056	-2.2217861575	-0.9075464657	-0.230561
C	-0.5183339225	-2.1408448897	-0.1823431643	 0.223986
O	-0.4750429793	-2.3797588014	 1.2022077557	-0.265932
C	-0.6426076282	-0.8957682038	 1.2213858185	-0.033103
C	-1.3506830816	-0.803174208	-0.063335542	 0.185658
N	-2.6334310587	-0.4989477773	-0.5764418554	-0.624633
H	 1.0062234049	 1.7571227136	 0.4010263555	 0.13563
H	-0.2160318029	 1.9631729208	-0.8586802281	 0.130615
H	-0.7079850235	 1.8166430737	 0.8337404323	 0.119853
H	 0.5721371515	-0.396336029	-2.1655471689	 0.111828
H	 1.8719621548	-0.6515249013	-0.9801156003	 0.129191
H	-0.7593294522	-0.4612848847	 2.207894816	 0.123644
H	-3.3718706096	-0.9463855657	-0.0429391108	 0.244549
H	-2.8035904885	 0.5008437866	-0.5743304147	 0.240262
165.9	191.7744	209.8442	217.4491	252.6669	292.1341	326.5349	460.2405	495.4186	565.387	585.2903	603.0827	693.4476	736.3331	790.0187	806.3189	890.8374	913.293	942.1263	962.5919	981.7689	1014.8301	1061.8221	1094.2201	1153.7789	1182.2069	1196.8026	1215.4731	1281.5633	1343.7901	1412.4491	1465.2642	1480.5725	1489.1551	1505.8747	1618.9306	1650.3206	2982.4721	3023.4167	3068.0428	3084.0012	3096.991	3186.2898	3502.5409	3585.8667
CC12CN=C3OC1C23N	C[C@@]12C[N][C]3O[C@@H]1[C@@]23N	
InChI=1S/C6H8N2O/c1-5-2-8-4-6(5,7)3(5)9-4/h3H,2,7H2,1H3	InChI=1S/C6H8N2O/c1-5-2-8-4-6(5,7)3(5)9-4/h3H,2,7H2,1H3/t3-,5+,6-/m0/s1
