18
gdb 126637	3.36785	1.06522	0.86505	1.1343	75.55	-0.2144	-0.0132	0.2012	1352.2937	0.148213	-431.426011	-431.4169	-431.415956	-431.461025	32.441	
C	 0.0345245717	 1.493771193	 0.005930631	-0.382052
C	 0.0226261833	-0.0360353687	 0.0339773263	-0.181738
C	-1.4034515634	-0.5944738183	-0.0231664532	-0.137202
N	-1.4461642157	-2.043137215	 0.0212809317	-0.036055
N	-1.5345096953	-2.8022514563	-1.101967321	-0.110994
N	-1.5269465629	-4.0259864126	-0.7751090517	-0.080642
N	-1.4253586572	-4.0860529089	 0.5873242158	-0.318956
C	-1.3612730592	-2.8266292376	 1.162425406	 0.482743
N	-1.2583929208	-2.3809579927	 2.3557675307	-0.606289
H	 1.0574836077	 1.8778386974	 0.0508537245	 0.120597
H	-0.4261498378	 1.8812187245	-0.9097132591	 0.117374
H	-0.5145805429	 1.9104088468	 0.8573060564	 0.123557
H	 0.5936843752	-0.4364028638	-0.8118090914	 0.110148
H	 0.4993409978	-0.4015261952	 0.9495037008	 0.13097
H	-1.9849875771	-0.2357068048	 0.8319492901	 0.143369
H	-1.9108480956	-0.291137287	-0.9429160239	 0.130909
H	-1.3988335403	-4.9797948423	 1.0449211777	 0.281845
H	-1.2279447474	-3.1317325585	 3.0396032493	 0.212415
38.8966	86.111	87.7559	191.075	241.9918	273.5369	283.4367	344.0053	394.7387	491.2739	673.9093	697.8685	719.1667	732.568	751.2575	796.6375	874.9709	904.184	981.1707	1027.7213	1044.0879	1078.4691	1108.9	1126.6582	1231.0788	1244.3059	1309.5527	1332.835	1364.3445	1372.7274	1407.9535	1417.2326	1428.2571	1467.4351	1492.9951	1501.5793	1503.2471	1508.6168	1753.9089	3032.7266	3038.9743	3060.4264	3076.7172	3100.2754	3111.1632	3119.547	3532.4352	3699.1952
CCCN1N=NNC1=N	CCCN1N=NN[C@@H]1[NH]	
InChI=1S/C4H9N5/c1-2-3-9-4(5)6-7-8-9/h2-3H2,1H3,(H2,5,6,8)	InChI=1S/C4H10N5/c1-2-3-9-4(5)6-7-8-9/h4-5H,2-3H2,1H3,(H,6,8)/t4-/m0/s1
