16
gdb 30989	3.21767	1.21942	0.90684	3.2099	70.38	-0.1802	0.0328	0.213	1226.3311	0.125269	-471.216171	-471.20744	-471.206496	-471.249541	32.566	
N	-0.0611777677	 1.3162965517	-0.262502047	-0.608534
C	-0.1024184863	-0.0703949906	-0.1600734164	 0.219255
C	-1.1239988315	-0.9271926312	 0.0112915767	 0.224813
C	-2.5987510039	-0.7292644128	 0.0571773764	-0.187486
O	-2.9910030931	 0.4031799508	-0.7205144536	-0.409435
O	-0.6055050799	-2.2227751463	 0.1765484674	-0.256578
C	 0.7649000007	-2.1506111567	 0.1060535457	 0.452034
N	 1.6003518165	-3.0917264921	 0.252261882	-0.605695
N	 1.0710679766	-0.8263240619	-0.1676369684	-0.368655
H	 0.5022624262	 1.6360557107	-1.043890925	 0.247798
H	-1.0029081121	 1.6840871788	-0.3450724106	 0.262277
H	-3.0999056066	-1.6511322965	-0.2733468364	 0.118636
H	-2.9645984661	-0.5144521795	 1.0692173321	 0.129877
H	-2.7518412046	 0.210460188	-1.6342336272	 0.285446
H	 1.1208096034	-3.9661011153	 0.4496796727	 0.222998
H	 1.9917785084	-0.4616339171	 0.0073449916	 0.273248
75.4752	148.2433	177.6567	202.554	301.7294	317.2065	343.8029	372.0002	388.5146	440.4917	530.9682	620.6161	648.8207	715.929	723.8056	753.5565	816.0663	840.0274	956.022	977.8021	1047.1997	1060.4752	1076.8945	1164.1286	1208.1448	1281.4549	1299.119	1356.1335	1377.9371	1416.7972	1482.8876	1508.6878	1647.5082	1765.4063	1796.0439	2997.5657	3038.1872	3499.6518	3538.9536	3595.0835	3678.3056	3798.7541
NC1=C(CO)OC(=N)N1	NC1=C(CO)O[C@@H]([NH])N1	
InChI=1S/C4H7N3O2/c5-3-2(1-8)9-4(6)7-3/h8H,1,5H2,(H2,6,7)	InChI=1S/C4H8N3O2/c5-3-2(1-8)9-4(6)7-3/h4,6-8H,1,5H2/t4-/m0/s1
