15
gdb 45379	2.21043	1.82761	1.27492	5.918	72.5	-0.2513	-0.0109	0.2404	999.7495	0.114122	-412.952477	-412.94479	-412.943846	-412.984666	29.078	
N	-0.0788801079	 1.2233333839	-0.5793594926	-0.534905
C	 0.0502478353	 0.0331839445	-0.1964195996	 0.379695
N	 1.0729180799	-0.798000242	 0.2748625137	-0.3414
C	 0.2304750049	-1.9720787009	 0.4936292329	-0.045185
C	-0.5512275388	-2.0646279576	 1.8271813957	-0.184963
N	-1.5490394861	-1.0796925292	 1.3314327209	-0.347939
C	-0.9722391766	-1.1106851678	-0.0446416287	 0.147118
C	-1.8394294778	-1.485612948	-1.1338936061	 0.198869
N	-2.5513027671	-1.8052437903	-1.9870654026	-0.333071
H	 0.7865323316	 1.7583269972	-0.4935075229	 0.220581
H	 1.8732417217	-0.5180678211	 0.8245516876	 0.248207
H	 0.5893181205	-2.891621276	 0.0330322981	 0.116075
H	-0.9534432686	-3.0720363626	 1.9861919597	 0.118626
H	-0.0220332745	-1.744012851	 2.7302233324	 0.113861
H	-2.5119513066	-1.3905675389	 1.3728263214	 0.244431
121.3616	128.8256	178.1856	248.3284	335.3864	388.4384	436.2877	514.668	545.7594	619.5357	628.6135	666.2613	744.6122	833.5765	850.2919	895.4041	956.5363	1001.5617	1019.8779	1032.0287	1072.4966	1128.1526	1130.3915	1187.2095	1212.5101	1265.7323	1321.211	1353.0666	1354.2827	1391.4462	1504.9991	1809.5602	2354.912	3029.2732	3080.953	3122.3788	3471.2171	3562.0501	3596.4022
N=C1NC2CNC12C#N	[NH][C]1N[C@H]2CN[C@@]12C#N	
InChI=1S/C5H6N4/c6-2-5-3(1-8-5)9-4(5)7/h3,8H,1H2,(H2,7,9)	InChI=1S/C5H6N4/c6-2-5-3(1-8-5)9-4(5)7/h3,8H,1H2,(H2,7,9)/t3-,5+/m0/s1
