25
gdb 59659	2.24077	1.26972	1.02121	1.3367	88.64	-0.2535	0.0703	0.3238	1343.1449	0.226997	-389.493494	-389.482827	-389.481883	-389.528393	40.992	
C	 0.0308315972	 1.5812616437	-0.0549326758	-0.40511
C	 0.0593149752	 0.0557513609	 0.0506229117	 0.112962
O	 0.7617813749	-0.3701914867	 1.2222374849	-0.434341
C	-1.3345348857	-0.5573910441	 0.0000642789	 0.002953
C	-2.1631285742	-0.488122377	-1.3109313433	-0.254436
C	-2.6869910085	-1.9172892113	-1.0135443824	-0.257167
C	-1.5153942133	-2.1187168706	 0.0022202905	 0.336357
C	-0.3406372735	-2.8722348119	-0.6295281176	-0.445046
C	-1.8801701355	-2.7344023192	 1.3496841916	-0.457392
H	 1.0456279547	 1.9851882211	-0.0022867596	 0.121483
H	-0.4249575428	 1.9051966961	-0.996259337	 0.119926
H	-0.5544558092	 2.0166183405	 0.7650670551	 0.103386
H	 0.6587922289	-0.3414368521	-0.7767772532	 0.084828
H	 0.2787947425	-0.036421925	 1.9866807978	 0.274426
H	-1.9242613561	-0.1352778774	 0.8271729529	 0.049155
H	-2.900209021	 0.3131876396	-1.4002203017	 0.094509
H	-1.5205117823	-0.4607863765	-2.1968516692	 0.099541
H	-3.6605094833	-1.8986523015	-0.5142209146	 0.092879
H	-2.7412302378	-2.6185318719	-1.8510201528	 0.090968
H	-0.0862003991	-2.4836477064	-1.6214213417	 0.105795
H	 0.551873278	-2.8041969846	-0.0005292513	 0.133826
H	-0.5951329533	-3.9313309166	-0.7511569539	 0.103962
H	-2.1527424225	-3.7913178543	 1.2436806647	 0.108225
H	-1.0340313881	-2.6748111532	 2.0434017737	 0.117597
H	-2.730538425	-2.2160679616	 1.8069986223	 0.100713
79.8805	104.5425	153.1106	216.3625	226.6581	247.3982	276.4034	287.7275	295.8217	338.2066	340.0119	389.9927	429.872	468.4491	524.4264	614.7323	724.9722	787.8894	874.3662	886.6748	911.9864	948.6122	962.1349	968.6379	976.9882	1007.8274	1024.9115	1058.7963	1098.58	1112.843	1167.0581	1188.1268	1206.0107	1225.9236	1249.1738	1260.1515	1280.8036	1288.3787	1315.9307	1336.3947	1397.9217	1400.2426	1401.9289	1417.5693	1420.8931	1478.6202	1485.423	1490.272	1492.3756	1495.129	1499.957	1505.6304	1514.2447	2991.0508	3017.5967	3022.6052	3027.1828	3046.3917	3047.9308	3051.7131	3082.5556	3088.2912	3090.8535	3093.1126	3093.5783	3107.8573	3110.9204	3116.3274	3795.324
CC(O)C1CCC1(C)C	C[C@@H](O)[C@H]1CCC1(C)C	
InChI=1S/C8H16O/c1-6(9)7-4-5-8(7,2)3/h6-7,9H,4-5H2,1-3H3	InChI=1S/C8H16O/c1-6(9)7-4-5-8(7,2)3/h6-7,9H,4-5H2,1-3H3/t6-,7-/m1/s1
