16
gdb 131483	3.73849	1.15896	0.97683	2.5254	69.93	-0.25	-0.0183	0.2316	1176.2708	0.124635	-437.852579	-437.844746	-437.843802	-437.88599	29.056	
O	 0.0339157442	 1.2385192651	 1.1103280566	-0.421883
C	 0.0679735777	 0.1293751674	 0.2658736295	 0.148061
C	-0.5216410437	-1.1951922962	 0.6542203606	-0.337925
C	-1.1683098074	-0.3640577169	-0.4548929125	-0.211089
C	-2.4679157114	 0.3016067843	-0.2088510141	 0.113896
C	-2.7706602355	 1.6309094519	-0.2618715116	-0.003569
O	-4.0684011821	 1.8390591804	-0.0021932145	-0.161549
N	-4.6831819566	 0.6121427578	 0.2384323257	-0.128638
C	-3.733210813	-0.2783330825	 0.1153563455	-0.044904
H	-0.8287563752	 1.2701069901	 1.5381951151	 0.28309
H	 0.9995446165	 0.129248359	-0.2892925029	 0.114079
H	-0.0032079517	-2.1089632433	 0.3850605728	 0.120403
H	-1.0495323833	-1.2410438641	 1.6019546957	 0.118344
H	-1.0191928982	-0.7267174178	-1.4687518377	 0.108409
H	-2.1791202102	 2.5096158742	-0.4670619101	 0.166937
H	-3.96893795	-1.3234754693	 0.2612607918	 0.136338
34.5424	124.3867	158.948	240.3861	297.1298	368.6505	449.099	544.1724	619.1037	652.8705	707.4599	791.4093	822.4955	852.9759	892.9823	917.7419	931.482	944.179	1008.1409	1019.2365	1059.7557	1071.7771	1125.6354	1131.2719	1151.142	1197.6886	1230.2438	1273.7209	1322.4847	1353.0043	1391.7214	1441.3129	1478.2148	1491.6478	1638.9904	3127.9015	3131.6857	3176.3923	3217.1016	3241.8633	3269.3424	3808.3141
OC1CC1C1=CON=C1	O[C@H]1C[C@H]1c1conc1	
InChI=1S/C6H7NO2/c8-6-1-5(6)4-2-7-9-3-4/h2-3,5-6,8H,1H2	InChI=1S/C6H7NO2/c8-6-1-5(6)4-2-7-9-3-4/h2-3,5-6,8H,1H2/t5-,6-/m0/s1
