18
gdb 42432	5.91642	0.65918	0.62387	1.9042	80.02	-0.2572	-0.0295	0.2278	1755.5381	0.145742	-401.908959	-401.89941	-401.898466	-401.944606	33.895	
O	-0.0781967054	 0.1325128848	-0.5629449756	-0.335603
C	 0.0092120875	 1.3115525405	-0.2811370251	 0.382457
C	 1.3369901124	 1.9842042219	 0.0093530547	-0.306055
C	 2.5387914693	 1.0449698403	-0.1779298325	-0.361281
C	 3.804720476	 1.7007732855	 0.1230077154	 0.28442
C	 4.8350751817	 2.2651668226	 0.3768686619	-0.426371
C	-1.2127771966	 2.1727488972	-0.20299962	-0.104301
C	-2.1723210189	 2.0644143351	-1.3514236513	-0.216281
N	-2.5088117006	 1.4941120571	-0.0563641902	-0.301582
H	 1.4288611833	 2.8718327363	-0.6297762739	 0.139967
H	 1.3067239941	 2.3720704032	 1.0361678847	 0.143574
H	 2.4065911551	 0.1629972782	 0.4581104995	 0.149472
H	 2.5444493965	 0.6658808871	-1.2060584781	 0.14531
H	 5.7544243132	 2.7479723965	 0.5980573551	 0.195205
H	-1.1161056121	 3.1220363102	 0.3155906027	 0.100479
H	-2.7400138005	 2.9443573767	-1.639735577	 0.128735
H	-1.8933247957	 1.3945481978	-2.1600709897	 0.132748
H	-2.3155429292	 0.4917890989	-0.0855242905	 0.249108
46.2534	61.321	99.432	110.3429	208.2705	266.6312	294.7451	343.5918	348.571	508.0136	575.2912	622.3387	644.5437	684.1592	782.5794	815.0385	852.9427	898.6677	962.3781	966.9482	1005.6065	1029.5753	1043.8202	1096.0311	1125.0459	1137.9583	1174.1377	1183.8067	1283.8649	1297.3595	1301.9591	1322.5175	1376.1309	1409.7257	1447.9867	1469.4962	1496.0351	1779.7002	2241.0555	3029.7703	3047.7712	3057.6496	3083.0315	3112.2485	3155.852	3206.162	3459.7611	3507.3389
O=C(CCC#C)C1CN1	O=C(CCC#C)[C@H]1CN1	
InChI=1S/C7H9NO/c1-2-3-4-7(9)6-5-8-6/h1,6,8H,3-5H2	InChI=1S/C7H9NO/c1-2-3-4-7(9)6-5-8-6/h1,6,8H,3-5H2/t6-/m1/s1
