17
gdb 16376	2.64929	2.11416	1.42206	1.6537	64.51	-0.2381	0.0596	0.2977	901.2403	0.141831	-400.948652	-400.940655	-400.939711	-400.980793	30.264	
O	 0.5578104539	 0.7773081185	-0.865509543	-0.427847
C	 0.1326591673	-0.2631329436	-0.0216315967	 0.066807
C	 0.1226649342	-0.0689021755	 1.5244026367	-0.311088
C	-1.2506953488	-0.8111896129	 1.5798964328	 0.06502
O	-2.2967386035	-0.2267586858	 2.3195475429	-0.429454
C	-1.3628323586	-0.5974222397	 0.0736259009	 0.295889
C	-2.4460527992	 0.1165384447	-0.6360273817	-0.301047
N	-2.2220499312	-1.3302460549	-0.8429324715	-0.380869
H	 0.0755015086	 1.5726787198	-0.6138965495	 0.279743
H	 0.7250864352	-1.136175858	-0.3153242384	 0.094205
H	 0.9597912315	-0.4764134672	 2.0943230999	 0.100949
H	-0.0205502169	 0.9847293294	 1.7838658038	 0.103771
H	-1.1331050989	-1.8757810969	 1.8228865647	 0.076605
H	-2.2302325316	-0.5254513233	 3.2313363998	 0.286735
H	-3.3563227057	 0.3659106095	-0.1005570391	 0.136932
H	-2.1637984291	 0.8024352658	-1.4313380082	 0.110786
H	-1.7320415273	-1.4776020798	-1.7238198135	 0.232862
85.4524	204.3436	214.8394	221.6507	246.8263	329.0509	355.6792	466.6669	512.249	541.8561	559.9496	704.0504	826.1012	846.926	897.1175	945.6413	970.1038	980.7965	1030.5021	1054.2779	1071.845	1117.1254	1129.0642	1167.6616	1185.7074	1206.3626	1260.2745	1273.1435	1286.7351	1301.7996	1317.871	1400.4827	1433.8743	1450.8082	1478.4929	1505.8677	3012.2652	3056.262	3059.3761	3109.3741	3124.464	3205.4398	3477.1618	3803.1371	3827.7967
OC1CC(O)C11CN1	O[C@H]1C[C@@H](O)[C@]21CN2	
InChI=1S/C5H9NO2/c7-3-1-4(8)5(3)2-6-5/h3-4,6-8H,1-2H2	InChI=1S/C5H9NO2/c7-3-1-4(8)5(3)2-6-5/h3-4,6-8H,1-2H2/t3-,4+,5+
