19
gdb 116429	2.57784	1.45144	1.06623	4.2135	72.5	-0.233	0.019	0.252	1155.8046	0.162339	-456.370896	-456.362491	-456.361547	-456.404173	31.923	
O	 0.2627063995	 1.3210761477	-0.0345410231	-0.421359
C	 0.0415774648	-0.0613534497	 0.1187658896	-0.07839
C	-1.4441430086	-0.4588479556	 0.0845924955	-0.092435
N	-2.1443829622	-0.105204973	 1.3168513047	-0.303648
C	-3.5491687184	-0.4794058169	 1.2471673908	-0.162858
C	-4.2291079066	 0.422985903	 0.2232812633	-0.133396
N	-3.4579623395	 0.4368139898	-1.0150042564	-0.326002
C	-2.1224353967	 0.2013900978	-1.1210355902	 0.451156
O	-1.4974967952	 0.4625835305	-2.1402737864	-0.405775
H	 0.0033519789	 1.5193524178	-0.943868511	 0.295812
H	 0.5674759446	-0.6432429859	-0.650171264	 0.101097
H	 0.4584049672	-0.3457704495	 1.0923911376	 0.095928
H	-1.4895730933	-1.5506056076	-0.1150834584	 0.078162
H	-1.6918386935	-0.552544955	 2.1063705971	 0.223825
H	-3.6995351942	-1.5372786322	 0.958472821	 0.087745
H	-4.0187033061	-0.3300619155	 2.2235875172	 0.11027
H	-5.2416110099	 0.0618902001	 0.0120130406	 0.11047
H	-4.3071404546	 1.4393781322	 0.6315974217	 0.121609
H	-3.8442526863	 0.9272615517	-1.8102238195	 0.247788
73.1134	108.3348	166.1207	225.4262	290.277	334.1996	406.4343	464.9126	477.0552	541.6263	553.813	659.3646	677.9667	705.8175	775.1391	855.8586	900.09	911.5816	962.8354	1031.8143	1046.9266	1107.8831	1113.9518	1138.5401	1160.1356	1236.2129	1254.4218	1261.5031	1304.0814	1331.0403	1355.6069	1396.9461	1406.3402	1412.9727	1437.8991	1479.6713	1485.8935	1496.5737	1500.8013	1524.7975	1763.2419	2874.2533	2919.7584	3010.9745	3014.7556	3061.6494	3065.4647	3085.9801	3527.7457	3592.1172	3768.4682
OCC1NCCNC1=O	OC[C@H]1NCCNC1=O	
InChI=1S/C5H10N2O2/c8-3-4-5(9)7-2-1-6-4/h4,6,8H,1-3H2,(H,7,9)	InChI=1S/C5H10N2O2/c8-3-4-5(9)7-2-1-6-4/h4,6,8H,1-3H2,(H,7,9)/t4-/m1/s1
