14
gdb 128379	2.28897	1.57492	0.9397	4.8828	73.7	-0.2365	-0.0526	0.1839	1174.0603	0.099872	-432.789574	-432.781154	-432.78021	-432.822916	30.204	
C	 0.0330718935	 1.4279932522	 0.0194156272	-0.329512
N	-0.0973234416	-0.0150351104	-0.0981074279	-0.404631
C	 0.570439842	-0.68720396	-1.0717658147	 0.298543
N	 1.1719577078	-0.1253025592	-2.092273342	-0.178191
O	 1.6597618263	-1.1845867109	-2.8474263311	-0.161622
N	 1.3742878372	-2.3789248109	-2.2874930112	-0.161935
C	 0.7031675409	-2.1184034614	-1.1905317279	 0.185699
C	 0.2124093751	-3.0913005946	-0.2945881084	 0.26394
C	-0.2295484558	-3.8631675851	 0.5160616911	-0.404975
H	 1.0592304057	 1.7431665515	 0.2513655944	 0.134313
H	-0.2586188399	 1.8975425296	-0.923472868	 0.160177
H	-0.6366048541	 1.7786448986	 0.8066960165	 0.131478
H	-0.2541317879	-0.5383712295	 0.748609927	 0.256383
H	-0.6150707693	-4.5650887399	 1.214424175	 0.210334
105.137	116.7476	136.1634	176.9237	216.4885	337.0034	380.1373	442.5978	510.2258	573.8367	605.2743	607.4684	615.7032	690.2363	766.2064	783.9241	900.4879	966.9643	1051.2612	1094.5125	1152.0456	1186.0356	1261.1156	1374.1648	1457.3472	1480.9804	1487.764	1515.6061	1576.2776	1647.0302	2240.4078	3016.1392	3096.4403	3139.9475	3497.8065	3632.1141
CNC1=NON=C1C#C	CNc1nonc1C#C	
InChI=1S/C5H5N3O/c1-3-4-5(6-2)8-9-7-4/h1H,2H3,(H,6,8)	InChI=1S/C5H5N3O/c1-3-4-5(6-2)8-9-7-4/h1H,2H3,(H,6,8)
