16
gdb 83684	2.4995	1.63778	1.32736	4.3511	68.3	-0.2587	0.0127	0.2714	989.7208	0.124567	-437.849769	-437.841806	-437.840862	-437.883086	29.211	
O	-0.5172944063	 1.4362982935	-0.144722995	-0.397017
C	-0.0912392434	 0.1151720306	-0.0886511904	 0.107252
C	-1.2574804612	-0.8905371722	 0.1134945004	 0.095652
O	-2.5044317144	-0.440070025	-0.4177547669	-0.267706
C	-2.2764404868	-1.1209628965	-1.6761735014	-0.090212
C	-0.8950578844	-1.6170732782	-1.214539067	-0.097313
C	 0.2826550913	-0.6206590008	-1.4515024513	-0.244168
C	 0.2652951881	 0.1905269324	-2.6531391604	 0.295332
N	 0.2527465082	 0.8608410798	-3.5956732978	-0.33679
H	 0.2291759683	 1.9989687595	-0.377984937	 0.298696
H	 0.7123012373	-0.0413482874	 0.6453341584	 0.081919
H	-1.3575829283	-1.3541357766	 1.0977367672	 0.087011
H	-3.0112842181	-1.9192390596	-1.8323712119	 0.111152
H	-2.290756751	-0.4386955845	-2.5328823564	 0.137097
H	-0.6654995103	-2.6758890076	-1.3115597028	 0.094826
H	 1.253888671	-1.1168875974	-1.3763403775	 0.124268
38.1318	124.5659	164.1905	244.134	269.747	351.979	379.4961	508.5699	586.7583	604.9837	696.4316	749.268	820.0552	849.1469	895.1986	933.9596	984.4756	1007.2681	1044.0488	1073.7845	1091.6955	1132.3056	1159.2783	1173.5612	1204.4133	1217.949	1233.4894	1289.9206	1305.0844	1319.9112	1339.0124	1373.7764	1428.106	1522.8634	2350.4123	2994.6546	3027.6244	3076.7348	3080.2482	3083.3557	3136.2231	3811.6376
OC1C2OCC2C1C#N	O[C@H]1[C@H]2OC[C@H]2[C@H]1C#N	
InChI=1S/C6H7NO2/c7-1-3-4-2-9-6(4)5(3)8/h3-6,8H,2H2	InChI=1S/C6H7NO2/c7-1-3-4-2-9-6(4)5(3)8/h3-6,8H,2H2/t3-,4+,5-,6+/m1/s1
