15
gdb 132993	3.95831	1.10979	0.87142	4.6849	76.15	-0.2062	-0.0214	0.1848	1244.8638	0.112641	-458.120667	-458.112497	-458.111553	-458.153911	29.555	
C	 0.0829153673	 1.4300659794	 0.1082053481	-0.326051
N	 0.120701839	-0.0170254803	 0.0588719708	-0.32067
C	 0.5130832786	-0.611750907	-1.0013033015	 0.375957
C	 0.5455871891	-2.0782765099	-1.0340511262	-0.359086
C	 0.9569405042	-2.6953025038	-2.1441687307	 0.397083
F	 1.0338717698	-4.0081516176	-2.3051872262	-0.0594
N	 1.3514348841	-1.9876507615	-3.2594644883	-0.385294
C	 1.3089166862	-0.6126442648	-3.1960788583	 0.093909
N	 0.9316530195	 0.0642621395	-2.1821131965	-0.309504
H	 0.7168756328	 1.7762713817	 0.9348295655	 0.114468
H	 0.4025709648	 1.9267155763	-0.8142052459	 0.121566
H	-0.9381830311	 1.7526845373	 0.3493493379	 0.1144
H	 0.2375043024	-2.6379368132	-0.1628236915	 0.131081
H	 1.6576207582	-2.4776477034	-4.0840730819	 0.275868
H	 1.6320345651	-0.1108375027	-4.1068393055	 0.135674
75.9343	101.1824	159.8396	235.9993	287.5907	330.0502	381.38	463.1488	464.8951	512.8894	639.2951	643.0007	758.1789	774.8361	868.3237	893.0308	951.2147	995.9494	1044.8645	1109.5293	1128.4359	1153.212	1201.824	1271.6361	1342.8468	1419.8064	1428.6174	1488.0023	1495.6445	1496.333	1671.1789	1707.431	1757.4022	3006.1992	3052.6527	3085.9175	3145.4782	3243.8486	3656.2578
CN=C1C=C(F)NC=N1	CN=c1cc(F)[nH]cn1	
InChI=1S/C5H6FN3/c1-7-5-2-4(6)8-3-9-5/h2-3H,1H3,(H,7,8,9)	InChI=1S/C5H6FN3/c1-7-5-2-4(6)8-3-9-5/h2-3H,1H3,(H,7,8,9)
