17
gdb 92683	3.32702	1.18302	0.95187	2.2176	79.78	-0.2426	-0.0351	0.2075	1214.2157	0.135097	-421.803218	-421.794534	-421.79359	-421.836498	33.227	
O	 0.0806675749	 1.36904026	-0.1366360521	-0.44495
C	 0.0491983894	-0.0277923669	-0.0038852934	 0.131451
C	 0.6586279214	-0.5806699157	 1.3142677229	-0.295583
C	-0.1979562979	-1.7808880625	 1.6046826944	-0.164457
C	-1.3167670687	-1.8179550031	 0.8569461408	 0.113918
C	-2.3404041747	-2.794667895	 0.8961473806	 0.224505
C	-3.2306354254	-3.6067274484	 0.8940579998	-0.406166
C	-1.4029666344	-0.5907268949	-0.0331392002	-0.0277
O	-2.3338046344	 0.3804334261	 0.4638868127	-0.436525
H	-0.8054630938	 1.66733614	 0.1189227413	 0.284032
H	 0.6013603088	-0.4625025675	-0.845896441	 0.091845
H	 1.7201726837	-0.8307204258	 1.2142288473	 0.117401
H	 0.5926456662	 0.1694544195	 2.1139350176	 0.117968
H	 0.0596592003	-2.5333918931	 2.3418821889	 0.110715
H	-4.0112864909	-4.3265062504	 0.9005336589	 0.195391
H	-1.7408018211	-0.8117541811	-1.048347125	 0.098953
H	-2.3594876235	 0.3005527287	 1.4243662967	 0.289201
66.6947	134.6422	168.4635	257.9732	293.7811	304.3712	386.483	398.4469	459.9062	532.5247	550.9138	596.8298	621.537	639.1337	660.8262	705.8003	832.5603	865.9462	888.3798	936.6289	1005.4828	1029.7869	1088.3405	1118.95	1157.6826	1177.1664	1227.2795	1262.1778	1284.4152	1309.5161	1319.9129	1376.5421	1414.9691	1443.4214	1480.0296	1658.5281	2223.1849	3021.5956	3032.4933	3070.5921	3089.2814	3196.7814	3502.5562	3707.7307	3800.4577
OC1CC=C(C#C)C1O	O[C@H]1CC=C(C#C)[C@H]1O	
InChI=1S/C7H8O2/c1-2-5-3-4-6(8)7(5)9/h1,3,6-9H,4H2	InChI=1S/C7H8O2/c1-2-5-3-4-6(8)7(5)9/h1,3,6-9H,4H2/t6-,7+/m0/s1
