19
gdb 100400	2.43297	1.0576	0.87897	3.6632	79.14	-0.2675	0.0063	0.2738	1403.4654	0.156531	-419.23065	-419.220101	-419.219157	-419.266916	36.522	
C	 0.2483905311	 1.3269085702	-0.2316777011	-0.229549
O	-0.0441637789	-0.0338934882	 0.0960347561	-0.232729
C	 0.5845987729	-0.5474571031	 1.1662540384	 0.423933
C	 0.1625110059	-1.9728920516	 1.4116213774	-0.504203
N	 1.4085721266	 0.164215125	 1.8267865744	-0.311992
C	 2.0884124495	-0.4124456506	 2.9819947667	-0.101822
C	 3.2834279643	 0.4732292528	 3.3647595412	-0.382643
C	 1.164865632	-0.549343301	 4.1266023463	 0.288688
N	 0.4277365596	-0.6623289903	 5.0101416885	-0.338537
H	 1.3107661666	 1.4511053528	-0.4577530906	 0.135505
H	-0.3605195559	 1.5532838052	-1.1075185935	 0.130132
H	-0.0082399708	 1.9882733838	 0.5998809447	 0.141326
H	-0.5016672151	-2.3122563559	 0.6174402353	 0.147965
H	 1.0354170614	-2.6321676397	 1.4532948906	 0.145378
H	-0.3537245152	-2.052604065	 2.3731623182	 0.174631
H	 2.4633566016	-1.4255578591	 2.7672741016	 0.116128
H	 3.9659460076	 0.5319040749	 2.513636768	 0.127472
H	 2.9397555477	 1.4821387668	 3.6030999413	 0.142547
H	 3.8165216891	 0.063056953	 4.2263404666	 0.127771
41.1472	89.0203	113.2703	161.4774	175.4099	186.4778	215.369	230.752	297.1139	327.9626	356.5671	478.3857	544.1046	574.3092	592.8953	659.3982	795.6206	838.8672	952.1446	1010.1288	1057.7072	1070.6167	1080.3449	1119.1965	1137.8889	1179.6137	1221.0466	1307.914	1326.1133	1343.5902	1402.4393	1407.8093	1468.2715	1476.2787	1483.9863	1485.4216	1489.4264	1494.636	1497.9238	1716.6695	2348.7009	2978.7367	3048.7677	3050.3748	3053.4792	3111.2534	3122.454	3133.9719	3140.4988	3154.2683	3159.3896
COC(C)=NC(C)C#N	COC(=N[C@@H](C)C#N)C	
InChI=1S/C6H10N2O/c1-5(4-7)8-6(2)9-3/h5H,1-3H3	InChI=1S/C6H10N2O/c1-5(4-7)8-6(2)9-3/h5H,1-3H3/t5-/m0/s1
