22
gdb 113829	3.89645	0.83778	0.7459	2.2121	84.4	-0.2142	0.0763	0.2905	1591.8797	0.192881	-404.294995	-404.285127	-404.284183	-404.330387	36.706	
C	 0.1046039905	 1.6396722242	-0.0394210666	-0.374622
C	-0.2894112854	 0.1686901341	-0.1523183516	-0.105464
N	 0.4960678591	-0.4819564021	-1.1962454657	-0.09295
C	 1.7454592333	-1.1244107454	-0.7969894779	-0.268657
C	 0.5829666706	-1.9465675853	-1.2402141688	 0.012152
C	-0.1453515215	-2.8311815468	-0.2765321159	-0.033724
C	-1.5120225309	-3.3899966873	-0.6499218777	-0.33764
C	-0.3110502266	-4.2952621843	-0.5846413553	 0.083531
O	 0.2659895497	-4.7661925098	-1.7683601218	-0.413637
H	 1.1555737017	 1.7399607863	 0.2515745434	 0.116292
H	-0.0280325292	 2.1467404176	-0.9991838006	 0.125122
H	-0.5053138433	 2.1485025567	 0.7137671462	 0.106593
H	-0.1798715853	-0.3143655542	 0.833539738	 0.075993
H	-1.3470975829	 0.0851922043	-0.4295860727	 0.101455
H	 2.6025590077	-0.9672062927	-1.4469262807	 0.111086
H	 1.9844714464	-1.1472647293	 0.2670851357	 0.098673
H	 0.5978158039	-2.3393728643	-2.2531611288	 0.099305
H	 0.0003138652	-2.6015297162	 0.7736509983	 0.089895
H	-2.278137286	-3.4676085037	 0.1138727032	 0.111029
H	-1.8775805812	-3.14539103	-1.6422588763	 0.118902
H	-0.2429219687	-4.985861749	 0.2560645521	 0.087109
H	-0.3426321473	-5.398840003	-2.1633442863	 0.289557
42.0796	82.68	113.8135	189.5643	193.3158	239.3661	291.0335	323.0671	342.6106	417.4906	471.6801	490.9111	621.2486	728.008	769.52	809.6838	831.7172	854.7184	904.5851	939.1267	967.9623	1001.1998	1021.7747	1044.6506	1055.9711	1097.1403	1110.433	1129.9054	1133.3111	1151.7563	1176.0562	1201.4565	1208.4248	1240.0006	1296.2291	1310.7606	1318.6532	1330.5467	1386.3001	1408.8794	1415.9032	1449.628	1486.4013	1488.6295	1489.0655	1505.2142	1517.2115	2953.7659	3037.0521	3047.1172	3077.1034	3095.032	3105.3355	3118.2423	3128.3164	3143.8604	3161.7373	3168.9675	3218.5853	3810.2199
CCN1CC1C1CC1O	CCN1C[C@H]1[C@H]1C[C@H]1O	
InChI=1S/C7H13NO/c1-2-8-4-6(8)5-3-7(5)9/h5-7,9H,2-4H2,1H3	InChI=1S/C7H13NO/c1-2-8-4-6(8)5-3-7(5)9/h5-7,9H,2-4H2,1H3/t5-,6+,7-,8?/m1/s1
