23
gdb 122820	7.02221	0.47983	0.45672	1.5175	84.1	-0.267	0.0198	0.2867	2450.3517	0.203249	-425.475831	-425.46439	-425.463446	-425.514352	38.942	
C	 0.0005335476	 1.6308364893	-0.026703506	-0.379822
C	 0.0084420685	 0.0999651582	-0.013768694	-0.165236
C	 0.7043174732	-0.5102692045	-1.2350821207	-0.165041
C	 0.7126085029	-2.0417763331	-1.2227880815	-0.169623
C	 1.409008118	-2.639208141	-2.4452736476	-0.334966
C	 1.4224111814	-4.1538892997	-2.4423684683	 0.446767
O	 0.9485005315	-4.8632462724	-1.5906242605	-0.355972
O	 2.0478181809	-4.6282105877	-3.5415696276	-0.234456
C	 2.1169734647	-6.0554339831	-3.6388538229	-0.238935
H	 1.0200533317	 2.0322939237	-0.042149929	 0.112683
H	-0.5184833099	 2.0170016684	-0.9111956327	 0.112682
H	-0.5026084826	 2.0357406627	 0.8569209449	 0.111496
H	 0.5030865322	-0.2572961185	 0.8990371285	 0.096394
H	-1.0231798935	-0.2724645903	 0.0369855587	 0.096394
H	 0.2102459984	-0.1529684759	-2.1499281252	 0.090343
H	 1.7373844226	-0.1377784182	-1.2873937276	 0.090343
H	 1.2062804731	-2.4063193493	-0.3145324105	 0.109877
H	-0.3144986933	-2.4214487998	-1.1734658712	 0.109874
H	 0.930350704	-2.3105503161	-3.376397705	 0.129213
H	 2.4485017404	-2.2954792445	-2.5189296286	 0.129215
H	 2.6449396698	-6.2651425488	-4.5693349017	 0.131024
H	 2.6600439586	-6.4757964803	-2.7883839319	 0.138881
H	 1.1146856198	-6.4911315089	-3.6618139696	 0.138864
31.9308	49.4519	82.0891	115.1772	123.9144	132.7362	180.4311	203.6219	244.968	268.302	327.0111	405.5604	495.5123	586.079	701.1636	731.6588	764.0429	854.6807	884.1729	917.8437	974.2887	1002.7141	1031.6438	1069.3653	1069.9706	1133.2658	1134.449	1179.731	1196.6966	1215.3091	1227.5855	1278.4116	1291.8899	1325.7914	1335.0455	1347.6105	1396.8129	1405.7109	1413.8899	1458.807	1474.0989	1482.4033	1483.8972	1488.6371	1498.6215	1499.3234	1501.7439	1513.6985	1819.8653	2999.782	3017.0452	3024.5262	3028.5722	3031.6884	3042.4802	3050.0655	3050.2288	3059.5726	3084.6979	3094.8048	3101.1973	3123.3755	3156.3506
CCCCCC(=O)OC	CCCCCC(=O)OC	
InChI=1S/C7H14O2/c1-3-4-5-6-7(8)9-2/h3-6H2,1-2H3	InChI=1S/C7H14O2/c1-3-4-5-6-7(8)9-2/h3-6H2,1-2H3
