15
gdb 55605	2.6321	1.2006	0.83017	4.5956	67.29	-0.2458	-0.0298	0.216	1291.6413	0.113161	-487.332632	-487.323583	-487.322639	-487.367552	32.13	
N	-0.1095283877	 1.3463806823	-0.0915642884	-0.568274
C	 0.2291490587	 0.0023999026	-0.0365403762	 0.471119
O	 1.3607542272	-0.3943514711	 0.0787537644	-0.336231
N	-0.9239632212	-0.8002655975	-0.0681183539	-0.415102
C	-0.9669305687	-2.1784092639	-0.1005844019	 0.483422
N	 0.0344429751	-2.9355479811	-0.2797951927	-0.500746
N	-2.2989122216	-2.6772490129	 0.0742866513	-0.376402
C	-3.4795992894	-2.0070703161	 0.2343634179	 0.18373
O	-3.628358753	-0.8003274509	 0.2636008579	-0.326466
H	 0.6881615768	 1.9466912169	-0.2318950981	 0.264971
H	-0.9412375431	 1.6204514437	-0.5919307429	 0.256933
H	-1.8269580131	-0.353843327	 0.0657465007	 0.281333
H	-0.2268790636	-3.919349279	-0.2675925693	 0.211132
H	-2.3609054	-3.6841343489	 0.0572405682	 0.260321
H	-4.3282638664	-2.7061531172	 0.3379395429	 0.110261
40.2063	90.2587	104.3399	151.1476	264.4762	276.3565	377.1921	404.2719	431.1417	511.708	524.3832	579.0997	662.2684	698.4637	709.9059	765.1666	804.9995	831.5867	923.1136	1008.8824	1028.4523	1104.7461	1137.172	1193.514	1279.4446	1342.4857	1440.0993	1489.5463	1602.2218	1632.8658	1749.6626	1793.544	1856.2059	2981.3872	3471.8751	3505.1873	3580.1056	3625.1049	3699.2432
NC(=O)NC(=N)NC=O	NC(=O)NC(=N)NC=O	
InChI=1S/C3H6N4O2/c4-2(6-1-8)7-3(5)9/h1H,(H5,4,5,6,7,8,9)	InChI=1S/C3H6N4O2/c4-2(6-1-8)7-3(5)9/h1H,(H5,4,5,6,7,8,9)
