17
gdb 117432	4.07613	0.82167	0.77194	3.4552	70.63	-0.2688	-0.0079	0.2609	1484.4979	0.133987	-455.132197	-455.122342	-455.121398	-455.168764	33.308	
C	-0.5210339009	 0.2770019095	 0.0835611823	-0.234771
O	 0.2114921375	 0.2888456819	 1.2913513075	-0.217016
C	 1.4445136338	-0.3792546119	 1.2044866876	-0.13037
C	 1.3255782413	-1.8886153094	 1.0690514768	 0.373811
N	 1.9954164031	-2.5257099191	 0.2082109771	-0.505481
O	 0.4450432839	-2.3679477159	 2.0051562009	-0.215589
C	 0.1159075006	-3.7423295326	 1.9694908974	-0.223614
C	 1.1853610302	-4.612330233	 2.4849780468	 0.258098
N	 2.0140835117	-5.3077358896	 2.8894979446	-0.287332
H	-0.8112176893	-0.7408148021	-0.2165719925	 0.106284
H	-1.4259298101	 0.8640803675	 0.2545086128	 0.13312
H	 0.0506783206	 0.7286658554	-0.7409559061	 0.114288
H	 2.0523818843	-0.0294021587	 0.3601571157	 0.123249
H	 1.9764348109	-0.1596360323	 2.1367779676	 0.134044
H	 1.9050073891	-3.5394254951	 0.2596391116	 0.233413
H	-0.7674515087	-3.8544935341	 2.6028637989	 0.178099
H	-0.1467451579	-4.0628805405	 0.9531176711	 0.159768
30.5121	55.5832	84.7723	119.7237	166.1263	227.258	248.6765	319.9985	376.4093	402.0128	455.287	531.6082	601.1442	725.4214	809.084	870.8097	917.7752	955.6173	1018.6984	1039.1948	1063.2509	1118.1034	1152.1533	1182.5929	1225.4529	1289.1323	1297.9418	1318.3614	1388.996	1399.6665	1469.0943	1471.7609	1485.0497	1491.4598	1505.2366	1744.3273	2363.4715	2982.5767	3026.4025	3032.3044	3034.2039	3083.4781	3110.6098	3122.7593	3499.4032
COCC(=N)OCC#N	COC[C]([NH])OCC#N	
InChI=1S/C5H8N2O2/c1-8-4-5(7)9-3-2-6/h7H,3-4H2,1H3	InChI=1S/C5H8N2O2/c1-8-4-5(7)9-3-2-6/h7H,3-4H2,1H3
