18
gdb 14512	3.55845	1.80497	1.47818	1.5156	67.45	-0.2379	0.067	0.3048	900.1403	0.15294	-384.858795	-384.850975	-384.850031	-384.890719	30.065	
C	-0.1377535518	 1.6183036982	 0.0510208196	-0.490842
C	-0.034059734	 0.0958538472	 0.0296660597	 0.334881
C	-1.423771416	-0.5205945963	-0.1604365228	-0.14135
O	-2.0079612462	-0.1489038974	-1.4072004197	-0.421702
C	 1.1339713877	-0.6159248791	-0.7447412985	 0.003498
C	 2.1591225649	-0.1291705615	 0.3069883849	-0.234579
C	 0.9022922411	-0.6697990339	 1.027290472	-0.002871
O	 0.9246344085	-1.8217431372	 0.0900706398	-0.313546
H	 0.8220017655	 2.134064483	 0.0009019969	 0.113444
H	-0.745067785	 1.9417426371	-0.7987465467	 0.141805
H	-0.6483694533	 1.9491320811	 0.9628896964	 0.119072
H	-1.3724318118	-1.6069179127	-0.0512834004	 0.115233
H	-2.1001825283	-0.1276270869	 0.607497331	 0.102052
H	-1.5665218036	-0.6559742067	-2.0954423008	 0.284289
H	 1.2691977858	-0.7695838939	-1.8174751036	 0.086392
H	 3.0341834545	-0.7723202434	 0.4012118997	 0.110296
H	 2.4069484443	 0.9295190719	 0.3751519795	 0.102045
H	 0.7517266078	-0.8914639298	 2.0853571631	 0.091883
89.8969	167.6866	178.3778	283.2915	302.5179	342.617	385.4782	448.9928	547.5562	618.3557	684.4492	759.9228	789.6608	864.6595	876.6566	910.5057	936.6449	961.2057	1024.4099	1032.9089	1054.2826	1106.8611	1116.0131	1125.6703	1167.3902	1171.7144	1206.3853	1226.6441	1246.2377	1280.3772	1324.2308	1388.1929	1407.4282	1415.5673	1488.5537	1488.8661	1505.2117	1514.5734	3037.7667	3042.9984	3084.7953	3094.5115	3097.8274	3105.5861	3108.1713	3135.5663	3163.3112	3822.21
CC1(CO)C2CC1O2	C[C@@]1(CO)[C@H]2C[C@@H]1O2	
InChI=1S/C6H10O2/c1-6(3-7)4-2-5(6)8-4/h4-5,7H,2-3H2,1H3	InChI=1S/C6H10O2/c1-6(3-7)4-2-5(6)8-4/h4-5,7H,2-3H2,1H3/t4-,5+,6-
