16
gdb 133696	2.40732	1.3816	1.19492	1.8757	57.8	-0.2752	0.0659	0.3412	1069.8408	0.119595	-569.378243	-569.369373	-569.368429	-569.412444	32.494	
C	 0.0327774712	 1.5947905454	-0.3083231697	-0.411645
C	 0.0197930654	 0.1040108153	-0.0420349509	-0.046384
C	 1.2620074553	-0.732174262	-0.1751122926	 0.08195
O	 2.4506928526	-0.0541894155	-0.4384431271	-0.413451
C	 0.6192009412	-0.567859558	 1.1874623459	-0.252833
C	 1.3670955308	 0.1349443562	 2.2842753472	 0.2923
F	 1.6173131927	 1.4292911281	 2.0597826685	-0.06722
F	 0.6951405087	 0.0539280566	 3.4433749759	-0.077465
F	 2.5716693694	-0.456961901	 2.4926758556	-0.104829
H	 1.0308612454	 2.0139753328	-0.1944655788	 0.149164
H	-0.2984848287	 1.7782994011	-1.3353407501	 0.118201
H	-0.6478729865	 2.1252140819	 0.3640772045	 0.122122
H	-0.8896455101	-0.3918660909	-0.3708410285	 0.099017
H	 1.1813478552	-1.7123748064	-0.6440670016	 0.096181
H	 3.1220352416	-0.3768197926	 0.1731655825	 0.297269
H	 0.0870541959	-1.4250945012	 1.5857237392	 0.117622
36.5168	136.248	162.27	219.2326	250.7414	296.6983	313.9662	350.8017	449.6636	483.1929	530.5316	553.6531	647.7356	711.5324	763.622	793.5674	853.5665	963.4728	993.1352	1039.9111	1083.4658	1110.7473	1142.1687	1156.3717	1180.105	1193.0434	1244.1381	1290.2549	1327.99	1379.7327	1415.4381	1421.8073	1456.1226	1499.2172	1505.071	3048.2645	3102.859	3104.7176	3140.6115	3168.66	3172.0478	3803.215
CC1C(O)C1C(F)(F)F	C[C@H]1[C@@H](O)[C@H]1C(F)(F)F	
InChI=1S/C5H7F3O/c1-2-3(4(2)9)5(6,7)8/h2-4,9H,1H3	InChI=1S/C5H7F3O/c1-2-3(4(2)9)5(6,7)8/h2-4,9H,1H3/t2-,3+,4-/m1/s1
