22
gdb 117229	3.2972	0.83156	0.80971	1.4016	84.95	-0.2535	0.0298	0.2834	1595.7097	0.192984	-404.354237	-404.343993	-404.343048	-404.390399	37.202	
C	 0.9502057608	-0.4831141437	 1.7484365895	-0.38958
C	 1.4108121716	-1.8816616608	 1.3814631327	-0.027164
O	 1.3675757242	-1.9877832629	-0.0490290034	-0.246894
C	 1.7728668658	-3.1580818496	-0.5856842559	 0.393488
N	 2.1587541653	-4.1178660778	 0.1555789549	-0.542871
C	 1.6578539865	-3.0810902524	-2.0717296911	-0.092201
C	 2.0361946412	-4.2302284908	-2.9719402437	-0.314659
C	 0.5858770131	-3.8669545916	-2.8248403008	 0.020231
C	-0.3832359953	-4.7838672971	-2.1137974521	-0.412285
H	 1.6048652796	 0.2729323933	 1.3052934932	 0.125063
H	-0.0695061715	-0.3020996203	 1.3963609432	 0.125239
H	 0.9667291518	-0.358944125	 2.8353935695	 0.118524
H	 2.4308886359	-2.083121988	 1.7251081709	 0.118051
H	 0.7682987718	-2.6536823142	 1.8180922798	 0.116231
H	 2.4639898111	-4.9078577094	-0.4075514593	 0.215853
H	 1.8411500549	-2.08044244	-2.4475475477	 0.10186
H	 2.5549948948	-3.9960896808	-3.8948251619	 0.117417
H	 2.3678208374	-5.1531413023	-2.50500716	 0.112607
H	 0.1511118296	-3.3217254437	-3.658378004	 0.092262
H	 0.0728035047	-5.246921097	-1.2346255186	 0.128922
H	-1.2677437737	-4.2338553288	-1.7751145879	 0.122333
H	-0.7213298595	-5.5829592071	-2.7823806475	 0.117575
31.0928	83.6764	110.4145	150.34	179.4453	206.1494	255.3894	286.1323	360.1667	370.6789	413.0227	456.3995	612.5373	735.4445	782.9047	803.9791	826.0122	843.5964	865.1571	884.7514	923.7235	950.5419	1024.798	1062.1938	1075.9927	1097.4983	1110.37	1123.2725	1137.4553	1150.9268	1183.657	1198.3715	1233.8255	1286.0348	1304.6258	1381.1536	1399.2943	1413.4272	1426.2271	1449.4146	1485.6064	1488.1333	1496.4235	1496.7513	1504.5831	1521.421	1705.9999	3034.3309	3044.107	3045.5837	3080.8346	3093.8192	3113.6726	3118.3019	3121.9164	3126.4682	3142.9637	3169.159	3210.738	3519.0696
CCOC(=N)C1CC1C	CCO[C]([NH])[C@H]1C[C@H]1C	
InChI=1S/C7H13NO/c1-3-9-7(8)6-4-5(6)2/h5-6,8H,3-4H2,1-2H3	InChI=1S/C7H13NO/c1-3-9-7(8)6-4-5(6)2/h5-6,8H,3-4H2,1-2H3/t5-,6+/m1/s1
