18
gdb 90789	2.95753	1.61474	1.37317	4.3846	74.21	-0.2376	-0.0006	0.237	993.7942	0.149193	-401.946152	-401.93884	-401.937896	-401.977811	29.029	
C	-0.1353635782	 1.531602641	 0.0064204148	-0.408561
C	 0.0061257973	 0.0073477198	 0.018278552	 0.025741
C	 0.8379315548	-0.5275449356	-1.1852573709	-0.264974
C	 2.2169506913	-0.8167143223	-0.6002472003	-0.014589
C	 2.3061133318	-0.400814645	 0.7994220682	-0.05244
C	 0.8238813522	-0.4852515604	 1.2348882711	-0.19842
C	 1.0401152154	-1.9967685599	 1.1082462599	 0.417722
O	 0.4742561645	-2.9762531155	 1.483349852	-0.316491
N	 2.3342431702	-1.900450553	 0.4539623599	-0.207171
H	 0.8466085174	 2.0182791406	-0.0106254729	 0.120611
H	-0.6879300234	 1.8650396112	-0.8779295696	 0.12107
H	-0.670974373	 1.8866373337	 0.8926968979	 0.120055
H	-0.9883709993	-0.4495626816	 0.035832559	 0.095467
H	 0.4009398458	-1.4294652524	-1.6252869622	 0.126073
H	 0.9163115413	 0.2177994651	-1.9828458642	 0.109864
H	 3.0889514623	-0.8156756244	-1.2447811944	 0.113467
H	 3.1386988985	 0.0526204246	 1.3187652368	 0.11665
H	 0.5045187911	-0.1030537761	 2.2038154529	 0.095926
121.2459	134.8586	252.7419	290.8801	344.5044	389.3515	491.2629	586.6611	666.4899	711.7291	728.4274	789.2371	826.4236	828.2105	865.5102	898.7282	933.1792	960.6552	973.2597	1014.0638	1032.3492	1053.3107	1079.3284	1108.6947	1123.5852	1190.5016	1198.4591	1227.876	1245.119	1272.6642	1295.1644	1335.452	1360.112	1391.732	1411.6359	1488.0708	1497.3784	1499.7456	1909.0861	3028.941	3049.791	3060.3753	3091.6373	3099.3518	3104.5979	3128.405	3178.4753	3219.0485
CC1CC2C3C1C(=O)N23	C[C@H]1C[C@H]2[C@H]3[C@@H]1C(=O)N23	
InChI=1S/C7H9NO/c1-3-2-4-6-5(3)7(9)8(4)6/h3-6H,2H2,1H3	InChI=1S/C7H9NO/c1-3-2-4-6-5(3)7(9)8(4)6/h3-6H,2H2,1H3/t3-,4-,5+,6-,8?/m0/s1
