19
gdb 10702	2.39831	2.02946	1.58542	2.325	72.71	-0.206	-0.0174	0.1887	935.3129	0.163422	-365.046096	-365.037233	-365.036289	-365.078906	32.712	
C	 0.1254856056	 1.3194837447	-0.3039258768	-0.334086
N	-0.016564235	-0.0670323623	 0.1302488944	-0.118726
C	 0.6999012144	-0.3477211895	 1.3708143933	-0.334085
C	-1.3606158582	-0.5600337021	 0.1004566138	 0.262828
C	-1.8935850942	-1.0206836882	-1.2565123578	-0.305257
C	-1.541860766	-2.0415431408	-0.231080186	-0.305258
C	-2.3862042956	 0.0086351821	 1.0183306208	 0.128243
O	-2.1860992159	 0.8856734568	 1.8233920144	-0.278508
H	 1.1885279541	 1.5402297825	-0.4499653514	 0.113181
H	-0.3807549963	 1.4548439899	-1.2647773708	 0.112159
H	-0.2848757277	 2.0473943439	 0.4112283778	 0.125928
H	 0.3384182731	 0.2383461321	 2.2284581375	 0.12594
H	 0.6065522234	-1.4107746902	 1.6137973666	 0.112157
H	 1.7633293095	-0.1280989083	 1.2258935575	 0.113175
H	-2.9396404763	-0.8434574753	-1.4815114196	 0.123591
H	-1.2089064013	-0.8745212461	-2.0826470992	 0.136403
H	-0.6174930374	-2.5910687684	-0.3584141193	 0.136415
H	-2.3406021973	-2.5821271306	 0.2649502078	 0.123597
H	-3.4000367989	-0.4501158001	 0.9098610871	 0.062303
109.2005	150.6589	190.096	226.0542	231.0482	235.0263	283.6306	327.8391	370.991	408.7879	535.1723	549.2992	739.7591	787.4539	834.8726	882.0336	955.2999	962.1052	1033.2542	1041.8978	1065.4693	1071.2478	1089.8838	1119.3251	1185.369	1199.6761	1250.9651	1251.0342	1270.2533	1371.551	1430.0594	1437.5587	1451.6486	1467.5727	1477.5059	1487.217	1494.1822	1512.0929	1528.7034	1812.1559	2823.645	2994.0437	3000.4539	3063.6294	3064.5406	3097.9857	3100.2452	3142.0397	3144.2323	3230.9311	3244.249
CN(C)C1(CC1)C=O	CN(C)C1(CC1)C=O	
InChI=1S/C6H11NO/c1-7(2)6(5-8)3-4-6/h5H,3-4H2,1-2H3	InChI=1S/C6H11NO/c1-7(2)6(5-8)3-4-6/h5H,3-4H2,1-2H3
