15
gdb 50608	2.42116	1.65843	1.00011	7.25	77.29	-0.236	-0.0523	0.1838	1116.9019	0.113579	-416.85183	-416.843676	-416.842732	-416.885378	28.731	
O	-0.1528320482	 0.0066692451	 0.2238085295	-0.302518
C	-0.035851398	 1.2069164629	 0.1440966781	 0.137839
N	 1.147774612	 1.8818562323	 0.0150719751	-0.15549
C	 1.2601298832	 3.3489477131	-0.1026885103	-0.188116
C	 2.7758702361	 3.6314563369	 0.0685489152	-0.270263
C	 3.3920928217	 2.2614662793	-0.0505317587	-0.208964
C	 2.4386815527	 1.3174058229	-0.0517323503	 0.306409
C	 2.6763164034	-0.0855787556	-0.1161564441	 0.25706
N	 2.9905202074	-1.1971589726	-0.1814795746	-0.340563
H	-0.8925533401	 1.9080605314	 0.1711599568	 0.085636
H	 0.909878571	 3.6702255785	-1.0898032559	 0.134595
H	 0.6464631292	 3.8403466018	 0.6551819093	 0.136579
H	 3.1443249486	 4.3287305469	-0.6895529909	 0.134271
H	 3.0046428652	 4.0785834495	 1.0445823255	 0.135632
H	 4.4519802959	 2.0602370477	-0.0901144547	 0.137892
48.3438	142.4491	156.1094	168.6839	239.3631	264.1037	430.39	448.6004	534.6102	609.0194	663.6941	731.9208	797.7441	829.2221	860.9675	936.7384	1014.4698	1022.7523	1065.0229	1098.3917	1197.5936	1229.3527	1257.5748	1280.4478	1326.0544	1344.0058	1428.5533	1447.9851	1486.592	1519.8169	1670.2131	1805.0998	2353.3401	2944.3241	3024.2027	3038.8352	3077.9712	3105.3585	3255.3346
O=CN1CCC=C1C#N	O=CN1CCC=C1C#N	
InChI=1S/C6H6N2O/c7-4-6-2-1-3-8(6)5-9/h2,5H,1,3H2	InChI=1S/C6H6N2O/c7-4-6-2-1-3-8(6)5-9/h2,5H,1,3H2
