21
gdb 77688	2.65233	1.35136	1.20448	1.9191	78.69	-0.2515	0.0716	0.3231	1158.5654	0.180333	-424.200831	-424.191443	-424.190499	-424.234315	36.418	
C	-0.1876194885	 1.4729293694	 0.0783694395	-0.443598
C	-0.0782406117	-0.049268208	-0.0195514646	 0.287715
C	-1.4233907657	-0.6915932152	-0.3367561353	-0.461911
C	 1.1328492167	-0.4929904593	-0.9190160798	-0.356049
C	 1.9533900409	-0.6686171326	 0.3536999589	 0.373115
C	 3.3131604644	-1.103944329	 0.6525578582	-0.268743
O	 2.9553007705	 0.2918111684	 0.7108664932	-0.283371
C	 0.6915839362	-0.6630999819	 1.2188844119	 0.05011
O	 0.7725693443	 0.0332854009	 2.4274729108	-0.431652
H	 0.7875959614	 1.9396162754	 0.247825566	 0.12255
H	-0.5977547703	 1.8874079527	-0.8490897403	 0.109454
H	-0.8438859192	 1.7617494704	 0.9047802182	 0.124947
H	-1.8120144805	-0.3452016453	-1.301432833	 0.113304
H	-1.3429787307	-1.7834688823	-0.3827437644	 0.106978
H	-2.1663552055	-0.4422919414	 0.4293539261	 0.121622
H	 0.9557415958	-1.4398182297	-1.4383697636	 0.103612
H	 1.515810294	 0.2426760065	-1.6301472895	 0.115013
H	 3.5332362816	-1.5647642622	 1.6144892729	 0.122371
H	 3.9925142848	-1.3663058944	-0.1569664142	 0.121054
H	 0.3251583474	-1.6753763261	 1.4291492531	 0.080867
H	 1.5350733542	 0.6229321438	 2.3420942958	 0.292614
75.5673	203.9567	214.6914	226.6528	232.533	258.3368	283.453	322.4002	346.8159	400.5279	451.5842	510.2764	535.2827	609.0373	726.7979	794.8691	807.7831	856.6656	887.2093	922.2837	958.8143	968.9312	987.3611	1023.7211	1093.223	1121.0785	1132.1462	1162.8969	1169.9553	1199.2864	1203.549	1237.6808	1276.5137	1281.0069	1345.4678	1403.7654	1418.9579	1425.5101	1445.9008	1475.0468	1484.6125	1490.1868	1502.9072	1509.3838	1530.7693	3019.3249	3032.0665	3034.2141	3055.3242	3085.0343	3086.4866	3090.0679	3100.2208	3110.7301	3115.3684	3172.8418	3740.16
CC1(C)CC2(CO2)C1O	CC1(C)C[C@]2(CO2)[C@H]1O	
InChI=1S/C7H12O2/c1-6(2)3-7(4-9-7)5(6)8/h5,8H,3-4H2,1-2H3	InChI=1S/C7H12O2/c1-6(2)3-7(4-9-7)5(6)8/h5,8H,3-4H2,1-2H3/t5-,7-/m0/s1
