18
gdb 79691	2.76481	1.73992	1.38613	2.254	74.98	-0.2372	0.0016	0.2389	974.7075	0.14898	-401.903594	-401.896006	-401.895061	-401.936785	29.511	
C	-0.1090502556	 1.6441318121	-0.0285489696	-0.410563
C	 0.0375786377	 0.1144571565	-0.0230830047	 0.025274
C	 1.003650208	-0.6768758199	-0.9794680845	-0.178403
C	 2.4144956127	-0.3316674797	-0.4953673844	-0.046293
N	 2.54174336	 0.9195565356	 0.2843133551	-0.336552
C	 2.2356917166	-0.3434533626	 0.9919945544	-0.046294
C	 0.750961923	-0.693555082	 1.1225006195	-0.178407
C	 0.7326938635	-1.8313218283	 0.0450385934	 0.423649
O	 0.5076915166	-2.9989931692	 0.0087249511	-0.314952
H	 0.459965541	 2.1026896655	-0.8380940946	 0.131528
H	-1.1628878554	 1.913940082	-0.1526832567	 0.099336
H	 0.2518045458	 2.0889778454	 0.8995106981	 0.131556
H	-0.9553206722	-0.330226074	-0.145990269	 0.096548
H	 0.8109531038	-0.778401089	-2.0450449894	 0.081925
H	 3.280909816	-0.7592458624	-0.985250066	 0.102906
H	 3.5341036867	 1.1122879209	 0.4051392791	 0.233912
H	 2.9621319238	-0.780252154	 1.6665113337	 0.102906
H	 0.3114267881	-0.8113774872	 2.1103364345	 0.081925
19.4472	143.3522	235.2051	274.7631	319.4499	427.6774	544.9314	548.4579	669.378	673.5516	745.164	745.9785	775.0725	839.3952	851.1928	879.1657	936.6792	954.734	995.4832	1019.4045	1056.7067	1071.6375	1079.3836	1079.7221	1101.9218	1127.8298	1147.0272	1173.1414	1196.4245	1214.2278	1262.3606	1295.7102	1347.9754	1380.7834	1418.2263	1432.8685	1485.9274	1492.102	1909.4205	3039.1306	3054.007	3123.3437	3144.9854	3146.6993	3148.3434	3182.4266	3191.1335	3492.7919
CC1C2C3NC3C1C2=O	C[C@H]1[C@H]2[C@H]3N[C@H]3[C@@H]1C2=O	
InChI=1S/C7H9NO/c1-2-3-5-6(8-5)4(2)7(3)9/h2-6,8H,1H3	InChI=1S/C7H9NO/c1-2-3-5-6(8-5)4(2)7(3)9/h2-6,8H,1H3/t2-,3-,4+,5+,6-
