20
gdb 53791	2.46182	1.30789	1.05491	1.0957	75.92	-0.2371	-0.0629	0.1742	1230.9043	0.16794	-440.347751	-440.337212	-440.336268	-440.382905	38.869	
C	-0.0075200459	 1.5358269144	-0.0143030973	-0.398986
C	-0.0049007954	-0.0002822774	 0.0115313813	 0.154211
C	 0.7483622807	-0.5043250121	 1.2659788215	-0.42791
C	-1.4592817902	-0.5291002023	 0.0202649656	-0.427944
C	 0.7070318409	-0.5134267264	-1.2393939401	 0.289799
O	 1.1755353519	 0.2203887576	-2.0826612944	-0.323279
C	 0.8484608803	-2.0530860217	-1.4612107744	 0.328471
N	 1.4988893926	-2.3221448565	-2.6137578906	-0.505356
O	 0.4227364914	-2.8920842944	-0.6875935169	-0.355108
H	 1.0093792011	 1.9367643325	-0.0302862977	 0.119884
H	-0.5261761302	 1.9195564733	-0.8968347304	 0.119849
H	-0.5150190603	 1.9167650947	 0.8773957602	 0.10725
H	 0.2541926339	-0.1123132342	 2.1610536418	 0.116268
H	 0.7525331484	-1.5932941261	 1.3148526112	 0.15506
H	 1.7834045876	-0.1458157138	 1.2755361482	 0.114302
H	-2.0085574818	-0.1883996818	-0.8641338255	 0.1143
H	-1.4847501678	-1.6183962476	 0.0524540481	 0.155014
H	-1.9766699365	-0.1373509375	 0.9022361933	 0.116297
H	 1.8138487565	-1.554367589	-3.1844311029	 0.279722
H	 1.6626591329	-3.2771946118	-2.882421431	 0.268157
56.094	81.9382	188.7622	203.7966	219.2362	251.3174	269.0091	294.5823	328.0583	333.1555	367.7374	369.1754	419.2254	502.7543	537.2989	605.2761	651.6896	674.9376	823.012	832.239	940.6354	944.6749	967.07	1013.0184	1040.5005	1074.4939	1098.1753	1216.865	1244.0864	1286.2058	1358.5471	1385.8564	1395.7847	1424.245	1474.3529	1483.9841	1492.8364	1499.4909	1503.5927	1527.6133	1578.2761	1778.5624	1794.8079	3034.3124	3035.298	3043.7832	3095.6653	3097.276	3114.36	3120.433	3152.3687	3154.9296	3596.2068	3739.5218
CC(C)(C)C(=O)C(N)=O	CC(C)(C)C(=O)C(=O)N	
InChI=1S/C6H11NO2/c1-6(2,3)4(8)5(7)9/h1-3H3,(H2,7,9)	InChI=1S/C6H11NO2/c1-6(2,3)4(8)5(7)9/h1-3H3,(H2,7,9)
