18
gdb 116693	3.73602	0.75864	0.72722	4.4908	76.28	-0.2192	0.0029	0.2221	1617.5261	0.145081	-476.181123	-476.171316	-476.170371	-476.217187	34.445	
C	-0.0408183406	 1.282109199	 0.0583335007	-0.25026
O	-0.0686020971	-0.1402580297	-0.0047641767	-0.194115
C	 0.53054748	-0.6879211059	-1.0754863478	 0.132291
N	 0.5275294389	-1.9379348151	-1.2366421529	-0.231256
C	 1.1914084239	-2.5066503817	-2.3514388596	-0.071121
C	 1.4737439277	-3.9972091221	-2.1868499024	 0.019046
O	 0.9342411458	-4.5864928974	-1.0393168312	-0.437216
C	 0.4474058697	-3.5602367551	-3.1952851216	 0.09058
O	-0.8768403381	-3.8731610994	-2.9486675189	-0.425956
H	 0.9872141794	 1.6636622159	 0.0506578487	 0.129707
H	-0.6012740133	 1.7291231317	-0.7711319542	 0.133596
H	-0.5165810217	 1.555624086	 1.00039422	 0.150977
H	 1.0052442533	 0.0291038192	-1.7602200857	 0.085534
H	 1.9264303326	-1.8984376324	-2.8798357545	 0.081426
H	 2.4310182147	-4.4154387044	-2.4843448162	 0.098188
H	 0.676093647	-3.8450065614	-0.4649956592	 0.298957
H	 0.7002167981	-3.5774774006	-4.2520786605	 0.100445
H	-0.8692757305	-4.4024016765	-2.1360698879	 0.289176
35.469	65.5467	114.1032	138.8577	184.573	222.3962	274.3425	285.059	379.6543	427.7323	480.8088	588.2303	632.7948	685.1271	724.2369	744.875	796.5741	954.1309	976.2991	1025.962	1037.2274	1058.6264	1098.1393	1145.0883	1154.6764	1177.1252	1183.3594	1232.4799	1273.6738	1328.9139	1350.034	1360.3114	1408.4649	1426.2613	1458.7043	1488.2588	1494.183	1500.4028	1773.0062	3011.7819	3024.8891	3082.8786	3088.599	3139.59	3149.5599	3150.1206	3646.2274	3703.6442
COC=NC1C(O)C1O	COC=N[C@H]1[C@@H](O)[C@H]1O	
InChI=1S/C5H9NO3/c1-9-2-6-3-4(7)5(3)8/h2-5,7-8H,1H3	InChI=1S/C5H9NO3/c1-9-2-6-3-4(7)5(3)8/h2-5,7-8H,1H3/t3-,4+,5-
