18
gdb 19442	3.05629	2.12125	1.57192	1.7139	71.96	-0.2543	0.0707	0.3249	875.7252	0.15361	-347.757331	-347.749996	-347.749052	-347.788914	28.578	
C	 0.2980429771	 1.5086925209	-0.105175448	-0.339254
C	 1.3817024691	 0.4728804834	 0.0747108826	-0.308847
C	-0.0599940695	 0.0565021376	-0.0072568775	 0.29942
C	-0.8623009671	-0.7018654966	 1.0642543135	-0.321298
C	-1.1884334305	-1.7998422246	-0.0009623366	-0.319983
C	-0.6106125332	-0.8675982446	-1.0734157599	 0.406179
C	-1.1142902214	-0.564442686	-2.4139600211	-0.270116
O	 0.1102281861	-1.2921278056	-2.2157160938	-0.273106
H	 0.0527105401	 2.1468915647	 0.7379321943	 0.113224
H	 0.2098927329	 1.9955734733	-1.0716423076	 0.113064
H	 2.0076326016	 0.2365093669	-0.779255439	 0.128493
H	 1.8772585489	 0.4081049446	 1.0380749052	 0.111181
H	-0.3006807324	-1.0375043481	 1.9389949647	 0.105037
H	-1.750603843	-0.1609679971	 1.4022385716	 0.105533
H	-0.581387802	-2.7009420839	 0.1174356616	 0.119845
H	-2.2362114786	-2.0880586537	-0.1101235753	 0.105667
H	-1.9386978441	-1.1444232086	-2.8281593635	 0.112674
H	-0.999121094	 0.4369439974	-2.8274018315	 0.112288
70.5957	190.2786	210.7098	280.6195	335.7747	401.6156	499.2324	554.5781	589.6508	751.2529	781.2754	836.6466	875.2294	879.821	887.4534	921.1493	938.4554	940.8114	1002.7415	1054.1915	1074.6184	1108.1625	1118.4626	1132.453	1144.8611	1164.4679	1191.7641	1195.3135	1230.6696	1254.6235	1268.0025	1370.4012	1437.6915	1460.7941	1472.193	1496.128	1501.7212	1539.8515	3057.1822	3067.0058	3076.631	3104.5487	3121.4073	3124.2761	3127.9787	3162.4006	3201.0619	3220.2048
C1CC11CCC11CO1	C1CC21CC[C@]12CO1	
InChI=1S/C7H10O/c1-2-6(1)3-4-7(6)5-8-7/h1-5H2	InChI=1S/C7H10O/c1-2-6(1)3-4-7(6)5-8-7/h1-5H2/t7-/m1/s1
