17
gdb 81369	2.56361	1.68849	1.32162	2.9401	68.47	-0.2368	-0.0042	0.2326	992.1669	0.136073	-458.926277	-458.918441	-458.917496	-458.958245	30.646	
O	-0.0295934482	 1.3853212069	-0.0778023988	-0.44744
C	 0.0756272168	-0.0130961243	-0.0174305267	 0.153815
C	 0.0794337875	-0.6258402355	 1.4214524375	-0.020255
O	-1.3789219372	-0.5445071379	 1.4299218542	-0.296793
C	-1.3328857757	-0.6342809965	-0.0169176245	 0.055545
C	-1.2953870398	-2.1218686803	-0.3980221423	 0.05971
O	-1.0221699966	-2.1816223796	-1.7969922901	-0.434575
C	-0.2174752729	-2.8032922243	 0.4301764524	-0.104169
C	 0.4725934388	-2.0811085433	 1.3135603153	-0.060873
H	 0.8465390692	 1.7596592681	 0.0578572211	 0.284059
H	 0.8072789366	-0.4149611446	-0.7257002263	 0.086081
H	 0.5378816872	-0.0708302208	 2.2427697415	 0.075465
H	-2.1310389043	-0.0798615064	-0.5148767665	 0.092667
H	-2.2788831918	-2.5686464004	-0.1823815288	 0.081144
H	-1.0374870468	-3.1041755833	-2.0703650344	 0.285858
H	-0.039422983	-3.8641073092	 0.2713484695	 0.091814
H	 1.2789167403	-2.4881829186	 1.914772087	 0.097947
140.4921	195.184	203.7795	262.9683	293.6774	334.3578	404.0864	435.2553	483.7364	519.8856	649.0846	703.4044	793.5833	875.7359	886.9067	927.0498	947.5855	965.3401	973.203	976.9865	1034.7441	1078.4653	1080.8448	1133.855	1142.4829	1174.8297	1183.2384	1223.6127	1272.0511	1300.0679	1308.2722	1331.2992	1349.1405	1390.1958	1416.5365	1444.1759	1688.9515	2974.7097	3055.9903	3092.3897	3100.4704	3153.3876	3187.4168	3818.8837	3820.735
OC1C2OC1C(O)C=C2	O[C@H]1[C@H]2O[C@@H]1[C@@H](O)C=C2	
InChI=1S/C6H8O3/c7-3-1-2-4-5(8)6(3)9-4/h1-8H	InChI=1S/C6H8O3/c7-3-1-2-4-5(8)6(3)9-4/h1-8H/t3-,4-,5-,6+/m0/s1
