16
gdb 54362	2.17453	1.68653	1.09897	1.9912	65.46	-0.2572	-0.0512	0.206	1080.5735	0.123454	-475.037148	-475.028473	-475.027529	-475.071692	31.037	
N	 0.1754186325	 1.2696353338	 0.5203555021	-0.549385
C	 0.0590923779	 0.1634265501	-0.2450222198	 0.336798
O	 0.8920883607	-0.1913507897	-1.0612657897	-0.373085
C	-1.2089217344	-0.6804520266	-0.0555819315	 0.046296
C	-1.8932041682	-1.1185004772	-1.3927160523	-0.106017
O	-1.8240302259	-2.5099797817	-1.0447449504	-0.266723
C	-0.9450569217	-2.2188255487	 0.0528487591	-0.106026
C	-2.2586254258	-0.2696928744	 0.9455973133	 0.13816
O	-2.2450501726	 0.6968453751	 1.6721233337	-0.290061
H	 1.0017066711	 1.8344065025	 0.4079837676	 0.261053
H	-0.5486071376	 1.5148131029	 1.1816651567	 0.283687
H	-2.9235324609	-0.7812496033	-1.5521932521	 0.113359
H	-1.269354331	-0.8706229744	-2.2571121153	 0.140992
H	 0.0990873496	-2.4588563204	-0.1706540579	 0.14099
H	-1.2626348942	-2.7087234658	 0.9801604381	 0.113346
H	-3.1183303397	-0.9739286524	 0.9736731984	 0.116615
28.1685	99.9772	105.2385	245.002	264.2625	324.6519	357.9672	398.3194	432.7056	436.1169	608.7732	669.9955	697.131	774.9929	810.5484	915.6637	925.9083	978.4396	989.2997	1046.4763	1090.2406	1115.8487	1154.6568	1172.3275	1179.5612	1274.1887	1310.628	1369.6632	1375.6517	1442.7738	1493.8287	1521.3773	1604.9439	1782.2592	1810.3435	2903.6356	3026.5764	3034.6973	3092.4517	3093.451	3532.9392	3698.3688
NC(=O)C1(COC1)C=O	NC(=O)C1(COC1)C=O	
InChI=1S/C5H7NO3/c6-4(8)5(1-7)2-9-3-5/h1H,2-3H2,(H2,6,8)	InChI=1S/C5H7NO3/c6-4(8)5(1-7)2-9-3-5/h1H,2-3H2,(H2,6,8)
