18
gdb 89685	2.61476	1.33978	1.09409	4.0082	76.65	-0.2175	-0.0235	0.1941	1159.8426	0.145532	-439.050574	-439.041447	-439.040503	-439.084292	33.792	
C	-0.1790651153	 1.5161304681	-0.0186465571	-0.402178
C	 0.1271019771	 0.0285640644	-0.0023220248	 0.006221
N	 1.2944609181	-0.4137025559	-0.8454835986	-0.381905
C	 1.8209357333	-1.2209181695	 0.2542656302	 0.222679
C	 2.2037943138	-0.289304736	 1.3888430419	-0.397208
C	 0.7582281184	-0.5985813485	 1.2440731681	 0.315817
O	-0.0213400727	-1.1568064457	 2.226421364	-0.445351
C	 2.228525809	-2.6074810716	 0.1042174207	 0.054381
O	 2.1430278711	-3.2186782541	-0.9409323839	-0.293054
H	 0.7099903611	 2.1034924927	 0.2276772389	 0.120399
H	-0.5215993779	 1.8265055695	-1.0107425506	 0.125943
H	-0.9690228785	 1.7516791284	 0.7024878963	 0.12033
H	-0.771324172	-0.5517570382	-0.2443398272	 0.097359
H	 1.0081589973	-1.0262467615	-1.6045377217	 0.238352
H	 2.6800259981	-0.7845289343	 2.2327003839	 0.122296
H	 2.6211701595	 0.6793578785	 1.1247948555	 0.132044
H	 0.3437998729	-0.9307081555	 3.0881264015	 0.296489
H	 2.6048716265	-3.0875915907	 1.0341420226	 0.067387
98.353	126.771	151.874	187.7349	209.1333	242.4072	290.109	366.4446	421.8766	448.8694	526.2317	552.2942	659.4047	694.1534	757.5058	820.7555	834.9644	885.6783	949.4447	983.0687	1021.8941	1041.515	1081.3578	1091.5653	1120.2096	1144.1558	1207.2892	1260.2166	1288.2413	1346.4999	1364.0116	1397.9951	1407.0618	1416.7508	1444.1941	1485.8349	1487.1542	1494.268	1771.3837	2886.4301	3036.31	3039.6433	3099.5573	3106.8356	3116.9458	3189.884	3514.5407	3812.4421
CC1NC2(CC12O)C=O	C[C@H]1N[C@]2(C[C@@]12O)C=O	
InChI=1S/C6H9NO2/c1-4-6(9)2-5(6,3-8)7-4/h3-4,7,9H,2H2,1H3	InChI=1S/C6H9NO2/c1-4-6(9)2-5(6,3-8)7-4/h3-4,7,9H,2H2,1H3/t4-,5-,6-/m1/s1
