19
gdb 38550	2.71892	2.20403	1.63461	0.3894	83.01	-0.1941	0.0155	0.2097	888.6389	0.162771	-348.716172	-348.709825	-348.708881	-348.746338	27.829	
C	-0.0776801991	 1.4644256392	-0.1225828523	-0.39211
C	 1.2768355525	 0.801157497	 0.0220958787	-0.011745
C	 2.2095265454	 0.2471348337	-1.0590479159	-0.264704
C	 1.4455964029	-0.9398245768	-1.642744378	-0.034628
C	 0.7124011769	-2.0725277389	-0.8386726204	-0.095011
C	 0.535295289	-2.1513613937	 0.6556976828	-0.093706
C	-0.0112564862	-1.0263234025	 1.1372222648	-0.194684
C	-0.0133904894	-0.0249990961	 0.0188735857	 0.283304
C	-0.0038705745	-0.8309037957	-1.2823428509	-0.13042
H	-0.3934815945	 2.0849301142	 0.7112575509	 0.113122
H	-0.4060670345	 1.8334330924	-1.0910398361	 0.112152
H	 1.7280727319	 0.9540156192	 0.9972813792	 0.084256
H	 2.4451982165	 0.9620214483	-1.8603627382	 0.096086
H	 3.1670103945	-0.0317624721	-0.6039181789	 0.102125
H	 1.7252677043	-1.268795443	-2.64019173	 0.080058
H	 0.6184411234	-2.9897752956	-1.4114167133	 0.082042
H	 0.8001073358	-3.0277248304	 1.2340031387	 0.092662
H	-0.2114137537	-0.7944703154	 2.1763321196	 0.095264
H	-0.8332205814	-0.7958076434	-1.9822612464	 0.075937
196.5896	289.221	334.9049	401.0317	516.8045	553.1735	631.7041	674.4977	709.326	730.3835	792.482	794.5167	818.6456	831.3339	846.3128	908.0461	911.0318	923.281	963.6917	990.2945	1008.7422	1047.9363	1056.0701	1082.4195	1100.2418	1101.6001	1113.635	1133.0233	1162.6342	1218.7644	1237.1064	1273.3264	1297.6886	1317.6261	1350.8087	1360.2546	1382.8526	1412.8025	1482.0508	1498.0416	1625.0038	3000.2226	3051.3564	3109.0147	3138.7431	3145.1568	3153.5156	3161.5877	3193.4317	3195.219	3220.1108
C1C2CC3C4C=CC12C34	C1[C@@H]2C[C@H]3[C@H]4C=C[C@@]12[C@@H]34	
InChI=1S/C9H10/c1-2-9-4-5(9)3-7-6(1)8(7)9/h1-2,5-8H,3-4H2	InChI=1S/C9H10/c1-2-9-4-5(9)3-7-6(1)8(7)9/h1-2,5-8H,3-4H2/t5-,6+,7-,8+,9+/m0/s1
