21
gdb 40026	3.31698	1.52877	1.42996	0.3147	85.02	-0.2385	0.0938	0.3324	1020.2389	0.185394	-349.923272	-349.916254	-349.91531	-349.954361	30.052	
C	-0.0059771279	 1.5190993053	 0.0074006129	-0.307106
C	 1.2974743127	 0.7552855253	-0.0155949447	-0.341915
C	-0.0096981823	 0.009941326	 0.0252991298	 0.396416
C	-0.4438632482	-0.7948623056	 1.2612377037	-0.29488
C	-1.5275123078	-1.7285072848	 0.704145098	-0.046588
C	-2.6903124814	-0.9127534951	 0.0434815593	-0.235324
C	-1.9852356709	-1.0734670149	-1.3033037935	-0.067325
C	-1.0430680988	-2.1166529467	-0.7263153111	-0.086273
C	-0.4931270985	-0.7894540134	-1.1646861158	-0.110401
H	-0.2723235322	 2.0463432212	 0.9182341462	 0.105041
H	-0.3216699575	 2.0184006305	-0.9032995748	 0.107297
H	 1.8696483791	 0.7442548178	-0.9382378145	 0.106403
H	 1.9080736687	 0.7602856997	 0.8821517011	 0.106302
H	 0.3964511043	-1.3822973404	 1.6530915976	 0.093978
H	-0.8147787103	-0.1596782539	 2.0731310024	 0.092593
H	-1.8314073324	-2.5275153067	 1.3802800155	 0.063631
H	-3.6318798857	-1.4677673431	 0.0676081351	 0.095793
H	-2.8642278919	 0.1022319472	 0.4190128805	 0.090219
H	-2.4607527843	-1.0576256877	-2.2776153618	 0.0762
H	-0.7435260613	-3.0884783499	-1.0955648831	 0.079247
H	 0.0575127066	-0.7337547209	-2.0980122927	 0.076692
107.6209	238.5435	283.3843	353.9799	380.5026	493.7235	511.0538	627.956	739.4416	758.0112	780.2087	799.405	824.8033	838.5561	872.3776	889.6195	938.4134	943.0959	946.0439	976.0769	991.1032	1006.7632	1029.6275	1029.9531	1054.5581	1062.073	1075.1157	1083.0404	1102.7889	1141.7255	1165.5551	1189.2934	1229.5841	1239.8674	1251.257	1272.9656	1294.065	1310.2653	1322.9453	1358.6273	1414.0873	1466.6309	1487.1307	1493.896	1503.5241	3018.9908	3032.7872	3068.9828	3091.4086	3111.3759	3117.1763	3121.657	3161.9899	3170.7979	3194.354	3199.5112	3210.1565
C1CC11CC2CC3C2C13	C1CC21C[C@H]1C[C@@H]3[C@H]1[C@H]23	
InChI=1S/C9H12/c1-2-9(1)4-5-3-6-7(5)8(6)9/h5-8H,1-4H2	InChI=1S/C9H12/c1-2-9(1)4-5-3-6-7(5)8(6)9/h5-8H,1-4H2/t5-,6-,7+,8-/m1/s1
