14
gdb 43517	2.54834	1.48164	1.04785	0.9906	70.11	-0.2619	-0.0036	0.2584	1096.8384	0.101774	-432.887902	-432.879882	-432.878938	-432.92085	29.899	
N	-0.0757121704	 1.3102207165	-0.0978230444	-0.524305
C	 0.0161287152	 0.0511916021	-0.0260438407	 0.399476
N	 1.1074717426	-0.7947491975	 0.0302552068	-0.391763
C	 0.7718417259	-2.1570492093	 0.0099703709	 0.455038
O	 1.5412686539	-3.080164945	 0.0934267938	-0.384735
N	-0.5985693174	-2.1992018005	-0.1526664852	-0.343218
C	-1.2145104353	-0.8809190742	 0.0038479738	-0.221837
C	-1.9887158501	-0.7493796874	 1.2357306688	 0.358137
C	-2.6376211708	-0.6818212682	 2.24376496	-0.465454
H	 0.8385894454	 1.7636341672	-0.1083209646	 0.218855
H	 2.0701669971	-0.5000937479	 0.037728958	 0.270703
H	-1.0826219029	-3.0324367068	 0.1411338362	 0.268841
H	-1.8499848352	-0.6376518309	-0.8551620515	 0.148588
H	-3.2074965081	-0.605171018	 3.1371187081	 0.211673
69.7663	125.3346	139.4367	257.2143	357.2684	419.8018	446.4163	491.6328	501.3605	569.0166	632.2784	644.8252	668.7183	673.3767	732.0847	765.454	857.9771	892.5317	989.8316	1010.7455	1083.0836	1112.6183	1215.9625	1283.9514	1336.7439	1351.8345	1401.9262	1408.3747	1777.2707	1876.0802	2243.2445	3045.2133	3473.8386	3500.8461	3654.5072	3663.1804
N=C1NC(=O)NC1C#C	[NH][C]1NC(=O)N[C@H]1C#C	
InChI=1S/C5H5N3O/c1-2-3-4(6)8-5(9)7-3/h1,3H,(H3,6,7,8,9)	InChI=1S/C5H5N3O/c1-2-3-4(6)8-5(9)7-3/h1,3H,(H3,6,7,8,9)/t3-/m0/s1
