16
gdb 9463	2.60713	1.90813	1.69396	2.2023	66.31	-0.2476	-0.0505	0.1971	872.2159	0.127885	-383.76341	-383.755101	-383.754156	-383.796431	29.481	
C	-0.1258686001	 1.7603730513	 0.3637937708	-0.466009
C	 0.0278076107	 0.2736207576	 0.0513769869	 0.09526
C	 0.7348333875	-0.1890403029	-1.2566039948	-0.273975
C	 1.6742992111	-1.1350408289	-0.4483818682	-0.331484
C	 1.1912364725	-0.4434724326	 0.8244889718	 0.36412
O	 1.5898360213	-0.3425782023	 1.9452300273	-0.286487
C	-1.2592185858	-0.4841189236	 0.3168605978	 0.121862
O	-1.6745487359	-1.3947595782	-0.3538876446	-0.248934
H	 0.8334978752	 2.2766019847	 0.2707009261	 0.131684
H	-0.8384284582	 2.2374614336	-0.3169212328	 0.131033
H	-0.4805802579	 1.9032267532	 1.3893834514	 0.140781
H	 0.0740706869	-0.6835763754	-1.9675622229	 0.132646
H	 1.271411974	 0.627152593	-1.7434381472	 0.112041
H	 1.3454594062	-2.1789676338	-0.4794406646	 0.152029
H	 2.7501633079	-1.0971589474	-0.6326893189	 0.133536
H	-1.8008690654	-0.1443681384	 1.227086732	 0.091896
76.666	94.4684	152.2598	185.9398	249.7882	277.6651	324.4709	478.7036	482.5281	607.4205	640.6244	733.8198	749.6812	832.1518	920.2928	938.5171	970.3929	991.2701	1052.0838	1094.1906	1132.1548	1198.9968	1206.5953	1224.9145	1257.8987	1273.6761	1401.766	1420.2129	1436.1247	1474.6554	1488.1109	1494.4507	1806.2716	1891.4212	2890.8258	3036.6855	3061.3056	3086.3418	3107.8814	3115.2386	3121.5362	3154.9277
CC1(CCC1=O)C=O	C[C@]1(CCC1=O)C=O	
InChI=1S/C6H8O2/c1-6(4-7)3-2-5(6)8/h4H,2-3H2,1H3	InChI=1S/C6H8O2/c1-6(4-7)3-2-5(6)8/h4H,2-3H2,1H3/t6-/m0/s1
