15
gdb 45658	3.20127	1.74831	1.14685	3.7171	74.19	-0.2382	-0.0482	0.19	994.0697	0.115616	-416.870781	-416.864077	-416.863133	-416.902014	25.827	
O	 0.0404992818	-0.0204123108	 0.001606568	-0.371789
C	 0.0098910224	 1.1858788056	 0.0088926381	 0.373002
C	-1.1950107255	 2.1594196227	 0.0320007281	-0.302824
N	-0.6620857706	 3.5310701294	 0.0318445409	-0.353851
C	 0.6075776734	 3.3761376535	 0.0125077111	 0.415517
C	 1.7846060496	 4.2411248706	-5.1996*^-6	-0.182175
C	 2.8787730713	 3.4646433195	-0.0204123945	-0.076387
C	 2.5263859789	 1.9896744456	-0.0233737829	-0.23728
N	 1.0811627334	 2.059330573	-0.0016338723	-0.121699
H	-1.836425315	 1.9860862083	-0.8395540282	 0.149191
H	-1.810601961	 1.9762481823	 0.9200144058	 0.149195
H	 1.7417144358	 5.3200811899	 0.0065825763	 0.136519
H	 3.9057044783	 3.8058889548	-0.0336535258	 0.128674
H	 2.9007841666	 1.4708319713	-0.9156158053	 0.146955
H	 2.9269065405	 1.4610549643	 0.8516173902	 0.146951
115.7715	184.9904	262.2216	293.3519	406.3838	549.2519	556.6135	631.5673	666.2894	684.3309	754.9644	806.8076	855.6461	937.4185	968.9362	970.1499	995.7104	1018.3453	1052.9584	1086.5939	1141.0074	1172.8424	1188.6839	1245.1928	1280.6742	1352.759	1369.0907	1397.0515	1440.4991	1497.2558	1627.3921	1719.341	1840.6801	3019.9899	3046.2226	3048.2257	3082.4797	3224.5214	3257.5579
O=C1CN=C2C=CCN12	O=C1CN=C2C=CCN12	
InChI=1S/C6H6N2O/c9-6-4-7-5-2-1-3-8(5)6/h1-2H,3-4H2	InChI=1S/C6H6N2O/c9-6-4-7-5-2-1-3-8(5)6/h1-2H,3-4H2
