15
gdb 132043	2.36486	1.85214	1.04537	3.681	74.48	-0.215	-0.0326	0.1824	1070.8734	0.113439	-458.134533	-458.126694	-458.12575	-458.167003	29.309	
C	 0.0110652067	 1.5088815684	 0.0126270432	-0.474082
C	-0.0132503846	 0.0103487517	 0.0208193767	 0.176391
C	-1.1586957797	-0.7036596353	-0.1069429185	 0.194581
F	-2.3363202473	-0.1002359559	-0.2477891236	-0.056255
C	-1.1970368571	-2.1571436454	-0.1009713998	 0.288568
N	-2.277327847	-2.83001979	-0.2214214436	-0.545047
N	 0.1024409912	-2.6798862642	 0.0534727348	-0.364999
C	 1.2177371572	-1.9057912942	 0.1773166439	 0.090618
N	 1.2180445468	-0.619375186	 0.1681658567	-0.328035
H	 0.6496608542	 1.8664895903	-0.801972204	 0.142609
H	-0.9888806783	 1.9260378837	-0.1063326873	 0.139522
H	 0.4473954699	 1.8795302689	 0.9461470853	 0.142602
H	-2.104755751	-3.835602685	-0.1941896115	 0.201831
H	 0.1971075452	-3.6854697397	 0.0716740727	 0.258463
H	 2.1517900837	-2.4507162373	 0.2895879449	 0.133233
112.0066	122.6534	173.146	293.0823	299.4916	323.1313	511.2263	514.4081	515.9974	543.1586	568.7802	654.6692	687.8755	760.2226	799.1659	883.5442	935.0431	953.8403	1029.5276	1062.2083	1128.6051	1164.7783	1258.8176	1265.069	1385.7151	1414.366	1434.7305	1469.8269	1479.4175	1479.8277	1630.4822	1674.4403	1731.7375	3042.7442	3096.5315	3155.0968	3165.94	3468.8858	3603.954
CC1=C(F)C(=N)NC=N1	C[C@H]1C(=C([NH])NC=N1)F	
InChI=1S/C5H6FN3/c1-3-4(6)5(7)9-2-8-3/h2H,1H3,(H2,7,8,9)	InChI=1S/C5H7FN3/c1-3-4(6)5(7)9-2-8-3/h2-3,7H,1H3,(H,8,9)/t3-/m0/s1
