19
gdb 108081	2.5339	1.43592	1.18587	2.358	75.05	-0.2262	0.0631	0.2893	1122.5663	0.158301	-422.953811	-422.94517	-422.944226	-422.987245	32.569	
C	-0.1835579492	 1.5184626014	-0.1128785352	-0.533122
C	-0.0655405874	 0.0335861099	-0.0006719247	 0.234441
C	-0.0159392357	-1.1042358584	-0.9632590057	 0.009034
O	 1.180307239	-1.6864673484	-0.4474879409	-0.299102
C	 0.9052979617	-0.9474880138	 0.7753943482	 0.022808
C	-0.3282191418	-1.6689512933	 1.3700385561	-0.300323
C	-1.081052586	-1.1104395563	 0.1567140385	 0.206676
C	-2.5529885553	-1.1111268755	-0.1221112853	-0.186265
O	-3.0451484933	-2.3686996131	-0.5719265801	-0.41097
H	 0.7462300286	 1.9628322402	-0.4852872712	 0.132114
H	-0.9830853437	 1.7923434486	-0.8094201989	 0.128891
H	-0.4143335416	 1.9819171461	 0.8532141804	 0.123626
H	-0.2390499904	-1.1909339387	-2.0189539978	 0.110761
H	 1.7971253765	-0.7081423052	 1.351632175	 0.086254
H	-0.2326487861	-2.7528223559	 1.4983445346	 0.095818
H	-0.668182419	-1.2005749513	 2.2985095562	 0.100161
H	-3.1067949267	-0.7673728641	 0.7669288361	 0.088599
H	-2.7799549093	-0.4043829832	-0.9290344871	 0.106145
H	-2.8110054502	-3.0271993288	 0.0898325419	 0.284452
68.1984	120.308	191.0256	207.2809	239.9429	250.9562	324.0787	407.8305	463.5746	548.3071	607.0679	708.2424	742.6023	787.4239	828.9487	892.8726	918.4646	926.0845	951.2934	986.5232	1020.0263	1038.3722	1049.7419	1105.8103	1120.3559	1134.1564	1168.2698	1174.2477	1215.5126	1233.7515	1261.3756	1295.6848	1340.1011	1370.3886	1411.4742	1419.3122	1463.0731	1483.2045	1489.89	1499.1298	1500.1844	2967.5994	3023.4256	3035.9023	3053.6183	3084.0304	3094.7324	3098.7455	3139.2499	3205.568	3818.3465
CC12C3OC1CC23CO	C[C@@]12[C@H]3O[C@@H]1C[C@@]23CO	
InChI=1S/C7H10O2/c1-6-4-2-7(6,3-8)5(6)9-4/h4-5,8H,2-3H2,1H3	InChI=1S/C7H10O2/c1-6-4-2-7(6,3-8)5(6)9-4/h4-5,8H,2-3H2,1H3/t4-,5-,6+,7+/m1/s1
