15
gdb 28543	3.20257	1.32594	0.9377	1.4035	72.14	-0.1933	0.0077	0.2011	1157.3534	0.112851	-457.831946	-457.823869	-457.822925	-457.864162	31.326	
O	 0.0057923032	 1.3795534179	-0.1368888882	-0.450451
C	 0.0357646217	 0.0159345722	-0.0475361734	 0.409823
C	-0.0610496921	-0.7119507711	-1.2304398169	-0.205484
C	-0.0343405417	-2.1055823468	-1.1815122497	-0.224836
C	 0.0873615824	-2.7684248836	 0.0299174073	 0.230898
O	 0.1231001165	-4.1378783572	 0.1826701924	-0.477699
C	 0.1846696127	-2.0329897953	 1.2190424171	 0.352999
O	 0.3045402311	-2.6692081022	 2.4138821756	-0.448803
C	 0.1586001988	-0.6444554859	 1.1773475805	-0.374148
H	 0.0808298523	 1.7525413361	 0.7469551898	 0.295843
H	-0.1557815458	-0.1864390974	-2.1723048496	 0.101598
H	-0.1095958559	-2.6789581949	-2.1017758352	 0.087499
H	 0.0518934391	-4.5607562428	-0.6776179346	 0.300945
H	 0.3026710847	-3.6182101782	 2.2342749455	 0.308531
H	 0.2353913929	-0.0952093407	 2.1106949794	 0.093286
140.2213	159.0861	238.7354	306.9317	327.5781	340.3311	375.3143	442.8556	457.3365	470.5512	516.6395	601.733	635.0079	713.7267	746.6593	798.6185	807.2112	843.1931	887.6907	981.4509	1110.7696	1168.4804	1192.153	1207.2054	1223.8597	1298.2638	1343.9103	1361.015	1420.1796	1515.1979	1560.8469	1657.4433	1676.8408	3159.6572	3176.1455	3212.0329	3783.1293	3830.5396	3847.3972
OC1=CC=C(O)C(O)=C1	Oc1ccc(O)c(O)c1	
InChI=1S/C6H6O3/c7-4-1-2-5(8)6(9)3-4/h1-3,7-9H	InChI=1S/C6H6O3/c7-4-1-2-5(8)6(9)3-4/h1-3,7-9H
