12
gdb 133545	2.25051	1.63122	1.22646	2.282	53.58	-0.2836	0.0021	0.2857	981.0669	0.071388	-566.927362	-566.9192	-566.918256	-566.960722	29.444	
F	-0.44229027	 0.1807152513	-0.3050685473	-0.067693
C	-0.051430081	 1.4149559289	 0.0216107628	 0.227961
F	 1.2670592627	 1.3914636057	 0.2276845865	-0.061332
F	-0.2932304384	 2.2200514939	-1.0199781887	-0.065169
C	-0.788045572	 1.9190003415	 1.2603638402	 0.066815
C	-2.0988173112	 1.3229911706	 1.588751743	-0.208428
O	-0.9188001592	 0.9364712961	 2.2875802532	-0.253878
C	-0.4493759492	 3.2603583331	 1.658602823	 0.252985
C	-0.15971386	 4.3810475166	 1.9769544515	-0.38104
H	-2.8058019309	 1.9248873763	 2.1545211473	 0.137949
H	-2.5180677429	 0.5707894708	 0.9258252368	 0.141728
H	 0.0987287521	 5.3710757452	 2.2635814415	 0.210101
49.6358	128.9723	181.5608	243.341	262.3665	363.7187	408.4338	436.6614	525.9055	549.8887	584.64	620.4	642.3102	686.3687	746.0001	876.6232	902.6982	975.5679	1119.9442	1130.5858	1179.8259	1211.4157	1223.2573	1331.3298	1378.9672	1512.7994	2249.7143	3107.1062	3207.1043	3498.5461
FC(F)(F)C1(CO1)C#C	FC(F)(F)[C@]1(CO1)C#C	
InChI=1S/C5H3F3O/c1-2-4(3-9-4)5(6,7)8/h1H,3H2	InChI=1S/C5H3F3O/c1-2-4(3-9-4)5(6,7)8/h1H,3H2/t4-/m1/s1
