20
gdb 98200	2.74606	1.04695	0.98569	3.4855	71.94	-0.2464	0.005	0.2514	1326.4489	0.168996	-477.446749	-477.436079	-477.435135	-477.48343	38.021	
C	-0.3470632164	 1.3644445995	-0.3274359393	-0.243755
O	-0.3282147581	-0.0644211719	-0.4530649085	-0.246098
C	 0.8583405669	-0.596852777	-0.8171276413	 0.428016
O	 1.8452455717	 0.066816256	-1.0152776408	-0.369569
C	 0.7740759967	-2.1161008581	-1.0187313529	 0.083597
C	 2.0745202698	-2.7718424628	-0.5428313558	-0.409672
N	-0.372832284	-2.7697232066	-0.3732537479	-0.550323
C	 0.5876961166	-2.3483696901	-2.5497064363	-0.04759
O	 0.4197262931	-3.7158317717	-2.8232260434	-0.4248
H	 0.36842565	 1.691237781	 0.4308318187	 0.144594
H	-0.0896911059	 1.8365250013	-1.278684822	 0.145084
H	-1.3638138915	 1.6238708701	-0.0327502552	 0.134439
H	 2.1533577726	-2.7413767557	 0.5494639317	 0.107521
H	 2.0962293819	-3.8122508978	-0.8719995109	 0.136581
H	 2.9333856915	-2.2425027962	-0.957261031	 0.146017
H	-0.1845615207	-2.9256775009	 0.6116433163	 0.233575
H	-1.1869731859	-2.1652121155	-0.4220138758	 0.242989
H	-0.2799328936	-1.7573300277	-2.8913469268	 0.081333
H	 1.4698909125	-1.9947526957	-3.0906958394	 0.122393
H	-0.1802875273	-4.0277037903	-2.1271745795	 0.285668
16.3281	111.977	129.722	141.4294	214.6364	217.9544	230.0015	277.2563	321.0247	339.8093	356.8905	366.1284	446.5858	508.2103	591.3517	699.603	749.8239	807.2781	865.3133	906.4949	948.1575	1011.0441	1023.3561	1060.2964	1096.3796	1149.4101	1179.8659	1190.9617	1210.8136	1243.0834	1277.0985	1344.7668	1377.6186	1404.4214	1446.199	1471.4806	1481.3824	1491.1258	1496.3679	1498.009	1513.1139	1662.1959	1810.2056	2950.6019	3044.7606	3054.802	3092.0325	3122.4577	3131.1669	3156.2664	3161.3909	3506.2772	3584.0379	3691.6478
COC(=O)C(C)(N)CO	COC(=O)[C@@](C)(N)CO	
InChI=1S/C5H11NO3/c1-5(6,3-7)4(8)9-2/h7H,3,6H2,1-2H3	InChI=1S/C5H11NO3/c1-5(6,3-7)4(8)9-2/h7H,3,6H2,1-2H3/t5-/m0/s1
