21
gdb 41158	2.78545	1.82144	1.38982	1.8829	81.22	-0.239	0.0759	0.3149	996.9892	0.186341	-387.060891	-387.054006	-387.053061	-387.091697	29.492	
C	 0.0654745035	 1.5498661316	 0.1239019898	-0.215496
O	 1.500324115	 1.4353657919	-0.1054105171	-0.313605
C	 1.2975319831	 0.1041460944	-0.6422068635	 0.162208
C	 2.2128701951	-1.0548334758	-0.2897425211	-0.264209
C	 1.3096450185	-2.3277145881	-0.2897961036	-0.211267
C	-0.1008504874	-2.0433058533	 0.2930501805	-0.004884
C	-0.0042550095	-0.8714049312	 1.3083533388	-0.262066
C	-0.0665729621	 0.0237981418	 0.0505945641	 0.308392
C	-0.9395868139	-1.0637000964	-0.604141664	-0.315584
H	-0.1587190526	 2.0320362168	 1.0809920999	 0.104462
H	-0.428274214	 2.0989095412	-0.6909068024	 0.095316
H	 1.1730671584	 0.1726244342	-1.7361427761	 0.061981
H	 3.0497115607	-1.167676613	-0.9849102078	 0.095922
H	 2.6403600389	-0.8925590248	 0.7034745889	 0.114246
H	 1.2107640541	-2.7197851643	-1.309440548	 0.101107
H	 1.7968205661	-3.1135840826	 0.2972082588	 0.102063
H	-0.5928509916	-2.9664606688	 0.6062259023	 0.063247
H	-0.9210131623	-0.7744674569	 1.8978486293	 0.092719
H	 0.8593520974	-0.8044635716	 1.9736939969	 0.099311
H	-0.8777789016	-1.1683241504	-1.6920592603	 0.090132
H	-1.9885862059	-1.0498016647	-0.2933562054	 0.096005
183.2635	228.9131	327.1549	371.6768	380.494	452.1894	492.0662	523.9478	583.2963	766.2293	787.5442	791.5825	840.5349	867.8981	870.912	936.4679	948.6742	959.7277	961.2405	981.5591	1013.4162	1050.4804	1076.2798	1093.8114	1118.0685	1121.0573	1158.6236	1180.2569	1194.8631	1206.8323	1224.6336	1255.9558	1269.0526	1285.6937	1306.888	1316.1241	1344.367	1358.887	1366.1465	1408.0251	1479.7786	1491.5583	1501.6739	1512.7826	1529.3285	2952.6166	2998.6438	3029.7418	3041.355	3053.3211	3060.4918	3069.0961	3072.5102	3085.2416	3097.4065	3101.8031	3112.0375
C1OC2CCC3CC12C3	C1O[C@H]2CC[C@H]3C[C@@]12C3	
InChI=1S/C8H12O/c1-2-7-8(5-9-7)3-6(1)4-8/h6-7H,1-5H2	InChI=1S/C8H12O/c1-2-7-8(5-9-7)3-6(1)4-8/h6-7H,1-5H2/t6-,7-,8+/m0/s1
