17
gdb 16526	3.63574	2.38342	1.84525	2.0846	66.41	-0.2179	0.0707	0.2886	758.7435	0.144414	-363.811931	-363.80562	-363.804676	-363.841842	26.174	
O	-0.0641294367	 1.3211984657	-0.0166402939	-0.479743
C	 0.0405382415	-0.0671596468	-0.0285422733	 0.417977
C	 1.0682487144	-0.7529726105	-0.928461765	-0.318297
C	 0.3209184887	-2.0655624388	-1.30873656	-0.158914
N	-0.7665083619	-2.2357383032	-0.3173054954	-0.127144
C	-0.1691299467	-2.2860106133	 1.0727263583	-0.186186
C	-0.425084011	-0.7981401818	 1.236412221	-0.151744
C	-1.23701617	-0.8477119715	-0.0424870194	-0.081972
H	 0.6352795481	 1.6720668782	 0.5448508441	 0.285139
H	 1.2782738868	-0.120768888	-1.7960453516	 0.107522
H	 2.0192086076	-0.9458931906	-0.4195986256	 0.094604
H	-0.1370709819	-1.9706536478	-2.2984759469	 0.108192
H	 0.9619548533	-2.9514074088	-1.3170406151	 0.102952
H	-0.7888530772	-2.9063225224	 1.7271252264	 0.110513
H	 0.8657904867	-2.6477895556	 1.1147296395	 0.093757
H	-0.6378223603	-0.2483315315	 2.1461511091	 0.086567
H	-2.2200667812	-0.4804745734	-0.3074628822	 0.096776
216.5068	278.9254	317.6595	383.9633	401.5016	445.7169	585.7134	645.217	682.2696	776.8196	821.9369	859.9108	880.8632	911.3387	930.3412	953.6745	965.6066	1001.8385	1022.4698	1073.6204	1094.5685	1103.935	1156.985	1188.7213	1205.3309	1228.59	1243.3652	1262.6084	1283.7098	1296.9992	1331.0959	1351.0365	1427.955	1487.9492	1500.2329	1520.0267	3020.8482	3039.2967	3050.2807	3077.5229	3085.5117	3104.5223	3175.1957	3199.4535	3798.87
OC12CCN3CC1C23	O[C@@]12CCN3C[C@@H]1[C@@H]23	
InChI=1S/C6H9NO/c8-6-1-2-7-3-4(6)5(6)7/h4-5,8H,1-3H2	InChI=1S/C6H9NO/c8-6-1-2-7-3-4(6)5(6)7/h4-5,8H,1-3H2/t4-,5+,6+/m1/s1
