17
gdb 6831	3.38104	1.55369	1.37821	0.9988	67.36	-0.2524	0.023	0.2754	987.0951	0.13995	-400.992923	-400.983894	-400.98295	-401.026697	31.565	
C	 0.0372655182	 1.3808713175	 0.0406906359	-0.340983
N	 0.2908647095	-0.0539270301	 0.0615189623	-0.34435
C	 0.5917715796	-0.6430851324	-0.9985937805	 0.424647
O	 0.7546780182	-0.1866140071	-2.293514964	-0.271691
C	 0.9572757805	-1.5500458378	-2.7877958269	-0.102188
C	 0.8493370733	-2.1038936576	-1.3478343478	 0.235335
C	 2.102479839	-2.7216194923	-0.7435854339	-0.44429
O	-0.2828174899	-2.9367172447	-1.1943504095	-0.467787
H	 0.7894733519	 1.8880441931	 0.6551943905	 0.129531
H	 0.0498118253	 1.8210593082	-0.9629623463	 0.129242
H	-0.9366479231	 1.5773952712	 0.5012780992	 0.127908
H	 0.140486613	-1.8586115498	-3.4425441633	 0.12998
H	 1.9254215811	-1.6460591592	-3.2840314682	 0.117323
H	 2.9834976549	-2.0988248695	-0.9262314357	 0.124024
H	 1.9814582691	-2.8249409829	 0.3391842645	 0.131813
H	 2.272009797	-3.7137720096	-1.1721551388	 0.128466
H	-0.5970796577	-2.8241171972	-0.2895266575	 0.293021
78.1165	98.1373	128.1956	168.2262	217.4704	239.0809	288.7544	332.6541	362.8737	414.527	589.7566	669.0766	717.4057	775.9154	895.0181	933.1592	967.2831	980.9372	1040.952	1102.1039	1124.8883	1133.5425	1153.22	1174.2536	1226.4203	1247.8798	1347.7986	1377.5113	1405.8469	1440.401	1486.5608	1488.8059	1493.7719	1497.4294	1506.9921	1850.2101	3019.2798	3038.169	3071.2077	3084.4112	3091.32	3113.1252	3118.8615	3139.6189	3799.8063
CN=C1OCC1(C)O	CN=C1OC[C@]1(C)O	
InChI=1S/C5H9NO2/c1-5(7)3-8-4(5)6-2/h7H,3H2,1-2H3	InChI=1S/C5H9NO2/c1-5(7)3-8-4(5)6-2/h7H,3H2,1-2H3/t5-/m0/s1
