18
gdb 30802	2.97461	1.19567	0.8898	1.5724	76.49	-0.223	0.0065	0.2295	1311.4371	0.146677	-439.131816	-439.122338	-439.121393	-439.166593	33.523	
C	-0.0901305616	 1.4453298745	 0.0908769189	-0.490301
C	-0.0097264831	-0.0337643918	-0.0285428947	 0.365511
N	 0.0748880408	-0.7533824025	-1.1018954044	-0.340637
C	 0.1143812311	-2.074099242	-0.6533438214	 0.176071
C	 0.2003847256	-3.224514927	-1.5998703422	-0.504052
C	 0.0539260261	-2.073119684	 0.7047150419	 0.193701
C	 0.0653550316	-3.1240130139	 1.7682749319	-0.173319
O	 0.9614942798	-4.1894130242	 1.4835255782	-0.40187
O	-0.0221411933	-0.7608833349	 1.1172054683	-0.207199
H	 0.7459680055	 1.8409000389	 0.6770384184	 0.143613
H	-0.0635794848	 1.8822241121	-0.9075074498	 0.157007
H	-1.0153132009	 1.7512130911	 0.590475975	 0.144928
H	 1.0349608374	-3.0894394979	-2.2958138232	 0.133825
H	 0.342866784	-4.1591812293	-1.0545451791	 0.141581
H	-0.7103313236	-3.3026070303	-2.20422799	 0.134349
H	 0.2883825806	-2.6397673506	 2.7308624186	 0.1124
H	-0.9169380666	-3.5999784072	 1.8697754187	 0.129956
H	 1.8258472513	-3.8002713208	 1.3110617847	 0.284437
53.7015	104.5607	147.5528	162.6405	194.3523	229.0787	262.2625	308.8025	365.0258	391.4681	474.4632	611.9408	653.4402	697.3318	729.3142	783.6647	956.8222	987.2406	993.084	1054.518	1066.1936	1068.7007	1071.1956	1139.9534	1201.354	1237.9925	1295.3885	1337.7505	1390.2331	1409.3186	1417.0012	1433.222	1476.4581	1481.8582	1487.61	1491.1343	1503.129	1623.1302	1669.8939	2996.5773	3036.7635	3043.2299	3054.2451	3089.2245	3096.7571	3140.5182	3157.7676	3806.0342
CC1=NC(C)=C(CO)O1	Cc1nc(C)c(CO)o1	
InChI=1S/C6H9NO2/c1-4-6(3-8)9-5(2)7-4/h8H,3H2,1-2H3	InChI=1S/C6H9NO2/c1-4-6(3-8)9-5(2)7-4/h8H,3H2,1-2H3
