19
gdb 39147	2.91929	1.96188	1.36001	1.7026	80.67	-0.2156	-0.012	0.2035	961.4967	0.16221	-385.849433	-385.842576	-385.841632	-385.880618	27.957	
C	-0.1233688611	 1.5481698487	 0.0645819789	-0.264852
C	 1.4522278236	 1.741570873	 0.0352328772	-0.054458
C	 2.221735859	 2.3156130308	 1.2570500138	-0.230443
C	 2.3655110033	 1.1183104415	 2.2732140215	-0.296865
C	 1.6992507773	-0.0378969003	 1.5532072997	 0.133882
C	 1.4600761154	 0.2559622386	 0.2712121383	 0.03432
C	 0.0321385071	-0.0417738342	-0.0268191338	 0.091031
O	-0.4293762379	-0.8776234054	 1.025688339	-0.28319
C	 0.6021780203	-0.9578999601	 2.0435815889	-0.146833
H	-0.562153424	 1.8314740273	 1.0243392414	 0.112987
H	-0.6722931109	 2.0162701561	-0.7575228913	 0.102298
H	 1.7963486028	 2.1384076011	-0.9222955092	 0.073358
H	 3.20626395	 2.6723188444	 0.9393916801	 0.106951
H	 1.7112740002	 3.1736858821	 1.7069790118	 0.103993
H	 3.413383016	 0.9398274149	 2.540013369	 0.113059
H	 1.8435188029	 1.3167068279	 3.2171342938	 0.106791
H	-0.3081513817	-0.4592017425	-0.9776376147	 0.085668
H	 0.8860253169	-2.0120022627	 2.1662169592	 0.109953
H	 0.2009612109	-0.6107347312	 3.0071569666	 0.102349
110.4143	163.3408	309.5951	324.49	377.2621	519.4615	619.2263	661.919	681.2103	732.7681	760.9997	809.5486	828.869	878.0973	902.8723	920.1573	930.7774	974.2148	999.2388	1026.1055	1058.2583	1082.2482	1112.7145	1123.4303	1140.2818	1168.0354	1195.0556	1206.5845	1222.4008	1254.4758	1262.0403	1285.6856	1313.7478	1333.9518	1351.4703	1377.7759	1454.3549	1478.4536	1495.622	1519.0334	1663.6424	2993.0667	3019.0345	3029.7296	3047.8846	3049.9474	3054.4388	3077.8658	3081.0132	3091.6604	3127.6888
C1C2CCC3=C2C1OC3	C1[C@H]2CC[C]3[C]2[C@H]1OC3	
InChI=1S/C8H10O/c1-2-6-4-9-7-3-5(1)8(6)7/h5,7H,1-4H2	InChI=1S/C8H10O/c1-2-6-4-9-7-3-5(1)8(6)7/h5,7H,1-4H2/t5-,7+/m1/s1
