23
gdb 101744	4.05105	0.71113	0.70251	2.686	82.84	-0.2389	0.0695	0.3084	1757.7064	0.204223	-425.412256	-425.401796	-425.400852	-425.448853	37.524	
C	 0.0118004649	 1.5425565269	 0.1124350986	-0.379968
C	-0.0207442232	 0.0127181413	 0.0866289534	-0.191846
C	-1.4385290343	-0.5592065827	-0.029166352	 0.139373
O	-2.1084544819	-0.0690670233	-1.1925693483	-0.432381
C	-1.4565149715	-2.0937968743	 0.0100273632	-0.229949
C	-2.8648505866	-2.6579362801	 0.0674554755	 0.166021
C	-3.0403673021	-4.1744988898	 0.3059594275	-0.30423
C	-3.8347401576	-3.7407421269	 1.5534879408	-0.056207
O	-3.5217416673	-2.3519539251	 1.327063094	-0.296258
H	 1.0391085068	 1.9177820602	 0.1439323603	 0.107224
H	-0.4803434108	 1.954149371	-0.7725543729	 0.125486
H	-0.5139783765	 1.930183281	 0.9919009871	 0.117088
H	 0.578014767	-0.3621716135	-0.7576727269	 0.080484
H	 0.4487427603	-0.3902870799	 0.9926224019	 0.097541
H	-2.0440921901	-0.1896883894	 0.8072776065	 0.108942
H	-1.5878433433	-0.3351813838	-1.9594552491	 0.273462
H	-0.9476921434	-2.488060369	-0.8831612765	 0.081048
H	-0.8948711131	-2.4479581456	 0.8832558606	 0.095287
H	-3.4518054048	-2.2659951984	-0.7725427989	 0.084503
H	-3.5955575436	-4.7229143884	-0.4564265842	 0.108023
H	-2.1084320337	-4.7023557435	 0.5215961642	 0.105457
H	-4.9151366684	-3.9288792649	 1.502166871	 0.099603
H	-3.4622688568	-4.0943985119	 2.5222446341	 0.101296
53.0018	64.6253	79.9385	122.1674	129.8971	210.5728	246.22	299.4267	319.7495	357.036	443.359	480.5826	540.0765	737.2462	778.2528	803.6027	850.2893	877.779	888.333	959.1408	972.287	994.6502	1027.0841	1033.2342	1057.9318	1090.8379	1109.1266	1127.3154	1148.7826	1168.8431	1202.1796	1221.6627	1255.851	1263.4496	1285.3862	1301.4926	1336.6616	1354.7712	1374.0671	1385.967	1403.731	1408.0598	1424.6516	1458.5764	1482.3688	1490.8313	1493.3326	1508.2109	1532.0293	2992.0811	2997.2914	3010.1053	3028.0406	3037.3497	3043.8948	3050.8971	3051.2413	3066.4625	3072.5847	3102.0382	3120.899	3128.8885	3786.9989
CCC(O)CC1CCO1	CC[C@@H](O)C[C@H]1CCO1	
InChI=1S/C7H14O2/c1-2-6(8)5-7-3-4-9-7/h6-8H,2-5H2,1H3	InChI=1S/C7H14O2/c1-2-6(8)5-7-3-4-9-7/h6-8H,2-5H2,1H3/t6-,7-/m1/s1
