18
gdb 54308	2.72505	1.40105	1.04003	2.7885	72.47	-0.2496	-0.0276	0.2219	1162.7447	0.145693	-439.047964	-439.038913	-439.037969	-439.082258	32.889	
C	-0.2553061378	 1.7721966473	-0.0458857991	-0.511856
C	-0.0820709522	 0.3736360809	-0.6214764055	 0.337564
O	 0.8466222516	 0.1149797897	-1.3566760668	-0.304273
C	-1.1105972039	-0.6812450992	-0.3164992367	 0.159256
C	-1.6080881637	-0.8348159095	 1.0888256247	-0.272429
N	-2.487536928	-0.2882423852	 0.0627805853	-0.341848
C	-1.0136187151	-1.8995931721	-1.1926978836	 0.044931
C	-0.1450082183	-3.0253129235	-0.8444133562	-0.164574
O	-1.5646433679	-3.1081623405	-0.6769064848	-0.239617
H	 0.7127413612	 2.2743800273	-0.0641886782	 0.154071
H	-0.9419969436	 2.3424842065	-0.683468248	 0.153882
H	-0.6572412525	 1.7857237029	 0.9707412737	 0.133593
H	-1.8575953855	-1.842122905	 1.4053847379	 0.154952
H	-1.2077156523	-0.1814803858	 1.8588893193	 0.118079
H	-2.5568893207	 0.7226645887	 0.1517989639	 0.235469
H	-1.2270690915	-1.7198412624	-2.2456420366	 0.107039
H	 0.2719552392	-3.6474955671	-1.633538392	 0.122708
H	 0.431354041	-2.9902806031	 0.0785342727	 0.113055
69.0562	73.2171	135.4918	177.0805	218.417	272.857	299.2764	363.13	437.4681	503.4564	558.9298	622.4043	657.9826	813.904	844.2824	885.6576	904.6681	946.5448	962.6901	982.9197	1024.0694	1040.7288	1087.3777	1098.5085	1124.5601	1154.5991	1164.6741	1176.1151	1265.698	1292.7605	1327.5307	1357.1703	1386.6089	1440.3563	1465.5003	1479.1102	1497.6334	1528.7588	1783.296	3037.8577	3092.2009	3104.7144	3119.3033	3120.4327	3151.2118	3181.5635	3215.9646	3503.9377
CC(=O)C1(CN1)C1CO1	CC(=O)[C@]1(CN1)[C@H]1CO1	
InChI=1S/C6H9NO2/c1-4(8)6(3-7-6)5-2-9-5/h5,7H,2-3H2,1H3	InChI=1S/C6H9NO2/c1-4(8)6(3-7-6)5-2-9-5/h5,7H,2-3H2,1H3/t5-,6-/m1/s1
