23
gdb 119073	2.05203	1.16344	0.8854	1.3992	81.2	-0.2411	0.0755	0.3165	1433.2875	0.204286	-425.409447	-425.39896	-425.398015	-425.445643	38.012	
C	 0.0221470341	 1.5508539832	-0.1056737235	-0.392045
C	-0.1103818769	 0.0320324842	 0.0446980466	-0.21723
C	 0.7928886883	-0.5807663946	 1.122251954	 0.427536
C	 0.4342904897	-0.1091200995	 2.532815612	-0.259115
C	 1.40481398	-0.5432210967	 3.6356516281	-0.078383
O	 1.0063015675	-0.068891167	 4.9145258115	-0.419953
C	 1.0294294303	-2.105009976	 0.9281910977	-0.340149
C	 2.462881476	-1.698889854	 0.5418404089	-0.064696
O	 2.198897162	-0.3075546011	 0.8131756999	-0.32325
H	 1.0737156025	 1.8258014619	-0.2275867069	 0.136907
H	-0.5258447419	 1.8990731131	-0.9862524721	 0.111202
H	-0.3746463279	 2.0908653395	 0.7591332751	 0.115386
H	-1.1506881595	-0.2469686932	 0.2590853385	 0.094151
H	 0.147348896	-0.4414402887	-0.9104866376	 0.093723
H	 0.3912167276	 0.9878353688	 2.5369589376	 0.092885
H	-0.5741983039	-0.463731675	 2.7802868623	 0.106033
H	 1.4276165133	-1.6335565613	 3.7306907215	 0.106502
H	 2.4202467101	-0.2137588478	 3.378712728	 0.107782
H	 1.0660859118	 0.8916140882	 4.9005799846	 0.279788
H	 0.9473409807	-2.7122067944	 1.8303305871	 0.111541
H	 0.4322568412	-2.5632524418	 0.1378153354	 0.106179
H	 3.2635097822	-2.0929808668	 1.1788081627	 0.10337
H	 2.734152707	-1.8661673212	-0.5079329612	 0.101836
57.4593	74.3094	103.2962	107.9881	164.9685	215.5755	267.2741	298.4601	319.305	344.8941	378.239	435.0631	533.1965	689.5578	767.285	783.7347	790.2648	857.1169	901.3281	922.0178	976.8442	995.5259	1016.0746	1024.1512	1053.6229	1075.2238	1078.6946	1122.3226	1158.4475	1171.8102	1204.6639	1215.861	1234.3947	1264.1073	1307.6095	1318.0396	1340.4369	1354.7738	1379.6242	1400.1848	1408.9776	1420.136	1469.88	1477.4424	1495.4806	1503.1037	1510.5284	1519.6676	1531.6197	3015.4672	3016.224	3019.0836	3022.8492	3043.2148	3053.2531	3055.4327	3059.9256	3079.754	3086.1312	3107.9725	3120.9238	3134.7779	3815.7
CCC1(CCO)CCO1	CC[C@@]1(CCO)CCO1	
InChI=1S/C7H14O2/c1-2-7(3-5-8)4-6-9-7/h8H,2-6H2,1H3	InChI=1S/C7H14O2/c1-2-7(3-5-8)4-6-9-7/h8H,2-6H2,1H3/t7-/m1/s1
