20
gdb 90101	2.86225	1.47315	1.28135	0.4875	80.66	-0.2221	0.0332	0.2553	1093.3448	0.169834	-402.975067	-402.966742	-402.965798	-403.007462	32.99	
C	-0.0542202755	 1.6472430651	-0.1130955323	-0.406245
C	 0.0303620854	 0.1450003779	 0.0517220096	 0.07642
O	 0.8956995958	-0.5130460855	-0.980209629	-0.371566
C	 1.7424822195	-0.9271060517	 0.1105020136	 0.351061
C	 2.3986572182	-2.0123768841	 1.030946828	-0.259999
N	 2.1743369855	-0.7773443678	 1.962506237	-0.18745
C	 2.6929415304	 0.0864566942	 0.8025989953	 0.054247
C	 4.186319101	 0.1662628026	 0.5546488667	-0.450258
C	 0.7624964982	-0.701717118	 1.1874719411	-0.080814
H	 0.9226731033	 2.1308850853	-0.1350672525	 0.132789
H	-0.5616473175	 1.8787114389	-1.0553359578	 0.133065
H	-0.6426424917	 2.0772525343	 0.7040427538	 0.128125
H	-0.9743799781	-0.2844401443	-0.0239036046	 0.103912
H	 1.7825967431	-2.8736594134	 1.2932376202	 0.11645
H	 3.4496665541	-2.2837231076	 0.9310703593	 0.113517
H	 2.2931259158	 1.0957983854	 0.9048977739	 0.078245
H	 4.6522994393	-0.7895471431	 0.307340575	 0.122115
H	 4.3773131893	 0.850310869	-0.2786608529	 0.127304
H	 4.6902069965	 0.5704326016	 1.4394368858	 0.131388
H	 0.1281215374	-1.5170473789	 1.5325102897	 0.087694
141.6634	151.2181	199.5975	212.3976	242.1468	346.1042	389.989	449.4257	472.4323	527.2718	585.0992	677.6443	722.8668	771.8094	790.3228	817.5525	850.5005	874.5515	943.7582	991.9351	1023.2199	1038.4731	1061.4499	1084.1919	1101.4288	1126.9568	1131.5682	1154.3775	1171.6754	1184.3709	1236.4977	1246.4225	1293.3855	1347.9999	1381.9494	1406.0227	1411.802	1424.7938	1478.4039	1491.6525	1493.239	1500.1371	1532.5954	3040.1355	3041.385	3048.162	3084.0896	3100.4651	3102.9398	3106.931	3111.0596	3128.0304	3146.5606	3158.0551
CC1OC23CN(C2C)C13	C[C@H]1O[C@@]23CN([C@H]2C)[C@@H]13	
InChI=1S/C7H11NO/c1-4-6-7(9-4)3-8(6)5(7)2/h4-6H,3H2,1-2H3	InChI=1S/C7H11NO/c1-4-6-7(9-4)3-8(6)5(7)2/h4-6H,3H2,1-2H3/t4-,5+,6+,7+/m1/s1
