17
gdb 24432	3.46248	1.60628	1.13948	1.7241	74.68	-0.1764	0.0351	0.2114	1035.1016	0.14048	-418.024195	-418.017306	-418.016362	-418.05534	28.002	
C	-0.0226348983	 1.4174946371	 0.0638270597	-0.174724
C	 1.4375466454	 1.9350491717	-0.0213008064	-0.174333
N	 2.2857013766	 1.4650959345	 1.0778908491	-0.399634
C	 1.9794961372	 0.1285272137	 1.420409525	 0.179438
C	 0.9319175807	-0.5541981894	 0.8768755175	 0.337269
N	-0.1033897648	-0.0493234762	 0.0963357683	-0.392444
O	 0.9261812337	-1.8494980545	 1.2886823827	-0.194901
C	 2.0024698549	-1.9876701885	 2.1246880946	-0.024226
C	 2.6777570274	-0.8159359985	 2.247842956	-0.28381
H	-0.4872724331	 1.8055318557	 0.9786762227	 0.113316
H	-0.6069901896	 1.7820978603	-0.7851453711	 0.106995
H	 1.8746812956	 1.5868934639	-0.9664346945	 0.109143
H	 1.4504343193	 3.0286015799	-0.0373910969	 0.103584
H	 2.2393726763	 2.085813093	 1.8783279802	 0.22724
H	-0.1439342067	-0.4568634312	-0.8324889316	 0.234436
H	 2.1489574455	-2.9743406853	 2.5299463827	 0.128744
H	 3.5673663697	-0.6444109563	 2.833788172	 0.103907
113.5385	230.3646	319.7974	342.014	412.2045	468.6004	520.8224	602.1664	628.5572	682.533	691.9065	709.273	740.562	791.0246	814.177	864.9547	907.7025	949.6209	1029.8109	1040.6292	1066.1617	1128.1319	1156.4205	1188.3492	1263.1911	1272.6277	1292.7785	1304.1252	1369.5809	1384.5062	1432.5064	1450.7486	1471.2184	1482.3092	1506.5466	1549.9221	1683.8905	3018.897	3033.3427	3091.5689	3098.663	3252.4522	3289.5282	3499.6021	3516.3984
C1CNC2=C(N1)OC=C2	C1CNc2c(N1)occ2	
InChI=1S/C6H8N2O/c1-4-9-6-5(1)7-2-3-8-6/h1,4,7-8H,2-3H2	InChI=1S/C6H8N2O/c1-4-9-6-5(1)7-2-3-8-6/h1,4,7-8H,2-3H2
