21
gdb 112001	2.65719	1.40435	1.18801	0.8791	84.13	-0.2281	0.01	0.2381	1161.8513	0.182657	-387.07279	-387.06393	-387.062986	-387.106211	33.771	
C	-0.0530342206	 1.4775607096	 0.1173045948	-0.233272
O	 0.1860180312	 0.102607891	-0.0666290527	-0.241539
C	 0.7328886066	-0.5466825487	 1.0771118176	 0.089952
C	-0.2757101166	-0.8254727019	 2.1862547486	-0.114155
C	-0.3096517593	-2.1194654606	 2.5068183438	-0.074057
C	 0.6157145967	-2.9299527838	 1.6612494163	-0.11394
C	 0.3100776285	-2.9853610413	 0.1694854902	 0.008515
C	-1.0439896822	-2.7208542109	-0.4498980286	-0.403589
C	 1.2555024421	-1.933359978	 0.7093839464	-0.1037
H	 0.8591383343	 2.0105961129	 0.4310903667	 0.101005
H	-0.381558746	 1.8799379283	-0.8444268491	 0.125632
H	-0.8374774343	 1.6762577699	 0.8631853545	 0.103759
H	 1.5602983236	 0.0776521605	 1.4593790188	 0.066535
H	-0.8936579573	-0.0493982257	 2.6225391066	 0.094547
H	-0.9518374893	-2.5615741589	 3.2613226959	 0.095897
H	 1.178285803	-3.742105429	 2.1088526819	 0.083477
H	 0.8497549319	-3.7896546724	-0.3273724285	 0.083438
H	-1.6041448832	-1.9588790355	 0.0923641872	 0.126589
H	-0.929912251	-2.3712307831	-1.4805521519	 0.120599
H	-1.6393673681	-3.6411209951	-0.4682874579	 0.102283
H	 2.3009492599	-2.0131597572	 0.4369882293	 0.082024
87.6142	124.1575	169.9112	193.9525	217.8369	252.8314	304.4063	378.5433	463.1014	532.5489	578.2626	716.7692	738.9159	753.3732	796.4249	826.8146	901.9676	939.1287	957.3399	968.1197	989.4504	1026.1937	1046.2112	1073.8054	1087.562	1118.7062	1121.5539	1139.1559	1156.0074	1182.7204	1219.0154	1230.5671	1307.0012	1320.721	1360.8287	1364.4195	1391.4926	1415.521	1431.8487	1477.3065	1489.6303	1492.6999	1498.6251	1510.173	1672.5617	2933.1279	2970.3259	3016.8108	3034.3961	3095.1114	3109.0426	3117.2841	3145.0163	3162.9836	3178.2019	3181.1589	3207.9731
COC1C=CC2C(C)C12	CO[C@H]1C=C[C@H]2[C@@H](C)[C@@H]12	
InChI=1S/C8H12O/c1-5-6-3-4-7(9-2)8(5)6/h3-8H,1-2H3	InChI=1S/C8H12O/c1-5-6-3-4-7(9-2)8(5)6/h3-8H,1-2H3/t5-,6+,7+,8-/m1/s1
