22
gdb 105686	2.43754	1.14472	0.89993	3.5025	83.49	-0.2509	0.0295	0.2805	1375.4751	0.193862	-404.370204	-404.360204	-404.359259	-404.405572	36.859	
C	 1.7055129687	 0.4605402413	-0.9326744569	-0.40016
C	 0.4498645103	 0.2778560977	-0.0701156877	-0.250539
C	 0.653079589	-0.6101999099	 1.1502173005	 0.383954
C	 1.6890825412	-0.1425512278	 2.1616893008	-0.244215
N	 1.3774197754	 1.1518900783	 2.7533395963	-0.265123
C	 2.096007853	 2.278917641	 2.5105020469	 0.155889
O	 3.0860899081	 2.348355781	 1.8106143554	-0.323747
C	-0.551981876	-1.34343487	 1.6985109009	-0.324501
C	 0.5297109722	-2.1034586801	 0.9686023315	-0.304962
H	 2.1174995508	-0.5073311507	-1.2386879385	 0.109525
H	 1.4687641768	 1.0250538216	-1.8399218941	 0.108954
H	 2.4820336993	 1.0114438547	-0.3944090284	 0.155382
H	 0.0859132335	 1.2610449748	 0.2550747182	 0.09544
H	-0.3538410005	-0.1556519413	-0.6777059602	 0.089685
H	 1.7818748803	-0.8888513933	 2.9602268753	 0.100607
H	 2.6719085253	-0.0324944641	 1.6986226765	 0.151449
H	 0.5408291505	 1.2364617391	 3.3092519536	 0.24681
H	 1.6751470616	 3.1555414352	 3.0422899598	 0.075913
H	-0.6319738431	-1.4849630231	 2.7722640128	 0.101935
H	-1.5052138346	-1.2035807935	 1.1999020253	 0.112406
H	 0.3107291153	-2.4758784985	-0.0264167392	 0.115111
H	 1.1769815728	-2.7532559322	 1.5488211511	 0.110187
51.4029	80.1307	119.4354	167.499	205.2516	235.1664	263.5858	312.7627	343.9094	374.7938	435.7969	531.5141	549.8188	697.5257	758.8972	783.8678	805.376	891.4664	921.1197	921.7735	936.8369	997.1167	1017.8915	1031.1361	1051.8834	1056.9813	1082.3563	1103.0362	1122.2955	1187.9426	1210.666	1255.2015	1274.3085	1332.4468	1346.1272	1374.3509	1409.976	1414.2317	1430.368	1468.5263	1482.2357	1488.1426	1503.0309	1506.6309	1521.0451	1534.043	1797.9741	2933.5954	3020.289	3028.0356	3034.8822	3052.9671	3100.7817	3117.0254	3121.4484	3122.7917	3129.7745	3200.5359	3215.5229	3630.0416
CCC1(CNC=O)CC1	CCC1(CNC=O)CC1	
InChI=1S/C7H13NO/c1-2-7(3-4-7)5-8-6-9/h6H,2-5H2,1H3,(H,8,9)	InChI=1S/C7H13NO/c1-2-7(3-4-7)5-8-6-9/h6H,2-5H2,1H3,(H,8,9)
