20
gdb 10208	3.14407	1.08389	0.85582	3.8358	72.38	-0.2429	-0.0151	0.2278	1372.6583	0.174115	-386.150008	-386.139885	-386.13894	-386.185776	34.81	
C	-0.0889356441	 1.5112673659	-0.0129077581	-0.383308
C	 0.0770608103	-0.0098795351	-0.0544088771	-0.172652
C	 0.6871386263	-0.5728268335	 1.234633895	-0.201029
C	 0.8240706423	-2.1126042172	 1.2391055375	-0.059278
C	 1.7130612565	-2.5886084031	 2.3840075036	-0.101675
O	 1.7643845054	-4.0050593901	 2.3215586671	-0.41889
C	-0.5549790224	-2.7345151082	 1.3742544406	 0.18418
O	-1.2210734713	-3.1538193792	 0.4647998173	-0.254868
H	 0.8727562072	 2.0129515135	 0.1436551128	 0.112404
H	-0.5125701146	 1.8889879744	-0.9483358991	 0.116879
H	-0.7563628911	 1.8160693858	 0.8009643442	 0.114619
H	-0.8922954641	-0.4857510755	-0.2409915864	 0.120729
H	 0.7161565437	-0.2887038026	-0.9017168398	 0.101632
H	 1.6815619093	-0.1339176423	 1.3903350313	 0.09933
H	 0.0821786214	-0.259039393	 2.0977906753	 0.098097
H	 1.2478971553	-2.4500401674	 0.287144962	 0.10301
H	 2.7132183885	-2.1397439119	 2.2855327354	 0.094576
H	 1.2926003623	-2.2450729014	 3.3443681592	 0.089048
H	 2.2626608084	-4.3288865964	 3.0776744057	 0.291121
H	-0.9476015894	-2.7319957026	 2.4204654037	 0.066075
60.4605	82.2981	85.5618	128.3744	148.1468	237.3714	244.2783	284.381	304.9021	338.4063	359.9115	522.607	547.3457	741.4473	844.3633	887.6067	900.411	968.1759	1017.4489	1020.9642	1054.362	1069.6778	1121.1669	1133.722	1171.5778	1232.1342	1243.5433	1254.5783	1297.686	1325.1887	1340.8297	1356.6777	1395.3979	1414.5344	1428.475	1453.4855	1485.0238	1493.9246	1500.5242	1511.0301	1520.1677	1837.7464	2834.5026	2959.5927	2998.5534	3002.8479	3028.1388	3031.0444	3036.7526	3065.8895	3070.8534	3097.3971	3104.9001	3831.1568
CCCC(CO)C=O	CCC[C@@H](CO)C=O	
InChI=1S/C6H12O2/c1-2-3-6(4-7)5-8/h4,6,8H,2-3,5H2,1H3	InChI=1S/C6H12O2/c1-2-3-6(4-7)5-8/h4,6,8H,2-3,5H2,1H3/t6-/m1/s1
