14
gdb 13447	3.62289	1.5043	1.38659	3.4742	54.52	-0.2602	-0.0006	0.2596	910.2988	0.105336	-456.796506	-456.788721	-456.787777	-456.828865	28.034	
O	-0.041756883	 1.3861769683	 0.2765351742	-0.426966
C	 0.1047011468	 0.0054809423	 0.1243760509	 0.026651
C	-0.6606598436	-0.8102168095	 1.1421364979	 0.057369
O	-1.3971269408	-0.1049349768	 2.0800808979	-0.418409
C	-1.1177507292	-0.7715191219	-0.3136453398	-0.012602
O	-2.2045509675	 0.055868984	-0.6468106468	-0.211411
C	-3.4045360151	-0.2287756908	-0.0587066965	 0.186171
O	-4.3643528737	 0.4494479368	-0.2478274663	-0.267732
H	-0.7496590473	 1.6734927622	-0.3162410855	 0.312271
H	 1.0878916334	-0.3054576537	-0.2161099727	 0.113604
H	-0.2434461288	-1.7404104011	 1.5163985813	 0.115549
H	-1.1282224099	 0.8228294336	 1.9850834167	 0.30015
H	-1.0024255101	-1.642461927	-0.9515845233	 0.117946
H	-3.3646488512	-1.1371972664	 0.562567642	 0.10741
84.8893	126.3613	198.4131	236.9661	298.9054	303.5127	336.7946	521.9878	554.8243	600.6956	686.6111	744.4275	763.9943	805.0123	964.794	1031.5876	1038.0049	1072.7214	1103.334	1116.9052	1157.9961	1163.9786	1236.0798	1331.5698	1339.6875	1361.9914	1385.3004	1413.7677	1443.9632	1875.2995	3024.4575	3148.934	3150.9303	3162.9042	3691.7177	3757.6594
OC1C(O)C1OC=O	O[C@H]1[C@@H](O)[C@H]1OC=O	
InChI=1S/C4H6O4/c5-1-8-4-2(6)3(4)7/h1-4,6-7H	InChI=1S/C4H6O4/c5-1-8-4-2(6)3(4)7/h1-4,6-7H/t2-,3+,4-
