15
gdb 127292	5.43686	1.27213	1.03784	5.5951	76.3	-0.1976	-0.0176	0.18	1089.163	0.115382	-412.983385	-412.97609	-412.975146	-413.015234	27.538	
C	 0.0026027185	 1.4429318231	 0.0159503698	-0.334361
N	-0.0323760297	-0.0076156955	-0.0036550161	 0.02941
C	-0.0079889389	-0.7570508455	-1.1702800589	-0.253906
C	 0.0342306593	-2.0722332193	-0.7563384008	 0.335225
N	 0.0565450681	-3.3928767096	-1.0930311098	-0.391055
N	 0.0775939502	-4.1701471565	 0.0417978083	-0.104914
N	 0.0613036833	-3.4162618496	 1.085159051	-0.299393
C	 0.0353008265	-2.1045296668	 0.6635774368	 0.265281
C	-0.0048650868	-0.7938344239	 1.1171578001	-0.213923
H	 1.0215701034	 1.8203775377	-0.122632337	 0.146628
H	-0.6318020062	 1.8390926853	-0.7807466862	 0.145129
H	-0.3792691367	 1.8005011055	 0.973739235	 0.147947
H	-0.0203173612	-0.2795097115	-2.1342537987	 0.123392
H	 0.0766951879	-3.8508356418	-1.9868104535	 0.27052
H	-0.0154042278	-0.3602357917	 2.1024488299	 0.13402
78.9981	148.9028	285.5916	302.3344	306.8567	385.2235	517.412	564.9548	583.078	611.262	680.113	700.1353	773.1983	774.6678	859.4528	980.7425	1014.1273	1016.0002	1087.2162	1145.6877	1172.04	1212.698	1238.9011	1310.1451	1374.7251	1398.1834	1424.8257	1456.5872	1486.8618	1488.2987	1515.349	1544.3137	1667.039	3039.0218	3107.6875	3141.46	3277.7692	3281.8902	3693.0863
CN1C=C2NN=NC2=C1	Cn1cc2[nH]nnc2c1	
InChI=1S/C5H6N4/c1-9-2-4-5(3-9)7-8-6-4/h2-3H,1H3,(H,6,7)	InChI=1S/C5H6N4/c1-9-2-4-5(3-9)7-8-6-4/h2-3H,1H3,(H,6,7)
