17
gdb 32768	3.40211	1.11188	0.86562	2.3088	72.64	-0.1963	0.0104	0.2067	1312.9299	0.136454	-455.159507	-455.15062	-455.149676	-455.194087	31.539	
C	-0.2152008743	 1.3781346795	-0.2526072771	-0.225826
O	-0.2850371501	-0.0282179833	-0.3331957602	-0.239078
C	 0.9197768685	-0.6075909597	-0.8154651762	-0.198401
C	 0.6905649821	-2.0623612026	-0.9922573487	 0.259345
C	-0.3610717336	-2.8000929009	-1.4468015239	 0.211136
N	-1.576202385	-2.3732041118	-1.9604813884	-0.603993
N	-0.0390932665	-4.1478964263	-1.3767985407	-0.30282
C	 1.1640643666	-4.1614247603	-0.8968957241	 0.063705
O	 1.6838063895	-2.9528274494	-0.6286158888	-0.18329
H	 0.5702135662	 1.704975734	 0.446024162	 0.110456
H	-0.0142194596	 1.8347180903	-1.2342610302	 0.109976
H	-1.1820940219	 1.7313780262	 0.1127843445	 0.130417
H	 1.202601976	-0.1147975043	-1.7634215148	 0.103508
H	 1.7501490224	-0.4464540315	-0.1096075815	 0.112138
H	-1.8626263268	-1.4849670119	-1.5700244881	 0.255188
H	-2.2953700346	-3.07792569	-1.869717475	 0.251444
H	 1.786943421	-5.0181635881	-0.693067329	 0.146095
40.5945	87.4647	120.7196	220.4156	234.384	293.4874	328.2751	339.4256	383.9811	449.8473	632.0047	676.236	719.263	763.4752	801.4704	826.0321	955.043	974.1049	1003.7677	1054.4556	1140.6959	1163.351	1177.9044	1188.8607	1221.6261	1252.6254	1289.5904	1325.4026	1394.0951	1456.1409	1480.3439	1485.3457	1501.7329	1520.7686	1549.3439	1628.4048	1701.5297	2932.3373	2975.9123	2991.717	3023.1218	3119.6425	3275.2592	3546.7863	3649.5735
COCC1=C(N)N=CO1	COCc1c(N)nco1	
InChI=1S/C5H8N2O2/c1-8-2-4-5(6)7-3-9-4/h3H,2,6H2,1H3	InChI=1S/C5H8N2O2/c1-8-2-4-5(6)7-3-9-4/h3H,2,6H2,1H3
