14
gdb 42642	3.13965	1.48566	1.24619	4.	73.57	-0.2803	-0.0161	0.2642	992.3215	0.102444	-395.674732	-395.667888	-395.666944	-395.706164	26.383	
N	-0.1007233972	 1.2150077757	-0.1447324197	-0.543722
C	-0.0925397214	-0.032152428	-0.0614761085	 0.435876
C	-1.1523618069	-1.0948110492	 0.0817902502	-0.199053
C	-0.8810717312	-1.9620493981	-1.1854729234	-0.244084
C	 0.4922734574	-2.2413539913	-0.5675304876	-0.093873
N	 1.013546818	-0.9889534401	 0.0935231462	-0.214572
C	 0.0163641387	-1.9065642767	 0.7930070814	 0.28882
C	 0.1941396866	-2.4541519984	 2.0860975439	 0.147759
N	 0.2988135894	-2.9161592619	 3.1417732928	-0.342572
H	 0.8526798739	 1.5844215553	-0.174395409	 0.240796
H	-2.151754244	-0.8932577791	 0.4529741985	 0.123698
H	-1.488713284	-2.8689294973	-1.2032679051	 0.133656
H	-0.9257690023	-1.450919809	-2.1507826008	 0.129158
H	 1.2460752231	-2.9613070617	-0.8566207887	 0.138112
101.8399	167.5702	218.8325	383.1312	433.0909	504.0855	537.0045	561.1061	628.7383	693.3173	754.553	794.9152	837.0763	896.8549	910.0772	956.8465	966.9173	979.8063	1047.2634	1076.0921	1093.6973	1126.0674	1143.4639	1201.9073	1240.0188	1270.3237	1291.06	1400.5566	1496.4621	1837.5156	2354.1314	3067.9099	3131.789	3186.8782	3218.5827	3458.3438
N=C1C2CC3N1C23C#N	[NH][C]1[C@H]2C[C@H]3N1[C@@]23C#N	
InChI=1S/C6H5N3/c7-2-6-3-1-4(6)9(6)5(3)8/h3-4,8H,1H2	InChI=1S/C6H5N3/c7-2-6-3-1-4(6)9(6)5(3)8/h3-4,8H,1H2/t3-,4-,6+,9?/m1/s1
