20
gdb 69826	3.12525	1.57879	1.29513	1.2092	78.38	-0.2167	0.0824	0.2991	1044.4068	0.172169	-403.099792	-403.09212	-403.091176	-403.131298	31.603	
C	 0.1182072401	 1.4832919199	-0.0958510528	-0.451709
C	-0.0433871926	-0.0060670664	 0.0504571919	 0.452669
C	-0.9709456714	-0.5882714724	 1.0919293741	-0.388068
C	 0.5456208455	-0.7446230542	 1.2268607694	-0.063089
N	 1.2829244559	-1.9574025638	 0.9735681686	-0.082072
C	 0.6582143163	-3.2711051329	 0.9779999223	-0.250989
C	 1.0603344402	-2.6299782002	-0.3101462482	-0.019641
C	 0.0119830824	-2.0297141684	-1.23019879	-0.12865
O	 0.0534934116	-0.6076611383	-1.2168706538	-0.292325
H	 1.077535089	 1.7168469058	-0.5680572548	 0.12775
H	-0.6800477974	 1.897588185	-0.7202493733	 0.124387
H	 0.082810518	 1.9729448257	 0.8809920338	 0.115401
H	-1.4596117576	 0.096145463	 1.7770415425	 0.112107
H	-1.5704179171	-1.455494203	 0.8442656576	 0.113623
H	 1.0131951559	-0.1474698848	 2.0046030735	 0.096702
H	 1.2603705083	-4.0670375982	 1.4080029321	 0.116104
H	-0.4072563195	-3.3459934182	 1.1880909838	 0.110456
H	 1.9781344713	-2.9514951041	-0.7975145128	 0.094564
H	 0.209013529	-2.3137989458	-2.2665616307	 0.116141
H	-0.998290698	-2.3834719386	-0.9805294434	 0.096638
171.3047	208.8496	233.173	273.4663	337.4152	403.1295	412.9964	455.8405	520.9288	533.6358	660.0788	681.3866	765.657	823.4381	832.1353	872.8432	914.7805	928.482	950.2885	975.1205	1029.4362	1039.6451	1068.4222	1095.2503	1098.3378	1121.1495	1124.1436	1141.7851	1158.2859	1173.2723	1266.0445	1280.2798	1305.0514	1338.6494	1394.1366	1395.7521	1413.5304	1424.3509	1474.3206	1477.9817	1503.9638	1505.	1519.2453	3002.1007	3037.9258	3095.4907	3096.8687	3105.4854	3119.4157	3124.9993	3137.7734	3142.5813	3181.0985	3226.5436
CC12CC1N1CC1CO2	C[C@]12C[C@H]1N1C[C@H]1CO2	
InChI=1S/C7H11NO/c1-7-2-6(7)8-3-5(8)4-9-7/h5-6H,2-4H2,1H3	InChI=1S/C7H11NO/c1-7-2-6(7)8-3-5(8)4-9-7/h5-6H,2-4H2,1H3/t5-,6+,7-,8?/m0/s1
