20
gdb 113960	3.21476	0.89932	0.82581	2.69	75.92	-0.2262	0.0616	0.2878	1456.232	0.16949	-440.212126	-440.202574	-440.20163	-440.247585	34.253	
O	 0.2341680464	 1.3760158648	-0.0497372435	-0.404141
C	-0.1120070696	 0.0845642282	 0.4296033485	-0.115642
C	-1.5566953356	-0.2466964851	 0.1109651048	 0.008015
C	-2.5082612642	 0.7929125664	-0.3714413463	-0.248967
N	-2.1016723677	-0.3076580814	-1.242849678	-0.098268
C	-1.2460756809	-0.0106247198	-2.3888905735	-0.192693
C	-2.1108236654	 0.2368997651	-3.6034857902	 0.106154
C	-2.4011462479	 1.5927675586	-4.0857500707	-0.170759
O	-1.4424157363	 0.7656533073	-4.7491478256	-0.242016
H	 1.188699791	 1.4744714889	 0.0145825946	 0.291971
H	 0.5440320027	-0.6861990883	-0.0062008381	 0.098732
H	 0.0086427769	 0.0279757831	 1.5233710772	 0.098103
H	-1.9376068754	-1.0387290801	 0.755457858	 0.091392
H	-3.5458129559	 0.7867525674	-0.0473866415	 0.108869
H	-2.0868613238	 1.7760794537	-0.5642991165	 0.130244
H	-0.5744928947	 0.8438994549	-2.233427099	 0.114611
H	-0.6212694878	-0.8934298163	-2.5782064793	 0.103286
H	-2.8337305171	-0.5501323	-3.8201480571	 0.096175
H	-3.3159356472	 1.7880101372	-4.6436769099	 0.112864
H	-1.9882260776	 2.4501900456	-3.555109414	 0.11207
49.4739	70.9995	113.03	126.9915	221.1561	235.0587	259.0989	334.6459	388.3741	441.6938	459.0146	618.1021	752.3039	804.6238	847.5985	880.3766	905.4681	927.8181	970.0478	1017.1142	1032.0787	1047.2921	1096.9545	1114.1048	1120.8901	1134.0614	1155.6781	1171.6954	1175.8189	1179.8763	1233.9568	1264.7186	1277.8149	1283.5987	1338.2939	1363.5291	1417.8262	1443.124	1456.7917	1497.5957	1510.4126	1514.7382	1530.5477	2966.5372	2991.6139	3010.6524	3052.5435	3080.2607	3102.8367	3107.1885	3111.5153	3167.0334	3191.7841	3830.9571
OCC1CN1CC1CO1	OC[C@H]1CN1C[C@H]1CO1	
InChI=1S/C6H11NO2/c8-3-5-1-7(5)2-6-4-9-6/h5-6,8H,1-4H2	InChI=1S/C6H11NO2/c8-3-5-1-7(5)2-6-4-9-6/h5-6,8H,1-4H2/t5-,6+,7?/m1/s1
