21
gdb 81346	2.26374	1.61286	1.46827	1.7099	83.	-0.2258	0.0143	0.2401	1071.3403	0.183285	-387.088371	-387.080033	-387.079089	-387.120756	33.048	
C	-0.2190686979	 1.6116365794	 0.0654052517	-0.433883
C	 0.0335990445	 0.115956419	 0.0123325899	 0.027641
C	 0.8207579564	-0.5715413189	-1.1352258979	 0.066847
C	 2.0741770576	 0.2083723763	-1.5584116752	-0.266651
C	 2.8695024628	 0.5766438297	-0.3235804458	-0.170313
C	 2.4205905023	 0.2049772746	 0.8783270759	 0.364201
C	 3.0803247969	 0.5128259824	 2.1875838369	-0.505827
C	 1.1288489794	-0.5985682527	 0.8572595668	-0.034634
O	 1.2276011621	-1.6061937503	-0.1942717234	-0.297332
H	 0.7051608537	 2.1880101767	-0.0217604037	 0.124281
H	-0.8904825503	 1.9172662892	-0.7448810915	 0.11611
H	-0.7015879777	 1.8906676324	 1.008855463	 0.115497
H	-0.9018321686	-0.4355152332	 0.1447738499	 0.084574
H	 0.2652444873	-0.9776683803	-1.9856279601	 0.069842
H	 2.6778615159	-0.408939416	-2.2367407627	 0.113822
H	 1.7932075395	 1.105675061	-2.127783484	 0.103207
H	 3.7963288632	 1.1324930241	-0.4427970428	 0.082594
H	 3.9938595513	 1.0980794115	 2.0496792197	 0.121834
H	 2.4127190807	 1.0799584662	 2.8497801859	 0.123716
H	 3.3411676593	-0.4078551201	 2.7255815062	 0.129026
H	 0.8646934416	-1.0337310709	 1.8250655911	 0.06545
126.877	183.1742	188.6459	218.6671	281.5883	307.0733	333.2837	425.1944	505.6395	510.9399	606.6464	644.8065	725.2368	810.3328	819.2132	868.4461	885.7711	908.4443	950.7936	962.1562	989.0068	1030.2917	1058.6809	1066.8211	1090.6585	1100.211	1159.1973	1165.7067	1186.5649	1212.8555	1244.161	1294.1185	1317.6827	1339.7306	1366.0933	1372.9257	1389.2278	1412.6686	1413.7808	1468.3923	1476.7777	1489.1265	1492.4668	1504.5476	1727.1447	3009.4317	3011.4749	3031.1771	3038.986	3056.82	3059.3603	3068.2421	3076.9321	3089.2506	3107.288	3117.7142	3154.4086
CC1C2CC=C(C)C1O2	C[C@H]1[C@H]2CC=C(C)[C@@H]1O2	
InChI=1S/C8H12O/c1-5-3-4-7-6(2)8(5)9-7/h3,6-8H,4H2,1-2H3	InChI=1S/C8H12O/c1-5-3-4-7-6(2)8(5)9-7/h3,6-8H,4H2,1-2H3/t6-,7+,8-/m0/s1
