16
gdb 24701	3.80128	1.59064	1.14447	3.8873	78.28	-0.2134	-0.0291	0.1843	1016.16	0.129376	-396.992054	-396.985542	-396.984598	-397.022893	25.88	
C	 0.0162731118	 1.4501445588	 0.1271165944	-0.176983
C	 1.4819262482	 1.8915310694	-0.1146054375	-0.322602
C	 2.2267251875	 0.5789422092	-0.0300221554	 0.322617
N	 3.5286766155	 0.3945670424	 0.0699680011	-0.333901
C	 3.9131744415	-0.8958264822	 0.0964913437	 0.037173
N	 3.1269577552	-1.9644468214	 0.0341371837	-0.24429
C	 1.8049601126	-1.7599162253	-0.0729731456	-0.098116
C	 1.2968094358	-0.4696742971	-0.1126284215	 0.264423
N	 0.005898788	 0.0216361779	-0.26111556	-0.398288
H	-0.2478673702	 1.5741944343	 1.1873346888	 0.107951
H	-0.7023886611	 2.0159773277	-0.4702426023	 0.118379
H	 1.605431821	 2.3229864604	-1.1154499236	 0.133764
H	 1.8319862225	 2.6321365316	 0.6069276244	 0.132176
H	 4.9803479774	-1.0779004381	 0.1854269793	 0.110695
H	 1.1687531476	-2.6410364546	-0.1199527734	 0.104927
H	-0.7513235932	-0.5366560629	 0.1058827441	 0.242074
150.3463	189.3282	287.6088	413.9396	434.7645	518.0203	563.458	581.3254	623.362	728.464	765.7399	807.9505	877.1459	895.649	917.9017	946.7252	967.9867	1040.7393	1074.795	1129.3017	1174.3453	1186.7244	1231.9476	1247.297	1283.3883	1305.687	1330.4776	1339.1446	1420.544	1454.8907	1475.5093	1495.3338	1525.1451	1612.7562	1629.2788	2996.4212	3039.0083	3093.0729	3114.1522	3148.2396	3175.1017	3596.2723
C1CC2=NC=NC=C2N1	C1Cc2ncncc2N1	
InChI=1S/C6H7N3/c1-2-8-6-3-7-4-9-5(1)6/h3-4,8H,1-2H2	InChI=1S/C6H7N3/c1-2-8-6-3-7-4-9-5(1)6/h3-4,8H,1-2H2
