19
gdb 72572	2.42743	1.8517	1.44552	2.7741	73.76	-0.2474	-0.021	0.2264	974.4594	0.161326	-423.072564	-423.065125	-423.064181	-423.104048	30.576	
O	 0.0823643291	 1.3791626288	-0.0268739157	-0.50779
C	 0.0147442434	-0.0084407607	-0.048812873	 0.349055
C	 0.6589674866	-0.682855768	-1.3010244566	-0.264994
C	 0.08263419	-2.1279101709	-1.2803845342	-0.21592
C	-0.7848579491	-2.1380010065	 0.0035187523	-0.026494
C	 0.1562697337	-2.0891004668	 1.2317563335	-0.333904
C	 0.6760431427	-0.6536202293	 1.1634290392	 0.373432
O	 1.4150374531	-0.0689184183	 1.9177750948	-0.353921
C	-1.3691993238	-0.7052694984	-0.0022937013	-0.285052
H	 0.6833772226	 1.602117533	 0.7010887678	 0.287575
H	 0.3406531634	-0.1179232095	-2.1811257429	 0.117601
H	 1.7511610727	-0.6465309785	-1.2663789566	 0.109893
H	-0.5343058382	-2.3207616589	-2.1624095578	 0.104635
H	 0.8613365786	-2.8954677109	-1.2559225732	 0.100262
H	-1.5121941132	-2.9491760218	 0.0436745708	 0.072257
H	-0.3884128652	-2.221728807	 2.1738124199	 0.133704
H	 0.9697346188	-2.8207051533	 1.2188257577	 0.128151
H	-1.9396734108	-0.4550845602	 0.897376743	 0.104051
H	-1.9763236742	-0.4846837526	-0.8843507875	 0.107462
114.8123	206.4365	290.9456	349.6486	361.1907	416.3117	419.3854	500.1485	517.3841	606.8409	636.755	705.8508	748.9621	818.5112	852.2694	890.2515	921.5832	928.9888	947.0261	981.753	995.0615	1040.8955	1077.8908	1106.5104	1130.1159	1142.7914	1192.803	1196.7744	1239.1776	1250.8547	1272.9536	1287.2266	1327.6992	1341.6487	1358.5151	1417.6584	1444.0186	1490.233	1494.7883	1517.5489	1840.5877	3046.3351	3052.893	3056.0798	3063.848	3089.2442	3094.7295	3108.5346	3109.4203	3112.4842	3699.4116
OC12CCC(CC1=O)C2	O[C@@]12CC[C@@H](CC1=O)C2	
InChI=1S/C7H10O2/c8-6-3-5-1-2-7(6,9)4-5/h5,9H,1-4H2	InChI=1S/C7H10O2/c8-6-3-5-1-2-7(6,9)4-5/h5,9H,1-4H2/t5-,7+/m0/s1
