18
gdb 98022	4.09609	0.62348	0.55447	2.66	81.82	-0.255	-0.0226	0.2324	1985.8463	0.14487	-439.083606	-439.0726	-439.071656	-439.122323	36.985	
C	 0.0334801229	 1.4236064963	-0.24403964	-0.339296
N	-0.1135138696	-0.0178774669	-0.2484943336	-0.309775
C	-1.2440321841	-0.6416375937	 0.1954849881	 0.258162
O	-2.22456663	-0.0586278732	 0.6241560013	-0.35844
C	-1.1728133983	-2.0942154267	 0.1057012258	-0.086996
C	-1.1543609605	-3.2993428747	 0.060733458	 0.184029
C	-1.1501238851	-4.7642560657	-0.0329616418	-0.037776
C	-2.5666331536	-5.3176220383	-0.2413191458	-0.3892
O	-0.2450362809	-5.2257012292	-1.0313376359	-0.409409
H	 0.8518211794	 1.7394800668	 0.4127763548	 0.129725
H	 0.2256538313	 1.8055866178	-1.2527043583	 0.128392
H	-0.9015820707	 1.8452717087	 0.1257748063	 0.174368
H	 0.6494656766	-0.5957378009	-0.5609210659	 0.255735
H	-0.7488866792	-5.1658548271	 0.9056012338	 0.12844
H	-2.9978812601	-4.9279903148	-1.1691827395	 0.122035
H	-2.5230931163	-6.4079864855	-0.3017597823	 0.129282
H	-3.2228414386	-5.0277945498	 0.5838839427	 0.136625
H	-0.5319007032	-4.8573163433	-1.8747158377	 0.284099
13.144	63.6678	70.5364	78.5589	152.2937	173.3064	244.5798	264.1284	306.3203	311.7429	362.9441	451.7087	486.874	525.3936	595.5909	615.3086	762.4511	789.2455	885.0732	957.4411	1033.8395	1074.4989	1104.0037	1151.5012	1151.8663	1172.6642	1254.6943	1284.6893	1330.9636	1400.7841	1413.9807	1439.2959	1487.3999	1489.948	1491.2149	1498.609	1556.9567	1757.5325	2341.6377	3028.4458	3039.1428	3043.4185	3080.5844	3117.3007	3131.8605	3156.5507	3647.0392	3800.03
CNC(=O)C#CC(C)O	CNC(=O)C#C[C@@H](C)O	
InChI=1S/C6H9NO2/c1-5(8)3-4-6(9)7-2/h5,8H,1-2H3,(H,7,9)	InChI=1S/C6H9NO2/c1-5(8)3-4-6(9)7-2/h5,8H,1-2H3,(H,7,9)/t5-/m1/s1
