21
gdb 106281	2.77581	1.24136	1.02384	1.3323	78.91	-0.2565	0.0739	0.3304	1251.6709	0.18111	-424.184084	-424.174608	-424.173663	-424.217968	36.394	
C	-0.0273975381	 1.5363377136	 0.0668340644	-0.382425
C	 0.0533056967	 0.0107609288	-0.0560097917	-0.308609
C	 0.762205529	-0.4596559899	-1.2995370167	 0.329852
C	 0.3346163108	-0.248696175	-2.7884516247	-0.339481
C	 1.6493186655	-1.0815033848	-2.833778396	 0.344615
O	 2.2899864797	-1.6412371244	-3.9255562164	-0.477822
C	 2.2277347065	-0.1275624938	-1.7456257976	-0.33833
C	 1.0484313494	-1.9356621033	-1.694181066	 0.06605
O	 1.8996054476	-2.643493615	-0.8288875785	-0.452301
H	 0.9715485199	 1.9842192186	 0.0897455079	 0.119266
H	-0.5699946565	 1.9755718054	-0.7769335859	 0.116084
H	-0.5454678958	 1.8287456424	 0.9851645372	 0.112348
H	 0.5724574882	-0.4044316937	 0.8167514888	 0.112849
H	-0.9584835847	-0.415451229	-0.0425680342	 0.097246
H	-0.5823991159	-0.7475644503	-3.1163730057	 0.090232
H	 0.3963719485	 0.7753161832	-3.1646047599	 0.089494
H	 2.6594747923	-0.9325954644	-4.4630117528	 0.283141
H	 2.4157534828	 0.9046336121	-2.0552679148	 0.079581
H	 3.024709272	-0.5276179869	-1.1200721298	 0.108456
H	 0.165069402	-2.5302788317	-1.9678472363	 0.059361
H	 2.3005225402	-3.3602328122	-1.3314037213	 0.290393
77.8908	140.2846	179.7554	185.9766	242.4633	273.6271	279.2321	306.4475	368.8294	421.1423	517.7265	532.8619	590.863	649.217	661.7119	755.2717	783.0424	838.4027	914.2569	969.2297	976.2162	1003.1069	1030.2603	1054.8555	1077.3255	1107.7106	1120.9708	1126.8899	1141.9381	1154.6549	1185.271	1187.2447	1252.5027	1305.3527	1318.8256	1336.1288	1363.7835	1386.0288	1410.154	1434.1574	1483.2817	1485.4485	1498.8547	1507.1382	1543.9165	3002.6668	3019.296	3034.1641	3048.3583	3053.3685	3060.2794	3102.7962	3105.788	3116.3445	3149.2056	3810.1847	3815.2796
CCC12CC(O)(C1)C2O	CC[C@@]12C[C@@](O)(C1)[C@H]2O	
InChI=1S/C7H12O2/c1-2-6-3-7(9,4-6)5(6)8/h5,8-9H,2-4H2,1H3	InChI=1S/C7H12O2/c1-2-6-3-7(9,4-6)5(6)8/h5,8-9H,2-4H2,1H3/t5-,6-,7-/m0/s1
