22
gdb 59237	2.39626	1.40408	1.19556	0.2883	81.08	-0.2276	0.0707	0.2983	1181.7994	0.193652	-404.299811	-404.290295	-404.289351	-404.333825	36.371	
C	-0.1697918371	 0.5772302948	-2.1682715204	-0.417333
C	 0.1009180907	-0.4928343599	-1.1077084703	 0.10855
O	 0.9813840894	 0.0102811689	-0.0998036179	-0.429181
C	-1.2073729485	-1.0830108245	-0.5727969489	 0.042907
C	-1.2775456031	-2.2259515753	 0.4966034936	-0.035041
C	-0.0280281076	-2.7689038741	 1.183299879	-0.415589
C	-2.2094419461	-1.2877345274	 1.2697438625	-0.033197
C	-1.5640062517	-0.0022646938	 1.5751620776	-0.25444
N	-2.1373799262	-0.1902074637	 0.217764182	-0.16733
H	 0.7730973051	 1.0001534277	-2.5258216339	 0.120495
H	-0.7106820626	 0.1620005045	-3.0237656964	 0.121375
H	-0.7842703972	 1.382677171	-1.7493574245	 0.132472
H	 0.6548216803	-1.3216122111	-1.569568132	 0.089807
H	 0.7016628133	 0.9089268362	 0.1027743743	 0.285809
H	-1.774504649	-1.3939766004	-1.4572356673	 0.080981
H	-1.8454878152	-3.065199416	 0.0836306906	 0.076975
H	 0.6169394032	-1.9718321748	 1.5564866972	 0.139183
H	-0.305300806	-3.4178236477	 2.0217261462	 0.110018
H	 0.5657524678	-3.3701951431	 0.4859037514	 0.112469
H	-3.1590397308	-1.5785292151	 1.7082281628	 0.090129
H	-2.1384928371	 0.715406826	 2.1533202777	 0.115704
H	-0.4916612816	 0.0467472676	 1.7158597668	 0.125237
62.8165	151.1222	174.1115	189.3084	222.1408	259.9576	273.3731	314.504	357.5025	397.5849	482.8472	531.4345	638.7108	719.1238	745.5994	773.108	791.2286	887.0905	910.5686	926.0274	986.8994	1004.5339	1048.4271	1057.0703	1066.9119	1083.0842	1097.226	1124.3645	1137.9522	1170.6754	1178.55	1221.6248	1265.0664	1289.3573	1295.0363	1353.7478	1367.1154	1378.2853	1381.2054	1403.2192	1416.115	1425.6295	1487.0952	1491.9097	1495.7745	1497.7153	1509.1076	3017.2624	3032.6162	3033.3273	3036.4171	3058.7154	3089.7677	3104.782	3119.2017	3130.8632	3139.723	3157.7086	3226.8915	3814.4388
CC(O)C1C(C)C2CN12	C[C@@H](O)[C@H]1[C@@H](C)[C@H]2CN12	
InChI=1S/C7H13NO/c1-4-6-3-8(6)7(4)5(2)9/h4-7,9H,3H2,1-2H3	InChI=1S/C7H13NO/c1-4-6-3-8(6)7(4)5(2)9/h4-7,9H,3H2,1-2H3/t4-,5+,6+,7+,8?/m0/s1
