15
gdb 128720	4.92972	0.95024	0.8064	1.5763	64.07	-0.2665	-0.0207	0.2458	1362.5135	0.112013	-491.071479	-491.062837	-491.061893	-491.105637	29.727	
C	-0.1039533862	 1.3049541357	-0.0710818236	-0.246046
O	-0.418897355	-0.0079481648	-0.5531465264	-0.243377
C	 0.5076822706	-0.5792995013	-1.3030363629	 0.465656
N	 1.6590538859	-0.0308738687	-1.6146999632	-0.237959
O	 2.2602273736	-1.0315732253	-2.4150849326	-0.207462
C	 1.3919600291	-2.0395202196	-2.4720651716	 0.411321
C	 1.7398500265	-3.2911152236	-3.216663677	-0.154564
O	 0.6102333144	-4.0968574903	-3.4241305418	-0.410065
N	 0.2926214372	-1.8364919315	-1.8141731208	-0.399262
H	 0.7953517058	 1.2793863989	 0.5510727644	 0.148642
H	 0.0592537248	 1.9911511064	-0.907083064	 0.149242
H	-0.9663946742	 1.6171789235	 0.5167634298	 0.144006
H	 2.1748494807	-3.0273087489	-4.1879555117	 0.143974
H	 2.5267236159	-3.8168715178	-2.6488536293	 0.129186
H	-0.0234911891	-3.8908122527	-2.7248699893	 0.306708
56.1048	100.8812	152.2579	172.0738	219.6263	244.892	279.896	376.3555	453.5753	500.1185	650.0886	704.8944	766.3192	778.4472	932.0803	1020.2018	1029.6238	1042.8712	1103.3456	1115.6822	1181.3932	1225.0605	1230.4991	1280.48	1353.8647	1408.4706	1459.2713	1481.1085	1482.2946	1498.4431	1500.5265	1606.924	1637.74	2964.1023	3045.0685	3057.6161	3118.4154	3163.9599	3773.5293
COC1=NOC(CO)=N1	COc1noc(CO)n1	
InChI=1S/C4H6N2O3/c1-8-4-5-3(2-7)9-6-4/h7H,2H2,1H3	InChI=1S/C4H6N2O3/c1-8-4-5-3(2-7)9-6-4/h7H,2H2,1H3
