19
gdb 57071	2.93545	1.18522	1.0156	2.5683	76.78	-0.2497	0.021	0.2707	1220.4009	0.157852	-422.972664	-422.963401	-422.962457	-423.006552	35.267	
O	-0.0899362084	 1.4779058846	 0.2834597792	-0.435649
C	 0.0117397647	 0.0566557962	 0.0838549797	-0.082852
C	 0.70099051	-0.2482920726	-1.1696365932	 0.288284
C	 1.3092174785	-0.4783299699	-2.1808837983	-0.424672
C	 0.6595277284	-0.6609403767	 1.2778063152	-0.050061
C	 2.0594356867	-0.1399199925	 1.712518979	-0.246762
C	 1.406468996	 0.6124690412	 2.9058518251	-0.250671
C	 0.0973677717	-0.1921141501	 2.6676458055	 0.145273
O	-1.1375768658	 0.4674288055	 2.7163005801	-0.434788
H	 0.7729114098	 1.8657529638	 0.1010116023	 0.294546
H	-1.0301672947	-0.2772452356	 0.0181391062	 0.132909
H	 1.8261353227	-0.6871683126	-3.0850840102	 0.202976
H	 0.5968660973	-1.7361310201	 1.0858178256	 0.08296
H	 2.7200571864	-0.950684625	 2.0265943319	 0.109178
H	 2.6042632268	 0.4655996997	 0.9822873654	 0.093857
H	 1.879924405	 0.5155521478	 3.8856740246	 0.099337
H	 1.254242882	 1.6743600418	 2.6947484677	 0.095942
H	 0.0162907705	-1.0393664096	 3.3548993399	 0.087792
H	-1.0727513276	 1.2153919744	 2.1070328744	 0.292401
74.6677	130.48	134.5284	215.9121	218.6919	257.6667	297.0518	370.6451	424.0194	532.2197	563.5705	598.9679	614.8845	632.697	679.5169	706.056	753.8312	806.8183	891.0279	939.9009	948.8798	956.605	1001.7066	1058.1466	1084.1273	1103.9345	1146.8605	1188.4488	1225.6768	1243.0345	1256.9498	1261.4532	1280.958	1324.8479	1333.6647	1354.8777	1416.6764	1457.9863	1476.1732	1499.3546	2232.7406	3049.1686	3055.202	3059.2385	3063.3532	3072.8943	3103.0005	3122.3297	3502.1964	3751.4644	3813.7361
OC(C#C)C1CCC1O	O[C@@H](C#C)[C@H]1CC[C@H]1O	
InChI=1S/C7H10O2/c1-2-6(8)5-3-4-7(5)9/h1,5-9H,3-4H2	InChI=1S/C7H10O2/c1-2-6(8)5-3-4-7(5)9/h1,5-9H,3-4H2/t5-,6+,7-/m1/s1
