21
gdb 40123	2.73762	1.6137	1.2629	0.2391	87.3	-0.2202	0.0248	0.2449	1080.4152	0.185054	-349.94498	-349.937415	-349.936471	-349.976598	31.652	
C	-0.1002561058	 1.5084026093	 0.0171108778	-0.31969
C	 1.2595281372	 0.8556352131	-0.078822272	-0.305181
C	 0.0130026085	 0.0043415291	 0.0198518384	 0.404775
C	-0.2428551211	-0.7299733727	 1.3341897707	-0.365374
C	 0.1208453606	-2.1934624636	 1.2574021671	-0.078791
C	 0.1026608219	-2.8763473678	 0.1110179037	-0.045748
C	-0.2793828899	-2.261098928	-1.1833489624	-0.075353
C	-1.637066231	-1.5758439124	-1.299917842	-0.309327
C	-0.3836939333	-0.7482983492	-1.2188617179	-0.09149
H	-0.3659751034	 2.0022834558	 0.9467355319	 0.105571
H	-0.5011957182	 1.9909323961	-0.8683509301	 0.107512
H	 1.7804832864	 0.8959362508	-1.0299604463	 0.106873
H	 1.9143445649	 0.9066047902	 0.7848150553	 0.107555
H	 0.3162240977	-0.2419258439	 2.1407998747	 0.098968
H	-1.302545095	-0.6281905483	 1.615131474	 0.109696
H	 0.3785125195	-2.6947807282	 2.1860854736	 0.08338
H	 0.3611318414	-3.9319505206	 0.1017773504	 0.082564
H	 0.0839867528	-2.7616062736	-2.0749803897	 0.080667
H	-2.1523985746	-1.6257181843	-2.253257067	 0.108176
H	-2.288865971	-1.6289750723	-0.4350834942	 0.117536
H	-0.0753467274	-0.2706712396	-2.144834976	 0.077679
108.4225	202.0831	271.6272	291.4773	335.4978	411.4851	480.3367	511.1493	528.6358	671.4732	722.6897	768.4975	787.5102	821.9046	832.1943	869.8573	907.6208	928.1823	945.2654	978.2091	987.1506	993.6082	1010.0826	1032.0998	1049.2503	1060.7739	1075.0537	1078.8876	1113.3416	1128.2091	1186.2481	1195.3368	1206.3134	1225.2798	1286.4262	1319.8543	1345.9939	1381.3412	1421.9997	1433.223	1467.4634	1482.1387	1492.3617	1505.469	1711.6392	2984.9581	3048.8954	3121.3826	3125.6874	3131.7402	3138.4873	3147.7036	3158.7812	3175.079	3198.7663	3213.8265	3220.2429
C1CC11CC=CC2CC12	C1CC21CC=C[C@H]1C[C@@H]21	
InChI=1S/C9H12/c1-2-7-6-8(7)9(3-1)4-5-9/h1-2,7-8H,3-6H2	InChI=1S/C9H12/c1-2-7-6-8(7)9(3-1)4-5-9/h1-2,7-8H,3-6H2/t7-,8+/m0/s1
