17
gdb 68032	2.66848	1.78619	1.34883	3.342	66.41	-0.2555	0.0647	0.3202	956.2028	0.135369	-458.906385	-458.898985	-458.898041	-458.937535	30.792	
O	-0.1276703585	 1.3816414038	 0.0480218953	-0.487385
C	 0.0458169005	 0.0036658772	 0.0548144742	 0.379664
C	 0.9494954225	-0.7793997357	-0.9706178395	-0.357335
C	 0.7461560335	-1.9120070032	 0.1051185214	 0.379665
O	 1.501872931	-3.0757332259	 0.1650564905	-0.487385
C	 0.7821408224	-0.7841755427	 1.1777607628	-0.358571
C	-0.7678021654	-2.1603325135	-0.0685283633	 0.005884
O	-1.6031673455	-1.6612241598	 0.986543572	-0.254141
C	-1.2685073358	-0.7907253301	-0.1044937585	 0.005884
H	 0.7351769151	 1.8022287431	 0.119138778	 0.281858
H	 0.5594108646	-0.9484620936	-1.9780870643	 0.101375
H	 1.978247103	-0.404393927	-1.012046209	 0.08225
H	 2.4312659659	-2.837239444	 0.2412528841	 0.281858
H	 1.7998984545	-0.4083397081	 1.320828204	 0.078114
H	 0.2723886909	-0.9456688534	 2.1246714957	 0.128961
H	-1.139321882	-3.0016658984	-0.6428620782	 0.109653
H	-2.0850633969	-0.4147365486	-0.7107907352	 0.109652
243.8605	246.6375	274.2043	297.8449	320.8505	397.6587	414.9091	500.4188	524.3562	591.0755	596.6295	616.7933	686.5269	809.2562	836.0353	888.2496	895.2025	932.6849	948.6799	970.1014	1013.2674	1026.6017	1091.8786	1097.864	1127.6419	1130.3254	1145.234	1168.8505	1235.39	1236.2713	1299.4883	1300.3754	1388.2701	1392.2945	1410.3675	1466.9642	1515.1498	3038.2121	3063.0534	3107.4108	3166.4936	3178.617	3190.122	3818.3662	3819.4217
OC12CC(O)(C1)C1OC21	O[C@@]12C[C@@](O)(C1)[C@H]1O[C@@H]21	
InChI=1S/C6H8O3/c7-5-1-6(8,2-5)4-3(5)9-4/h3-4,7-8H,1-2H2	InChI=1S/C6H8O3/c7-5-1-6(8,2-5)4-3(5)9-4/h3-4,7-8H,1-2H2/t3-,4+,5-,6+
