20
gdb 81870	2.75993	1.47822	1.11579	1.8937	78.81	-0.2252	-0.023	0.2022	1148.4861	0.169987	-403.163477	-403.154672	-403.153727	-403.196601	33.889	
C	 0.0770199885	 1.6204135246	-0.0037141227	-0.392275
C	 0.1237688296	 0.0975796937	-0.0262949429	-0.066046
N	 0.804052139	-0.4810049761	-1.1947755849	-0.136375
C	 2.2678796039	-0.314705378	-1.1690921708	-0.298475
C	 1.6697593932	-1.60524011	-0.7350200414	 0.340292
C	 1.7263080879	-2.8352802828	-1.6048783006	-0.475008
C	 1.539464333	-1.7725491495	 0.7693006021	-0.398634
C	 0.7733529774	-0.5256211851	 1.2245375047	 0.373153
O	 0.6816156015	-0.1091752001	 2.3493215403	-0.311062
H	 1.0824735675	 2.0496146824	-0.0476507344	 0.120544
H	-0.4963412368	 2.0014644843	-0.8521856398	 0.126092
H	-0.3910670708	 1.9546726534	 0.9255350876	 0.139519
H	-0.9090875512	-0.2835338912	-0.0446667432	 0.110014
H	 2.7320522235	-0.2302024721	-2.1474240682	 0.118557
H	 2.710841515	 0.3278738425	-0.4087289339	 0.11486
H	 1.7122613736	-2.559472248	-2.6623181004	 0.129929
H	 2.6379659049	-3.411026554	-1.4092797833	 0.119741
H	 0.8685448046	-3.4898818808	-1.4131489172	 0.118968
H	 0.941467156	-2.658346433	 1.0215236661	 0.130723
H	 2.4888147897	-1.8604873803	 1.3039488829	 0.135485
85.6688	165.817	188.5902	200.0964	232.0975	280.8777	340.1322	381.3987	458.1385	491.9801	551.5791	564.5476	641.8393	722.2692	761.2505	783.9546	874.8356	900.2449	945.2652	953.965	1019.9216	1037.3282	1041.0011	1103.6852	1115.8487	1128.2648	1168.393	1174.3876	1196.8724	1230.9234	1299.912	1321.0557	1337.7209	1377.5817	1403.3763	1419.7005	1454.1292	1486.1577	1488.7301	1492.6378	1497.144	1513.1799	1848.0369	2989.558	3028.3077	3033.0929	3049.0876	3090.0897	3091.1807	3099.7678	3119.5573	3120.1433	3133.6658	3180.7973
CC1N2CC2(C)CC1=O	C[C@H]1N2C[C@@]2(C)CC1=O	
InChI=1S/C7H11NO/c1-5-6(9)3-7(2)4-8(5)7/h5H,3-4H2,1-2H3	InChI=1S/C7H11NO/c1-5-6(9)3-7(2)4-8(5)7/h5H,3-4H2,1-2H3/t5-,7-,8?/m1/s1
