17
gdb 24687	3.68949	1.5898	1.13409	2.3728	83.01	-0.1989	-0.0102	0.1887	1042.3646	0.141279	-380.948858	-380.94225	-380.941306	-380.979698	26.782	
C	 0.0066089325	 1.4240155158	-0.1199023897	-0.166911
C	 1.462340437	 1.9140426685	 0.1182907243	-0.339713
C	 2.2512799137	 0.6302104736	 0.0192522372	 0.268688
C	 3.5909155835	 0.3447733489	-0.1086722921	-0.233971
C	 3.9746065771	-1.0069058325	-0.1421834822	-0.121717
C	 2.9948622689	-1.984367767	-0.0476423385	-0.024396
N	 1.6779701372	-1.734445614	 0.0785135391	-0.374605
C	 1.3513296356	-0.4510346703	 0.1139619101	 0.372578
N	 0.0541746124	 0.0095361466	 0.2716301875	-0.365612
H	-0.7249024928	 1.9743598013	 0.4774288072	 0.112325
H	-0.2642335977	 1.5389713961	-1.180463132	 0.102732
H	 1.7616995013	 2.6805170549	-0.6011332099	 0.116178
H	 1.5590449198	 2.3517515273	 1.1201827538	 0.122792
H	 4.3329562105	 1.1337667107	-0.1893847295	 0.0969
H	 5.0154783066	-1.2879025914	-0.2493797258	 0.090723
H	 3.270262248	-3.0358192239	-0.0787358066	 0.100288
H	-0.6880793434	-0.6053228545	-0.0278743926	 0.243721
149.9889	206.4335	282.0981	414.2712	427.7378	522.3925	554.5382	570.2163	616.7518	714.7769	769.3074	795.8761	812.2081	882.2659	899.1489	938.9404	959.6765	971.4944	1054.8396	1066.6567	1082.8437	1111.7081	1182.1738	1191.6384	1220.487	1280.7159	1289.2271	1315.3667	1333.2409	1357.0034	1436.934	1472.7115	1484.027	1505.7184	1533.1705	1627.7736	1653.8941	2984.217	3023.8354	3083.0652	3092.4839	3154.6487	3170.4821	3203.8809	3613.3882
C1CC2=CC=CN=C2N1	C1Cc2cccnc2N1	
InChI=1S/C7H8N2/c1-2-6-3-5-9-7(6)8-4-1/h1-2,4H,3,5H2,(H,8,9)	InChI=1S/C7H8N2/c1-2-6-3-5-9-7(6)8-4-1/h1-2,4H,3,5H2,(H,8,9)
