21
gdb 106833	2.783	1.13946	0.9356	2.1616	79.05	-0.2491	0.0723	0.3214	1343.2131	0.180895	-424.19686	-424.187173	-424.186229	-424.231824	35.821	
C	-0.4336445183	 1.3707819759	-0.3340862934	-0.378287
C	 0.1396622792	 0.0043699764	 0.0695546781	-0.298489
C	 1.0096742364	-0.5855114811	-0.9978760613	 0.357081
C	 2.4124188471	-0.1338629608	-1.4512723909	-0.287689
C	 2.6844238589	-1.6012955906	-1.9322517421	-0.28365
C	 1.2731267225	-1.9702683552	-1.4513154892	 0.309206
C	 0.715098251	-3.2994372469	-1.0517510776	-0.172471
O	 0.4690406774	-4.1228090934	-2.1822351671	-0.41495
O	 0.3674035047	-1.1066885326	-2.1777391726	-0.340267
H	 0.364386995	 2.0950319948	-0.5273021092	 0.12047
H	-1.0344756058	 1.2819645469	-1.2437873533	 0.134894
H	-1.0692893509	 1.7764620403	 0.4581649275	 0.114836
H	 0.7283786583	 0.1028460087	 0.9901979219	 0.102706
H	-0.6779016934	-0.692295017	 0.2844519041	 0.108984
H	 2.4209513815	 0.6444015005	-2.2176814433	 0.10938
H	 3.0582371338	 0.1639559256	-0.6211947462	 0.103319
H	 2.8609092213	-1.7468361273	-2.9998674701	 0.112596
H	 3.4762597991	-2.0925089243	-1.3613191345	 0.104876
H	 1.4352828979	-3.8414543489	-0.4298461254	 0.110846
H	-0.1984585018	-3.147400501	-0.4571262915	 0.09296
H	-0.1051976538	-3.6166674599	-2.768387814	 0.293649
55.8581	86.0627	117.1862	167.3932	207.0857	256.2992	278.567	338.8087	358.8467	415.049	503.6818	540.284	650.395	715.1097	747.5223	773.7922	787.4267	895.1439	917.535	934.5138	973.3317	976.9592	1024.2475	1053.4419	1085.6972	1104.17	1153.1444	1184.8953	1201.413	1215.9107	1221.0306	1254.9247	1307.3568	1316.5428	1351.3465	1371.629	1407.9402	1426.691	1462.602	1466.0217	1474.0935	1489.9707	1497.9263	1502.8414	1517.4199	2989.8601	3029.9	3040.124	3062.0678	3070.6568	3071.5771	3076.3626	3109.5119	3114.2908	3118.9524	3131.2426	3801.1214
CCC12CCC1(CO)O2	CC[C@@]12CC[C@]1(CO)O2	
InChI=1S/C7H12O2/c1-2-6-3-4-7(6,5-8)9-6/h8H,2-5H2,1H3	InChI=1S/C7H12O2/c1-2-6-3-4-7(6,5-8)9-6/h8H,2-5H2,1H3/t6-,7-/m1/s1
