15
gdb 55993	3.55829	0.92711	0.84093	4.6133	63.24	-0.2649	-0.0026	0.2624	1345.1419	0.112992	-491.139742	-491.131114	-491.13017	-491.174285	30.699	
N	 0.1118986753	 1.3619988278	-0.1100526889	-0.568256
C	 0.080289212	 0.0144897	 0.1893804436	 0.471182
O	 0.9858741267	-0.5665623156	 0.75367715	-0.378722
N	-1.0793962611	-0.6258153302	-0.2328697005	-0.363248
C	-1.1506311778	-2.0534679226	-0.1799834962	-0.136543
C	-2.3014408475	-2.7733077851	 0.5643587652	-0.095392
O	-2.6373338667	-3.4993045463	-0.6632087022	-0.238595
C	-1.7274944942	-2.7889323837	-1.4036047544	 0.426086
O	-1.571771246	-2.7941638344	-2.5811478649	-0.31768
H	 0.8455346968	 1.8608078063	 0.3686098318	 0.268596
H	-0.7588900632	 1.8636291279	-0.1908142904	 0.253644
H	-1.6361736819	-0.1654782333	-0.9368382856	 0.25397
H	-0.1655377376	-2.4279563363	 0.1084782773	 0.164767
H	-2.0233304512	-3.4628358343	 1.3627291626	 0.134684
H	-3.1271395436	-2.1276167601	 0.8705729524	 0.125506
37.2119	84.61	126.4758	200.242	237.5631	361.6292	365.2038	435.0645	447.4625	520.598	548.5791	641.5944	691.9427	761.3529	772.1991	891.3588	929.6387	957.0558	1003.8617	1074.9055	1105.9275	1120.1777	1152.7078	1214.9452	1235.0355	1311.6123	1335.5268	1385.9647	1514.7763	1528.9218	1628.7322	1810.8593	1938.8335	3075.6236	3102.3522	3143.8495	3584.8402	3616.8065	3701.6109
NC(=O)NC1COC1=O	NC(=O)N[C@H]1COC1=O	
InChI=1S/C4H6N2O3/c5-4(8)6-2-1-9-3(2)7/h2H,1H2,(H3,5,6,8)	InChI=1S/C4H6N2O3/c5-4(8)6-2-1-9-3(2)7/h2H,1H2,(H3,5,6,8)/t2-/m0/s1
