17
gdb 126411	4.7544	1.04987	0.86911	1.1208	81.66	-0.2196	-0.0711	0.1485	1315.4905	0.137578	-414.201745	-414.193499	-414.192555	-414.23503	30.694	
C	 0.0854952817	 1.5589374233	 0.184112616	-0.375322
C	-0.0459536106	 0.0398501143	 0.0977787627	-0.254681
C	-1.4503398022	-0.4684402703	-0.0795154435	 0.369723
N	-2.439032559	 0.368130757	-0.147388586	-0.223106
N	-3.6677271101	-0.1524824818	-0.3059919215	-0.245392
C	-3.9859299987	-1.4978245726	-0.404619813	 0.358711
N	-5.2052908144	-1.8620080027	-0.554530917	-0.556916
C	-2.7758727501	-2.3219907211	-0.3117843729	-0.051779
N	-1.5878548113	-1.8527850626	-0.1601644578	-0.257852
H	 1.1345249397	 1.8401450845	 0.3118505773	 0.110146
H	-0.2930563644	 2.0409411029	-0.7211616792	 0.127463
H	-0.4837945605	 1.9580817029	 1.027761419	 0.127471
H	 0.5563388012	-0.3542544697	-0.7314022929	 0.124294
H	 0.3678851638	-0.4361556029	 0.9965428531	 0.124298
H	-4.4216592607	 0.5180439366	-0.3561967493	 0.276939
H	-5.268350979	-2.8770386412	-0.6093828891	 0.217302
H	-2.9054719355	-3.4031716465	-0.3773053759	 0.128701
61.4281	91.2301	188.2327	220.8391	306.18	367.8421	382.1268	453.4094	493.7837	535.2732	638.2749	684.3258	734.612	761.1218	769.6241	814.5326	829.6123	970.6009	992.9433	1006.4584	1078.3676	1109.2159	1116.783	1225.6203	1246.6722	1279.4106	1377.2447	1385.6881	1407.8589	1417.1487	1448.4626	1471.7857	1493.3796	1502.8193	1572.3253	1650.8184	1707.3739	3023.8537	3046.4662	3049.1834	3120.2624	3123.3735	3124.5949	3499.6229	3609.0568
CCC1=NNC(=N)C=N1	CCc1n[nH]c([NH])cn1	
InChI=1S/C5H8N4/c1-2-5-7-3-4(6)8-9-5/h3H,2H2,1H3,(H2,6,8)	InChI=1S/C5H13N4/c1-2-5-7-3-4(6)8-9-5/h4-9H,2-3H2,1H3
