21
gdb 40141	2.47404	1.58579	1.2661	1.5663	81.92	-0.2349	0.0666	0.3015	1102.8141	0.182651	-387.048598	-387.040332	-387.039388	-387.081507	32.588	
C	 0.1535907042	 1.4499590287	-0.3368971189	-0.324173
C	 1.3822875315	 0.5911145661	-0.1268763442	-0.324176
C	 0.0146528714	-0.0095502744	-0.0372508415	 0.22625
C	-0.6529378321	-0.6718149924	 1.1600966752	-0.147648
O	-1.2163834953	-1.6876120667	 0.302263029	-0.331578
C	-0.6191880178	-1.1223860246	-0.8798977607	 0.410371
C	-1.5234888871	-0.8002029894	-2.0915860754	-0.287706
C	-0.3926075585	-1.3219469517	-3.0212454706	-0.217314
C	 0.2377693871	-2.0313430307	-1.7904899914	-0.287705
H	-0.1194735271	 2.1586825922	 0.4389275288	 0.11423
H	-0.0622512621	 1.7910371249	-1.344680499	 0.116955
H	 1.9920013555	 0.3551424398	-0.9935455	 0.116955
H	 1.9470659929	 0.7141922733	 0.79216368	 0.11423
H	 0.021942984	-1.0988382105	 1.9134502295	 0.099906
H	-1.4302992992	-0.0836863623	 1.6652377965	 0.099907
H	-2.3914865333	-1.4657200763	-2.0905819929	 0.113225
H	-1.8660205039	 0.2311499121	-2.2093427338	 0.095999
H	-0.6884246376	-1.9509503892	-3.8627783418	 0.102388
H	 0.2378393025	-0.5127339297	-3.4002741965	 0.10066
H	 1.3230407569	-1.998036733	-1.6641567064	 0.095999
H	-0.099707252	-3.0676993263	-1.6987912158	 0.113224
78.3681	101.1092	195.8355	242.6187	272.308	341.2137	406.3496	483.8965	490.7209	573.4887	694.6685	776.2173	776.626	845.0644	867.936	891.354	904.3399	918.3794	925.8631	962.5013	981.9854	1018.1972	1023.9888	1053.9998	1062.4928	1076.7347	1126.0853	1151.7539	1152.717	1167.0137	1186.2014	1196.2946	1225.1317	1242.9171	1269.8644	1273.7559	1308.2346	1331.7392	1412.8878	1461.0133	1470.0424	1483.4059	1501.9517	1510.0159	1526.1588	3001.8823	3042.941	3055.2891	3058.0094	3064.127	3103.5426	3111.423	3119.6237	3122.7571	3124.4909	3196.1687	3211.0364
C1CC11COC11CCC1	C1CC21COC12CCC1	
InChI=1S/C8H12O/c1-2-8(3-1)7(4-5-7)6-9-8/h1-6H2	InChI=1S/C8H12O/c1-2-8(3-1)7(4-5-7)6-9-8/h1-6H2
