19
gdb 51487	3.88524	1.00344	0.89844	2.9264	81.05	-0.236	-0.0213	0.2147	1314.998	0.159376	-385.89362	-385.885417	-385.884472	-385.927346	30.971	
O	-0.6795792415	 0.7475020828	 0.6755797435	-0.241338
C	 0.0397819232	 0.9791737167	-0.26182769	 0.160595
C	 1.3169082361	 1.7843457433	-0.2051749931	-0.275427
C	 1.2806240061	 2.9900069356	-1.1730591989	-0.059967
C	 0.2916100343	 4.0766287262	-0.7824503549	-0.086194
C	 0.8466593847	 5.2901794352	-0.7875113752	-0.080181
C	 2.3047352722	 5.2314302886	-1.100684236	-0.078602
C	 3.1375409955	 4.4844222637	-0.0767778604	-0.28002
C	 2.6048054984	 3.7536926895	-1.2843113513	-0.059027
H	-0.2115931712	 0.5976310348	-1.2811208678	 0.068289
H	 1.4920149092	 2.1000377218	 0.8260528126	 0.120876
H	 2.1368201918	 1.1185151481	-0.5101219042	 0.117113
H	 1.0149710699	 2.5968887147	-2.1672258538	 0.084894
H	-0.7352894474	 3.8545303553	-0.5137657046	 0.106593
H	 0.3329600154	 6.2160702579	-0.5542674371	 0.09912
H	 2.7715341793	 6.0019794926	-1.7039108683	 0.088821
H	 4.2057040957	 4.6752274235	-0.0611802221	 0.111517
H	 2.6954232376	 4.3081421969	 0.8980894466	 0.116671
H	 3.3233776808	 3.421446483	-2.0243930951	 0.086268
52.1973	74.0976	146.6476	200.6695	294.0999	382.2178	413.8332	488.4903	577.9243	678.6391	745.3101	770.7432	782.2356	799.0175	831.5146	903.8467	923.4371	941.75	976.606	1002.4462	1029.5068	1039.7208	1067.6886	1079.1097	1095.8291	1106.7635	1111.7144	1149.2162	1198.8566	1201.1434	1260.7442	1305.7844	1317.3318	1350.2545	1373.9013	1390.9645	1430.3405	1461.4007	1476.5347	1669.4067	1834.4898	2839.655	2974.1368	3016.7822	3109.5072	3126.7212	3168.514	3177.0425	3184.8977	3208.8991	3215.2843
O=CCC1C=CC2CC12	O=CC[C@H]1C=C[C@H]2C[C@@H]12	
InChI=1S/C8H10O/c9-4-3-6-1-2-7-5-8(6)7/h1-2,4,6-8H,3,5H2	InChI=1S/C8H10O/c9-4-3-6-1-2-7-5-8(6)7/h1-2,4,6-8H,3,5H2/t6-,7+,8+/m1/s1
