16
gdb 43808	2.0813	1.75286	1.06719	2.5732	76.75	-0.2576	0.0166	0.2742	1119.9793	0.122552	-400.691504	-400.683251	-400.682307	-400.724461	31.428	
N	 0.1427283715	 1.1505882744	 0.4576388323	-0.539999
C	 0.0664667577	-0.0168203816	 0.0186244962	 0.438768
O	 0.9832267641	-0.8011086683	-0.6509068286	-0.269754
C	 0.0656204391	-1.9190409349	-0.6837400456	 0.463268
C	 0.0205143974	-2.8729096703	-1.8199558067	-0.340245
C	 0.5140117984	-3.3105057981	-0.4416713106	-0.332771
C	-1.0336795579	-1.0839377973	-0.0048690671	-0.43664
C	-1.5719572536	-1.5481644227	 1.2548916002	 0.354843
C	-2.0176075408	-1.9629139909	 2.2904466242	-0.451043
H	 1.0598024767	 1.5612838021	 0.2757211164	 0.233358
H	-0.9478278995	-3.2218914948	-2.1633122807	 0.128333
H	 0.7641636154	-2.7504650187	-2.599895694	 0.135389
H	 1.5791157253	-3.4757469905	-0.3233599854	 0.135266
H	-0.121594996	-3.9463999923	 0.1653203569	 0.13612
H	-1.8355637134	-0.8039836308	-0.6961609439	 0.140226
H	-2.4091670045	-2.3095247554	 3.2148595964	 0.20488
86.5778	115.929	148.3229	246.6316	283.5004	380.5397	414.9809	459.715	516.0993	563.151	632.0783	646.3306	654.4863	756.8516	800.2301	858.0846	869.8836	892.7436	917.3587	967.2113	1007.5328	1024.5935	1051.3507	1078.0489	1086.8982	1169.9468	1179.8213	1183.3428	1292.587	1328.7421	1384.1804	1449.8593	1502.2912	1835.4814	2245.3283	3058.7649	3133.2871	3136.9987	3217.9013	3231.6226	3481.9299	3502.7504
N=C1OC2(CC2)C1C#C	[NH][C]1OC2(CC2)[C@H]1C#C	
InChI=1S/C7H7NO/c1-2-5-6(8)9-7(5)3-4-7/h1,5,8H,3-4H2	InChI=1S/C7H7NO/c1-2-5-6(8)9-7(5)3-4-7/h1,5,8H,3-4H2/t5-/m0/s1
