18
gdb 112368	2.28064	1.46337	0.93875	0.6791	76.96	-0.2465	0.0063	0.2528	1248.1905	0.148805	-435.313676	-435.30497	-435.304025	-435.347519	32.316	
C	-0.0692966798	 1.5554599653	 0.026463452	-0.39351
C	 0.0380625627	 0.0299583052	-0.0134957827	-0.178818
C	 0.7346259061	-0.5493682645	 1.21249306	 0.037209
O	-0.0243334517	-0.2837674109	 2.4156672769	-0.256703
C	-0.3192790958	-1.4449425025	 3.0591786707	 0.46673
N	-0.9630022259	-1.5915858139	 4.1340535463	-0.584478
N	 0.2185477487	-2.4897983772	 2.3192247373	-0.378397
C	 0.8675443158	-2.0654338915	 1.1790571271	 0.382367
N	 1.4612796787	-2.7002281845	 0.2554658737	-0.55106
H	 0.9218170809	 2.0207665976	 0.0656919667	 0.11875
H	-0.5797530238	 1.9319282236	-0.8643863317	 0.119871
H	-0.6306965561	 1.8860844131	 0.9048218705	 0.134228
H	-0.957068443	-0.4232912977	-0.0939422076	 0.107139
H	 0.6096662966	-0.3035064105	-0.8859713291	 0.134725
H	 1.7234287341	-0.092226677	 1.3383469627	 0.12171
H	-1.2586078378	-0.6889239772	 4.4988201579	 0.231162
H	 0.1018521231	-3.4452945632	 2.6128859899	 0.273996
H	 1.4434831771	-3.7094238642	 0.4057626495	 0.215079
74.4199	108.3653	124.5248	171.2576	237.9895	306.4549	388.0417	413.271	490.9987	552.0694	625.2619	648.203	699.2353	717.3268	785.1804	804.4943	853.2456	877.1249	946.2014	969.4173	998.3446	1064.8194	1091.5721	1104.4927	1130.2248	1148.4446	1263.668	1284.2562	1312.0307	1360.8663	1362.0354	1392.8699	1411.6704	1428.267	1477.2183	1497.5031	1508.1085	1772.419	1804.7178	3036.1633	3038.4753	3047.4895	3086.5168	3108.5705	3121.3694	3472.4277	3531.3496	3668.7744
CCC1OC(=N)NC1=N	CC[C@H]1O[C]([NH])N[C]1[NH]	
InChI=1S/C5H9N3O/c1-2-3-4(6)8-5(7)9-3/h3H,2H2,1H3,(H3,6,7,8)	InChI=1S/C5H9N3O/c1-2-3-4(6)8-5(7)9-3/h3H,2H2,1H3,(H3,6,7,8)/t3-/m1/s1
