23
gdb 59368	2.82864	1.17223	1.06324	1.448	87.29	-0.2424	0.016	0.2584	1291.1211	0.205859	-388.311037	-388.3014	-388.300456	-388.345212	37.133	
C	 0.2455647344	 1.3888090071	 0.1921480613	-0.404895
C	-0.0453611825	-0.1142000887	 0.1912640748	 0.12858
O	 0.4110250608	-0.7245794984	 1.3948795843	-0.433257
C	-1.5329604332	-0.4475988534	-0.0840648502	-0.037926
C	-1.8045907778	-1.9773646712	-0.2019165127	-0.252118
C	-2.6239619899	-2.3998851346	 1.0556404052	-0.004439
C	-1.8545267415	-3.3188481898	 2.019323491	-0.40157
C	-2.9944974124	-1.0719407466	 1.6742364741	-0.069004
C	-2.4367888623	-0.0308259286	 1.0570209012	-0.109931
H	 1.3079970765	 1.5623711064	 0.3827330851	 0.123042
H	-0.0137362319	 1.8436080737	-0.7700036978	 0.110682
H	-0.3236764462	 1.9044865032	 0.9736448991	 0.109486
H	 0.5517049234	-0.5846949557	-0.5997514423	 0.084865
H	-0.2046648099	-0.4665282437	 2.0921963486	 0.275988
H	-1.8068924896	 0.0703316374	-1.0126001375	 0.070823
H	-2.3750959154	-2.1845030905	-1.1113000786	 0.094853
H	-0.869947958	-2.5401470713	-0.2710552569	 0.107317
H	-3.5378513088	-2.9279993638	 0.7512807589	 0.074444
H	-0.8907733458	-2.8723422177	 2.2810554178	 0.132063
H	-2.4199612585	-3.4950918556	 2.9410574772	 0.104618
H	-1.660965148	-4.291762983	 1.5552976395	 0.111553
H	-3.6547659853	-1.0048477259	 2.534028391	 0.090744
H	-2.5836543579	 1.0067064506	 1.3390082168	 0.094082
78.1177	90.4804	162.1131	219.1091	245.6602	262.5236	294.4127	333.4937	360.7832	371.8665	455.2653	492.9005	627.5601	679.5697	752.9899	779.5254	807.0839	831.6342	896.9101	929.0251	937.6012	969.5603	986.2158	1013.1038	1043.0812	1068.0048	1078.1804	1111.7003	1121.4645	1144.9298	1157.511	1224.917	1250.0639	1273.6178	1312.6825	1316.3226	1341.3042	1343.3748	1363.5079	1389.3117	1404.403	1409.4366	1429.4605	1487.2171	1491.3939	1496.622	1500.7445	1508.8288	1682.5984	3003.2256	3012.8414	3029.3799	3032.4122	3033.4033	3060.3376	3094.2017	3099.2741	3102.0915	3115.6418	3116.8332	3167.8033	3194.8141	3771.426
CC(O)C1CC(C)C=C1	C[C@@H](O)[C@H]1C[C@@H](C)C=C1	
InChI=1S/C8H14O/c1-6-3-4-8(5-6)7(2)9/h3-4,6-9H,5H2,1-2H3	InChI=1S/C8H14O/c1-6-3-4-8(5-6)7(2)9/h3-4,6-9H,5H2,1-2H3/t6-,7+,8+/m0/s1
