19
gdb 106363	3.28558	1.2381	1.08896	2.4193	76.6	-0.2288	0.007	0.2359	1183.802	0.158502	-422.981652	-422.973124	-422.972179	-423.014774	32.769	
C	-0.1015931424	 1.4546646645	 0.0196336648	-0.516968
C	-0.142119236	-0.0300768962	-0.0627609918	 0.365796
C	-0.60158983	-0.882007378	-0.9836278524	-0.256718
C	-0.2901619739	-2.2498012466	-0.3436722784	 0.359388
C	-0.4058851431	-3.5211207379	-1.1394887361	-0.177972
O	 0.4176105406	-3.4680443958	-2.2909868755	-0.419282
C	-0.7892024421	-2.0297715323	 1.1186403968	-0.273137
C	 0.3902768354	-1.0218463448	 1.0004825742	-0.038015
O	 1.0808395249	-2.0136660474	 0.1701139137	-0.333753
H	 0.9292512018	 1.8197746749	 0.1115950299	 0.134035
H	-0.5477994446	 1.9161173765	-0.8654714173	 0.131382
H	-0.6420290218	 1.8221030234	 0.9015504394	 0.129075
H	-1.0680235668	-0.70861883	-1.942275729	 0.112781
H	-0.1523574111	-4.378075747	-0.4968088522	 0.094961
H	-1.436090447	-3.6546503275	-1.4878687845	 0.110653
H	 1.2884082944	-3.1824136191	-1.9897221968	 0.296689
H	-1.7987926395	-1.6443187178	 1.2733124594	 0.09782
H	-0.5611088128	-2.8724762035	 1.7767190955	 0.104571
H	 0.970209454	-0.6565519256	 1.8480777401	 0.078694
86.4175	123.2752	166.4435	200.845	249.5641	341.6032	383.5092	419.4131	501.9049	557.3761	580.0551	622.5042	696.7373	774.3677	791.8434	845.4066	854.9263	904.8167	958.0577	994.9275	1015.8104	1027.666	1051.1525	1063.2851	1085.5676	1118.9635	1142.1136	1200.0296	1222.8509	1234.7216	1253.6949	1295.1982	1338.6123	1377.3974	1412.5144	1441.0733	1478.2005	1484.1842	1488.2247	1496.9292	1691.4052	2989.9801	3015.9825	3060.0604	3061.3156	3070.233	3110.1302	3124.2952	3133.397	3242.2739	3793.0623
CC1=CC2(CO)CC1O2	CC1=C[C@]2(CO)C[C@H]1O2	
InChI=1S/C7H10O2/c1-5-2-7(4-8)3-6(5)9-7/h2,6,8H,3-4H2,1H3	InChI=1S/C7H10O2/c1-5-2-7(4-8)3-6(5)9-7/h2,6,8H,3-4H2,1H3/t6-,7-/m1/s1
