17
gdb 12543	3.58609	1.89915	1.3158	1.6697	65.83	-0.2442	0.0151	0.2594	924.8657	0.143333	-401.003957	-400.996467	-400.995523	-401.035796	27.768	
C	 0.0583859592	 1.54471118	 0.1031617601	-0.399744
C	 0.0153531218	 0.0245079594	 0.0184981114	 0.09235
C	 0.4956167531	-0.4859823919	-1.3438306953	-0.141186
N	 0.4877988552	-1.9130471266	-1.6002375876	-0.25896
C	 0.8137028485	-2.8121023993	-0.7807717578	 0.120071
O	 1.1607580119	-2.774046718	 0.5376093137	-0.224849
C	 0.5901604424	-1.796572785	 1.404863633	 0.019626
O	 0.8417507915	-0.4806554353	 1.0696778903	-0.228689
H	 1.0803388297	 1.9071114554	-0.0440056037	 0.130162
H	-0.5826755434	 1.992460131	-0.6613455123	 0.121677
H	-0.2847764999	 1.8794029512	 1.0851220789	 0.126073
H	-1.0151338718	-0.3298573438	 0.187001846	 0.075235
H	-0.1141007565	-0.0083393803	-2.1197678442	 0.107874
H	 1.5248081848	-0.1276108428	-1.4920621446	 0.122152
H	 0.8975601631	-3.8410644261	-1.1321952032	 0.120398
H	-0.4949052705	-1.9843188973	 1.4568546144	 0.093164
H	 1.0598964409	-1.9861331906	 2.3713472708	 0.124647
105.5493	121.0147	205.1122	281.106	327.8497	356.7901	420.5945	467.9974	520.7494	622.9235	751.2243	852.2055	896.6362	913.8635	942.8348	970.1905	1003.4452	1074.7936	1100.8172	1126.659	1153.7828	1181.5267	1216.8451	1277.5619	1327.1958	1337.4801	1388.3632	1398.2976	1412.2481	1430.446	1458.0105	1468.7207	1486.7386	1496.0279	1504.1104	1764.1327	2964.9545	2973.494	3008.7968	3046.4004	3056.0954	3120.307	3121.2297	3127.4029	3133.4342
CC1CN=COCO1	C[C@H]1CN=COCO1	
InChI=1S/C5H9NO2/c1-5-2-6-3-7-4-8-5/h3,5H,2,4H2,1H3	InChI=1S/C5H9NO2/c1-5-2-6-3-7-4-8-5/h3,5H,2,4H2,1H3/t5-/m0/s1
