20
gdb 33164	3.20479	1.06269	0.85531	1.273	81.96	-0.178	0.062	0.24	1399.631	0.171011	-403.186143	-403.176654	-403.175709	-403.221187	34.918	
C	-0.0003425067	 1.5665994789	-0.0124530377	-0.380982
C	 0.0130651203	 0.0363373817	-0.0170185305	-0.169368
C	-1.402017766	-0.5541894102	 0.031804725	-0.15848
N	-1.4226907732	-2.0065512038	 0.0070916601	-0.029286
C	-1.5775296193	-2.8086820289	-1.1132101854	-0.119586
C	-1.4814942826	-4.1175388814	-0.720519429	-0.149315
C	-1.2511851223	-4.1348414396	 0.6897798601	-0.303844
C	-1.220184632	-2.8192468163	 1.0872886175	 0.35802
O	-1.0313104367	-2.2174795953	 2.2946853902	-0.446315
H	 1.0160449048	 1.970033411	-0.0376985554	 0.118046
H	-0.5371159061	 1.9647322176	-0.8810324398	 0.114681
H	-0.4903346048	 1.9571391501	 0.8864552015	 0.11852
H	 0.521180566	-0.3370985118	-0.913840855	 0.105858
H	 0.5766022538	-0.3384189715	 0.8444017146	 0.11795
H	-1.9138587246	-0.217935117	 0.9392112239	 0.125902
H	-1.9902140785	-0.2030488095	-0.8225014148	 0.111167
H	-1.7513674943	-2.3610550653	-2.0781938917	 0.108088
H	-1.5718694785	-4.9791894908	-1.3638562524	 0.089995
H	-1.1290676013	-4.9978795595	 1.3261102693	 0.082401
H	-0.9657939281	-2.9054319783	 2.9632260194	 0.306548
43.7472	86.3363	89.5791	214.6196	237.697	264.0863	281.1401	301.5165	376.9061	471.0656	612.5493	631.9273	675.7223	691.6581	712.9334	750.9503	770.6488	805.6027	879.4207	897.1338	914.103	1032.9175	1043.3899	1077.6802	1123.602	1129.855	1151.1529	1240.3571	1253.1633	1304.1673	1317.7574	1330.3218	1343.7781	1404.9563	1412.0892	1415.6858	1479.1993	1493.5273	1501.2349	1510.0573	1528.7456	1557.543	1606.4795	3030.2173	3036.1408	3048.9198	3069.1018	3090.0059	3105.4188	3107.8406	3238.0534	3250.6171	3270.5225	3851.3021
CCCN1C=CC=C1O	CCCn1cccc1O	
InChI=1S/C7H11NO/c1-2-5-8-6-3-4-7(8)9/h3-4,6,9H,2,5H2,1H3	InChI=1S/C7H11NO/c1-2-5-8-6-3-4-7(8)9/h3-4,6,9H,2,5H2,1H3
