19
gdb 43736	4.24525	1.05635	1.01026	3.4611	75.65	-0.233	-0.0183	0.2146	1226.5336	0.1589	-423.045061	-423.036924	-423.03598	-423.078471	31.198	
O	-0.2400959922	 0.4841026129	-1.1457237337	-0.294016
C	-0.1284939913	 1.3457535285	-0.3225958718	 0.407436
C	-1.1270236635	 2.1911993972	 0.479141025	-0.405044
C	 0.0625590017	 3.1515676739	 0.8331681752	 0.435866
C	 1.0674911062	 2.1069346315	 0.2661466639	-0.414876
C	 0.0300510121	 4.5298260646	 0.1647057772	-0.281874
C	-0.6245449242	 5.3911470779	 1.2524793517	-0.235151
C	-0.0223415504	 4.7780725988	 2.5223407566	-0.070323
O	 0.2199500608	 3.400274185	 2.2229511597	-0.310539
H	-1.9898301452	 2.5909231252	-0.0605702239	 0.120518
H	-1.4734915873	 1.6578364175	 1.3705157994	 0.138551
H	 1.5424577124	 1.5422043207	 1.0753883449	 0.142879
H	 1.8357036663	 2.4478714356	-0.432872574	 0.12384
H	 1.0534888598	 4.8723828261	-0.026996614	 0.108621
H	-0.5087122965	 4.5310666674	-0.7857237382	 0.110034
H	-0.410906303	 6.4578021304	 1.1535712029	 0.10723
H	-1.7119337281	 5.2608511497	 1.2418404603	 0.111739
H	 0.9280058109	 5.2641047822	 2.7863294125	 0.098279
H	-0.6867967684	 4.840369525	 3.3905333362	 0.10683
56.5233	64.0892	191.4613	270.7608	352.1655	372.6454	395.2878	446.1324	522.1426	604.4445	669.2326	707.553	744.9641	831.4151	869.2822	899.448	920.8397	928.5123	944.2528	990.2358	1008.4361	1029.9739	1085.0693	1119.1294	1126.4064	1164.1777	1189.0257	1193.7447	1212.8191	1238.2737	1259.599	1291.95	1337.2221	1341.0284	1393.9366	1415.5179	1436.455	1486.8716	1497.1925	1532.0565	1895.1843	2999.0631	3041.5125	3049.4142	3051.5158	3057.5172	3067.9426	3104.1135	3112.4842	3114.5192	3115.458
O=C1CC2(C1)CCCO2	O=C1CC2(C1)CCCO2	
InChI=1S/C7H10O2/c8-6-4-7(5-6)2-1-3-9-7/h1-5H2	InChI=1S/C7H10O2/c8-6-4-7(5-6)2-1-3-9-7/h1-5H2
