16
gdb 94966	3.56178	1.37562	1.18713	3.3746	63.64	-0.2351	0.0017	0.2368	1024.7563	0.125786	-475.038547	-475.03091	-475.029965	-475.070916	28.599	
O	-0.0370037803	 1.348797614	 0.1304249862	-0.43659
C	-0.0603310376	-0.0562177426	-0.0471533521	 0.125226
C	 0.5914529538	-0.8383371476	 1.1096298634	-0.230941
N	-0.429022252	-0.7943197116	 2.1656218377	-0.290676
C	-1.7201382756	-0.9570399648	 1.5173285193	-0.184978
C	-1.5308907317	-0.4528603197	 0.0711629607	 0.115492
O	-1.7885396815	-1.7972622674	-0.4498785454	-0.264508
C	-1.9881216438	-2.3106257771	 0.8137909846	 0.427669
O	-2.2317945978	-3.4357663621	 1.1077195256	-0.322549
H	 0.8607855326	 1.6148183203	 0.3499561636	 0.290593
H	 0.3575728603	-0.3506110781	-1.0189721557	 0.088314
H	 0.8311304389	-1.8555548005	 0.7595700553	 0.112553
H	 1.5240146349	-0.377206818	 1.4532021791	 0.103025
H	-0.2725352445	-1.476211241	 2.8993201801	 0.238501
H	-2.5458703507	-0.5779561465	 2.1214915403	 0.114993
H	-2.2192890651	 0.2785014427	-0.3481326126	 0.113875
95.7129	129.4912	187.0702	258.4957	267.7759	366.2296	450.6598	479.078	587.9227	722.8269	728.5724	790.6976	842.5528	867.8371	879.9334	956.705	965.4815	992.8459	1006.663	1044.5899	1106.0119	1123.7063	1138.7847	1190.5455	1205.3796	1226.3816	1287.973	1300.3284	1305.9209	1344.6994	1376.644	1418.8526	1440.6883	1508.5362	1933.5276	2972.7198	3023.6512	3060.5608	3103.5999	3144.4093	3547.746	3831.7846
OC1CNC2C1OC2=O	O[C@H]1CN[C@H]2[C@@H]1OC2=O	
InChI=1S/C5H7NO3/c7-2-1-6-3-4(2)9-5(3)8/h2-4,6-7H,1H2	InChI=1S/C5H7NO3/c7-2-1-6-3-4(2)9-5(3)8/h2-4,6-7H,1H2/t2-,3-,4+/m0/s1
