18
gdb 116550	2.01685	1.04727	0.71966	3.3243	85.18	-0.2366	-0.0853	0.1513	1567.7295	0.146324	-435.281284	-435.271284	-435.27034	-435.317767	34.509	
C	 0.4623493864	 1.4577976512	 0.0443872758	-0.359334
C	 0.3064868587	-0.0638378442	-0.0549494483	-0.153679
N	-1.0954540912	-0.4242158167	 0.0045514759	-0.272797
C	-1.7229390422	-1.0362373841	-0.923567416	 0.275821
N	-3.0630445985	-1.3470398903	-0.8096362147	-0.308038
C	-3.8677375896	-1.0568689465	 0.2709155669	 0.098741
N	-5.0956441905	-1.392058384	 0.2647651763	-0.462899
C	-1.1715163691	-1.5109361892	-2.2490059529	 0.110521
O	-1.8571645692	-2.0879402467	-3.0587841362	-0.255975
H	 1.5202209739	 1.7307756806	 0.1053084892	 0.116367
H	 0.0288765283	 1.951074548	-0.8311695202	 0.119518
H	-0.0502413221	 1.8350099176	 0.9332697174	 0.132109
H	 0.8461461603	-0.4293858664	-0.9387301759	 0.092959
H	 0.7912469566	-0.5242570991	 0.8159533326	 0.118661
H	-3.4783817838	-1.8316415794	-1.5951299263	 0.274761
H	-3.3270819016	-0.5373137163	 1.0644327962	 0.129206
H	-5.5398999692	-1.1044883615	 1.134598563	 0.228652
H	-0.1084045072	-1.299397493	-2.4459695127	 0.115406
25.9387	79.6183	137.6386	155.4624	163.4582	175.8497	217.0455	272.035	359.493	411.0731	464.7664	547.3745	599.3961	660.7136	695.7067	806.956	824.3917	843.8451	973.429	1013.0924	1076.9541	1087.8801	1112.5788	1130.5672	1163.8821	1242.1083	1304.3887	1314.4285	1365.4702	1398.0954	1402.9546	1412.9548	1487.4692	1494.3725	1511.4752	1521.5955	1705.7672	1727.9135	1797.6296	2989.4825	3018.0379	3039.2356	3042.5453	3113.1747	3119.279	3124.6249	3507.6746	3589.1756
CCN=C(NC=N)C=O	CCN=C(NC=N)C=O	
InChI=1S/C5H9N3O/c1-2-7-5(3-9)8-4-6/h3-4H,2H2,1H3,(H2,6,7,8)	InChI=1S/C5H9N3O/c1-2-7-5(3-9)8-4-6/h3-4H,2H2,1H3,(H2,6,7,8)
