20
gdb 96970	4.01756	1.09995	1.06191	2.6758	82.91	-0.2388	0.0377	0.2765	1250.8753	0.17169	-403.13956	-403.131078	-403.130134	-403.172798	32.278	
C	 0.2149802399	 1.3177327351	 0.2634758603	-0.337276
N	 0.25954149	-0.135781277	 0.3335863129	-0.37413
C	 0.6149988297	-0.7882268779	-0.677784944	 0.485374
O	 0.9911547268	-0.2843083282	-1.9198667987	-0.277285
C	 1.2902183263	-1.5100677988	-2.6488993166	 0.085666
C	 0.0880449473	-2.4060674832	-2.2826618817	-0.251788
C	 0.7520462748	-2.2764711577	-0.8655705269	-0.162637
C	 2.145772747	-2.2929867003	-1.6146445533	 0.034375
C	 2.7351484203	-3.6413392657	-2.0017909618	-0.440581
H	 0.4793270976	 1.7318461533	-0.7160365221	 0.123576
H	-0.7927775594	 1.656428187	 0.5292061987	 0.122673
H	 0.8956701198	 1.732884306	 1.0156858183	 0.122808
H	 1.6046428627	-1.2617173874	-3.6611091782	 0.087282
H	-0.9064777347	-1.9775034667	-2.4210102506	 0.115009
H	 0.1348291416	-3.4123608047	-2.6954904209	 0.112493
H	 0.5094578182	-2.9093348553	-0.0162264912	 0.091771
H	 2.9154389813	-1.6726229686	-1.14468683	 0.088492
H	 2.010258744	-4.3178853132	-2.4613704813	 0.121793
H	 3.560469461	-3.5081888471	-2.7098679444	 0.123933
H	 3.1403395359	-4.1433155797	-1.1171586186	 0.128453
75.8895	104.9754	186.1527	202.191	268.3182	305.3672	316.4976	434.14	491.8735	557.2728	652.1486	717.0746	792.199	802.4605	843.9531	857.9231	894.9719	943.9633	998.794	1014.8165	1034.8604	1053.1835	1068.3472	1099.3222	1117.8565	1124.1188	1135.5743	1148.0679	1182.8617	1217.8956	1251.1758	1261.5403	1274.0978	1317.492	1390.2503	1416.9455	1438.476	1490.979	1495.4318	1496.2134	1497.1682	1512.3099	1832.9535	3016.8323	3038.0933	3059.2906	3076.7237	3087.3313	3088.1675	3096.9653	3119.9404	3139.2844	3158.8298	3163.5734
CN=C1OC2CC1C2C	CN=C1O[C@@H]2C[C@H]1[C@H]2C	
InChI=1S/C7H11NO/c1-4-5-3-6(4)9-7(5)8-2/h4-6H,3H2,1-2H3	InChI=1S/C7H11NO/c1-4-5-3-6(4)9-7(5)8-2/h4-6H,3H2,1-2H3/t4-,5+,6-/m1/s1
