21
gdb 106776	2.03018	1.56119	1.08806	1.6633	79.24	-0.2402	0.0702	0.3103	1223.4176	0.179737	-424.20289	-424.192972	-424.192028	-424.237494	36.964	
C	 0.0358731407	 1.406947037	-0.5037685552	-0.380048
C	 0.046576578	 0.0452701375	 0.2059847136	-0.310858
C	-1.3212503918	-0.545919644	 0.3304459512	 0.3686
O	-2.0079284906	-0.9974806878	-0.850377955	-0.338421
C	-1.8611672764	-1.920043848	 0.2507643576	 0.333723
C	-1.2298549826	-3.2454454076	-0.0242765548	-0.501617
C	-3.0048462291	-1.5840415552	 1.2219130271	-0.324836
C	-2.4438599753	-0.1174636038	 1.2961043485	 0.057905
O	-1.8944395734	 0.2430404575	 2.545790002	-0.439242
H	 1.0496171314	 1.8087903786	-0.5901753556	 0.111215
H	-0.3835508228	 1.3148435953	-1.5098689338	 0.13127
H	-0.5663486381	 2.1345573027	 0.0495897361	 0.123185
H	 0.6869444543	-0.6561122009	-0.340814403	 0.102746
H	 0.4630230971	 0.1500848551	 1.214038725	 0.120453
H	-0.3407019985	-3.1263181613	-0.6492135363	 0.132322
H	-0.940895807	-3.7383282097	 0.9096027592	 0.124525
H	-1.9278393232	-3.9057137944	-0.5519659859	 0.129493
H	-4.0149151752	-1.7242207542	 0.8276775145	 0.098815
H	-2.9019625366	-2.075155418	 2.1935141538	 0.101141
H	-3.1072863265	 0.6619438828	 0.8989737495	 0.072249
H	-2.6179557944	 0.3932761486	 3.1621144114	 0.28738
66.2909	119.9987	146.4589	185.5738	196.8423	243.5208	263.1525	274.7735	333.2298	433.8325	448.4442	494.1683	521.4912	604.1294	705.5257	731.51	785.253	833.1917	884.7079	933.1165	969.5875	982.2767	1001.3397	1051.0252	1092.5102	1118.7119	1136.5878	1173.0796	1196.1262	1210.0556	1235.0549	1252.4667	1306.4461	1320.8707	1359.645	1404.4043	1407.2767	1414.933	1450.6694	1469.2446	1476.6642	1490.3632	1499.2039	1504.65	1527.1026	3015.4569	3032.2875	3038.4029	3040.5927	3055.046	3078.1336	3094.4365	3110.0086	3117.3738	3118.125	3119.5377	3820.5437
CCC12OC1(C)CC2O	CC[C@@]12O[C@]1(C)C[C@H]2O	
InChI=1S/C7H12O2/c1-3-7-5(8)4-6(7,2)9-7/h5,8H,3-4H2,1-2H3	InChI=1S/C7H12O2/c1-3-7-5(8)4-6(7,2)9-7/h5,8H,3-4H2,1-2H3/t5-,6-,7+/m1/s1
