14
gdb 124048	3.78167	1.69363	1.18601	1.7226	70.96	-0.2143	-0.0301	0.1842	954.8324	0.10486	-432.872345	-432.865848	-432.864904	-432.903347	24.974	
C	 0.0402217341	 1.4892186239	 0.123104403	-0.135187
O	 1.3271165184	 2.1175326249	-0.0697067918	-0.270608
C	 2.1478199092	 1.4520586998	-0.8956712573	 0.373121
N	 3.2196526021	 1.970953698	-1.4683370466	-0.305816
N	 3.724031492	 0.9039990782	-2.1145771922	-0.09916
N	 3.0630052846	-0.2423780536	-2.0031919771	-0.297791
C	 2.038783712	 0.0828677399	-1.2136670203	 0.220374
C	 0.9651973398	-0.7017412392	-0.6514034285	-0.152768
C	 0.0307882493	-0.0200729529	 0.023589047	-0.112139
H	-0.288311336	 1.8144032197	 1.1142864586	 0.133525
H	-0.6651399044	 1.9177484716	-0.6085315829	 0.123829
H	 4.5517731301	 0.9841242189	-2.6799131432	 0.294285
H	 0.9485326492	-1.7804441294	-0.7521098863	 0.116868
H	-0.8085599303	-0.5198881798	 0.4959702277	 0.111465
108.1568	190.7561	335.0779	385.4953	433.5426	466.6595	526.1432	617.4153	688.4392	702.0805	736.1349	805.3564	859.1386	913.6161	977.6018	986.3806	1031.0146	1045.0969	1171.1054	1179.8909	1205.2748	1254.6174	1268.6294	1369.0429	1391.2434	1424.0291	1469.4973	1497.5444	1566.4382	1606.6925	1689.0403	2962.4551	3081.3258	3183.4402	3210.213	3689.6582
C1OC2=NNN=C2C=C1	C1Oc2n[nH]nc2C=C1	
InChI=1S/C5H5N3O/c1-2-4-5(9-3-1)7-8-6-4/h1-2H,3H2,(H,6,7,8)	InChI=1S/C5H5N3O/c1-2-4-5(9-3-1)7-8-6-4/h1-2H,3H2,(H,6,7,8)
