16
gdb 31599	2.73065	0.99267	0.73081	0.9693	76.63	-0.2333	-0.0645	0.1688	1500.6274	0.120566	-475.065018	-475.054449	-475.053505	-475.10196	36.079	
N	-0.0022378429	 1.585002957	-1.2026383398	-0.717303
H	 0.49564508	 0.9277059068	-1.7971100899	 0.23718
H	-0.0739990256	 2.4465162264	-1.7373896343	 0.237141
H	-0.9500308575	 1.225747361	-1.1146543081	 0.258236
C	-0.8087958138	 1.1241612915	 2.0739704658	-0.440598
C	-2.0402601568	 0.6598133797	 1.8714138831	 0.422262
C	-3.0696831714	 0.2214908306	 2.7970628397	-0.355891
C	-4.1322043136	-0.1533487179	 2.0617737291	 0.276573
O	-5.3305744152	-0.630033116	 2.409081226	-0.413578
C	-3.8048724368	 0.0379458985	 0.6343801086	 0.344373
O	-4.5099998082	-0.1897120602	-0.3138720805	-0.370492
O	-2.5340764082	 0.5296986471	 0.5655108655	-0.234279
H	-0.4379836394	 1.2204168019	 3.0864167013	 0.123505
H	-0.1765525755	 1.4057103996	 1.2381928475	 0.17661
H	-2.9554496885	 0.2162843674	 3.8699822738	 0.139837
H	-5.8169836866	-0.7790842934	 1.5823496119	 0.316424
36.7125	60.975	111.0077	112.6239	150.5237	183.8827	217.0877	266.6286	280.0422	344.6107	446.9112	536.8925	578.4506	616.8415	647.14	676.9252	749.7985	784.9153	833.7619	862.3365	935.5886	937.298	984.0353	1108.9691	1125.8287	1215.5893	1260.0528	1306.7387	1421.9357	1451.6473	1676.3411	1691.2986	1721.4807	1725.8419	1855.2947	3150.9221	3257.0036	3260.4626	3462.9354	3581.3034	3582.8821	3711.0348
[NH3+]CC1=CC(O)=C([O-])O1	N.C=C1C=C(O)C(=O)O1	
InChI=1S/C5H7NO3/c6-2-3-1-4(7)5(8)9-3/h1,7-8H,2,6H2	InChI=1S/C5H4O3.H3N/c1-3-2-4(6)5(7)8-3;/h2,6H,1H2;1H3
