20
gdb 103228	3.6392	1.22605	1.12758	2.2858	78.29	-0.2226	0.0563	0.2789	1153.8014	0.17078	-403.044341	-403.035928	-403.034984	-403.07709	33.35	
C	-0.1814938674	 1.6611239141	-0.1403240586	-0.503263
C	-0.081979198	 0.1384783836	-0.1664270404	 0.303625
C	-1.2722608738	-0.5133668617	 0.541653142	-0.107238
O	-1.3042015932	-0.160335565	 1.9106864199	-0.423663
C	 0.5339799949	-0.7797353916	-1.1603603893	-0.09758
C	 1.8755061333	-0.4178676922	-1.8202125113	-0.078207
C	 2.4146173115	 0.9232936575	-1.4195116989	-0.309957
C	 2.4072180363	-0.2100028612	-0.4214416866	-0.008502
N	 1.1149991106	-0.6608359936	 0.2340690516	-0.200126
H	-0.3439488904	 2.084902556	-1.1352628602	 0.1279
H	-1.0246048529	 1.9410189674	 0.4958257722	 0.136282
H	 0.7049791921	 2.1238655373	 0.2956938479	 0.13876
H	-2.2096392249	-0.1540633214	 0.1029234831	 0.106116
H	-1.2275010489	-1.6040044625	 0.4137048161	 0.092545
H	-0.4513766745	-0.4384446452	 2.2673270088	 0.291162
H	 0.0239479655	-1.694831368	-1.4525744586	 0.091953
H	 2.2862719996	-1.0084647943	-2.6279812091	 0.097483
H	 3.4162726026	 1.1036572783	-1.8022387315	 0.11683
H	 1.8123345756	 1.8155682942	-1.3634649885	 0.120462
H	 3.3164165719	-0.5696031015	 0.0427685314	 0.105418
96.1107	110.1116	215.6204	236.115	299.0637	343.3896	391.8236	409.8287	484.651	516.0853	645.6026	649.7299	700.5418	745.8373	787.3947	856.1356	880.051	894.7724	935.9286	967.5227	1006.8239	1012.4554	1020.7393	1058.6098	1068.6732	1073.9187	1079.1152	1094.7223	1115.481	1179.1608	1208.8225	1218.8609	1274.602	1305.4187	1339.3485	1386.8104	1411.1835	1423.1395	1430.6131	1485.312	1493.2987	1500.7519	1524.0868	3003.5514	3050.2853	3072.4835	3119.8124	3128.8481	3131.7917	3139.0239	3190.6382	3204.0143	3262.1567	3782.7059
CC1(CO)C2C3CC3N12	C[C@@]1(CO)[C@H]2[C@H]3C[C@H]3N12	
InChI=1S/C7H11NO/c1-7(3-9)6-4-2-5(4)8(6)7/h4-6,9H,2-3H2,1H3	InChI=1S/C7H11NO/c1-7(3-9)6-4-2-5(4)8(6)7/h4-6,9H,2-3H2,1H3/t4-,5+,6+,7+,8?/m0/s1
