21
gdb 42096	3.49873	1.21755	1.14372	2.4329	77.07	-0.2507	0.079	0.3297	1162.5477	0.185293	-424.233857	-424.225711	-424.224767	-424.267605	30.766	
C	-0.1311851159	 1.1983861359	-0.1682428458	-0.071453
C	 1.1981570497	 1.9777386775	 0.0110996353	-0.332328
C	 2.1981147642	 0.9055282668	 0.5039722716	 0.354119
C	 3.6511797648	 0.9896176377	-0.0193895186	-0.33231
C	 4.5154623905	 0.5810521305	 1.2024265437	-0.071456
O	 3.6102285739	 0.1668677586	 2.2211438031	-0.24826
C	 2.4259862303	 0.9174720002	 2.0276179703	-0.133922
C	 1.4665438822	-0.3919284661	 0.1102119832	-0.133938
O	 0.0964284589	-0.1153151237	 0.3328384846	-0.248226
H	-0.9693229309	 1.6255059012	 0.388799361	 0.109101
H	-0.4144425122	 1.1554948399	-1.2309712667	 0.091719
H	 1.5229703457	 2.4174562438	-0.9357515373	 0.104636
H	 1.1027195279	 2.7952219754	 0.732079541	 0.106046
H	 3.8060294552	 0.3250174037	-0.874679916	 0.106036
H	 3.8959683743	 2.0031116303	-0.3484745817	 0.104644
H	 5.1933152591	-0.2528757607	 1.0016903063	 0.1091
H	 5.1174941732	 1.4331298088	 1.5530909792	 0.09174
H	 2.5486757242	 1.9525507942	 2.3922756532	 0.076898
H	 1.6174835614	 0.4412037792	 2.5884703126	 0.120476
H	 1.6545275931	-0.6353662323	-0.950361226	 0.076894
H	 1.7514522303	-1.2509260809	 0.723404027	 0.120482
44.5342	63.0924	183.8504	242.4388	249.363	364.8094	383.5142	459.3117	638.7017	717.391	733.7631	804.2262	814.4941	829.9734	930.9683	940.5398	966.9429	972.1517	978.494	983.0925	983.537	1052.9287	1095.9386	1111.0618	1160.9438	1174.7854	1176.7849	1231.3874	1236.6264	1247.9051	1262.993	1277.4812	1279.7405	1305.2432	1325.8721	1351.8114	1364.632	1393.9958	1403.2732	1495.7039	1496.0457	1507.0325	1512.6556	1526.7324	1526.8394	2947.5562	2949.4273	2985.2392	2986.0363	3051.6099	3054.3276	3080.2473	3081.8399	3095.0042	3098.9779	3099.2225	3101.3391
C1CC2(CCOC2)CO1	C1CC2(CCOC2)CO1	
InChI=1S/C7H12O2/c1-3-8-5-7(1)2-4-9-6-7/h1-6H2	InChI=1S/C7H12O2/c1-3-8-5-7(1)2-4-9-6-7/h1-6H2
