17
gdb 51827	3.05758	1.21835	0.90865	2.3554	70.77	-0.2547	0.0119	0.2666	1231.2124	0.137779	-455.193243	-455.18504	-455.184096	-455.226758	29.969	
N	 0.6130847688	 1.2297056735	 0.6988404149	-0.561021
C	 0.3447139099	 0.0453062722	 0.3533618747	 0.411468
O	 1.2334949179	-0.9606347682	 0.1720399538	-0.239254
C	 0.5343651287	-2.2051428303	-0.0774501883	-0.097228
C	-0.8970729869	-1.9710043934	 0.4152035404	-0.242686
C	-1.0612770339	-0.4720806179	 0.1185897354	-0.022797
N	-2.0074140434	 0.2659560599	 0.919286931	-0.292852
C	-3.3449923159	 0.0826475021	 0.7820642787	 0.148294
O	-3.8523601261	-0.7883945583	 0.1043412992	-0.330073
H	 1.6156774133	 1.3662248108	 0.8294846519	 0.230985
H	 0.5741426129	-2.4154999745	-1.1524473047	 0.123375
H	 1.0688121376	-2.9934682301	 0.4554798556	 0.130612
H	-1.6411173303	-2.5860331334	-0.0891155742	 0.142845
H	-0.9694465623	-2.1414992518	 1.4937103886	 0.121826
H	-1.3034849373	-0.3536433473	-0.9483095566	 0.126275
H	-1.6435789901	 1.1016850103	 1.3587151337	 0.266475
H	-3.9309493827	 0.8107014965	 1.3758749559	 0.083757
59.6296	123.6079	150.1738	197.3757	248.5593	283.6601	437.2125	475.2589	546.4197	585.4337	652.777	694.0546	764.7725	866.5454	887.9302	901.3212	948.7107	991.246	1014.6648	1037.1777	1095.1187	1113.9869	1121.1726	1186.9779	1225.202	1238.2607	1266.479	1307.091	1324.325	1376.7081	1421.4243	1423.1247	1497.6807	1512.2871	1523.3711	1777.7988	1797.4908	2949.4535	2996.9435	3043.189	3070.4151	3117.9537	3152.401	3490.2369	3582.5684
N=C1OCCC1NC=O	[NH][C]1OCC[C@H]1NC=O	
InChI=1S/C5H8N2O2/c6-5-4(7-3-8)1-2-9-5/h3-4,6H,1-2H2,(H,7,8)	InChI=1S/C5H8N2O2/c6-5-4(7-3-8)1-2-9-5/h3-4,6H,1-2H2,(H,7,8)/t4-/m1/s1
