14
gdb 128037	4.2365	0.99567	0.91194	4.643	67.37	-0.2678	-0.0371	0.2307	1274.522	0.099214	-469.965217	-469.957035	-469.956091	-469.999278	28.3	
C	 0.3978363957	 1.2911646381	-0.7523998299	-0.318783
N	 0.6049132108	-0.0883019125	-1.1476510591	-0.189727
C	-0.0781902762	-0.9750784405	-0.5957255956	 0.101345
O	 0.0336325341	-2.3144172235	-0.9075070532	-0.257556
C	 1.018655301	-2.7084234514	-1.7333293515	 0.519871
C	 0.9568118493	-3.3599825709	-2.9257288333	-0.219678
N	 2.2530478524	-3.6360450272	-3.2727919725	-0.100546
N	 3.0593320997	-3.2137443579	-2.4076768313	-0.002814
O	 2.2795320874	-2.5888300113	-1.3524961609	-0.205588
H	 0.124120947	 1.8790996419	-1.6342517504	 0.142735
H	-0.3792604912	 1.4228431385	 0.0150741896	 0.109758
H	 1.3395388413	 1.6996471965	-0.3721316537	 0.146483
H	-0.8508014723	-0.8627270338	 0.1685450362	 0.125742
H	 0.111682971	-3.6359102761	-3.5301068042	 0.148759
36.9466	99.8172	126.9658	214.0925	276.6435	285.0389	341.7259	406.2691	608.2904	650.1019	674.956	696.6242	779.8845	819.7915	969.1158	979.8402	1037.2521	1062.9437	1123.1418	1130.7799	1141.7407	1181.2526	1284.0721	1364.0464	1391.528	1446.5147	1455.6995	1480.7148	1502.5969	1622.5102	1777.9526	2991.7974	3079.3259	3099.0739	3107.7682	3303.258
CN=COC1=CN=NO1	CN=COc1cnno1	
InChI=1S/C4H5N3O2/c1-5-3-8-4-2-6-7-9-4/h2-3H,1H3	InChI=1S/C4H5N3O2/c1-5-3-8-4-2-6-7-9-4/h2-3H,1H3
