19
gdb 81297	2.75672	1.60592	1.30405	3.5857	77.27	-0.2212	0.0289	0.25	1042.8626	0.161379	-419.186987	-419.179266	-419.178322	-419.218944	30.411	
C	-0.1768550456	 1.4075338297	 0.03248913	-0.328902
N	 0.0460156591	-0.0296998018	-0.0382426563	-0.107754
C	 0.904447966	-0.482191606	-1.1856191513	-0.013884
C	 2.1771500356	-0.32262395	-0.3206081331	-0.248721
C	 1.1696757485	-0.5232902249	 0.8417886989	-0.076673
C	 0.9365397438	-1.9993942676	 1.0256686069	 0.45548
N	 0.9700269526	-2.5610207332	 2.1572973525	-0.543597
O	 0.7296338197	-2.6889338656	-0.1358716253	-0.270383
C	 0.5823270823	-1.9570161527	-1.3698845694	-0.067929
H	 0.7311010291	 2.0283180204	-0.0655241219	 0.094742
H	-0.871454288	 1.6989151382	-0.7620809305	 0.1229
H	-0.6470855087	 1.647385595	 0.9911091375	 0.130996
H	 0.7993814694	 0.0719888605	-2.1225230901	 0.077872
H	 2.9893362106	-1.044390468	-0.4384776181	 0.11398
H	 2.5789529509	 0.6904840677	-0.3481895467	 0.115327
H	 1.3050110545	-0.0257235944	 1.8007667825	 0.09719
H	 0.7981380422	-3.5642947361	 2.0589984876	 0.21813
H	-0.4538985682	-2.0737606963	-1.7048227444	 0.120166
H	 1.252075156	-2.4273346147	-2.0984534388	 0.11106
124.467	180.052	210.1986	247.7353	295.2797	372.1888	426.626	442.2526	522.6866	641.8621	692.0611	783.812	793.8144	859.5332	879.1606	890.7231	919.1374	946.7337	966.0007	1014.3697	1063.9792	1072.6972	1092.4994	1141.3651	1160.6932	1175.0824	1177.9683	1208.443	1244.3374	1253.3178	1287.5761	1315.1437	1340.3028	1343.9251	1427.083	1451.514	1483.7131	1500.3499	1501.8638	1505.2898	1767.358	2949.7244	3035.9676	3062.9451	3069.5035	3078.656	3083.9007	3104.4018	3132.397	3138.029	3458.5375
CN1C2CC1C(=N)OC2	CN1[C@H]2C[C@@H]1[C]([NH])OC2	
InChI=1S/C6H10N2O/c1-8-4-2-5(8)6(7)9-3-4/h4-5,7H,2-3H2,1H3	InChI=1S/C6H10N2O/c1-8-4-2-5(8)6(7)9-3-4/h4-5,7H,2-3H2,1H3/t4-,5+/m0/s1
