23
gdb 64357	1.82624	1.79631	1.45181	1.81	80.34	-0.24	0.0607	0.3007	1101.8503	0.204109	-425.437981	-425.427999	-425.427054	-425.471654	38.917	
C	 0.3307402016	 1.4861178131	-0.2668635217	-0.440201
C	-0.0096201855	 0.010834015	 0.0120447743	 0.241886
C	-1.526452453	-0.1615072973	 0.1332838509	-0.448572
C	 0.6018136317	-0.87445434	-1.0902500947	-0.0897
O	 1.9918841517	-0.9762377526	-0.7874277119	-0.271685
C	 2.1746682436	-0.8021392648	 0.6112293911	-0.095831
C	 0.7862881108	-0.5432769384	 1.236019789	 0.342338
C	 0.8334969658	 0.3382837707	 2.4822253477	-0.466834
O	 0.1638046235	-1.7943923738	 1.5595000849	-0.477066
H	 1.405567293	 1.6439864426	-0.3938703591	 0.125512
H	-0.1595600144	 1.8066724028	-1.1919637475	 0.11434
H	-0.0221154522	 2.1418145628	 0.5345084762	 0.113072
H	-2.0170268462	 0.1465047329	-0.7967977107	 0.107123
H	-1.7950369568	-1.1973171214	 0.3427801557	 0.137951
H	-1.9319629834	 0.4637569592	 0.9361608544	 0.109777
H	 0.1329641084	-1.8679066085	-1.0915264235	 0.096643
H	 0.5063719453	-0.4376587011	-2.0897558607	 0.095401
H	 2.6259341406	-1.7034722876	 1.0510539634	 0.081184
H	 2.8647224785	 0.0350949673	 0.7830227769	 0.091833
H	 1.2972250764	 1.3081983155	 2.288177648	 0.122814
H	-0.1748701791	 0.5009178999	 2.8733260472	 0.128097
H	 1.4187017971	-0.153802477	 3.2690046502	 0.10574
H	 0.7042598226	-2.2268051992	 2.2285905799	 0.27618
107.8972	156.2874	210.0953	221.9301	245.5511	273.8166	277.2257	296.8242	349.4021	359.6117	365.0703	390.904	474.7356	500.5306	586.6625	632.4633	725.588	848.5358	891.3267	938.1451	951.0908	956.5537	958.8805	980.8569	1000.5446	1038.808	1088.0257	1110.4474	1160.6649	1195.3282	1213.4975	1217.4903	1243.3927	1263.5262	1291.6028	1349.5621	1369.8848	1396.4517	1404.9859	1407.6305	1429.7148	1482.7229	1488.0844	1493.1249	1500.1013	1506.7044	1512.3764	1516.9189	1523.8995	2990.3936	3009.5145	3025.5877	3030.6038	3033.0219	3038.7219	3072.3203	3088.9722	3095.3244	3102.1665	3114.0388	3129.4766	3144.9675	3813.0567
CC1(C)COCC1(C)O	CC1(C)COC[C@]1(C)O	
InChI=1S/C7H14O2/c1-6(2)4-9-5-7(6,3)8/h8H,4-5H2,1-3H3	InChI=1S/C7H14O2/c1-6(2)4-9-5-7(6,3)8/h8H,4-5H2,1-3H3/t7-/m0/s1
