18
gdb 25708	4.79734	0.77627	0.67369	1.7877	86.25	-0.2004	0.05	0.2504	1650.9235	0.147858	-364.826841	-364.817515	-364.816571	-364.86326	33.04	
C	 0.2507278174	 1.4011889774	 0.7565579592	-0.497566
C	 0.0899443435	 0.0474837535	 0.2432356834	 0.075099
C	-0.0321142404	-1.0707765911	-0.1861923007	 0.064747
C	-0.1800174805	-2.4278050597	-0.7074209787	-0.484949
C	-1.4848493258	-3.0961998599	-0.3460235014	 0.281106
C	-2.5102862481	-2.5657054998	 0.4011493456	-0.156624
N	-3.5045731257	-3.5086468556	 0.4862987198	-0.246637
C	-3.1325134223	-4.638134764	-0.1958547671	-0.075567
C	-1.8835843901	-4.413442369	-0.7238511704	-0.243669
H	 1.2162636212	 1.8263856794	 0.4601840472	 0.146068
H	-0.5319000824	 2.068976418	 0.3791261281	 0.143726
H	 0.2042520819	 1.4233276561	 1.8512019015	 0.143724
H	-0.0696640095	-2.4043759951	-1.8012538963	 0.132806
H	 0.6589949898	-3.041614939	-0.3489649524	 0.132805
H	-2.6021376569	-1.6005483028	 0.8706192497	 0.124452
H	-4.3733095599	-3.3873940538	 0.9753261482	 0.258865
H	-3.7813179992	-5.4977385028	-0.2474643914	 0.115576
H	-1.3126244531	-5.1124436619	-1.3169256944	 0.086038
21.9811	32.6322	75.7001	197.8818	234.0474	240.1442	330.7141	375.9943	449.2964	462.5135	634.8758	639.2608	689.8404	708.1432	770.5398	777.2172	821.9279	905.8631	954.8747	971.9955	1053.757	1054.6493	1078.2335	1092.0795	1159.9341	1166.1833	1224.5618	1231.7401	1286.8357	1343.8486	1415.5562	1418.7834	1465.4042	1472.6806	1479.8236	1480.7317	1521.1358	1615.0899	2374.5512	2996.076	3012.9686	3024.1837	3082.9697	3083.7385	3237.8389	3266.852	3276.3218	3690.3761
CC#CCC1=CNC=C1	CC#CCc1c[nH]cc1	
InChI=1S/C8H9N/c1-2-3-4-8-5-6-9-7-8/h5-7,9H,4H2,1H3	InChI=1S/C8H9N/c1-2-3-4-8-5-6-9-7-8/h5-7,9H,4H2,1H3
