20
gdb 120389	3.09939	0.87761	0.75661	1.3486	76.93	-0.261	0.0269	0.2879	1534.654	0.169916	-440.285375	-440.275537	-440.274593	-440.320831	35.281	
C	-0.2501375055	 1.5720827495	 0.1785319553	-0.408254
C	-0.0789062708	 0.0630536594	 0.0579297668	-0.156184
C	 0.4819091658	-0.5820734349	-1.2426590677	 0.114185
C	 0.97587422	 0.2922289714	-2.3773516335	-0.219702
C	 1.7183755413	-0.5110251866	-3.4514897346	-0.067118
O	 2.1364813361	 0.2947342025	-4.5403593349	-0.417484
O	 1.5982949313	-1.150407837	-0.4652241915	-0.274678
C	 1.1522419721	-0.5527135796	 0.6948393804	 0.437152
N	 1.6417519433	-0.5416340757	 1.8490674426	-0.546301
H	 0.6475040394	 2.1128640257	-0.1319638746	 0.126093
H	-1.0915807289	 1.9239184617	-0.4262791258	 0.121417
H	-0.4477021631	 1.8335812517	 1.2216180111	 0.143889
H	-0.989199524	-0.4424768828	 0.3941346173	 0.109837
H	-0.1349431279	-1.4022206884	-1.6263250028	 0.091754
H	 0.1209147557	 0.799761811	-2.8402680461	 0.115009
H	 1.6397759688	 1.0703089382	-1.980728651	 0.097409
H	 2.5617923803	-1.0478316809	-2.9942334327	 0.111207
H	 1.0483759592	-1.2647860768	-3.8804448761	 0.112317
H	 2.8272378941	 0.8849796621	-4.223171306	 0.283193
H	 2.5094318429	-1.0790630903	 1.8920183537	 0.226256
60.0245	94.7674	112.7806	123.454	193.9565	210.2823	270.0079	295.8677	351.2439	389.1014	500.2733	521.0965	646.432	731.5787	793.6395	808.0401	865.3818	871.7194	898.936	999.0947	1019.6628	1044.7239	1070.7205	1076.2617	1079.5477	1124.3847	1157.878	1191.6922	1234.8691	1238.5172	1275.3513	1317.8684	1341.0309	1363.7719	1388.3976	1410.9039	1417.6187	1421.6043	1471.3188	1494.0047	1498.7446	1513.2057	1822.6508	3006.1634	3027.7959	3045.6977	3045.8222	3060.1175	3068.5487	3084.8843	3116.1101	3123.6618	3474.3124	3818.8216
CC1C(CCO)OC1=N	C[C@H]1[C@@H](CCO)O[C]1[NH]	
InChI=1S/C6H11NO2/c1-4-5(2-3-8)9-6(4)7/h4-5,7-8H,2-3H2,1H3	InChI=1S/C6H11NO2/c1-4-5(2-3-8)9-6(4)7/h4-5,7-8H,2-3H2,1H3/t4-,5+/m0/s1
