18
gdb 91843	3.7447	1.19299	1.09222	3.1638	77.8	-0.2189	0.0129	0.2318	1147.9536	0.149397	-398.110959	-398.102752	-398.101808	-398.143702	30.975	
C	 0.8384197381	 1.3688450466	 0.0501666594	-0.331822
N	 0.0324888184	 0.1561790284	-0.0620094291	-0.069714
C	 0.3302156685	-0.6833710868	-1.2296800665	-0.175293
C	 1.0994022107	-1.887158309	-0.7049277577	-0.089936
N	 2.2036398793	-1.5108974742	 0.1887073568	-0.35825
C	 0.8976731107	-1.9074017886	 0.7752561481	 0.215815
C	 0.0266549043	-0.6981553172	 1.1274589738	-0.233476
C	 0.7902749108	-3.1290984144	 1.518521247	 0.187165
N	 0.7063782449	-4.0997994337	 2.1432951412	-0.338421
H	 1.914597104	 1.1793573136	 0.1777658018	 0.123775
H	 0.6938582883	 1.9786589173	-0.8470586471	 0.119071
H	 0.4830049443	 1.9586180095	 0.9007033709	 0.120286
H	-0.593047598	-1.0374573668	-1.710120742	 0.109729
H	 0.8992236282	-0.1168541827	-1.9723274255	 0.116893
H	 1.1577177588	-2.807101354	-1.2775655	 0.113115
H	 2.8585272318	-2.2857882278	 0.2722880447	 0.251075
H	 0.4040462823	-0.1553154359	 1.9978461854	 0.122918
H	-0.9852067455	-1.0565224142	 1.3614593388	 0.11707
103.3998	134.9579	164.063	181.8137	309.4835	356.5266	395.7743	411.7972	499.218	551.6339	579.6313	662.2105	705.7826	825.0358	864.6502	889.336	938.6691	1003.9379	1026.9382	1044.349	1059.9579	1065.3382	1146.0451	1149.5706	1154.4592	1205.5374	1261.2531	1279.2393	1283.2792	1332.3927	1352.3233	1366.7927	1422.7437	1460.0641	1490.0707	1492.6307	1504.5631	1515.7104	2346.6906	2990.7703	3003.604	3011.8256	3072.8652	3085.6718	3095.1169	3105.3988	3172.5896	3501.9047
CN1CC2NC2(C1)C#N	CN1C[C@H]2N[C@]2(C1)C#N	
InChI=1S/C6H9N3/c1-9-2-5-6(3-7,4-9)8-5/h5,8H,2,4H2,1H3	InChI=1S/C6H9N3/c1-9-2-5-6(3-7,4-9)8-5/h5,8H,2,4H2,1H3/t5-,6+/m1/s1
