19
gdb 82533	2.34292	1.61509	1.34676	2.1404	75.78	-0.2237	0.0669	0.2906	1060.894	0.157104	-422.960172	-422.951421	-422.950477	-422.99304	33.923	
C	-0.0272419744	 1.5414499537	-0.0315381606	-0.420299
C	 0.0933369304	 0.0358164502	 0.0421999849	-0.11161
C	 1.3916924571	-0.7180107945	-0.1309794241	 0.014607
O	 2.4962560264	 0.0198920116	 0.4131421224	-0.314805
C	 1.9231014916	-0.0830297176	 1.7294966267	 0.404297
C	 2.7336813219	-0.4920538365	 2.9089242124	-0.338963
C	 2.1619045821	 0.9184918752	 2.8076752411	-0.345532
C	 0.6771478916	-0.7561361781	 1.2004348658	 0.211324
O	 0.0319559005	-1.7925225492	 1.845575647	-0.450304
H	 0.9009202814	 2.017734774	 0.2905563677	 0.14301
H	-0.2280378299	 1.8606440426	-1.0597500227	 0.117995
H	-0.8429011665	 1.9124795171	 0.5984751973	 0.10939
H	-0.7302585389	-0.5227855185	-0.4030816518	 0.090184
H	 1.6043185823	-1.4645876184	-0.8861228744	 0.111277
H	 2.2829315636	-1.1889551431	 3.6073546648	 0.125114
H	 3.8012008934	-0.610076526	 2.7600106521	 0.125636
H	 2.8605133479	 1.7195306551	 2.5908153911	 0.125458
H	 1.3368652026	 1.1991024887	 3.4546997817	 0.112344
H	-0.814037903	-1.4673346863	 2.1711960086	 0.290877
118.0821	168.9935	191.6536	205.1424	220.8929	272.0062	302.1929	396.9892	420.4553	532.8134	576.5143	602.9491	668.957	758.3771	774.1532	841.4904	874.9295	906.7128	934.5106	964.9195	985.583	994.2879	1003.9536	1047.6948	1066.4424	1078.8462	1116.8133	1119.8962	1173.0329	1187.2153	1242.1372	1249.3292	1310.3976	1336.0072	1398.8903	1411.9965	1447.5052	1478.1824	1493.1948	1502.2333	1511.3736	3035.1924	3091.5712	3114.1002	3127.1395	3134.1052	3135.029	3192.598	3211.6589	3229.3304	3802.0842
CC1C2OC3(CC3)C12O	C[C@H]1[C@H]2OC3(CC3)[C@@]12O	
InChI=1S/C7H10O2/c1-4-5-7(4,8)6(9-5)2-3-6/h4-5,8H,2-3H2,1H3	InChI=1S/C7H10O2/c1-4-5-7(4,8)6(9-5)2-3-6/h4-5,8H,2-3H2,1H3/t4-,5+,7+/m0/s1
