14
gdb 74257	3.31263	1.36684	1.10448	6.286	67.48	-0.2571	-0.0106	0.2465	1056.7886	0.102351	-432.864184	-432.856765	-432.85582	-432.896164	28.099	
N	 0.0448458255	 1.3404333967	 0.1561901922	-0.578313
C	 0.0000373576	-0.0142709428	 0.0141814114	 0.411992
N	-1.0868798999	-0.6871805446	-0.1172441146	-0.297285
C	-0.7538421045	-2.1211818923	-0.0648293204	-0.151328
C	-1.3307793968	-2.8527589363	-1.200873007	 0.301956
N	-1.7771073913	-3.4568845282	-2.0778849819	-0.323614
C	 0.779279234	-2.2223069206	-0.0200900889	 0.029671
O	 1.4089765249	-1.6089552903	-1.1382943942	-0.226627
C	 1.2582132192	-0.8389133945	 0.0678263824	-0.081702
H	 0.8767703224	 1.8170307135	-0.1534035448	 0.266508
H	-0.8213856221	 1.8260891739	-0.0274973359	 0.270904
H	-1.1720769829	-2.5579674721	 0.8527950114	 0.134281
H	 1.2839206874	-3.0792029764	 0.4148179923	 0.123752
H	 2.1712010466	-0.5165567859	 0.5590108779	 0.119805
103.5946	137.0133	227.5879	330.7576	363.0925	388.3009	428.4132	513.4723	554.2257	575.5214	645.1986	722.4449	815.767	831.1806	878.8436	884.2394	927.8976	987.1182	1026.7434	1044.324	1091.8328	1169.0734	1238.4058	1263.0713	1286.7122	1319.4653	1391.28	1452.3609	1627.1803	1709.5826	2367.9408	3016.082	3163.3288	3175.2543	3576.3672	3693.3283
NC1=NC(C#N)C2OC12	NC1=N[C@@H](C#N)[C@H]2O[C@@H]12	
InChI=1S/C5H5N3O/c6-1-2-3-4(9-3)5(7)8-2/h2-4H,(H2,7,8)	InChI=1S/C5H5N3O/c6-1-2-3-4(9-3)5(7)8-2/h2-4H,(H2,7,8)/t2-,3+,4+/m0/s1
