15
gdb 83077	2.80223	1.5527	1.30593	4.888	67.03	-0.2296	-0.0237	0.206	979.72	0.112608	-453.938473	-453.930757	-453.929813	-453.970533	29.254	
O	 0.2195132537	 1.128930093	-0.0253955593	-0.417301
C	-0.111096277	-0.2055785265	 0.0401871689	 0.100356
C	-0.6677100986	-0.7952476472	 1.2799629704	-0.13888
N	-1.2304094769	 0.1945821091	 2.1673324763	-0.324344
C	-2.3608895478	 0.7212445133	 1.5348882826	 0.019424
N	-2.6050936713	 0.2996280156	 0.351859057	-0.268985
C	-1.6015304365	-0.663130638	 0.0229092561	 0.188483
C	-1.9477078241	-1.793868138	-0.8550512574	 0.07321
O	-1.2138990865	-2.7368580204	-1.0531078574	-0.285223
H	 0.1115767408	 1.4981860552	 0.8618607334	 0.29708
H	 0.5170160744	-0.852927015	-0.5636525613	 0.140687
H	-0.33325095	-1.7416563252	 1.6883775482	 0.12632
H	-1.2628321413	 0.0046983067	 3.1583175384	 0.259188
H	-2.9506085667	 1.4748210056	 2.0456312425	 0.138743
H	-2.9444811222	-1.7057621781	-1.3362469584	 0.09124
120.6372	188.2274	213.1129	225.0164	249.0004	364.4106	448.6001	506.4385	518.6054	598.3476	631.7795	698.6573	740.2407	769.7206	890.2278	905.6603	933.4835	980.1249	1022.9568	1056.672	1063.0731	1111.1173	1145.8905	1221.7013	1258.7215	1309.1423	1341.9541	1362.2199	1405.3025	1417.8455	1456.9151	1651.814	1794.2028	2915.454	3171.8684	3185.3369	3204.3243	3607.4496	3743.1215
OC1C2NC=NC12C=O	O[C@H]1[C@H]2NC=N[C@@]12C=O	
InChI=1S/C5H6N2O2/c8-1-5-3(4(5)9)6-2-7-5/h1-4,9H,(H,6,7)	InChI=1S/C5H6N2O2/c8-1-5-3(4(5)9)6-2-7-5/h1-4,9H,(H,6,7)/t3-,4+,5-/m1/s1
