16
gdb 14423	4.18441	1.85954	1.66476	0.871	63.62	-0.2282	0.0676	0.2958	822.7974	0.13009	-383.664334	-383.657449	-383.656504	-383.694969	27.265	
C	 0.0487887986	 1.5835189935	-0.0110911157	-0.418419
C	 0.0719143545	 0.0632440123	 0.0016118434	 0.033572
C	 0.7645420172	-0.7184185346	-1.1191047925	-0.174164
C	 2.2538939039	-0.8222368801	-0.6570752991	-0.015046
O	 2.3734748166	-0.1163091723	 0.573589239	-0.27965
C	 1.0789313997	-0.6596474412	 0.9453173597	-0.037618
C	 1.2322572777	-1.7966092962	-0.1728085438	 0.32152
O	 1.0353716665	-3.1467125674	-0.2343318943	-0.448441
H	 1.0630574405	 1.9801646686	-0.0973848729	 0.133034
H	-0.5425148625	 1.958463219	-0.8534523192	 0.111555
H	-0.3971596673	 1.9778422406	 0.9090278572	 0.110569
H	-0.9263800755	-0.3566848133	 0.1650640539	 0.080946
H	 0.4895610165	-0.8184976558	-2.1616734332	 0.092816
H	 3.1024086807	-0.8835934063	-1.32515635	 0.111555
H	 0.9363264633	-0.7432237821	 2.0212994863	 0.082347
H	 1.7469923996	-3.5829227747	 0.2493650111	 0.295425
177.1125	204.9202	237.5743	310.29	355.9699	392.0592	539.5724	597.4129	642.4312	708.0986	743.3888	805.3706	874.1211	893.7661	916.6333	935.4689	972.4791	1024.2913	1041.1181	1045.8495	1076.1853	1107.2803	1132.3485	1144.8725	1202.5206	1222.0122	1257.5558	1312.932	1319.8635	1375.6671	1403.8513	1491.0518	1494.5824	1501.9969	3032.4131	3055.9332	3092.3463	3127.6411	3138.9136	3199.1019	3215.5104	3780.3729
CC1C2C3OC1C23O	C[C@H]1[C@H]2[C@H]3O[C@@H]1[C@@]23O	
InChI=1S/C6H8O2/c1-2-3-5-6(3,7)4(2)8-5/h2-5,7H,1H3	InChI=1S/C6H8O2/c1-2-3-5-6(3,7)4(2)8-5/h2-5,7H,1H3/t2-,3-,4-,5+,6-/m0/s1
