21
gdb 38937	2.91789	1.82901	1.56507	1.2881	80.43	-0.2341	0.0875	0.3217	951.0891	0.188067	-387.088562	-387.082104	-387.08116	-387.118975	28.232	
C	-0.0687163877	 1.5752206566	 0.0499262074	-0.241655
C	 1.4844388726	 1.4555332779	-0.0026672272	-0.075331
C	 1.751176404	 0.8373394153	 1.3848197655	-0.23431
C	 0.7452341806	-0.3629946259	 1.3144171801	-0.003489
C	 1.446104458	-1.7122575858	 1.0908475507	-0.23721
C	 2.5189110604	-1.5915366219	 0.0011120236	-0.064332
O	 2.1026801098	-0.8447334746	-1.137651888	-0.284515
C	 1.2081446953	 0.2131634335	-0.9268983581	 0.172284
C	-0.0076848822	 0.027688661	 0.0179973534	-0.060895
H	-0.4969453674	 2.0525217749	 0.9348525127	 0.091748
H	-0.507372659	 1.9988168723	-0.8566589035	 0.096841
H	 2.118392456	 2.282083808	-0.3235845859	 0.059071
H	 2.7866671752	 0.530522479	 1.5441465313	 0.09592
H	 1.4938403391	 1.5396517802	 2.1831884081	 0.092334
H	 0.087404317	-0.4076219409	 2.1865723008	 0.061245
H	 1.9240056717	-2.0713790442	 2.0097896698	 0.095392
H	 0.6991457426	-2.4620936752	 0.8024332454	 0.100102
H	 3.4300876056	-1.1420796021	 0.4203197218	 0.096065
H	 2.7986613325	-2.5803004859	-0.3766871601	 0.102125
H	 0.9110872737	 0.5412062953	-1.9256533614	 0.081474
H	-0.8623841679	-0.5904949175	-0.2603138165	 0.057134
183.8093	279.8556	353.6546	396.6789	449.9828	480.6466	550.149	657.7866	728.6476	787.2673	796.062	824.6102	850.4698	862.9072	891.552	940.7389	958.191	965.3797	979.0973	1005.7746	1030.1057	1032.2501	1068.9493	1090.3307	1104.0728	1118.9057	1164.5732	1180.136	1189.7444	1208.4509	1229.4547	1245.8801	1255.8511	1279.7509	1288.865	1322.3675	1336.6129	1340.5949	1377.2365	1406.2305	1431.3801	1486.0893	1495.3755	1513.0334	1534.3727	2999.2531	3025.3803	3053.9416	3059.7132	3062.696	3067.9979	3072.4223	3086.9735	3105.1507	3107.5621	3116.1992	3120.6356
C1C2CC3CCOC2C13	C1[C@H]2C[C@@H]3CCO[C@H]2[C@H]13	
InChI=1S/C8H12O/c1-2-9-8-6-3-5(1)7(8)4-6/h5-8H,1-4H2	InChI=1S/C8H12O/c1-2-9-8-6-3-5(1)7(8)4-6/h5-8H,1-4H2/t5-,6+,7+,8+/m0/s1
