14
gdb 60880	2.31055	1.37237	1.1598	4.0316	62.72	-0.2927	-0.0631	0.2296	1087.4332	0.09801	-473.804669	-473.795951	-473.795007	-473.83878	30.544	
O	 0.5328413537	 1.5849676756	 0.0222749501	-0.420028
C	 0.1050595144	 0.2642562805	 0.1128754294	-0.029798
C	 0.4095738733	-0.4928411389	-1.1764424725	 0.132863
O	 0.9137506935	 0.0716181692	-2.1139626458	-0.24703
C	 0.7524449017	-0.4377224332	 1.3105634839	 0.216197
C	 0.0431415336	-0.5158454959	 2.6011730949	-0.208334
O	 0.1126508972	-1.6441169556	 1.7288930373	-0.253039
C	 2.2054918699	-0.4623935393	 1.3015067992	 0.280266
N	 3.3600528195	-0.4827063373	 1.2695719826	-0.31778
H	 0.9348772904	 1.6731832621	-0.8585763328	 0.307438
H	-0.9850439117	 0.1979687657	 0.2716374836	 0.11495
H	 0.1380261352	-1.5646214629	-1.1989996735	 0.130975
H	 0.6186866697	-0.6016526519	 3.519249064	 0.152166
H	-0.9316165803	-0.0391684082	 2.6828924596	 0.141153
53.1424	93.0589	153.4998	181.5427	247.6607	286.0946	313.6895	370.2102	438.2008	491.4347	573.3601	607.7518	692.9664	774.7913	845.8612	884.2613	927.706	964.2108	1031.8539	1129.9892	1161.4107	1170.9844	1221.3624	1279.4357	1304.8613	1381.9236	1386.2058	1438.9878	1518.1443	1819.6332	2363.4719	2964.8167	2977.8723	3101.2905	3202.2701	3667.4226
OC(C=O)C1(CO1)C#N	O[C@@H](C=O)[C@]1(CO1)C#N	
InChI=1S/C5H5NO3/c6-2-5(3-9-5)4(8)1-7/h1,4,8H,3H2	InChI=1S/C5H5NO3/c6-2-5(3-9-5)4(8)1-7/h1,4,8H,3H2/t4-,5+/m0/s1
