22
gdb 6370	4.59444	0.94252	0.87496	2.3377	78.93	-0.2409	-0.0068	0.2341	1443.5308	0.197058	-350.244453	-350.234024	-350.23308	-350.280625	36.819	
C	-0.0811731802	 1.5951965145	-0.0768884506	-0.37524
C	-0.131723172	 0.0959727012	 0.2060740575	-0.274821
C	 0.7541226269	-0.3392721759	 1.3678330863	 0.37785
O	 1.320597367	 0.4657953871	 2.0732486968	-0.304441
C	 0.8984773598	-1.8439932933	 1.5726780167	-0.293047
C	 1.5255699714	-2.2576033766	 2.9111860602	 0.054979
C	 0.5790889536	-1.9710126091	 4.0851407309	-0.389069
C	 1.9415188528	-3.7336122782	 2.8825184558	-0.396289
H	 0.929761287	 1.9075424183	-0.3525095755	 0.127521
H	-0.7583583938	 1.8589854703	-0.8940570372	 0.108593
H	-0.3650896051	 2.1663854528	 0.8100857703	 0.134011
H	-1.1561322765	-0.2242340099	 0.4457726988	 0.122929
H	 0.1459656802	-0.4915645098	-0.6794647088	 0.115747
H	-0.0813880976	-2.3213626713	 1.4310428164	 0.106661
H	 1.5150974877	-2.2072436324	 0.7362890617	 0.117611
H	 2.4226597969	-1.6424287093	 3.0474772646	 0.094474
H	-0.3472653427	-2.5521987985	 3.9935719356	 0.102613
H	 1.045119246	-2.2430903161	 5.037848492	 0.110608
H	 0.3174106016	-0.9110245851	 4.131357886	 0.130549
H	 2.6538273408	-3.9353256099	 2.075012216	 0.107456
H	 2.4135525292	-4.0261956135	 3.8261168742	 0.11243
H	 1.073714237	-4.3873062154	 2.7313151826	 0.108874
40.1877	51.1212	92.7863	142.3841	194.9192	225.6991	247.442	269.293	305.0002	350.9663	413.5855	436.9319	474.1221	652.4394	733.4277	821.2652	837.667	875.0282	929.8084	954.0612	971.0264	1005.2604	1027.4285	1039.184	1123.7107	1142.3778	1164.4029	1196.6753	1244.9621	1290.5759	1310.2085	1361.1829	1369.4164	1392.0347	1400.3685	1412.9751	1420.9904	1444.82	1455.1669	1488.6556	1492.4526	1493.8113	1498.472	1505.5277	1512.8279	1802.8249	3000.5588	3014.9057	3021.253	3025.5513	3030.9333	3043.6021	3048.5785	3051.0987	3085.0283	3092.3032	3098.3385	3119.926	3121.2032	3129.5009
CCC(=O)CC(C)C	CCC(=O)CC(C)C	
InChI=1S/C7H14O/c1-4-7(8)5-6(2)3/h6H,4-5H2,1-3H3	InChI=1S/C7H14O/c1-4-7(8)5-6(2)3/h6H,4-5H2,1-3H3
