19
gdb 92544	2.24161	1.91564	1.47787	2.1843	69.24	-0.2525	0.0508	0.3034	967.6534	0.161709	-460.153564	-460.146032	-460.145088	-460.185388	30.336	
O	 0.0120682775	 1.2981311052	 0.8175122207	-0.437714
C	 0.101102142	 0.0751203479	 0.1083226614	 0.081772
C	 0.8948709793	-0.9384148079	 0.9446657284	-0.242953
C	-0.1314920996	-1.6169709144	 1.8620053231	-0.076365
C	-0.7830660719	-0.7634433733	 2.9774775687	-0.083173
O	-2.0628256032	-0.7464066331	 2.2805495677	-0.313895
C	-1.5064933285	-1.4870997736	 1.1688055329	 0.082417
C	-1.319927874	-0.5568958639	-0.0521741525	 0.100275
O	-2.3319491498	 0.4314494725	-0.0968825888	-0.449617
H	-0.8052022085	 1.7102668171	 0.5010229694	 0.28239
H	 0.5669111309	 0.242531774	-0.8739244568	 0.064454
H	 1.3485272461	-1.6868384567	 0.284768837	 0.101187
H	 1.7058635098	-0.4448598254	 1.4875754618	 0.117818
H	 0.1658669171	-2.6154140483	 2.1832250382	 0.078759
H	-0.8823029161	-1.2514834009	 3.9524952939	 0.104812
H	-0.3752370108	 0.2431879079	 3.0944268194	 0.12968
H	-2.0993927212	-2.380057537	 0.9506273707	 0.080648
H	-1.3660351768	-1.1361374142	-0.9811998006	 0.081846
H	-2.6506339823	 0.4915285942	 0.8193562657	 0.297659
99.9465	172.2557	271.2276	305.8018	332.1313	380.4769	432.9514	526.2629	533.4141	646.0771	689.258	748.5267	796.2667	845.4004	857.8252	885.7536	901.2929	938.4164	968.7153	1003.3665	1037.2486	1074.2143	1077.306	1104.3114	1135.588	1170.8752	1195.5421	1214.4928	1257.7232	1261.95	1285.6057	1309.9117	1327.1348	1332.4728	1358.1969	1374.9505	1381.0073	1416.829	1450.4227	1476.417	1509.6742	2986.3323	3042.0215	3043.8174	3047.9669	3067.1927	3098.1857	3103.4589	3116.2319	3665.217	3724.2424
OC1CC2COC2C1O	O[C@H]1C[C@H]2CO[C@H]2[C@H]1O	
InChI=1S/C6H10O3/c7-4-1-3-2-9-6(3)5(4)8/h3-8H,1-2H2	InChI=1S/C6H10O3/c7-4-1-3-2-9-6(3)5(4)8/h3-8H,1-2H2/t3-,4-,5-,6+/m0/s1
