21
gdb 37931	2.37865	2.242	1.69905	0.0674	83.15	-0.2338	0.0764	0.3102	920.4031	0.188093	-349.955818	-349.949335	-349.948391	-349.986318	28.29	
C	-0.0206254084	 1.552363253	-0.1566887304	-0.247601
C	 1.4312531769	 2.0100592581	 0.0065761931	-0.070803
C	 2.2326007516	 1.7783866158	 1.2726924565	-0.027376
C	 1.6972639246	 1.370655863	 2.6304601219	-0.224203
C	 0.47576933	 0.4299530935	 2.5974696912	-0.235005
C	 0.4128567421	-0.4912007412	 1.3870003833	-0.040888
C	-0.0285497396	 0.0375520773	 0.0423604889	-0.060452
C	 1.4033949422	-0.4248586757	 0.2362398066	-0.064655
C	 2.3154186938	 0.7800594862	 0.1442746248	-0.064857
H	-0.7113949275	 2.0714755115	 0.5196992834	 0.098462
H	-0.3491284521	 1.785575092	-1.1755604001	 0.09835
H	 1.7492770774	 2.8472101343	-0.6067071278	 0.077394
H	 3.0922718039	 2.4409279481	 1.3488047763	 0.075957
H	 2.519331825	 0.8728371931	 3.1616279643	 0.098174
H	 1.453016799	 2.262344699	 3.2199870888	 0.093505
H	 0.477799496	-0.1749426278	 3.5096220264	 0.094151
H	-0.4463153433	 1.0233786823	 2.6383842366	 0.100496
H	 0.0518199868	-1.4915112614	 1.6089917647	 0.077008
H	-0.741430733	-0.5477558177	-0.5290129681	 0.07436
H	 1.7588510735	-1.3569652887	-0.1873597821	 0.07465
H	 3.239661851	 0.6673488556	-0.4109217281	 0.073332
131.8519	251.5403	367.6125	426.251	492.199	538.1765	665.6334	683.5833	697.5279	740.4557	750.955	782.0688	808.1603	861.2765	882.4035	896.4039	933.559	951.9703	1012.9187	1018.3507	1028.2694	1035.5596	1061.817	1066.0552	1088.2604	1101.2248	1117.885	1124.2002	1188.7463	1200.5308	1210.7202	1246.7322	1273.1019	1298.6835	1312.4642	1341.916	1344.6673	1360.7621	1372.975	1389.9854	1425.2668	1447.0926	1483.5839	1493.4797	1507.5231	3012.2958	3017.4869	3029.2012	3048.4637	3062.2019	3068.3933	3120.5169	3137.3439	3151.6186	3156.7852	3165.2595	3179.3963
C1C2C3CCC4C1C4C23	C1[C@H]2[C@H]3CC[C@H]4[C@@H]1[C@H]4[C@@H]23	
InChI=1S/C9H12/c1-2-5-7-3-6-4(1)8(6)9(5)7/h4-9H,1-3H2	InChI=1S/C9H12/c1-2-5-7-3-6-4(1)8(6)9(5)7/h4-9H,1-3H2/t4-,5+,6+,7-,8-,9+
