16
gdb 9950	2.90631	1.60525	1.52604	2.8918	63.12	-0.2436	-0.0224	0.2212	925.8196	0.127384	-420.866771	-420.858014	-420.85707	-420.899771	31.584	
C	-0.1655350997	 1.3818881976	-0.0632939743	-0.405433
C	 0.1088755507	-0.1005357768	 0.0266880264	-0.094583
C	 1.4777024881	-0.6671542727	-0.1153508916	 0.017328
O	 2.5383488661	 0.2372539117	-0.2320362748	-0.417644
C	 0.8009753281	-0.68081198	 1.2702078996	 0.254087
O	 1.3258182712	 0.1794151511	 2.2279595743	-0.474078
C	 0.3408914627	-1.9837930968	 1.790948534	 0.107917
O	-0.1999250083	-2.8277184238	 1.1111124102	-0.285093
H	 0.5998681116	 1.9654932329	 0.4500779718	 0.128635
H	-0.1957579622	 1.7055012448	-1.1084128717	 0.125854
H	-1.1307924	 1.6172925382	 0.3941984247	 0.12799
H	-0.6677510245	-0.7584864236	-0.3543948928	 0.119769
H	 1.600761395	-1.6214104416	-0.6214456616	 0.118097
H	 3.3618812868	-0.2583739916	-0.1694408094	 0.303294
H	 2.120208143	 0.5722109339	 1.8382784442	 0.287365
H	 0.5493085916	-2.1348434933	 2.871879591	 0.086494
111.5512	118.1516	187.1451	198.3172	218.7563	237.959	300.4009	314.1677	468.2338	493.1031	543.3217	616.6866	670.5356	707.2706	731.2397	858.3629	990.875	1015.3336	1042.043	1066.2643	1116.0159	1137.8894	1158.9645	1220.3096	1251.7761	1274.9293	1355.4972	1373.6492	1411.3349	1432.525	1465.9854	1489.8677	1502.1367	1795.7432	2908.2871	3048.1442	3108.67	3137.1644	3140.4107	3156.1524	3726.5321	3813.624
CC1C(O)C1(O)C=O	C[C@H]1[C@@H](O)[C@]1(O)C=O	
InChI=1S/C5H8O3/c1-3-4(7)5(3,8)2-6/h2-4,7-8H,1H3	InChI=1S/C5H8O3/c1-3-4(7)5(3,8)2-6/h2-4,7-8H,1H3/t3-,4+,5-/m0/s1
