20
gdb 116227	2.24993	1.45025	0.98781	3.5832	74.49	-0.2397	0.0657	0.3053	1220.1762	0.171931	-440.247471	-440.238716	-440.237772	-440.281523	32.865	
O	-0.159953565	 1.4922489554	-0.0835743181	-0.421266
C	 0.0177449301	 0.0928446651	 0.0821201677	-0.100074
C	-1.3623042379	-0.5437259917	 0.0288581027	-0.086032
C	-2.0949024222	-0.286244345	-1.3062720484	-0.086151
O	-2.9650904754	-1.3926695935	-1.4855010897	-0.246291
C	-2.230685745	-2.5347228914	-1.077553849	-0.137066
C	-1.3946502404	-2.0782339996	 0.1184426195	 0.297058
C	-0.3176670891	-2.9154681295	 0.6994724898	-0.30014
N	-1.6134107384	-2.7756424365	 1.3937181278	-0.346054
H	 0.705416101	 1.9116435623	-0.0811910054	 0.289696
H	 0.6499285498	-0.3301295057	-0.7153146562	 0.090122
H	 0.5076185026	-0.130307427	 1.043499835	 0.084495
H	-1.9650889171	-0.1259903833	 0.8442624926	 0.091985
H	-2.6932724816	 0.6255295254	-1.308035506	 0.1225
H	-1.3648571152	-0.2248554397	-2.1321260801	 0.085304
H	-2.928817421	-3.3313696673	-0.8121062019	 0.123399
H	-1.5755785346	-2.8849556211	-1.8939078754	 0.083583
H	-0.1237288767	-3.9049548117	 0.2913902897	 0.117283
H	 0.5589626041	-2.4316627746	 1.1219092336	 0.11037
H	-1.5174332781	-2.1216087208	 2.1682959416	 0.22728
40.15	115.833	176.3226	229.5843	275.2743	289.6454	303.522	357.9726	458.5995	489.3426	509.3646	649.285	782.7319	828.5105	885.5121	911.0081	935.8047	968.5706	974.0417	1013.2341	1053.9938	1061.6949	1080.576	1094.0785	1120.0401	1131.1857	1148.8276	1211.9565	1244.5337	1254.7941	1269.1985	1276.2491	1295.0777	1312.2928	1334.0999	1350.3927	1393.8755	1413.256	1456.2388	1499.9956	1512.4497	1516.1413	1521.3191	2951.5143	2957.725	2962.2256	2990.0819	3036.9273	3101.0919	3107.7183	3122.5403	3182.0722	3480.4963	3829.8229
OCC1COCC11CN1	OC[C@H]1COC[C@]21CN2	
InChI=1S/C6H11NO2/c8-1-5-2-9-4-6(5)3-7-6/h5,7-8H,1-4H2	InChI=1S/C6H11NO2/c8-1-5-2-9-4-6(5)3-7-6/h5,7-8H,1-4H2/t5-,6-/m0/s1
