19
gdb 48209	2.55024	1.18617	0.90477	1.4931	76.03	-0.2516	-0.0455	0.2061	1306.9475	0.158891	-419.145201	-419.136052	-419.135108	-419.180341	32.632	
O	-0.2003130311	 0.0206704719	-0.5876033732	-0.245991
C	-0.0802828658	 1.0529421418	 0.0222802516	 0.123472
C	 1.2126947514	 1.8591615001	 0.0996551312	-0.127584
C	 1.4547227863	 2.6635176018	-1.1806562455	 0.008176
C	 1.2377012499	 2.0872504884	-2.5273329836	-0.256059
N	 0.3572304263	 3.1619233133	-2.0300413499	-0.321365
C	 1.192382037	 2.758458682	 1.3228296882	 0.01401
C	 1.5504522818	 2.2182488725	 2.6589877536	-0.25408
N	 2.4433150968	 3.1688168557	 1.9725242729	-0.320087
H	-0.9413205748	 1.4874513618	 0.5795225669	 0.091535
H	 2.0303175732	 1.1311252879	 0.1999159907	 0.102752
H	 2.2534619671	 3.3934863237	-1.0617494653	 0.106808
H	 1.8900350053	 2.3751033479	-3.3467434599	 0.121706
H	 0.8410527137	 1.0777507111	-2.5831776245	 0.141034
H	-0.535229475	 2.7646725585	-1.7446205394	 0.232212
H	 0.4557334431	 3.559504149	 1.2753511408	 0.10737
H	 1.0703472174	 2.6041648491	 3.5532313051	 0.12689
H	 1.8497403562	 1.1744437194	 2.7206920174	 0.116892
H	 3.230166461	 2.6692271841	 1.5631971129	 0.232309
54.5093	71.7817	81.7432	164.4121	207.9479	210.7228	312.4493	383.2498	442.0098	502.0859	569.007	773.9574	818.4743	835.312	880.0712	909.9751	946.0352	961.0188	962.3604	997.7883	1026.5908	1048.3482	1093.193	1130.0916	1133.9458	1155.7554	1162.2052	1197.3896	1200.8616	1247.6422	1256.0545	1273.4769	1288.2071	1304.9549	1314.3614	1395.3845	1422.9474	1436.1013	1512.2755	1514.4305	1820.122	2870.7716	3012.3302	3108.5567	3115.4404	3117.3826	3122.7038	3195.2685	3206.3012	3487.109	3489.8751
O=CC(C1CN1)C1CN1	O=C[C@@H]([C@H]1CN1)[C@H]1CN1	
InChI=1S/C6H10N2O/c9-3-4(5-1-7-5)6-2-8-6/h3-8H,1-2H2	InChI=1S/C6H10N2O/c9-3-4(5-1-7-5)6-2-8-6/h3-8H,1-2H2/t5-,6-/m1/s1
