14
gdb 20919	5.39954	1.41975	1.20848	1.7062	59.93	-0.2566	-0.0211	0.2355	975.378	0.108539	-412.034342	-412.027109	-412.026164	-412.066455	25.742	
C	 0.0644395259	 1.5097255354	 0.0440342482	-0.382649
C	-0.0231033367	-0.010126352	-0.0785317442	-0.132725
N	 0.7131403694	-0.5123840431	-1.2305799657	 0.153909
N	 0.1204096616	-1.0547317925	-2.2760947506	-0.127209
N	 1.0780097787	-1.3669914404	-3.1231345227	-0.305833
C	 2.2257469912	-0.982784349	-2.5242478313	 0.482549
O	 3.4341073667	-1.1320692784	-3.068128639	-0.397474
N	 2.0440558832	-0.4380592529	-1.3291812592	-0.325014
H	 1.1042949641	 1.8276758533	 0.147725098	 0.153213
H	-0.365014126	 1.9961515863	-0.8359687852	 0.138584
H	-0.4904428016	 1.8381261906	 0.9272783556	 0.12961
H	 0.3839870835	-0.4990001429	 0.81104547	 0.142083
H	-1.0508998267	-0.3473413261	-0.2235740376	 0.151414
H	 3.3075072868	-1.5514456483	-3.9286601362	 0.319543
54.9896	122.6417	213.7537	296.4267	339.2848	409.2992	433.9172	486.7568	641.7456	703.5191	774.0232	791.9589	805.0097	984.0479	1038.5624	1088.7954	1116.299	1117.3684	1200.496	1251.5984	1267.0618	1376.1574	1390.0506	1401.3774	1414.5567	1479.294	1488.5916	1489.4817	1506.8287	1631.4065	3051.8259	3071.7993	3124.233	3129.0598	3147.2576	3803.5537
CCN1N=NC(O)=N1	CCn1nnc(O)n1	
InChI=1S/C3H6N4O/c1-2-7-5-3(8)4-6-7/h2H2,1H3,(H,5,8)	InChI=1S/C3H6N4O/c1-2-7-5-3(8)4-6-7/h2H2,1H3,(H,5,8)
