18
gdb 124652	4.32716	0.99819	0.89635	2.8856	74.04	-0.23	0.0141	0.2441	1334.0434	0.148474	-435.297487	-435.288785	-435.287841	-435.331299	31.885	
C	-0.0554553866	 1.5033276881	-0.1119306696	-0.397018
C	 0.013811814	-0.0175641739	-0.0058001105	 0.153197
C	 0.6327855528	-0.4979945449	 1.2990476992	-0.394769
O	-1.3184780174	-0.5833290753	-0.0368500798	-0.269698
C	-1.904137073	-0.7178817514	-1.2240919427	 0.445037
N	-1.3533794564	-0.3800979582	-2.3839106	-0.318718
N	-2.3402733176	-0.7321263263	-3.2588762873	-0.196975
C	-3.391463059	-1.2403711284	-2.5947901394	 0.030692
N	-3.1570497956	-1.2491946826	-1.2972757627	-0.328973
H	 0.9529564766	 1.9276176315	-0.0753831029	 0.114503
H	-0.5187401168	 1.8046335249	-1.0535766406	 0.137723
H	-0.634951053	 1.9172606136	 0.7193088397	 0.121821
H	 0.5693389658	-0.4208580532	-0.8595773162	 0.10553
H	 0.055509657	-0.1329672806	 2.1541868992	 0.127587
H	 0.652745085	-1.5900965668	 1.3389547525	 0.125832
H	 1.657694597	-0.1264855974	 1.3895162207	 0.116033
H	-2.2076000338	-0.5872294549	-4.2452596933	 0.280163
H	-4.2903214887	-1.5864786842	-3.0828878262	 0.148033
70.0458	77.9868	163.6316	214.8711	251.7816	314.3088	321.0652	399.6422	453.8136	465.1775	512.1995	665.666	753.0801	777.3365	856.1592	858.0308	935.1021	948.8549	953.0544	992.2181	1041.4311	1099.2099	1145.99	1158.181	1185.9607	1205.3244	1302.021	1347.0869	1369.8982	1383.8187	1401.2561	1417.9985	1478.0989	1480.7757	1486.9011	1495.3831	1511.5109	1531.2612	1582.5708	3041.3636	3045.4884	3052.3579	3110.3093	3120.5502	3124.5965	3136.2003	3257.3319	3675.7559
CC(C)OC1=NNC=N1	CC(C)Oc1n[nH]cn1	
InChI=1S/C5H9N3O/c1-4(2)9-5-6-3-7-8-5/h3-4H,1-2H3,(H,6,7,8)	InChI=1S/C5H9N3O/c1-4(2)9-5-6-3-7-8-5/h3-4H,1-2H3,(H,6,7,8)
