23
gdb 100929	2.49096	0.89958	0.70605	3.2925	78.41	-0.2447	0.0599	0.3046	1622.0509	0.203955	-462.544585	-462.533432	-462.532488	-462.581111	40.617	
C	 0.1193436562	 1.4476617645	 0.3097123436	-0.419049
C	-0.049363633	-0.0461872796	-0.0057242198	 0.0303
C	-1.5433062744	-0.363242666	-0.1563616293	-0.077833
O	-2.169587998	-0.1682766006	 1.1040506094	-0.421712
C	 0.7318127329	-0.5470843958	-1.2529213454	-0.026253
C	 2.0732566118	 0.1750027768	-1.4905500811	-0.065462
O	 2.6553293402	-0.1272000551	-2.7418369076	-0.438261
C	 0.960489356	-2.0596076795	-1.129183254	-0.092097
O	 1.4499108075	-2.5713019544	-2.3735898529	-0.424298
H	 1.1400376268	 1.6941563925	 0.6123937902	 0.118151
H	-0.1365646778	 2.0687782708	-0.5567726053	 0.113714
H	-0.5515294452	 1.717615266	 1.1283917154	 0.132047
H	 0.2999305864	-0.6098365335	 0.8714144925	 0.079868
H	-1.9731719278	 0.3033136064	-0.9222637593	 0.088281
H	-1.690591869	-1.3960625721	-0.5055666655	 0.083403
H	-3.1197800868	-0.2535056502	 0.9858578698	 0.287101
H	 0.1199847495	-0.3725380218	-2.1498672401	 0.085295
H	 1.9263036496	 1.2578814367	-1.4797298287	 0.102751
H	 2.7594511583	-0.0629325747	-0.6556882572	 0.070774
H	 2.5496591151	-1.07890799	-2.8749332468	 0.286267
H	 1.6894284826	-2.2429258569	-0.3241153127	 0.096424
H	 0.0309337325	-2.5767348636	-0.855665597	 0.097061
H	 1.7349843468	-3.4800788997	-2.2402150283	 0.293527
47.3353	92.7772	107.3834	131.3347	220.2687	244.4108	255.9877	280.3211	299.5348	303.76	343.1219	360.672	391.3573	412.5922	475.0104	556.9071	606.802	856.4575	875.5932	915.4509	928.368	944.6036	1031.7506	1051.5526	1071.7416	1076.1673	1111.5433	1135.1523	1140.4089	1170.5792	1212.4703	1232.7265	1264.1522	1273.5834	1292.4214	1299.9865	1345.6562	1349.7855	1386.9021	1390.4725	1400.1991	1453.2783	1460.4688	1480.4734	1499.5205	1505.1756	1515.76	1520.1382	1526.2072	2922.5386	2965.2517	2979.1525	2995.486	3004.2252	3017.3019	3031.6827	3035.193	3088.1521	3106.616	3129.0629	3736.6021	3831.2389	3835.064
CC(CO)C(CO)CO	C[C@@H](CO)C(CO)CO	
InChI=1S/C6H14O3/c1-5(2-7)6(3-8)4-9/h5-9H,2-4H2,1H3	InChI=1S/C6H14O3/c1-5(2-7)6(3-8)4-9/h5-9H,2-4H2,1H3/t5-/m0/s1
