18
gdb 105964	4.53398	1.15594	1.14686	2.9208	75.26	-0.2164	0.0593	0.2757	1139.1809	0.146913	-401.8256	-401.817643	-401.816699	-401.857894	30.919	
C	 0.0043177838	 1.4803447837	-0.027865769	-0.525644
C	-0.0476607204	-0.0099657519	 0.0057544017	 0.342292
C	 0.9051168452	-1.0637928025	-0.50039461	-0.061643
C	 0.6133378937	-1.0017657078	 0.9793738227	-0.258667
C	-0.5518728536	-1.9934262407	 0.7221629222	 0.350315
C	-1.0836941617	-3.2219083796	 1.3946258696	-0.200508
O	-1.9337183142	-3.9179958898	 0.5062197378	-0.416696
C	-1.1930135313	-1.0395169525	-0.2195500447	-0.171997
N	-0.2192880308	-2.0660741038	-0.7511928981	-0.238153
H	 1.0201994332	 1.8346539585	 0.1781828749	 0.126262
H	-0.291175476	 1.8694549276	-1.0091258987	 0.128269
H	-0.6598537839	 1.9229394243	 0.7233525368	 0.126824
H	 1.8252249013	-1.010478526	-1.069831254	 0.09992
H	 1.2519013745	-0.8034536281	 1.8287838463	 0.096936
H	-0.2393795118	-3.8472970168	 1.7327788304	 0.091985
H	-1.6766082985	-2.964580161	 2.2800665567	 0.112402
H	-1.4674923662	-3.9326672762	-0.3419611475	 0.296889
H	-2.2084245532	-0.9627359373	-0.590773327	 0.101213
103.0687	157.1563	200.8246	214.6071	274.4415	315.3517	412.6176	496.2384	592.0802	658.5136	669.3371	756.4986	772.2436	825.2625	841.0676	865.3069	894.6597	935.1845	951.6766	988.1798	1014.7442	1035.442	1053.8526	1077.8747	1103.102	1119.1885	1140.6829	1181.3826	1222.4687	1232.0623	1278.735	1371.0444	1405.7478	1411.7237	1442.0531	1457.4313	1481.1913	1498.7929	1510.0289	2955.7727	3021.7737	3055.4795	3082.0647	3093.5643	3181.7048	3182.1824	3215.203	3737.6275
CC12C3C1C1(CO)C2N31	C[C@@]12[C@H]3[C@@H]1[C@@]1(CO)[C@@H]2N31	
InChI=1S/C7H9NO/c1-6-3-4(6)8-5(6)7(3,8)2-9/h3-5,9H,2H2,1H3	InChI=1S/C7H9NO/c1-6-3-4(6)8-5(6)7(3,8)2-9/h3-5,9H,2H2,1H3/t3-,4+,5+,6-,7-,8?/m0/s1
