16
gdb 54746	2.86208	1.41984	1.19124	1.7575	68.97	-0.25	-0.0219	0.2281	1047.9582	0.12391	-437.906191	-437.897929	-437.896985	-437.940056	30.738	
N	 0.2626867759	 0.718389082	 0.7774179629	-0.515936
C	-0.0300036685	-0.0369731189	-0.3169160538	 0.368244
O	 0.603505734	 0.0158859317	-1.3520454939	-0.36321
C	-1.2387464487	-0.9475782429	-0.1906385154	-0.112764
C	-1.1338634842	-2.4135375627	 0.0337388977	-0.0501
C	 0.0260870193	-2.7394349934	 0.9876589747	-0.363196
C	-0.7029470264	-1.8756359302	 2.0489444654	 0.416352
O	-0.5382262185	-1.7036944677	 3.2243556333	-0.325415
C	-1.8149286807	-1.508849236	 1.1053275707	-0.236134
H	 1.0714355722	 1.3174239793	 0.7379082961	 0.265869
H	-0.2501425893	 0.6502884894	 1.6390756188	 0.276908
H	-2.0098551311	-0.6712857841	-0.9054228074	 0.133039
H	-1.6300198561	-3.1309545849	-0.6053833759	 0.114596
H	 0.0479748893	-3.7827572481	 1.3149357248	 0.135611
H	 1.0292157655	-2.4383353359	 0.6755799395	 0.141249
H	-2.8579184428	-1.3717629876	 1.3640248025	 0.114887
27.9208	98.2201	164.9543	225.525	291.2487	401.6953	427.9229	468.6233	501.0595	603.5829	618.3905	663.8643	710.6058	784.3024	792.4391	860.4683	894.5241	917.0828	963.3503	1003.615	1029.1251	1071.8893	1093.0708	1104.677	1124.8098	1142.1237	1217.3251	1282.482	1312.4384	1345.4391	1411.0275	1462.5101	1618.3016	1796.5697	1874.5956	3066.3518	3120.2244	3150.9272	3193.0911	3214.7561	3601.5465	3737.4868
NC(=O)C1C2CC(=O)C12	NC(=O)[C@H]1[C@H]2CC(=O)[C@@H]12	
InChI=1S/C6H7NO2/c7-6(9)5-2-1-3(8)4(2)5/h2,4-5H,1H2,(H2,7,9)	InChI=1S/C6H7NO2/c7-6(9)5-2-1-3(8)4(2)5/h2,4-5H,1H2,(H2,7,9)/t2-,4-,5-/m0/s1
