15
gdb 82654	2.45381	1.77103	1.36951	1.8342	59.87	-0.223	0.0554	0.2784	945.6717	0.111165	-494.807761	-494.800029	-494.799085	-494.839506	30.412	
O	 0.0791215199	 1.458566145	 0.0506982497	-0.451258
C	 0.0473304377	 0.0619032649	 0.0064642151	 0.108956
C	 0.2620833996	-0.6984328476	 1.3465621475	-0.089513
O	-0.7272946378	-0.0797238401	 2.2236396933	-0.296696
C	-1.729383583	-0.7530493085	 1.4499424284	-0.108124
C	-1.295743652	-0.6732160873	-0.0484600618	 0.243963
O	-2.1773453909	-0.812879714	-1.0910567975	-0.456116
C	-0.7989414486	-1.7749923727	 0.8612676911	 0.286377
O	-0.7891740115	-3.1246811061	 0.6770773391	-0.439635
H	-0.314780237	 1.6942629716	 0.9026476894	 0.286271
H	 0.7257626984	-0.2854866868	-0.7767340555	 0.105233
H	 1.2382133067	-0.8338646439	 1.8065726568	 0.093687
H	-2.7571671463	-0.7782192581	 1.7864595489	 0.120398
H	-2.6241852079	 0.0311062439	-1.2242807726	 0.297009
H	-0.8130697773	-3.5552135303	 1.5400033481	 0.299451
165.4025	198.0017	228.8692	282.9951	324.3252	340.5857	389.9627	422.2072	510.2004	550.9097	620.307	685.2061	712.4938	764.3799	814.1616	834.9222	922.4514	934.3325	957.5007	1009.9999	1027.5421	1084.2001	1109.2124	1168.372	1199.9083	1222.9044	1258.7493	1278.9975	1306.9503	1324.5401	1381.4332	1436.0606	1539.7864	3096.6758	3151.5365	3216.393	3746.259	3783.5216	3793.3331
OC1C2OC3C1(O)C23O	O[C@H]1[C@H]2O[C@H]3[C@]1(O)[C@@]23O	
InChI=1S/C5H6O4/c6-1-2-5(8)3(9-2)4(1,5)7/h1-3,6-8H	InChI=1S/C5H6O4/c6-1-2-5(8)3(9-2)4(1,5)7/h1-3,6-8H/t1-,2+,3-,4-,5+/m0/s1
