19
gdb 33129	3.17858	1.04079	0.82512	2.8467	79.09	-0.1836	0.0466	0.2302	1412.0803	0.160256	-419.22741	-419.218166	-419.217221	-419.262152	34.403	
C	-0.0203452378	 1.560011966	-0.2979360754	-0.39046
C	-0.178585057	 0.0587088197	-0.5159401608	-0.113292
N	 1.1018683974	-0.5521283443	-0.9020145304	-0.41908
C	 1.0572073919	-1.9421795436	-1.2032834867	 0.111586
C	 0.8617207769	-3.0570169113	-0.4089496221	-0.148831
N	 0.9108265859	-4.1526180678	-1.2237582582	-0.237521
C	 1.1317108832	-3.7762418722	-2.5377376629	-0.187184
C	 1.2262079936	-2.4060586756	-2.5404599981	 0.294257
O	 1.4492320755	-1.5851436609	-3.5980867991	-0.456312
H	 0.6801794415	 1.769336224	 0.5192622279	 0.110718
H	 0.3628846932	 2.0450592402	-1.2006251893	 0.12271
H	-0.979119677	 2.0171987365	-0.0360500697	 0.117247
H	-0.6052076119	-0.4078953896	 0.3880410683	 0.083819
H	-0.8891357575	-0.1339631715	-1.3271593373	 0.11382
H	 1.803328853	-0.3470122292	-0.1977289872	 0.222456
H	 0.7019501147	-3.1530358789	 0.6530578563	 0.112449
H	 0.8064714238	-5.1019207216	-0.9159897545	 0.260789
H	 1.2095213799	-4.4995568208	-3.3307517243	 0.117207
H	 1.5190679208	-0.7009137791	-3.2052665865	 0.28562
44.9533	71.757	118.2803	235.6522	260.8953	287.2925	322.9886	349.8474	415.231	513.231	542.6668	625.2723	631.8432	660.8233	720.0872	736.992	741.8634	803.2514	834.3155	902.3708	928.4473	1059.1546	1068.7703	1126.9512	1142.791	1167.9065	1184.0683	1259.0997	1278.8231	1295.8473	1358.3619	1383.0926	1409.9939	1437.9611	1476.4444	1478.2496	1494.8969	1497.4024	1521.3724	1575.6351	1660.2871	2958.7752	3031.2902	3060.5162	3099.078	3117.2297	3259.1857	3281.5326	3508.2484	3700.5741	3702.6302
CCNC1=CNC=C1O	CCNc1c[nH]cc1O	
InChI=1S/C6H10N2O/c1-2-8-5-3-7-4-6(5)9/h3-4,7-9H,2H2,1H3	InChI=1S/C6H10N2O/c1-2-8-5-3-7-4-6(5)9/h3-4,7-9H,2H2,1H3
