23
gdb 73267	2.3761	1.67882	1.28344	1.2384	84.93	-0.2363	0.0835	0.3198	1112.0403	0.20779	-388.296282	-388.288014	-388.28707	-388.328468	33.864	
C	 0.0094850434	 1.5246018892	-0.0196636993	-0.448793
C	-0.0411260322	-0.0054284274	-0.0231151029	 0.320555
C	-1.3776784748	-0.5213307433	 0.6032274537	-0.264519
C	-0.6577728033	-0.616781104	 1.9765907684	-0.234603
C	 0.6937639467	-0.601271189	 1.2295034674	 0.100077
O	 1.1112775831	-1.9466849413	 1.0693666928	-0.269851
C	 1.7989026517	-2.2047738876	-0.1425721728	-0.065043
C	 0.8641639439	-2.009542989	-1.3338371908	-0.215788
C	 0.3999021155	-0.5483505969	-1.3879005831	-0.269498
H	 1.0277909212	 1.8854902853	-0.2045932414	 0.110893
H	-0.6370312034	 1.9305951517	-0.8064181178	 0.113194
H	-0.3258967598	 1.9467634966	 0.9330383026	 0.112912
H	-2.2397774549	 0.1467556931	 0.5259102573	 0.089864
H	-1.6628451456	-1.5062780579	 0.2263776636	 0.103317
H	-0.8071107271	 0.2705125598	 2.5958103237	 0.100062
H	-0.8308873491	-1.50922106	 2.5797977943	 0.106087
H	 1.5174979532	 0.0014632718	 1.6425215404	 0.050111
H	 2.6847396394	-1.5520771843	-0.2381283419	 0.07961
H	 2.1526005219	-3.2377967592	-0.0728342477	 0.102495
H	 1.3713637918	-2.2826651087	-2.2661953136	 0.091029
H	 0.0126988658	-2.6904836297	-1.2171077953	 0.104276
H	-0.4112351818	-0.4192736933	-2.1159193827	 0.093133
H	 1.2371712144	 0.063669944	-1.7518387248	 0.090479
134.0585	158.9308	247.3182	271.3556	321.2262	341.0095	364.2387	398.4873	455.5316	469.606	578.0995	624.5315	723.4469	820.193	847.3898	881.6775	892.4714	921.8112	931.2138	932.1894	965.7075	975.5101	1011.8583	1046.2193	1067.5493	1107.5304	1135.8655	1176.0365	1182.135	1207.3121	1231.3273	1248.332	1262.8182	1268.6614	1279.6878	1303.8714	1317.649	1352.6512	1373.5772	1388.03	1408.0729	1411.5149	1468.6924	1477.8732	1484.1781	1492.9805	1495.6697	1499.7745	1504.7819	2951.8075	2975.2447	3004.829	3022.6581	3030.1802	3045.9427	3058.616	3074.5142	3075.4119	3080.7541	3086.4549	3098.2729	3109.8301	3133.8775
CC12CCC1OCCC2	C[C@]12CC[C@H]1OCCC2	
InChI=1S/C8H14O/c1-8-4-2-6-9-7(8)3-5-8/h7H,2-6H2,1H3	InChI=1S/C8H14O/c1-8-4-2-6-9-7(8)3-5-8/h7H,2-6H2,1H3/t7-,8+/m1/s1
