25
gdb 63648	3.81262	0.7683	0.73941	0.1545	93.76	-0.2519	0.0888	0.3407	1708.8755	0.227731	-352.339426	-352.329071	-352.328127	-352.375139	39.305	
C	-0.0098333366	 1.5329279803	-0.1020341755	-0.451705
C	 0.0460758646	 0.0212194182	 0.023271241	 0.331563
C	-1.0812255813	-0.6871776907	-0.7063934904	-0.446499
C	 1.3994113859	-0.656231459	 0.0420681943	-0.32364
C	 0.5534846996	-0.6260295438	 1.2965302492	-0.009398
C	 0.9808272672	 0.1444255068	 2.5329031949	-0.247967
C	 1.8240790927	-0.6881968508	 3.4803603943	 0.048451
C	 3.3190987112	-0.7766320345	 3.3090261142	-0.249346
C	 2.7346435162	-0.0268004748	 4.4825803125	-0.281658
H	 0.8321306451	 2.0250824666	 0.3909462272	 0.112525
H	 0.0099944697	 1.8302071562	-1.157371934	 0.111377
H	-0.9329305929	 1.9345502494	 0.3335672748	 0.111523
H	-1.0677013844	-0.4519127912	-1.7777080605	 0.110512
H	-1.0035089545	-1.7741423239	-0.6039118533	 0.109546
H	-2.0598552797	-0.3838876473	-0.3145724969	 0.110622
H	 1.5217039632	-1.5962775468	-0.4866188969	 0.101547
H	 2.2799114202	-0.0209256214	 0.018142179	 0.100839
H	 0.0630092916	-1.5678451857	 1.53855986	 0.071845
H	 1.5478529628	 1.0385696031	 2.2485562816	 0.087978
H	 0.0899785814	 0.5049273519	 3.0669540118	 0.094716
H	 1.3371400269	-1.5999949143	 3.8195802552	 0.077603
H	 3.8102877898	-1.7253967941	 3.4953293668	 0.107469
H	 3.7719799793	-0.1946683587	 2.5130491078	 0.107815
H	 2.7961168956	 1.0569693642	 4.4723348493	 0.106676
H	 2.8237227464	-0.4639585797	 5.4711516236	 0.107607
43.0438	75.2029	115.5435	190.1013	197.9615	234.8778	254.4768	304.8782	361.0282	372.5822	395.8546	457.6821	486.5123	691.6252	772.6742	801.4734	813.469	844.7478	869.194	897.813	915.8673	932.6915	964.5818	969.7074	1008.0673	1031.6336	1048.1331	1060.3204	1067.2839	1076.7384	1107.4975	1139.1856	1145.0837	1160.9378	1196.1157	1198.0891	1229.1015	1261.0381	1290.1769	1325.0553	1340.684	1404.8357	1414.5471	1424.9723	1431.5668	1468.3361	1477.5164	1483.7784	1492.4187	1494.0966	1501.4409	1508.6204	1515.2961	3003.4023	3015.9621	3023.0905	3053.0408	3073.0403	3076.4183	3095.7895	3110.7125	3112.8337	3119.8607	3126.1869	3127.8993	3133.662	3201.2649	3203.8136	3219.3809
CC1(C)CC1CC1CC1	CC1(C)C[C@H]1CC1CC1	
InChI=1S/C9H16/c1-9(2)6-8(9)5-7-3-4-7/h7-8H,3-6H2,1-2H3	InChI=1S/C9H16/c1-9(2)6-8(9)5-7-3-4-7/h7-8H,3-6H2,1-2H3/t8-/m1/s1
