20
gdb 33233	6.17542	0.68747	0.62859	2.6948	82.98	-0.1777	0.0423	0.22	1788.5029	0.172572	-399.366717	-399.357416	-399.356472	-399.401722	33.946	
C	 0.0591313073	 1.5097632356	 0.134861974	-0.379776
C	-0.0850786539	-0.0009283293	-0.0615980639	-0.189851
C	 0.7422544552	-0.5252280735	-1.2342379822	-0.110082
N	 0.5561652808	-1.9542796222	-1.4093340273	-0.391835
C	 1.2750873171	-2.5970424705	-2.4066868463	 0.342438
C	 1.8629258185	-2.0755462247	-3.5380463789	-0.200895
N	 2.3888263932	-3.1787994072	-4.1993376065	-0.23476
C	 2.1111009102	-4.2715885537	-3.4494135805	 0.014963
N	 1.4414442966	-3.9619119243	-2.3597361636	-0.327879
H	 1.1016587031	 1.7895692105	 0.3220187678	 0.116437
H	-0.2771663834	 2.058851681	-0.7515406437	 0.116379
H	-0.5357019489	 1.8561954382	 0.9850590535	 0.115646
H	 0.2243508466	-0.5209069485	 0.8555289743	 0.095466
H	-1.1361046767	-0.2644457566	-0.2268834635	 0.110686
H	 0.4193705198	-0.0226545242	-2.1565341249	 0.103155
H	 1.8057771244	-0.2580920613	-1.0922705865	 0.084168
H	 0.5746870524	-2.4841344564	-0.5479528308	 0.232937
H	 1.9533897796	-1.0781747267	-3.9293828965	 0.115842
H	 2.8914580526	-3.161155007	-5.0695885014	 0.262102
H	 2.4176010455	-5.2660603491	-3.7372064233	 0.12486
55.563	69.9429	99.5598	141.9275	235.328	277.4223	325.4233	338.188	456.651	477.6721	602.6323	623.4982	654.5746	737.2955	761.5835	769.6577	805.0064	900.2684	915.6684	947.8867	992.8055	1048.7944	1081.3706	1111.3718	1145.4907	1155.8803	1174.5408	1244.3796	1266.5339	1278.9594	1319.0268	1335.6021	1359.1278	1410.121	1415.0407	1462.0342	1491.3454	1494.1586	1499.6132	1506.2973	1526.181	1544.3393	1630.5543	2930.9767	3010.2433	3022.4822	3032.3244	3063.0418	3098.5468	3107.1541	3251.5069	3290.2504	3577.1694	3677.212
CCCNC1=CNC=N1	CCCNc1c[nH]cn1	
InChI=1S/C6H11N3/c1-2-3-8-6-4-7-5-9-6/h4-5,8H,2-3H2,1H3,(H,7,9)	InChI=1S/C6H11N3/c1-2-3-8-6-4-7-5-9-6/h4-5,8H,2-3H2,1H3,(H,7,9)
