18
gdb 108131	3.03528	1.53206	1.38423	2.1781	70.3	-0.2385	0.0588	0.2972	989.9843	0.149711	-439.015764	-439.008589	-439.007645	-439.047496	28.845	
O	-0.008483157	 1.406874747	-0.0799616122	-0.416802
C	 0.0459159793	-0.0026555537	 0.0765407631	-0.19892
C	-1.3350248118	-0.5900063282	 0.0699456652	 0.300175
N	-2.2747335306	-0.2444073784	 1.176754958	-0.378388
C	-3.114036119	-1.36175984	 0.6027431883	-0.077429
C	-3.6118878091	-0.6740588231	-0.6791477222	-0.191227
C	-2.1932232627	-0.6065148198	-1.2704385973	 0.037639
O	-1.8880217422	-2.0271818049	-1.4434425858	-0.295869
C	-1.7988323173	-2.0531018284	-0.0189028375	 0.021384
H	-0.6719619517	 1.7295936152	 0.5413394606	 0.293631
H	 0.6254701516	-0.3968910259	-0.7644167595	 0.125895
H	 0.5736311182	-0.2850780308	 1.0034912498	 0.083282
H	-1.842161123	-0.5860718656	 2.0373411568	 0.213976
H	-3.8168139787	-1.8615265923	 1.2662580039	 0.077133
H	-4.2644708527	-1.2816864398	-1.3079400689	 0.109913
H	-4.0652632363	 0.2925512046	-0.4555175199	 0.112507
H	-1.9645847165	 0.0072243088	-2.1387999359	 0.095749
H	-1.3483412104	-2.9413005947	 0.4248757435	 0.087351
87.7624	141.1899	271.8017	330.0964	409.0001	449.1779	512.8843	558.5567	640.2037	705.5055	741.1696	795.4343	845.4981	882.0768	924.1137	927.1094	931.7385	951.2969	980.9164	1001.8682	1020.2144	1059.4949	1069.0168	1091.9288	1120.0161	1147.8207	1176.5506	1215.5427	1217.3005	1241.5388	1265.2859	1281.2618	1306.7731	1346.0824	1369.9017	1376.8007	1439.4546	1466.5082	1504.0346	2959.2313	3078.6268	3084.4773	3119.4343	3143.8581	3148.1814	3154.5074	3432.7003	3791.4162
OCC12NC3CC1OC23	OC[C@@]12N[C@H]3C[C@@H]1O[C@@H]23	
InChI=1S/C6H9NO2/c8-2-6-4-1-3(7-6)5(6)9-4/h3-5,7-8H,1-2H2	InChI=1S/C6H9NO2/c8-2-6-4-1-3(7-6)5(6)9-4/h3-5,7-8H,1-2H2/t3-,4-,5+,6+/m0/s1
