21
gdb 100242	2.6643	1.07473	0.94121	2.2755	84.49	-0.2448	-0.0237	0.2211	1357.624	0.178032	-387.074087	-387.063194	-387.062249	-387.109979	39.459	
C	-0.005194906	 1.5802853081	 0.2866491738	-0.412789
C	-0.0047590787	 0.0757434433	-0.005328439	-0.184257
C	 0.7553463517	-0.3637223404	-1.2733752973	 0.137673
C	 2.2113391476	 0.1356825167	-1.3054293614	-0.434775
C	 0.7397240693	-1.929754783	-1.3201462585	-0.390452
C	 1.3733169878	-2.5285677678	-2.4896532335	 0.298904
C	 1.8995611831	-3.0238645131	-3.4505734187	-0.43762
C	 0.0468178995	 0.1215695831	-2.5370462607	 0.160862
O	-1.0488385151	 0.6220880864	-2.5679672492	-0.262688
H	 1.0024259172	 1.9637548254	 0.4740165512	 0.113526
H	-0.4414883919	 2.1427436464	-0.5421146677	 0.139585
H	-0.6028305561	 1.7869096215	 1.1797743664	 0.115556
H	 0.4265183158	-0.459676774	 0.850332011	 0.089195
H	-1.0416690568	-0.2647345255	-0.0991767406	 0.111809
H	 2.745426112	-0.199001742	-0.4096861128	 0.121321
H	 2.7407387843	-0.2581034517	-2.1776492444	 0.135593
H	 2.2633970417	 1.2270013004	-1.3402637224	 0.127921
H	 1.2424511415	-2.2916157268	-0.4139031815	 0.13625
H	-0.3002035363	-2.2727763663	-1.253720977	 0.142102
H	 2.3576086817	-3.467992219	-4.2995269525	 0.199366
H	 0.6263922076	-0.0388829616	-3.4726764053	 0.09292
61.6835	86.0888	105.6905	135.5031	197.8251	213.6508	266.2862	284.3522	317.2047	337.2143	350.5093	364.516	403.2434	515.3808	619.822	624.6219	648.4244	742.6439	786.1333	875.0377	893.8316	934.6749	970.997	982.7416	1027.4275	1060.4344	1082.0803	1165.9661	1182.5368	1216.0129	1265.512	1331.0446	1349.0831	1374.6954	1405.5974	1409.479	1431.2699	1463.0519	1476.1977	1495.2602	1497.5333	1509.6825	1511.6891	1824.039	2234.3922	2894.4863	3017.4669	3024.3079	3038.8403	3044.7179	3056.2733	3070.7365	3105.3439	3108.8428	3121.2701	3129.0702	3504.6397
CCC(C)(CC#C)C=O	CC[C@@](C)(CC#C)C=O	
InChI=1S/C8H12O/c1-4-6-8(3,5-2)7-9/h1,7H,5-6H2,2-3H3	InChI=1S/C8H12O/c1-4-6-8(3,5-2)7-9/h1,7H,5-6H2,2-3H3/t8-/m0/s1
