16
gdb 132511	3.11658	1.35843	0.95225	0.8533	77.19	-0.2092	-0.0126	0.1966	1173.8768	0.124737	-442.107682	-442.099537	-442.098593	-442.140416	31.03	
C	-0.0075455183	 1.4953472277	 0.039062921	-0.465983
C	 0.0066312707	-0.0101849407	-0.0198934947	 0.318277
C	-0.0887822519	-0.6961329024	-1.2262569665	-0.185554
C	-0.0783907436	-2.0950067812	-1.2088415923	-0.1987
C	 0.0370955055	-2.726560154	 0.0037002705	 0.205918
F	 0.0454618367	-4.0690909389	 0.1011566218	-0.093452
C	 0.1377726801	-1.9735156056	 1.1870027451	 0.261794
N	 0.3083481636	-2.6063298941	 2.399122053	-0.569711
N	 0.1127526379	-0.6440336894	 1.1607412243	-0.385108
H	 0.9160660497	 1.8696710236	 0.4926507933	 0.136604
H	-0.1106590036	 1.9366409464	-0.9551047953	 0.116086
H	-0.8345121609	 1.846544729	 0.6647820414	 0.134723
H	-0.1769625577	-0.1587420099	-2.1626522692	 0.094954
H	-0.1582930674	-2.6835568976	-2.1159068367	 0.115253
H	-0.0092018041	-3.5609227505	 2.4535914249	 0.257953
H	 0.0940784533	-2.0310063923	 3.1992685694	 0.256947
76.0819	136.8436	226.0103	282.6073	308.7128	363.1654	411.3357	453.6059	466.1597	515.5524	531.1951	594.1037	644.3917	730.4275	779.8305	785.0274	826.5351	945.3997	963.5679	1011.9538	1058.715	1097.5996	1154.4747	1221.4578	1269.3305	1323.2339	1358.5105	1409.395	1462.0786	1475.8832	1494.9172	1518.8743	1614.5713	1629.5875	1661.2054	3039.3683	3097.5941	3124.9118	3193.3697	3208.0159	3584.0088	3703.4217
CC1=CC=C(F)C(N)=N1	Cc1ccc(F)c(N)n1	
InChI=1S/C6H7FN2/c1-4-2-3-5(7)6(8)9-4/h2-3H,1H3,(H2,8,9)	InChI=1S/C6H7FN2/c1-4-2-3-5(7)6(8)9-4/h2-3H,1H3,(H2,8,9)
