17
gdb 67542	2.47358	1.74086	1.47947	4.0579	71.5	-0.2281	-0.0276	0.2004	958.1141	0.134887	-421.780323	-421.772638	-421.771694	-421.812235	30.481	
O	-0.0521595864	 1.413725378	 0.0688806904	-0.474751
C	 0.0328386325	 0.0317142772	-0.0110771572	 0.320902
C	 1.2244127539	-0.6415242832	 0.7237163957	-0.135709
C	 1.1679730362	-2.1439750616	 0.7010484516	-0.300808
C	 1.5903803583	-1.4181656975	-0.5450006588	-0.054374
C	 0.3919922987	-0.7945890601	-1.3062830178	-0.113983
C	-0.9855812975	-1.5116761871	-1.2606860238	-0.375606
C	-1.3361839134	-0.7076439945	 0.0195625611	 0.358501
O	-2.3077859955	-0.6288571155	 0.7089453777	-0.288347
H	 0.8408435459	 1.7760634142	 0.0904046673	 0.285645
H	 1.846963106	-0.1030990199	 1.4308701542	 0.092085
H	 1.9773362161	-2.6284137827	 1.2388193832	 0.120011
H	 0.2271805261	-2.6810608022	 0.7696517714	 0.125171
H	 2.5683241355	-1.5788996328	-0.9824458766	 0.092086
H	 0.6443765339	-0.271231558	-2.2265792449	 0.082445
H	-1.6466274505	-1.2234886282	-2.084756159	 0.1368
H	-1.0068517199	-2.600358356	-1.1686178345	 0.129933
91.0059	203.6925	249.4775	265.5509	303.8234	355.5855	455.7993	480.5942	528.4031	616.0446	670.468	742.3412	762.904	793.1113	868.2524	913.8296	940.0145	950.4086	973.1926	991.2054	1033.7634	1038.4295	1055.7224	1084.7047	1087.4982	1105.4839	1118.9827	1183.6595	1201.2972	1239.2326	1284.9838	1293.077	1336.5883	1392.1896	1433.0175	1504.8158	1893.2395	3056.6223	3110.8839	3125.2593	3134.5743	3161.2455	3180.8017	3203.3372	3793.3067
OC12C3CC3C1CC2=O	O[C@]12[C@H]3C[C@H]3[C@H]1CC2=O	
InChI=1S/C7H8O2/c8-6-2-5-3-1-4(3)7(5,6)9/h3-5,9H,1-2H2	InChI=1S/C7H8O2/c8-6-2-5-3-1-4(3)7(5,6)9/h3-5,9H,1-2H2/t3-,4+,5-,7-/m1/s1
