16
gdb 46757	2.84818	1.86674	1.44718	4.6931	66.8	-0.2541	-0.008	0.2461	907.1353	0.126791	-437.868104	-437.861452	-437.860507	-437.899265	26.159	
O	-0.0027861541	 0.0064989453	 0.2473572996	-0.326909
C	 0.0022437721	 1.1746587569	-0.0047123921	 0.4291
O	-1.140622092	 1.8545373357	-0.3237367529	-0.22722
C	-0.8968827024	 3.228329058	-0.6941723611	-0.110662
C	 0.5794682839	 3.5100711417	-0.3833226539	-0.06516
C	 0.9767643347	 3.9751671602	 1.0243869709	-0.038462
C	 0.4463642354	 3.1054285712	 2.0910795375	-0.257412
N	 1.6418866103	 2.6416500922	 1.3567892211	-0.133488
C	 1.174682527	 2.1467583848	-0.005861354	-0.122464
H	-1.1250601379	 3.3314173659	-1.7597103421	 0.125209
H	-1.5862609168	 3.8565960875	-0.1233978194	 0.126816
H	 1.0878556432	 4.0523578834	-1.1790641498	 0.098655
H	 1.4775529395	 4.9137476985	 1.2373735506	 0.106546
H	 0.6895860408	 3.3849849578	 3.1112984669	 0.133739
H	-0.5033759124	 2.5879876085	 1.9876272932	 0.143231
H	 2.0201871187	 1.7581370123	-0.5710883945	 0.118481
116.859	170.4722	232.0999	346.4536	473.6158	512.2866	617.8228	677.1983	715.6287	742.5004	764.7361	795.4051	860.5526	904.3564	937.7146	967.1652	1001.65	1021.194	1055.9444	1071.5811	1102.2088	1125.7577	1142.9608	1167.5	1205.7767	1218.1419	1243.1782	1257.5504	1294.1856	1334.3064	1368.002	1401.0527	1510.9252	1517.0865	1882.0566	3049.21	3097.3934	3121.439	3122.9245	3133.1416	3167.4452	3207.1328
O=C1OCC2C3CN3C12	O=C1OC[C@H]2[C@H]3CN3[C@@H]12	
InChI=1S/C6H7NO2/c8-6-5-3(2-9-6)4-1-7(4)5/h3-5H,1-2H2	InChI=1S/C6H7NO2/c8-6-5-3(2-9-6)4-1-7(4)5/h3-5H,1-2H2/t3-,4+,5+,7?/m0/s1
