19
gdb 28414	3.01052	1.33522	0.93651	2.7601	88.75	-0.2019	-0.0055	0.1964	1259.982	0.160273	-382.145587	-382.136703	-382.135759	-382.178638	34.016	
C	 0.0127253914	 1.5236584168	-0.0282162601	-0.49964
C	 0.0269936592	 0.0164642955	-0.0142083226	 0.260278
C	 0.0367079131	-0.7037839418	-1.2025467829	-0.225359
C	 0.0492902961	-2.1016615374	-1.1860740559	 0.270213
N	 0.123517472	-2.8522540704	-2.3612227742	-0.593364
C	 0.0468266884	-2.7119257634	 0.0724686844	-0.069397
N	 0.0382480194	-2.039307506	 1.2201901439	-0.313087
C	 0.0296712065	-0.702750912	 1.1970312388	 0.232553
C	 0.0198178592	-0.0010133041	 2.5313613949	-0.484043
H	 0.8870501952	 1.939401071	 0.4861335552	 0.13311
H	 0.0113411949	 1.9099107106	-1.0509701201	 0.118371
H	-0.870461618	 1.9238570818	 0.4834032938	 0.131744
H	 0.038548818	-0.1764340684	-2.1537234743	 0.081177
H	-0.2775270817	-2.4047617165	-3.1730928926	 0.245852
H	-0.2079627665	-3.8022253389	-2.2698525716	 0.247884
H	 0.0538482436	-3.7991200871	 0.1460211095	 0.086757
H	 0.8944392575	 0.6491204374	 2.6575148043	 0.120837
H	-0.8651096807	 0.6361819728	 2.6520613661	 0.119881
H	 0.0228900125	-0.74600942	 3.3281403534	 0.136232
127.8198	139.5377	168.843	216.6564	280.1323	292.4248	309.9661	350.8333	467.1183	469.6826	490.0931	559.45	575.1558	642.9604	735.2127	757.8503	767.7765	904.4912	917.0389	973.0553	1012.5965	1024.1934	1042.3932	1074.5632	1116.3905	1156.9651	1253.5683	1291.2644	1310.1783	1343.9727	1405.0184	1417.7795	1462.7802	1475.3701	1478.572	1490.0551	1494.242	1519.8857	1602.1682	1644.493	1659.8284	3021.0418	3026.611	3066.1101	3076.9081	3111.0068	3125.038	3141.1024	3151.3626	3556.8051	3653.3891
CC1=CC(N)=CN=C1C	Cc1cc(N)cnc1C	
InChI=1S/C7H10N2/c1-5-3-7(8)4-9-6(5)2/h3-4H,8H2,1-2H3	InChI=1S/C7H10N2/c1-5-3-7(8)4-9-6(5)2/h3-4H,8H2,1-2H3
