19
gdb 82583	2.296	2.19244	1.73949	1.0381	80.04	-0.2226	-0.0083	0.2143	894.0806	0.161654	-385.836977	-385.83012	-385.829176	-385.867696	29.093	
O	 0.3551689986	 1.3238604312	 0.3625803978	-0.425306
C	 0.0410987031	 0.0014366772	 0.0190264418	 0.120579
C	-1.4639008914	-0.4867580103	 0.0202699949	-0.069357
C	-2.575234344	 0.5051835856	-0.4848622505	-0.308015
C	-1.8321002771	 0.3936746723	-1.8038710537	 0.17536
C	-0.9900230598	 1.224297749	-2.4285733933	-0.192798
C	 0.3811861876	 0.5604479612	-2.5698781042	-0.260171
C	 0.2855965459	-0.5225260332	-1.4697495516	-0.073411
C	-1.1949930463	-0.9451735985	-1.4486416021	-0.063561
H	-0.1375257704	 1.9004175526	-0.2321824379	 0.28469
H	 0.6078199818	-0.6228459705	 0.7146416748	 0.095094
H	-1.7420928048	-1.1561655444	 0.8376040509	 0.067653
H	-3.5488360949	 0.0049783586	-0.4431213404	 0.11207
H	-2.6589355474	 1.5000056552	-0.0382087586	 0.104487
H	-1.1411359561	 2.2912881366	-2.5630084969	 0.092116
H	 0.593174966	 0.1285346576	-3.5578721747	 0.104556
H	 1.1782372826	 1.2849709096	-2.3642752203	 0.11113
H	 1.0599733922	-1.2921434586	-1.5292821605	 0.056752
H	-1.5839840557	-1.8668464112	-1.8821881456	 0.068133
174.464	222.5859	286.1489	374.502	385.8317	488.6332	526.9521	580.4702	664.7352	705.0279	739.4143	790.819	806.0225	847.3035	882.9851	902.1979	917.7432	940.8176	970.5173	994.4348	1006.6072	1009.424	1058.0175	1094.0502	1114.9183	1134.357	1143.4894	1184.841	1203.734	1214.8265	1238.0294	1256.7821	1284.244	1285.6978	1304.6257	1313.8662	1337.7015	1433.3839	1478.6943	1486.0071	1672.1343	3008.0701	3039.6214	3057.3264	3064.3523	3073.7101	3084.8961	3096.6322	3108.5915	3172.9661	3794.7692
OC1C2CC3=CCC1C23	O[C@H]1[C@H]2C[C]3[CH]C[C@@H]1[C@@H]23	
InChI=1S/C8H10O/c9-8-5-2-1-4-3-6(8)7(4)5/h1,5-9H,2-3H2	InChI=1S/C8H10O/c9-8-5-2-1-4-3-6(8)7(4)5/h1,5-9H,2-3H2/t5-,6+,7+,8-/m1/s1
