18
gdb 32766	3.31099	1.10913	0.85982	1.0563	76.89	-0.1862	0.0256	0.2117	1339.3849	0.147791	-439.093281	-439.084232	-439.083288	-439.127698	32.818	
C	-0.1538920826	 1.3721528939	 0.3177911146	-0.22464
O	-0.1287497076	-0.0333593651	 0.423079775	-0.237789
C	-1.1546323346	-0.655564187	-0.3431121417	-0.198591
C	-1.1227215142	-2.1162457987	-0.0794231501	 0.293821
C	-0.9743035898	-2.8365617272	 1.0726349793	 0.155405
N	-0.8491791743	-2.327398053	 2.3708432589	-0.619134
C	-1.0420329489	-4.2183355282	 0.6875262975	-0.237896
C	-1.2250788816	-4.2261779515	-0.6591346851	-0.021122
O	-1.273788162	-2.9665712892	-1.1478316289	-0.187166
H	 0.6531032381	 1.7609965728	 0.9432064574	 0.127903
H	 0.0090230776	 1.7033042004	-0.7194889578	 0.109092
H	-1.1107499029	 1.792519988	 0.6653648447	 0.107749
H	-2.1262662138	-0.2060187141	-0.067737762	 0.099627
H	-1.0099351042	-0.4751716343	-1.4199234258	 0.110399
H	-0.4558371856	-1.3937166876	 2.3552425211	 0.251376
H	-0.2941386962	-2.9232873701	 2.9709607149	 0.239615
H	-0.9641812581	-5.0792962963	 1.3338170581	 0.102247
H	-1.3334278493	-5.0168947529	-1.38329985	 0.129106
50.5978	91.9784	124.6467	225.5777	235.5838	293.2157	312.2496	328.3388	379.8347	435.3754	610.1895	659.4993	690.9125	739.5073	771.0347	800.2947	818.9234	907.5266	969.4964	999.4403	1062.8309	1082.212	1138.7213	1165.8012	1184.131	1219.0584	1221.0611	1262.0715	1290.5764	1325.4543	1407.3073	1474.3625	1484.7062	1494.2412	1503.7183	1520.2181	1538.3013	1650.067	1688.0689	2928.9835	2973.911	2996.079	3020.1129	3116.8921	3246.9728	3280.3269	3529.8838	3622.5164
COCC1=C(N)C=CO1	COCc1c(N)cco1	
InChI=1S/C6H9NO2/c1-8-4-6-5(7)2-3-9-6/h2-3H,4,7H2,1H3	InChI=1S/C6H9NO2/c1-8-4-6-5(7)2-3-9-6/h2-3H,4,7H2,1H3
