22
gdb 106684	2.81789	1.24587	1.06322	0.5731	84.2	-0.1981	0.0904	0.2885	1266.3325	0.191968	-404.288374	-404.278483	-404.277539	-404.322778	36.943	
C	 0.3672104385	 1.3814223667	 0.2502537655	-0.255281
O	-0.1231526341	 0.0759971552	-0.0153947785	-0.279713
C	 0.4457982362	-0.5144189296	-1.1216625664	 0.36671
C	 1.8639937077	-1.0394049718	-1.1383100709	-0.382108
C	 0.7061196783	-1.9770423854	-1.4098838166	 0.277136
C	 0.4529477051	-3.2401777048	-0.6468791153	-0.509084
N	 0.342281335	-1.7876905379	-2.8433010894	-0.118457
C	-0.7268097732	-2.6233112957	-3.3581723342	-0.329631
C	-0.0772863379	-0.3777891915	-2.5546884255	-0.247666
H	 1.4565724364	 1.3787559556	 0.3915065233	 0.113567
H	 0.1218145552	 2.0810788707	-0.561064002	 0.11175
H	-0.1153774721	 1.7224222439	 1.1689121716	 0.126279
H	 2.5556127714	-0.7893881027	-1.9388920904	 0.106315
H	 2.3020886199	-1.1427920629	-0.1497035125	 0.109965
H	 0.6730796203	-3.0837668707	 0.4127488996	 0.131025
H	-0.5884693674	-3.5669245395	-0.7263499581	 0.124696
H	 1.0940851452	-4.053963807	-1.005825117	 0.125966
H	-1.6589945332	-2.5890986274	-2.7628419472	 0.092376
H	-0.9698337601	-2.296931338	-4.3748089513	 0.120194
H	-0.3956902286	-3.665198296	-3.4139131332	 0.119617
H	-1.1688881208	-0.265268222	-2.5604377268	 0.100852
H	 0.3752397881	 0.372843151	-3.2126181447	 0.095494
85.1055	119.3064	138.4244	179.2923	192.8138	254.8782	263.6009	282.6804	370.2841	398.8679	439.0307	460.9713	497.1096	599.8214	718.251	741.5732	805.5073	888.8146	949.1682	950.5447	970.4682	1017.9446	1051.8929	1070.5794	1103.7811	1114.742	1160.6273	1178.885	1179.5931	1194.9732	1198.6856	1213.8705	1246.5	1289.3812	1338.9729	1395.7473	1421.0807	1451.3697	1470.6353	1478.8347	1482.176	1488.5086	1498.3344	1502.7846	1505.2328	1506.1986	1521.9375	2922.9399	2994.5519	3014.9245	3029.8454	3049.7825	3058.6779	3067.1201	3092.1711	3100.1232	3105.6058	3114.9682	3121.0464	3202.866
COC12CC1(C)N(C)C2	CO[C@@]12C[C@]1(C)N(C)C2	
InChI=1S/C7H13NO/c1-6-4-7(6,9-3)5-8(6)2/h4-5H2,1-3H3	InChI=1S/C7H13NO/c1-6-4-7(6,9-3)5-8(6)2/h4-5H2,1-3H3/t6-,7+/m0/s1
