18
gdb 96210	2.70188	1.37505	0.96096	4.2387	80.48	-0.2664	-0.0418	0.2246	1204.4787	0.149219	-401.986155	-401.977811	-401.976867	-402.019102	31.719	
O	-0.0378908269	 1.4261057003	 0.0130113648	-0.428812
C	 0.0306846036	 0.0114455411	-0.0130281497	 0.033288
C	-1.3994937674	-0.5169872536	 0.0699753519	-0.208323
C	-1.4560473415	-2.0166785746	-0.234773912	-0.227292
C	-0.9647502511	-2.308076256	-1.6604760374	-0.248572
C	 0.2615057715	-1.5209941866	-2.0170874636	-0.123991
C	 0.7166938432	-0.4946934262	-1.2842835943	 0.152122
C	 1.9011817198	 0.2120446624	-1.6567320979	 0.204348
N	 2.8549189322	 0.8284525335	-1.8895503364	-0.344255
H	 0.8586757105	 1.7804116114	-0.009329667	 0.297425
H	 0.6071391549	-0.3562243587	 0.8528600096	 0.08704
H	-1.8034457081	-0.2973217141	 1.0623261448	 0.110851
H	-2.0022861351	 0.0431514747	-0.6548009874	 0.116421
H	-0.8271527208	-2.5598681701	 0.482005719	 0.108565
H	-2.4747330078	-2.393949482	-0.1046151931	 0.106654
H	-0.7598376665	-3.3776140426	-1.7930419194	 0.119423
H	-1.7513027522	-2.0719169978	-2.3931783058	 0.128472
H	 0.7949145917	-1.804254171	-2.920647016	 0.116636
81.2821	141.8544	177.1658	265.664	300.5729	338.1928	350.0181	414.0686	460.2005	483.1123	572.6899	602.7546	671.3599	760.2126	828.5152	872.2319	890.0229	945.1675	970.9559	1057.836	1077.6807	1087.6929	1104.6736	1150.4543	1155.9581	1230.0731	1263.3734	1298.2818	1334.3197	1350.352	1364.9867	1381.0946	1384.1197	1432.5861	1465.3791	1491.8464	1498.2628	1696.2551	2327.5306	2953.0017	3001.6346	3028.6143	3043.33	3049.3461	3084.562	3095.1612	3168.0816	3796.8882
OC1CCCC=C1C#N	O[C@H]1CCCC=C1C#N	
InChI=1S/C7H9NO/c8-5-6-3-1-2-4-7(6)9/h3,7,9H,1-2,4H2	InChI=1S/C7H9NO/c8-5-6-3-1-2-4-7(6)9/h3,7,9H,1-2,4H2/t7-/m0/s1
