23
gdb 122660	5.13857	0.61687	0.57282	1.364	88.53	-0.2345	0.0284	0.263	1963.088	0.2062	-388.3012	-388.291334	-388.29039	-388.337021	36.048	
O	 0.0163879705	 1.4822137169	-0.0610358175	-0.422123
C	 0.074013911	 0.0630628089	-0.0533029098	-0.074044
C	-1.351487702	-0.4662137121	 0.0312811022	-0.173127
C	-1.4181677814	-1.9964328104	 0.0500080698	-0.198388
C	-2.8467776582	-2.5633524838	 0.0960293702	-0.00934
C	-2.8961693655	-4.1115255628	-0.028482971	-0.229091
C	-4.0625099457	-4.5779720433	 0.877856128	-0.254708
C	-4.2486013803	-3.4048144607	 1.8111869026	-0.070086
C	-3.600212783	-2.3210338851	 1.3887772929	-0.060118
H	 0.9154768876	 1.8192487903	-0.1107480223	 0.284188
H	 0.5597329856	-0.3208110477	-0.9659120606	 0.081935
H	 0.6594664276	-0.3068913345	 0.8047673693	 0.082885
H	-1.8172334024	-0.0471893401	 0.9307770353	 0.107592
H	-1.9171234842	-0.0745675945	-0.823398686	 0.103595
H	-0.9168654235	-2.389647555	-0.8454092543	 0.090835
H	-0.8565648802	-2.3840761121	 0.9112307836	 0.092518
H	-3.4091082786	-2.1041295825	-0.733277494	 0.07327
H	-2.99799072	-4.4464224972	-1.06424697	 0.093343
H	-1.9549625361	-4.5243688516	 0.3529662211	 0.098696
H	-4.9808109374	-4.7612825965	 0.3015170646	 0.103649
H	-3.8408570069	-5.5145741269	 1.402218713	 0.09984
H	-4.8774055174	-3.4531823796	 2.6939341661	 0.087864
H	-3.6257755494	-1.3526061497	 1.876586967	 0.090815
59.462	69.0616	89.3613	127.5096	163.7719	259.7739	267.0306	294.6067	324.8249	472.4518	518.1617	623.397	738.6521	756.9648	770.7346	840.9165	850.858	894.1609	925.8213	967.8541	977.5198	997.2792	1016.8064	1041.4019	1071.4996	1076.0118	1102.0933	1125.0112	1148.1372	1173.4978	1211.1568	1230.0679	1234.8105	1285.1163	1290.2683	1309.9788	1317.1779	1319.216	1340.2636	1349.9072	1389.0312	1392.7313	1463.4702	1482.6676	1485.4074	1499.2488	1501.004	1528.4416	1684.6867	2956.1089	2965.4248	2980.9755	3003.0656	3004.5274	3031.1954	3036.0153	3038.18	3054.8323	3077.7844	3094.0008	3176.7793	3202.663	3830.335
OCCCC1CCC=C1	OCCC[C@H]1CCC=C1	
InChI=1S/C8H14O/c9-7-3-6-8-4-1-2-5-8/h1,4,8-9H,2-3,5-7H2	InChI=1S/C8H14O/c9-7-3-6-8-4-1-2-5-8/h1,4,8-9H,2-3,5-7H2/t8-/m1/s1
