18
gdb 44484	3.65196	1.60372	1.47724	2.6275	74.28	-0.2227	-0.0142	0.2086	929.8762	0.151391	-401.947397	-401.94111	-401.940166	-401.977854	26.666	
O	 0.0171406173	 0.0372746568	-0.1773476094	-0.327105
C	-0.0175118287	 1.2262889882	-0.0083210813	 0.406592
C	-1.2721615179	 2.1141385693	 0.1694884556	-0.298131
N	-0.7614086594	 3.4273227165	 0.576551287	-0.10346
C	 0.0235499492	 4.1993800681	-0.4707253381	 0.002626
C	 0.9525234836	 4.6359953737	 0.6851490987	-0.230742
C	 0.6154432858	 3.2149182442	 1.1619353711	-0.016215
C	 1.1327558944	 2.2214063515	 0.0749869597	-0.134694
C	 0.8986832965	 3.1391265127	-1.1799979028	-0.253176
H	-1.8658422621	 2.1598710482	-0.7487606979	 0.133214
H	-1.9139598768	 1.6988348085	 0.9544658019	 0.13545
H	-0.5303174932	 4.9090719805	-1.0851310678	 0.076584
H	 1.9885320795	 4.8832645461	 0.4480728843	 0.098427
H	 0.4958219733	 5.3888214792	 1.3274046844	 0.11809
H	 0.6827095909	 2.8993897576	 2.2043633657	 0.080932
H	 2.1189607883	 1.7750398551	 0.1807202767	 0.08632
H	 0.3936871701	 2.6200264782	-1.9993768428	 0.113237
H	 1.8284752893	 3.5566907356	-1.573775885	 0.112051
132.2214	319.4494	336.2372	434.284	483.5783	516.6925	593.7019	699.3069	720.0066	759.4352	789.2247	824.2121	853.4762	867.965	902.0507	946.9928	952.198	975.9467	1012.1367	1020.7138	1055.1642	1059.4265	1116.6136	1131.9717	1171.5429	1175.1191	1200.2297	1226.013	1234.7004	1243.2985	1262.0952	1279.2059	1286.9646	1302.5213	1330.2897	1455.5388	1484.339	1517.8641	1859.1187	3048.3843	3062.0902	3083.4628	3094.2516	3105.2605	3105.9791	3120.1732	3147.5522	3153.8674
O=C1CN2C3CC2C1C3	O=C1CN2[C@H]3C[C@@H]2[C@@H]1C3	
InChI=1S/C7H9NO/c9-7-3-8-4-1-5(7)6(8)2-4/h4-6H,1-3H2	InChI=1S/C7H9NO/c9-7-3-8-4-1-5(7)6(8)2-4/h4-6H,1-3H2/t4-,5+,6-/m1/s1
