25
gdb 118056	3.50469	0.71847	0.6255	0.4389	86.79	-0.2481	0.0727	0.3208	1887.7801	0.225793	-426.622708	-426.610826	-426.609882	-426.660228	42.29	
C	-0.1320349588	 1.5848486661	 0.0710266556	-0.378706
C	 0.0223917657	 0.0635876598	-0.0080888627	-0.199072
C	 0.7340707624	-0.5299521458	 1.2154930321	 0.130264
O	 0.0658459637	-0.1478703892	 2.4214381018	-0.431299
C	 0.9186207026	-2.0606149108	 1.1466999697	-0.014422
C	 1.6720278231	-2.5248347266	-0.1081494219	-0.408553
C	 1.625095842	-2.5624271619	 2.4094036726	-0.058215
O	 1.6033898442	-3.9764788101	 2.4117230178	-0.235873
C	 2.2432832399	-4.5299011535	 3.5345156267	-0.226663
H	 0.8467600297	 2.0771197722	 0.088737685	 0.113612
H	-0.6837737563	 1.9705215216	-0.7915097459	 0.107777
H	-0.6625033451	 1.8753402052	 0.9810093291	 0.125848
H	-0.9665297747	-0.4104353332	-0.1015404756	 0.083655
H	 0.5746362991	-0.2037809868	-0.9148269012	 0.104056
H	 1.7257578279	-0.0634118434	 1.3028756854	 0.08316
H	-0.8221716849	-0.5223723776	 2.38846093	 0.275572
H	-0.08300517	-2.5179138898	 1.1403772015	 0.068106
H	 1.901733483	-3.5891815663	-0.0240567519	 0.135008
H	 1.0896229158	-2.3737206811	-1.0203368683	 0.113575
H	 2.6193090345	-1.9825012631	-0.2182771098	 0.108635
H	 2.6684700249	-2.1971413956	 2.4258287073	 0.076874
H	 1.1269046505	-2.1669351655	 3.3051606495	 0.099013
H	 3.308447971	-4.2508036103	 3.5789298558	 0.101873
H	 1.7691653419	-4.2089018584	 4.4759416232	 0.102365
H	 2.167393308	-5.6173786359	 3.4544444241	 0.123409
57.3458	77.5248	91.3273	109.2927	138.4292	207.566	225.4323	236.9277	246.2855	287.6546	317.8787	323.0982	356.1769	392.162	467.5663	518.0244	566.705	778.5225	851.6322	894.5544	933.7182	960.1177	987.9205	994.1943	1043.1551	1082.9026	1098.0876	1132.3455	1148.6574	1163.5809	1170.9344	1192.6922	1223.9558	1251.2963	1262.1339	1280.3783	1334.0974	1348.2526	1371.83	1390.6813	1401.43	1406.0298	1413.8079	1423.6099	1480.9942	1482.2898	1484.7481	1494.6812	1496.4946	1505.4304	1509.6689	1511.3228	1531.3459	2937.5201	2967.2536	2989.6616	2996.3993	3008.8324	3018.328	3027.699	3033.072	3038.0338	3073.5321	3101.2039	3105.7153	3109.2189	3125.5045	3132.0263	3790.7588
CCC(O)C(C)COC	CC[C@@H](O)[C@@H](C)COC	
InChI=1S/C7H16O2/c1-4-7(8)6(2)5-9-3/h6-8H,4-5H2,1-3H3	InChI=1S/C7H16O2/c1-4-7(8)6(2)5-9-3/h6-8H,4-5H2,1-3H3/t6-,7+/m0/s1
