15
gdb 15586	2.8478	2.14392	1.47176	3.9069	61.06	-0.2797	0.0123	0.2919	861.6633	0.118998	-399.809188	-399.801545	-399.800601	-399.841616	26.894	
C	-0.0852022377	 1.5709959778	-0.1273617484	-0.42478
C	 0.0990071932	 0.072704203	-0.0119153258	 0.099614
O	 0.9794910403	-0.3956754825	-1.0252895604	-0.242369
C	 1.3869912408	-1.6712013847	-0.6201345282	 0.020525
O	 1.372952976	-1.6938083611	 0.8117112492	-0.258881
C	 0.7984726217	-0.4781619667	 1.2576167988	-0.039408
C	 1.8371378265	 0.4283297703	 1.7864884516	 0.285889
N	 2.6383440643	 1.1443392875	 2.2108173722	-0.326321
H	 0.8747349349	 2.0866758473	-0.0530431335	 0.158271
H	-0.542027323	 1.8127036121	-1.0900325479	 0.138743
H	-0.7436256464	 1.935935799	 0.6663423715	 0.130788
H	-0.8714605137	-0.4440684356	-0.0893054393	 0.088646
H	 0.6985833816	-2.4536145539	-0.9777171648	 0.103095
H	 2.3998755475	-1.8530570839	-0.99260105	 0.130885
H	 0.0840472541	-0.6922131185	 2.058989925	 0.135304
62.5375	151.5521	163.4381	215.8988	244.1721	313.149	432.2041	499.0563	592.5452	700.3461	749.5375	864.0764	887.7008	945.0531	952.2359	1042.8982	1074.5313	1131.7311	1133.9988	1156.5921	1175.432	1226.3302	1269.8064	1332.9764	1370.0091	1386.6663	1422.1814	1429.3968	1483.8218	1498.0288	1547.6438	2357.623	2973.4336	2978.1098	3053.8579	3066.7079	3080.2516	3127.0043	3141.399
CC1OCOC1C#N	C[C@H]1OCO[C@H]1C#N	
InChI=1S/C5H7NO2/c1-4-5(2-6)8-3-7-4/h4-5H,3H2,1H3	InChI=1S/C5H7NO2/c1-4-5(2-6)8-3-7-4/h4-5H,3H2,1H3/t4-,5+/m1/s1
