19
gdb 95315	2.81807	1.72247	1.52028	1.2707	69.6	-0.2421	0.082	0.3241	957.7824	0.161529	-460.168346	-460.16097	-460.160026	-460.199864	29.372	
C	-0.1295643216	 1.5720925992	 0.0489304927	-0.41061
C	 0.0407377633	 0.0548414926	-0.0197896339	 0.126287
O	 0.7135421654	-0.3614054467	-1.2154742108	-0.278983
C	 2.1278278016	-0.2189970919	-1.1875580821	-0.105741
C	 2.700335407	-0.7264478609	 0.1390828284	 0.184327
O	 2.3287882255	-2.0724875815	 0.3710532383	-0.264421
C	 1.0644656963	-2.0289924949	 1.0394671445	-0.091124
C	 0.7862386381	-0.5180540578	 1.1937156985	 0.028125
O	 2.1174920834	 0.0178589205	 1.1941217663	-0.261664
H	 0.8310107943	 2.0701731828	 0.2002855212	 0.1339
H	-0.5787139645	 1.9376565899	-0.8780210909	 0.124986
H	-0.785883149	 1.8453750005	 0.882012183	 0.113604
H	-0.9463476573	-0.4188491242	-0.0862120977	 0.086112
H	 2.5104636878	-0.813244365	-2.0221275183	 0.11791
H	 2.4367964444	 0.8279918304	-1.3290162673	 0.095191
H	 3.7890527188	-0.6330892272	 0.1895498856	 0.093061
H	 0.3020486421	-2.5351740353	 0.4391648412	 0.114243
H	 1.1551262084	-2.527603424	 2.0107659078	 0.10514
H	 0.3035589061	-0.2487258964	 2.1354405736	 0.089657
155.9813	194.0826	224.1196	238.8949	346.8817	382.8702	447.8057	457.7722	610.8117	683.5495	770.8647	803.2619	840.7475	849.7086	891.0052	917.6168	972.5516	981.6573	997.5553	1030.712	1049.8568	1082.7007	1095.7954	1134.4062	1138.8935	1181.3602	1215.177	1259.7051	1279.3907	1317.8085	1339.2717	1353.1295	1365.5865	1375.7025	1393.8289	1401.9988	1408.9015	1484.6924	1490.0048	1505.8484	1517.1864	2992.6985	3034.2041	3037.8387	3044.393	3080.5277	3083.3764	3092.9094	3099.2768	3113.7077	3134.297
CC1OCC2OCC1O2	C[C@H]1OC[C@@H]2OC[C@H]1O2	
InChI=1S/C6H10O3/c1-4-5-2-8-6(9-5)3-7-4/h4-6H,2-3H2,1H3	InChI=1S/C6H10O3/c1-4-5-2-8-6(9-5)3-7-4/h4-6H,2-3H2,1H3/t4-,5-,6-/m1/s1
