22
gdb 116631	3.14654	0.98817	0.82131	2.7631	85.97	-0.2398	0.03	0.2697	1507.1729	0.194255	-404.379806	-404.370022	-404.369078	-404.415485	35.517	
C	 0.0546228025	 1.4575480811	 0.5298009892	-0.373463
C	-0.2159695408	 0.4561372316	-0.5892342251	-0.114824
N	-1.5630338024	-0.0954026181	-0.4659469068	-0.343106
C	-1.9307146197	-0.9789311756	-1.2842278675	 0.437179
O	-1.1516810432	-1.4536598145	-2.308077551	-0.252051
C	-1.8371047551	-2.500098132	-3.0121581613	-0.081757
C	-3.3240884663	-2.3091053973	-2.684178827	-0.242619
C	-3.2774891251	-1.6830326866	-1.2769821975	-0.090994
C	-3.3543314819	-2.7095281701	-0.1354121132	-0.39552
H	 1.0610244675	 1.879831323	 0.441864638	 0.100711
H	-0.6691927135	 2.2775176614	 0.4965283862	 0.116648
H	-0.0335707622	 0.9756907797	 1.5084158086	 0.115403
H	-0.0976166911	 0.9441400888	-1.5677631699	 0.100081
H	 0.5321035829	-0.3494720796	-0.5661861194	 0.098999
H	-1.6019301289	-2.4003466615	-4.0744357729	 0.11831
H	-1.4591214502	-3.4693899994	-2.6631203165	 0.111304
H	-3.7775600055	-1.614567851	-3.397618864	 0.113946
H	-3.8825219635	-3.2473765494	-2.7230909453	 0.10749
H	-4.0644614	-0.9393976402	-1.1348404744	 0.102273
H	-2.5942869909	-3.4910241188	-0.2452863405	 0.116295
H	-3.1897300479	-2.2141433868	 0.8245616188	 0.141522
H	-4.3357818947	-3.1938466248	-0.1170534885	 0.114172
28.3135	93.8087	133.5066	150.7537	196.7993	232.5387	250.6947	302.4889	343.2619	382.8269	483.7916	655.3611	692.8194	718.7422	788.1633	810.0974	826.8782	903.5637	924.213	962.0528	986.1334	1039.705	1050.3074	1077.0992	1097.4266	1119.9383	1136.8938	1158.2144	1196.5601	1221.9889	1241.8943	1294.7034	1296.5436	1339.6232	1346.4769	1381.3611	1396.2829	1408.8529	1412.0709	1475.8485	1488.1635	1489.6831	1498.0635	1501.3922	1505.2751	1527.7316	1790.6272	2990.8117	3018.5236	3026.5888	3034.1984	3036.6328	3057.8038	3083.8804	3097.364	3104.1807	3107.909	3111.882	3113.2286	3125.3508
CCN=C1OCCC1C	CCN=C1OCC[C@H]1C	
InChI=1S/C7H13NO/c1-3-8-7-6(2)4-5-9-7/h6H,3-5H2,1-2H3	InChI=1S/C7H13NO/c1-3-8-7-6(2)4-5-9-7/h6H,3-5H2,1-2H3/t6-/m1/s1
