21
gdb 61591	3.35114	0.89976	0.80582	1.727	78.32	-0.2574	0.0776	0.335	1491.244	0.18148	-424.181739	-424.172224	-424.17128	-424.217133	35.085	
O	 0.6585552685	 1.7763949788	-0.2924750773	-0.428104
C	-0.1200623189	 0.6360772004	 0.0583707352	 0.104645
C	-0.0094200604	-0.4928917964	-0.977528512	-0.251103
C	-0.2810531407	-0.0354270889	-2.3943963962	 0.046231
C	 0.8348509491	 0.4573580802	-3.2751549225	-0.240322
C	 0.1806567263	-0.8716138872	-3.5627502084	-0.286329
C	 0.2553615044	 0.226230631	 1.4716037639	 0.056779
C	 0.363305064	-1.1524083478	 1.9627753192	-0.180333
O	 1.535172642	-0.4112638843	 1.6138187008	-0.243973
H	 1.5843842864	 1.5151932935	-0.2203189765	 0.288028
H	-1.1548869516	 1.0026842875	 0.0769336914	 0.087347
H	 0.9926125928	-0.936626094	-0.9129175203	 0.104424
H	-0.7217614059	-1.2833989483	-0.7067827632	 0.096824
H	-1.2373200065	 0.4664619069	-2.5234074244	 0.079418
H	 0.6383408512	 1.2886496012	-3.9427130973	 0.111537
H	 1.8404377976	 0.4482011169	-2.868094395	 0.101964
H	 0.7461965449	-1.7730033471	-3.3482912583	 0.107097
H	-0.4679427002	-0.9530517929	-4.4280348056	 0.109029
H	 0.083752848	 1.0141292542	 2.2063045048	 0.101258
H	 0.2369131892	-1.3476681034	 3.0268596036	 0.116825
H	 0.1314121001	-1.9900846904	 1.3093811881	 0.118759
48.7039	68.4745	91.5178	135.2986	244.6046	257.1158	320.6863	353.1875	377.6472	472.1036	484.6794	622.1742	770.7851	779.7724	807.9613	841.883	857.8733	903.1453	927.1983	945.5128	963.0751	1017.8152	1056.0344	1068.5284	1077.2378	1098.2679	1108.7396	1136.9074	1159.6577	1170.2917	1175.4873	1196.0277	1228.0043	1245.1439	1278.3368	1299.9946	1329.1084	1381.059	1410.6156	1422.224	1436.6972	1469.3157	1487.0699	1508.4058	1532.3911	3013.1911	3027.285	3057.5259	3092.9509	3106.0537	3127.7322	3130.6973	3135.8294	3182.8059	3205.9584	3221.8764	3791.7354
OC(CC1CC1)C1CO1	O[C@@H](CC1CC1)[C@H]1CO1	
InChI=1S/C7H12O2/c8-6(7-4-9-7)3-5-1-2-5/h5-8H,1-4H2	InChI=1S/C7H12O2/c8-6(7-4-9-7)3-5-1-2-5/h5-8H,1-4H2/t6-,7+/m0/s1
