21
gdb 40524	3.86559	1.1465	1.11156	0.3872	89.62	-0.2021	0.0236	0.2257	1210.6147	0.184902	-349.912041	-349.904535	-349.90359	-349.944157	30.874	
C	-0.1760069311	 1.3985489667	-0.1684306685	-0.271965
C	 1.2338324668	 1.0174677243	 0.1746169058	-0.271961
C	 0.1634599901	-0.0589580323	 0.0975502704	-0.139705
C	-0.3145025297	-0.7419604154	 1.3035144634	 0.420994
C	-0.7039816909	-2.0100951686	 1.4966604487	-0.240778
C	-1.0786527121	-2.0540833715	 2.9850599564	-0.056275
C	-1.8815884946	-0.714168147	 3.1101933472	-0.208143
C	-0.4880661566	-0.120691135	 2.7071978729	-0.128392
C	 0.1226152718	-1.2563090719	 3.5983291853	-0.208135
H	-0.7608293396	 1.9222977879	 0.5796741454	 0.117065
H	-0.4037176447	 1.6817599116	-1.1900835398	 0.1139
H	 1.9826800483	 1.0367128475	-0.6094044062	 0.113897
H	 1.6105226633	 1.2812937967	 1.1567032974	 0.117068
H	 0.2053523788	-0.6954194832	-0.7816916762	 0.082637
H	-0.7541045509	-2.8293884441	 0.7933421564	 0.090098
H	-1.4356224755	-2.992456384	 3.4085818434	 0.056313
H	-2.7138288573	-0.5602422435	 2.4193202748	 0.090859
H	-2.1740673786	-0.4705034081	 4.1371580571	 0.087804
H	-0.2391498214	 0.9308732547	 2.8530532618	 0.056057
H	 0.021316773	-1.0644424064	 4.6718737959	 0.087803
H	 1.130829531	-1.6002026986	 3.3557061183	 0.090859
87.9846	128.8306	164.1962	341.6767	409.9074	494.2541	496.2211	583.4178	641.1071	775.8655	776.6251	784.6664	820.6682	828.7406	841.5987	868.2246	870.5402	908.4018	920.0995	934.5831	1002.8421	1009.2321	1030.0116	1056.1597	1065.335	1074.0965	1084.7545	1107.8236	1108.3452	1132.9525	1195.4693	1199.8991	1219.6815	1226.0338	1234.3294	1236.3713	1256.1384	1272.1963	1334.8837	1387.5428	1467.0819	1475.8109	1497.7206	1511.8043	1678.4743	3036.408	3046.5445	3108.2604	3110.8352	3115.6478	3119.1539	3133.0196	3136.2681	3146.9785	3212.2025	3226.9424	3227.5484
C1CC1C1=CC2CC1C2	C1CC1C1=C[C@@H]2C[C@H]1C2	
InChI=1S/C9H12/c1-2-7(1)9-5-6-3-8(9)4-6/h5-8H,1-4H2	InChI=1S/C9H12/c1-2-7(1)9-5-6-3-8(9)4-6/h5-8H,1-4H2/t6-,8+
