15
gdb 29620	3.25054	1.42306	1.00983	2.6784	71.28	-0.1835	0.003	0.1865	1103.9219	0.113883	-453.969269	-453.961529	-453.960585	-454.001887	29.539	
O	-0.2040996779	 1.0317887129	 0.9608384003	-0.460444
C	-0.0705736439	-0.210168965	 0.4548046803	 0.20583
C	-0.2178366854	-0.5320386381	-0.8789291339	-0.158375
N	 0.0327607429	-1.8780273586	-1.03076796	-0.241153
C	 0.3234397459	-2.4420698149	 0.1746921962	-0.151016
C	 0.2681753939	-1.4370556998	 1.116885863	 0.199114
O	 0.5972384326	-1.7331290274	 2.4392221622	-0.228599
C	 0.19040078	-1.0309980128	 3.4885101838	 0.134216
N	-0.473975033	 0.0514676549	 3.4468510739	-0.485147
H	-0.3903112726	 0.913904871	 1.9220476298	 0.310425
H	-0.4704350126	 0.1021783955	-1.7110164876	 0.121903
H	-0.0046674695	-2.3740835309	-1.9019840996	 0.265039
H	 0.5551766362	-3.4869448042	 0.2908085894	 0.125848
H	 0.5256761499	-1.534102609	 4.3983355224	 0.121133
H	-0.6639978665	 0.4031244363	 4.3802968298	 0.241226
45.788	202.5395	255.6385	284.1725	321.4154	344.1757	421.8469	469.6307	586.1756	593.3037	627.6186	707.9441	721.4407	733.977	753.836	793.9646	801.3986	889.1705	1026.8102	1072.8561	1089.7692	1133.4921	1186.7074	1250.9951	1331.7439	1333.8538	1394.0163	1419.7	1490.2449	1509.2521	1563.6428	1657.6479	1707.7169	3112.4834	3278.7093	3282.3132	3345.0577	3543.9649	3703.8267
OC1=CNC=C1OC=N	Oc1c[nH]cc1O[CH][NH]	
InChI=1S/C5H6N2O2/c6-3-9-5-2-7-1-4(5)8/h1-3,6-8H	InChI=1S/C5H6N2O2/c6-3-9-5-2-7-1-4(5)8/h1-3,6-8H
