13
gdb 42626	2.85116	1.95972	1.4058	5.1124	61.64	-0.2378	-0.0886	0.1492	870.4611	0.089538	-456.537235	-456.530828	-456.529884	-456.568189	24.839	
O	-0.003230498	 0.0001640965	-0.2006405833	-0.294209
C	-0.0392431783	 1.1854891663	-0.0117580992	 0.338636
C	-1.2299666781	 2.0755524725	 0.1088342868	-0.217506
C	-1.2161910588	 3.136451442	 1.2080631364	 0.11022
O	 0.0792844936	 3.2697485299	 1.7897756064	-0.298609
C	 0.6379993793	 3.4835342786	 0.4502063191	-0.035791
C	-0.7840092094	 3.5304974525	-0.1555043793	-0.179164
C	 1.211946696	 2.1239830437	 0.0588883367	 0.345968
O	 2.346687463	 1.8127540054	-0.1602751671	-0.28266
H	-2.1953721548	 1.7349778514	-0.2426703128	 0.128546
H	-2.0841875501	 3.3630358363	 1.8142707535	 0.13604
H	 1.3025509352	 4.3428280164	 0.3938892207	 0.118292
H	-1.1878179194	 4.1848338385	-0.9138507178	 0.130237
106.6003	192.5538	307.3388	387.1478	471.7434	507.5798	607.656	660.1284	716.6343	767.8489	782.6847	808.8692	855.599	902.0982	932.7413	961.1222	999.2756	1034.8731	1047.6382	1059.6712	1116.2505	1190.6808	1206.9504	1232.7831	1252.7684	1308.0935	1373.323	1847.8478	1873.38	3150.4712	3200.5953	3210.581	3229.0708
O=C1C2C3OC(C23)C1=O	O=C1[C@H]2[C@H]3O[C@H]([C@@H]23)C1=O	
InChI=1S/C6H4O3/c7-3-1-2-5(1)9-6(2)4(3)8/h1-2,5-6H	InChI=1S/C6H4O3/c7-3-1-2-5(1)9-6(2)4(3)8/h1-2,5-6H/t1-,2-,5+,6+/m0/s1
