18
gdb 114722	2.5871	1.54771	1.23331	1.4483	72.6	-0.2329	-0.0342	0.1987	1068.5704	0.147791	-439.06609	-439.057834	-439.056889	-439.09909	30.786	
C	-0.5985244248	 0.8125693082	 0.1017951582	-0.246467
O	 0.0212280431	-0.451478072	-0.0782880884	-0.244239
C	 0.8824319824	-0.5151559583	-1.2064368669	-0.029772
C	 1.6886101886	-1.8189684589	-1.1895223924	-0.190543
N	 1.0464888891	-2.8073074845	-2.0992566147	-0.102603
C	-0.3602038681	-3.0168530011	-1.7988788602	-0.24242
C	 0.0389573932	-2.0745152619	-2.8982352314	-0.148463
C	 0.0500285996	-0.6321754227	-2.514298899	 0.422556
O	-0.4622337171	 0.2852558276	-3.1072287469	-0.333316
H	 0.1553023998	 1.6030096401	 0.2338071523	 0.11121
H	-1.2399832655	 1.0823035786	-0.7449260855	 0.139298
H	-1.2024127736	 0.7383572217	 1.0088431203	 0.129014
H	 1.5205053553	 0.3779563265	-1.2497644039	 0.093354
H	 2.6976736372	-1.6400169419	-1.5720870169	 0.120646
H	 1.7651471486	-2.2297907145	-0.1801194808	 0.127909
H	-0.7542091414	-3.9862855108	-2.0895893533	 0.129413
H	-0.7715692798	-2.5930335106	-0.8874618668	 0.14809
H	-0.1026292167	-2.3417530457	-3.9393196337	 0.116335
85.4607	122.2458	173.9399	206.4203	248.1035	326.0561	389.1252	396.9912	457.9332	587.5781	695.0464	717.0576	774.0715	809.4561	870.0085	881.788	962.1814	989.1742	1021.6258	1056.6599	1089.8689	1118.2497	1128.3827	1162.8481	1186.5772	1195.2848	1219.2202	1245.6616	1249.0892	1281.1019	1320.7725	1352.9232	1374.8451	1475.5109	1479.6626	1485.343	1501.7207	1514.0703	1830.0159	2994.3702	3014.9228	3062.4863	3068.9973	3114.8054	3116.9043	3125.8067	3182.0538	3210.387
COC1CN2CC2C1=O	CO[C@H]1CN2C[C@H]2C1=O	
InChI=1S/C6H9NO2/c1-9-5-3-7-2-4(7)6(5)8/h4-5H,2-3H2,1H3	InChI=1S/C6H9NO2/c1-9-5-3-7-2-4(7)6(5)8/h4-5H,2-3H2,1H3/t4-,5-,7?/m0/s1
