21
gdb 91652	2.51807	1.64124	1.34834	1.8318	77.69	-0.2425	0.0679	0.3105	1066.5244	0.182081	-424.21304	-424.204289	-424.203344	-424.245551	34.841	
C	-0.2565045848	 1.537303471	-0.0039426648	-0.428101
C	 0.049356332	 0.0407909839	 0.0144165634	 0.049083
C	 0.8997333132	-0.5290454249	-1.1744082205	-0.248294
C	 1.9385495662	-1.2980270833	-0.3382117553	 0.01073
O	 1.1290677423	-1.8871633924	 0.7274636538	-0.305556
C	 0.9463279808	-0.4985085252	 1.1543716019	 0.009864
C	 2.4161561376	-0.2489156535	 0.7147052288	 0.429657
C	 3.4622962925	-0.7654951866	 1.6908684968	-0.477425
O	 2.7186395069	 1.0570137245	 0.2774603835	-0.475872
H	 0.6540132593	 2.1337805825	-0.071556847	 0.143335
H	-0.8965695406	 1.7848612347	-0.8576681655	 0.109941
H	-0.7953323801	 1.8352897622	 0.9030067772	 0.105495
H	-0.8927148358	-0.5131236164	 0.0792488922	 0.078464
H	 0.3306254585	-1.1928141845	-1.8283096911	 0.098215
H	 1.3621868105	 0.2589897828	-1.7740122513	 0.104944
H	 2.6111449855	-2.0044938767	-0.827623903	 0.069056
H	 0.6117279773	-0.38902096	 2.1875465583	 0.069821
H	 3.2071302313	-1.7661754299	 2.0407754202	 0.148541
H	 4.4470269566	-0.8133166063	 1.2073310611	 0.105126
H	 3.5416277742	-0.0946218496	 2.5526679391	 0.121658
H	 3.6752450166	 1.1453235379	 0.2239793619	 0.281318
175.2429	187.5658	210.3805	214.7225	244.0946	256.5945	320.7904	385.5339	393.9936	446.5504	534.3903	582.8447	642.311	705.7296	827.1127	839.1876	865.1245	890.8508	914.4981	926.4837	957.6158	972.7187	1028.6931	1041.4031	1068.9118	1110.094	1123.8784	1155.2881	1186.9131	1200.0393	1228.0638	1246.2811	1253.3926	1292.5789	1305.9264	1323.3269	1369.1797	1399.3645	1408.6597	1410.1501	1479.1692	1492.6995	1497.6763	1502.4846	1510.6667	3020.6368	3032.4069	3049.5423	3069.2707	3085.4865	3086.9438	3104.8654	3109.6244	3121.901	3146.6684	3148.3024	3819.6141
CC1CC2OC1C2(C)O	C[C@H]1C[C@@H]2O[C@H]1[C@]2(C)O	
InChI=1S/C7H12O2/c1-4-3-5-7(2,8)6(4)9-5/h4-6,8H,3H2,1-2H3	InChI=1S/C7H12O2/c1-4-3-5-7(2,8)6(4)9-5/h4-6,8H,3H2,1-2H3/t4-,5-,6+,7+/m0/s1
