16
gdb 22611	2.28383	1.60468	1.04349	2.1393	69.37	-0.246	-0.0095	0.2365	1125.7721	0.121685	-474.933006	-474.924249	-474.923304	-474.966329	32.554	
C	-0.1325959517	 1.4984670076	 0.0294163552	-0.512295
C	 0.1576106695	 0.0392782054	-0.0595222227	 0.337693
O	-0.7154994957	-0.894160784	 0.644591516	-0.295191
C	 0.6904698428	-0.949823955	 0.9119257078	-0.094601
C	 1.2710525122	-1.8437152217	-0.2114398804	 0.033068
O	 0.7864212784	-3.1495217977	-0.2871255159	-0.423026
C	 0.7312808742	-0.7631359581	-1.1868301276	 0.33783
N	 0.8268126437	-0.4748775508	-2.4153092432	-0.261336
O	 1.5137656349	-1.4653980969	-3.128431403	-0.378297
H	 0.7411719589	 2.0791818841	-0.2799921229	 0.13888
H	-0.9636950413	 1.7649516954	-0.6309780784	 0.146374
H	-0.4016856324	 1.7717650081	 1.0525491475	 0.137693
H	 1.0171231047	-0.8174443754	 1.9369897758	 0.115153
H	 2.3636371341	-1.8900694006	-0.2308216509	 0.115205
H	-0.1737738461	-3.08466093	-0.20181706	 0.292964
H	 1.513926514	-1.1108346304	-4.0243715374	 0.309884
92.3007	149.8393	173.0815	195.1773	223.9867	286.8952	335.9077	389.9431	454.3523	477.8259	534.1415	572.8811	637.9133	698.8178	746.2237	816.501	835.35	915.9281	985.1482	995.0183	1026.1636	1052.9844	1091.7498	1135.7354	1182.4333	1245.0702	1260.1054	1293.3977	1389.3148	1412.4252	1430.3182	1467.9768	1481.3507	1491.7371	1783.8648	3046.2033	3085.6818	3112.6051	3131.0168	3189.7205	3773.102	3813.3718
CC12OC1C(O)C2=NO	C[C@]12O[C@H]1[C@@H](O)C2=NO	
InChI=1S/C5H7NO3/c1-5-3(6-8)2(7)4(5)9-5/h2,4,7-8H,1H3	InChI=1S/C5H7NO3/c1-5-3(6-8)2(7)4(5)9-5/h2,4,7-8H,1H3/t2-,4-,5+/m0/s1
