16
gdb 99017	5.18916	0.70083	0.62226	8.2783	64.74	-0.2452	-0.0195	0.2257	1694.3341	0.120228	-512.181461	-512.170782	-512.169838	-512.22054	34.784	
O	 0.2491082519	 1.2765214468	 0.0056857089	-0.383966
C	-0.0145965283	-0.0972151466	 0.0024893088	-0.19604
C	-1.5366954664	-0.3002624059	 0.0150740468	 0.420651
O	-2.3306452329	 0.5961628558	 0.0270236576	-0.274044
N	-1.8672392013	-1.6649769096	 0.0105380388	-0.408794
C	-3.1488681337	-2.2386136555	 0.0201405783	 0.420652
O	-4.174894599	-1.6212526693	 0.0347010711	-0.274045
C	-3.0712384733	-3.7722495044	 0.0099941702	-0.19604
O	-4.373883812	-4.2818370439	 0.0217385816	-0.383966
H	 1.2028428392	 1.3990616366	-0.0034420847	 0.296018
H	 0.3898097902	-0.6061342024	-0.890368796	 0.108407
H	 0.4050614802	-0.6131886913	 0.8842087308	 0.108542
H	-1.0904109179	-2.3111131785	-0.000851191	 0.249659
H	-2.502402276	-4.0786304965	-0.885702205	 0.108529
H	-2.4822674036	-4.0894148049	 0.8888075499	 0.10842
H	-4.3206576971	-5.2419373704	 0.0126129739	 0.296018
10.5459	39.3278	69.672	82.9643	119.7135	203.3155	209.4655	260.5977	289.6996	341.0799	396.5151	537.557	544.5562	624.1614	652.2465	713.2607	858.5309	963.1695	1028.6859	1030.791	1106.5161	1141.4153	1153.1629	1175.1412	1239.9407	1240.8694	1254.9631	1255.8597	1438.5226	1444.2927	1506.9916	1507.5544	1515.2005	1836.1694	1891.2002	2942.8416	2943.5392	2966.742	2967.4657	3593.2025	3838.2421	3838.3559
OCC(=O)NC(=O)CO	OCC(=O)NC(=O)CO	
InChI=1S/C4H7NO4/c6-1-3(8)5-4(9)2-7/h6-7H,1-2H2,(H,5,8,9)	InChI=1S/C4H7NO4/c6-1-3(8)5-4(9)2-7/h6-7H,1-2H2,(H,5,8,9)
