23
gdb 114277	3.1572	1.13419	1.01441	0.4618	92.37	-0.2196	0.0262	0.2458	1319.6162	0.207283	-351.14778	-351.139107	-351.138163	-351.181045	34.164	
C	 0.1487628847	 1.6638181552	 0.0426412928	-0.384256
C	-0.1092445968	 0.1599623331	-0.1001554519	-0.174785
C	 0.6506746565	-0.4701658595	-1.2628959671	-0.003148
C	 2.1992455684	-0.6713911527	-0.9951401314	-0.345181
C	 1.8521127897	-2.1107289291	-0.7014084115	 0.325767
C	 1.9323582139	-3.0894329168	 0.1931491814	-0.239485
C	 0.67208092	-3.9493346422	 0.1078999418	-0.234598
C	-0.3636212119	-3.0113109716	-0.6018543767	-0.247792
C	 0.5284805218	-2.0450457851	-1.4081119491	-0.053113
H	 1.2111353474	 1.8744791135	 0.2053517766	 0.116945
H	-0.1598248415	 2.204617849	-0.8589763563	 0.113254
H	-0.4053026499	 2.0827734249	 0.8884844868	 0.111182
H	 0.1633542054	-0.3508740342	 0.8323966836	 0.098972
H	-1.1845222048	-0.0108466523	-0.2403190802	 0.095698
H	 0.4293999462	 0.074246223	-2.1868438361	 0.06215
H	 2.7866321751	-0.5354302375	-1.9092030283	 0.106416
H	 2.659865044	-0.0880490237	-0.1929091865	 0.10598
H	 2.7086738972	-3.2473076165	 0.9331793079	 0.086742
H	 0.8394442466	-4.8694270726	-0.4704807011	 0.101256
H	 0.3261573547	-4.2692092544	 1.0971614989	 0.097947
H	-1.0804543742	-3.5640578475	-1.2158833814	 0.089747
H	-0.9355320258	-2.4690705668	 0.1583871715	 0.102082
H	 0.5790236934	-2.3172159863	-2.4698929839	 0.068222
82.4333	120.6921	173.2579	218.3759	242.6705	285.64	353.2367	395.7499	481.3427	589.3974	649.1696	739.4585	766.7576	789.5086	800.4035	837.1087	861.4781	895.958	919.6907	933.4211	954.9034	967.5453	1019.2691	1040.5848	1061.0572	1092.5531	1096.8075	1128.4451	1134.3973	1179.7421	1203.6354	1216.9149	1231.1484	1255.3911	1268.1734	1295.1968	1305.9753	1332.5098	1333.9221	1342.6177	1390.4458	1410.2221	1473.4182	1484.7912	1491.0162	1499.7286	1501.273	1507.2379	1735.9043	3002.2824	3015.1505	3016.4363	3030.4541	3038.1872	3045.711	3047.3013	3056.2875	3060.3956	3093.7956	3095.1513	3098.9676	3102.054	3193.9358
CCC1CC2=CCCC12	CC[C@H]1C[C]2[CH]CC[C@@H]12	
InChI=1S/C9H14/c1-2-7-6-8-4-3-5-9(7)8/h4,7,9H,2-3,5-6H2,1H3	InChI=1S/C9H14/c1-2-7-6-8-4-3-5-9(7)8/h4,7,9H,2-3,5-6H2,1H3/t7-,9-/m0/s1
