13
gdb 36765	6.54185	0.49486	0.46273	5.6083	78.61	-0.2999	-0.0679	0.2319	2135.6153	0.087497	-415.578234	-415.569043	-415.568098	-415.613929	30.127	
N	-0.0765890617	-1.1268117221	-0.0034601472	-0.280147
C	-0.0259094087	 0.0261646035	 0.0022665618	 0.274553
C	-0.0090954104	 1.4897044104	 0.0098490003	-0.181473
O	 1.3310554053	 1.9318680522	-0.0003714782	-0.232742
C	 1.4170677413	 3.3459859444	 0.0064140419	-0.220316
C	 2.815152281	 3.7443460221	-0.0046970233	 0.018635
C	 3.9650141419	 4.1084972018	-0.013635376	 0.14162
C	 5.2674330642	 4.520037795	-0.0237661935	 0.214974
N	 6.3730698461	 4.8747098849	-0.0323386456	-0.324461
H	-0.5611463945	 1.8552031483	-0.8709901383	 0.149363
H	-0.5445049891	 1.8458004906	 0.9047005059	 0.149356
H	 0.9079467049	 3.7749759282	-0.8732479841	 0.145318
H	 0.9247532597	 3.7654400807	 0.9001286861	 0.14532
54.2725	66.3162	79.7548	148.6221	153.7359	249.9383	321.1447	355.9601	384.0658	438.6175	570.7583	574.8727	597.3449	753.3361	962.6849	1007.1164	1021.6508	1046.9057	1137.7856	1180.9562	1245.4945	1256.7705	1374.2451	1443.3786	1484.6881	1502.9238	2275.0262	2377.9837	2411.0279	2960.7221	2977.9113	2984.4546	3006.4323
N#CCOCC#CC#N	N#CCOCC#CC#N	
InChI=1S/C6H4N2O/c7-3-1-2-5-9-6-4-8/h5-6H2	InChI=1S/C6H4N2O/c7-3-1-2-5-9-6-4-8/h5-6H2
