16
gdb 27695	2.87736	1.28735	0.89937	3.9883	81.65	-0.2344	-0.0256	0.2088	1254.8237	0.124808	-397.008465	-396.999472	-396.998528	-397.043176	31.432	
C	 0.0563661559	 1.4630595801	 0.0458363549	-0.503695
C	 0.0299055307	-0.0264584776	-0.0189848947	 0.344389
N	 0.0561573701	-0.7506480937	-1.1241837691	-0.332204
C	 0.0180038021	-2.0634078198	-0.7372208394	 0.201202
C	 0.0321486717	-3.1857025991	-1.7186517029	-0.499857
C	-0.0329169146	-2.1375406456	 0.6435786683	 0.146033
N	-0.0243016009	-0.8194788758	 1.0827259147	-0.358948
C	-0.0849844914	-3.2376108745	 1.5200873283	 0.197779
N	-0.1280380397	-4.1446206966	 2.2422861162	-0.354347
H	 0.9383209936	 1.8282545801	 0.5836031383	 0.142822
H	 0.0827878941	 1.8553495935	-0.9709568511	 0.166163
H	-0.8302538452	 1.8611894305	 0.5513549853	 0.142058
H	 0.9367283732	-3.1479302472	-2.3342038385	 0.144607
H	-0.0046395223	-4.1529462163	-1.2123550939	 0.141312
H	-0.8236954247	-3.1142039782	-2.3976714312	 0.144617
H	-0.0534096326	-0.5238722997	 2.0449171049	 0.278068
37.1833	102.5636	134.0803	134.2142	213.0883	258.429	313.7428	390.2105	523.3277	525.6585	546.8349	575.3271	637.9922	692.1309	708.6566	788.824	986.3974	1015.095	1053.0988	1061.8166	1063.7008	1173.9123	1216.7348	1306.6239	1400.3947	1412.1636	1431.2848	1432.021	1475.5932	1482.3221	1483.7716	1500.1684	1559.424	1604.2551	2330.1273	3037.4986	3042.0024	3090.1665	3099.1024	3131.0058	3155.4481	3657.8167
CC1=NC(C)=C(N1)C#N	Cc1nc(C)c([nH]1)C#N	
InChI=1S/C6H7N3/c1-4-6(3-7)9-5(2)8-4/h1-2H3,(H,8,9)	InChI=1S/C6H7N3/c1-4-6(3-7)9-5(2)8-4/h1-2H3,(H,8,9)
