19
gdb 97584	2.43032	0.94018	0.74573	1.8986	79.88	-0.2519	0.03	0.2819	1556.576	0.156878	-422.965983	-422.955723	-422.954779	-423.002909	35.616	
C	-0.3105647984	 1.5641002874	 0.3042486492	-0.38504
C	 0.0351091094	 0.0860676067	 0.021136043	-0.201704
C	 0.859345886	-0.4855073492	 1.0836360325	 0.091384
C	 1.5376861186	-0.959647772	 1.9592363854	 0.032869
C	 2.2745969881	-1.5714226694	 3.0648260988	-0.192026
O	 1.5586938308	-2.6299481621	 3.6880162317	-0.403018
C	-1.2470505519	-0.7111832231	-0.2106229016	 0.108685
C	-1.442713943	-2.100435712	 0.2137339587	-0.193058
O	-2.0416620178	-1.0131365584	 0.9315980208	-0.235354
H	 0.5979620953	 2.1560106944	 0.4375916977	 0.125619
H	-0.8817351774	 1.9878234939	-0.5279866283	 0.114701
H	-0.9127348401	 1.6404699836	 1.2130783973	 0.142175
H	 0.6025676246	 0.040202972	-0.9202180889	 0.109447
H	 3.2078679388	-2.0165297589	 2.7021184704	 0.138243
H	 2.5566363517	-0.7942326403	 3.7931182554	 0.117712
H	 0.6861693585	-2.2898931783	 3.9136504545	 0.290698
H	-1.8203541559	-0.3525221524	-1.0683809246	 0.092569
H	-2.1380319614	-2.7353765263	-0.333392483	 0.113362
H	-0.6416447161	-2.6126547156	 0.741337221	 0.132735
33.0006	52.4423	77.8746	126.8361	186.1326	226.9284	249.0374	274.0514	320.9778	375.7055	426.1661	516.0063	543.9084	648.5852	712.0125	805.041	866.6434	935.0663	981.2239	994.9765	1012.0999	1042.0655	1075.1709	1089.9654	1114.9356	1163.66	1172.1058	1191.3168	1213.908	1291.5025	1307.9633	1348.9276	1358.2647	1401.2741	1418.7161	1427.4766	1492.1455	1494.7295	1501.4018	1522.3931	2361.6417	2976.3439	2999.8525	3043.3678	3060.9011	3084.2603	3093.3174	3117.2982	3132.9676	3186.9976	3811.7874
CC(C#CCO)C1CO1	C[C@@H](C#CCO)[C@H]1CO1	
InChI=1S/C7H10O2/c1-6(3-2-4-8)7-5-9-7/h6-8H,4-5H2,1H3	InChI=1S/C7H10O2/c1-6(3-2-4-8)7-5-9-7/h6-8H,4-5H2,1H3/t6-,7+/m0/s1
