17
gdb 91986	2.39867	1.71158	1.11672	5.3288	72.74	-0.2356	0.023	0.2586	1077.708	0.136235	-417.989482	-417.981426	-417.980482	-418.022217	29.932	
C	-0.0932206808	 1.5146711858	 0.0969746623	-0.332273
N	-0.0489940221	 0.068787559	 0.1480422625	-0.058838
C	-1.3263046731	-0.6211381066	-0.0235205341	-0.194829
C	-1.0746377061	-2.0028854373	 0.5381113052	 0.032058
O	 0.1442420255	-2.6034839663	 0.086353397	-0.230194
C	 0.1442186081	-1.9480653265	 1.34749508	 0.021293
C	 0.6480089264	-0.5070190095	 1.2964910937	-0.147242
C	 2.1071800483	-0.3853954909	 1.1555654916	 0.307772
N	 3.2545695059	-0.2786200924	 1.0773227212	-0.32661
H	 0.923076724	 1.9172992254	 0.1417512185	 0.145398
H	-0.5376790237	 1.8320868747	-0.8510097524	 0.131358
H	-0.6817438987	 1.9638137594	 0.9193551253	 0.096621
H	-2.1523876806	-0.1591274713	 0.5501824029	 0.091471
H	-1.6144044592	-0.6256320543	-1.0810907034	 0.126228
H	-1.8986284714	-2.6804371063	 0.7391928241	 0.11251
H	 0.3456510635	-2.5571096215	 2.2229053616	 0.120691
H	 0.3738050141	-0.0328803615	 2.2603923541	 0.104587
92.5006	142.1521	157.7818	233.3088	309.2018	333.0017	350.6408	396.792	502.3808	548.4699	680.4492	701.4647	840.4369	867.1845	881.0642	907.5805	973.0437	1004.1599	1052.3892	1069.7767	1078.4949	1114.3304	1149.1039	1202.7064	1231.9688	1246.0943	1261.7371	1302.7346	1331.3161	1353.2422	1378.7191	1440.4632	1463.7077	1488.7732	1503.3176	1511.537	2363.7034	2899.4345	2925.2254	2931.7262	3053.0953	3069.1529	3113.5103	3164.9615	3177.2084
CN1CC2OC2C1C#N	CN1C[C@H]2O[C@H]2[C@H]1C#N	
InChI=1S/C6H8N2O/c1-8-3-5-6(9-5)4(8)2-7/h4-6H,3H2,1H3	InChI=1S/C6H8N2O/c1-8-3-5-6(9-5)4(8)2-7/h4-6H,3H2,1H3/t4-,5-,6+/m1/s1
