21
gdb 102820	1.74438	1.29199	0.79747	4.1666	80.36	-0.2721	0.012	0.2841	1473.3292	0.180465	-424.243797	-424.233704	-424.23276	-424.279848	35.913	
C	 0.2520581792	 1.4965965495	 0.2969525729	-0.39813
C	 0.0614450261	-0.015694155	 0.1634695813	-0.177095
C	-1.3980143763	-0.4383843445	-0.0065981059	 0.086583
O	-1.8754799203	 0.1498826	-1.2404697701	-0.189272
C	-3.0966103223	 0.7076288087	-1.2588276441	 0.171322
O	-3.5924897768	 1.1557437501	-2.2494715374	-0.280948
C	-1.5815072324	-1.9349235391	-0.0693458538	 0.028407
C	-1.7268107576	-2.7252489238	 1.2067859686	-0.27018
C	-2.907139267	-2.5587629429	 0.2838966625	-0.279654
H	 1.3094731588	 1.7452203269	 0.4244729325	 0.118818
H	-0.1120103757	 2.0179147005	-0.5922200088	 0.139583
H	-0.2881989873	 1.8905573502	 1.1654464027	 0.112069
H	 0.6300409437	-0.3932093272	-0.6947404069	 0.113205
H	 0.4520400409	-0.5285803581	 1.0496481562	 0.107215
H	-1.9960906572	-0.0342650714	 0.8245550282	 0.078305
H	-3.5802597786	 0.7185346373	-0.2617804883	 0.070266
H	-1.0242617345	-2.4063940855	-0.8739927815	 0.098239
H	-1.244699197	-3.6941757014	 1.2669880388	 0.120518
H	-1.7386444388	-2.1795186263	 2.1451061725	 0.114484
H	-3.7109595027	-1.9049544343	 0.6070447562	 0.113135
H	-3.2393526543	-3.4132121836	-0.2942312356	 0.12313
53.4704	72.8294	97.861	150.1222	164.3136	185.7126	256.2535	276.432	329.7768	415.19	425.2214	502.9614	643.0671	775.8457	792.6375	831.6157	870.8609	908.6349	947.4702	979.7482	984.8952	1046.9962	1049.058	1057.7086	1081.5832	1108.8839	1135.7768	1136.9066	1185.6143	1197.0015	1224.9431	1227.2608	1286.3091	1310.7305	1354.748	1386.9571	1411.697	1424.0759	1443.0024	1470.0528	1477.9762	1498.6921	1505.2083	1509.4792	1861.2723	2936.7258	2992.0795	3035.8988	3038.3468	3075.2318	3104.5045	3123.5662	3130.6194	3135.0577	3151.1544	3210.1217	3224.8231
CCC(OC=O)C1CC1	CC[C@@H](OC=O)C1CC1	
InChI=1S/C7H12O2/c1-2-7(9-5-8)6-3-4-6/h5-7H,2-4H2,1H3	InChI=1S/C7H12O2/c1-2-7(9-5-8)6-3-4-6/h5-7H,2-4H2,1H3/t7-/m1/s1
