19
gdb 70923	3.65418	1.49255	1.29531	1.8341	81.12	-0.2273	0.0067	0.234	1033.5638	0.159269	-385.808213	-385.800814	-385.79987	-385.839428	30.691	
C	-0.2358632611	 1.4881102559	-0.062042791	-0.51323
C	 0.0522003644	 0.0196761447	-0.0389126125	 0.354485
C	 0.514365001	-0.9312843541	-1.1476253074	-0.298967
C	 0.0574237667	-1.7711210162	 0.0775728423	 0.435814
C	 0.4733566982	-3.1976453293	 0.3518776258	-0.41175
C	 1.9178671735	-2.8783379766	 0.7897770944	-0.035695
C	 2.134846428	-1.5840787591	 1.0887360788	-0.163405
C	 0.8152814819	-0.8542779061	 1.0321489169	-0.067606
O	-1.1387504378	-0.9040195644	 0.1803469291	-0.409765
H	 0.6886830774	 2.0463186145	-0.2401776216	 0.126758
H	-0.9462407354	 1.7284683345	-0.8589259637	 0.133652
H	-0.6592660193	 1.8134878254	 0.8927594882	 0.132788
H	-0.1512322443	-0.9874627152	-2.010189272	 0.09774
H	 1.5724253382	-0.9390555407	-1.4152280237	 0.098352
H	-0.0936248628	-3.6649243665	 1.1678049941	 0.125247
H	 0.4276293514	-3.8628530197	-0.5161170423	 0.113676
H	 2.6698384274	-3.6586249495	 0.8491952576	 0.099146
H	 3.0814062072	-1.1873168885	 1.4387520668	 0.095684
H	 0.3468698954	-0.7492316092	 2.0171644102	 0.087078
194.9436	207.9206	225.0816	272.6133	360.8357	425.3885	471.1491	520.7932	573.295	626.0458	666.0913	694.1601	733.1672	803.8374	838.8642	891.545	903.1533	940.9365	961.0922	971.39	1011.7018	1043.0389	1056.9139	1071.746	1096.8492	1123.5542	1137.4936	1148.1229	1180.5424	1224.8436	1253.2099	1271.7631	1294.3717	1354.4959	1379.9331	1411.835	1475.1764	1476.4683	1487.5376	1500.2285	1612.788	3027.0943	3038.8269	3044.8798	3071.5102	3079.2639	3113.4218	3115.8322	3147.5624	3176.9056	3200.6135
CC12CC3(CC=CC13)O2	C[C@@]12C[C@]3(CC=C[C@@H]13)O2	
InChI=1S/C8H10O/c1-7-5-8(9-7)4-2-3-6(7)8/h2-3,6H,4-5H2,1H3	InChI=1S/C8H10O/c1-7-5-8(9-7)4-2-3-6(7)8/h2-3,6H,4-5H2,1H3/t6-,7+,8-/m0/s1
