25
gdb 60061	2.86049	1.04979	0.91051	0.9984	89.47	-0.2363	0.078	0.3143	1453.2126	0.226497	-389.489114	-389.478522	-389.477578	-389.524663	40.233	
C	-3.3868727596	 1.2787024735	-0.1332063329	-0.382821
C	-2.3185320971	 0.5802790582	-0.9747253547	 0.132132
C	-1.3724605783	 1.5855027476	-1.6358143857	-0.380018
O	-1.58030406	-0.2869651476	-0.1085531017	-0.315847
C	-1.4321046299	-1.6358398964	-0.5065272281	 0.430414
C	-0.5436964065	-1.7872290838	-1.7416903475	-0.439219
C	-0.9642210599	-2.5140253967	 0.6828607116	-0.259972
C	-2.0208504439	-3.5784507396	 0.2832615621	-0.222097
C	-2.7342089025	-2.502578775	-0.5799233785	-0.265185
H	-3.9697727476	 1.9785853258	-0.7407553609	 0.107284
H	-4.071263873	 0.5497301518	 0.3092108729	 0.114823
H	-2.9150079994	 1.8383480841	 0.6808907411	 0.122137
H	-2.816321434	-0.0151986132	-1.7532125806	 0.072665
H	-0.8490287942	 2.1643359359	-0.867976849	 0.121275
H	-0.6218655071	 1.0820598319	-2.2500764089	 0.114642
H	-1.9271879546	 2.2822505467	-2.2733066728	 0.107238
H	 0.4294038225	-1.3178360208	-1.5663904493	 0.119689
H	-0.3782769478	-2.8445411276	-1.9729708376	 0.112837
H	-0.9988419278	-1.3262322511	-2.6243670309	 0.11335
H	 0.0874924608	-2.811249378	 0.7014411916	 0.091575
H	-1.2144574218	-2.0196370985	 1.62408708	 0.108625
H	-1.5971564143	-4.3845497372	-0.321363926	 0.102286
H	-2.6010747515	-4.0275197857	 1.0915738415	 0.099838
H	-3.5480177328	-2.0206992044	-0.0323773668	 0.104664
H	-3.0938383898	-2.7985202799	-1.5691011389	 0.089687
52.0111	73.2083	142.6624	175.0008	205.9755	245.8815	280.3731	296.9605	313.7239	332.8131	388.6639	447.2243	462.7093	482.7012	652.393	715.0787	794.6254	834.8835	862.5808	900.9016	916.1499	923.0596	924.6855	935.8938	938.8736	987.9826	1036.6869	1047.3274	1140.6935	1145.0516	1167.3051	1188.9477	1197.4775	1208.4416	1224.3611	1249.6915	1276.3267	1288.7532	1298.9499	1355.0545	1387.6838	1396.3437	1404.2089	1413.9232	1469.3863	1478.853	1480.9905	1483.4255	1491.6697	1492.9718	1498.0439	1506.5339	1507.3161	3001.7145	3030.5467	3034.1987	3039.632	3054.6908	3060.6414	3067.8784	3098.7484	3102.9203	3103.0187	3107.6953	3111.7694	3115.4685	3116.9488	3122.4829	3128.7316
CC(C)OC1(C)CCC1	CC(C)OC1(C)CCC1	
InChI=1S/C8H16O/c1-7(2)9-8(3)5-4-6-8/h7H,4-6H2,1-3H3	InChI=1S/C8H16O/c1-7(2)9-8(3)5-4-6-8/h7H,4-6H2,1-3H3
