19
gdb 39406	2.44366	2.16857	1.79034	1.5222	73.43	-0.2395	0.0767	0.3162	875.2482	0.162528	-422.982503	-422.975911	-422.974967	-423.013192	27.704	
C	-0.0644202654	 1.5114781593	 0.0677375736	-0.270429
C	 1.4893546459	 1.459093724	-0.0025937833	 0.096335
O	 2.1707482243	 1.4693573727	 1.2484222353	-0.259102
C	 1.4179182123	 1.1832606873	 2.3919006788	 0.021999
O	 0.7420547322	-0.0676547735	 2.4118614067	-0.281566
C	 0.5488884781	-0.7829378216	 1.2095010439	 0.108185
C	 1.8336992002	-1.0777841108	 0.3705856287	-0.250557
C	 1.3859246321	 0.0083622144	-0.6127431613	-0.040119
C	-0.0680552533	-0.0195534013	-0.0315533888	-0.049526
H	-0.552289197	 2.0040545959	 0.9105005516	 0.110156
H	-0.4504622049	 1.9522367629	-0.8564006988	 0.105005
H	 1.9843368495	 2.2109096352	-0.620203395	 0.08446
H	 2.1369198519	 1.1722501118	 3.217504584	 0.112901
H	 0.6772053405	 1.9750553567	 2.5761843112	 0.0932
H	-0.0184310477	-1.6644410618	 1.5136917372	 0.087661
H	 2.7910473813	-0.9542277054	 0.878736982	 0.110788
H	 1.7846456216	-2.073326678	-0.0808029689	 0.096233
H	 1.6103453768	-0.0674615985	-1.6774274283	 0.062259
H	-0.9053256184	-0.5310489793	-0.5087228285	 0.062115
124.6041	275.7197	325.0674	399.3084	421.909	487.3216	497.5947	646.0205	706.8389	747.5648	766.676	808.698	842.2764	868.1663	931.4922	954.7255	972.4222	982.8543	1012.6043	1041.3602	1058.764	1072.3389	1112.2279	1129.0897	1132.5438	1172.7197	1197.9272	1223.6662	1230.6278	1252.5344	1268.2751	1285.4977	1292.4636	1296.5772	1313.8883	1372.1503	1383.92	1455.9134	1468.7947	1482.154	1540.6763	2985.0767	3057.1716	3059.2613	3066.8282	3084.8405	3085.9117	3095.7067	3107.6832	3116.5094	3126.5112
C1C2OCOC3CC2C13	C1[C@H]2OCO[C@@H]3C[C@H]2[C@H]13	
InChI=1S/C7H10O2/c1-4-5-2-7(4)9-3-8-6(1)5/h4-7H,1-3H2	InChI=1S/C7H10O2/c1-4-5-2-7(4)9-3-8-6(1)5/h4-7H,1-3H2/t4-,5-,6+,7+/m0/s1
