21
gdb 103336	2.84006	1.32333	1.07397	1.6047	78.94	-0.2411	0.0599	0.301	1204.9534	0.18043	-424.150248	-424.140784	-424.13984	-424.184403	36.021	
C	 0.0570669697	 1.5212291828	-0.2386509058	-0.38664
C	-0.0661718265	 0.0561409979	 0.2018816117	-0.237333
C	-1.4948064403	-0.5098685212	 0.1342354455	 0.350994
C	-2.3905238028	 0.1471747689	 1.1843857483	-0.500073
C	-2.0278527672	-0.7964176123	-1.3150051287	-0.057639
O	-0.9879491204	-1.8384898403	-1.4651304941	-0.305946
C	-1.5584560236	-2.0617844158	-0.1146373093	-0.046824
C	-2.9379749185	-1.9724627402	-0.8118081169	 0.126754
O	-4.1111251391	-1.8236111738	-0.0628634885	-0.421802
H	 1.1022350194	 1.8440969611	-0.2034797225	 0.112958
H	-0.2927126222	 1.6566440055	-1.2680830178	 0.113481
H	-0.5154901377	 2.2008906394	 0.3996406775	 0.115243
H	 0.5871762906	-0.5565426535	-0.4213859737	 0.117554
H	 0.2896465682	-0.0401947998	 1.2361866416	 0.086402
H	-2.4426578954	 1.2276073983	 1.0149402099	 0.114594
H	-3.4038716911	-0.2440886939	 1.1904858263	 0.150282
H	-1.9558701661	 0.0008853235	 2.1801839824	 0.111599
H	-2.1698985207	-0.1140777931	-2.155639481	 0.084334
H	-1.1363479105	-2.877603167	 0.4755267258	 0.087977
H	-3.0383899249	-2.7397320721	-1.5857085782	 0.092163
H	-4.8581205509	-1.8787912043	-0.6661169926	 0.291923
55.4968	125.8328	158.8558	204.2297	221.424	250.0798	315.4675	350.3998	394.3109	401.6872	441.0299	589.4863	644.6222	648.6693	749.0491	785.8108	823.3912	866.4545	879.345	898.6171	925.1715	1014.2559	1023.7646	1057.6613	1076.3621	1101.8787	1135.7251	1146.8232	1160.7482	1187.9735	1218.4198	1223.5648	1261.5831	1276.5406	1310.305	1345.4592	1367.6872	1408.5686	1416.2848	1440.6907	1484.5117	1497.1934	1501.1924	1507.4432	1520.8198	3021.6419	3035.2611	3038.2939	3062.0788	3089.1867	3095.0594	3098.3486	3101.2192	3104.443	3121.3432	3187.8218	3829.9121
CCC1(C)C2OC1C2O	CC[C@@]1(C)[C@H]2O[C@@H]1[C@H]2O	
InChI=1S/C7H12O2/c1-3-7(2)5-4(8)6(7)9-5/h4-6,8H,3H2,1-2H3	InChI=1S/C7H12O2/c1-3-7(2)5-4(8)6(7)9-5/h4-6,8H,3H2,1-2H3/t4-,5-,6+,7-
