16
gdb 36079	3.73282	1.1963	1.10419	4.6293	72.03	-0.2445	0.0294	0.2739	1111.5525	0.124925	-400.68977	-400.682428	-400.681484	-400.722254	27.855	
N	-0.2174314175	-1.1473723719	-0.3098031351	-0.302261
C	-0.1387613763	-0.0113384717	-0.1161132957	 0.268054
C	-0.029315897	 1.4284581482	 0.1397487959	-0.502724
C	 1.3849598526	 1.9276376829	 0.098760173	 0.3099
C	 1.9811335775	 3.3310038446	-0.0040017944	-0.185426
C	 2.8607432526	 3.1017113229	 1.2251288581	-0.230307
C	 2.7230882944	 1.5963025723	 0.8806918742	 0.021988
O	 3.4436562013	 1.4630099713	-0.3750939902	-0.284442
C	 2.382631078	 2.1982536968	-0.9736372807	 0.050493
H	-0.6282090916	 1.9616539067	-0.608596344	 0.160204
H	-0.4916526597	 1.6412915763	 1.1120562297	 0.158179
H	 1.4955654093	 4.2385107126	-0.3404617488	 0.097606
H	 3.878655985	 3.5017846364	 1.2341344867	 0.110059
H	 2.335337468	 3.3588262226	 2.1483127518	 0.106993
H	 2.9201218471	 0.7914310792	 1.5849740224	 0.102973
H	 2.3069902463	 2.2434775807	-2.051986773	 0.11871
62.113	96.0445	230.8901	280.3244	387.5273	422.8138	499.3475	548.5459	655.2544	742.6875	779.2064	818.3325	863.0057	902.4199	918.2419	937.0367	960.0337	969.9245	987.257	1032.1599	1041.1888	1079.6651	1107.7255	1133.1837	1161.8247	1218.9762	1222.6484	1253.6641	1278.2852	1316.5615	1333.6864	1448.5716	1456.9362	1489.605	2365.3396	3028.5386	3056.6347	3065.1234	3118.2606	3154.3612	3197.2693	3214.3761
N#CCC12C3CC1OC23	N#CC[C@@]12[C@H]3C[C@@H]1O[C@@H]23	
InChI=1S/C7H7NO/c8-2-1-7-4-3-5(7)9-6(4)7/h4-6H,1,3H2	InChI=1S/C7H7NO/c8-2-1-7-4-3-5(7)9-6(4)7/h4-6H,1,3H2/t4-,5-,6+,7+/m0/s1
