15
gdb 13179	3.72283	1.50718	1.14156	4.5035	61.45	-0.2649	0.0042	0.2691	1003.8485	0.118294	-399.779134	-399.771067	-399.770122	-399.81237	28.031	
O	-0.1009239654	 1.4154701328	-0.066406264	-0.408936
C	 0.0317863937	 0.0123480498	 0.0579444759	-0.036138
C	 0.5936343279	-0.5926996476	-1.1649442158	 0.261541
N	 1.0698828124	-1.0216828835	-2.1262184162	-0.311976
C	 0.8714622228	-0.3653894324	 1.2888513046	 0.135237
C	 0.2301062705	-0.0442610897	 2.6526038573	-0.299958
C	 0.2555884643	-1.5742210559	 2.8555575465	-0.062553
O	 0.8408414292	-1.7781453702	 1.5453863316	-0.283083
H	 0.753410781	 1.7819033249	-0.3231380124	 0.3
H	-0.9818393016	-0.3780195548	 0.1981824469	 0.141802
H	 1.8982897994	 0.0020254618	 1.1502519735	 0.086724
H	 0.8522352918	 0.5332430974	 3.3362695445	 0.12129
H	-0.7583987155	 0.4139188455	 2.5950084776	 0.127001
H	 0.9163876048	-1.9355621355	 3.6510011453	 0.114696
H	-0.7175178454	-2.0691634426	 2.9465796946	 0.114351
69.0124	81.5993	129.9142	214.0878	255.6418	298.4738	371.0844	429.4262	525.9242	608.3625	776.9146	829.9896	866.1941	938.6001	946.6265	1011.3945	1051.3699	1070.3178	1089.1094	1137.2889	1164.6746	1207.629	1250.2722	1257.9686	1277.9289	1306.0973	1359.5233	1386.7194	1415.2306	1492.1758	1532.1034	2357.2024	3002.8246	3032.6475	3069.4623	3075.5831	3089.4023	3145.2552	3801.2258
OC(C#N)C1CCO1	O[C@@H](C#N)[C@H]1CCO1	
InChI=1S/C5H7NO2/c6-3-4(7)5-1-2-8-5/h4-5,7H,1-2H2	InChI=1S/C5H7NO2/c6-3-4(7)5-1-2-8-5/h4-5,7H,1-2H2/t4-,5+/m0/s1
