22
gdb 87461	2.70434	1.41366	1.28347	0.9181	87.74	-0.2209	0.0961	0.317	1144.0077	0.19373	-367.134472	-367.125693	-367.124748	-367.167289	34.685	
C	-0.1589111634	 1.4352056004	-0.041929987	-0.31806
N	 0.0272039739	-0.0075795358	 0.0471065559	-0.177327
C	 1.4072787044	-0.5011079573	-0.1839266953	-0.376573
C	 0.7838054736	-0.5284093718	 1.1509760463	 0.451355
C	 1.1683801649	 0.0559377361	 2.5232288731	-0.145761
C	-0.2027946978	-0.4919957559	 3.0281238824	-0.260957
C	 0.3843114207	-1.6435650835	 2.1417288678	 0.243174
C	-0.240102866	-2.9726745138	 1.8217054755	-0.516167
C	 1.7550992495	-1.3532535859	 2.837934262	-0.255231
H	 0.6911161106	 2.0153235663	 0.3536843016	 0.098461
H	-0.3064527109	 1.7166836772	-1.0895316223	 0.120807
H	-1.056673989	 1.7226426355	 0.5149166168	 0.121462
H	 1.488674337	-1.3947985985	-0.7981839343	 0.112058
H	 2.1799321557	 0.2457665444	-0.3675324529	 0.103921
H	 1.6205042756	 1.0214436637	 2.7484284094	 0.073498
H	-0.2709565296	-0.700384659	 4.1001878992	 0.084851
H	-1.1043834193	 0.000017629	 2.6554808982	 0.097621
H	-1.1791849827	-2.8353822877	 1.2753746441	 0.130718
H	 0.4253729725	-3.579568448	 1.1976529417	 0.117813
H	-0.4556791319	-3.5407039395	 2.7329373789	 0.116856
H	 2.6571126808	-1.6470835895	 2.2944912791	 0.090246
H	 1.8166039113	-1.6161210064	 3.8976271397	 0.087236
140.2694	157.6206	170.5723	198.2848	227.629	270.3747	318.4431	422.5788	449.5222	482.7841	600.0568	619.833	650.9829	756.2385	794.802	839.3597	891.3051	896.8074	930.2874	955.0648	1010.3322	1015.6463	1030.1213	1054.5331	1061.0457	1093.9059	1107.4874	1110.0597	1159.2103	1175.4975	1178.8446	1183.0601	1203.6913	1220.6162	1226.1061	1231.1157	1334.7137	1409.7304	1437.6984	1451.7732	1487.0317	1491.3132	1491.7006	1494.658	1497.7585	1515.3426	1546.9198	2967.8372	3028.1005	3045.8812	3050.3908	3064.6253	3080.6953	3093.7685	3099.1202	3100.5076	3114.5058	3116.3285	3117.8077	3165.3584
CN1CC11C2CC1(C)C2	CN1C[C@]21[C@H]1C[C@]2(C)C1	
InChI=1S/C8H13N/c1-7-3-6(4-7)8(7)5-9(8)2/h6H,3-5H2,1-2H3	InChI=1S/C8H13N/c1-7-3-6(4-7)8(7)5-9(8)2/h6H,3-5H2,1-2H3/t6-,7+,8-,9?/m0/s1
