20
gdb 121451	5.20554	0.73217	0.717	2.108	84.19	-0.2474	0.0226	0.27	1679.7814	0.17008	-403.118375	-403.109263	-403.108318	-403.153695	33.255	
C	-0.0726423549	 1.5889225966	-0.3182063325	-0.379588
C	 0.2736038347	 0.5981249134	-1.4318936435	-0.151529
C	 0.5997902827	-0.7994040301	-0.8932206951	-0.161099
N	 1.015144596	-1.6819786218	-1.9790385501	-0.347866
C	 0.3649377853	-2.7214086736	-2.2121192069	 0.484884
O	-0.7544979021	-3.264189448	-1.5491803563	-0.286855
C	-0.6571898418	-4.4518252266	-2.3725997613	 0.098455
C	-0.9038772136	-4.0983062574	-3.7932806666	-0.290261
C	 0.4786576284	-3.8580764743	-3.1726652812	-0.229809
H	-0.9432662291	 1.2547696124	 0.2571647658	 0.114789
H	 0.7611031821	 1.7055880104	 0.3834021363	 0.113787
H	-0.3038681427	 2.5777376131	-0.7257689763	 0.112266
H	-0.5627157442	 0.5187432975	-2.1371950702	 0.096636
H	 1.1319712038	 0.9584774472	-2.0101260845	 0.106346
H	 1.4408288425	-0.7211931447	-0.1915813366	 0.102895
H	-0.2578287635	-1.1950414521	-0.3324371688	 0.10895
H	-0.7824732243	-5.4083658892	-1.8847380224	 0.124151
H	-0.9320266896	-4.9268352014	-4.494590487	 0.127473
H	-1.5509566622	-3.2607183611	-4.0336276149	 0.133502
H	 1.3884418826	-4.2861704204	-3.5659360279	 0.122873
30.426	71.3629	94.9673	184.3669	226.4838	238.8808	320.0904	377.4989	461.7227	541.8231	686.5243	725.6266	757.9418	783.8331	826.6492	883.557	894.7726	900.1701	939.1235	968.1145	1014.2723	1032.3709	1038.059	1045.1195	1072.4671	1082.7518	1106.5605	1129.5257	1179.4586	1196.1568	1267.9176	1293.6544	1317.269	1330.7882	1332.3152	1395.9208	1409.5306	1474.558	1488.2988	1498.4478	1499.7807	1514.3889	1850.8136	3004.0263	3028.5892	3032.0088	3040.7914	3069.6889	3097.5127	3103.3515	3125.096	3215.0905	3219.6351	3236.133
CCCN=C1OC2CC12	CCCN=C1O[C@H]2C[C@@H]12	
InChI=1S/C7H11NO/c1-2-3-8-7-5-4-6(5)9-7/h5-6H,2-4H2,1H3	InChI=1S/C7H11NO/c1-2-3-8-7-5-4-6(5)9-7/h5-6H,2-4H2,1H3/t5-,6+/m1/s1
