15
gdb 49899	3.48045	1.18913	0.91288	1.9904	69.91	-0.247	-0.0488	0.1982	1193.6022	0.112976	-453.990992	-453.982987	-453.982042	-454.024834	28.296	
O	-0.059667448	-0.101215962	 0.1928644549	-0.301762
C	-0.0275388062	 1.0895407553	 0.0065574084	 0.170507
N	 1.1293960523	 1.8430354803	-0.1228500264	-0.114608
C	 1.0477481314	 3.294064273	-0.268953438	-0.281428
C	 2.2875914892	 3.8760895613	-0.9433110816	 0.350611
O	 2.2259662217	 4.9060138169	-1.5660750619	-0.288313
C	 3.589834428	 3.1210158855	-0.7179311242	-0.258861
N	 3.5139474024	 1.7647936145	-0.2048607988	-0.272856
C	 2.3826247137	 1.2339185778	 0.0088601218	 0.119161
H	-0.9333796876	 1.7180252845	-0.0898206682	 0.092783
H	 0.1668344134	 3.5725500569	-0.8512749495	 0.156671
H	 0.9642704875	 3.7775061678	 0.7166734164	 0.153446
H	 4.1381117036	 3.113859162	-1.6676855989	 0.15858
H	 4.2080656025	 3.7261346851	-0.0389770041	 0.154468
H	 2.3091121361	 0.1988733011	 0.3297551101	 0.161601
49.7398	55.6565	180.2616	241.5802	260.0397	383.2089	427.1663	459.6642	509.9979	552.2597	626.7816	771.9924	798.5554	839.4363	956.5098	976.0412	1014.4206	1029.1636	1047.9988	1173.8018	1230.6626	1247.508	1267.5325	1300.2056	1337.6006	1364.4353	1414.9885	1433.6704	1447.4319	1477.8387	1742.7182	1816.1544	1832.6801	2953.517	2994.2374	3016.558	3059.7952	3109.4221	3189.6148
O=CN1CC(=O)CN=C1	O=CN1CC(=O)CN=C1	
InChI=1S/C5H6N2O2/c8-4-7-2-5(9)1-6-3-7/h3-4H,1-2H2	InChI=1S/C5H6N2O2/c8-4-7-2-5(9)1-6-3-7/h3-4H,1-2H2
