18
gdb 36238	4.2877	1.10029	1.0367	1.4604	79.69	-0.2432	0.05	0.2933	1186.296	0.148252	-364.716565	-364.708884	-364.70794	-364.749275	30.04	
C	 0.033468542	-1.2016329099	 0.1246804162	-0.450799
C	-0.0311307483	-0.0063479097	 0.0143038244	 0.303412
C	-0.0636602271	 1.4464364918	-0.1101931882	-0.394312
C	 1.332211104	 2.0753601277	 0.0065220597	 0.034509
C	 1.5138604644	 3.5797384003	 0.0961335966	-0.083819
C	 1.4751161185	 3.9931755931	 1.5343187335	-0.037906
C	 1.2636233647	 2.7657417805	 2.4003362541	-0.242347
C	 2.1242763129	 2.0624064505	 1.3340469545	-0.017476
N	 2.7482480259	 3.4479683496	 0.9451350589	-0.16503
H	 0.0749100309	-2.2584267085	 0.2181390627	 0.19678
H	-0.4964092781	 1.7233432901	-1.0806445294	 0.132253
H	-0.7334336154	 1.867605738	 0.6486008222	 0.131874
H	 1.9786327068	 1.6847688691	-0.7855017298	 0.098672
H	 1.4665596651	 4.3057776982	-0.7083801891	 0.09356
H	 1.3969032297	 5.0359401903	 1.8213295913	 0.096239
H	 1.8156825232	 2.8603603502	 3.3388037029	 0.115871
H	 0.2530815341	 2.3992828948	 2.6072358485	 0.099806
H	 2.7765307765	 1.2301785338	 1.587552001	 0.088713
48.6014	110.7347	221.2839	278.0291	346.9745	431.6402	479.3048	562.5594	622.9374	639.4429	726.9056	755.4056	777.1721	796.2711	824.6583	890.7134	929.1576	958.5465	968.0347	1011.8916	1015.9649	1032.8941	1061.1309	1070.5385	1107.6862	1126.3652	1138.0433	1186.5247	1205.6513	1241.2551	1265.1029	1269.0072	1322.0337	1354.5622	1377.8274	1396.8088	1469.1826	1505.7561	2237.621	3023.0271	3047.0431	3054.5152	3072.1264	3105.6423	3149.048	3169.8908	3182.7887	3506.9821
C#CCC1C2C3CC1N23	C#CC[C@H]1[C@H]2[C@H]3C[C@@H]1N23	
InChI=1S/C8H9N/c1-2-3-5-6-4-7-8(5)9(6)7/h1,5-8H,3-4H2	InChI=1S/C8H9N/c1-2-3-5-6-4-7-8(5)9(6)7/h1,5-8H,3-4H2/t5-,6+,7-,8+,9?/m1/s1
