17
gdb 18149	3.64244	1.68888	1.46516	4.0944	69.82	-0.2332	0.0248	0.2581	909.5613	0.142446	-363.849088	-363.84152	-363.840576	-363.881199	27.981	
C	 0.2954118957	 1.6105140345	 0.0414539236	-0.431281
C	 0.1842226224	 0.1051769865	-0.0477136177	-0.007288
C	 0.6305465305	-0.7383476345	-1.2225918469	-0.111619
C	 1.9605942573	-0.2403708257	-1.8159014778	-0.188992
N	 2.5553956572	-0.3496663513	-0.4731625736	-0.034566
C	 3.5755871572	 0.36891646	 0.0598787213	 0.132172
O	 4.3585881402	 1.0369249895	-0.5830244635	-0.331421
C	 1.3311196634	-0.857648983	 0.1316737141	-0.051558
H	 1.243618239	 1.9809255282	-0.3560466097	 0.14416
H	-0.5117652138	 2.092390056	-0.520106824	 0.124041
H	 0.2226569615	 1.9419435928	 1.0826593757	 0.123351
H	-0.7292086226	-0.2965555046	 0.388908511	 0.096615
H	-0.0173459992	-1.4571176738	-1.704474299	 0.102857
H	 2.4123160045	-0.9430078728	-2.522068733	 0.126544
H	 1.988631748	 0.7674228888	-2.2408223189	 0.129213
H	 3.6344241145	 0.2417276743	 1.161094646	 0.06793
H	 1.3542600342	-1.6725829649	 0.8454904925	 0.109842
62.5255	171.0826	195.9772	238.9808	262.7511	331.0955	448.8944	518.0994	621.3141	725.3172	754.6335	813.6219	866.9925	875.0167	965.3611	990.2642	1021.4149	1032.8535	1046.5479	1073.7658	1098.6778	1133.1874	1161.8449	1183.3083	1203.8119	1263.0699	1306.8857	1331.3217	1391.2166	1417.6036	1435.3254	1437.6738	1492.6267	1499.9092	1516.6687	1791.2141	2917.0108	3038.4336	3052.7912	3097.7422	3099.9892	3114.7385	3130.6663	3180.9607	3213.2928
CC1C2CN(C=O)C12	C[C@H]1[C@H]2CN(C=O)[C@@H]12	
InChI=1S/C6H9NO/c1-4-5-2-7(3-8)6(4)5/h3-6H,2H2,1H3	InChI=1S/C6H9NO/c1-4-5-2-7(3-8)6(4)5/h3-6H,2H2,1H3/t4-,5+,6-/m0/s1
