16
gdb 55193	3.45985	1.37808	1.17437	7.1371	64.45	-0.2489	-0.0012	0.2477	1039.232	0.125709	-475.002573	-474.995339	-474.994395	-475.034811	27.451	
O	 0.3615998616	 0.6782038347	-1.0269164563	-0.330786
C	-0.1082879283	 1.0739842067	 0.0076116646	 0.397151
O	 0.4691106003	 0.8778407797	 1.1927513378	-0.376234
C	-1.445097355	 1.8337137492	 0.0323107885	 0.011529
O	-2.5497411517	 1.038763911	 0.5613167487	-0.309141
C	-3.0087924904	 2.1211082668	 1.3942418398	 0.121395
C	-2.520885665	 2.0147527123	 2.8488578012	-0.188194
N	-1.1929320519	 2.568955141	 2.4292145704	-0.35072
H	-0.868329082	 3.3568102801	 2.9762025908	 0.244239
H	-0.0387834326	 1.391827309	 1.8788532446	 0.3189
C	-1.7301755042	 2.9320035227	 1.0783779368	-0.095943
H	-1.6594861256	 2.150708029	-0.9931351043	 0.107172
H	-4.040369913	 2.4112188653	 1.1890300534	 0.098429
H	-3.0706542407	 2.6779521807	 3.5258613045	 0.11586
H	-2.4710441371	 1.0080988383	 3.271127313	 0.136146
H	-1.6677883445	 3.9810907835	 0.7928739465	 0.100196
66.5266	133.3894	222.3223	307.3781	368.1418	383.3992	444.6312	673.9602	718.0263	735.3072	767.6307	797.3808	822.3162	902.2096	935.8767	955.1291	982.8429	986.5281	1008.0175	1018.4278	1060.5668	1080.0068	1153.509	1195.8971	1215.7714	1261.4338	1278.9089	1297.9403	1318.7126	1338.1905	1348.2648	1380.0448	1490.9989	1508.1869	1854.4239	3041.0529	3065.0003	3099.9847	3110.7697	3125.8416	3165.2912	3559.7877
[O-]C(=O)C1OC2C[NH2+]C12	O=C(O)[C@H]1O[C@H]2CN[C@@H]12	
InChI=1S/C5H7NO3/c7-5(8)4-3-2(9-4)1-6-3/h2-4,6H,1H2,(H,7,8)	InChI=1S/C5H7NO3/c7-5(8)4-3-2(9-4)1-6-3/h2-4,6H,1H2,(H,7,8)/t2-,3+,4-/m0/s1
