17
gdb 34313	3.34482	1.46476	1.31148	4.7398	71.88	-0.2473	0.0147	0.262	994.5275	0.139221	-418.011988	-418.004907	-418.003963	-418.043369	28.209	
N	 0.0775004725	-1.0954500353	 0.0250955424	-0.336464
C	 0.0443962159	 0.0589519101	 0.008857634	 0.213651
C	-0.0566747206	 1.5108978097	 0.0026217679	 0.293604
C	-0.8339981621	 2.1269602629	 1.2011442226	-0.204803
N	-1.0741033088	 3.5242483754	 0.7422566311	-0.301405
C	-0.46184183	 3.5760357182	-0.6041968886	-0.064504
C	 1.0553470018	 3.4768653837	-0.3982901242	-0.058331
O	 1.2521298755	 2.0966734152	-0.0040301184	-0.312875
C	-0.7458034668	 2.1810927382	-1.2033474248	-0.262635
H	-1.7628398169	 1.5879967286	 1.4123355104	 0.117526
H	-0.2003395034	 2.0998274794	 2.0915007774	 0.132072
H	-2.0719389647	 3.6848391999	 0.657963655	 0.226277
H	-0.7889767567	 4.4481175135	-1.1692374774	 0.085886
H	 1.623923631	 3.6737247778	-1.3141015669	 0.109785
H	 1.3987811583	 4.1392898636	 0.4011428373	 0.122129
H	-0.23214826	 1.9602464818	-2.1408377665	 0.126736
H	-1.8097947348	 1.9502343171	-1.2849128814	 0.113353
143.2636	160.2379	207.1663	369.0645	425.4582	457.8641	510.5827	545.885	554.687	605.7354	762.392	787.6432	826.2869	868.4077	900.3999	943.3254	953.2937	962.0038	994.0318	1022.3031	1057.3133	1108.5889	1115.6235	1157.0727	1185.3387	1210.5831	1224.4613	1259.1912	1271.0487	1306.0679	1365.5417	1372.3301	1441.5323	1483.3989	1503.6402	1517.154	2368.4019	3037.3198	3050.5128	3079.0216	3095.956	3101.202	3130.801	3141.6384	3527.1285
N#CC12CNC(CO1)C2	N#C[C@@]12CN[C@@H](CO1)C2	
InChI=1S/C6H8N2O/c7-3-6-1-5(2-9-6)8-4-6/h5,8H,1-2,4H2	InChI=1S/C6H8N2O/c7-3-6-1-5(2-9-6)8-4-6/h5,8H,1-2,4H2/t5-,6+/m1/s1
