17
gdb 47360	2.45761	1.40319	1.18302	4.348	73.44	-0.2592	0.0072	0.2665	1101.7205	0.136255	-421.83623	-421.827997	-421.827052	-421.86944	30.97	
O	 0.0655530844	 0.018128631	 0.5767328456	-0.321178
C	 0.0169656949	 1.113574962	 0.0881638627	 0.415369
C	-1.304242955	 1.850459479	-0.1091534092	-0.34063
C	-1.2872814034	 2.9987385346	-1.1400399451	-0.187735
C	-0.0111505715	 3.8272069386	-0.8901883591	-0.234801
C	 1.2128044167	 2.9368491512	-1.0282628184	-0.062089
O	 1.1710208923	 1.758525552	-0.2031724994	-0.228098
C	-1.3496048223	 2.4981823873	-2.5122267435	 0.334141
C	-1.3887706898	 2.0765390611	-3.6373468155	-0.473439
H	-2.060311931	 1.0997294764	-0.342631166	 0.14838
H	-1.5595257706	 2.2645482109	 0.8744882443	 0.138722
H	-2.1666361012	 3.6306277504	-0.9674627523	 0.11429
H	 0.0673977681	 4.6537213472	-1.602439061	 0.121628
H	-0.0584296281	 4.255074272	 0.1176516319	 0.113046
H	 1.3266662433	 2.6138245704	-2.0692913375	 0.132468
H	 2.1233089886	 3.4623552398	-0.7307635433	 0.123759
H	-1.4346075153	 1.704123186	-4.6310811144	 0.206166
64.8253	103.6967	170.0621	208.3191	317.5428	376.5006	424.5242	466.7848	551.3353	578.7477	593.4673	642.3983	648.1267	715.0965	751.9876	835.2647	891.9982	932.6927	975.8604	1004.0539	1062.9387	1111.8729	1116.9502	1158.6509	1235.8929	1242.7555	1264.4445	1310.7708	1342.3287	1361.6265	1384.151	1433.6555	1455.2278	1481.3447	1513.664	1842.9875	2234.618	3029.734	3041.005	3046.7428	3049.454	3098.1285	3106.5035	3128.2995	3501.9429
O=C1CC(CCO1)C#C	O=C1C[C@@H](CCO1)C#C	
InChI=1S/C7H8O2/c1-2-6-3-4-9-7(8)5-6/h1,6H,3-5H2	InChI=1S/C7H8O2/c1-2-6-3-4-9-7(8)5-6/h1,6H,3-5H2/t6-/m1/s1
