19
gdb 41696	3.0462	1.80491	1.51618	1.2376	73.34	-0.244	0.0739	0.3179	928.6626	0.162214	-422.992131	-422.985445	-422.984501	-423.023072	27.708	
C	 0.0039473952	 1.4543930301	-0.2730714215	-0.100388
O	 1.3870005101	 1.5741206198	 0.1307391977	-0.301775
C	 1.4533440935	 0.1810068451	 0.5119658372	 0.11268
C	 1.663551604	-0.0668325873	 1.9992172657	-0.052011
C	 0.5076106465	 0.5931808886	 2.7986115031	-0.250479
C	-0.33987204	-0.6363122908	 2.3746092352	 0.126504
C	 0.9896337676	-1.4404729626	 2.3024032139	-0.250674
O	-0.9233002302	-0.4708680417	 1.0871502565	-0.283655
C	-0.0212877022	-0.0492104433	 0.0800879057	 0.055955
H	-0.6691290789	 2.0718751211	 0.3328461968	 0.107676
H	-0.1320477825	 1.6944624696	-1.3342520008	 0.101645
H	 2.2017804854	-0.3575573058	-0.083654742	 0.076572
H	 2.6947619417	 0.1140355767	 2.3096263917	 0.069794
H	 0.7076062082	 0.5831437619	 3.8730208083	 0.10111
H	 0.1698762055	 1.5861774091	 2.4984321238	 0.11311
H	-1.1459227929	-0.9881065957	 3.0197418767	 0.078199
H	 1.0561002028	-2.2341789228	 1.5525640284	 0.100007
H	 1.2780092229	-1.8333227404	 3.2800693429	 0.105432
H	-0.1597049765	-0.7041805714	-0.7838617091	 0.090296
115.1928	205.7826	339.6563	384.9969	435.1268	457.3423	506.3554	600.0727	750.387	793.6364	806.4895	863.4754	870.4958	893.35	916.0896	942.098	956.3636	994.443	1009.7344	1028.191	1059.066	1070.4323	1088.3375	1104.1456	1138.2285	1143.5185	1167.8239	1205.1709	1239.2301	1252.271	1263.7261	1267.5888	1282.1359	1335.1808	1346.3473	1358.9255	1376.9399	1401.41	1470.4836	1499.0741	1514.3829	3016.5127	3022.5954	3056.0545	3063.5451	3069.6052	3078.0545	3087.5559	3104.9681	3118.2441	3132.8618
C1OC2C3CC(C3)OC12	C1O[C@H]2[C@H]3C[C@H](C3)O[C@@H]12	
InChI=1S/C7H10O2/c1-4-2-5(1)9-6-3-8-7(4)6/h4-7H,1-3H2	InChI=1S/C7H10O2/c1-4-2-5(1)9-6-3-8-7(4)6/h4-7H,1-3H2/t4-,5+,6-,7-/m0/s1
