14
gdb 49902	3.74243	1.06759	0.91479	5.0324	70.43	-0.2778	-0.0491	0.2287	1215.5524	0.101224	-432.892012	-432.883809	-432.882865	-432.925602	28.56	
N	 0.020173818	 1.1137136926	 0.7155348287	-0.516755
C	 0.0897660477	-0.0760748438	 0.3345843056	 0.409767
C	-0.9784573907	-1.1465983646	 0.0226370136	-0.258455
C	 0.2221255466	-2.1100468024	-0.2883078308	-0.195124
N	 1.1213245399	-0.9805153863	 0.0003118231	-0.105158
C	 2.4830313685	-0.8220948696	-0.0230170953	 0.142188
O	 3.0377734683	 0.2141446551	 0.2600589836	-0.291028
C	-1.8553345563	-1.539110905	 1.1108195715	 0.295509
N	-2.5456280326	-1.8737899609	 1.9745826389	-0.308784
H	 0.9499501311	 1.526381521	 0.8066366567	 0.262191
H	-1.5678633997	-0.8935738845	-0.8617358932	 0.162867
H	 0.3213409955	-2.945137184	 0.4078400483	 0.155807
H	 0.2642464153	-2.4648339013	-1.3202238571	 0.144568
H	 3.0120272485	-1.7444341264	-0.3293200835	 0.102406
58.0081	122.6667	155.692	181.4737	218.9025	263.0255	402.3105	457.962	492.4619	573.6203	642.3293	759.0452	817.5132	864.5516	915.7637	954.3372	1026.6807	1029.0424	1077.7984	1151.0107	1166.3738	1197.4857	1233.0611	1279.3012	1338.9687	1394.303	1431.0837	1514.1189	1766.444	1829.5229	2367.6682	2958.5979	3071.4166	3096.2625	3132.431	3490.7549
N=C1C(CN1C=O)C#N	[NH][C]1[C@@H](CN1C=O)C#N	
InChI=1S/C5H5N3O/c6-1-4-2-8(3-9)5(4)7/h3-4,7H,2H2	InChI=1S/C5H5N3O/c6-1-4-2-8(3-9)5(4)7/h3-4,7H,2H2/t4-/m1/s1
