23
gdb 41898	2.04383	1.89681	1.66491	1.1808	83.14	-0.2445	0.0663	0.3107	1015.1547	0.211055	-388.311646	-388.303968	-388.303024	-388.344016	31.301	
C	-0.0290803863	 1.4960815284	 0.171526534	-0.20773
C	 1.3574989054	 2.1279514376	-0.1231799742	-0.207599
C	 2.4026604052	 1.0839568414	-0.5566187924	-0.015152
C	 2.512228802	-0.0306627318	 0.5014029524	-0.194196
C	 1.1266738747	-0.64446088	 0.8655896277	-0.194559
C	-0.0246002511	-0.0389709111	 0.0394912271	-0.015396
C	 0.0321042727	-0.5263944703	-1.4265790855	-0.080402
O	 1.3396476027	-0.6910333002	-1.9395901306	-0.232053
C	 2.1239690836	 0.4860730271	-1.9557179215	-0.08115
H	-0.3442277665	 1.7555463382	 1.1885532082	 0.092874
H	-0.7929454713	 1.9121698315	-0.4947356869	 0.091655
H	 1.2730362958	 2.9006296757	-0.8953704557	 0.091669
H	 1.731141071	 2.6369681808	 0.7726603295	 0.09243
H	 3.3707191422	 1.5957218411	-0.6293471519	 0.062529
H	 3.1849819353	-0.8129630013	 0.1377653916	 0.100319
H	 2.9786397193	 0.3892849401	 1.3994642748	 0.087434
H	 1.1480272857	-1.729349013	 0.7237090895	 0.099003
H	 0.9137835498	-0.4748871814	 1.9270960332	 0.088227
H	-0.9769606464	-0.4067064294	 0.4425711109	 0.063119
H	-0.4196234532	-1.5212780668	-1.4990705807	 0.101378
H	-0.5532605224	 0.1525000581	-2.0710799243	 0.07768
H	 1.664743884	 1.2484263204	-2.6089276557	 0.077954
H	 3.0681670477	 0.1810260549	-2.4184804896	 0.101967
42.3211	222.5979	268.3193	286.345	333.3301	391.9752	419.5265	462.4822	527.2798	714.0401	750.9915	770.16	787.6662	828.163	872.0855	888.228	909.4344	941.5458	958.2544	986.9891	1011.6928	1020.4643	1085.2801	1091.0008	1111.0491	1126.5405	1168.2568	1176.6772	1225.3583	1246.836	1262.1938	1268.2479	1289.4897	1337.7836	1340.7755	1346.4059	1351.5166	1364.6719	1370.214	1385.9389	1396.3811	1405.8831	1422.9086	1478.6239	1483.1763	1495.5112	1497.5215	1500.0267	1516.0263	2951.83	2957.2588	3011.9464	3015.0044	3025.5829	3033.2962	3038.7827	3048.2794	3051.6688	3065.6703	3068.0182	3070.2043	3076.6408	3090.0761
C1CC2CCC1COC2	C1C[C@H]2CC[C@@H]1COC2	
InChI=1S/C8H14O/c1-2-8-4-3-7(1)5-9-6-8/h7-8H,1-6H2	InChI=1S/C8H14O/c1-2-8-4-3-7(1)5-9-6-8/h7-8H,1-6H2/t7-,8+
