17
gdb 106656	2.7879	1.2575	1.0232	1.1516	69.77	-0.2296	0.0029	0.2325	1176.4954	0.135949	-455.123482	-455.114596	-455.113652	-455.1573	33.08	
N	-0.2070186568	 1.4279394885	 0.1091484888	-0.600086
C	-0.0989111795	 0.0299304081	-0.0838845106	 0.100141
C	-0.2713528725	-0.9304552328	 1.1014402947	-0.349096
C	-1.1959530114	-1.0450064561	-0.068192209	 0.31247
C	-2.6826514028	-0.8732130109	-0.0528293942	-0.16524
O	-3.3795645647	-2.0480483869	 0.3451559642	-0.409794
N	-0.5220816994	-1.7282294128	-1.1874429623	-0.40884
C	 0.5326674935	-0.7772048342	-1.21548953	 0.367027
O	 1.5042411198	-0.6904393824	-1.910167701	-0.340001
H	 0.6155686632	 1.8003099222	 0.5723311929	 0.246257
H	-0.3078912165	 1.9163963846	-0.7743551065	 0.245282
H	 0.4683859155	-1.7007758174	 1.2980816365	 0.119415
H	-0.6737216285	-0.4417900855	 1.984345142	 0.134335
H	-2.9410720996	-0.1003405183	 0.6771337418	 0.126081
H	-3.0171773004	-0.5292579156	-1.0419932329	 0.099601
H	-3.3079445759	-2.6849342284	-0.3730086212	 0.284501
H	-0.3124457939	-2.7213552123	-1.162793283	 0.237947
57.7909	115.1965	153.2507	239.4664	273.6464	295.8161	311.1322	368.0125	399.7679	477.504	538.1016	627.1275	686.0572	721.5866	750.4299	798.2156	824.0411	886.5129	912.1587	950.442	985.6368	1046.0622	1057.053	1078.4795	1136.034	1161.1122	1257.5909	1285.4615	1313.883	1348.1555	1392.304	1403.6716	1425.5597	1485.2348	1498.2076	1665.2413	1892.8892	3004.6725	3092.4593	3117.9562	3209.606	3505.5241	3527.7025	3580.6432	3817.3941
NC12CC1(CO)NC2=O	N[C@@]12C[C@]1(CO)NC2=O	
InChI=1S/C5H8N2O2/c6-5-1-4(5,2-8)7-3(5)9/h8H,1-2,6H2,(H,7,9)	InChI=1S/C5H8N2O2/c6-5-1-4(5,2-8)7-3(5)9/h8H,1-2,6H2,(H,7,9)/t4-,5-/m1/s1
