16
gdb 126700	2.08172	1.87077	1.06293	3.227	67.78	-0.2184	0.0321	0.2505	1101.8224	0.124442	-471.205824	-471.197304	-471.19636	-471.239577	31.127	
C	-0.0456092961	 1.5661108445	-0.0595085774	-0.384556
C	 0.0984187111	 0.044672805	-0.0206790662	-0.154118
N	 0.7528511663	-0.4885358698	-1.2087722841	-0.155444
C	 0.1226063342	-0.7203962506	-2.4259565537	 0.497206
N	-1.1036995327	-0.5179918262	-2.6631171186	-0.613563
O	 1.0898369125	-1.1975297576	-3.264578271	-0.252433
N	 2.34955572	-1.2602620113	-2.5699407252	-0.269198
C	 2.057732869	-0.8281442245	-1.3887351291	 0.494635
O	 2.9182872868	-0.7052434243	-0.3788554245	-0.41237
H	 0.9330747795	 2.053055862	-0.1027753668	 0.125836
H	-0.6304949645	 1.8667027943	-0.9318717535	 0.155786
H	-0.56233782	 1.9131430538	 0.8402138631	 0.124197
H	 0.6836021661	-0.2774747201	 0.8438757253	 0.132981
H	-0.8850797827	-0.4299257365	 0.0303069916	 0.149045
H	-1.3390904223	-0.772914971	-3.618722951	 0.234267
H	 3.7817817327	-1.0078894478	-0.6919884789	 0.327729
50.116	99.1221	161.7745	207.4536	294.0264	325.6401	348.1046	403.9051	448.2112	565.2276	618.0228	674.8518	720.8925	736.9082	757.7652	773.0359	793.8	919.2132	969.1218	1037.1589	1047.9098	1108.187	1202.268	1222.8578	1249.2258	1348.7642	1375.2146	1394.3472	1413.2021	1473.7933	1491.1621	1505.8963	1591.4159	1693.3514	1780.0083	3046.6236	3070.8965	3112.9724	3122.6578	3141.0376	3542.0144	3785.5832
CCN1C(=N)ON=C1O	CCN1[C@H]([NH])ON=C1O	
InChI=1S/C4H7N3O2/c1-2-7-3(5)9-6-4(7)8/h5H,2H2,1H3,(H,6,8)	InChI=1S/C4H8N3O2/c1-2-7-3(5)9-6-4(7)8/h3,5H,2H2,1H3,(H,6,8)/t3-/m0/s1
