18
gdb 50527	2.85446	1.26323	1.01767	3.3587	73.76	-0.2469	0.0159	0.2628	1187.0718	0.147597	-439.068686	-439.060191	-439.059247	-439.103146	30.182	
O	 0.0795336163	-0.0825545056	 0.2730612917	-0.328522
C	 0.1263018533	 1.127844004	 0.3530230501	 0.119164
N	 1.2106688884	 1.8707575458	 0.0306714886	-0.079241
C	 2.5220911858	 1.4519400399	-0.4628074108	-0.168534
C	 2.928183651	 2.953859424	-0.4845194466	-0.331985
C	 1.5084185788	 3.2983344613	 0.0413473797	 0.2862
C	 0.5890213577	 4.3280476503	-0.6554426758	-0.12247
O	 0.4948155551	 5.1189681806	 0.5439847577	-0.267865
C	 1.2741164602	 4.1705897044	 1.2965400755	-0.12248
H	-0.7221865736	 1.7516982013	 0.7011040665	 0.074303
H	 3.0714905088	 0.8173991244	 0.2388067457	 0.128996
H	 2.4846564912	 0.951821449	-1.4350300765	 0.128981
H	 3.7355448948	 3.2220069953	 0.1987339239	 0.12205
H	 3.1483605172	 3.3564607494	-1.4744686399	 0.122045
H	 1.0417647675	 4.8836788194	-1.486420246	 0.108219
H	-0.3833014815	 3.9300918905	-0.973083233	 0.111456
H	 0.6913270806	 3.6832416645	 2.0886883989	 0.111466
H	 2.1724052184	 4.6238341317	 1.7345983504	 0.108216
52.2294	61.504	100.2921	180.7992	266.9669	322.4647	334.3751	409.9779	474.7139	578.0688	781.0779	829.7089	851.9228	881.2335	907.9342	952.4432	962.5922	992.3056	1036.726	1041.0523	1093.1457	1147.7684	1151.1064	1154.1567	1173.9933	1209.9046	1217.7042	1229.7575	1290.9775	1303.7308	1322.3082	1378.2222	1395.3895	1444.8239	1486.6713	1501.3968	1523.5374	1527.6918	1788.1277	2925.608	3004.1798	3016.4265	3051.5379	3057.7546	3057.9775	3082.7535	3094.3293	3138.2327
O=CN1CCC11COC1	O=CN1CCC21COC2	
InChI=1S/C6H9NO2/c8-5-7-2-1-6(7)3-9-4-6/h5H,1-4H2	InChI=1S/C6H9NO2/c8-5-7-2-1-6(7)3-9-4-6/h5H,1-4H2
