17
gdb 32009	2.9967	1.25214	0.94211	6.529	78.82	-0.2322	-0.0522	0.18	1240.095	0.137937	-418.08563	-418.077506	-418.076562	-418.11902	30.045	
C	 0.020891213	 1.5567741754	 0.16950418	-0.376899
C	 0.0015585301	 0.0358731065	-0.0714739227	-0.298687
C	-1.3896128873	-0.5331799787	-0.1097215183	 0.403391
C	-2.0254217887	-0.9785292838	-1.2356996903	-0.245441
C	-3.3521347874	-1.4591963675	-1.080269094	 0.038778
N	-4.0211177012	-1.5153090141	 0.0397587199	-0.32389
C	-3.410988149	-1.0735951438	 1.203091421	 0.434243
O	-3.9151292923	-1.070636545	 2.3039495528	-0.38355
N	-2.0806022686	-0.5923492913	 1.0552420455	-0.385387
H	 1.0506967497	 1.9228146642	 0.1930264911	 0.131381
H	-0.5133009976	 2.0834582875	-0.6261736786	 0.137042
H	-0.4511209987	 1.8205314611	 1.1207364393	 0.12867
H	 0.4954110096	-0.197062583	-1.0184904823	 0.128182
H	 0.5725867895	-0.469389349	 0.717805786	 0.12549
H	-1.537063611	-0.9648534434	-2.199921833	 0.104997
H	-3.8778802155	-1.8206868817	-1.965407454	 0.119735
H	-1.6571330147	-0.2832641833	 1.9200903575	 0.261946
54.5416	123.0857	144.8009	205.6345	283.5713	338.2813	452.0098	511.9885	521.8527	593.1264	663.7968	721.7849	766.1411	790.813	802.2631	817.4206	890.4905	977.8982	1013.0392	1023.9057	1079.2694	1083.5459	1095.9466	1143.2064	1223.0436	1274.3423	1347.3231	1369.2324	1413.3825	1419.5666	1474.3061	1488.9769	1497.166	1506.5917	1594.547	1666.2526	1814.0807	3033.5767	3046.3472	3093.5007	3117.7575	3121.2133	3125.2996	3228.5654	3593.8074
CCC1=CC=NC(=O)N1	CCc1ccnc(=O)[nH]1	
InChI=1S/C6H8N2O/c1-2-5-3-4-7-6(9)8-5/h3-4H,2H2,1H3,(H,7,8,9)	InChI=1S/C6H8N2O/c1-2-5-3-4-7-6(9)8-5/h3-4H,2H2,1H3,(H,7,8,9)
