16
gdb 27938	2.51541	1.32195	0.87081	5.3636	78.56	-0.1854	-0.0128	0.1726	1260.4961	0.125429	-434.111431	-434.102545	-434.101601	-434.144793	32.803	
N	 0.1509626993	 1.414657275	-0.1308943077	-0.611123
C	-0.0176645863	 0.0207118952	-0.0369677058	 0.29926
C	-1.0958040408	-0.8090151186	-0.0926419896	-0.324888
C	-0.6096588504	-2.165826144	-0.0376303036	 0.162485
C	-1.3977623583	-3.3698782029	-0.1107135701	 0.058149
O	-2.6088252261	-3.4214789452	-0.2175369633	-0.311806
C	 0.7786351822	-2.0948427791	 0.0767116559	 0.249655
N	 1.7505462084	-3.0756056269	 0.2591735297	-0.606018
N	 1.124245301	-0.7766781278	 0.0678818688	-0.316569
H	-0.675449685	 1.8461793206	-0.5260741835	 0.252335
H	 0.3221623002	 1.8484179884	 0.7725267163	 0.245383
H	-2.1330864813	-0.5251170427	-0.1688609118	 0.111918
H	-0.8047529338	-4.317914074	-0.0677377573	 0.019569
H	 1.3602569489	-4.0079986844	 0.2451622375	 0.261121
H	 2.5178485352	-3.0204638845	-0.4013702402	 0.251862
H	 2.0613690867	-0.4151242991	 0.1320388348	 0.258668
131.01	156.2869	167.9414	204.569	211.2546	226.8961	292.7836	387.0547	410.3474	470.0433	560.9058	632.8485	646.7468	665.7654	674.9862	748.997	803.1789	831.9496	864.9633	1015.9134	1020.3763	1092.5798	1145.1807	1186.8423	1196.2172	1276.7109	1374.3308	1413.3431	1450.5808	1529.4244	1583.2363	1633.2137	1658.5062	1667.336	1767.1199	2798.5195	3266.3937	3484.3755	3521.537	3595.7238	3628.0669	3662.7795
NC1=CC(C=O)=C(N)N1	Nc1cc(C=O)c(N)[nH]1	
InChI=1S/C5H7N3O/c6-4-1-3(2-9)5(7)8-4/h1-2,8H,6-7H2	InChI=1S/C5H7N3O/c6-4-1-3(2-9)5(7)8-4/h1-2,8H,6-7H2
