14
gdb 25226	3.42154	1.67438	1.13225	6.7891	71.26	-0.2311	-0.0032	0.2278	987.8427	0.104946	-432.905718	-432.899205	-432.898261	-432.93666	25.238	
N	-0.0366046497	 1.3121993659	 0.011183089	-0.537613
C	-0.075335282	 0.0516057038	 0.0038018977	 0.347394
O	 1.0649217012	-0.7620088217	-0.0069867222	-0.275504
C	 0.7415544589	-2.1666386368	-0.0138319685	-0.190052
C	-0.7459424293	-2.1420293251	-0.0059901348	 0.285538
C	-1.211372234	-0.863215052	 0.0041338321	 0.188172
N	-2.5847035905	-0.8213781454	 0.0113973049	-0.32781
C	-2.9342805478	-2.0856675954	 0.0057713015	-0.006957
N	-1.8478980095	-2.9455779683	-0.00521974	-0.387778
H	 0.9300713923	 1.6411168317	 0.008178807	 0.223058
H	 1.181086234	-2.6270836477	-0.9079842187	 0.132957
H	 1.190299855	-2.6378719131	 0.8700630364	 0.132956
H	-3.9466831595	-2.4621591731	 0.0087865477	 0.14127
H	-1.886654559	-3.9512708428	-0.0111123122	 0.274369
160.4591	201.9579	235.5742	308.7752	507.5413	533.2125	618.8356	630.4816	643.0622	659.409	773.6921	779.5821	816.2198	869.1001	950.5259	964.5327	1020.5049	1031.6017	1070.8171	1117.6004	1185.9242	1218.5407	1277.7466	1329.4917	1382.2018	1421.9083	1468.3531	1506.706	1532.0359	1604.3824	1788.5982	3014.7042	3045.0347	3252.8655	3480.9462	3663.1847
N=C1OCC2=C1N=CN2	[NH][C]1OCc2c1nc[nH]2	
InChI=1S/C5H5N3O/c6-5-4-3(1-9-5)7-2-8-4/h2,6H,1H2,(H,7,8)	InChI=1S/C5H5N3O/c6-5-4-3(1-9-5)7-2-8-4/h2,6H,1H2,(H,7,8)
