16
gdb 52987	3.25132	1.0052	0.84625	3.5777	81.63	-0.2352	0.0052	0.2404	1382.3719	0.123299	-400.719821	-400.711061	-400.710117	-400.75495	31.335	
C	-0.0242969941	 1.5058471619	-0.0367811411	-0.508801
C	-0.0318720243	 0.0515291449	-0.0153129449	 0.228927
C	-0.035988394	-1.153535296	 0.0073578387	-0.183727
C	-0.0046996053	-2.570474562	 0.0576096555	 0.043144
C	-0.3558199038	-3.4834495415	-1.1409822795	-0.318578
C	-1.1284230338	-3.6123648795	 0.1266746285	-0.047874
N	-0.3771862326	-4.348298064	 1.1433439984	-0.341781
C	 0.7229064212	-3.4713722023	 1.0707003146	 0.360629
O	 1.7899501166	-3.4801126315	 1.6076397223	-0.327369
H	 0.7511880105	 1.9013507381	 0.6283867942	 0.156985
H	 0.1739321308	 1.89104328	-1.0431528041	 0.149495
H	-0.9849509162	 1.915680344	 0.2947219193	 0.149648
H	-0.8340540342	-2.9549106228	-1.9599233884	 0.137628
H	 0.3358336029	-4.2668799436	-1.4371739663	 0.127922
H	-2.1870829681	-3.4256270986	 0.2438832118	 0.128647
H	-0.2717252454	-5.3571324369	 1.139747221	 0.245104
20.373	82.4413	106.4265	196.2686	269.9828	290.7624	390.6117	414.9094	479.0855	504.3887	604.0202	619.4353	705.1612	759.8493	837.5678	865.7469	905.0676	975.368	988.1179	1043.9157	1049.8244	1054.0669	1060.7248	1100.2532	1133.5466	1214.8369	1303.6996	1325.829	1397.8143	1419.2271	1475.4642	1477.3403	1481.9636	1906.0488	2367.467	3026.3725	3086.4066	3090.0348	3119.1228	3211.0602	3219.8193	3541.434
CC#CC12CC1NC2=O	CC#C[C@]12C[C@H]1NC2=O	
InChI=1S/C7H7NO/c1-2-3-7-4-5(7)8-6(7)9/h5H,4H2,1H3,(H,8,9)	InChI=1S/C7H7NO/c1-2-3-7-4-5(7)8-6(7)9/h5H,4H2,1H3,(H,8,9)/t5-,7+/m1/s1
