18
gdb 7785	3.04979	1.89745	1.24517	4.4328	68.44	-0.2553	0.0158	0.2711	983.7517	0.154701	-384.998445	-384.990725	-384.989781	-385.030669	28.989	
C	 0.0139669739	 1.4984399205	 0.1015558344	-0.39678
C	-0.0347674078	-0.0076280612	-0.1054705735	 0.15286
C	 0.7967142474	-0.4963317296	-1.2849589665	-0.209021
C	 0.8083861502	-2.0239468118	-1.3090705172	-0.22996
C	 1.405615766	-2.5375211511	 0.0029514369	-0.322157
C	 0.9049188945	-1.8423275585	 1.2632380995	 0.400783
O	 1.0220426306	-2.3267744511	 2.3562356105	-0.323277
O	 0.3805900758	-0.597241074	 1.1516724431	-0.243007
H	 1.0443131361	 1.8311604112	 0.2604031932	 0.127055
H	-0.3884317746	 2.0146676346	-0.7753711992	 0.11783
H	-0.5771164395	 1.7825388391	 0.9755428795	 0.135497
H	-1.0783287245	-0.3178814721	-0.2612018349	 0.08979
H	 0.3711502017	-0.0850842371	-2.2063757827	 0.106944
H	 1.8205786423	-0.1092887512	-1.1985017792	 0.105238
H	-0.2175669895	-2.3950056732	-1.4277034892	 0.108437
H	 1.3809341341	-2.4053197411	-2.1600402884	 0.105579
H	 1.2511585739	-3.6089001533	 0.1485816676	 0.135978
H	 2.4929843094	-2.3829137505	 0.0000228462	 0.138211
92.6621	95.8852	228.8989	265.4464	284.3937	420.6782	439.3737	455.2427	529.5409	553.9492	643.9275	747.2069	851.0424	867.4513	919.5947	942.1849	988.5038	997.1709	1061.042	1096.7893	1127.092	1154.4419	1186.3967	1228.4099	1255.1699	1281.5492	1341.3961	1354.9471	1376.6966	1387.9012	1404.1647	1411.75	1460.1638	1479.9224	1486.7889	1498.6311	1502.442	1839.2344	2997.8214	3024.4931	3028.9917	3035.3433	3043.962	3079.0527	3082.5541	3110.2787	3117.0778	3128.0376
CC1CCCC(=O)O1	C[C@H]1CCCC(=O)O1	
InChI=1S/C6H10O2/c1-5-3-2-4-6(7)8-5/h5H,2-4H2,1H3	InChI=1S/C6H10O2/c1-5-3-2-4-6(7)8-5/h5H,2-4H2,1H3/t5-/m0/s1
