18
gdb 120178	5.39705	0.84371	0.82156	2.1263	74.63	-0.2475	-0.0045	0.243	1438.7513	0.14662	-439.012659	-439.004065	-439.003121	-439.046763	31.319	
C	 0.0446059807	 1.4987466622	-0.0462964715	-0.386165
C	-0.1615092054	 0.0103686356	-0.2635580612	-0.046868
O	 0.9670942505	-0.4977417495	-0.9607932391	-0.254558
C	 0.9442639598	-1.8694496788	-1.135648931	 0.212869
C	 0.0778976775	-2.4846867095	-2.2981445281	-0.211792
N	 1.0773110688	-1.831441073	-3.2536019084	-0.299945
C	 1.9765257495	-2.4087684107	-2.1568628085	-0.206004
C	 1.0761038591	-3.659921507	-2.2806161494	 0.422182
O	 1.1385659218	-4.8302888195	-2.5007814768	-0.324413
H	 0.9473265606	 1.6789084	 0.5440056602	 0.128843
H	 0.1527841593	 2.0125476036	-1.0052719337	 0.134823
H	-0.8106150214	 1.9267932356	 0.4848566187	 0.117145
H	-0.2739383636	-0.5135400297	 0.7001022099	 0.090066
H	-1.0779674181	-0.1744088607	-0.8449167368	 0.095447
H	 0.8806799565	-2.4080942907	-0.1801337911	 0.083393
H	-0.9957568006	-2.4518233209	-2.4690516366	 0.102427
H	 1.1626095473	-2.3765408483	-4.1164330933	 0.23497
H	 3.0566126977	-2.2819694488	-2.1638705135	 0.10758
63.3359	73.4502	116.9303	188.5967	243.2869	312.8204	352.5585	395.1877	501.3715	588.7622	696.2789	743.6944	790.8075	808.6763	821.6698	868.6075	906.0356	952.4968	994.3365	1046.5113	1058.4958	1112.0718	1126.266	1143.391	1152.9072	1181.7308	1189.8237	1195.1288	1215.8812	1272.9848	1284.553	1298.1409	1388.6775	1409.1047	1450.877	1483.4991	1499.6408	1526.6558	1904.792	2966.8267	3001.2582	3015.5027	3047.5571	3122.1313	3126.5119	3151.3831	3156.9946	3410.3549
CCOC1C2NC1C2=O	CCO[C@H]1[C@H]2N[C@@H]1C2=O	
InChI=1S/C6H9NO2/c1-2-9-6-3-5(8)4(6)7-3/h3-4,6-7H,2H2,1H3	InChI=1S/C6H9NO2/c1-2-9-6-3-5(8)4(6)7-3/h3-4,6-7H,2H2,1H3/t3-,4+,6-
