17
gdb 13865	3.80154	1.63804	1.29301	5.3528	63.31	-0.2455	0.0201	0.2656	948.6757	0.145066	-401.044881	-401.037583	-401.036639	-401.077579	26.983	
O	-0.192986837	 0.0316183875	 0.7480142284	-0.368638
C	-0.0928178141	 1.1584776052	 0.0329822311	 0.428575
O	 0.8697044268	 1.4433515686	-0.6288172432	-0.344534
C	-1.3289117947	 2.0703306288	 0.1513495555	-0.137282
C	-1.8332738746	 2.5590956749	-1.2388821259	-0.219708
C	-3.3415362552	 2.2432013837	-1.2261743647	-0.2023
C	-3.4332494684	 1.0549276445	-0.2575517271	-0.174763
N	-2.4427494982	 1.3383299909	 0.802703182	-0.321643
H	-1.0973526006	 0.0716349436	 1.1378375475	 0.302867
H	-2.8681700115	 1.9198118374	 1.5154773622	 0.233433
H	-1.0221442399	 2.9103288779	 0.782048993	 0.113492
H	-1.6268023879	 3.6190607382	-1.3958195766	 0.115232
H	-1.3163191434	 2.0130556209	-2.0316871555	 0.132208
H	-3.9109619893	 3.0905348538	-0.8266055646	 0.100461
H	-3.7366272978	 2.0174457063	-2.2201285866	 0.110087
H	-4.4230668456	 0.9022249625	 0.1787907287	 0.112396
H	-3.1464926486	 0.1255658953	-0.765327004	 0.120117
34.7157	95.7714	213.4854	258.3467	344.8096	481.4017	553.6021	603.2495	679.2653	741.6935	798.422	820.8997	874.2045	902.3835	920.6664	927.1943	949.0773	987.1903	1043.419	1078.9466	1106.6358	1182.5615	1207.0455	1222.7267	1239.252	1290.5514	1313.4491	1323.5379	1352.579	1365.4759	1432.3203	1452.6743	1491.786	1499.0958	1512.2015	1867.3206	3031.2254	3041.2671	3064.7432	3077.6496	3100.1391	3107.7383	3124.8474	3423.7081	3537.1999
[O-]C(=O)C1CCC[NH2+]1	OC(=O)[C@H]1CCCN1	
InChI=1S/C5H9NO2/c7-5(8)4-2-1-3-6-4/h4,6H,1-3H2,(H,7,8)	InChI=1S/C5H9NO2/c7-5(8)4-2-1-3-6-4/h4,6H,1-3H2,(H,7,8)/t4-/m1/s1
