14
gdb 18922	3.54949	2.67575	2.05976	3.4142	59.84	-0.2296	-0.0202	0.2094	679.2649	0.10902	-382.500609	-382.495159	-382.494214	-382.530018	22.206	
O	 0.0074285164	 0.0983060402	 0.0958183521	-0.331782
C	-0.0246629342	 1.291772888	 0.0244925669	 0.485726
C	-1.1892328929	 2.2853104362	-0.0455859665	-0.21407
C	-0.9566484678	 2.9813195002	 1.3375484601	-0.259108
C	 0.3243519961	 3.5355079326	 0.6773416296	-0.084432
C	-0.3474212292	 3.4580483662	-0.7116664557	 0.124327
O	 0.8190811356	 2.8919258409	-1.3424666982	-0.299422
C	 1.098920945	 2.3464664566	-0.0118096981	-0.048508
H	-2.1599068414	 1.9398688797	-0.3877679468	 0.09582
H	-1.6772237742	 3.7813531474	 1.5237076279	 0.11757
H	-0.8803268679	 2.3398688026	 2.2194602796	 0.119624
H	 0.8966369207	 4.3847661242	 1.0445830779	 0.092648
H	-0.8436170923	 4.2552115778	-1.261882651	 0.099702
H	 2.135086006	 2.0688195274	 0.1632822821	 0.101905
163.7902	362.0243	424.8407	488.1135	592.9861	709.6772	770.6561	777.9572	801.8795	833.9671	845.4274	855.2734	911.007	947.8831	975.1144	1002.3284	1014.9532	1077.9498	1088.2267	1130.8008	1162.9082	1185.4924	1198.7712	1212.3843	1236.3059	1277.356	1297.7642	1312.2709	1499.7269	1898.3183	3060.4649	3117.2425	3136.0822	3145.2442	3165.3319	3173.625
O=C1C2CC3C2OC13	O=C1[C@H]2C[C@@H]3[C@H]2O[C@H]13	
InChI=1S/C6H6O2/c7-4-2-1-3-5(2)8-6(3)4/h2-3,5-6H,1H2	InChI=1S/C6H6O2/c7-4-2-1-3-5(2)8-6(3)4/h2-3,5-6H,1H2/t2-,3-,5+,6+/m1/s1
