18
gdb 13780	2.74347	1.53798	1.29788	2.8005	69.49	-0.2416	-0.0179	0.2237	1026.447	0.151615	-384.937187	-384.928192	-384.927247	-384.971203	32.172	
C	-0.0467132295	 1.0426602853	 0.9024473932	-0.424347
C	-0.1558781235	 0.3304779194	-0.4446735466	 0.112232
O	 0.9815928097	-0.4892756583	-0.7023589883	-0.432578
C	-1.4647698772	-0.4365912056	-0.583832328	-0.003825
C	-1.6093768065	-1.6300269209	-1.4591793959	-0.318481
C	-1.7481272027	-1.8063732621	 0.0498042367	-0.103944
C	-0.7277205932	-2.5900063179	 0.7839300167	 0.136232
O	-0.93085908	-3.1295449213	 1.8466845009	-0.275956
H	 0.8759003746	 1.6288395391	 0.9515309954	 0.125793
H	-0.8910227771	 1.7208649583	 1.0579372825	 0.126469
H	-0.049525641	 0.318082914	 1.7256299589	 0.131466
H	-0.1562655211	 1.0875130463	-1.2420771175	 0.093003
H	 1.3910533005	-0.7125849248	 0.1391409101	 0.288712
H	-2.327394511	 0.2245294771	-0.5361501641	 0.09829
H	-2.5005839372	-1.7502038624	-2.0641527636	 0.122541
H	-0.6964762715	-2.0211074844	-1.8960263885	 0.141517
H	-2.7447341013	-1.9298774201	 0.4610647489	 0.10544
H	 0.255407168	-2.6775624916	 0.2751134192	 0.077435
61.8547	70.9813	142.23	196.2345	241.5283	275.8019	304.4206	322.0799	394.0241	467.9689	513.678	659.465	704.5193	842.1769	858.4765	883.1228	936.4346	996.9579	1040.7056	1055.2507	1069.0221	1083.7679	1087.5778	1142.9649	1167.7607	1193.5189	1224.7116	1306.1172	1341.2383	1372.1868	1385.2003	1410.5046	1421.9693	1440.7199	1484.1551	1493.3884	1496.4957	1804.6493	2908.9587	3003.49	3030.5689	3101.8956	3115.6194	3133.9631	3138.6853	3169.8892	3229.3718	3824.8658
CC(O)C1CC1C=O	C[C@@H](O)[C@H]1C[C@H]1C=O	
InChI=1S/C6H10O2/c1-4(8)6-2-5(6)3-7/h3-6,8H,2H2,1H3	InChI=1S/C6H10O2/c1-4(8)6-2-5(6)3-7/h3-6,8H,2H2,1H3/t4-,5+,6-/m1/s1
