13
gdb 25111	3.22854	1.5265	1.14547	3.0566	71.67	-0.2733	-0.0871	0.1862	1005.4637	0.090673	-448.9293	-448.922104	-448.92116	-448.961912	26.263	
N	 0.0110508069	 1.2992485217	-0.557095669	-0.456382
C	-0.0111231784	 0.1265643231	-0.1052954131	 0.421125
O	 1.2038326156	-0.5885933417	 0.0335705001	-0.222634
C	 1.5067286332	-1.3524505106	 1.1029768491	 0.137583
N	 0.8332502334	-1.7177391704	 2.1124161171	-0.318681
C	-0.5410378563	-1.5318791819	 2.299661821	 0.312445
N	-1.1143826623	-1.6757213172	 3.428315178	-0.469552
C	-1.441382837	-1.256381852	 1.1408995861	 0.012665
N	-1.2027179441	-0.5478316	 0.1134267414	-0.21049
H	 0.9698626291	 1.6322585576	-0.6517670665	 0.243717
H	 2.5493391667	-1.6547991648	 1.0236141585	 0.153325
H	-0.4098411936	-1.8562226919	 4.1489031041	 0.238572
H	-2.4345949633	-1.6968987617	 1.2311046233	 0.158307
42.7616	100.8181	263.0795	339.8582	368.4123	420.8786	477.0743	533.4557	628.2205	699.4303	748.6987	796.0156	841.1963	856.468	908.339	938.9544	981.347	992.7136	1010.3437	1070.1096	1156.2196	1263.3953	1363.89	1389.1734	1442.3013	1687.3905	1706.1326	1741.3853	1768.8495	3138.6044	3164.2376	3448.969	3511.9571
N=C1OC=NC(=N)C=N1	[NH][C]1OC=N[C]([NH])C=N1	
InChI=1S/C4H4N4O/c5-3-1-7-4(6)9-2-8-3/h1-2,5-6H	InChI=1S/C4H4N4O/c5-3-1-7-4(6)9-2-8-3/h1-2,5-6H
