14
gdb 21319	7.22389	1.13886	1.04153	1.2358	59.53	-0.2664	-0.0284	0.238	1099.062	0.107339	-415.840236	-415.832861	-415.831917	-415.872957	24.996	
C	-0.1025029716	 1.3257579991	 0.019314215	-0.223001
O	-0.000417318	-0.0803649534	 0.0064238008	-0.229799
C	 0.6633578466	-0.5603457638	-1.13906895	-0.168877
C	 0.6529326332	-2.0541378594	-1.1014289551	 0.371887
N	 1.7546858324	-2.7502217443	-1.0075820325	-0.166602
O	 1.3062225856	-4.075113638	-1.0190792564	-0.150517
C	-0.0235992594	-4.0116582894	-1.117000444	 0.107161
N	-0.4996933969	-2.8110824302	-1.1761117306	-0.291267
H	 0.8878497406	 1.8072646335	 0.0181510908	 0.108837
H	-0.6697309325	 1.7003871748	-0.84709586	 0.109
H	-0.6298457505	 1.6014436196	 0.934917957	 0.134926
H	 0.1533305121	-0.2226767894	-2.0565266836	 0.111246
H	 1.7060092678	-0.2116765345	-1.1814166892	 0.119045
H	-0.5597774495	-4.9490983446	-1.140333732	 0.167961
62.9187	84.6375	129.6849	230.6299	328.1343	348.9375	397.8954	636.4642	709.4467	816.3175	905.4477	912.9709	981.8811	985.5548	1000.3053	1043.4531	1141.4507	1158.3052	1183.1945	1225.314	1253.0296	1299.5825	1368.6634	1419.2958	1479.1585	1485.8356	1497.3316	1517.1801	1533.7244	1604.5975	2967.2487	2977.206	3016.893	3021.958	3123.928	3267.6898
COCC1=NOC=N1	COCc1nocn1	
InChI=1S/C4H6N2O2/c1-7-2-4-5-3-8-6-4/h3H,2H2,1H3	InChI=1S/C4H6N2O2/c1-7-2-4-5-3-8-6-4/h3H,2H2,1H3
