16
gdb 43014	2.39793	2.03289	1.39752	2.621	69.35	-0.2429	-0.039	0.2039	930.363	0.125871	-437.857233	-437.850374	-437.84943	-437.888385	27.188	
O	 0.0182515593	 0.6391497822	-1.3192186686	-0.326827
C	-0.039499819	 1.2876067448	-0.2961567923	 0.41728
C	-1.3415650619	 1.750333709	 0.2681927163	-0.137901
C	-1.6273858864	 1.639435665	 1.7448583228	-0.253641
N	-1.4057236221	 2.936388312	 1.1389631639	-0.105851
C	-0.1779536428	 3.6812861173	 1.4190188021	-0.19772
C	 1.1463109422	 2.9692040422	 1.2250081894	 0.051351
O	 1.2899234656	 1.6823301629	 1.8119583913	-0.239909
C	 1.2194940528	 1.7605548578	 0.3751775098	-0.088804
H	-2.1628736748	 1.6393462981	-0.4345433687	 0.117309
H	-2.6547893641	 1.4428161581	 2.0412668736	 0.125572
H	-0.8592396194	 1.2075449765	 2.3746568463	 0.15403
H	-0.1727613207	 4.5651894252	 0.7680160971	 0.126254
H	-0.2441133857	 4.0484585787	 2.4500263721	 0.130334
H	 2.0331188757	 3.6016037771	 1.2967396354	 0.10883
H	 2.1346965414	 1.496724763	-0.1494622906	 0.119693
120.9602	247.0772	261.117	346.4434	382.305	428.6755	461.6453	546.1978	642.0887	708.5797	760.813	792.1677	846.662	890.2787	905.184	951.0445	956.8334	1035.985	1055.2382	1066.3369	1114.5415	1124.9704	1144.742	1168.7497	1256.114	1280.7156	1291.4439	1315.6322	1355.4357	1364.0938	1383.7193	1443.3301	1475.9328	1494.8062	1790.0725	3026.0085	3067.5344	3098.5826	3115.674	3152.3876	3154.12	3226.6205
O=C1C2CN2CC2OC12	O=C1[C@H]2CN2C[C@H]2O[C@@H]12	
InChI=1S/C6H7NO2/c8-5-3-1-7(3)2-4-6(5)9-4/h3-4,6H,1-2H2	InChI=1S/C6H7NO2/c8-5-3-1-7(3)2-4-6(5)9-4/h3-4,6H,1-2H2/t3-,4-,6-,7?/m1/s1
