21
gdb 68069	2.54693	1.79398	1.27634	1.4946	83.	-0.2296	0.0137	0.2432	1072.5335	0.182098	-387.098046	-387.089714	-387.08877	-387.130007	34.121	
C	 0.0003801704	 1.5322291069	 0.0890170316	-0.47114
C	 0.0052685714	 0.0280415615	-0.0471281089	 0.404124
C	 0.7085713055	-0.6334923008	-1.2569828996	-0.319994
C	 1.140110934	-1.6610057747	-0.1794083257	 0.381935
C	 2.5254361655	-2.2591481861	-0.1881306259	-0.49152
O	 0.9808179729	-0.610721277	 0.8354724049	-0.356876
C	 0.00395419	-2.6533490752	 0.0150769587	-0.084388
C	-1.2075935835	-2.1381489893	 0.2160698833	-0.079905
C	-1.3632487423	-0.6329512026	 0.2197498423	-0.290087
H	 1.0033567779	 1.9351932781	-0.0753174821	 0.119993
H	-0.6832795672	 1.983257523	-0.6385464599	 0.115632
H	-0.3287332921	 1.8263817792	 1.0917205517	 0.123853
H	 0.1083526662	-0.9850372534	-2.0983218343	 0.094932
H	 1.5489158864	-0.026275522	-1.6033614698	 0.094944
H	 3.2813761344	-1.4783535137	-0.3045046446	 0.120514
H	 2.719342648	-2.7913814661	 0.7493171914	 0.128115
H	 2.6274162665	-2.9737058496	-1.012198911	 0.11791
H	 0.2010486983	-3.7204490748	-0.0102078974	 0.08566
H	-2.084325981	-2.7565958669	 0.3850300065	 0.09245
H	-1.7538053829	-0.2905649814	 1.1880055367	 0.110344
H	-2.0936286385	-0.3153328851	-0.5373570879	 0.103505
192.2866	205.2387	218.9581	231.1615	275.5759	343.2294	355.88	415.7851	474.8397	492.3297	524.912	588.9668	698.3663	722.3494	734.2696	847.388	858.8636	881.0002	915.5534	938.0179	952.4886	970.8203	980.8075	1009.2814	1043.8524	1068.8179	1125.737	1155.9467	1180.5017	1227.0212	1240.66	1250.1302	1272.1607	1293.9448	1364.7091	1392.2439	1404.9944	1411.7156	1460.317	1478.702	1480.827	1487.1193	1491.6369	1495.3006	1695.833	3008.0542	3032.0632	3033.865	3038.0152	3059.672	3099.5814	3101.5708	3115.9945	3119.7282	3125.9987	3160.8413	3185.9395
CC12CC(C)(O1)C=CC2	C[C@@]12C[C@@](C)(O1)C=CC2	
InChI=1S/C8H12O/c1-7-4-3-5-8(2,6-7)9-7/h3-4H,5-6H2,1-2H3	InChI=1S/C8H12O/c1-7-4-3-5-8(2,6-7)9-7/h3-4H,5-6H2,1-2H3/t7-,8+/m0/s1
