21
gdb 126528	3.22229	1.01399	0.8269	2.6459	85.97	-0.2267	0.0283	0.255	1454.8643	0.183457	-383.304532	-383.294914	-383.293969	-383.340247	34.341	
C	-0.0581798026	 1.5921228714	-0.0727881032	-0.380871
C	-0.0296154684	 0.0622305746	-0.083630523	-0.158352
C	-1.4310651272	-0.5589547368	 0.0888846042	-0.311471
C	-1.4338330292	-2.0559393425	 0.1065783457	 0.363935
C	-1.3843206167	-2.9445016802	 1.1667529653	-0.308464
C	-1.3771604258	-4.2205236146	 0.5738572363	-0.004053
N	-1.4201211766	-4.1475033431	-0.7529038609	-0.270743
N	-1.4528152377	-2.8219536603	-1.0213869912	-0.010022
C	-1.5102405743	-2.3875073932	-2.4007987254	-0.331834
H	 0.9459684285	 2.0088967433	-0.1962662495	 0.116115
H	-0.6835052628	 1.9841037706	-0.8829241	 0.114102
H	-0.4638304534	 1.9741476858	 0.8706409062	 0.117052
H	 0.4150275432	-0.2932419383	-1.0213272085	 0.100965
H	 0.6194257926	-0.3085529565	 0.7180503674	 0.108948
H	-1.8633469373	-0.204704339	 1.0313629146	 0.114592
H	-2.0899506056	-0.1863021389	-0.7062017409	 0.102888
H	-1.3650702236	-2.6930206298	 2.2154414912	 0.095341
H	-1.3488853264	-5.1880435802	 1.0536778691	 0.106142
H	-2.3562254951	-1.7128769557	-2.5649511444	 0.136705
H	-0.5890483344	-1.8771265219	-2.7011067649	 0.136759
H	-1.6394447273	-3.2801441147	-3.011478908	 0.162266
39.2996	74.271	91.7565	115.249	208.2836	243.2788	279.865	310.2702	363.0376	433.864	655.5753	667.7808	709.2109	740.3175	769.2235	796.5619	871.4247	884.0155	898.3469	946.1216	1023.5381	1042.6156	1067.6348	1080.8554	1108.8407	1149.2061	1195.195	1231.3507	1259.192	1306.7741	1314.5897	1329.4933	1366.0506	1381.9102	1413.3679	1424.1628	1455.5679	1480.9838	1486.4906	1493.5008	1499.1767	1501.329	1509.8576	1516.6053	1579.409	3019.9392	3028.8544	3031.9348	3037.1286	3055.6516	3075.227	3094.3053	3098.2573	3105.0763	3165.2091	3239.5154	3261.9287
CCCC1=CC=NN1C	CCCc1ccnn1C	
InChI=1S/C7H12N2/c1-3-4-7-5-6-8-9(7)2/h5-6H,3-4H2,1-2H3	InChI=1S/C7H12N2/c1-3-4-7-5-6-8-9(7)2/h5-6H,3-4H2,1-2H3
