14
gdb 21246	3.36486	1.91196	1.29645	3.3957	60.85	-0.2091	0.0089	0.218	905.9868	0.107063	-415.831788	-415.824067	-415.823123	-415.864386	27.386	
C	 0.1609594887	 1.0975019647	 0.4026170899	-0.251239
O	-0.4501977201	 0.130947403	-0.4502819531	-0.282637
C	 0.4141738824	-0.5068655211	-1.2927107507	 0.101752
C	 0.8167848825	-1.8141909326	-1.1945312175	 0.400511
N	 0.5881627156	-2.7720124851	-0.236840212	-0.59755
O	 1.6001320048	-2.1303173344	-2.2281889347	-0.213398
N	 1.7458768066	-0.995278828	-3.0677268449	-0.162746
C	 1.0324918585	-0.0606985149	-2.4884042666	-0.038039
H	 0.9311711646	 0.6390201434	 1.0354666935	 0.122334
H	 0.6178709149	 1.909200184	-0.1774220057	 0.121534
H	-0.6331516795	 1.5080896844	 1.0299390325	 0.131808
H	-0.2390918534	-2.5844428542	 0.3128096708	 0.268643
H	 0.6173192149	-3.7211420739	-0.5834925103	 0.267816
H	 0.9758256194	 0.9155974546	-2.9501672212	 0.131211
47.9908	155.845	172.6576	247.7805	270.1378	296.1145	436.4724	492.221	613.3888	644.0796	648.9426	748.4192	759.0308	879.3481	908.6361	936.4489	1037.4351	1079.8379	1176.5326	1182.3342	1214.6541	1257.1676	1361.1138	1427.4593	1482.6244	1488.6598	1503.4266	1540.4475	1631.081	1698.1878	3007.7915	3070.0649	3127.9273	3235.9478	3555.9354	3659.243
COC1=C(N)ON=C1	COc1c(N)onc1	
InChI=1S/C4H6N2O2/c1-7-3-2-6-8-4(3)5/h2H,5H2,1H3	InChI=1S/C4H6N2O2/c1-7-3-2-6-8-4(3)5/h2H,5H2,1H3
