16
gdb 30075	3.32496	1.1725	0.897	3.3084	74.06	-0.2126	-0.0066	0.206	1243.9866	0.123997	-437.935629	-437.927022	-437.926077	-437.96999	30.222	
C	 0.0841658751	 1.3522731586	 0.2629495447	-0.348244
N	-0.0253326231	-0.0829806127	 0.0866498288	-0.046455
C	 0.0250089985	-0.7646001394	-1.1097282445	-0.100951
C	-0.0427553716	-2.1112851082	-0.8491589333	-0.150365
C	-0.1442851387	-2.2744482702	 0.5623084619	-0.273774
C	-0.1248456051	-1.0078239498	 1.0928715537	 0.353454
O	-0.2211272737	-0.561873741	 2.3861211767	-0.220423
C	 0.6871929064	-1.0458413489	 3.2870315234	 0.155718
O	 0.6284678295	-0.7762104251	 4.4441113051	-0.255849
H	 1.129922509	 1.6721651508	 0.33354867	 0.14146
H	-0.3813956158	 1.8563368461	-0.5865057924	 0.144577
H	-0.4338296629	 1.6471202355	 1.176341527	 0.16417
H	 0.0954373764	-0.2230988706	-2.0393552247	 0.120488
H	-0.04048035	-2.8986018515	-1.5865371651	 0.103605
H	-0.254981895	-3.192901962	 1.1162213247	 0.10991
H	 1.4364433611	-1.6949115615	 2.8014979141	 0.102679
60.3543	68.4935	134.7157	153.6871	181.7157	283.7374	374.8016	481.7572	491.8531	620.9064	648.4857	697.4671	711.6811	768.2247	834.6159	836.149	920.1171	1030.0588	1045.3115	1068.2002	1110.6898	1119.5397	1151.9932	1209.5717	1261.4124	1332.9272	1398.8909	1405.3803	1448.206	1477.7778	1489.8716	1515.2497	1543.6015	1593.1082	1876.8544	2996.9387	3037.6162	3111.4562	3152.319	3248.5548	3261.1695	3272.8732
CN1C=CC=C1OC=O	Cn1cccc1OC=O	
InChI=1S/C6H7NO2/c1-7-4-2-3-6(7)9-5-8/h2-5H,1H3	InChI=1S/C6H7NO2/c1-7-4-2-3-6(7)9-5-8/h2-5H,1H3
