18
gdb 15660	3.40848	1.75919	1.23417	3.3837	74.04	-0.2331	-0.0435	0.1896	997.1234	0.15432	-347.849252	-347.841376	-347.840432	-347.881999	29.167	
C	 0.0298808602	 1.5979079924	-0.1285037075	-0.389221
C	 0.0243133113	 0.072645062	 0.0088105305	-0.181179
C	-1.3843544487	-0.5437640488	 0.1002188784	-0.090557
C	-1.4123619325	-2.0866501419	 0.0003106369	-0.296203
C	-2.2155919837	-2.5351095071	 1.1934123894	-0.049667
C	-2.5927363275	-1.5219072834	 1.9806572494	-0.163258
C	-2.1049001955	-0.2360628453	 1.4318363921	 0.377293
O	-2.2419018559	 0.8584606238	 1.9330907415	-0.339364
H	 1.0549994871	 1.9787931081	-0.1743145291	 0.105582
H	-0.4817478109	 1.9072910929	-1.0472612278	 0.107916
H	-0.4827260967	 2.0672584248	 0.7128580139	 0.154653
H	 0.5369782495	-0.3754055955	-0.8518368734	 0.094709
H	 0.6004789422	-0.2259984214	 0.8947229215	 0.099681
H	-2.0024083946	-0.1097256824	-0.6965614008	 0.101786
H	-1.8541356953	-2.4453912209	-0.9370249134	 0.118438
H	-0.4015804792	-2.5143613176	 0.0390343423	 0.120398
H	-2.4373348445	-3.5823400613	 1.3725468754	 0.114578
H	-3.1578990452	-1.5805744184	 2.9020000409	 0.114414
43.8639	125.0891	203.0774	243.0206	267.7739	340.601	381.1139	478.7058	619.0546	667.3537	741.0554	759.3747	795.7606	832.2591	901.2027	947.3985	965.0062	1005.7591	1021.2015	1056.4096	1101.7637	1117.192	1127.8533	1177.796	1202.53	1248.5674	1287.1198	1305.7582	1349.5293	1362.0214	1372.3482	1412.286	1472.1459	1490.1711	1496.0818	1515.2325	1653.6129	1800.524	3012.6698	3022.6694	3024.4824	3034.1132	3049.7916	3055.9927	3096.1991	3143.0486	3185.4091	3226.4617
CCC1CC=CC1=O	CC[C@H]1CC=CC1=O	
InChI=1S/C7H10O/c1-2-6-4-3-5-7(6)8/h3,5-6H,2,4H2,1H3	InChI=1S/C7H10O/c1-2-6-4-3-5-7(6)8/h3,5-6H,2,4H2,1H3/t6-/m0/s1
