20
gdb 111420	2.12954	1.5861	1.05855	1.3145	75.58	-0.2267	0.0759	0.3026	1183.3836	0.170495	-440.213193	-440.204012	-440.203068	-440.247105	34.067	
C	-0.0032265047	 1.3874681271	 0.0905345333	-0.253571
O	-0.0151473632	 0.0255036995	-0.3012710947	-0.242983
C	-1.2382069762	-0.6084563338	-0.0828138354	 0.160526
C	-1.3733149507	-1.9898809208	-0.7088053669	-0.104168
N	-0.4325427263	-2.9005610379	-0.0106325321	-0.325546
C	-1.7446970616	-2.5899595195	 0.6050064057	-0.076888
C	-1.5656505563	-1.2564669349	 1.3379502444	-0.043782
C	-0.5035218554	-1.2100889251	 2.4194375848	-0.088594
O	-0.5911064101	 0.0591843852	 3.0683062379	-0.421747
H	 0.9891837319	 1.7783658293	-0.147810064	 0.119014
H	-0.7540579233	 1.9692184864	-0.4675772053	 0.097348
H	-0.1935000629	 1.4963514306	 1.1647923817	 0.132659
H	-2.0740026187	 0.0366408875	-0.3921691426	 0.066351
H	-1.7247339234	-2.2235314962	-1.7062296556	 0.091892
H	-0.5226295206	-3.8085692623	-0.4658487331	 0.228312
H	-2.4621091436	-3.3717555003	 0.8212395284	 0.09203
H	-2.5072743388	-0.8685273646	 1.735748136	 0.078177
H	-0.6829124167	-2.0254745577	 3.1390841149	 0.081924
H	 0.4829198421	-1.3651609314	 1.9698823427	 0.123202
H	 0.1809593684	 0.1559158489	 3.6332184898	 0.285845
98.5394	120.126	154.4982	173.0157	205.6357	240.1621	282.8791	301.53	387.8743	449.398	572.496	604.0019	697.2859	792.4126	829.7461	847.4737	902.0052	972.6984	981.2471	1022.4544	1023.3795	1061.9562	1065.6405	1096.501	1108.2699	1125.6914	1167.0875	1177.48	1192.6824	1225.2179	1239.3781	1257.7508	1274.7082	1304.3593	1335.8385	1347.4285	1381.9199	1405.9107	1453.3824	1482.2791	1491.8545	1514.8542	1520.4777	2969.9923	2977.3842	2991.2799	3061.304	3066.2895	3081.6592	3116.1863	3184.0874	3197.1369	3471.8122	3832.0005
COC1C2NC2C1CO	CO[C@H]1[C@H]2N[C@H]2[C@H]1CO	
InChI=1S/C6H11NO2/c1-9-6-3(2-8)4-5(6)7-4/h3-8H,2H2,1H3	InChI=1S/C6H11NO2/c1-9-6-3(2-8)4-5(6)7-4/h3-8H,2H2,1H3/t3-,4+,5+,6-/m1/s1
