20
gdb 77493	2.16482	1.5267	1.50941	2.0216	81.15	-0.2344	0.0115	0.246	1079.8763	0.168311	-403.11233	-403.102755	-403.101811	-403.145976	35.726	
C	 0.0121713712	 1.5001935157	-0.092464163	-0.353315
N	-0.0083500603	 0.0428456102	 0.0658631019	-0.141005
C	-1.167876502	-0.5905257962	 0.8448771696	 0.210278
C	-2.5878266222	-0.5529267847	 0.3724567999	-0.522896
C	-0.2136643119	-1.8023275845	 1.0354324043	-0.295497
C	 0.7003319803	-0.5695088486	 1.2804877907	 0.210279
C	 2.1816432424	-0.4992636435	 1.4845486822	-0.522904
C	-0.4790380196	 0.0355416919	 2.0848508121	 0.348125
O	-0.6965282148	 0.7948226597	 2.9809987877	-0.333013
H	 1.0009027803	 1.7941557371	-0.4575415906	 0.127755
H	-0.7189908018	 1.7747852543	-0.8588099219	 0.127753
H	-0.2075789579	 2.0724014629	 0.82181631	 0.128302
H	-2.6819036346	-0.9961042853	-0.6237480471	 0.132959
H	-3.2288305773	-1.1122748919	 1.0607152886	 0.135883
H	-2.9608753411	 0.475398954	 0.3322179354	 0.134732
H	-0.4031949362	-2.4669411828	 1.8803938785	 0.10331
H	 0.0091402518	-2.3288259816	 0.1052271531	 0.105674
H	 2.7160067778	-0.9341989676	 0.6342717447	 0.132966
H	 2.5118222199	 0.5368695248	 1.6096348712	 0.134739
H	 2.4641226362	-1.0493577239	 2.3873534426	 0.135875
136.8042	174.6286	181.1026	185.2791	198.7989	200.9569	218.6372	225.0626	349.8325	440.1037	516.8088	537.717	598.845	677.0864	698.6008	730.8822	765.5179	834.6991	862.8202	916.2704	995.5441	1016.3456	1070.2438	1134.3029	1137.3737	1149.9429	1150.8822	1183.8719	1189.3636	1207.0606	1302.4605	1377.8043	1409.9334	1427.2975	1446.7071	1483.1785	1483.9132	1488.516	1488.9334	1489.5324	1496.9205	1501.1102	1883.2994	2988.3383	3038.3524	3038.6052	3070.3001	3078.8888	3107.498	3108.6789	3110.164	3112.4734	3112.7801	3148.9699
CN1C2(C)CC1(C)C2=O	CN1[C@@]2(C)C[C@]1(C)C2=O	
InChI=1S/C7H11NO/c1-6-4-7(2,5(6)9)8(6)3/h4H2,1-3H3	InChI=1S/C7H11NO/c1-6-4-7(2,5(6)9)8(6)3/h4H2,1-3H3/t6-,7+
