13
gdb 132833	3.04518	1.5308	1.0187	2.8461	77.78	-0.246	-0.0524	0.1936	1064.2831	0.089602	-423.60756	-423.600465	-423.599521	-423.639195	27.055	
F	-0.007969899	 0.0588360065	 0.0040653723	-0.047444
C	-0.0221007909	 1.3844605385	 0.0108972941	 0.277378
N	-1.2009511595	 1.9529318667	 0.0289048393	-0.314851
C	-1.2387662787	 3.2913264636	 0.0361291232	 0.002335
C	-0.0973747678	 4.0838655062	 0.0254558308	-0.119101
C	 1.1428594474	 3.4563562259	 0.0063743889	-0.153542
C	 1.2133696744	 2.0586110221	-0.0015649336	-0.041724
C	 2.446475818	 1.3548488748	-0.0209303348	 0.238297
C	 3.5011114676	 0.7751692923	-0.037348558	-0.404126
H	-2.2283445892	 3.7393206316	 0.0510977175	 0.124578
H	-0.1774823917	 5.1641169152	 0.0319208099	 0.112224
H	 2.0632303774	 4.0287437331	-0.002564097	 0.124904
H	 4.4258445121	 0.2527919734	-0.0517445025	 0.201072
123.4097	140.9707	233.0129	388.1706	388.9462	472.2504	505.3272	576.3381	585.6823	590.0787	607.2823	658.478	741.8736	790.0531	828.0192	881.7871	972.6721	988.7823	1086.2507	1121.2755	1208.6631	1280.9129	1313.4048	1330.8343	1478.0896	1485.8362	1600.7245	1635.038	2232.155	3170.4372	3199.3548	3214.7518	3499.7438
FC1=NC=CC=C1C#C	Fc1ncccc1C#C	
InChI=1S/C7H4FN/c1-2-6-4-3-5-9-7(6)8/h1,3-5H	InChI=1S/C7H4FN/c1-2-6-4-3-5-9-7(6)8/h1,3-5H
