17
gdb 133109	2.52666	1.51112	0.95372	1.557	81.04	-0.1944	0.0092	0.2036	1190.3377	0.137046	-426.037247	-426.029197	-426.028252	-426.069811	30.847	
C	 0.0188909751	 1.4387608296	 0.1287198415	-0.323873
N	-0.1365367785	 0.0193283229	-0.1032320131	-0.375252
C	 0.5496594199	-0.6268810786	-1.1146660534	 0.234908
C	 1.1647649651	 0.0243938204	-2.1918931477	-0.213187
C	 1.7989330074	-0.7047010522	-3.1979253799	-0.098585
C	 1.846875032	-2.0927269879	-3.1544250543	-0.132851
C	 1.2503962902	-2.7618643347	-2.0822221425	-0.22295
C	 0.622712199	-2.0301215253	-1.0984349162	 0.224839
F	 0.0505635175	-2.6597127697	-0.0497984907	-0.102125
H	 1.0677390399	 1.7465363917	 0.2635992336	 0.117782
H	-0.3961878473	 2.0169370834	-0.704759931	 0.134163
H	-0.5393892365	 1.7111310832	 1.026855094	 0.127744
H	-0.2842123189	-0.548961634	 0.7148199896	 0.245078
H	 1.1438023105	 1.106083712	-2.2444955244	 0.0938
H	 2.262733177	-0.1718718936	-4.0212843656	 0.091568
H	 2.3423751378	-2.6565013352	-3.9359143844	 0.094402
H	 1.26668101	-3.8425031422	-1.9982040956	 0.104538
99.2014	165.3	206.5239	220.0924	306.536	325.7487	433.9155	463.9539	525.3664	545.3056	572.3853	606.1805	725.0513	761.6193	783.0428	843.7579	851.4372	908.9899	946.7452	1054.0501	1084.9707	1111.2685	1153.2842	1172.8142	1192.1831	1225.558	1289.6323	1327.4079	1375.1747	1462.6282	1476.5683	1486.0486	1501.0281	1524.9107	1558.9567	1625.9235	1660.467	2980.5131	3055.8856	3122.5799	3177.7152	3193.3487	3203.6598	3209.785	3638.5068
CNC1=CC=CC=C1F	CNc1ccccc1F	
InChI=1S/C7H8FN/c1-9-7-5-3-2-4-6(7)8/h2-5,9H,1H3	InChI=1S/C7H8FN/c1-9-7-5-3-2-4-6(7)8/h2-5,9H,1H3
