16
gdb 35064	2.50515	1.59354	1.52437	5.4975	68.59	-0.2682	0.0272	0.2954	956.7492	0.126279	-437.875916	-437.868554	-437.86761	-437.907997	27.775	
N	-0.2438421712	-1.1527273965	-0.175417102	-0.342881
C	-0.11875895	-0.006717082	-0.0832837653	 0.322349
C	-0.0195639409	 1.4214181814	 0.0036548386	-0.236468
C	 0.5095595867	 2.1112813661	 1.2611003252	-0.108551
C	 1.0261464507	 1.3186885249	 2.4474323904	-0.116342
O	 2.0407973132	 0.3981706128	 2.0724695339	-0.2181
C	 2.99833481	 0.9967239256	 1.2526580959	 0.01251
O	 2.4849557883	 1.3097892755	-0.0289351304	-0.234771
C	 1.3478374351	 2.1067483769	 0.0141182725	 0.091211
H	-0.8094848532	 1.9465984771	-0.5238532349	 0.13577
H	 0.0051464222	 3.0362889153	 1.5206066009	 0.113945
H	 1.42002179	 2.0273828564	 3.1935131863	 0.106663
H	 0.2345244451	 0.7286044695	 2.9163542186	 0.137542
H	 3.3928693631	 1.9119927302	 1.7287354096	 0.085623
H	 3.7953631261	 0.2708897135	 1.0903209485	 0.134606
H	 1.4371259347	 3.0103419732	-0.5829721877	 0.116894
108.3981	110.3937	177.8259	307.6044	369.5997	386.6616	499.7598	530.1984	600.8827	647.3619	739.297	782.4391	796.4371	859.1015	946.1012	966.2768	1004.1357	1030.3262	1037.7334	1093.1747	1102.567	1133.6565	1172.5221	1202.4737	1241.7832	1275.4307	1327.9648	1357.11	1363.8861	1381.3639	1434.524	1446.3963	1495.6414	1511.3064	2358.5204	2946.6209	2981.0082	3095.7919	3135.8479	3141.3071	3160.3004	3170.3434
N#CC1C2COCOC12	N#C[C@H]1[C@H]2COCO[C@@H]12	
InChI=1S/C6H7NO2/c7-1-4-5-2-8-3-9-6(4)5/h4-6H,2-3H2	InChI=1S/C6H7NO2/c7-1-4-5-2-8-3-9-6(4)5/h4-6H,2-3H2/t4-,5+,6-/m0/s1
