16
gdb 131547	3.01109	1.63684	1.10848	3.6203	71.24	-0.1959	0.0138	0.2097	1038.5312	0.127932	-434.065735	-434.05832	-434.057376	-434.097626	28.705	
O	 0.234188745	 1.3339461431	 0.3080044475	-0.424423
C	 0.0955655071	-0.0455388836	 0.0244801419	 0.018459
C	-1.4046165838	-0.4962095426	-0.1257411753	-0.196012
N	-1.4355217705	-1.5639671963	-1.1626783177	-0.426338
C	-0.2800813463	-1.3632919192	-1.9300729092	 0.235973
C	 0.3344820781	-1.7561575353	-3.0966395507	-0.196288
N	 1.5647641466	-1.1375724828	-3.0622454028	-0.187856
N	 1.7774680265	-0.3869571625	-1.9644770766	-0.3269
C	 0.6457167381	-0.5272566097	-1.2857762232	 0.269665
H	 0.164333915	 1.8079741281	-0.5279586922	 0.28006
H	 0.5630727849	-0.5584527963	 0.8728897578	 0.10934
H	-1.8257344364	-0.8616850469	 0.8139161816	 0.113285
H	-1.9756526708	 0.3911877044	-0.4355702107	 0.097456
H	-2.3055540119	-1.6052505842	-1.6772454505	 0.233047
H	 0.0410277611	-2.3806232644	-3.923929124	 0.127876
H	 2.2770792474	-1.1710128917	-3.7710237958	 0.272656
94.9453	164.8174	250.9808	294.3228	327.5195	430.9374	466.9641	528.4345	560.872	629.7745	652.9105	694.928	724.2411	772.7591	803.1038	970.8214	975.3472	991.1632	1042.7709	1058.0277	1083.5449	1147.5557	1192.2682	1205.1872	1254.3605	1302.7126	1314.3303	1328.9307	1389.0725	1426.0963	1465.5893	1479.2642	1503.5163	1525.6433	1649.5175	2999.638	3042.1995	3095.3975	3270.9904	3561.078	3679.6821	3803.6179
OC1CNC2=CNN=C12	O[C@H]1CNc2c[nH]nc12	
InChI=1S/C5H7N3O/c9-4-2-6-3-1-7-8-5(3)4/h1,4,6,9H,2H2,(H,7,8)	InChI=1S/C5H7N3O/c9-4-2-6-3-1-7-8-5(3)4/h1,4,6,9H,2H2,(H,7,8)/t4-/m0/s1
