12
gdb 123278	9.85242	0.67894	0.63517	4.4236	90.8	-0.2338	-0.0426	0.1912	1611.3537	0.078309	-394.47485	-394.467386	-394.466442	-394.507368	27.24	
C	 0.0946312834	-3.754478389	-0.0196008931	-0.594963
C	 0.0589138707	-2.5468141366	-0.0124293995	 0.272313
C	 0.0173520278	-1.190020602	-0.004359966	-0.113365
C	-0.030839019	 0.0213710751	 0.0030017247	 0.41659
C	-0.0760304681	 1.427435346	 0.0114338773	 0.096713
C	-1.1813943832	 2.258318615	 0.0310316597	-0.195166
N	-0.6555175688	 3.498750823	 0.0307960619	-0.161888
N	 0.6952675193	 3.4667265306	 0.0122932463	-0.109447
N	 1.051629798	 2.2234350583	 0.000547825	-0.257604
H	 0.1294869021	-4.8156784742	-0.0259373436	 0.194429
H	-2.2390099121	 2.0599469899	 0.0442677863	 0.161742
H	-1.1281821801	 4.3889737239	 0.0421504211	 0.290645
77.036	87.7403	237.5794	238.5937	438.9311	456.8796	491.0022	549.401	569.1887	583.3674	618.365	625.493	701.3364	743.8178	819.1032	949.8643	978.2716	1032.1634	1074.7042	1129.5459	1259.2508	1302.7169	1366.6682	1488.0625	1569.7152	2183.2451	2348.481	3295.1076	3503.7816	3654.1678
C#CC#CC1=CNN=N1	C#CC#Cc1c[nH]nn1	
InChI=1S/C6H3N3/c1-2-3-4-6-5-7-9-8-6/h1,5H,(H,7,8,9)	InChI=1S/C6H3N3/c1-2-3-4-6-5-7-9-8-6/h1,5H,(H,7,8,9)
