19
gdb 113520	2.5769	1.19379	1.0664	4.02	77.93	-0.2328	-0.0142	0.2186	1225.5932	0.157968	-423.018109	-423.009008	-423.008063	-423.052442	33.497	
O	 0.1363970388	 0.5068846758	 0.8926308641	-0.416743
C	-0.2072778871	 0.1537471054	-0.4415398867	-0.098596
C	-1.5241685064	-0.5736194338	-0.4096239374	-0.04685
C	-1.8077241536	-1.6666161338	-1.3910927045	-0.361565
C	-1.5424859339	-2.0178518319	 0.0550970283	 0.245605
C	-0.4166374808	-2.8388347557	 0.710565574	-0.333953
C	-1.4550871702	-3.4006053037	 1.7383598357	-0.343083
C	-2.5463066706	-2.579698048	 1.0194100547	 0.345142
O	-3.7297917595	-2.4424765145	 1.160998257	-0.318347
H	 0.9166013863	 1.0689387985	 0.8632369488	 0.288881
H	-0.295659014	 1.0477471111	-1.0784978666	 0.097256
H	 0.5615023463	-0.4945245502	-0.8918266759	 0.085521
H	-2.3699776434	 0.0212381286	-0.075870689	 0.11241
H	-2.8254098275	-1.7913290779	-1.7455867829	 0.134592
H	-1.0351851516	-1.9273358507	-2.1083838637	 0.118078
H	 0.0285064439	-3.6010793927	 0.0670377597	 0.104308
H	 0.3730492941	-2.2319504592	 1.156160298	 0.124535
H	-1.6218880957	-4.480957687	 1.7107494657	 0.128305
H	-1.2968508151	-3.1000634702	 2.7776686908	 0.134504
69.0666	92.3112	114.4954	159.6505	242.376	273.2543	282.3908	398.1775	428.8802	514.9353	548.3709	610.2967	726.398	757.2809	770.6063	856.8513	892.155	926.651	978.8577	1013.672	1029.9504	1060.7697	1066.454	1077.2799	1086.1353	1117.5063	1169.7527	1179.1601	1217.35	1226.5694	1242.3768	1267.3462	1284.4712	1321.8282	1400.2243	1437.8417	1466.771	1483.4895	1490.9758	1514.68	1876.0614	2967.9081	2997.8382	3063.6214	3072.3541	3113.3059	3124.912	3132.1785	3153.119	3215.5152	3825.6562
OCC1CC11CCC1=O	OC[C@H]1C[C@]21CCC2=O	
InChI=1S/C7H10O2/c8-4-5-3-7(5)2-1-6(7)9/h5,8H,1-4H2	InChI=1S/C7H10O2/c8-4-5-3-7(5)2-1-6(7)9/h5,8H,1-4H2/t5-,7+/m1/s1
