16
gdb 29402	5.09104	0.8481	0.78783	2.5642	73.32	-0.2383	-0.0343	0.2039	1440.0464	0.123037	-437.936179	-437.927456	-437.926511	-437.971454	30.16	
C	 0.1164102697	 1.5147401984	 0.1601748464	-0.491603
C	 0.0131144843	 0.0338145963	 0.0240875939	 0.248676
C	-0.188213506	-0.7259715239	-1.0795065554	-0.119177
O	-0.2053279267	-2.0425470592	-0.7028262499	-0.168187
C	-0.0024333123	-2.012103927	 0.6381102563	 0.353975
C	-0.0099670627	-3.3113289887	 1.3647316669	-0.373769
C	-1.4263422044	-3.8441032276	 1.5795649534	 0.1574
O	-1.7521135543	-4.9835294494	 1.3881479725	-0.225334
N	 0.1280030489	-0.8181660818	 1.1234303888	-0.338629
H	 1.087367052	 1.8010600614	 0.5775477616	 0.141816
H	-0.001269441	 2.0077013144	-0.8080683263	 0.126314
H	-0.6527771098	 1.8984133618	 0.8384721515	 0.141308
H	-0.3235646343	-0.5238681551	-2.1279956852	 0.146413
H	 0.5720648033	-4.0748138763	 0.8430946986	 0.145837
H	 0.4295275887	-3.1353487053	 2.3530089281	 0.15959
H	-2.1461449453	-3.0808588582	 1.9495462387	 0.095369
24.9167	59.2884	126.6768	141.7635	249.6212	253.5504	374.3539	401.9655	447.1733	633.8504	652.6994	717.4463	744.1783	762.4327	829.0095	959.9741	986.5407	1026.4717	1041.0958	1049.8802	1068.1825	1133.9196	1180.3189	1236.7493	1278.6833	1300.5234	1369.7588	1417.3125	1418.7704	1440.3284	1475.621	1490.4005	1606.0692	1640.6582	1841.5293	2892.2605	3039.8672	3056.8294	3096.5883	3123.1203	3123.8485	3292.6172
CC1=COC(CC=O)=N1	Cc1coc(CC=O)n1	
InChI=1S/C6H7NO2/c1-5-4-9-6(7-5)2-3-8/h3-4H,2H2,1H3	InChI=1S/C6H7NO2/c1-5-4-9-6(7-5)2-3-8/h3-4H,2H2,1H3
