14
gdb 64838	3.09468	1.17702	1.13504	3.2905	69.09	-0.2645	-0.0769	0.1875	1098.6854	0.100121	-436.720715	-436.712663	-436.711719	-436.753814	29.622	
O	-0.0495837834	 1.4237852715	 0.0350759022	-0.440325
C	-0.0007546008	 0.0034678571	 0.0128319148	 0.218758
C	-1.4449868716	-0.5372824381	-0.0681765151	-0.379857
C	-1.5018986864	-1.3685971464	-1.3585737778	 0.385628
O	-2.4571595093	-1.9827344785	-1.7602392674	-0.307486
C	-0.1665150453	-1.2644035534	-2.0042527774	-0.177151
C	 0.6584584232	-0.5282254848	-1.2593602868	-0.094268
C	 0.727046334	-0.4917192586	 1.2011955704	 0.226077
N	 1.3320784201	-0.8541861122	 2.1169312679	-0.327787
H	 0.8490466561	 1.7664337307	 0.1119325471	 0.296568
H	-1.7319156589	-1.1455062642	 0.7912203978	 0.158636
H	-2.1357309788	 0.3066957481	-0.1326448736	 0.166607
H	 0.0547870041	-1.7326717332	-2.9546611239	 0.13829
H	 1.691891267	-0.2867398881	-1.4823261181	 0.13631
48.3653	148.4672	179.9626	243.2252	308.3664	362.9672	411.2701	446.9924	490.9833	562.301	587.4445	641.7142	689.2292	803.8345	827.9566	838.5704	903.6213	1003.026	1040.3021	1064.5876	1077.5976	1124.0571	1193.4958	1221.2244	1274.7249	1340.6429	1374.6451	1443.4538	1657.8462	1833.3894	2350.4789	3087.2986	3139.5746	3197.9763	3232.3236	3795.906
OC1(CC(=O)C=C1)C#N	O[C@]1(CC(=O)C=C1)C#N	
InChI=1S/C6H5NO2/c7-4-6(9)2-1-5(8)3-6/h1-2,9H,3H2	InChI=1S/C6H5NO2/c7-4-6(9)2-1-5(8)3-6/h1-2,9H,3H2/t6-/m1/s1
