21
gdb 120833	4.15736	0.59058	0.54926	3.9318	80.94	-0.2444	-0.0185	0.2259	1985.8401	0.180246	-424.214706	-424.204294	-424.20335	-424.251776	36.375	
O	 0.0144857236	 1.4016776783	 0.2801542012	-0.421495
C	 0.0087078183	-0.017250922	 0.2892409247	-0.067347
C	-1.3335173387	-0.4791784859	-0.270366024	-0.1983
C	-1.4473820948	-1.9878219481	-0.3105295217	-0.015902
C	-1.8990200769	-2.7745473266	 0.8978050788	-0.293279
C	-2.7715736123	-2.7202994993	-0.3375547693	-0.029689
C	-4.1138477935	-2.0100545723	-0.3261741521	-0.299869
C	-5.1970092667	-2.8955616996	 0.2556853497	 0.165456
O	-6.242927973	-3.1514296975	-0.2826800885	-0.239605
H	 0.8564086789	 1.7026817895	 0.6337001835	 0.286419
H	 0.8276444679	-0.4248888648	-0.3262121397	 0.084169
H	 0.1395609536	-0.4144915351	 1.3084615002	 0.088973
H	-2.1236375183	-0.0387354533	 0.3470640532	 0.104565
H	-1.451729467	-0.0584959104	-1.2765640439	 0.110096
H	-0.6711588732	-2.4636073699	-0.9062154367	 0.087165
H	-1.3982150993	-3.7035544486	 1.1463844889	 0.114971
H	-2.2257971099	-2.2044748922	 1.7629823396	 0.111885
H	-2.7745020899	-3.6228348831	-0.9437141105	 0.096316
H	-4.0596843696	-1.111479085	 0.3024795043	 0.119246
H	-4.42298875	-1.6995205619	-1.3291010703	 0.122301
H	-4.9470114391	-3.3194872122	 1.2560603925	 0.073923
52.4415	55.3054	87.9605	95.0339	117.44	201.5074	253.5956	265.3638	313.5387	403.2585	459.0179	490.9393	542.7622	773.4208	784.6098	817.9407	843.6853	896.7931	931.2394	949.5697	1009.2278	1039.3766	1063.2989	1076.8033	1088.7318	1093.2213	1146.531	1162.1274	1186.2303	1233.3673	1239.7734	1250.0636	1254.4473	1293.8541	1314.6496	1329.5871	1399.6352	1424.1413	1430.8808	1457.5301	1460.4016	1488.5645	1498.5543	1527.5977	1835.1808	2863.5889	2961.9499	2990.1177	3027.9617	3035.8398	3078.4343	3092.0251	3123.8926	3124.8957	3138.9443	3210.0304	3831.7797
OCCC1CC1CC=O	OCC[C@H]1C[C@H]1CC=O	
InChI=1S/C7H12O2/c8-3-1-6-5-7(6)2-4-9/h3,6-7,9H,1-2,4-5H2	InChI=1S/C7H12O2/c8-3-1-6-5-7(6)2-4-9/h3,6-7,9H,1-2,4-5H2/t6-,7+/m1/s1
