21
gdb 37888	2.94697	2.04768	1.65188	0.2357	85.2	-0.2641	0.0931	0.3572	913.0531	0.187486	-349.920099	-349.913898	-349.912953	-349.950159	27.765	
C	-0.0722742716	 1.5442038732	 0.0068501903	-0.333983
C	 1.4693102288	 1.2624878734	 0.0175764669	-0.089943
C	 1.2199208799	 0.0490489134	 0.9527789193	-0.019588
C	 2.1900491999	-1.0842649413	 0.6095213292	-0.248205
C	 1.8566177967	-1.1918785433	-0.8983721141	-0.058756
C	 0.5928105168	-2.0969090449	-1.0819627955	-0.204672
C	-0.615188589	-1.3036079167	-0.4413845758	-0.356532
C	 0.0751244788	 0.0090061883	-0.1250655787	 0.347838
C	 1.255016989	 0.2091053003	-1.1133414778	-0.006942
H	-0.5028347681	 1.9334403068	 0.9345727153	 0.087352
H	-0.4674874721	 2.0785840335	-0.8624952865	 0.088178
H	 2.2672211145	 2.0033352949	 0.1024494337	 0.06279
H	 0.9564575862	 0.2332236289	 1.9968024482	 0.054246
H	 3.2343842508	-0.8096060442	 0.7960355627	 0.091005
H	 1.9847046231	-2.0099196742	 1.1577623803	 0.088395
H	 2.6893068387	-1.4979524093	-1.5346987159	 0.052478
H	 0.4041908282	-2.2574644696	-2.1486885224	 0.09594
H	 0.7335641528	-3.0833099914	-0.6292666543	 0.094802
H	-1.4363277198	-1.1887031518	-1.1556321751	 0.100798
H	-1.0185965693	-1.8034931562	 0.4446834041	 0.097928
H	 1.0320584756	 0.5413736303	-2.1297625839	 0.056872
195.4644	342.0475	369.1621	431.644	435.9936	574.1326	669.9233	699.8208	769.0767	791.2184	799.3842	828.9369	856.5702	879.9297	896.6239	916.5083	953.9382	971.0639	974.2195	1000.1502	1002.9428	1027.4898	1043.7298	1063.9702	1075.8695	1109.1998	1137.0199	1154.9797	1188.1773	1197.5233	1203.029	1219.6047	1228.5497	1248.5179	1261.2667	1275.1527	1284.8375	1311.419	1321.9361	1340.721	1374.1953	1481.7963	1497.5213	1509.1981	1517.6311	3033.7229	3039.0008	3040.0392	3050.1666	3072.7617	3076.1665	3080.6536	3085.1185	3090.7237	3096.1724	3099.3715	3100.9078
C1C2C3CC4CCC13C24	C1[C@H]2[C@@H]3C[C@H]4CC[C@@]13[C@@H]24	
InChI=1S/C9H12/c1-2-9-4-6-7(9)3-5(1)8(6)9/h5-8H,1-4H2	InChI=1S/C9H12/c1-2-9-4-6-7(9)3-5(1)8(6)9/h5-8H,1-4H2/t5-,6+,7+,8-,9-/m1/s1
