13
gdb 132695	3.26832	1.3462	0.95347	0.9771	64.03	-0.2336	-0.0192	0.2144	1098.9407	0.090138	-497.916359	-497.909325	-497.908381	-497.947747	27.44	
O	 0.0452547074	 1.349742458	 0.0624487149	-0.419795
C	 0.0570566399	-0.000066891	 0.0459340419	 0.456431
N	 0.0523212794	-0.5925645009	-1.143054641	-0.377718
C	 0.0640214142	-1.933195627	-1.1656531651	-0.101812
C	 0.0803481201	-2.6840361242	-0.0148695138	 0.109012
F	 0.0921291688	-4.0333621088	-0.0360881058	-0.098764
C	 0.0853329569	-2.0568732519	 1.23938839	 0.323477
O	 0.1013039248	-2.7793269692	 2.3774299125	-0.427928
C	 0.0733358922	-0.6725055289	 1.272241513	-0.326584
H	 0.0350271158	 1.6246288545	-0.8648369213	 0.29914
H	 0.0602141556	-2.423067393	-2.1349581867	 0.128279
H	 0.1075746353	-3.7149394887	 2.136691207	 0.309712
H	 0.0764573897	-0.1342352889	 2.2104846344	 0.126551
153.9256	225.0739	289.3602	355.7232	385.2953	450.2462	460.8725	494.2669	529.9266	535.1957	605.0591	692.3995	755.0691	773.1908	795.6058	874.4015	938.3519	983.6943	1165.455	1177.5966	1236.269	1294.4987	1306.1999	1353.9205	1410.0252	1505.2137	1543.4463	1648.0754	1672.0786	3175.2043	3225.4116	3770.9638	3784.1018
OC1=NC=C(F)C(O)=C1	Oc1ncc(F)c(O)c1	
InChI=1S/C5H4FNO2/c6-3-2-7-5(9)1-4(3)8/h1-2H,(H2,7,8,9)	InChI=1S/C5H4FNO2/c6-3-2-7-5(9)1-4(3)8/h1-2H,(H2,7,8,9)
