25
gdb 115597	2.95255	0.95227	0.89705	1.7504	88.98	-0.239	0.0755	0.3145	1510.8347	0.227224	-389.488128	-389.477312	-389.476368	-389.524235	39.83	
C	-0.1194943345	 1.6255724478	-0.2424409562	-0.38231
C	 0.0514382466	 0.1191412919	-0.0139931282	-0.199458
C	-1.2876407912	-0.5797695481	 0.142684732	 0.124096
O	-2.102253635	-0.4970423913	-1.0521101261	-0.298617
C	-2.4439782366	-1.8930100434	-0.9703483561	-0.10645
C	-1.4199508636	-2.1381531958	 0.1688801585	 0.266327
C	-0.1807291029	-2.9032871639	-0.2958426811	-0.458939
C	-1.9964360867	-2.6919429393	 1.4779567055	-0.240302
C	-2.4648930412	-4.1507074271	 1.4180173187	-0.394049
H	 0.8480217267	 2.1166695374	-0.3826989147	 0.108643
H	-0.7286320492	 1.8086470455	-1.1320138437	 0.138549
H	-0.6177399501	 2.1019422437	 0.6092213872	 0.111965
H	 0.6011424965	-0.3183314455	-0.8536288119	 0.098296
H	 0.6475816141	-0.0611122107	 0.8905003717	 0.093172
H	-1.824670647	-0.1269491371	 0.9929806632	 0.057131
H	-3.494472919	-2.0406386771	-0.6816245216	 0.088814
H	-2.2604509045	-2.4155127821	-1.9172432255	 0.095537
H	 0.2156813679	-2.4948593824	-1.229506303	 0.123337
H	 0.6171732714	-2.869585859	 0.4543303895	 0.113213
H	-0.4195361311	-3.9554991097	-0.479495563	 0.116297
H	-1.2435651854	-2.5826133635	 2.270850763	 0.09423
H	-2.8433005725	-2.060928432	 1.775775606	 0.097037
H	-2.9370301156	-4.4429090137	 2.3609341153	 0.11551
H	-3.2020690241	-4.3002352666	 0.6209725522	 0.117848
H	-1.6365208031	-4.8423061079	 1.2388502383	 0.120122
51.4821	80.5455	97.1165	162.0344	189.8921	224.1376	232.8656	265.776	310.3701	331.0188	350.568	372.2932	486.3515	539.0085	634.1097	762.6381	786.7875	832.8865	891.2356	910.5675	936.5236	945.5545	976.5485	1016.3948	1028.3339	1034.0042	1069.3133	1081.7951	1113.7094	1137.5071	1168.7493	1190.416	1236.6758	1247.8549	1282.7461	1299.4761	1334.2552	1335.5141	1366.9792	1373.7376	1406.4013	1409.0398	1415.9056	1420.2121	1472.8755	1481.4909	1496.0406	1497.4001	1499.4388	1504.9609	1509.0513	1515.0924	1526.5433	2953.7567	2993.6011	3010.8056	3024.3298	3033.5286	3035.6258	3036.069	3043.0929	3047.6482	3076.1213	3097.5968	3099.3049	3103.4355	3109.6202	3113.0789	3119.9686
CCC1OCC1(C)CC	CC[C@H]1OC[C@]1(C)CC	
InChI=1S/C8H16O/c1-4-7-8(3,5-2)6-9-7/h7H,4-6H2,1-3H3	InChI=1S/C8H16O/c1-4-7-8(3,5-2)6-9-7/h7H,4-6H2,1-3H3/t7-,8+/m1/s1
