14
gdb 127198	3.46653	1.37706	0.99168	3.8321	74.15	-0.2258	-0.0478	0.178	1111.767	0.099909	-432.824168	-432.815718	-432.814774	-432.857893	30.067	
C	 0.0649386086	 1.4112786839	 0.0181527424	-0.334844
N	 0.0348377487	-0.0360367791	 0.023184814	-0.161665
C	 0.057025045	-0.8058750994	-1.1273255607	 0.463827
N	 0.1053209111	-0.3618381556	-2.3100809111	-0.619488
O	 0.0157991986	-2.1086174446	-0.6937234765	-0.237373
N	-0.0318483697	-2.1524656062	 0.7198240909	-0.194242
C	-0.0182213102	-0.9045839385	 1.0862915255	 0.2851
C	-0.0543741765	-0.4900197922	 2.4382778471	 0.253934
C	-0.0842864074	-0.1120236892	 3.578743999	-0.378878
H	 0.9757176518	 1.7642941402	-0.4729484564	 0.159697
H	-0.7957577908	 1.8008921361	-0.5320424427	 0.159715
H	 0.0379036615	 1.7662825227	 1.0485943792	 0.15053
H	 0.1121353886	-1.1190361231	-2.9883981319	 0.235947
H	-0.1112366595	 0.2064688649	 4.5925024313	 0.21774
50.57	110.0894	143.2733	168.1346	247.9903	280.7887	415.5285	449.8514	552.953	596.0255	638.9693	689.412	702.6764	706.3501	732.3779	759.0969	786.0017	918.1527	1003.9711	1029.6464	1162.6459	1203.2405	1224.9261	1359.5064	1444.7017	1475.0157	1480.9749	1529.0862	1592.6359	1782.7771	2250.2789	3052.3699	3116.6907	3158.5413	3495.9146	3543.9595
CN1C(=N)ON=C1C#C	CN1[C@H]([NH])ON=C1C#C	
InChI=1S/C5H5N3O/c1-3-4-7-9-5(6)8(4)2/h1,6H,2H3	InChI=1S/C5H6N3O/c1-3-4-7-9-5(6)8(4)2/h1,5-6H,2H3/t5-/m0/s1
