17
gdb 7279	4.0184	1.14009	0.94732	4.5157	65.18	-0.2717	0.0312	0.3028	1197.9405	0.139732	-401.011905	-401.002488	-401.001544	-401.046174	33.403	
C	 0.0201898711	 1.553121688	 0.0400745827	-0.413727
C	-0.0084909517	 0.0283798577	 0.0335918971	 0.105101
O	 0.6977155534	-0.5258326074	 1.1394169837	-0.425211
C	-1.4508793931	-0.5204435273	-0.0228360079	 0.111928
O	-2.1583370203	-0.0216826101	-1.1420467399	-0.416554
C	-1.4459853682	-2.0631042431	 0.0216755648	-0.370355
C	-2.78796348	-2.6319794454	 0.0893729051	 0.268219
N	-3.8498462905	-3.0829570124	 0.1515291549	-0.305555
H	 1.0516908919	 1.9141881197	 0.0260540379	 0.12786
H	-0.515185212	 1.9539960071	-0.8229129762	 0.140049
H	-0.4703664187	 1.9412441641	 0.942316957	 0.112618
H	 0.5257862709	-0.3424663473	-0.8536494409	 0.082626
H	 0.437297258	-0.0399491493	 1.9300308229	 0.285905
H	-2.0014830206	-0.1471581095	 0.8499177075	 0.103668
H	-1.758981138	-0.3813048738	-1.9427855577	 0.286119
H	-0.938452476	-2.4538733612	-0.8706230604	 0.137601
H	-0.8590554061	-2.3918720196	 0.8838411194	 0.169707
63.3285	81.7858	131.9872	225.135	240.4972	281.2266	300.6796	318.7164	374.652	395.4688	404.4447	456.4576	506.1412	590.9964	856.5096	880.0412	934.4764	952.0287	1028.1914	1057.0626	1098.4926	1119.1379	1152.7524	1189.058	1240.3536	1301.1215	1311.6714	1359.9732	1390.6089	1398.7597	1412.7749	1417.5485	1464.4853	1490.8596	1496.1007	2365.3163	3002.776	3025.6037	3028.7743	3046.5434	3102.801	3105.4527	3141.6202	3791.9696	3800.8657
CC(O)C(O)CC#N	C[C@@H](O)[C@@H](O)CC#N	
InChI=1S/C5H9NO2/c1-4(7)5(8)2-3-6/h4-5,7-8H,2H2,1H3	InChI=1S/C5H9NO2/c1-4(7)5(8)2-3-6/h4-5,7-8H,2H2,1H3/t4-,5+/m1/s1
