23
gdb 120332	2.96441	0.93997	0.90379	1.3342	84.95	-0.258	0.0776	0.3357	1442.7382	0.207589	-388.28577	-388.276494	-388.27555	-388.320572	34.887	
O	-0.138987624	 1.4560923608	-0.0188748682	-0.422924
C	-0.1074390016	 0.0464603563	 0.151648629	-0.063839
C	-1.4826509637	-0.5019065548	-0.2177295688	-0.215135
C	-1.537527596	-2.012265905	-0.111081485	-0.007853
C	-1.8102547588	-2.8075274672	 1.1508861756	-0.052402
C	-2.4975006866	-2.1485962325	 2.3419989058	-0.216491
C	-3.8254664244	-1.544466277	 1.809897244	-0.219277
C	-4.1054654697	-2.2285399692	 0.4449963469	-0.213042
C	-2.7904696651	-2.8541219981	-0.0046396924	-0.076254
H	 0.724222818	 1.8068877042	 0.2181535549	 0.283887
H	 0.6612692589	-0.4154451045	-0.4901849376	 0.080433
H	 0.1332836416	-0.2262850049	 1.1917607087	 0.088376
H	-2.2233187797	-0.0137352238	 0.418833886	 0.108854
H	-1.7083717629	-0.1935595249	-1.2464287148	 0.104206
H	-0.7815822339	-2.4849991008	-0.737756933	 0.076744
H	-1.1560578034	-3.6477387348	 1.3605516078	 0.073683
H	-2.7013278934	-2.9195568256	 3.0937033307	 0.097976
H	-1.876554605	-1.3911985094	 2.8339932179	 0.096495
H	-4.6474522411	-1.7027000675	 2.5140295033	 0.094598
H	-3.736826464	-0.4623831402	 1.6881408084	 0.111636
H	-4.8465565095	-3.0274132904	 0.5612564895	 0.097258
H	-4.5181416799	-1.5236854903	-0.2854621725	 0.098111
H	-2.852766586	-3.7269945705	-0.646662136	 0.074957
57.1215	84.5829	108.8051	160.043	220.7179	254.4414	265.8276	379.0903	458.2589	508.018	665.4788	686.1403	747.7907	777.5988	801.5776	816.1933	877.6879	887.1917	925.97	977.3952	984.4633	1008.5414	1041.0914	1043.8817	1078.8046	1088.5062	1101.0341	1122.6934	1140.6264	1185.9453	1216.1818	1227.5312	1240.1816	1246.9196	1262.5251	1307.4931	1310.2423	1321.6902	1325.849	1329.088	1362.6186	1386.8713	1452.9769	1459.266	1486.5481	1493.3619	1498.4523	1518.1261	1527.8318	2959.0183	2986.9734	3032.0155	3033.5469	3035.8946	3058.7298	3063.1959	3065.5503	3096.783	3100.9366	3119.3144	3148.4906	3160.3116	3830.9626
OCCC1C2CCCC12	OCC[C@H]1[C@H]2CCC[C@@H]12	
InChI=1S/C8H14O/c9-5-4-8-6-2-1-3-7(6)8/h6-9H,1-5H2	InChI=1S/C8H14O/c9-5-4-8-6-2-1-3-7(6)8/h6-9H,1-5H2/t6-,7+,8-
