16
gdb 30000	3.3579	1.7045	1.13876	5.2482	77.55	-0.186	0.0348	0.2208	1021.2175	0.127235	-396.967029	-396.959316	-396.958372	-397.000611	28.505	
C	 0.0047287907	 1.4748181361	 0.022532707	-0.351375
N	-0.0113042494	 0.0315600098	 0.0227362199	-0.14274
C	-0.0396703594	-0.8013619547	-1.1045019404	-0.093699
C	-0.0194745557	-2.1256195636	-0.7334232188	-0.315117
C	 0.0265213909	-2.130975287	 0.6953505271	 0.267311
C	 0.0319446945	-0.8063018106	 1.0958332255	 0.397049
N	 0.0725784592	-0.7962329341	 2.4660738344	-0.420482
C	 0.0911557854	-2.1424710077	 2.824678179	-0.014565
N	 0.063985978	-2.9606469957	 1.8020280869	-0.343168
H	 0.9401137759	 1.8695222758	 0.4381640563	 0.134274
H	-0.0883317812	 1.8290045295	-1.005485529	 0.147577
H	-0.8333086036	 1.8823258887	 0.6005315917	 0.133565
H	-0.0726041609	-0.3505098573	-2.0839267605	 0.114498
H	-0.0388125263	-2.9667246036	-1.4081352913	 0.101172
H	 0.0930830402	-0.0128954089	 3.0944784121	 0.262993
H	 0.1253477618	-2.4314664267	 3.8647913001	 0.122706
16.108	136.5332	199.3538	253.5738	313.0617	360.2983	529.8531	575.2725	616.3268	624.2606	679.4992	704.7367	753.2358	781.9003	802.6411	813.1838	957.326	1014.1718	1056.2942	1099.9416	1116.6349	1150.9708	1226.0203	1264.4185	1310.6104	1347.3637	1367.8886	1448.3689	1462.8069	1481.8651	1491.7477	1509.8832	1528.8876	1548.7654	1639.834	3015.9103	3065.4749	3134.4728	3248.7326	3249.6195	3267.9214	3684.0482
CN1C=CC2=C1NC=N2	Cn1ccc2c1[nH]cn2	
InChI=1S/C6H7N3/c1-9-3-2-5-6(9)8-4-7-5/h2-4H,1H3,(H,7,8)	InChI=1S/C6H7N3/c1-9-3-2-5-6(9)8-4-7-5/h2-4H,1H3,(H,7,8)
