19
gdb 116281	1.94904	1.57342	0.97497	2.8588	72.86	-0.2469	-0.0188	0.2281	1231.5461	0.158184	-460.156461	-460.147232	-460.146287	-460.192302	32.301	
C	 0.1217925671	 1.3004935873	 0.229452217	-0.241106
O	-0.0011442448	-0.0882793288	 0.0166554554	-0.2457
C	 0.5617625193	-0.5423815342	-1.201317283	 0.111408
C	 2.0784849933	-0.7672643083	-1.09925955	-0.106633
O	 2.2185052796	-2.0337358093	-0.4861847016	-0.235767
C	 1.2395274977	-2.8813432423	-1.0659829057	-0.105188
C	 0.0400474193	-1.9806794009	-1.4757415649	-0.144506
C	-1.2166019528	-2.2983935711	-0.683945398	 0.171859
O	-2.2993895171	-2.4669426493	-1.1807833966	-0.261356
H	 1.1701913721	 1.6194492814	 0.3219413606	 0.110068
H	-0.3445933773	 1.8745649253	-0.585749688	 0.112616
H	-0.3942575703	 1.5277583555	 1.1647426829	 0.137118
H	 0.2952905658	 0.145395158	-2.0158290635	 0.076353
H	 2.5308132582	-0.752275603	-2.1060983815	 0.088454
H	 2.5864915592	-0.0271583296	-0.4763064341	 0.117579
H	 1.6410856417	-3.3956256577	-1.9513466497	 0.10161
H	 0.9742304071	-3.6398357614	-0.321886426	 0.117207
H	-0.2027896893	-2.092841198	-2.5339452911	 0.100301
H	-1.0553102087	-2.3975203639	 0.409453138	 0.095683
21.0793	66.3633	107.839	172.9751	200.6791	239.2603	328.1179	341.4094	395.6857	459.5088	478.3427	730.9269	805.2403	856.348	865.0225	937.4966	952.4888	977.7409	991.6801	1035.7493	1109.7099	1113.1931	1145.9218	1159.2134	1182.8996	1207.9656	1231.2698	1262.331	1275.8332	1295.3753	1308.6535	1352.3632	1385.4502	1403.2814	1425.3585	1479.9062	1487.0688	1497.6442	1508.7605	1516.6518	1831.5049	2918.9218	2957.0468	2980.9347	2994.4475	3011.2841	3031.5688	3069.7584	3099.9283	3103.6475	3122.9026
COC1COCC1C=O	CO[C@H]1COC[C@H]1C=O	
InChI=1S/C6H10O3/c1-8-6-4-9-3-5(6)2-7/h2,5-6H,3-4H2,1H3	InChI=1S/C6H10O3/c1-8-6-4-9-3-5(6)2-7/h2,5-6H,3-4H2,1H3/t5-,6+/m1/s1
