18
gdb 8269	6.38886	0.82183	0.81625	1.5384	77.81	-0.2391	0.0561	0.2952	1452.7823	0.152496	-347.770332	-347.761302	-347.760358	-347.80598	31.946	
C	 0.4659982952	 1.653886102	-0.5826750464	-0.498647
C	 0.2656098577	 0.2411759337	-0.2923206295	 0.100525
C	 0.1052530474	-0.9298972008	-0.0572547142	 0.042541
C	-0.1091759849	-2.3296965978	 0.2457279241	-0.161305
C	-0.0539439119	-2.8005113483	 1.7367902914	-0.268384
C	-1.2194882579	-3.7722107957	 1.4171784047	 0.162549
O	-2.2007469814	-4.0389001029	 2.3834693656	-0.432332
C	-1.5615959465	-2.9073144516	 0.1763109921	-0.268389
H	 1.2462855176	 1.7996587614	-1.3380785615	 0.146741
H	-0.4513017548	 2.1177376971	-0.9626576809	 0.145676
H	 0.7677893314	 2.2071988946	 0.3138461617	 0.145658
H	 0.5600237607	-2.9523586081	-0.3582017766	 0.099459
H	 0.8855176121	-3.2091777543	 2.1142341784	 0.106414
H	-0.3887787127	-1.9967900239	 2.4006542943	 0.101193
H	-0.835884029	-4.7513294023	 1.1135777098	 0.094143
H	-2.5647096339	-3.1969154724	 2.6772922635	 0.276552
H	-2.2906049454	-2.1315073123	 0.4321826926	 0.101192
H	-1.8754935938	-3.4047616983	-0.7435121291	 0.106414
12.1793	64.9558	106.4884	170.565	277.3624	310.4582	312.8247	394.6434	438.9143	464.0447	523.5937	558.0404	724.4757	805.0254	878.3785	909.5192	964.6128	1010.3151	1046.6933	1052.0221	1054.8847	1075.4564	1128.3541	1156.9114	1201.2763	1212.5785	1237.9398	1258.0699	1284.7023	1336.7147	1363.094	1415.3191	1439.3275	1469.6422	1478.8993	1479.2556	1498.7385	2367.3205	3024.1784	3041.258	3052.1396	3056.9037	3066.2496	3083.2116	3084.3167	3117.7956	3122.8349	3805.5823
CC#CC1CC(O)C1	CC#C[C@H]1C[C@@H](O)C1	
InChI=1S/C7H10O/c1-2-3-6-4-7(8)5-6/h6-8H,4-5H2,1H3	InChI=1S/C7H10O/c1-2-3-6-4-7(8)5-6/h6-8H,4-5H2,1H3/t6-,7+
