18
gdb 86501	7.90681	0.58312	0.56991	5.8094	93.45	-0.276	-0.0371	0.239	1908.5867	0.147607	-364.799362	-364.790303	-364.789359	-364.833939	32.824	
C	-0.2788120311	 1.4504785197	-0.0352180298	-0.39615
C	-0.0063705605	-0.0503958672	-0.0021620057	 0.021368
C	 1.1911925774	-0.504716455	-0.8874393445	-0.23477
C	 2.088950881	-0.5551876973	 0.3955875363	-0.179674
C	 0.7780981256	-0.5325515893	 1.2533920444	-0.23477
C	 2.9971068183	-1.6627636984	 0.5564236919	 0.078408
C	 3.74011769	-2.6089769742	 0.6874907915	 0.063067
C	 4.5785758808	-3.6746939809	 0.8354205686	 0.198987
N	 5.2925012879	-4.5832103173	 0.9613637487	-0.341751
H	 0.633145759	 2.0307359421	 0.1482973353	 0.116548
H	-0.6746324753	 1.7562586265	-1.0094548126	 0.121393
H	-1.0101198983	 1.73365318	 0.7291860018	 0.121393
H	-0.9348923175	-0.595931908	-0.1884223872	 0.079835
H	 1.0481674818	-1.5006270708	-1.3112957838	 0.120135
H	 1.5205565682	 0.1747016605	-1.6768592683	 0.11271
H	 2.6407399832	 0.3826743724	 0.514254752	 0.120425
H	 0.786864719	 0.1252642407	 2.1254441826	 0.11271
H	 0.4924796005	-1.5380703235	 1.5685149887	 0.120135
52.8837	71.6727	122.4074	211.4517	235.0185	249.2537	333.7266	356.8099	468.4601	502.1105	562.0989	587.8324	590.802	776.6763	821.9048	833.7976	903.856	907.2758	947.8453	953.0925	1026.409	1066.2648	1128.7849	1137.8037	1198.9443	1233.4776	1235.2403	1237.4522	1275.6329	1277.4031	1348.414	1373.0348	1414.1107	1473.5028	1493.2468	1496.3684	1499.9637	2259.0401	2392.2689	3025.6499	3055.2949	3062.858	3067.309	3073.7244	3094.5069	3099.396	3126.9463	3129.968
CC1CC(C1)C#CC#N	C[C@H]1C[C@@H](C1)C#CC#N	
InChI=1S/C8H9N/c1-7-5-8(6-7)3-2-4-9/h7-8H,5-6H2,1H3	InChI=1S/C8H9N/c1-7-5-8(6-7)3-2-4-9/h7-8H,5-6H2,1H3/t7-,8-
