16
gdb 66281	2.06396	1.6672	1.42157	3.7432	70.53	-0.2498	0.007	0.2568	1012.0366	0.124043	-437.891591	-437.883105	-437.88216	-437.92448	32.177	
O	-0.0438967591	 1.4672109179	 0.1468606312	-0.457962
C	-0.0445706265	 0.0624480838	 0.0621910823	 0.124544
C	-1.4622575749	-0.5198018252	-0.0961333991	-0.255896
C	-1.239539189	-1.7845737309	-0.953368079	-0.177318
N	-0.0704623143	-1.4263177349	-1.7483939469	-0.308909
C	 0.6326339205	-0.3722692331	-1.2691398839	 0.376943
O	 1.5887115011	 0.1920858967	-1.755363866	-0.394537
C	 0.6754561118	-0.5642621685	 1.1794189027	 0.34001
C	 1.2611208697	-1.0908361247	 2.0877544812	-0.505379
H	 0.7794312285	 1.7469250102	-0.283088726	 0.293902
H	-1.9508140952	-0.7334452321	 0.854395572	 0.1253
H	-2.0543272581	 0.2149936777	-0.6482204672	 0.128651
H	-1.0428744772	-2.6641666898	-0.3276367267	 0.125375
H	-2.0971318094	-2.0054779029	-1.5947021816	 0.122367
H	 0.2192030945	-1.9187665371	-2.5783167149	 0.260323
H	 1.7884931077	-1.5400043371	 2.8930571619	 0.202586
93.106	133.0423	174.1289	215.1971	263.3721	355.0589	412.1987	434.2763	480.3783	507.0761	583.1947	628.008	645.3229	670.4315	682.3739	704.2053	766.1253	845.8755	942.6852	972.2099	1043.335	1062.1383	1129.178	1161.7786	1233.3463	1234.7261	1273.3392	1317.2944	1367.3535	1403.2272	1446.699	1488.3575	1529.5106	1835.5435	2226.5808	3027.0152	3074.1791	3088.3814	3143.1643	3499.8178	3642.9113	3712.46
OC1(CCNC1=O)C#C	O[C@]1(CCNC1=O)C#C	
InChI=1S/C6H7NO2/c1-2-6(9)3-4-7-5(6)8/h1,9H,3-4H2,(H,7,8)	InChI=1S/C6H7NO2/c1-2-6(9)3-4-7-5(6)8/h1,9H,3-4H2,(H,7,8)/t6-/m0/s1
