21
gdb 102050	2.29742	1.19151	0.96847	4.0733	74.7	-0.2499	-0.0313	0.2186	1309.3006	0.178555	-461.371174	-461.36044	-461.359495	-461.406658	39.489	
C	 0.0173226894	 1.5900589079	 0.177328549	-0.420137
C	 0.0213962556	 0.0574068746	 0.0931114761	 0.314884
C	 0.6928641707	-0.5506103663	 1.3346914053	-0.424452
O	-1.3336735009	-0.4073642945	-0.0014365688	-0.464323
C	 0.6723032549	-0.4403207307	-1.2274442249	-0.100639
C	 2.1208308925	 0.0188358916	-1.4779532652	-0.088675
O	 2.5608882786	-0.3101851788	-2.7776627759	-0.428746
C	 0.5512429378	-1.950413652	-1.3537024044	 0.146141
O	 1.421916295	-2.6672965183	-1.7967030401	-0.277907
H	 1.0227241	 2.0037127813	 0.2930263879	 0.126217
H	-0.4414074092	 2.0230904106	-0.7157575308	 0.128427
H	-0.5679280912	 1.9077093336	 1.0481553781	 0.105653
H	 0.1764979859	-0.2195707501	 2.2432569573	 0.109507
H	 0.6584559646	-1.6437523424	 1.3080724308	 0.13002
H	 1.7384333093	-0.2413056761	 1.4213721041	 0.129944
H	-1.7814471338	-0.1848708675	 0.8218692914	 0.27918
H	 0.0465517685	-0.0379321493	-2.0390729517	 0.120337
H	 2.1886053746	 1.1069183858	-1.3962310078	 0.10817
H	 2.7823976498	-0.4117765349	-0.7102150582	 0.093311
H	 2.5560216167	-1.2760137345	-2.8126470087	 0.294436
H	-0.4147981687	-2.3747910102	-1.0220919834	 0.118651
55.3164	101.6606	141.3634	199.056	231.5348	242.1715	254.359	273.1985	278.1833	333.4469	349.0225	369.3763	445.7817	459.4466	533.8963	588.3135	614.6437	791.8304	848.0318	909.4665	919.4137	951.6559	993.8654	1013.6348	1066.9439	1079.0311	1093.5988	1149.6788	1180.7899	1212.5554	1232.0772	1284.9291	1339.2098	1363.657	1388.8905	1403.2166	1420.71	1422.5452	1451.0458	1476.6779	1487.7325	1500.4507	1504.1297	1508.786	1795.485	2965.7799	2983.6098	3007.072	3029.3701	3035.2412	3086.8922	3097.3171	3102.5982	3117.4923	3125.0339	3758.1259	3807.3597
CC(C)(O)C(CO)C=O	CC(C)(O)[C@@H](CO)C=O	
InChI=1S/C6H12O3/c1-6(2,9)5(3-7)4-8/h3,5,8-9H,4H2,1-2H3	InChI=1S/C6H12O3/c1-6(2,9)5(3-7)4-8/h3,5,8-9H,4H2,1-2H3/t5-/m1/s1
