21
gdb 82528	2.27443	1.5539	1.34673	1.237	82.85	-0.2315	0.0729	0.3044	1103.3486	0.18146	-387.044384	-387.035375	-387.034431	-387.077454	35.31	
C	-0.052379864	 1.52378352	-0.0458727995	-0.418446
C	 0.1144911685	 0.0193370619	 0.0124661785	-0.080527
C	 1.4058225969	-0.7395527781	-0.242367074	-0.1336
C	 2.6213790773	-0.0067973061	 0.3483359742	-0.325927
C	 1.9426441219	-0.0657539796	 1.7333602376	 0.321823
C	 2.5942823853	-0.4896877974	 3.0114939208	-0.331358
C	 1.9927765203	 0.8939481574	 2.8892853635	-0.337063
C	 0.7352986465	-0.7665750534	 1.1352461693	 0.31061
O	 0.0911735285	-1.8215452775	 1.7641531878	-0.458635
H	 0.7825471277	 2.0477719483	 0.4249467452	 0.129203
H	-0.1242830161	 1.8692147173	-1.0832573932	 0.11553
H	-0.9671249748	 1.8370105019	 0.4701924472	 0.1097
H	-0.7282562833	-0.5297576959	-0.4075360406	 0.082675
H	 1.4556488431	-1.5223010024	-0.9891537495	 0.089121
H	 3.5360942587	-0.6038202683	 0.3045806306	 0.105377
H	 2.8311237603	 0.9885240303	-0.0570405984	 0.094774
H	 2.067462757	-1.2245985357	 3.6111646829	 0.120488
H	 3.6759216449	-0.5781329074	 3.0337630074	 0.107455
H	 2.6711436871	 1.7390071643	 2.8241217519	 0.108824
H	 1.0737637267	 1.1036450028	 3.4283626106	 0.103583
H	-0.7653959225	-1.5123129824	 2.0757759278	 0.286393
110.529	163.9752	190.289	200.3236	227.2728	267.9903	284.1819	363.0135	414.7804	505.463	520.5453	594.9976	654.1039	749.9625	775.2017	813.5347	853.78	889.93	913.6174	942.7537	955.5082	980.2815	993.8576	1037.1774	1050.7327	1071.5035	1083.172	1118.9328	1121.6231	1168.897	1179.0843	1189.2393	1231.1599	1240.9544	1277.8631	1309.4645	1334.7323	1396.72	1415.6137	1459.1057	1461.8472	1488.7614	1501.4183	1502.9382	1503.9346	3030.8057	3042.8504	3084.7512	3094.1647	3107.6181	3118.62	3125.4283	3126.626	3187.9257	3197.3137	3215.5568	3809.4854
CC1C2CC3(CC3)C12O	C[C@H]1[C@H]2CC3(CC3)[C@@]12O	
InChI=1S/C8H12O/c1-5-6-4-7(2-3-7)8(5,6)9/h5-6,9H,2-4H2,1H3	InChI=1S/C8H12O/c1-5-6-4-7(2-3-7)8(5,6)9/h5-6,9H,2-4H2,1H3/t5-,6+,8+/m0/s1
