12
gdb 130494	4.12025	1.70249	1.2047	1.991	68.95	-0.2704	-0.1065	0.1638	907.0952	0.081005	-431.651758	-431.646144	-431.645199	-431.681768	22.064	
O	-0.0744346087	 1.2259082046	 0.0094023633	-0.122156
N	 1.1496360624	 1.8326401458	 0.0009023608	-0.188727
C	 2.0121224474	 0.8323160246	-0.0127197583	 0.335058
C	 3.4312870064	 0.7947609397	-0.0265242911	-0.229025
C	 3.9909935743	-0.4507443017	-0.0385644543	 0.01789
N	 3.2979362401	-1.6460335219	-0.0383320492	-0.264229
C	 1.9958112203	-1.6344569783	-0.025793903	-0.041692
C	 1.2837443591	-0.3967083305	-0.0123273541	 0.255208
N	-0.0082545214	-0.1283641206	 0.0014984876	-0.175576
H	 4.0288059632	 1.6971621478	-0.0274153996	 0.135277
H	 5.0703567935	-0.562870801	-0.0495123899	 0.131055
H	 1.4657547133	-2.5833072286	-0.0257957023	 0.146917
218.2404	253.7069	412.9931	448.9556	554.3928	594.6257	631.792	646.1527	795.4426	821.0728	841.2336	899.0276	928.6124	941.5843	961.2939	998.8215	1021.9419	1067.1628	1209.9343	1292.8473	1349.2847	1397.1274	1436.8274	1482.1769	1552.1577	1563.7736	1656.1348	3169.7155	3186.1241	3223.9732
O1N=C2C=CN=CC2=N1	o1nc2ccncc2n1	
InChI=1S/C5H3N3O/c1-2-6-3-5-4(1)7-9-8-5/h1-3H	InChI=1S/C5H3N3O/c1-2-6-3-5-4(1)7-9-8-5/h1-3H
