24
gdb 101258	2.59499	1.06998	0.95077	1.3035	86.7	-0.2387	0.0728	0.3116	1424.702	0.21449	-405.520372	-405.509141	-405.508197	-405.556908	40.683	
C	 0.5482086211	 1.8289693542	-0.8789812252	-0.230943
O	-0.0977985954	 0.6054326504	-1.1356961368	-0.245953
C	 0.75574039	-0.5385361292	-1.1178552884	 0.123799
C	 1.1998684349	-0.9353234969	 0.2914543957	-0.399168
C	 0.0276507156	-1.6407946095	-1.8870363429	-0.091256
N	-0.2858214668	-2.9133222657	-1.2080396805	-0.368257
C	-1.3908451694	-2.0601729942	-1.6818999682	 0.351294
C	-2.274323033	-1.4642160331	-0.604682102	-0.430426
C	-2.1568721256	-2.5156481291	-2.9108283818	-0.457374
H	 0.9122269798	 1.9128000879	 0.1553948177	 0.106725
H	 1.4031708664	 1.9870397496	-1.5562824722	 0.09902
H	-0.1849927497	 2.6216779948	-1.0504655329	 0.123669
H	 1.6640824352	-0.2893579657	-1.6936981613	 0.058329
H	 1.834242078	-1.8239191342	 0.2416705364	 0.124433
H	 1.7756337118	-0.1301357459	 0.7570246638	 0.104598
H	 0.3495038903	-1.1749452046	 0.9320123382	 0.133312
H	 0.361848476	-1.716571631	-2.9207421307	 0.074656
H	-0.1367326009	-3.6959821391	-1.8403215142	 0.221395
H	-1.7077995671	-1.1926063201	 0.2846014542	 0.128261
H	-2.7720959563	-0.5626122704	-0.9734508159	 0.120701
H	-3.0449228782	-2.1875042101	-0.3124123979	 0.10386
H	-2.8915591231	-3.2855605758	-2.6458143235	 0.117322
H	-2.7032212444	-1.6818976404	-3.3652746216	 0.125262
H	-1.4875853292	-2.9325538819	-3.6708748901	 0.10674
47.6066	71.7903	121.9715	151.1193	173.932	187.3888	222.5366	235.6855	292.2785	320.7558	368.9617	380.6744	406.3634	440.6123	511.675	667.1835	711.8211	760.6434	851.6778	906.8992	951.8719	959.387	976.5438	1011.704	1037.3497	1079.5426	1086.6443	1106.2117	1138.4027	1155.8163	1173.0308	1180.6033	1217.3619	1230.1593	1308.5441	1359.7526	1380.3006	1385.7616	1407.1436	1414.5637	1425.4736	1454.123	1470.5561	1475.9577	1479.9049	1484.1041	1488.8944	1495.2591	1500.6325	1511.9613	1512.9948	2941.2826	2972.0275	3021.2207	3021.7561	3035.8783	3054.457	3085.2532	3096.2661	3101.6639	3105.3068	3108.6251	3121.4358	3140.7605	3161.6387	3490.3031
COC(C)C1NC1(C)C	CO[C@@H](C)[C@H]1NC1(C)C	
InChI=1S/C7H15NO/c1-5(9-4)6-7(2,3)8-6/h5-6,8H,1-4H3	InChI=1S/C7H15NO/c1-5(9-4)6-7(2,3)8-6/h5-6,8H,1-4H3/t5-,6+/m0/s1
