19
gdb 114789	3.43529	1.31478	1.25248	1.1921	73.21	-0.2235	0.0813	0.3048	1068.7341	0.160806	-422.983483	-422.975948	-422.975004	-423.015499	29.98	
O	-0.0656862827	 1.4838950866	 0.0574393742	-0.426406
C	 0.0441777216	 0.0647815227	 0.0459154388	-0.086714
C	-1.367768194	-0.5101976639	-0.0336515035	 0.009856
C	-2.0794289751	-0.2042246582	-1.3879893906	-0.223795
C	-2.0769859469	-1.5511277284	-2.0971866656	 0.087768
O	-0.6745814424	-1.9732602499	-2.2604805776	-0.308915
C	-0.8237072462	-2.817674162	-1.1186243328	 0.096747
C	-2.3001834523	-2.628400115	-1.0101751747	-0.163762
C	-1.3951870373	-2.0394783172	 0.0562255355	-0.108623
H	 0.8189629501	 1.8525664575	-0.0171541182	 0.285307
H	 0.6245971308	-0.2865312767	-0.8174392956	 0.107549
H	 0.5389701265	-0.2986773232	 0.9615563162	 0.075899
H	-1.9396898748	-0.0831471242	 0.7971088167	 0.078575
H	-3.109459207	 0.1344796206	-1.2289945818	 0.096299
H	-1.5567104959	 0.5671700704	-1.9589060953	 0.118396
H	-2.6218104021	-1.6211264694	-3.0400943169	 0.078226
H	-0.1825749864	-3.688309429	-1.0417460446	 0.100985
H	-3.1278806284	-3.3106926328	-0.8785455335	 0.096268
H	-1.3482278775	-2.5281653381	 1.0238042291	 0.086339
103.6198	146.7735	202.9633	261.241	345.4076	415.7433	444.8579	502.6626	672.734	741.5367	786.4755	791.9159	817.9765	839.4362	851.4578	907.3045	933.7246	978.1725	990.312	1007.5004	1033.3374	1047.5138	1064.1952	1069.2806	1081.6597	1088.9857	1128.1689	1181.7274	1224.6932	1238.4329	1247.7965	1269.3681	1282.8289	1292.2694	1324.0544	1343.3305	1364.2228	1404.5852	1451.9797	1480.8467	1524.9535	2965.1948	3029.1788	3042.9291	3056.2666	3101.8257	3109.0871	3168.9519	3179.9012	3212.4266	3833.7204
OCC1CC2OC3C2C13	OC[C@H]1C[C@H]2O[C@@H]3[C@H]2[C@H]13	
InChI=1S/C7H10O2/c8-2-3-1-4-6-5(3)7(6)9-4/h3-8H,1-2H2	InChI=1S/C7H10O2/c8-2-3-1-4-6-5(3)7(6)9-4/h3-8H,1-2H2/t3-,4-,5+,6-,7+/m1/s1
