21
gdb 114835	3.1799	1.30492	1.24146	2.1529	77.71	-0.2353	0.0809	0.3162	1128.3327	0.184824	-424.227407	-424.219491	-424.218547	-424.259852	31.202	
C	-0.0399076507	 1.38833608	-0.1222761774	-0.239275
O	-0.0207906772	 0.0204275699	 0.2120275432	-0.248257
C	-1.2752939918	-0.6136836929	 0.0895768052	 0.157571
C	-1.7369120923	-0.8931237225	-1.3845884171	-0.253437
C	-1.9266738535	-2.4226663224	-1.3710896874	 0.107944
C	-2.4592314931	-2.6810937301	 0.0476604405	-0.237886
C	-1.2175720502	-2.0331959018	 0.6952579012	-0.086263
C	-0.1049462152	-2.8127434711	-0.0241953447	-0.072807
O	-0.6313272804	-3.035417841	-1.3493661862	-0.282327
H	 0.9672784585	 1.7777938713	 0.0447206981	 0.127251
H	-0.3122366177	 1.5567240531	-1.174743132	 0.108699
H	-0.7472732118	 1.949402396	 0.5092992857	 0.102586
H	-2.0323462954	-0.0154019551	 0.6209505488	 0.060202
H	-2.6612662583	-0.3656512352	-1.6395089741	 0.091551
H	-0.9620245437	-0.6091315627	-2.1008542342	 0.114404
H	-2.484695075	-2.8388023589	-2.2106918983	 0.071073
H	-3.3934006015	-2.1582061824	 0.2707158997	 0.096112
H	-2.5679600461	-3.7442418152	 0.2744296875	 0.104492
H	-1.1466127377	-2.0509023374	 1.7829455961	 0.069238
H	 0.8278199504	-2.2459063108	-0.083518038	 0.119063
H	 0.0923723725	-3.7801128209	 0.4557190934	 0.090067
105.3054	124.3875	190.4069	224.4516	334.5843	372.632	430.1528	470.6601	503.8925	581.9356	765.4375	787.0416	821.8648	857.4493	890.5914	936.8391	950.0086	954.3018	966.621	982.0489	1021.3543	1039.4185	1058.016	1105.9061	1128.801	1158.2345	1177.6176	1184.5374	1197.487	1213.9833	1237.072	1259.8256	1274.11	1305.6288	1321.0317	1331.5614	1353.0672	1382.4142	1398.7611	1468.4325	1481.3358	1487.4631	1492.7297	1510.0646	1526.1099	2966.087	2975.113	3016.0258	3022.7853	3053.0019	3063.0973	3092.2667	3110.6734	3112.2489	3113.8039	3117.6085	3119.9019
COC1CC2CC1CO2	CO[C@H]1C[C@@H]2C[C@H]1CO2	
InChI=1S/C7H12O2/c1-8-7-3-6-2-5(7)4-9-6/h5-7H,2-4H2,1H3	InChI=1S/C7H12O2/c1-8-7-3-6-2-5(7)4-9-6/h5-7H,2-4H2,1H3/t5-,6-,7-/m0/s1
