19
gdb 72660	2.06362	1.88987	1.5772	2.1496	70.22	-0.2465	0.0533	0.2998	979.1649	0.158388	-460.149312	-460.140728	-460.139783	-460.182055	32.806	
C	 0.1890623582	 1.5435255969	-0.0581292446	-0.458112
C	 0.0448427907	 0.0425250961	 0.0437743252	 0.382531
C	 0.4543252228	-0.7690474441	-1.1869121617	-0.125201
O	 0.7849140576	-2.0687659311	-0.7018655182	-0.251632
C	 1.4525952749	-1.8779982512	 0.5346882668	-0.149738
C	 0.7121346512	-0.7253383866	 1.2263715204	 0.25774
O	 1.4993604166	 0.0572218424	 2.0844762681	-0.478624
C	-0.7381408894	-1.0330876492	 1.6577811168	-0.122472
O	-1.2744134337	-0.3567809578	 0.5046706007	-0.326881
H	 1.2039298127	 1.8215251488	-0.3570429769	 0.122371
H	-0.5132429444	 1.9371816965	-0.8004025035	 0.125722
H	-0.0259157498	 2.0123689781	 0.9044503835	 0.134206
H	-0.3587916113	-0.8725743257	-1.9090200992	 0.120974
H	 1.3240840476	-0.304667499	-1.6795648635	 0.087433
H	 1.4236815398	-2.826640664	 1.0800549208	 0.103761
H	 2.5040736415	-1.577694971	 0.3902008164	 0.093862
H	 1.8023254099	-0.4924381723	 2.8151371401	 0.285662
H	-1.0241305147	-2.0915655769	 1.6834476	 0.101092
H	-1.0278278401	-0.5436709196	 2.5961862986	 0.097307
111.9518	167.7693	189.038	220.8193	232.9907	295.148	336.552	374.6927	395.3495	492.1113	578.1627	628.972	640.5859	745.3662	864.7114	894.8389	922.2392	943.3271	964.4979	986.8707	1025.9726	1066.8541	1096.8845	1153.1757	1162.5698	1193.909	1202.8627	1215.1686	1237.0625	1260.1988	1286.236	1326.715	1345.2799	1369.6361	1408.5504	1418.2503	1480.9316	1484.1829	1490.7641	1505.8164	1510.5286	2967.1813	2977.2044	3011.0067	3043.23	3062.332	3078.1129	3106.8776	3113.1479	3131.7041	3806.0168
CC12COCC1(O)CO2	C[C@@]12COC[C@]1(O)CO2	
InChI=1S/C6H10O3/c1-5-2-8-3-6(5,7)4-9-5/h7H,2-4H2,1H3	InChI=1S/C6H10O3/c1-5-2-8-3-6(5,7)4-9-5/h7H,2-4H2,1H3/t5-,6+/m1/s1
