19
gdb 120920	3.30044	1.00271	0.91392	0.645	71.64	-0.2364	0.0555	0.2919	1349.1576	0.157932	-460.091377	-460.082397	-460.081453	-460.125784	32.87	
C	 0.4893735807	 1.3370007639	 0.0895138901	-0.224892
O	 0.5307021885	-0.0616657482	-0.0676764467	-0.237608
C	-0.1213785569	-0.501526547	-1.2389972329	-0.098633
C	 0.0647776824	-2.0091558078	-1.2998230544	 0.113351
O	-0.75454095	-2.6635909042	-2.3199333587	-0.328138
C	 0.3825854106	-3.4329696111	-2.7519656082	 0.018165
C	 1.3586371062	-2.5094658531	-3.3829353791	 0.125153
O	 0.9449879709	-1.3895069562	-4.1022499328	-0.432437
C	 1.3361835822	-2.6318002605	-1.865138705	-0.194441
H	 0.9812548067	 1.8562183272	-0.7476241258	 0.109764
H	-0.5451615098	 1.7081955315	 0.1630535889	 0.104862
H	 1.017619493	 1.5775813006	 1.0152445284	 0.127636
H	-1.2018191059	-0.2756899421	-1.2005335998	 0.092169
H	 0.2995574292	-0.0184880788	-2.1307803351	 0.109526
H	-0.1841962236	-2.4322283445	-0.3192237903	 0.099496
H	 0.2298972149	-4.4900683218	-2.9383783434	 0.10609
H	 2.2279510459	-2.9824761548	-3.8319630633	 0.111327
H	-0.0179085978	-1.3638699339	-4.0177888647	 0.293903
H	 2.1932730929	-2.9447760091	-1.2847599972	 0.104707
60.6895	83.0091	129.9176	184.4772	229.9384	262.3175	321.2571	380.8878	428.7856	458.7786	603.7729	669.2893	737.4996	771.4282	807.2679	925.2619	940.1264	967.22	1001.6006	1024.8913	1036.7978	1053.1816	1065.2472	1099.6305	1142.4848	1170.9019	1187.718	1190.7563	1226.2	1248.7283	1252.4919	1291.6956	1315.5657	1355.8019	1379.8681	1433.3544	1454.9677	1480.5971	1485.4657	1503.7016	1532.7763	2953.2992	2973.4122	3017.9635	3028.9912	3047.0611	3115.1726	3153.5674	3175.1864	3209.2558	3753.7371
COCC1OC2C(O)C12	COC[C@H]1O[C@H]2[C@@H](O)[C@@H]12	
InChI=1S/C6H10O3/c1-8-2-3-4-5(7)6(4)9-3/h3-7H,2H2,1H3	InChI=1S/C6H10O3/c1-8-2-3-4-5(7)6(4)9-3/h3-7H,2H2,1H3/t3-,4-,5+,6-/m1/s1
