16
gdb 10688	2.86526	1.91766	1.34656	3.7971	65.12	-0.2576	0.0039	0.2615	928.8814	0.129713	-379.904434	-379.89604	-379.895096	-379.937074	30.658	
C	-0.0933010526	 1.5708908937	 0.2918034715	-0.409036
C	-0.0222874604	 0.0647605677	-0.0111727251	-0.056731
N	 0.8056958562	-0.7035959707	 0.9179069906	-0.526545
C	-1.4263536957	-0.5488291653	-0.0254618333	 0.281232
C	-1.6800000519	-1.9470487726	 0.3718116839	-0.209451
O	-1.9819623474	-0.8618765056	 1.2564818089	-0.266447
C	-2.3584839245	 0.0648372671	-0.9589532634	 0.263004
N	-3.0701668286	 0.5584396372	-1.7242845209	-0.335997
H	 0.912764011	 2.0007358005	 0.287575624	 0.114889
H	-0.6949288924	 2.1084428543	-0.447496119	 0.144348
H	-0.5345919325	 1.7399091708	 1.2799537348	 0.130488
H	 0.393152973	-0.0771623071	-1.0171249445	 0.106987
H	 1.7651533431	-0.3781892564	 0.8652822402	 0.235611
H	 0.4859908418	-0.532085588	 1.8675674638	 0.240873
H	-2.5465126152	-2.4628255849	-0.0358627079	 0.135207
H	-0.8222938439	-2.5488253308	 0.6545883664	 0.151568
75.6748	150.7981	204.5973	240.1707	257.0147	290.9586	291.597	391.3655	437.8031	512.1826	567.0795	599.1697	673.5306	852.4305	869.8715	887.0939	928.7753	960.1921	1029.3189	1094.6005	1136.1497	1138.8467	1178.7691	1194.3408	1256.6746	1341.9934	1362.9904	1407.842	1412.8985	1492.4308	1498.9283	1501.8694	1644.6751	2356.8518	3032.8413	3035.6123	3109.1753	3110.4423	3113.8527	3219.9511	3495.9486	3580.1418
CC(N)C1(CO1)C#N	C[C@@H](N)[C@]1(CO1)C#N	
InChI=1S/C5H8N2O/c1-4(7)5(2-6)3-8-5/h4H,3,7H2,1H3	InChI=1S/C5H8N2O/c1-4(7)5(2-6)3-8-5/h4H,3,7H2,1H3/t4-,5-/m1/s1
