17
gdb 41236	3.3982	1.92058	1.77996	2.4835	69.84	-0.2365	0.0683	0.3047	829.8335	0.138967	-421.763036	-421.757238	-421.756294	-421.792806	25.345	
C	 0.085142531	 1.4772648312	-0.1773433153	-0.191404
O	 1.5160033204	 1.4521951732	 0.1210279604	-0.314324
C	 1.30748796	 0.2419374997	 0.909986761	 0.153441
C	 1.9029512807	-1.1364500902	 0.7615364201	-0.187533
C	 0.6153688543	-2.0268434412	 0.8998737427	-0.12156
C	-0.6534563128	-1.1312729958	 0.9620746295	-0.322297
C	 0.0112366526	-0.0197553418	 0.1473381175	 0.332502
O	 0.4493305342	-0.7138882415	-1.0391674404	-0.285061
C	 1.2301739437	-1.7246396223	-0.4448934034	 0.097442
H	-0.4599265988	 2.1282665546	 0.5166479148	 0.104285
H	-0.1157671153	 1.7543836749	-1.2139945771	 0.125624
H	 1.1739161823	 0.5170802815	 1.9633424666	 0.080174
H	 2.8566061774	-1.4706646355	 1.1458262826	 0.096728
H	 0.6604082274	-3.0036775428	 1.3615037191	 0.098242
H	-1.5053594524	-1.6126141282	 0.475729478	 0.113185
H	-0.9251471635	-0.8213515114	 1.9729541519	 0.11072
H	 1.660866169	-2.4402578844	-1.1308200481	 0.109836
271.8803	313.0409	394.9749	434.4955	540.9181	595.4299	690.4033	736.9127	777.6039	783.5561	814.3947	843.4263	870.2257	913.8168	938.8327	951.3864	973.3679	977.4307	1018.3756	1023.8433	1046.0361	1053.5306	1071.4384	1086.8334	1104.3334	1149.6745	1193.1797	1219.4394	1245.2597	1273.0869	1285.5827	1308.0548	1328.6103	1361.6803	1389.2295	1487.7694	1500.6157	3027.0747	3035.4145	3071.3817	3117.9585	3127.9098	3210.7039	3213.3181	3226.9583
C1OC2C3C4CC12OC34	C1O[C@@H]2[C@H]3[C@H]4C[C@@]12O[C@@H]34	
InChI=1S/C7H8O2/c1-3-4-5(3)9-7(1)2-8-6(4)7/h3-6H,1-2H2	InChI=1S/C7H8O2/c1-3-4-5(3)9-7(1)2-8-6(4)7/h3-6H,1-2H2/t3-,4+,5-,6-,7-/m1/s1
