19
gdb 32576	1.99354	1.82923	1.02954	0.3764	78.89	-0.1689	0.0648	0.2338	1175.9524	0.159348	-419.236879	-419.227158	-419.226214	-419.271625	35.612	
C	 0.059146011	 1.5374692185	 0.1640057635	-0.376194
C	-0.0202323841	 0.0214708519	-0.0363786023	-0.147412
N	 0.6644126571	-0.4323660669	-1.2361982384	-0.05842
C	 0.0692732414	-0.7568694059	-2.4569028104	 0.220715
N	-1.3384220574	-0.6851107813	-2.5737224091	-0.60903
C	 1.0636985366	-1.1550622461	-3.3147452561	-0.198156
C	 2.3098911456	-1.0744307452	-2.6178050385	-0.301386
C	 2.0128199233	-0.6196364287	-1.3570435112	 0.353546
O	 2.7825360878	-0.3394606789	-0.2674036692	-0.447937
H	 1.0990603219	 1.8616775094	 0.2559808229	 0.134926
H	-0.3946123277	 2.0667449014	-0.679494491	 0.116971
H	-0.4736835241	 1.8264575699	 1.0757742086	 0.112521
H	 0.4208514219	-0.4932963178	 0.8224193451	 0.119743
H	-1.0590941088	-0.2998334664	-0.1354603558	 0.132969
H	-1.6491214667	 0.1594145301	-3.0449073307	 0.239339
H	-1.7012878047	-1.474857651	-3.0938049747	 0.243029
H	 0.9198685334	-1.4708432718	-4.3371856782	 0.079851
H	 3.2917877566	-1.3101347202	-2.9986422332	 0.080787
H	 3.6953318668	-0.5450229908	-0.4893546213	 0.304136
55.7361	92.4347	122.9405	198.0944	212.1968	223.8086	305.4362	316.5445	325.7113	405.9925	532.0419	596.3778	619.2367	668.6348	701.0543	725.8123	731.8629	763.8542	783.9017	813.8115	970.953	1001.3641	1034.7423	1101.9381	1144.2094	1179.0325	1206.9116	1242.1602	1270.2486	1322.5864	1329.6593	1394.1155	1407.6537	1422.4306	1477.395	1490.1597	1505.1665	1545.1209	1573.8035	1616.39	1658.5869	3039.3523	3061.0218	3108.1203	3112.5409	3133.0045	3234.6676	3249.4492	3489.2365	3578.475	3849.7108
CCN1C(N)=CC=C1O	CCn1c(N)ccc1O	
InChI=1S/C6H10N2O/c1-2-8-5(7)3-4-6(8)9/h3-4,9H,2,7H2,1H3	InChI=1S/C6H10N2O/c1-2-8-5(7)3-4-6(8)9/h3-4,9H,2,7H2,1H3
