15
gdb 51299	3.25713	1.25568	0.91148	1.2001	72.68	-0.2384	-0.0358	0.2026	1194.2119	0.114359	-454.001077	-453.993408	-453.992463	-454.033684	28.271	
N	-0.218572362	 1.2410748299	 0.0063964055	-0.580271
C	-0.058642719	-0.0156428761	-0.0035295925	 0.368812
O	 1.1135137634	-0.7014345052	 0.0040859105	-0.239518
C	 0.8366464907	-2.1152450296	-0.0126013768	-0.135601
C	-0.6588567701	-2.2290307395	-0.0316489956	-0.221806
C	-1.1632608428	-0.9887389122	-0.0259932948	 0.349252
N	-2.4511980321	-0.4880222889	-0.036729834	-0.406696
C	-3.5946804492	-1.239143938	-0.0578989382	 0.146421
O	-3.6247898805	-2.4491851553	-0.0698291849	-0.303401
H	 0.6693328665	 1.7409427688	 0.021778689	 0.231524
H	 1.3170331411	-2.550656072	-0.8982495067	 0.134771
H	 1.295712756	-2.567423131	 0.8759481178	 0.13477
H	-1.2050381098	-3.1575505698	-0.0469966126	 0.153871
H	-2.5039647315	 0.5238049187	-0.0278536784	 0.274284
H	-4.4997702206	-0.6042325198	-0.0628623482	 0.093585
83.9851	163.4194	180.26	228.8477	266.1781	329.8597	462.3121	503.9936	590.4769	665.5765	743.3705	775.1654	796.6521	831.2254	854.3934	908.2544	952.9745	1010.9022	1022.4821	1025.5518	1083.847	1143.4687	1192.6661	1202.9851	1266.0695	1339.8	1407.1789	1430.6093	1504.4868	1550.1208	1717.2073	1761.8741	1804.0568	2967.7152	3020.0264	3049.9217	3283.4966	3507.594	3568.6586
N=C1OCC=C1NC=O	[NH]C1=C([CH]CO1)NC=O	
InChI=1S/C5H6N2O2/c6-5-4(7-3-8)1-2-9-5/h1,3,6H,2H2,(H,7,8)	InChI=1S/C5H6N2O2/c6-5-4(7-3-8)1-2-9-5/h1,3,6H,2H2,(H,7,8)
