23
gdb 83996	2.07331	1.57301	1.36654	1.2517	84.76	-0.238	0.0671	0.3052	1136.4546	0.207357	-388.297408	-388.288454	-388.28751	-388.330272	35.712	
C	-0.039241952	 1.4706791717	-0.0397923506	-0.460243
C	 0.029703931	-0.0447336559	-0.0062774393	 0.280528
C	-1.2027135252	-0.7313883888	-0.5905573761	-0.261048
C	-1.437926413	-2.1831141634	-0.1360244681	-0.197905
C	-1.2182675805	-2.3301275	 1.3726400204	-0.186278
C	 0.2404417227	-2.0268669646	 1.7459668945	-0.218119
C	 0.7369863773	-0.6980381983	 1.1783988413	-0.103589
C	 1.4011327589	-0.6593045053	-0.1764127046	 0.043251
O	 1.5799389445	-1.8859487557	-0.8290768475	-0.41221
H	 0.8807453216	 1.9246114409	 0.3426291747	 0.11066
H	-0.1911687418	 1.8393192827	-1.0621984703	 0.108977
H	-0.8701836223	 1.8424141401	 0.5718352314	 0.113635
H	-2.0744920242	-0.1344831944	-0.2893608958	 0.095187
H	-1.1743603038	-0.6766419388	-1.6882204725	 0.079955
H	-2.4582102527	-2.4776051259	-0.4067328981	 0.083597
H	-0.7564802042	-2.8583555688	-0.6621412153	 0.104632
H	-1.8880460807	-1.6419395713	 1.9069673964	 0.08661
H	-1.4811207792	-3.3424483018	 1.6995715895	 0.087133
H	 0.3486814119	-2.010896215	 2.8349739141	 0.088993
H	 0.8774753949	-2.8394114373	 1.3786593657	 0.116045
H	 1.1544379491	-0.0126374631	 1.9106351747	 0.077462
H	 2.238150706	 0.0295026901	-0.300213029	 0.074119
H	 1.4408661017	-1.746324487	-1.7712795555	 0.288608
124.2897	171.5176	203.1844	227.2558	254.7982	293.1136	315.1148	324.5022	425.298	454.4245	505.3985	567.8051	587.9907	693.6376	775.096	810.4358	838.9722	877.828	917.9942	933.1759	964.0614	999.7853	1018.5479	1062.5005	1075.9213	1098.3963	1118.4293	1132.6667	1163.0351	1185.1662	1205.1633	1229.4936	1287.2133	1292.8202	1304.5735	1324.3204	1364.9026	1372.7862	1374.8584	1379.4491	1389.1967	1416.3522	1454.8147	1480.5334	1485.7726	1489.4801	1492.1293	1498.9455	1506.9743	2996.9903	3009.9693	3014.2511	3025.3596	3036.8056	3039.1347	3062.3779	3072.3174	3077.6218	3080.6206	3090.3644	3092.7864	3139.8754	3810.6663
CC12CCCCC1C2O	C[C@]12CCCC[C@H]1[C@H]2O	
InChI=1S/C8H14O/c1-8-5-3-2-4-6(8)7(8)9/h6-7,9H,2-5H2,1H3	InChI=1S/C8H14O/c1-8-5-3-2-4-6(8)7(8)9/h6-7,9H,2-5H2,1H3/t6-,7+,8-/m0/s1
