19
gdb 111781	2.9421	1.25349	1.13507	4.0581	75.09	-0.2305	-0.0022	0.2283	1145.3863	0.160634	-423.021211	-423.013064	-423.01212	-423.054193	31.245	
O	 0.2674426547	 0.5691974202	 1.0521503762	-0.419582
C	-0.0947483239	 0.3961751614	-0.3113361967	-0.129277
C	-1.42850458	-0.3252228017	-0.327703873	 0.030331
C	-2.0107512183	-0.9166321938	-1.6602477804	-0.171726
C	-0.9203742781	-1.9185919874	-2.1111494776	-0.229031
C	-0.5607856886	-2.5694015995	-0.7261664914	-0.230482
C	-1.5392774174	-1.8047961719	 0.1939199398	-0.13849
C	-2.8020273503	-1.8177506044	-0.6877094225	 0.430119
O	-3.9251308371	-2.2139941333	-0.5961148261	-0.325793
H	 1.0966913515	 1.0554654881	 1.084712514	 0.289097
H	-0.2077215701	 1.3658152041	-0.8223557841	 0.092162
H	 0.6756749638	-0.1679899673	-0.8546839709	 0.089368
H	-2.1711302834	 0.302902551	 0.1729714816	 0.098786
H	-2.4982663589	-0.3015127729	-2.4140770441	 0.080754
H	-1.3151863109	-2.6459409335	-2.8251816438	 0.113474
H	-0.0665514089	-1.4253405121	-2.5816334175	 0.106034
H	-0.7439854499	-3.6465431179	-0.7099381677	 0.112571
H	 0.4809424952	-2.4055283094	-0.4404043342	 0.112103
H	-1.5591858096	-2.0483075795	 1.2530586584	 0.089583
68.2828	132.7788	182.7702	243.3798	281.6396	289.5796	396.9336	481.1495	509.2891	653.8622	659.7043	733.0611	785.3368	815.1873	860.0984	895.837	906.3993	969.2542	982.5654	1009.7542	1033.6897	1068.6217	1084.7719	1108.6697	1125.2242	1137.6099	1158.0838	1197.9228	1235.5788	1244.0522	1249.6026	1264.9527	1268.8017	1317.2477	1328.2083	1394.113	1461.6069	1497.1306	1513.7876	1528.3679	1903.5147	2974.4276	3015.235	3060.8956	3069.5335	3072.568	3096.9491	3114.7447	3141.9486	3158.4922	3826.9682
OCC1C2CCC1C2=O	OC[C@H]1[C@H]2CC[C@@H]1C2=O	
InChI=1S/C7H10O2/c8-3-6-4-1-2-5(6)7(4)9/h4-6,8H,1-3H2	InChI=1S/C7H10O2/c8-3-6-4-1-2-5(6)7(4)9/h4-6,8H,1-3H2/t4-,5+,6+
