18
gdb 87467	3.64007	1.22063	1.09801	2.1193	78.27	-0.2476	0.0025	0.2501	1149.9523	0.147356	-401.871414	-401.863394	-401.86245	-401.903916	30.958	
C	-0.0645072248	 1.5255731191	-0.0121242164	-0.404095
C	 0.0176053268	 0.0155571959	 0.020164855	-0.100515
C	 1.3471000484	-0.694492457	-0.2358564129	-0.392844
C	 0.7265690591	-0.6969129136	 1.1176673954	 0.508824
C	 1.2014255443	-0.2197707099	 2.5010525747	-0.275237
N	-0.1661161468	-0.6882287702	 3.0099207949	-0.308319
C	 0.261590964	-1.815834145	 2.0638820488	-0.276442
C	 1.6556987763	-1.6875227537	 2.7369223527	 0.446886
O	 2.4911869842	-2.329925782	 3.2906232255	-0.325495
H	 0.8511173602	 1.979025056	 0.3815417885	 0.112624
H	-0.2022940849	 1.8905907266	-1.0356366424	 0.119176
H	-0.9020651175	 1.8866653883	 0.5932776404	 0.130587
H	-0.8589106955	-0.4930684296	-0.374546623	 0.092958
H	 1.3421400978	-1.6128563616	-0.8142888027	 0.119794
H	 2.2233136569	-0.0730254079	-0.396176203	 0.119176
H	 1.6363664515	 0.7320615834	 2.7986968602	 0.102466
H	-0.097081526	-0.9961929177	 3.9856805307	 0.22904
H	-0.3740542138	-2.675274351	 1.8594045738	 0.101416
109.3349	132.3947	180.814	214.128	277.3921	371.8417	400.592	472.4782	537.9249	583.9531	692.1196	778.0186	788.8021	799.4981	823.5975	870.5635	893.187	964.1557	974.4092	1017.9836	1052.6817	1053.3877	1087.1237	1108.2553	1123.9469	1138.4797	1150.4516	1173.9842	1186.4422	1196.666	1250.9807	1280.4099	1349.0247	1413.464	1442.3187	1492.3249	1496.6993	1520.5077	1905.1268	3030.9981	3095.5339	3101.2632	3122.3914	3136.4198	3144.2995	3148.8052	3206.3971	3390.3919
CC1CC11C2NC1C2=O	C[C@H]1C[C@]21[C@H]1N[C@@H]2C1=O	
InChI=1S/C7H9NO/c1-3-2-7(3)5-4(9)6(7)8-5/h3,5-6,8H,2H2,1H3	InChI=1S/C7H9NO/c1-3-2-7(3)5-4(9)6(7)8-5/h3,5-6,8H,2H2,1H3/t3-,5-,6+,7-/m0/s1
