19
gdb 87051	2.38547	1.42702	1.01356	1.6284	82.25	-0.2552	0.0267	0.2819	1227.9742	0.156463	-385.827188	-385.817854	-385.81691	-385.86116	35.16	
C	 0.0934840125	 1.3160876518	-0.2580806576	-0.432258
C	 0.203836693	-0.136365127	 0.1176018048	 0.044367
O	 1.5216994587	-0.6828592011	 0.2356147714	-0.288023
C	 0.7110673033	-0.6200478878	 1.4259835263	 0.148099
C	 1.1395735316	 0.3328355011	 2.4258065369	 0.306302
C	 1.4699023816	 1.0958024302	 3.2943203318	-0.41356
C	 0.2702198361	-1.9502137985	 1.9783798647	-0.088111
C	 0.2923637984	-3.178586041	 1.1089891102	-0.277579
C	 1.2966729031	-3.0270154147	 2.2239042251	-0.255413
H	 0.7699341232	 1.9280306814	 0.3414996133	 0.141232
H	 0.3405450682	 1.4514646051	-1.3161577079	 0.12951
H	-0.9316786263	 1.6692083185	-0.1039033744	 0.124104
H	-0.496435899	-0.8075329722	-0.3829605429	 0.091845
H	 1.7720800691	 1.7738056451	 4.0539707436	 0.196058
H	-0.5313841696	-1.8662918464	 2.7059993548	 0.094804
H	-0.5117912252	-3.8965330574	 1.2238327331	 0.108379
H	 0.6657566716	-3.0626342823	 0.0983994241	 0.129919
H	 2.3199914611	-2.8099840399	 1.9388465075	 0.127881
H	 1.1924870584	-3.640091055	 3.1117122752	 0.112445
77.8896	136.6784	153.2388	167.4018	187.0565	232.023	298.7695	366.2554	462.7677	486.3256	544.2644	609.7887	624.8748	650.5609	659.3519	780.2356	806.5437	826.5328	889.8225	916.2695	944.5799	978.0736	1027.6289	1065.2309	1090.7095	1099.1206	1131.7179	1136.088	1167.4058	1201.2194	1205.2792	1230.1426	1322.0971	1399.8723	1406.8926	1444.8647	1460.4823	1485.9486	1494.9983	1502.0723	2235.1072	3040.5266	3093.6045	3103.127	3139.0052	3140.8044	3141.5372	3155.3432	3221.9259	3236.072	3501.3411
CC1OC1(C#C)C1CC1	C[C@H]1O[C@]1(C#C)C1CC1	
InChI=1S/C8H10O/c1-3-8(6(2)9-8)7-4-5-7/h1,6-7H,4-5H2,2H3	InChI=1S/C8H10O/c1-3-8(6(2)9-8)7-4-5-7/h1,6-7H,4-5H2,2H3/t6-,8+/m1/s1
