15
gdb 86475	2.34762	1.41897	1.02864	5.2743	70.73	-0.3073	-0.0443	0.263	1159.0914	0.111215	-416.805769	-416.797068	-416.796124	-416.839819	30.929	
C	 0.4842212076	 1.5781387621	 0.0191869291	-0.404812
C	-0.0129232746	 0.1543396148	-0.0684573515	 0.152385
C	 0.4539050513	-0.7194058141	-1.253979754	-0.346021
C	 1.0514334595	-1.648608141	-0.1499403625	 0.150623
O	 0.6702052272	-0.7295481451	 0.8816005856	-0.300912
C	 0.370309062	-2.9480015005	-0.014576277	 0.274221
N	-0.2014753384	-3.9472668897	 0.075025628	-0.314941
C	 2.5081535697	-1.844221203	-0.2097753085	 0.278332
N	 3.65490307	-1.9585270084	-0.282370293	-0.314693
H	 1.5625918619	 1.6290368475	-0.1571452739	 0.136862
H	-0.0250366677	 2.2001072133	-0.724783034	 0.131983
H	 0.2749173441	 1.9919085883	 1.0099787913	 0.145475
H	-1.0936073308	 0.1031629	 0.1040005836	 0.107807
H	-0.3196986093	-1.1786430622	-1.8668477428	 0.152786
H	 1.2167173974	-0.2646533519	-1.8855412704	 0.150903
41.9892	128.4132	160.4365	182.8377	237.093	249.2206	335.8013	407.691	487.5882	515.0073	544.949	590.5829	606.5054	777.7395	880.1225	892.7507	912.0135	969.0222	1022.5445	1050.902	1097.1562	1147.2823	1187.2176	1231.6052	1260.1872	1308.5782	1391.3549	1414.1324	1480.2596	1484.2572	1494.9343	2361.7344	2365.1139	3039.7685	3048.5915	3103.6642	3113.8958	3123.8892	3170.9187
CC1CC(O1)(C#N)C#N	C[C@H]1CC(O1)(C#N)C#N	
InChI=1S/C6H6N2O/c1-5-2-6(3-7,4-8)9-5/h5H,2H2,1H3	InChI=1S/C6H6N2O/c1-5-2-6(3-7,4-8)9-5/h5H,2H2,1H3/t5-/m0/s1
