20
gdb 39769	3.02605	1.79375	1.47536	1.5588	82.23	-0.2247	0.0975	0.3222	962.2921	0.173578	-365.934942	-365.928152	-365.927208	-365.965599	29.337	
C	-0.1056511655	 1.5283508503	 0.0208129471	-0.375736
C	 1.2955588079	 0.9495004031	-0.0174245499	-0.373532
C	 0.1042943861	 0.047447181	 0.006887297	 0.444636
C	-0.4536105163	-0.9470937292	 1.0383231923	-0.140349
C	-1.6682271625	-1.0679774189	 0.0418218131	-0.206366
C	-0.5136322732	-0.9357222615	-1.0003943322	-0.08009
N	 0.1494300539	-2.2704795612	-0.8099783504	-0.114645
C	 1.4787885077	-2.2371352282	-0.1679735294	-0.253214
C	 0.2603670108	-2.2599752792	 0.6806647763	-0.024341
H	-0.4362875923	 1.996695717	 0.9428906965	 0.112732
H	-0.481513572	 2.0079858842	-0.8780900734	 0.113554
H	 1.8581640112	 1.0434767071	-0.9417507676	 0.116239
H	 1.9035793191	 1.0265673542	 0.879272882	 0.115422
H	-0.5750564655	-0.6923868696	 2.0910851466	 0.064782
H	-2.2179138314	-2.0118770984	 0.0326233648	 0.100018
H	-2.3406956574	-0.2095626296	 0.0682941486	 0.101049
H	-0.6744667489	-0.6875755688	-2.0493593079	 0.070095
H	 2.0273381388	-3.1669262281	-0.2941080436	 0.109819
H	 2.0873423241	-1.344872126	-0.2247675884	 0.127888
H	-0.0307431847	-3.1668170083	 1.2046124886	 0.092041
205.9831	217.0092	259.5918	391.7466	402.3038	490.7142	543.3836	659.7991	666.6098	740.2728	782.1481	788.0201	823.8529	854.766	884.5113	892.9162	927.4348	964.2902	969.7469	996.9362	1016.2804	1045.1786	1051.2543	1063.2505	1085.0442	1092.8019	1095.8954	1111.0466	1116.5203	1149.5133	1187.8909	1204.8911	1220.1272	1231.5047	1247.9266	1252.1544	1267.49	1356.8887	1401.9234	1464.5049	1486.9156	1490.9516	1509.8493	3071.0429	3115.0297	3116.4746	3118.6721	3120.5861	3126.672	3140.0607	3142.8535	3190.8093	3205.3956	3232.3454
C1CC11C2CC1N1CC21	C1CC21[C@H]1C[C@@H]2N2C[C@@H]12	
InChI=1S/C8H11N/c1-2-8(1)5-3-7(8)9-4-6(5)9/h5-7H,1-4H2	InChI=1S/C8H11N/c1-2-8(1)5-3-7(8)9-4-6(5)9/h5-7H,1-4H2/t5-,6-,7-,9?/m0/s1
