14
gdb 129531	5.16755	1.02575	0.85611	4.4998	64.65	-0.2257	0.0213	0.247	1247.211	0.10273	-470.055839	-470.047882	-470.046938	-470.090023	28.805	
N	-0.1994684041	 1.3779601503	-0.046617335	-0.565403
C	 0.1355693583	 0.0560788426	-0.021138558	 0.480624
O	 1.2549327193	-0.3838003807	 0.0474696009	-0.370528
O	-1.0096589498	-0.6839685617	-0.1183784205	-0.291528
C	-0.9505784354	-2.056409553	-0.1641671507	 0.281541
C	-2.0908135975	-2.8213285265	-0.2957471075	-0.147731
N	-1.6596793543	-4.1066624527	-0.2993574455	-0.174049
N	-0.3284078611	-4.2247801196	-0.1804423661	-0.221018
C	 0.1233720049	-2.9743386444	-0.0960850893	-0.097726
H	 0.5248966573	 2.0266017189	 0.2076035158	 0.273472
H	-1.1570294155	 1.6473079799	 0.0986900965	 0.268118
H	-3.1285630749	-2.546654708	-0.3833695405	 0.136228
H	-2.2180968959	-4.9386209867	-0.3797018134	 0.277546
H	 1.1730819286	-2.7694827585	 0.0065561534	 0.150453
17.2893	83.9168	182.4248	308.2349	340.8875	364.3032	392.5307	492.4954	510.053	622.5065	646.5765	695.9653	760.6487	764.8262	768.1887	890.0557	935.7523	962.6226	1034.1718	1075.074	1113.5322	1161.2209	1246.0915	1338.8451	1353.7301	1391.8863	1411.0126	1504.4773	1608.4074	1619.4886	1850.0606	3276.5029	3315.4531	3620.2377	3682.5573	3751.1509
NC(=O)OC1=CNN=C1	NC(=O)Oc1c[nH]nc1	
InChI=1S/C4H5N3O2/c5-4(8)9-3-1-6-7-2-3/h1-2H,(H2,5,8)(H,6,7)	InChI=1S/C4H5N3O2/c5-4(8)9-3-1-6-7-2-3/h1-2H,(H2,5,8)(H,6,7)
