17
gdb 62747	2.48858	1.55685	1.28721	4.3578	69.66	-0.2218	0.0066	0.2284	1034.7163	0.134296	-455.123587	-455.114389	-455.113444	-455.156952	34.372	
C	 0.0437052644	 1.5501460679	 0.0429264086	-0.470375
C	 0.0963035072	 0.0405349718	 0.0725793129	 0.31496
O	-1.1018560625	-0.5774910902	-0.3230759229	-0.462471
C	 1.3296736627	-0.7966103309	-0.2193942511	-0.138198
N	 2.5398445614	-0.2049613769	 0.3553829168	-0.336924
C	 1.9904765258	-0.1646843263	 1.6492978605	 0.35698
O	 2.4067896925	 0.2556204961	 2.6928842151	-0.34892
C	 0.7093117859	-0.8339191853	 1.1816644991	 0.16869
N	 0.0133897651	-1.8443093777	 1.8930932238	-0.613345
H	 0.9734475102	 2.0023514864	 0.3947481401	 0.133638
H	-0.1373994272	 1.908377963	-0.9791071252	 0.109806
H	-0.7718298579	 1.9105047394	 0.6769151682	 0.137904
H	-1.3049157172	-0.3045270565	-1.2243983569	 0.291499
H	 1.3774167324	-1.5813890843	-0.9634827149	 0.116183
H	 3.0453593352	 0.5764308252	-0.0484165067	 0.240383
H	 0.0518845976	-1.637610975	 2.8864183866	 0.249623
H	-0.9608406557	-1.8662960167	 1.6079750359	 0.250565
114.5136	142.48	188.7837	204.5415	225.4941	246.2441	276.3192	296.5646	405.8664	411.8238	513.6928	579.5632	628.6102	648.6975	706.3611	759.3958	778.7436	845.3358	902.9886	939.8048	961.5014	1000.52	1030.0086	1082.9569	1131.0641	1203.8073	1230.8777	1258.4362	1315.8735	1327.1419	1348.9099	1414.2115	1457.4752	1485.1488	1497.4715	1632.8016	1889.4181	3021.4193	3093.1704	3128.9275	3201.4463	3498.0175	3534.758	3583.399	3804.7434
CC1(O)C2NC(=O)C12N	C[C@@]1(O)[C@H]2NC(=O)[C@@]12N	
InChI=1S/C5H8N2O2/c1-4(9)2-5(4,6)3(8)7-2/h2,9H,6H2,1H3,(H,7,8)	InChI=1S/C5H8N2O2/c1-4(9)2-5(4,6)3(8)7-2/h2,9H,6H2,1H3,(H,7,8)/t2-,4-,5-/m1/s1
