19
gdb 60827	3.58339	0.90761	0.86887	2.0556	72.65	-0.266	-0.0396	0.2265	1395.9787	0.157131	-460.152593	-460.143122	-460.142178	-460.187405	34.73	
O	 0.1095583583	 1.4733532108	-0.0222231395	-0.447513
C	 0.1004102515	 0.0702881531	 0.0936999432	 0.021513
C	 0.6861317336	-0.5463901861	-1.1608938347	 0.144962
O	 1.0005324968	 0.1296253654	-2.1099742901	-0.262042
C	 0.917970891	-0.3384863336	 1.3378465064	 0.092165
O	 2.2310974233	 0.1791297029	 1.2037817207	-0.441777
C	 0.2384392994	 0.1052386531	 2.6153503318	 0.014699
C	-0.7457307187	-0.8108380945	 3.3015698463	-0.272146
C	 0.6062302615	-0.5495655483	 3.9176661337	-0.273812
H	 0.3767581995	 1.652690743	-0.939209278	 0.299082
H	-0.9288894478	-0.315639479	 0.2007832945	 0.100228
H	 0.7981340034	-1.6492216888	-1.1636411047	 0.102393
H	 1.0204606115	-1.4320410092	 1.3500396315	 0.080531
H	 2.1175071822	 1.110746877	 0.9720036344	 0.284702
H	 0.0147863439	 1.1678263323	 2.6436966029	 0.099771
H	-1.6224386612	-0.3701005506	 3.7623662353	 0.115946
H	-0.9217487494	-1.7898504889	 2.8660356184	 0.107321
H	 1.3411000608	-1.3473946934	 3.8899417399	 0.118253
H	 0.6583610903	 0.0692182446	 4.8062591478	 0.115724
65.6371	78.1617	113.2313	174.141	221.3769	265.7045	304.3831	316.9509	395.3148	432.5846	482.5158	553.0784	709.2181	736.8561	775.4158	831.2731	844.9556	864.826	930.879	946.9	983.3639	1008.1184	1056.8827	1080.133	1087.0297	1140.1751	1142.2069	1172.1056	1197.4828	1223.7405	1245.939	1272.2307	1305.7534	1336.7515	1393.6826	1424.738	1425.9776	1435.5042	1472.8333	1508.5982	1814.7676	2935.9936	2961.2438	3024.7876	3127.5646	3136.4814	3153.631	3207.6102	3223.7834	3667.6577	3762.4257
OC(C=O)C(O)C1CC1	O[C@@H](C=O)[C@@H](O)C1CC1	
InChI=1S/C6H10O3/c7-3-5(8)6(9)4-1-2-4/h3-6,8-9H,1-2H2	InChI=1S/C6H10O3/c7-3-5(8)6(9)4-1-2-4/h3-6,8-9H,1-2H2/t5-,6-/m0/s1
