18
gdb 97377	3.30313	0.96365	0.77515	3.415	85.93	-0.2341	-0.0533	0.1808	1486.518	0.145109	-435.269495	-435.259319	-435.258375	-435.305397	35.06	
C	-0.5175324846	 0.8353046075	-1.7385455155	-0.31694
N	-0.3160450711	-0.3099322441	-0.8794937465	-0.206006
C	 0.8275610443	-0.4879159243	-0.3640742949	 0.096311
N	 1.1304013532	-1.5807102524	 0.4197938566	-0.346023
C	 0.2082614363	-2.551587471	 0.8376574641	 0.299252
C	-0.90910566	-2.8534451302	-0.1437121676	 0.117234
O	-2.0065266491	-3.2137875566	 0.2000720241	-0.256103
N	 0.4623610046	-3.1633699144	 1.9217942124	-0.283414
C	-0.3566195519	-4.2447121787	 2.4310897523	-0.323148
H	 0.3733769523	 1.4776740457	-1.8289238138	 0.099353
H	-0.8040481039	 0.503766143	-2.7435871355	 0.130703
H	-1.3454664494	 1.4425847502	-1.3558888496	 0.133601
H	 1.6809449916	 0.1896809122	-0.5021034752	 0.096691
H	 1.9482664532	-1.5242937993	 1.0101847787	 0.256527
H	-0.6069086461	-2.8064016999	-1.2062054315	 0.105867
H	 0.3059785644	-5.0121306328	 2.8451550705	 0.120616
H	-0.961690246	-3.8651986224	 3.2636795367	 0.137382
H	-1.0397284878	-4.6972970723	 1.7068299948	 0.138097
46.3564	79.9791	111.3737	133.9096	193.4289	231.1733	248.7821	283.6194	302.1826	361.1896	400.1056	411.7901	534.8269	614.2027	636.2802	772.6822	856.3727	972.6525	988.5924	1027.9822	1061.4825	1125.0405	1142.06	1151.3729	1158.4683	1193.3417	1286.6124	1403.3269	1427.1665	1445.4364	1449.6037	1477.6696	1480.0544	1484.6562	1503.3432	1506.3265	1714.955	1762.8101	1808.0216	2955.5932	2971.8775	3023.0171	3030.0676	3058.5997	3076.2974	3077.7042	3106.5513	3606.4166
CN=CNC(C=O)=NC	CN=CNC(=NC)C=O	
InChI=1S/C5H9N3O/c1-6-4-8-5(3-9)7-2/h3-4H,1-2H3,(H,6,7,8)	InChI=1S/C5H9N3O/c1-6-4-8-5(3-9)7-2/h3-4H,1-2H3,(H,6,7,8)
