19
gdb 83381	2.72521	1.74176	1.53192	1.213	74.31	-0.2446	0.0604	0.305	960.3208	0.160699	-422.938977	-422.931823	-422.930879	-422.970083	29.564	
C	-0.0048762821	 1.6705394133	 0.0116026266	-0.446676
C	 0.0369604057	 0.1533438668	 0.0066216552	-0.021335
C	 1.1338727868	-0.5925943951	-0.7580784186	 0.04028
O	 2.3548435076	-0.0394986682	-0.1383392895	-0.293124
C	 2.0762933069	-0.0449469808	 1.2995087501	-0.165324
C	 0.7108058168	-0.6893151868	 1.1760410931	 0.393212
O	-0.1447067732	-1.449609861	 2.0154581822	-0.350343
C	-0.30554707	-2.3930427134	 0.8940858845	-0.158252
C	 0.9476776098	-1.8207811345	 0.1587665345	-0.08611
H	 0.9979214811	 2.1020414893	 0.0464613879	 0.136399
H	-0.4916429475	 2.0434470712	-0.8961108745	 0.117172
H	-0.5771111953	 2.0448736192	 0.8673764325	 0.121736
H	-0.9510563055	-0.2602453944	-0.2000137004	 0.080676
H	 1.285496451	-0.5897911866	-1.8367589406	 0.078341
H	 2.8095263821	-0.6623373922	 1.8263758887	 0.112864
H	 2.1031616165	 0.9786878989	 1.685697059	 0.106455
H	-0.1780454583	-3.4204361726	 1.242547208	 0.120542
H	-1.2818735661	-2.2841320062	 0.4137944155	 0.119198
H	 1.8306105538	-2.4505620869	 0.2666815057	 0.094288
172.8571	219.4334	269.7612	312.766	355.423	386.3633	466.7567	533.2794	589.881	692.5708	748.1586	770.9495	799.7479	840.3979	865.9556	902.8677	916.8013	953.1057	1011.4144	1032.912	1041.7545	1053.8704	1079.6146	1116.8349	1145.4437	1151.5593	1172.0267	1189.7195	1208.7433	1238.3279	1252.7876	1286.8058	1311.4421	1337.1287	1353.4878	1404.6592	1415.7106	1490.9025	1503.7933	1509.6512	1532.0937	3035.7787	3044.2186	3053.2581	3091.8479	3093.2607	3099.3193	3106.1976	3119.2938	3128.5228	3129.2813
CC1C2OCC11OCC21	C[C@H]1[C@H]2OC[C@]31OC[C@@H]23	
InChI=1S/C7H10O2/c1-4-6-5-2-9-7(4,5)3-8-6/h4-6H,2-3H2,1H3	InChI=1S/C7H10O2/c1-4-6-5-2-9-7(4,5)3-8-6/h4-6H,2-3H2,1H3/t4-,5-,6+,7+/m0/s1
