18
gdb 14781	14.46446	0.56969	0.55577	2.8094	67.01	-0.2584	-0.029	0.2294	1921.2668	0.149635	-422.054878	-422.044812	-422.043868	-422.091714	32.195	
C	 0.7495766176	 1.6081614815	-0.132467054	-0.22664
O	 0.7819543183	 0.2111408515	 0.0390128468	-0.232855
C	-0.1539264526	-0.4624922071	-0.7674621112	-0.069186
C	-0.0113196205	-1.9499019877	-0.4841520326	-0.068916
O	-0.9483619278	-2.6326902815	-1.2905831491	-0.250885
C	-0.9221366404	-4.0254818447	-1.1252491362	-0.140892
C	-1.9686435982	-4.6328360715	-2.043268328	 0.139236
O	-2.1804246577	-5.8130713348	-2.1236982442	-0.236686
H	 0.9796404541	 1.8972822423	-1.1700252515	 0.106689
H	-0.2337769159	 2.028818826	 0.1304410227	 0.106692
H	 1.5057340222	 2.036227571	 0.5297738067	 0.129529
H	-1.1835316888	-0.1387983914	-0.5433078338	 0.097054
H	 0.0259279756	-0.26934519	-1.8377200655	 0.097058
H	 1.0160229333	-2.2755776423	-0.7103366955	 0.103127
H	-0.1933021905	-2.1448935241	 0.584264707	 0.103119
H	 0.0626000383	-4.4550492542	-1.3770193411	 0.123642
H	-1.1451098238	-4.324545712	-0.0867332145	 0.123635
H	-2.5269683532	-3.8784345109	-2.6404539759	 0.09628
40.164	62.8815	80.0256	85.4084	119.393	133.4662	225.3311	231.6409	303.7398	400.5012	504.7035	570.7304	739.7972	834.9976	987.0345	1024.0251	1056.4506	1110.9416	1113.3941	1162.7416	1173.1494	1185.107	1191.5595	1229.9144	1233.7393	1241.9346	1292.1646	1335.8237	1374.3323	1407.9092	1449.0477	1480.0828	1485.3415	1485.526	1504.7475	1527.1532	1536.3272	1846.1733	2899.0112	2959.6522	2962.884	2975.7506	2980.7805	2988.0093	2991.9566	3017.137	3022.5561	3117.0901
COCCOCC=O	COCCOCC=O	
InChI=1S/C5H10O3/c1-7-4-5-8-3-2-6/h2H,3-5H2,1H3	InChI=1S/C5H10O3/c1-7-4-5-8-3-2-6/h2H,3-5H2,1H3
