21
gdb 122676	4.88845	0.72716	0.6695	1.9505	75.49	-0.2539	0.0821	0.336	1716.0382	0.182044	-461.349824	-461.340116	-461.339172	-461.386518	33.808	
C	-0.1242412113	 1.1692471738	-0.1840168149	-0.385686
C	-0.0457401064	-0.3309916708	-0.4613141038	-0.038099
O	-1.3137798698	-0.9554092887	-0.5765629962	-0.251614
C	-1.9840800869	-1.1711294008	 0.646677563	-0.089526
C	-3.2586209297	-1.9384455824	 0.3219692164	 0.091198
C	-3.0111853796	-3.3368395693	-0.2811840873	-0.114352
O	-3.9952843041	-4.1461764961	 0.3491895274	-0.233661
C	-4.1137023216	-3.6115176618	 1.6383409896	 0.02536
O	-3.9912316669	-2.2056538389	 1.5200703697	-0.272865
H	 0.8805667194	 1.6041436988	-0.1942097077	 0.117235
H	-0.7241162429	 1.6677072589	-0.9511461038	 0.127744
H	-0.5678350814	 1.3832906366	 0.7927764601	 0.123745
H	 0.451768931	-0.5061749408	-1.4208860282	 0.108339
H	 0.5517202718	-0.8330872721	 0.3168693962	 0.088482
H	-1.3608220387	-1.7625527941	 1.3392109905	 0.085663
H	-2.2410827383	-0.2295168947	 1.1526017607	 0.102472
H	-3.8846907218	-1.330551612	-0.3422694969	 0.092917
H	-3.1606028392	-3.3846977935	-1.3601026279	 0.126733
H	-1.9963293134	-3.691553398	-0.0438273915	 0.097271
H	-5.1000014179	-3.8613543781	 2.0411641537	 0.118094
H	-3.3223124924	-4.0046308761	 2.3035799509	 0.08055
28.1992	50.2612	73.7554	139.5283	155.2092	234.4606	260.8354	317.04	394.6988	437.1969	492.9765	685.0633	744.812	802.671	868.3237	889.5167	946.159	966.784	994.9135	1016.2456	1072.8013	1089.9436	1115.8996	1124.2786	1147.8234	1164.8067	1185.7576	1206.4954	1207.8903	1240.755	1270.5665	1318.3554	1333.6873	1344.4625	1388.8862	1400.371	1413.1904	1424.223	1435.9651	1488.7945	1489.8624	1504.8433	1509.5531	1524.7488	1545.6606	2926.5893	2960.4326	2977.7873	2990.364	3015.5548	3038.4815	3042.195	3068.6767	3079.7681	3111.2084	3120.7876	3127.8494
CCOCC1COCO1	CCOC[C@H]1COCO1	
InChI=1S/C6H12O3/c1-2-7-3-6-4-8-5-9-6/h6H,2-5H2,1H3	InChI=1S/C6H12O3/c1-2-7-3-6-4-8-5-9-6/h6H,2-5H2,1H3/t6-/m0/s1
