18
gdb 28570	3.74598	1.16791	0.96246	1.2564	81.88	-0.1999	0.0219	0.2218	1251.8032	0.147744	-401.952765	-401.944466	-401.943522	-401.986291	30.942	
C	 0.0983799618	 1.4483549244	-0.1586727949	-0.490302
C	-0.0777500556	-0.0197283846	-0.0115152724	 0.351574
C	-1.1241245841	-0.8088673813	 0.348602382	-0.261324
C	-0.6600678718	-2.1659823169	 0.3000454582	-0.254787
C	 0.6398084554	-2.111035508	-0.0867543061	 0.392363
O	 1.013840758	-0.802209039	-0.282375453	-0.219116
N	 1.5671419353	-3.1288688248	-0.2938096436	-0.192018
C	 2.5578539486	-2.9710439287	-1.3707771437	-0.225222
C	 2.9760579734	-2.8792533791	 0.0513574171	-0.225229
H	 0.8790057597	 1.8325589889	 0.5085290392	 0.134209
H	 0.3804608419	 1.7229871392	-1.1819711201	 0.134202
H	-0.8372168796	 1.9572890832	 0.0843049853	 0.134877
H	-2.1115371339	-0.4660114672	 0.6170805868	 0.103878
H	-1.209945078	-3.0661994645	 0.5209120501	 0.109642
H	 2.7530999219	-3.8726054257	-1.9438706542	 0.121914
H	 2.5320168772	-2.0480669142	-1.9420740421	 0.13172
H	 3.2301620509	-1.8947777197	 0.4323756831	 0.131694
H	 3.4807398993	-3.712878032	 0.5306514983	 0.121924
49.738	131.9249	152.6849	161.226	248.8698	323.8098	428.9482	469.1627	575.7544	632.0146	680.371	703.2197	797.5342	820.2527	823.7437	851.2954	893.1214	956.548	984.4467	1017.918	1037.2354	1041.6623	1064.2579	1106.1577	1129.9839	1150.3478	1182.8146	1206.4468	1219.0001	1242.6632	1336.8544	1379.1956	1415.136	1471.6438	1484.1345	1492.2693	1511.0919	1612.7536	1666.7198	3025.2409	3073.1341	3115.3226	3118.542	3126.4448	3201.9297	3216.8336	3250.2796	3271.4775
CC1=CC=C(O1)N1CC1	Cc1ccc(o1)N1CC1	
InChI=1S/C7H9NO/c1-6-2-3-7(9-6)8-4-5-8/h2-3H,4-5H2,1H3	InChI=1S/C7H9NO/c1-6-2-3-7(9-6)8-4-5-8/h2-3H,4-5H2,1H3
