19
gdb 41591	2.83891	1.75905	1.63574	1.1788	72.57	-0.2452	0.0686	0.3139	924.4146	0.162097	-422.992596	-422.985605	-422.984661	-423.024141	27.805	
C	 0.3335144562	 1.5942941697	-0.3737326255	-0.239603
C	 1.6638345118	 1.4926355842	 0.4403484345	-0.239582
C	 1.3675294397	 0.0031963476	 0.7504867402	-0.051266
C	 0.0265530001	 0.1057162916	-0.0699007054	-0.05125
C	 0.5904571488	-0.9315026334	-1.0925970267	 0.076894
O	 0.9673747246	-0.4923214922	-2.3836431376	-0.260644
C	 2.3323848998	-0.1169298116	-2.3545881952	 0.02021
O	 2.9298790853	-0.6421124234	-1.1831785543	-0.260647
C	 1.9060922199	-1.0319654546	-0.2878386363	 0.076885
H	-0.3916293416	 2.2797983596	 0.0699436225	 0.100623
H	 0.4222131344	 1.8345918416	-1.435214147	 0.113387
H	 2.5917901126	 1.6688859064	-0.1075350956	 0.11338
H	 1.6718824599	 2.1220382641	 1.3327537823	 0.100626
H	 1.4140458656	-0.3133925376	 1.7928934543	 0.06223
H	-0.9535843304	-0.1323203934	 0.3444339197	 0.06223
H	-0.0129648403	-1.8364214331	-1.198981356	 0.085236
H	 2.8366007342	-0.5410716147	-3.2317945516	 0.112624
H	 2.4249645678	 0.9792476643	-2.3691798721	 0.093431
H	 2.1713805215	-2.0032386351	 0.1370870398	 0.085236
112.7387	128.3185	232.2183	232.3041	472.0284	532.5235	597.8361	691.6236	723.7472	744.9281	800.1333	816.9612	855.7487	884.139	913.1118	953.1261	955.8212	990.8346	1001.2145	1025.3366	1061.6142	1099.6254	1122.1129	1130.3463	1140.9913	1179.6234	1203.7562	1210.6996	1231.12	1238.7856	1256.8166	1274.8438	1278.449	1293.8706	1321.6455	1353.2508	1355.3959	1443.4031	1482.3483	1498.82	1552.8893	2982.0144	3042.4341	3067.3095	3067.9618	3072.9351	3078.5048	3095.7292	3108.3264	3112.3193	3129.5137
C1CC2C1C1OCOC21	C1C[C@H]2[C@@H]1[C@H]1OCO[C@@H]21	
InChI=1S/C7H10O2/c1-2-5-4(1)6-7(5)9-3-8-6/h4-7H,1-3H2	InChI=1S/C7H10O2/c1-2-5-4(1)6-7(5)9-3-8-6/h4-7H,1-3H2/t4-,5+,6-,7+
