16
gdb 51257	5.22938	0.9828	0.94738	3.8268	71.18	-0.2634	-0.0302	0.2332	1239.1956	0.125377	-437.880914	-437.873525	-437.872581	-437.914335	27.278	
O	 0.0552708802	 0.0331414239	-0.0509550611	-0.247306
C	-0.0068585325	 1.2178843348	 0.0221290365	 0.158021
O	 1.1402888648	 1.9837394033	-0.0592257317	-0.252775
C	 1.0122664882	 3.3328947374	-0.0221860108	 0.455347
N	-0.0588251225	 4.0239020961	-0.0261180045	-0.302622
C	 0.5567899571	 5.4039506735	 0.0291711885	 0.016499
C	 1.702868165	 5.2998074348	-1.0208484754	-0.212111
C	 2.2207689281	 4.247775312	 0.0274497189	-0.169394
C	 1.6606504681	 5.2367811065	 1.1155104871	-0.212243
H	-0.9074109741	 1.8296823595	 0.1599709231	 0.149102
H	-0.1843850825	 6.1995845375	 0.0378897514	 0.084495
H	 1.4389325707	 4.9372788371	-2.0166638001	 0.111987
H	 2.3356109269	 6.1885333045	-1.0784222926	 0.108851
H	 3.2223768591	 3.8240683223	 0.0347938259	 0.092774
H	 2.2902353253	 6.1193674572	 1.2510685844	 0.109024
H	 1.358040748	 4.8166846296	 2.0772436702	 0.11035
24.3349	99.9331	180.1092	264.0959	372.3742	488.9357	515.6506	540.2854	710.9579	735.2755	825.6612	834.3052	847.3306	885.9465	928.4809	955.8106	999.2511	1027.0789	1051.7151	1054.2708	1059.9041	1102.6927	1112.676	1118.5837	1216.0573	1222.142	1242.7286	1251.8939	1272.7457	1367.1128	1398.4817	1479.5338	1515.9267	1675.7586	1879.6157	3062.5613	3069.6526	3078.4463	3130.6402	3136.2081	3148.5859	3150.5742	24.3383	99.9318	180.1089	264.0958	372.3741	488.9355	515.6506	540.2852	710.9576	735.2754	825.6608	834.3051	847.3305	885.9465	928.4808	955.8106	999.2514	1027.079	1051.7159	1054.2709	1059.9043	1102.693	1112.6758	1118.584	1216.0574	1222.142	1242.7287	1251.8942	1272.7459	1367.1131	1398.4818	1479.5343	1515.9272	1675.7588	1879.6152	3062.5613	3069.6526	3078.4463	3130.6401	3136.2081	3148.5859	3150.5742
O=COC1=NC2CC1C2	O=CO[C]1[N][C@@H]2C[C@H]1C2	
InChI=1S/C6H7NO2/c8-3-9-6-4-1-5(2-4)7-6/h3-5H,1-2H2	InChI=1S/C6H7NO2/c8-3-9-6-4-1-5(2-4)7-6/h3-5H,1-2H2/t4-,5+
