17
gdb 129956	3.14485	1.02371	0.81886	2.6694	70.91	-0.2183	-0.0026	0.2157	1360.2196	0.136297	-455.126366	-455.117408	-455.116464	-455.160665	32.463	
N	 0.145180872	 1.3782384352	-0.291917277	-0.608403
C	 0.076445646	-0.0076764807	-0.0965664594	 0.05247
C	-0.9982221074	-0.8353101578	 0.002337474	 0.006857
O	-0.5900143553	-2.1203921641	 0.0923311247	-0.171451
N	 0.7906944205	-2.1544833669	 0.0639694501	-0.206306
C	 1.1902434857	-0.9087337104	-0.0537661162	 0.354791
C	 2.6448090754	-0.5737112335	-0.1543806486	-0.337155
C	 3.0506457967	-0.1291612472	-1.5723290683	-0.066927
O	 4.4019407511	 0.2897933283	-1.6344596079	-0.413468
H	 0.8986128742	 1.810190744	 0.228914034	 0.252618
H	-0.7214633965	 1.8530409334	-0.0753595723	 0.249798
H	-2.0641252345	-0.6728934314	 0.0164006769	 0.137668
H	 2.9040361327	 0.2322725625	 0.5438072135	 0.109066
H	 3.2249579629	-1.4550823196	 0.1388266087	 0.120843
H	 2.8392638742	-0.9413814704	-2.283193589	 0.105151
H	 2.4511507109	 0.7343092107	-1.8763307375	 0.129961
H	 4.9582200114	-0.4808624421	-1.4820855354	 0.284485
61.9049	100.0077	118.6042	199.0397	254.9998	284.1047	314.4298	357.2493	404.6474	444.2935	603.6495	667.3433	699.0536	756.1425	771.2696	789.1507	806.8295	919.688	963.124	1015.0731	1050.3543	1079.948	1117.7985	1136.5954	1158.087	1248.9052	1294.5742	1312.5418	1320.7431	1396.1906	1419.4873	1461.9066	1481.7417	1515.1482	1529.3553	1648.1816	1683.0245	3000.244	3029.5839	3074.4626	3097.2341	3268.6716	3533.2979	3623.3094	3815.6802
NC1=CON=C1CCO	Nc1conc1CCO	
InChI=1S/C5H8N2O2/c6-4-3-9-7-5(4)1-2-8/h3,8H,1-2,6H2	InChI=1S/C5H8N2O2/c6-4-3-9-7-5(4)1-2-8/h3,8H,1-2,6H2
