21
gdb 81583	3.24308	1.21612	1.03872	1.466	83.12	-0.2606	0.0967	0.3573	1236.9383	0.183038	-387.010282	-387.002003	-387.001059	-387.043562	32.161	
C	-0.2396358325	 1.4557989733	 0.3339634211	-0.4443
C	 0.0176116256	-0.0284268437	 0.1144805306	 0.066813
C	 1.1541971971	-0.5381920128	-0.834568747	-0.085284
C	 2.1854563225	-0.1431156366	 0.2624753568	-0.238426
C	 1.0130858312	-0.8372067686	 1.0193859973	-0.074734
C	 1.0634297818	-1.9197331366	-0.1049238206	 0.010879
C	-0.0572451579	-2.9010594089	-0.3421886924	 0.023943
C	-0.4893000735	-3.8415721638	 0.7026075591	-0.174834
O	-1.3159443799	-2.7420944936	 0.3221944562	-0.223964
H	 0.6638546078	 2.0486151747	 0.4956967202	 0.113723
H	-0.7608180397	 1.8803873281	-0.5316606219	 0.11546
H	-0.8898185507	 1.601167805	 1.2040275601	 0.11793
H	-0.9353680163	-0.5365056349	-0.0294487647	 0.100072
H	 1.2429380643	-0.375372388	-1.9111490749	 0.062538
H	 3.1394154503	-0.6780037384	 0.2482998335	 0.085734
H	 2.3426000265	 0.91895252	 0.4463069429	 0.09396
H	 0.9357598853	-1.0128353961	 2.0941757415	 0.065798
H	 2.0075370875	-2.4787094791	-0.1407812578	 0.0691
H	-0.1553702703	-3.2386584945	-1.3767022595	 0.09048
H	-0.8641458406	-4.8269044005	 0.4289239041	 0.111891
H	-0.0512202384	-3.7701917848	 1.6974314954	 0.113223
49.8434	155.152	173.9851	184.5563	280.6442	310.3736	405.5036	430.6679	557.0668	651.4382	754.4514	778.3387	787.9631	819.6464	875.492	895.7835	900.8145	907.5452	986.298	1018.5989	1020.7076	1026.787	1052.7313	1081.5214	1098.4088	1107.7744	1128.7354	1136.3108	1152.1822	1169.4361	1172.4331	1193.3489	1214.9782	1241.9322	1247.1584	1265.893	1297.9805	1400.1022	1411.1666	1426.538	1438.5643	1496.7071	1498.879	1526.3372	1531.6687	3019.4948	3032.4312	3059.8973	3078.5719	3082.8832	3084.2237	3086.7315	3092.2055	3106.5082	3129.5578	3141.4463	3168.0205
CC1C2CC1C2C1CO1	C[C@H]1[C@H]2C[C@@H]1[C@H]2[C@H]1CO1	
InChI=1S/C8H12O/c1-4-5-2-6(4)8(5)7-3-9-7/h4-8H,2-3H2,1H3	InChI=1S/C8H12O/c1-4-5-2-6(4)8(5)7-3-9-7/h4-8H,2-3H2,1H3/t4-,5+,6-,7-,8-/m1/s1
