15
gdb 36684	2.89399	1.00738	0.8129	6.4218	71.3	-0.2871	-0.0029	0.2842	1353.4728	0.111623	-416.798951	-416.790218	-416.789274	-416.83361	30.449	
N	-0.07123826	-1.0216573358	 0.1938908571	-0.285716
C	 0.1653975393	 0.0726764247	-0.0861929401	 0.271847
C	 0.4337601166	 1.4587392005	-0.4728749096	-0.201379
O	 1.2419628452	 2.061613382	 0.5273426059	-0.231597
C	 1.3928080464	 3.4280018639	 0.3585299515	 0.134409
C	 2.6329939832	 4.0193426437	 0.9181720856	-0.315191
C	 2.4665964494	 3.9571635573	-0.6000717913	-0.217476
C	 3.2484989715	 3.0265012943	-1.3599970217	 0.296143
N	 3.8593603331	 2.2738101051	-1.99197879	-0.332763
H	 0.937224038	 1.4715709766	-1.4485120007	 0.171605
H	-0.5257794686	 1.9873185797	-0.575679041	 0.145838
H	 0.4661452715	 4.0015679235	 0.3948794942	 0.113735
H	 2.5882540715	 4.9965201176	 1.3830372118	 0.14228
H	 3.3402942356	 3.323772181	 1.3532144544	 0.165394
H	 2.2481830972	 4.886524646	-1.1152392962	 0.142871
39.5989	98.5018	125.3021	159.4349	213.5781	271.9821	372.3414	391.7822	430.9844	542.7462	563.8933	671.4684	777.6212	783.5245	857.4621	950.7973	979.6959	1029.9433	1033.604	1071.0008	1087.5479	1121.3447	1124.732	1181.072	1242.4698	1263.54	1363.1359	1381.2599	1431.8128	1478.8691	1492.7079	2353.2017	2377.6106	3000.327	3049.8409	3102.7884	3155.4744	3172.0849	3251.9285
N#CCOC1CC1C#N	N#CCO[C@H]1C[C@H]1C#N	
InChI=1S/C6H6N2O/c7-1-2-9-6-3-5(6)4-8/h5-6H,2-3H2	InChI=1S/C6H6N2O/c7-1-2-9-6-3-5(6)4-8/h5-6H,2-3H2/t5-,6-/m0/s1
