18
gdb 86723	2.98019	1.13219	0.89497	2.3654	79.83	-0.2174	-0.0092	0.2082	1300.771	0.147404	-439.12424	-439.115206	-439.114261	-439.158305	32.832	
C	-0.1468770997	 1.5300557808	 0.1159411765	-0.490907
C	-0.0729116167	 0.0416425504	 0.0253259163	 0.178855
C	-0.0197328944	-0.7227801281	-1.0727920951	-0.090892
N	 0.0496637754	-2.0908312357	-0.7779363891	-0.059895
C	-0.0906406163	-2.2748418405	 0.6723663233	-0.215421
C	 0.0743146418	-0.8422846471	 1.2507846247	 0.029885
O	 1.3159826226	-0.6301659197	 1.9186423174	-0.425266
C	 0.1769972612	-3.0829168371	-1.7056326908	 0.142136
O	 0.2563641702	-2.9053335392	-2.9031751369	-0.329151
H	 0.676725552	 1.924480125	 0.7222539384	 0.136027
H	-0.1020806844	 1.9973126961	-0.8713813552	 0.128432
H	-1.076210378	 1.8560024579	 0.60103992	 0.129215
H	-0.0238526374	-0.437282278	-2.1148513494	 0.15591
H	-1.0815518135	-2.6789953393	 0.9068721194	 0.125448
H	 0.6701649638	-2.9480743028	 1.0747007766	 0.130949
H	-0.679924588	-0.6469415016	 2.0189540939	 0.097966
H	 2.0049645591	-0.605312387	 1.2440931813	 0.280821
H	 0.2015576623	-4.0841141042	-1.2336092414	 0.075888
59.7888	129.7899	171.3944	187.6079	222.0178	249.4667	318.9579	355.5747	370.9527	420.7139	519.4015	593.1189	622.3817	769.1295	837.8043	903.8858	923.0646	934.9067	1005.6226	1020.6936	1034.8576	1063.9571	1083.0195	1157.6817	1201.8609	1256.794	1257.6716	1282.6121	1307.8215	1344.4954	1408.9428	1424.7639	1438.9653	1444.0078	1475.7702	1493.7321	1501.4759	1713.983	1788.7157	2946.6767	3019.3152	3039.3054	3068.8318	3069.7089	3106.2271	3114.0759	3251.6657	3789.793
CC1=CN(CC1O)C=O	CC1=CN(C[C@H]1O)C=O	
InChI=1S/C6H9NO2/c1-5-2-7(4-8)3-6(5)9/h2,4,6,9H,3H2,1H3	InChI=1S/C6H9NO2/c1-5-2-7(4-8)3-6(5)9/h2,4,6,9H,3H2,1H3/t6-/m1/s1
