18
gdb 69789	2.59712	1.8648	1.30646	2.2557	75.35	-0.2407	-0.0297	0.2109	998.5706	0.14807	-401.927246	-401.919513	-401.918569	-401.959187	30.428	
C	 0.1082488155	 1.5644697554	-0.0171905184	-0.475231
C	 0.0503219853	 0.0580667601	 0.0467947044	 0.216796
C	-0.9119059481	-0.6540984591	 0.9870211015	-0.344022
C	 0.5712317039	-0.820685863	 1.1613927839	-0.049137
N	 1.2961437484	-1.9912060901	 0.6198851787	-0.103035
C	 0.4921960093	-3.0216039064	-0.0329881721	-0.252268
C	 1.1487119577	-1.9543135155	-0.8451230467	-0.12938
C	 0.400704085	-0.6925365511	-1.2252050734	 0.345619
O	 0.2625862959	-0.2698786725	-2.3458540983	-0.323554
H	 1.1047083777	 1.9128297408	-0.3073085763	 0.128604
H	-0.6022721562	 1.93920025	-0.7601336602	 0.141271
H	-0.1401829968	 2.0069386474	 0.9518845336	 0.115348
H	-1.4086335935	-0.012199478	 1.7082741416	 0.123228
H	-1.5404315487	-1.4581747161	 0.6260905575	 0.125328
H	 1.0425403153	-0.4037638822	 2.0441405096	 0.107177
H	 0.9408742854	-4.0112355736	-0.0318066839	 0.129601
H	-0.5861678098	-3.0263212691	 0.0743533098	 0.125605
H	 2.0128486637	-2.1942025169	-1.4582723512	 0.118052
126.8855	161.8024	188.5188	256.9255	278.8306	404.2117	450.9225	488.5808	588.769	612.0094	650.2215	744.4926	773.6855	822.9856	841.0048	864.0576	917.6904	945.2641	978.4345	1028.3922	1045.3608	1055.7208	1079.4999	1101.5879	1107.7534	1122.8709	1147.8341	1156.9302	1256.5235	1274.8182	1295.3288	1345.9695	1381.407	1413.9509	1479.9978	1483.2483	1497.1483	1522.3706	1828.6958	3037.7118	3105.2183	3114.2101	3122.6732	3136.9764	3152.918	3173.8749	3208.2579	3222.8318
CC12CC1N1CC1C2=O	C[C@]12C[C@H]1N1C[C@H]1C2=O	
InChI=1S/C7H9NO/c1-7-2-5(7)8-3-4(8)6(7)9/h4-5H,2-3H2,1H3	InChI=1S/C7H9NO/c1-7-2-5(7)8-3-4(8)6(7)9/h4-5H,2-3H2,1H3/t4-,5+,7-,8?/m0/s1
