16
gdb 22434	2.11358	1.32451	0.93098	0.3869	81.55	-0.2457	-0.037	0.2087	1269.3304	0.119722	-400.636275	-400.626287	-400.625342	-400.671375	36.283	
C	-1.0921316386	 1.5203351994	-0.8569755776	-0.387399
C	-0.0673470731	 0.4880377383	-0.3533436073	-0.227233
C	-0.7028607366	-0.5223683649	 0.4959633942	 0.346273
C	-1.2476170019	-1.3414515213	 1.185828564	-0.490304
C	 0.7146174337	-0.19070814	-1.4803317114	 0.158829
N	 0.3533745262	 0.0578017938	-2.6866435469	-0.162645
O	 1.1317619405	-0.5996032111	-3.6262864099	-0.381971
C	 1.8010830624	-1.0371821703	-1.119854972	 0.362513
C	 2.7218417707	-1.7275144739	-0.7677216739	-0.448302
H	-0.5974713217	 2.2881404463	-1.4556892077	 0.125821
H	-1.8526011001	 1.0416927423	-1.4760497753	 0.140786
H	-1.5810930873	 1.9912544695	-0.0009830628	 0.12097
H	 0.6785578286	 1.0131006798	 0.2605352769	 0.125039
H	-1.7199714537	-2.0686048586	 1.7987161196	 0.199478
H	 0.7384898563	-0.3120730428	-4.4581103351	 0.311341
H	 3.5323630847	-2.3459787365	-0.4694334948	 0.206803
38.6869	106.7883	144.6447	190.4805	223.208	239.24	272.9079	303.671	362.0446	436.0338	460.5956	466.2667	550.8014	614.5536	628.7817	641.2669	647.6078	649.6956	735.4543	781.0633	871.5623	1003.5079	1039.8798	1081.3132	1130.7399	1210.2602	1312.6095	1320.0901	1399.4136	1409.8419	1485.9881	1493.939	1682.6784	2222.9216	2237.5889	3004.9697	3058.683	3135.1767	3146.0381	3499.7475	3504.4246	3806.5517
CC(C#C)C(=NO)C#C	C[C@@H](C#C)C(=NO)C#C	
InChI=1S/C7H7NO/c1-4-6(3)7(5-2)8-9/h1-2,6,9H,3H3	InChI=1S/C7H7NO/c1-4-6(3)7(5-2)8-9/h1-2,6,9H,3H3/t6-/m0/s1
