21
gdb 113457	4.13466	0.94046	0.92689	2.0007	83.92	-0.2272	0.0758	0.303	1389.8986	0.183078	-383.197746	-383.18904	-383.188096	-383.231327	33.613	
C	-0.3178949873	 1.4867860751	 0.195577974	-0.374717
C	 0.3257076318	 0.137291617	-0.1410640075	-0.180068
C	 1.0039998527	-0.4938859125	 1.0528801706	-0.07731
N	 0.1137076652	-1.1845606553	 2.0231083496	-0.399212
C	 1.0896306258	-1.9526648464	 1.252088503	 0.391773
C	 0.6728485394	-3.1534754121	 0.3646047053	-0.300357
C	 1.8396445061	-3.9358830035	 0.9899082364	-0.040534
N	 3.0721355724	-3.1726752831	 0.6742152595	-0.332977
C	 2.2265768321	-2.7720643759	 1.8345114769	-0.169723
H	 0.4297311756	 2.2066606041	 0.5478266141	 0.108176
H	-0.8111880694	 1.9215995978	-0.6791490682	 0.109236
H	-1.0666532312	 1.3669519326	 0.9846624877	 0.128238
H	-0.4375859218	-0.553238112	-0.5160302098	 0.102674
H	 1.0647070803	 0.2600770332	-0.9432389285	 0.099918
H	 1.8222636022	 0.0917468009	 1.4738666702	 0.076417
H	 0.4466049072	-1.0441959455	 2.9747795816	 0.224493
H	-0.3096957295	-3.5318785012	 0.6550055472	 0.114686
H	 0.725198176	-3.0211136807	-0.7187336297	 0.108146
H	 1.8818759066	-4.9951177947	 1.2097080659	 0.094936
H	 3.855324291	-3.7048874441	 1.0557599159	 0.226451
H	 2.634702915	-2.7292558638	 2.8382723158	 0.08975
69.6286	113.6434	142.9742	192.0975	249.6864	317.7101	371.1305	446.0951	453.2023	499.0141	620.1093	755.7446	775.6963	814.9455	833.189	837.7993	884.5462	906.8659	930.3162	957.3564	967.0434	992.899	1024.8931	1054.1403	1065.4155	1091.4537	1107.811	1116.1101	1124.8959	1167.1192	1212.2239	1225.8774	1243.0763	1298.2404	1307.5503	1321.9834	1330.3868	1354.8046	1388.7787	1405.4742	1466.0963	1477.0828	1495.3972	1500.0637	1509.7707	3028.246	3031.4845	3065.7856	3068.6495	3095.6949	3102.8987	3111.4858	3127.5432	3173.0707	3196.4837	3457.5851	3482.8181
CCC1NC11CC2NC12	CC[C@H]1N[C@]21C[C@H]1N[C@@H]21	
InChI=1S/C7H12N2/c1-2-5-7(9-5)3-4-6(7)8-4/h4-6,8-9H,2-3H2,1H3	InChI=1S/C7H12N2/c1-2-5-7(9-5)3-4-6(7)8-4/h4-6,8-9H,2-3H2,1H3/t4-,5-,6-,7+/m1/s1
