20
gdb 59754	2.56505	1.40054	0.95244	1.8063	75.94	-0.2196	-0.0287	0.1909	1246.6943	0.170098	-440.280429	-440.271335	-440.270391	-440.314361	33.764	
C	 0.957921856	-0.5320790934	-1.0241177781	-0.317562
N	 0.0666688525	 0.0482246213	-0.0256010572	-0.076255
C	 0.1003775723	 1.5082491885	-0.1071614191	-0.336075
C	-1.2805149818	-0.4843301457	-0.1247675241	-0.067803
C	-1.3773133507	-2.0210599326	-0.1101446436	-0.122688
O	-2.7080398503	-2.3088842255	 0.3086418598	-0.24918
C	-3.0332553687	-1.3958244082	 1.3362138688	-0.175747
C	-2.198289639	-0.1427975123	 1.0696917042	 0.362095
O	-2.2585212887	 0.8804107194	 1.698288951	-0.300754
H	 1.9602620045	-0.1148690443	-0.8904988532	 0.124019
H	 1.0319971624	-1.6156625846	-0.9009463672	 0.123055
H	 0.6403725769	-0.3219038202	-2.06376845	 0.093102
H	-0.2254151306	 1.8808432879	-1.097706121	 0.086797
H	-0.5437478876	 1.9403564873	 0.6566978342	 0.160597
H	 1.1262821728	 1.849925926	 0.0595634937	 0.115235
H	-1.8152451418	-0.1231845268	-1.031666355	 0.084271
H	-1.2370206611	-2.4885473138	-1.0855376865	 0.122851
H	-0.6378104978	-2.4309287212	 0.596730171	 0.10772
H	-4.1063372211	-1.1844064111	 1.3196445616	 0.140902
H	-2.7736500882	-1.7817143206	 2.3364775207	 0.125421
70.28	96.897	198.4331	216.2768	251.3423	265.6414	295.0533	342.0704	383.4878	429.1075	497.4627	574.8366	582.2069	663.5187	740.446	898.675	943.3249	968.2486	1017.2874	1063.7194	1077.2857	1084.1152	1102.2196	1125.5892	1155.1251	1186.7802	1211.5119	1230.917	1266.7019	1301.6572	1308.4664	1311.1399	1340.5566	1394.3838	1441.933	1475.0093	1476.336	1487.5312	1494.2871	1504.5833	1517.1909	1519.0052	1855.8338	2853.826	2919.0558	2928.4522	2972.0221	2982.4231	3072.4886	3078.4146	3089.1334	3114.0875	3121.2792	3166.8464
CN(C)C1COCC1=O	CN(C)[C@H]1COCC1=O	
InChI=1S/C6H11NO2/c1-7(2)5-3-9-4-6(5)8/h5H,3-4H2,1-2H3	InChI=1S/C6H11NO2/c1-7(2)5-3-9-4-6(5)8/h5H,3-4H2,1-2H3/t5-/m0/s1
