23
gdb 94717	3.16266	1.22977	1.05512	1.1869	85.33	-0.2204	0.0809	0.3013	1266.7503	0.206242	-388.293024	-388.284028	-388.283084	-388.326091	35.792	
C	 0.0151948355	 1.5564473052	-0.0007673734	-0.404217
C	 0.0039609224	 0.0267145511	 0.0142392299	 0.02268
C	 0.6495997696	-0.5502839408	-1.2467075599	-0.08434
O	 0.5046894062	-1.9579034805	-1.3328134068	-0.299176
C	 0.8901099132	-2.7063886503	-0.2062258999	 0.441034
C	 0.3173542333	-4.095686263	-0.3287733832	-0.44314
C	 2.2478693735	-2.5094918807	 0.4148018817	-0.353673
C	 0.9931576813	-2.0358344451	 1.1434808005	-0.102869
C	 0.7072551633	-0.5401352154	 1.2614522408	-0.23151
H	 1.0401017446	 1.9425622782	-0.0555924932	 0.114227
H	-0.5383625304	 1.9548834574	-0.8577100876	 0.112701
H	-0.4400039779	 1.9615419689	 0.9090498822	 0.114986
H	-1.0375442194	-0.3222809816	 0.0175307171	 0.079004
H	 0.1672174452	-0.1565673424	-2.1469822984	 0.103851
H	 1.7129560017	-0.2576850484	-1.2934160496	 0.084619
H	 0.6744067552	-4.5756280941	-1.2459461545	 0.123264
H	 0.6144359012	-4.7141096537	 0.5223786355	 0.111266
H	-0.776065762	-4.0586611651	-0.3694780595	 0.119139
H	 2.7743861867	-3.381091296	 0.7892974433	 0.105318
H	 2.8974260737	-1.7412831445	 0.0075627615	 0.109257
H	 0.6852866481	-2.6358550634	 1.9946940419	 0.08271
H	 1.6424521179	 0.0112194399	 1.4284065487	 0.09604
H	 0.0845356669	-0.3525363859	 2.1427014129	 0.09883
88.6931	190.4004	217.9429	227.4135	247.6645	272.8704	340.7041	366.153	412.0175	421.8324	469.8247	520.3727	636.8939	703.9619	784.3192	847.7028	851.8941	883.9293	907.2176	923.9204	945.9003	973.5162	1010.9265	1036.8373	1075.4938	1106.7215	1119.1469	1124.1832	1135.5115	1162.9043	1181.4312	1240.0084	1259.9777	1287.4489	1309.104	1316.9038	1355.3901	1379.4142	1399.8115	1409.0092	1420.1295	1426.851	1477.7947	1480.0104	1488.1108	1497.7187	1500.4229	1507.4237	1512.8348	2958.453	3008.422	3019.165	3026.011	3035.8635	3063.3001	3072.7933	3091.622	3097.7901	3101.3499	3118.2176	3126.3894	3143.0039	3210.6649
CC1COC2(C)CC2C1	C[C@H]1CO[C@@]2(C)C[C@H]2C1	
InChI=1S/C8H14O/c1-6-3-7-4-8(7,2)9-5-6/h6-7H,3-5H2,1-2H3	InChI=1S/C8H14O/c1-6-3-7-4-8(7,2)9-5-6/h6-7H,3-5H2,1-2H3/t6-,7-,8+/m1/s1
