15
gdb 125767	3.22829	1.39278	0.97936	4.068	73.53	-0.2335	-0.0447	0.1888	1142.6088	0.111924	-453.958836	-453.950552	-453.949608	-453.991505	31.104	
C	-0.0477178785	 1.4755184456	 0.0278452648	-0.455475
C	-0.0026968328	-0.0208216087	-0.001435162	 0.241261
N	-0.0223261658	-0.5734288079	-1.1622642623	-0.134627
O	 0.0196971264	-1.9812338636	-1.2034045327	-0.274462
C	 0.0911432456	-2.7098729617	-0.0775353126	 0.486848
N	 0.1857282198	-4.0390878556	-0.3731189154	-0.559674
C	 0.1071775034	-2.1642764211	 1.1720031872	-0.369716
C	 0.0591302451	-0.7430907058	 1.3127042302	 0.34284
O	 0.063384477	-0.108093292	 2.3604969433	-0.379606
H	 0.8350798993	 1.8587775471	 0.5483929439	 0.154024
H	-0.0945446521	 1.8824017501	-0.9827608211	 0.137796
H	-0.9143730329	 1.8049535783	 0.6087250753	 0.153709
H	-0.1043751773	-4.3113976774	-1.2997559061	 0.274037
H	-0.0370747029	-4.6882830135	 0.3636053883	 0.273842
H	 0.1631453757	-2.7953715339	 2.0497392992	 0.109202
102.1855	152.8593	166.3261	284.4055	330.5817	338.6913	360.2109	427.6828	436.3947	462.3346	529.3846	566.7051	695.7253	699.4893	760.2777	777.8123	839.9757	891.4521	996.8767	1039.483	1051.7709	1097.7503	1190.1172	1279.2165	1353.6242	1406.5548	1443.5233	1460.8772	1464.5369	1616.6699	1647.6475	1679.8579	1743.5317	3052.0474	3111.9726	3155.2211	3211.5026	3592.9414	3710.7481
CC1=NOC(N)=CC1=O	Cc1noc(N)cc1=O	
InChI=1S/C5H6N2O2/c1-3-4(8)2-5(6)9-7-3/h2H,6H2,1H3	InChI=1S/C5H6N2O2/c1-3-4(8)2-5(6)9-7-3/h2H,6H2,1H3
