21
gdb 65091	3.08544	1.28543	1.14517	1.8595	81.76	-0.2257	0.0821	0.3077	1168.7768	0.181995	-387.032084	-387.023519	-387.022574	-387.065402	33.708	
C	 0.0371815945	 1.4990382551	 0.3127575684	-0.464247
C	 0.0251475514	 0.0108462129	-0.0004248271	 0.222505
C	 1.083346393	-0.4968351343	-0.9539977466	-0.306498
C	 1.1897017679	-0.815430377	 0.5146173189	-0.291638
C	-1.3275214175	-0.6243312168	 0.0155358962	 0.236837
C	-1.8461479616	-1.6765250577	-0.9507424432	-0.353776
C	-2.5984336309	-0.3931131985	-0.7810227311	 0.047687
O	-3.440753738	-0.4490655011	 0.3695477678	-0.288632
C	-2.2759644057	-0.6177931972	 1.2225590666	-0.13172
H	 1.0581498641	 1.8929740665	 0.3038542629	 0.112427
H	-0.5478708993	 2.0604687774	-0.42401868	 0.118388
H	-0.3857639368	 1.7078928002	 1.3014325863	 0.117987
H	 0.8397563246	-1.3078765337	-1.6298823477	 0.111655
H	 1.766951287	 0.2353411843	-1.3706542481	 0.110746
H	 1.9510058111	-0.3122485395	 1.1012459532	 0.10905
H	 0.989466014	-1.8361192316	 0.8219505406	 0.112452
H	-1.2866416419	-1.764784299	-1.8762564682	 0.114593
H	-2.285164871	-2.6021328678	-0.5860423474	 0.110401
H	-2.8629595127	 0.2950868662	-1.5759451714	 0.103754
H	-2.3284941974	-1.5305541352	 1.8285887398	 0.101485
H	-2.1555871648	 0.2518909466	 1.8777256503	 0.106544
43.7298	152.2552	216.7496	225.7097	294.7215	317.4316	336.9823	424.8165	455.2525	477.7815	552.9704	759.3173	785.7846	806.2934	852.054	864.6902	902.3373	928.5807	947.1235	951.922	985.3814	999.2817	1016.921	1040.1333	1060.484	1068.7424	1082.9247	1085.5107	1106.9522	1120.9881	1154.4226	1187.4824	1198.575	1228.3078	1285.9766	1309.9613	1347.1347	1416.3676	1424.1877	1463.4973	1481.7661	1490.892	1497.2566	1508.185	1517.0623	3020.9728	3028.5406	3071.8418	3091.1282	3102.2757	3110.626	3129.2698	3136.5945	3176.8706	3207.6441	3210.7192	3225.3004
CC1(CC1)C12CC1OC2	CC1(CC1)[C@]12C[C@H]1OC2	
InChI=1S/C8H12O/c1-7(2-3-7)8-4-6(8)9-5-8/h6H,2-5H2,1H3	InChI=1S/C8H12O/c1-7(2-3-7)8-4-6(8)9-5-8/h6H,2-5H2,1H3/t6-,8+/m1/s1
