17
gdb 57752	2.93814	0.78004	0.63203	2.8582	82.21	-0.2566	-0.1015	0.1551	1738.954	0.131925	-421.821461	-421.811069	-421.810125	-421.859956	34.89	
C	-0.2305970969	 1.6197547777	 0.369363911	-0.379446
C	-0.1413769626	 0.096508544	 0.1403064285	-0.144111
C	 0.7484922735	-0.5937397999	 1.1937583281	-0.379339
C	-1.4707085143	-0.5022529323	 0.0934097379	 0.141711
C	-2.5745026234	-0.9936286766	 0.0628352067	 0.031125
C	-3.8900034989	-1.5610312633	 0.0138947916	 0.111861
O	-4.1910013012	-2.6671019643	 0.4158245436	-0.261344
C	-4.9983312493	-0.6881537412	-0.5979338652	 0.082567
O	-4.831472379	 0.4200614083	-1.026656718	-0.21672
H	 0.770864227	 2.0590130024	 0.3390021946	 0.121293
H	-0.8461216948	 2.0981242451	-0.3960264485	 0.138648
H	-0.6713599804	 1.8367903691	 1.3467793613	 0.131819
H	 0.3101914834	-0.0701642258	-0.8484322493	 0.125261
H	 0.337359235	-0.4523385516	 2.1976080633	 0.132203
H	 0.8244061344	-1.6672576504	 1.004724786	 0.133795
H	 1.7542268676	-0.163818806	 1.1708659919	 0.121425
H	-5.9779213001	-1.2114278152	-0.5939508033	 0.109252
6.4471	56.5433	99.2181	121.8214	149.5497	221.4447	233.521	259.378	303.3842	345.9432	461.4141	527.1063	540.2289	602.9753	631.7336	706.3201	841.6194	932.4292	966.0964	974.3948	1028.7356	1112.5115	1120.1775	1183.8834	1253.2782	1306.5096	1342.474	1363.5388	1398.3211	1420.4007	1485.3729	1489.0552	1499.1128	1509.5309	1747.7685	1832.9027	2324.4851	2925.5092	3005.3936	3042.2978	3045.2559	3115.061	3119.6672	3126.3308	3129.0556
CC(C)C#CC(=O)C=O	CC(C)C#CC(=O)C=O	
InChI=1S/C7H8O2/c1-6(2)3-4-7(9)5-8/h5-6H,1-2H3	InChI=1S/C7H8O2/c1-6(2)3-4-7(9)5-8/h5-6H,1-2H3
