14
gdb 131112	3.37143	1.20295	0.91641	5.0325	66.93	-0.2618	-0.0093	0.2525	1177.0143	0.102796	-432.885644	-432.877702	-432.876758	-432.919603	28.408	
O	-0.8845427353	 0.7416365847	 0.0402333817	-0.399958
C	 0.0488985645	-0.311971992	-0.1428127519	-0.145802
C	 1.0045930692	 0.0032149748	-1.2305394747	 0.281475
N	 1.7482583464	 0.2676186353	-2.0739665829	-0.32651
C	 0.7806053469	-0.674966335	 1.1213293857	 0.169504
C	 0.2060098307	-0.8347029337	 2.3698098058	-0.123094
N	 1.2154961328	-1.1592316977	 3.2071867061	-0.173618
N	 2.4157147439	-1.2248765344	 2.6009629493	-0.223618
C	 2.1557947026	-0.9303560422	 1.3316393068	-0.080419
H	-0.4089122441	 1.4853005521	 0.430225614	 0.293048
H	-0.5607207191	-1.1550450941	-0.4903655328	 0.15142
H	-0.813932338	-0.7346578019	 2.7046268107	 0.153649
H	 1.160273139	-1.3365150487	 4.1963665404	 0.28266
H	 2.9539604404	-0.9064100072	 0.6046527017	 0.141262
21.8354	119.4172	169.6732	216.7222	304.8051	365.8266	427.0827	486.613	554.5344	595.8887	646.9098	698.1122	771.5395	820.8851	905.0176	923.4133	954.2029	1016.948	1052.6364	1071.2314	1169.4474	1242.3352	1257.8475	1280.7152	1347.2531	1382.0189	1417.0923	1422.1149	1496.6421	1598.3345	2359.5248	3041.0581	3254.6786	3269.6541	3669.7872	3790.2561
OC(C#N)C1=CNN=C1	O[C@@H](C#N)c1c[nH]nc1	
InChI=1S/C5H5N3O/c6-1-5(9)4-2-7-8-3-4/h2-3,5,9H,(H,7,8)	InChI=1S/C5H5N3O/c6-1-5(9)4-2-7-8-3-4/h2-3,5,9H,(H,7,8)/t5-/m0/s1
