20
gdb 7450	2.61376	1.59139	1.39627	3.441	71.13	-0.2493	-0.0249	0.2244	1041.4919	0.174176	-386.172405	-386.162618	-386.161674	-386.206727	35.434	
C	-0.1087879316	 1.5874091265	-0.0186254524	-0.415426
C	-0.021792788	 0.0566918243	-0.0108626523	 0.145414
O	 0.4811614628	-0.4451221319	-1.2362147469	-0.442078
C	 0.7746396089	-0.4926977073	 1.2000518612	-0.100346
C	 0.7241756468	-2.0349243116	 1.2389470268	-0.401191
C	 2.2377812321	-0.0533647765	 1.1736456659	 0.402524
C	 2.910989011	 0.1869768918	 2.5088682719	-0.477949
O	 2.8482811919	 0.0848374607	 0.1300460103	-0.329376
H	 0.8847638868	 2.0402649591	-0.0994327864	 0.122823
H	-0.6976221706	 1.9153531385	-0.8790979187	 0.126704
H	-0.588165971	 1.9650730292	 0.891723481	 0.103256
H	-1.0406685415	-0.3446462595	 0.071906405	 0.078704
H	 1.4265320103	-0.2316833925	-1.2355883643	 0.291012
H	 0.3200054078	-0.1064882288	 2.121313172	 0.077027
H	 1.3221047429	-2.4466515037	 2.0579047618	 0.111878
H	-0.3085540166	-2.3695160998	 1.3757925778	 0.12324
H	 1.0908046199	-2.4397550749	 0.2934908108	 0.149129
H	 2.7131701637	-0.6367634122	 3.2024988171	 0.141949
H	 3.9851723284	 0.3175649517	 2.3729516064	 0.144602
H	 2.4900993961	 1.0913095969	 2.9650750731	 0.148104
57.4188	117.1488	148.5657	194.8524	203.9521	236.3867	248.864	267.4994	328.091	371.9709	487.9466	491.1604	585.2445	619.3765	666.2781	754.5653	835.3712	923.4193	959.3226	985.1918	1001.1574	1031.5411	1059.3646	1105.396	1133.1725	1166.2241	1188.6775	1290.6041	1305.2369	1366.6926	1375.4802	1390.1172	1402.1264	1405.9567	1456.9606	1461.2611	1473.9717	1490.6078	1495.7702	1502.6099	1504.1046	1779.8284	3016.0332	3026.6566	3033.7259	3036.7577	3042.8203	3097.8553	3102.0964	3106.8065	3120.6115	3139.1921	3153.2069	3709.2884
CC(O)C(C)C(C)=O	C[C@@H](O)[C@@H](C)C(=O)C	
InChI=1S/C6H12O2/c1-4(5(2)7)6(3)8/h4-5,7H,1-3H3	InChI=1S/C6H12O2/c1-4(5(2)7)6(3)8/h4-5,7H,1-3H3/t4-,5-/m1/s1
