15
gdb 127254	3.02437	1.3095	0.92008	6.5288	77.82	-0.2172	-0.0207	0.1965	1207.0073	0.114167	-413.021309	-413.012691	-413.011747	-413.055319	30.684	
C	-0.0080939023	 1.4456963719	 0.0354541345	-0.32816
N	-0.0044972811	-0.0021574584	-0.03355972	 0.057241
C	 0.0001897043	-0.7705769108	-1.1641528791	-0.107521
C	 0.0027468208	-2.0894404059	-0.7490492817	 0.119064
N	-0.0610828626	-3.2515840169	-1.5074240292	-0.618069
C	-0.0005268928	-1.9960624075	 0.669725092	 0.217844
N	-0.0073274574	-0.7162653458	 1.0847380161	-0.323258
C	 0.0143635973	-3.0900866392	 1.5696576779	 0.224345
N	 0.0364607437	-4.0370258202	 2.2374967562	-0.359756
H	 0.8829818364	 1.8558821834	-0.4489905138	 0.146631
H	-0.8998349822	 1.851753877	-0.4510975142	 0.148239
H	-0.0100969637	 1.7197439681	 1.0893438245	 0.172476
H	-0.0039385065	-0.3315624541	-2.1483951183	 0.133566
H	 0.4093575636	-3.198906315	-2.3995482037	 0.252774
H	 0.2227819525	-4.0786882666	-0.9993673213	 0.264584
38.8721	129.8131	147.3747	191.8344	233.1871	284.997	344.0727	416.8345	528.8207	547.0083	604.5139	623.9094	635.8516	671.0298	712.2178	765.3577	833.1152	1031.6741	1079.9666	1106.1662	1149.7434	1213.8008	1241.3499	1354.5112	1400.6749	1439.8408	1469.0727	1484.2516	1496.5625	1520.6035	1618.5163	1661.1791	2339.217	3046.2512	3108.5919	3173.3261	3267.3046	3553.5834	3648.7368
CN1C=C(N)C(=N1)C#N	Cn1cc(N)c(n1)C#N	
InChI=1S/C5H6N4/c1-9-3-4(7)5(2-6)8-9/h3H,7H2,1H3	InChI=1S/C5H6N4/c1-9-3-4(7)5(2-6)8-9/h3H,7H2,1H3
