23
gdb 104782	2.3307	1.40788	1.14321	1.001	85.25	-0.2449	0.0872	0.3321	1225.5756	0.204618	-388.253916	-388.244338	-388.243394	-388.287897	36.755	
C	 0.5234119574	 1.2122408166	 0.2967898928	-0.381671
C	 0.1071530735	-0.2324665225	-0.000244138	-0.248384
C	 0.5771601524	-0.7262945207	-1.3701550226	 0.437469
C	 2.1132636233	-0.9132173492	-1.6034873029	-0.288632
C	 1.8671336192	-2.3738219402	-2.0006326401	-0.03611
C	 1.2304576741	-3.1137469156	-0.8617937602	-0.29321
C	 0.3746350822	-2.2190803964	-1.7198151125	-0.107449
O	 0.1258719697	 0.1201157192	-2.4262290769	-0.293854
C	-1.2718283747	 0.2076351354	-2.601036614	-0.253375
H	 1.6135693098	 1.3177418256	 0.2943129749	 0.117917
H	 0.1282002157	 1.9001150397	-0.4554713937	 0.127245
H	 0.1605044578	 1.5311682584	 1.2785550906	 0.107295
H	 0.5114696959	-0.8990934425	 0.7687566658	 0.097064
H	-0.98376118	-0.330647914	 0.0681712971	 0.093147
H	 2.4347928464	-0.2789531262	-2.4300414624	 0.118321
H	 2.7694706384	-0.7540291292	-0.7413159739	 0.08713
H	 2.3517836175	-2.8884783748	-2.8208813548	 0.082845
H	 1.0736400743	-4.1766092178	-1.0183105714	 0.110329
H	 1.4677242798	-2.8535198366	 0.1670414322	 0.104109
H	-0.4658667583	-2.6139055566	-2.2774497488	 0.082845
H	-1.7476870458	-0.7788976078	-2.6914556674	 0.104874
H	-1.7674509798	 0.7543038462	-1.7864113802	 0.107147
H	-1.4360063989	 0.7562078789	-3.5322451037	 0.124948
105.0615	114.885	158.3382	185.0522	200.2188	213.2228	282.4719	331.8013	384.2734	428.0793	481.854	503.2287	634.2209	746.7113	779.2672	792.3977	836.3836	886.556	936.2517	937.9759	960.1343	985.6417	1002.2129	1025.4882	1054.7562	1068.8249	1085.6869	1107.6309	1127.7237	1142.4254	1174.188	1180.9231	1202.547	1222.8343	1243.7251	1268.1778	1293.7714	1310.79	1362.653	1367.7246	1408.9097	1468.4791	1474.3531	1483.8109	1494.2973	1496.46	1501.5147	1504.0666	1514.237	2990.1597	3029.1077	3039.2277	3040.8339	3044.9426	3068.8158	3103.1415	3107.6043	3108.1642	3119.035	3130.9961	3178.8193	3184.9337	3198.8219
CCC1(CC2CC12)OC	CC[C@]1(C[C@H]2C[C@@H]12)OC	
InChI=1S/C8H14O/c1-3-8(9-2)5-6-4-7(6)8/h6-7H,3-5H2,1-2H3	InChI=1S/C8H14O/c1-3-8(9-2)5-6-4-7(6)8/h6-7H,3-5H2,1-2H3/t6-,7-,8-/m1/s1
