15
gdb 72319	2.58983	1.74139	1.12067	3.2431	79.43	-0.1821	-0.0521	0.13	1022.0651	0.112181	-453.892695	-453.884725	-453.883781	-453.924558	31.308	
O	-0.0277587941	 1.3745860361	-0.5570712658	-0.431005
C	-0.3002257265	 0.0344766955	-0.5273774329	 0.21943
C	 0.5557049479	-0.9388232705	-1.1844714868	-0.314631
N	 1.2945109096	-1.72472745	-0.0665827262	-0.166386
C	 0.6199362809	-2.5903239517	 0.5306836472	-0.078765
N	-0.7932181878	-2.6898583331	 0.4841825648	-0.24472
C	-1.6429650668	-1.640561426	 0.661558754	-0.104833
C	-1.3627447829	-0.3298778428	 0.2895067589	 0.325696
O	-2.1837072143	 0.6328372048	 0.8174275367	-0.454
H	 0.601693711	 1.5610913462	-1.2607845651	 0.308617
H	-0.0109083151	-1.6759622725	-1.7606292722	 0.134883
H	 1.3071330143	-0.4692881512	-1.8244598084	 0.104031
H	-1.1457483292	-3.5822544572	 0.7978265511	 0.269653
H	-2.5242510249	-1.8112395015	 1.2709847896	 0.126507
H	-1.8962166621	 1.4823172538	 0.4619928051	 0.305525
149.5897	200.5616	272.0175	316.098	327.3387	362.9082	384.6636	390.7108	444.2897	486.6479	549.7619	570.3652	618.8773	684.8026	739.1074	764.6717	783.1119	859.2826	907.028	979.0242	1110.8076	1173.7161	1210.0627	1238.6727	1268.0887	1274.4702	1351.4311	1401.4499	1441.2927	1487.0304	1595.6007	1601.6181	1715.5251	3047.3576	3106.4445	3183.8893	3611.7122	3800.5416	3831.2659
OC12CN=C3NC1C23O	O[C]1C[N][C]NC=C1O	
InChI=1S/C5H6N2O2/c8-4-1-6-3-5(4,9)2(4)7-3/h2,8-9H,1H2,(H,6,7)	InChI=1S/C5H6N2O2/c8-4-1-6-3-7-2-5(4)9/h1,6,8-9H,2H2
