16
gdb 23102	2.03643	1.72928	1.09658	1.229	73.01	-0.2527	-0.0069	0.2458	1105.8137	0.122905	-437.804571	-437.795997	-437.795053	-437.838046	31.819	
O	-0.1030121616	 1.3227982183	-0.1870686233	-0.390247
N	 0.0634359279	-0.0659717976	-0.0659882552	-0.209267
C	-1.0546330976	-0.6523938134	 0.050925501	 0.380013
C	-1.2147854934	-2.1496396094	 0.1684293541	-0.315477
C	-2.7209223148	-2.2740207974	 0.4580831185	-0.090227
O	-3.3171950295	-1.1425673258	-0.1772177041	-0.245607
C	-2.4526996533	-0.0308401799	 0.0445705747	-0.167581
C	-2.7501090897	 0.6583904854	 1.3051005286	 0.370003
C	-3.0149506484	 1.1931500151	 2.3480005738	-0.478408
H	 0.804869536	 1.6339748038	-0.2684212172	 0.31061
H	-0.9599097923	-2.6310850631	-0.7815611413	 0.135217
H	-0.5809526491	-2.5798510004	 0.9469447941	 0.132956
H	-3.1810979021	-3.1679977281	 0.0335856992	 0.118734
H	-2.9159375098	-2.253396275	 1.5398036299	 0.110739
H	-2.5698838153	 0.6622667375	-0.7944330866	 0.136824
H	-3.2473921471	 1.6796991602	 3.2630129337	 0.201719
61.8835	128.3183	150.3331	222.7792	271.1834	288.8313	362.0156	422.0242	496.9013	542.2722	599.9162	629.9465	655.7353	671.4189	687.1929	856.0216	873.2919	939.9939	960.8248	976.919	1000.2897	1065.6199	1084.3663	1198.0608	1213.626	1242.4126	1262.0984	1302.0888	1330.2567	1379.2399	1409.3287	1471.169	1514.793	1767.8375	2233.088	3006.7667	3053.9343	3066.7163	3109.2969	3118.3918	3502.5506	3819.3619
ON=C1CCOC1C#C	ON=C1CCO[C@H]1C#C	
InChI=1S/C6H7NO2/c1-2-6-5(7-8)3-4-9-6/h1,6,8H,3-4H2	InChI=1S/C6H7NO2/c1-2-6-5(7-8)3-4-9-6/h1,6,8H,3-4H2/t6-/m0/s1
