16
gdb 115140	3.08594	1.29559	0.94575	3.8982	67.58	-0.2681	-0.0815	0.1866	1179.8201	0.124852	-475.043349	-475.03518	-475.034236	-475.076704	29.919	
O	-0.072709187	 1.4896457465	-0.2011349342	-0.418418
C	 0.012791675	 0.0870540239	-0.2036553847	-0.071418
C	-1.3563600343	-0.5631803113	 0.0618341114	-0.152334
C	-1.4019245034	-2.0948980097	 0.0369465711	-0.123493
O	-2.3027446898	-2.5098022102	 1.0938604836	-0.240924
C	-2.5215057883	-1.5076972864	 1.9842412787	 0.333967
N	-3.1690479129	-1.5841163785	 3.064154591	-0.49853
C	-1.8706814881	-0.2445625573	 1.4565917531	 0.324553
O	-1.7570806626	 0.7988223926	 2.048943093	-0.303396
H	-0.4628025464	 1.742699178	 0.6473516322	 0.301839
H	 0.3809226417	-0.2114613682	-1.1912315786	 0.116299
H	 0.7355783747	-0.2872983905	 0.541216994	 0.095297
H	-2.0773985039	-0.1440378831	-0.6518679218	 0.135303
H	-1.7860382055	-2.509361061	-0.8961505958	 0.136602
H	-0.4165507636	-2.5328127581	 0.2368465874	 0.128036
H	-3.5200694655	-2.5326723066	 3.2153189296	 0.236615
56.5667	134.779	157.5105	202.363	290.3846	340.7878	384.7633	433.7496	546.585	564.0852	602.0375	670.7942	723.95	784.4615	906.2784	931.0904	954.16	988.8546	1049.7431	1078.8554	1094.1106	1108.784	1158.0716	1203.6221	1227.6797	1270.9961	1301.4436	1322.9374	1389.4827	1407.7435	1456.7929	1512.0188	1521.5684	1757.7099	1837.9688	2961.7534	3033.6906	3040.6151	3067.0822	3118.9986	3465.142	3743.8714
OCC1COC(=N)C1=O	OC[C@H]1CO[C]([NH])C1=O	
InChI=1S/C5H7NO3/c6-5-4(8)3(1-7)2-9-5/h3,6-7H,1-2H2	InChI=1S/C5H7NO3/c6-5-4(8)3(1-7)2-9-5/h3,6-7H,1-2H2/t3-/m0/s1
