17
gdb 87031	2.15015	1.57496	1.07604	0.9867	75.14	-0.2581	-0.042	0.2161	1153.0146	0.132998	-418.006879	-417.997313	-417.996368	-418.041669	33.948	
C	-0.0648340156	 1.4749650202	-0.3502797733	-0.327926
N	 0.1261555088	 0.0345372002	-0.1967746926	-0.09458
C	 1.4706667805	-0.4484019396	-0.0431995133	-0.255518
C	 0.5304187085	-0.4760805993	 1.1402156832	 0.061239
C	 0.7667025496	 0.4651395195	 2.2070301488	 0.227956
N	 0.9248165087	 1.2074732419	 3.0808940827	-0.347214
C	-0.1103032879	-1.8182442617	 1.5022181724	 0.353348
C	-0.6655895269	-1.9735798583	 2.8970590452	-0.507221
O	-0.1456136769	-2.6894732779	 0.6702724971	-0.282841
H	 0.6744900143	 2.0846233317	 0.1881966975	 0.130932
H	 0.0005628629	 1.7024096133	-1.4178334559	 0.141747
H	-1.0642036028	 1.7443542692	 0.0007025119	 0.142601
H	 1.6821019445	-1.4073128312	-0.506404283	 0.155486
H	 2.2866256279	 0.2714202964	 0.0020909683	 0.132612
H	-1.4161637014	-1.2008894231	 3.097606191	 0.157296
H	-1.1086142562	-2.963719284	 3.0028309306	 0.149454
H	 0.1265614921	-1.8363129672	 3.6411490493	 0.162628
41.158	144.8961	150.7782	152.5847	183.9563	205.884	254.7905	350.7106	368.7274	419.2443	507.107	563.5552	573.7833	621.1284	636.1577	761.3274	875.7044	912.2394	965.1493	1035.1558	1050.4733	1095.9196	1128.8695	1146.4739	1192.8121	1212.8919	1261.4615	1339.6879	1387.5864	1449.3603	1456.2626	1469.7065	1481.1618	1490.8074	1497.1001	1821.3076	2340.4886	3004.0626	3041.3647	3093.1038	3098.0134	3101.4424	3126.4053	3161.3173	3207.1254
CN1CC1(C#N)C(C)=O	CN1C[C@]1(C#N)C(=O)C	
InChI=1S/C6H8N2O/c1-5(9)6(3-7)4-8(6)2/h4H2,1-2H3	InChI=1S/C6H8N2O/c1-5(9)6(3-7)4-8(6)2/h4H2,1-2H3/t6-,8?/m1/s1
