19
gdb 88178	2.57467	1.3828	1.18895	2.2822	71.22	-0.2457	0.0741	0.3197	1115.7246	0.159225	-460.13788	-460.129247	-460.128303	-460.171259	33.051	
O	 0.0386469586	 1.3187709249	-0.0658652095	-0.425021
C	 0.0265294029	-0.0744362103	 0.057852014	 0.06093
C	-0.5727360327	-0.709842656	 1.2864990954	-0.396247
C	-1.3162523178	-0.7325204793	-0.0305676429	 0.267027
C	-2.5906711029	 0.09028838	-0.2465933345	-0.156905
O	-3.2653051056	-0.5485660421	-1.3275697266	-0.256665
C	-3.0081626908	-1.9381884297	-1.1676383469	-0.118932
C	-1.5046732313	-2.0103919361	-0.8642521696	 0.038197
O	-0.7207576945	-2.0251971666	-2.0477863859	-0.429181
H	 0.7312561643	 1.6641411919	 0.5066919149	 0.290826
H	 0.8514872167	-0.5889057175	-0.4326958548	 0.103045
H	-0.1401152732	-1.6321188568	 1.662352065	 0.113935
H	-0.9539280909	-0.0379650439	 2.0506773288	 0.112305
H	-3.2236673302	 0.0808121578	 0.6554946579	 0.088568
H	-2.3905194378	 1.1261520578	-0.5260053887	 0.132811
H	-3.5968145647	-2.3549135937	-0.3327523788	 0.087576
H	-3.2753094718	-2.4539549144	-2.0923314565	 0.114904
H	-1.2281022348	-2.9168509432	-0.3197309582	 0.086778
H	-0.9665815234	-1.2428583629	-2.556167483	 0.286048
55.7329	151.0622	186.0658	242.6059	260.142	291.8512	380.6921	385.1952	452.0314	496.0083	517.0408	542.4296	740.3722	814.5482	825.606	869.3324	903.4912	929.5898	953.2278	1002.5546	1028.0053	1036.7713	1074.2357	1085.8963	1112.0886	1118.4811	1164.3026	1200.8351	1235.5143	1254.092	1270.128	1289.4676	1299.531	1324.8828	1356.3301	1395.7668	1427.1734	1432.6097	1486.0672	1498.1794	1521.4607	2962.927	2971.6359	3083.982	3111.7039	3113.7813	3115.1033	3117.9224	3203.4614	3789.5228	3810.3386
OC1CC11COCC1O	O[C@H]1C[C@]21COC[C@H]2O	
InChI=1S/C6H10O3/c7-4-1-6(4)3-9-2-5(6)8/h4-5,7-8H,1-3H2	InChI=1S/C6H10O3/c7-4-1-6(4)3-9-2-5(6)8/h4-5,7-8H,1-3H2/t4-,5+,6+/m0/s1
