21
gdb 68190	3.03449	1.35177	1.31044	2.8225	77.91	-0.2349	0.0739	0.3088	1108.8122	0.181153	-424.215881	-424.207014	-424.20607	-424.248479	35.482	
C	 0.027614693	 1.521571854	 0.1218091403	-0.495683
C	 0.0084346418	 0.0261897347	-0.023621975	 0.420302
C	 0.9093242525	-0.7655823559	-1.0063666477	-0.282329
C	 0.6910997756	-1.8060192807	 0.1106246761	 0.044347
O	 0.6583984762	-0.7096065279	 1.069143029	-0.32421
C	-0.8060495739	-2.1868260848	 0.0018385409	 0.439826
C	-1.15463223	-3.1094676477	-1.1653505795	-0.46277
O	-1.1571988662	-2.8084760138	 1.2300716711	-0.48405
C	-1.3471859383	-0.7181590514	-0.1205065516	-0.325562
H	 1.0529234231	 1.8896595176	 0.2172228356	 0.126251
H	-0.4333226067	 1.9958378103	-0.7508910128	 0.119412
H	-0.5328313616	 1.8270726969	 1.0114544593	 0.129804
H	 0.5614068099	-0.9619993547	-2.0234231056	 0.090324
H	 1.9323996032	-0.3871549838	-1.0045946182	 0.108491
H	 1.394505056	-2.6006760523	 0.3583076011	 0.080273
H	-0.6583632205	-4.0771939058	-1.0423551809	 0.124917
H	-2.2363527591	-3.2892136036	-1.1976923482	 0.108815
H	-0.8669424913	-2.6894739863	-2.1328253794	 0.116398
H	-2.0948107144	-3.0242802918	 1.1955468481	 0.272754
H	-1.9931187514	-0.4722558083	 0.7256009396	 0.103142
H	-1.8800789378	-0.5198176647	-1.0554611922	 0.089547
145.412	192.5132	220.1317	226.5978	239.5219	271.974	339.9589	363.6876	420.0096	451.3246	485.6042	567.5764	582.3301	670.6195	781.0454	805.468	825.794	889.9293	896.4277	933.6859	935.1762	962.7442	990.1634	1019.4836	1045.6051	1069.0496	1100.6819	1161.7924	1185.2061	1202.5474	1215.659	1230.4659	1234.0165	1280.3743	1294.7957	1343.8429	1381.6262	1409.8809	1415.7988	1467.0082	1479.6496	1488.5891	1493.1462	1494.1445	1500.0466	3026.5967	3036.8366	3053.1517	3067.2393	3090.9691	3106.0589	3112.2235	3115.9926	3117.4978	3128.4778	3139.1787	3811.5071
CC12CC(O1)C(C)(O)C2	C[C@@]12C[C@@H](O1)[C@@](C)(O)C2	
InChI=1S/C7H12O2/c1-6-3-5(9-6)7(2,8)4-6/h5,8H,3-4H2,1-2H3	InChI=1S/C7H12O2/c1-6-3-5(9-6)7(2,8)4-6/h5,8H,3-4H2,1-2H3/t5-,6+,7+/m1/s1
