25
gdb 101697	3.22067	0.83096	0.7446	1.3425	89.54	-0.2485	0.0673	0.3159	1677.2955	0.226954	-389.488335	-389.477408	-389.476464	-389.524423	41.077	
C	 0.4327035616	 2.192964597	-0.8079162899	-0.381173
C	 0.2169927583	 0.6842065088	-0.6705950909	-0.181966
C	 0.9215610223	-0.1301396213	-1.7660479634	 0.138146
O	 2.3191440943	 0.1691650312	-1.8042869973	-0.423592
C	 0.6497638399	-1.6367986101	-1.6240304594	-0.298889
C	 1.0910126438	-2.5073841139	-2.794583809	 0.399081
C	 2.5884988119	-2.6668512784	-2.995271308	-0.468794
C	 0.2288156622	-3.7069263097	-3.116544711	-0.316484
C	 0.2156420584	-2.5010011726	-4.0268352711	-0.291589
H	 1.499658161	 2.4294429865	-0.8173765219	 0.126693
H	 0.0033461905	 2.5674041283	-1.7438978723	 0.113208
H	-0.0368263398	 2.7378175228	 0.0166144938	 0.107171
H	 0.5810229269	 0.3413912998	 0.3096081754	 0.083325
H	-0.8554560432	 0.4535282933	-0.6927586697	 0.094228
H	 0.5520957331	 0.2019456842	-2.745054205	 0.0878
H	 2.7052551919	-0.1481106001	-0.9797334636	 0.274662
H	 1.1271758388	-1.9933108867	-0.6972888624	 0.080608
H	-0.4292254733	-1.7681756525	-1.4743943009	 0.091402
H	 3.0566993256	-3.1033836394	-2.103556622	 0.100179
H	 2.7986316081	-3.3365721442	-3.8355797551	 0.103028
H	 3.0688779935	-1.7049610616	-3.1863906404	 0.140593
H	 0.7212159993	-4.6075355072	-3.4686326544	 0.10631
H	-0.6490728863	-3.8940378395	-2.5063621771	 0.103683
H	-0.6720788254	-1.8762189221	-4.0277948305	 0.103613
H	 0.6950217667	-2.5839461425	-4.996445964	 0.108759
48.2379	79.1434	124.6945	145.1915	217.5922	236.9239	265.1712	288.5778	308.8895	322.7125	347.0693	399.9775	424.943	465.8137	555.8816	724.3345	778.8984	787.5545	855.7758	868.3867	894.738	930.7456	953.5624	966.151	985.0362	1028.8274	1045.8214	1055.1624	1078.6714	1082.4742	1104.7838	1123.3475	1143.914	1186.4059	1190.3624	1267.4048	1286.7064	1317.9005	1338.4826	1373.0519	1377.8753	1390.702	1406.1192	1419.3045	1424.3458	1465.6014	1472.227	1482.9119	1492.6888	1495.1728	1506.6682	1509.1671	1515.9458	2983.0316	2998.8875	3021.7462	3031.596	3036.8402	3042.1378	3057.2946	3083.2844	3101.0544	3123.1278	3123.1947	3127.244	3128.8363	3199.8591	3214.4139	3790.9119
CCC(O)CC1(C)CC1	CC[C@@H](O)CC1(C)CC1	
InChI=1S/C8H16O/c1-3-7(9)6-8(2)4-5-8/h7,9H,3-6H2,1-2H3	InChI=1S/C8H16O/c1-3-7(9)6-8(2)4-5-8/h7,9H,3-6H2,1-2H3/t7-/m1/s1
