23
gdb 103981	2.49231	1.31146	1.20066	1.6045	85.36	-0.2428	0.0743	0.3171	1202.5236	0.204395	-388.264959	-388.255139	-388.254194	-388.298715	38.091	
C	-0.1158707261	 1.5476894903	 0.066564244	-0.505678
C	 0.0443492124	 0.0515623221	 0.0121350253	 0.324824
C	-0.7740649533	-0.8539776844	 0.8964308808	-0.340117
C	 0.7249145285	-0.91468561	 0.9891223295	-0.091736
C	 1.2617696843	-1.7576699837	-0.1699918995	-0.273943
C	 0.6185199958	-0.7479968759	-1.1903133605	 0.288359
C	-0.3741974204	-1.3055782726	-2.2093862257	-0.463731
C	 1.7154118175	 0.0466009068	-1.8960286015	-0.134244
O	 2.4371760812	-0.8417181993	-2.7402773662	-0.426925
H	 0.7892589508	 2.0771164386	-0.2506139524	 0.114318
H	-0.9389566084	 1.8860411528	-0.575352994	 0.118382
H	-0.3452209983	 1.8744606085	 1.0863743275	 0.115905
H	-1.2771188787	-0.346395893	 1.7142719205	 0.10372
H	-1.3319129864	-1.6973607103	 0.4961497105	 0.101435
H	 1.2523089191	-0.692721336	 1.909941543	 0.077435
H	 2.349468597	-1.7860025643	-0.2537850858	 0.106971
H	 0.8852828615	-2.7852338946	-0.2135086862	 0.089287
H	-1.1417329376	-1.92119208	-1.7327505334	 0.107496
H	-0.8817401841	-0.4940736573	-2.7451535803	 0.103775
H	 0.146094862	-1.919898568	-2.9493054974	 0.133059
H	 1.2658295282	 0.865507989	-2.4811053428	 0.082547
H	 2.3815625229	 0.5015021514	-1.1457332185	 0.082409
H	 3.1182534223	-0.3377658902	-3.1942174769	 0.286452
120.5195	156.0911	178.5204	194.1216	211.5931	245.1853	261.651	303.2843	348.0558	362.5879	431.2912	450.6041	501.7694	608.0195	693.2529	780.2129	828.9097	863.877	880.045	931.6907	951.5713	975.9207	983.2322	1001.3939	1030.0133	1044.4147	1067.5873	1086.8087	1109.2683	1131.0036	1163.0942	1203.5731	1224.0677	1242.5053	1262.8133	1273.9266	1292.5618	1329.2457	1379.855	1404.3417	1419.9391	1456.5491	1485.2896	1487.2057	1489.7018	1497.8644	1498.6423	1508.972	1523.5254	2959.7335	2992.2069	3018.9925	3029.3613	3044.4322	3076.0465	3091.8215	3095.9833	3104.8254	3113.8385	3119.9728	3170.3361	3190.403	3834.8914
CC12CC1CC2(C)CO	C[C@]12C[C@H]1C[C@]2(C)CO	
InChI=1S/C8H14O/c1-7(5-9)3-6-4-8(6,7)2/h6,9H,3-5H2,1-2H3	InChI=1S/C8H14O/c1-7(5-9)3-6-4-8(6,7)2/h6,9H,3-5H2,1-2H3/t6-,7-,8+/m1/s1
