13
gdb 129448	4.46409	1.11246	0.89054	3.9891	62.33	-0.2367	-0.0452	0.1915	1184.6635	0.091149	-486.146246	-486.138286	-486.137342	-486.17907	28.837	
N	-0.0596239348	 1.3215341119	 0.006714284	-0.536469
C	 0.0263079995	-0.0290967468	 0.0014025917	 0.357015
O	 1.0618649832	-0.6720607763	-0.00916829	-0.376389
C	-1.2834012573	-0.7305596066	 0.0097191946	 0.324676
N	-2.4613326378	-0.177742544	 0.0210571787	-0.280372
N	-3.3232004031	-1.2373731542	 0.0245826364	-0.293906
C	-2.6986639109	-2.4817681835	 0.015363206	 0.473702
O	-3.1895349597	-3.5852496809	 0.0157809884	-0.409795
N	-1.3558041365	-2.0959828063	 0.0058758001	-0.3978
H	 0.7880860325	 1.8626767349	 0.0012119171	 0.272893
H	-0.9558004465	 1.7795168449	 0.01510401	 0.283679
H	-4.3174608966	-1.0875863151	 0.0331120818	 0.287334
H	-0.560802512	-2.7133127681	-0.0025282088	 0.295433
82.0859	134.9459	165.3478	231.8538	277.6508	364.4206	448.6127	450.0858	559.6611	560.9499	582.4097	652.4103	678.1393	753.5444	768.2106	801.6598	994.8094	1004.2417	1093.0139	1099.54	1185.8062	1264.1965	1357.8992	1390.425	1513.5996	1612.3207	1613.2658	1789.9183	1868.2758	3602.9365	3678.4801	3686.4431	3742.5044
NC(=O)C1=NNC(=O)N1	NC(=O)c1n[nH]c(=O)[nH]1	
InChI=1S/C3H4N4O2/c4-1(8)2-5-3(9)7-6-2/h(H2,4,8)(H2,5,6,7,9)	InChI=1S/C3H4N4O2/c4-1(8)2-5-3(9)7-6-2/h(H2,4,8)(H2,5,6,7,9)
