19
gdb 72322	3.10052	1.77135	1.37672	1.0915	80.78	-0.2174	-0.0193	0.1981	981.6692	0.160564	-385.836901	-385.829669	-385.828725	-385.867995	29.797	
C	-0.046568096	 1.5341938034	-0.0271638789	-0.484563
C	-0.0699526663	 0.0251859309	-0.1063416908	 0.284661
C	 0.7528576825	-0.6471350373	-1.2126175273	-0.314983
C	 0.2108836015	-2.0613495101	-1.1865481854	-0.080273
C	-0.89108048	-2.1442147263	-0.4259068136	 0.066941
C	-0.8771408895	-2.9706278618	 0.8353387629	-0.125951
O	-0.1585055536	-2.0183507162	 1.6798775583	-0.277401
C	-0.4954460739	-0.7077824566	 1.2286203494	 0.067463
C	-1.3517028317	-0.7634073972	 0.0227012649	-0.19983
H	 0.9613993258	 1.9040345953	 0.1937730827	 0.120857
H	-0.3624502016	 1.9820446811	-0.977300465	 0.117122
H	-0.7171733109	 1.9103994785	 0.751870856	 0.116699
H	 0.6375257618	-0.1071784426	-2.1649154006	 0.104394
H	 1.8307996449	-0.6720162845	-1.0015390478	 0.113725
H	 0.8324243079	-2.9138383983	-1.4429671837	 0.099245
H	-1.858807763	-3.1831028873	 1.2753506019	 0.100106
H	-0.2843947333	-3.8851149058	 0.7762656697	 0.114416
H	-0.6758461815	-0.0381129889	 2.0639143471	 0.09428
H	-2.3711987331	-0.4073820563	-0.0874046298	 0.083091
197.6466	208.2082	253.1134	287.5389	320.0534	385.441	459.4469	551.8216	644.7812	683.1322	716.1184	773.1189	806.7185	841.2233	864.3892	889.0765	914.082	924.0799	952.59	991.3999	1018.014	1048.3457	1066.9455	1091.2906	1115.565	1136.3856	1175.2105	1191.8741	1198.6172	1237.6011	1294.5825	1306.1707	1320.4054	1342.215	1390.567	1415.7385	1471.7363	1490.3829	1497.1324	1510.7492	1650.1403	2986.5301	3020.5978	3029.6718	3029.7347	3078.404	3096.5267	3120.3642	3147.3586	3159.0136	3177.7747
CC12CC=C3COC1C23	C[C@@]12C[CH][C]3CO[C@@H]1[C@@H]23	
InChI=1S/C8H10O/c1-8-3-2-5-4-9-7(8)6(5)8/h2,6-7H,3-4H2,1H3	InChI=1S/C8H10O/c1-8-3-2-5-4-9-7(8)6(5)8/h2,6-7H,3-4H2,1H3/t6-,7+,8-/m0/s1
