23
gdb 118126	2.07448	1.24094	0.87954	2.7681	82.83	-0.2213	0.0741	0.2955	1426.3309	0.203649	-425.406254	-425.395739	-425.394795	-425.442384	38.738	
C	 0.1270577666	 1.4116149807	-0.2993546457	-0.393244
C	 0.0411314207	-0.0345720407	 0.1596125597	-0.042347
O	-1.2080899282	-0.5658099565	-0.2588760437	-0.275706
C	-1.3845194129	-1.9725311744	-0.0425630256	 0.112553
C	-1.5621509139	-2.296736616	 1.4442271038	-0.398287
C	-2.5821389856	-2.4374064855	-0.8534617748	-0.071263
C	-3.8007503192	-1.5446695709	-1.0441869565	-0.334717
C	-2.9122232379	-1.8816261057	-2.2165647935	 0.128757
O	-2.1200962408	-0.9249636217	-2.8471433173	-0.438625
H	 1.0645172518	 1.8603328342	 0.042377041	 0.120478
H	 0.0922818966	 1.4805908324	-1.3907718526	 0.132032
H	-0.7040321909	 1.9932911524	 0.1092569664	 0.131479
H	 0.862730909	-0.6300353585	-0.269238482	 0.095411
H	 0.1334941928	-0.0884064251	 1.2532848842	 0.100971
H	-0.4847861675	-2.4897690573	-0.417547616	 0.074586
H	-0.6848900199	-2.0170911753	 2.0340155053	 0.114558
H	-2.4351911771	-1.7711104625	 1.8419403823	 0.128864
H	-1.7170490464	-3.3720919804	 1.5755749213	 0.118968
H	-2.7758431059	-3.4975067888	-0.7100322371	 0.084058
H	-4.7909312874	-1.9825577332	-0.9738521238	 0.104204
H	-3.7206532044	-0.5337060217	-0.6592140235	 0.121965
H	-3.3008785884	-2.5816791548	-2.9502787489	 0.097334
H	-1.6728226511	-0.4410770008	-2.1380727429	 0.287969
46.7567	69.6864	93.9829	148.0498	199.365	238.0626	256.5188	280.8818	301.5161	384.9932	426.7743	453.6853	519.697	572.9627	639.7057	747.7786	796.451	821.2994	837.3489	860.1461	943.6343	981.473	996.8574	1030.8771	1053.0888	1072.1867	1104.061	1119.4402	1129.4983	1141.5738	1161.2625	1177.3028	1188.227	1237.3098	1298.3208	1349.4836	1354.7673	1367.8438	1395.5761	1405.8737	1407.4793	1434.1399	1462.8769	1485.9254	1491.4665	1497.486	1498.8826	1500.128	1529.7452	2956.2513	2980.1825	3021.6944	3043.9799	3044.1929	3112.6721	3117.4198	3121.9769	3122.3331	3129.0232	3134.7621	3154.6895	3220.799	3719.2771
CCOC(C)C1CC1O	CCO[C@@H](C)[C@H]1C[C@H]1O	
InChI=1S/C7H14O2/c1-3-9-5(2)6-4-7(6)8/h5-8H,3-4H2,1-2H3	InChI=1S/C7H14O2/c1-3-9-5(2)6-4-7(6)8/h5-8H,3-4H2,1-2H3/t5-,6+,7+/m0/s1
