23
gdb 93027	2.27228	1.77392	1.35457	0.3362	89.31	-0.2284	0.0225	0.2509	1086.8759	0.209002	-351.154708	-351.146689	-351.145745	-351.186723	33.204	
C	-0.2407123533	 1.5231788746	 0.2160356219	-0.393979
C	 0.0360252513	 0.0288695873	-0.0113401866	 0.028418
C	 0.828773698	-0.2046470231	-1.3255845722	-0.273231
C	 2.3370518362	-0.0777850095	-1.3004163099	-0.053604
C	 3.1622074871	-0.4639835141	-0.3251736472	-0.062692
C	 2.7539543077	-1.020866848	 1.0133905709	-0.03941
C	 1.4750588849	-1.9131929453	 0.9826005867	-0.247162
C	 0.6274553892	-0.6360169162	 1.2528917962	-0.003233
C	 1.9201823875	 0.0124852562	 1.8338001158	-0.218691
H	 0.6860999202	 2.1050091404	 0.2379164517	 0.122714
H	-0.8651084861	 1.9289815022	-0.5867180423	 0.107301
H	-0.7635421212	 1.6923916908	 1.1637223436	 0.107921
H	-0.9379734744	-0.4535139655	-0.1728916937	 0.068977
H	 0.5817928293	-1.2038463744	-1.7114424651	 0.110964
H	 0.4330960168	 0.4869398593	-2.0787895228	 0.093424
H	 2.7806201832	 0.3258831632	-2.2083822841	 0.081501
H	 4.2310102309	-0.3310940859	-0.4786049537	 0.079057
H	 3.6213821279	-1.448483099	 1.5221251464	 0.057511
H	 1.278359411	-2.4893569599	 0.0756799008	 0.095855
H	 1.454888075	-2.5937411109	 1.8385802502	 0.09212
H	-0.1827151219	-0.7528344576	 1.9797754569	 0.060096
H	 1.9970957544	-0.1692356947	 2.9102076585	 0.090578
H	 2.1137895661	 1.0686171203	 1.6382232178	 0.095567
98.3183	203.3662	244.2861	296.6838	324.6628	348.5419	375.9558	412.6228	503.6062	558.2588	694.0918	710.7336	785.6775	799.3947	808.8353	859.6565	871.7719	904.709	931.2727	938.3314	980.0391	1001.1944	1017.0198	1031.1113	1075.8646	1077.9863	1090.3585	1121.7679	1150.7538	1169.7594	1200.6766	1245.8847	1256.8525	1261.2598	1273.8021	1278.8675	1315.9118	1354.9063	1363.6414	1379.7146	1391.5507	1408.9294	1423.595	1472.9495	1479.1742	1498.0565	1503.3137	1510.8231	1717.6933	2991.9737	3009.4358	3030.1184	3040.6843	3045.898	3052.7743	3058.583	3072.5061	3095.5134	3102.3775	3110.8873	3116.7107	3132.4483	3157.344
CC1CC=CC2CC1C2	C[C@H]1CC=C[C@@H]2C[C@H]1C2	
InChI=1S/C9H14/c1-7-3-2-4-8-5-9(7)6-8/h2,4,7-9H,3,5-6H2,1H3	InChI=1S/C9H14/c1-7-3-2-4-8-5-9(7)6-8/h2,4,7-9H,3,5-6H2,1H3/t7-,8-,9+/m0/s1
