16
gdb 41465	3.3625	1.76487	1.35635	3.273	69.58	-0.2421	0.0009	0.243	933.9119	0.125969	-437.833063	-437.826371	-437.825427	-437.864088	26.425	
C	 0.142781016	 1.4854382459	 0.3416276382	-0.090516
O	 1.4204886608	 1.5171242548	-0.3401449847	-0.317053
C	 1.2882943081	 0.1553596396	-0.7963472793	 0.320135
C	 2.074634094	-0.2734581953	-2.0232773525	-0.363907
C	 3.1891326308	-1.1826019502	-1.3611659026	-0.163941
N	 2.6505524925	-1.6807636856	-0.0539351424	-0.322526
C	 1.6910175866	-0.897894887	 0.1698456309	 0.431217
O	 0.5599481764	-0.8896805321	 0.9484079148	-0.292393
C	-0.0851081988	 0.023340586	-0.0212993094	-0.061059
H	 0.2257375081	 1.6836484566	 1.4140143533	 0.128923
H	-0.5642767716	 2.183332674	-0.1223198356	 0.116524
H	 1.4667746507	-0.8694284931	-2.7093281862	 0.126616
H	 2.4718493932	 0.5844382737	-2.5698263762	 0.128071
H	 3.4247998973	-2.0488138116	-1.9842235845	 0.119919
H	 4.1207650355	-0.6288705851	-1.2005449834	 0.123815
H	-1.0456378995	-0.3654769103	-0.3510175205	 0.116175
126.3212	227.9454	252.7744	293.0195	389.2011	476.6824	598.8573	657.5382	714.1499	742.3742	773.4374	835.3953	858.206	889.5164	926.5669	964.6766	986.8001	999.5859	1023.5308	1072.7077	1102.7535	1119.6559	1168.8819	1192.308	1221.7372	1229.2441	1268.538	1286.4406	1327.5388	1336.0182	1354.9125	1461.1791	1498.8857	1501.9621	1783.5044	3032.3705	3049.2898	3070.3221	3099.0455	3099.8256	3127.5507	3152.5521
C1OC23CCN=C2OC13	C1O[C@@]23CC[N][C]2O[C@@H]13	
InChI=1S/C6H7NO2/c1-2-7-5-6(1)4(9-5)3-8-6/h4H,1-3H2	InChI=1S/C6H7NO2/c1-2-7-5-6(1)4(9-5)3-8-6/h4H,1-3H2/t4-,6+/m0/s1
