19
gdb 34393	2.6144	1.52722	1.26229	1.0579	81.	-0.2496	0.0436	0.2933	1070.9945	0.160091	-385.852379	-385.844342	-385.843398	-385.885052	31.511	
C	-0.035338613	-1.1919056935	-0.3079814158	-0.418109
C	-0.0167962239	-0.00121757	-0.1345162392	 0.20099
C	-0.0016224075	 1.4278097453	 0.07632453	 0.168493
C	-0.4052246564	 2.3180741683	-1.1498416837	-0.270512
C	 0.9717162361	 3.0307216749	-1.1079284468	-0.215633
C	 1.3967455558	 2.1790417943	 0.1175508934	-0.082497
C	 1.3612722388	 2.900371202	 1.4647225753	-0.095255
O	-0.0202750856	 3.0828681216	 1.7613172823	-0.255412
C	-0.6529626835	 1.8637935334	 1.4087494085	-0.151293
H	-0.0521135321	-2.2420998908	-0.4632195615	 0.188801
H	-0.5961264437	 1.7429590934	-2.0566672028	 0.112599
H	-1.2648267738	 2.9623225272	-0.9502609023	 0.108421
H	 1.5868591647	 2.8672579235	-1.9951017207	 0.105058
H	 0.9263868617	 4.1050042706	-0.9114989482	 0.105534
H	 2.2830237013	 1.5586977806	-0.0155075568	 0.082927
H	 1.8449959132	 2.2888721327	 2.2439911826	 0.092662
H	 1.8326608203	 3.8872390105	 1.450209134	 0.110381
H	-1.726984211	 2.0478977511	 1.3235911787	 0.114993
H	-0.4806920214	 1.0926205149	 2.1754267928	 0.097852
66.5614	146.6836	166.9424	237.6336	341.7037	382.4747	496.1946	502.351	537.2375	604.5108	615.7367	625.0284	697.134	757.9064	818.6314	861.2094	900.1178	926.6615	946.6412	971.6475	1020.001	1034.7978	1071.4284	1104.0806	1138.3565	1143.974	1176.247	1220.8139	1227.1904	1261.141	1274.9325	1280.1082	1289.9052	1328.3155	1357.3089	1394.8484	1472.441	1491.6705	1499.0524	1512.5784	2229.669	2971.8049	2987.1652	3062.625	3071.4588	3088.044	3097.6604	3106.1633	3117.2935	3135.5853	3501.9429
C#CC12CCC1COC2	C#C[C@]12CC[C@H]1COC2	
InChI=1S/C8H10O/c1-2-8-4-3-7(8)5-9-6-8/h1,7H,3-6H2	InChI=1S/C8H10O/c1-2-8-4-3-7(8)5-9-6-8/h1,7H,3-6H2/t7-,8+/m0/s1
