20
gdb 116727	5.73164	0.66234	0.62825	3.5563	81.31	-0.2419	0.0179	0.2598	1802.6608	0.170767	-440.278582	-440.269026	-440.268082	-440.315226	33.028	
C	-0.1166940401	 1.4549212397	 0.0176143531	-0.250028
O	 0.0298355043	 0.0398996072	 0.0104041449	-0.192163
C	-1.1175725384	-0.6635527839	-0.0239983178	 0.12149
N	-1.1005038767	-1.9221229856	-0.031852167	-0.213532
C	-2.3739673523	-2.612763194	-0.0636627607	 0.024261
C	-2.4625893745	-3.6257856572	-1.242001207	-0.234487
C	-2.5485874414	-4.9923952078	-0.5406614322	-0.077517
O	-3.1376039648	-4.7254564989	 0.7243294675	-0.241764
C	-2.5350936729	-3.5288661436	 1.1804302505	-0.093081
H	 0.8921813414	 1.8676375952	 0.0488031439	 0.14806
H	-0.6221047769	 1.8115973605	-0.8881423969	 0.12794
H	-0.6713885699	 1.7972635434	 0.8997210344	 0.128162
H	-2.0317682307	-0.0486120063	-0.04506236	 0.073621
H	-3.2166782261	-1.9059515363	-0.1160229121	 0.059272
H	-3.3597804392	-3.437400317	-1.8371388777	 0.10304
H	-1.591250833	-3.5386345146	-1.8937573277	 0.114042
H	-3.1775293783	-5.7208504175	-1.0584545411	 0.104862
H	-1.5439241072	-5.4267027328	-0.4132845253	 0.094812
H	-1.5363202476	-3.7179982326	 1.6034112574	 0.102007
H	-3.1745626057	-3.1006052979	 1.9566602538	 0.101001
32.878	38.4102	68.2474	147.4093	165.3262	238.7453	274.7674	330.5966	407.851	441.744	575.6678	660.0027	683.5831	832.9866	890.4945	939.0845	964.5819	985.3498	1020.7884	1043.8092	1059.5253	1064.9096	1118.6043	1150.0338	1177.1874	1179.1213	1225.3355	1231.5149	1267.2367	1278.8746	1303.8735	1318.7493	1346.1234	1369.4637	1396.7662	1428.16	1483.2125	1486.1876	1494.908	1500.6409	1504.9834	1521.949	1768.772	2965.8179	2976.6333	2985.454	2990.6539	3015.7207	3067.3128	3077.3705	3093.2231	3096.7896	3124.4349	3146.0512
COC=NC1CCOC1	COC=N[C@H]1CCOC1	
InChI=1S/C6H11NO2/c1-8-5-7-6-2-3-9-4-6/h5-6H,2-4H2,1H3	InChI=1S/C6H11NO2/c1-8-5-7-6-2-3-9-4-6/h5-6H,2-4H2,1H3/t6-/m0/s1
