19
gdb 85168	2.10545	1.73601	1.13633	2.7272	75.07	-0.2427	-0.0221	0.2206	1121.7841	0.157614	-423.012523	-423.003676	-423.002732	-423.04669	32.711	
C	-0.4218472724	 1.4951535042	 0.0483418479	-0.420343
C	 0.1040633212	 0.0692808177	-0.0537659616	 0.015552
C	 1.5203658138	-0.1218752214	-0.6846229001	-0.355985
C	 1.9021930709	-0.9873818894	 0.5158634642	 0.423821
O	 2.8308008402	-1.6968640193	 0.77705337	-0.309432
C	 0.5920312165	-0.6487726824	 1.2644620427	-0.186318
C	 0.782069394	 0.212451877	 2.4871110504	 0.068143
C	 1.9456811065	 0.0668757154	 3.3712902678	-0.185568
O	 1.8613241752	 1.1539407545	 2.4401590164	-0.240257
H	 0.2898739972	 2.1459382149	 0.564859888	 0.145279
H	-0.5975766698	 1.9114426775	-0.949191382	 0.117589
H	-1.3719308139	 1.5338897465	 0.5925152984	 0.115109
H	-0.6301040403	-0.5607104559	-0.564309956	 0.081999
H	 1.5935779649	-0.5941860747	-1.6675776677	 0.125615
H	 2.1096709572	 0.8022850963	-0.6934322996	 0.143185
H	 0.0102526631	-1.5362906399	 1.5388094039	 0.100965
H	-0.1349653965	 0.6186339829	 2.9171280769	 0.098454
H	 1.8585826438	 0.3493080948	 4.4190521836	 0.116829
H	 2.6972764382	-0.6834690988	 3.1375467869	 0.145363
45.4212	95.0395	142.2994	172.7317	252.0897	291.5589	357.3121	402.156	427.9046	509.5777	588.504	653.9038	730.0174	782.0991	827.4686	881.5861	899.9194	919.5293	977.2646	1006.5434	1048.7559	1064.5927	1097.1947	1115.5209	1136.1102	1154.7671	1167.1153	1176.9064	1223.1945	1232.593	1267.8906	1289.7542	1315.1701	1363.906	1413.029	1417.0373	1433.2546	1498.9766	1504.6425	1522.7077	1884.1978	3032.3234	3045.803	3050.5491	3062.311	3091.3763	3094.5766	3098.9842	3110.4433	3115.646	3192.3767
CC1CC(=O)C1C1CO1	C[C@H]1CC(=O)[C@H]1[C@H]1CO1	
InChI=1S/C7H10O2/c1-4-2-5(8)7(4)6-3-9-6/h4,6-7H,2-3H2,1H3	InChI=1S/C7H10O2/c1-4-2-5(8)7(4)6-3-9-6/h4,6-7H,2-3H2,1H3/t4-,6+,7-/m0/s1
