18
gdb 114974	3.11757	1.30493	1.0797	3.7408	71.62	-0.2465	0.0187	0.2652	1130.9135	0.14896	-439.049359	-439.041377	-439.040433	-439.08204	30.211	
O	-0.1232809745	 1.541698929	-0.1651567116	-0.41799
C	 0.0291976585	 0.1471648487	 0.0505070671	-0.089868
C	-1.368290036	-0.4665059193	 0.0696194796	-0.037117
C	-2.0549288166	-0.3733642031	-1.3545656991	-0.170397
N	-1.6625103623	-1.6091243249	-2.1044668268	-0.309972
C	-1.3725608976	-2.4061558123	-1.1732974465	 0.434058
O	-0.6003205999	-3.5303591301	-1.0445639779	-0.27462
C	-0.2522062693	-3.0703163996	 0.323852885	-0.131114
C	-1.3872274028	-1.9983915284	 0.2576722358	-0.172738
H	 0.7428027311	 1.9178074008	-0.3456051795	 0.290692
H	 0.6306678025	-0.314487077	-0.7478508094	 0.101708
H	 0.5352636376	-0.0526194671	 1.0087911332	 0.086084
H	-1.9542605763	 0.0555445534	 0.8308764924	 0.08568
H	-3.1460795467	-0.2975026947	-1.270310419	 0.10509
H	-1.7020877591	 0.5056075496	-1.8978824103	 0.129635
H	-0.3852435881	-3.87491581	 1.0482010784	 0.129082
H	 0.7744045333	-2.6975374763	 0.3328781308	 0.131295
H	-2.2646565538	-2.3357530186	 0.8142465779	 0.110493
96.2814	139.7537	172.068	243.5754	274.1481	295.9764	406.3973	452.961	503.5311	671.233	708.5809	757.8556	790.2388	829.0268	909.141	927.6952	944.5945	978.0534	999.5338	1047.9589	1072.7166	1089.1699	1129.9638	1149.4325	1151.8904	1205.8702	1209.9217	1237.476	1256.928	1288.508	1304.4413	1336.9557	1349.0164	1373.6764	1457.3357	1497.0799	1504.4869	1520.542	1776.58	2965.4033	3000.2864	3031.81	3072.826	3074.8893	3087.9578	3112.8204	3142.9345	3836.5444
OCC1CN=C2OCC12	OC[C@H]1C[N][C]2OC[C@@H]12	
InChI=1S/C6H9NO2/c8-2-4-1-7-6-5(4)3-9-6/h4-5,8H,1-3H2	InChI=1S/C6H9NO2/c8-2-4-1-7-6-5(4)3-9-6/h4-5,8H,1-3H2/t4-,5+/m1/s1
