17
gdb 88925	3.55266	0.85664	0.73328	2.2744	76.19	-0.2573	-0.0522	0.2051	1503.1857	0.132557	-421.781746	-421.772183	-421.771239	-421.817299	34.335	
O	-0.124951422	 1.4776022199	 0.1223583189	-0.41833
C	-0.0022808417	 0.0830853764	 0.0863437367	 0.066008
C	-0.5665111346	-0.7403967454	 1.216223932	-0.312864
C	-1.267093509	-0.6980930092	-0.1271612679	-0.007515
C	-2.5824418363	 0.0256444534	-0.2715229851	-0.324978
C	-3.7809657915	-0.8214702043	 0.1228306261	 0.229304
O	-3.7022256589	-1.9785609116	 0.4730847334	-0.287511
C	-5.0662356999	-0.1407650005	 0.0390698711	 0.244283
C	-6.1180274827	 0.440219095	-0.0340822836	-0.390625
H	 0.4784121601	 1.8106310098	 0.7945506366	 0.28994
H	 0.8981474835	-0.2791848716	-0.4093739202	 0.089098
H	-0.0609109826	-1.651789433	 1.5143957129	 0.116839
H	-1.0324443968	-0.191982358	 2.0288821012	 0.11329
H	-1.1789136879	-1.5929703627	-0.7343107577	 0.101721
H	-2.5925553572	 0.9486509368	 0.3187429068	 0.143741
H	-2.7455521734	 0.3569851309	-1.3074568531	 0.135427
H	-7.0557999792	 0.9371673841	-0.0935980383	 0.212171
39.103	62.048	99.252	182.5087	219.9092	242.5375	301.8194	314.7813	427.4952	486.6485	534.4938	570.9941	616.2522	643.7825	701.9877	773.3064	830.9631	838.0613	891.7858	911.5532	995.4847	1034.9283	1059.2164	1088.8595	1124.4892	1147.9206	1174.3888	1234.1701	1240.0804	1299.4227	1331.466	1402.1098	1424.5166	1450.3455	1491.5413	1770.7371	2210.1595	3018.3263	3075.7857	3099.4483	3131.9836	3165.339	3221.4753	3495.8539	3808.3151
OC1CC1CC(=O)C#C	O[C@H]1C[C@H]1CC(=O)C#C	
InChI=1S/C7H8O2/c1-2-6(8)3-5-4-7(5)9/h1,5,7,9H,3-4H2	InChI=1S/C7H8O2/c1-2-6(8)3-5-4-7(5)9/h1,5,7,9H,3-4H2/t5-,7+/m1/s1
