16
gdb 62537	2.70084	1.31805	1.09779	3.307	70.26	-0.2551	-0.049	0.2061	1121.1412	0.121507	-437.903458	-437.894244	-437.8933	-437.937632	33.187	
C	-0.4215167869	 1.427886646	-0.1120821628	-0.464672
C	 0.0643119871	 0.0031825387	 0.063122258	 0.292095
O	-0.9756955704	-0.9027096811	 0.3857050592	-0.448808
C	 0.9320000332	-0.6392469618	-1.0854598644	-0.214661
C	 1.9764081592	-1.1487827324	-0.0327765613	-0.365973
C	 1.2730699845	-0.2659869342	 1.0068844269	 0.358588
O	 1.5304639106	 0.0957607415	 2.1162625432	-0.28852
C	 0.2945045773	-1.6309387523	-1.9309976017	 0.303618
N	-0.1917317776	-2.4200693678	-2.6210874215	-0.326305
H	 0.3917524982	 2.0949164645	-0.414177074	 0.128157
H	-1.2115865451	 1.4654609916	-0.8678272852	 0.145614
H	-0.8239123043	 1.8046617692	 0.834437593	 0.135702
H	-1.3406909238	-0.6442691921	 1.240385822	 0.297697
H	 1.3603497383	 0.1450862275	-1.7146849687	 0.133182
H	 1.8690237457	-2.2127148761	 0.194187117	 0.166386
H	 3.026814604	-0.9287062513	-0.2305653897	 0.1479
50.1886	130.7522	159.2866	199.3761	208.326	252.9874	307.9336	345.6807	364.6083	464.3054	501.5536	517.9331	605.3652	658.6719	736.9645	754.4077	883.5897	948.6578	963.4128	1038.9554	1064.117	1078.8773	1121.7659	1150.6893	1215.6174	1222.7067	1259.7366	1326.3781	1366.6124	1403.6663	1436.0353	1483.473	1486.2524	1900.8621	2363.4359	3035.6795	3078.0295	3084.1095	3106.7749	3120.0565	3139.4351	3798.0683
CC1(O)C(CC1=O)C#N	C[C@@]1(O)[C@@H](CC1=O)C#N	
InChI=1S/C6H7NO2/c1-6(9)4(3-7)2-5(6)8/h4,9H,2H2,1H3	InChI=1S/C6H7NO2/c1-6(9)4(3-7)2-5(6)8/h4,9H,2H2,1H3/t4-,6+/m0/s1
