18
gdb 71707	2.32629	2.10109	1.76236	1.2136	74.	-0.2208	0.0633	0.2841	892.8929	0.147465	-401.862558	-401.855049	-401.854105	-401.893951	30.293	
C	-0.0660460227	 1.559232993	-0.045587735	-0.534935
C	 0.0246444111	 0.0644855614	-0.0351791472	 0.2979
C	 0.6161336093	-0.9121157114	-1.0917750396	-0.116885
C	-0.409683284	-1.905059534	-0.6997076153	-0.130013
N	 0.9163595828	-1.8953962519	-0.003411805	-0.149345
C	 0.6108613329	-0.8624339268	 1.0805108438	-0.041297
C	-0.7901758123	-1.1731650369	 1.6288631918	-0.316718
C	-1.2161848368	-0.9020522944	 0.160676525	 0.342628
O	-2.4809896787	-0.4946712477	-0.2336649596	-0.47985
H	 0.9252303555	 2.0172825183	-0.1365830903	 0.121105
H	-0.6796543922	 1.907374489	-0.8834655913	 0.133
H	-0.524704846	 1.9317703538	 0.8769629343	 0.124872
H	 1.2298371074	-0.8023057886	-1.9783777251	 0.093791
H	-0.7341101811	-2.8230340653	-1.1770731892	 0.088452
H	 1.4696687807	-0.6372073678	 1.7104883603	 0.076969
H	-0.9734499926	-2.157313652	 2.069642632	 0.098142
H	-1.1449403318	-0.3803438655	 2.294096399	 0.10841
H	-3.0696994814	-1.2578734331	-0.2287261885	 0.283773
177.2047	189.569	209.3385	230.3403	337.8232	370.6624	442.3236	554.133	593.9616	631.6122	745.3125	767.3783	787.2668	802.293	856.1163	874.547	902.2878	920.0203	954.18	977.9203	1001.2591	1019.0505	1069.6126	1113.1218	1127.8659	1138.6854	1180.7505	1200.0302	1205.1359	1238.1164	1254.5573	1277.4334	1311.6697	1353.0159	1390.6615	1416.0628	1480.6298	1485.0012	1492.1821	3025.9897	3051.3789	3091.2918	3095.6877	3113.7072	3129.6963	3166.632	3182.5318	3793.7168
CC12C3C4N3C1CC24O	C[C@@]12[C@@H]3[C@H]4N3[C@@H]1C[C@@]24O	
InChI=1S/C7H9NO/c1-6-3-2-7(6,9)5-4(6)8(3)5/h3-5,9H,2H2,1H3	InChI=1S/C7H9NO/c1-6-3-2-7(6,9)5-4(6)8(3)5/h3-5,9H,2H2,1H3/t3-,4+,5-,6+,7+,8?/m1/s1
