20
gdb 87819	2.60955	1.53337	1.20319	1.1513	79.95	-0.2167	0.0756	0.2923	1102.2417	0.170098	-403.083011	-403.07427	-403.073326	-403.115848	34.3	
C	-0.1189337783	 1.5575545172	 0.1370658625	-0.502382
C	 0.087507504	 0.0779830972	 0.0369264135	 0.252566
N	-0.8183679251	-0.8875369371	 0.7252453539	-0.372507
C	 0.6417608586	-0.9147710988	 1.0036344521	-0.095528
C	 1.2760106046	-1.7444992134	-0.1193911675	-0.316364
C	 0.6853509083	-0.71973576	-1.1181710064	 0.350532
C	 0.0923707356	-0.9621286714	-2.4812756247	-0.387712
C	 1.3802511717	-0.1850214521	-2.3262243599	 0.014591
O	 1.3788741415	 1.2029673341	-2.5161185641	-0.423625
H	 0.7689539653	 2.1008366575	-0.1931165412	 0.145416
H	-0.9558288873	 1.8852491797	-0.4902490122	 0.121781
H	-0.3438598532	 1.8405990507	 1.1718361352	 0.103934
H	-1.2513295947	-0.3735810343	 1.4943008928	 0.21819
H	 1.0177019328	-0.766868881	 2.009066385	 0.088835
H	 2.3694951396	-1.7321030914	-0.1033864166	 0.101806
H	 0.9142965727	-2.7733478952	-0.2000347736	 0.105174
H	 0.1304796143	-1.9631737515	-2.8992865752	 0.110605
H	-0.7951748266	-0.3922707761	-2.7392351892	 0.113427
H	 2.3076832177	-0.6801315902	-2.6204849754	 0.083416
H	 1.2480276885	 1.3722991162	-3.4549601189	 0.287845
111.8254	156.0575	181.5282	229.331	262.7054	305.5223	307.6541	400.0564	437.3863	451.4135	565.4565	591.7857	644.3101	754.3028	805.8523	848.6359	867.2232	894.7507	911.936	945.8983	991.1743	1023.4418	1031.6872	1043.4815	1074.746	1096.4811	1109.2874	1131.4653	1165.5994	1176.4367	1184.3224	1234.6772	1286.5041	1298.3282	1318.5961	1364.8257	1408.1124	1421.9759	1441.1394	1475.1382	1479.544	1494.5626	1497.1593	3027.3807	3050.8879	3078.1747	3084.711	3107.0034	3121.3514	3126.8246	3183.2194	3209.6882	3448.7086	3803.9228
CC12NC1CC21CC1O	C[C@]12N[C@H]1C[C@]12C[C@H]1O	
InChI=1S/C7H11NO/c1-6-4(8-6)2-7(6)3-5(7)9/h4-5,8-9H,2-3H2,1H3	InChI=1S/C7H11NO/c1-6-4(8-6)2-7(6)3-5(7)9/h4-5,8-9H,2-3H2,1H3/t4-,5+,6-,7-/m0/s1
