21
gdb 86993	5.53598	0.59763	0.58433	1.8668	85.74	-0.2532	0.0584	0.3115	1909.9592	0.180695	-387.046589	-387.036673	-387.035729	-387.082115	36.771	
O	-0.096046606	 1.4574928337	-0.0767519963	-0.431086
C	 0.0155722247	 0.0554205987	-0.0060115835	 0.145198
C	 0.3175785227	-0.6147340092	 1.3632946721	-0.296281
C	-0.7717463524	-1.6729222567	 1.0278290391	 0.041695
C	-1.6828405133	-2.1577089723	 2.1467258838	-0.200324
C	-2.7952391395	-3.0996207847	 1.6390228873	-0.355772
C	-3.6749219158	-3.5703533935	 2.7016566668	 0.293383
C	-4.3835910747	-3.9432821327	 3.5982725215	-0.436745
C	-1.336733529	-0.681998118	-0.0340396907	-0.246534
H	 0.7896300799	 1.8340005379	-0.0596605527	 0.281179
H	 0.6894918126	-0.3295521274	-0.7853706535	 0.064795
H	 1.3345088913	-0.9609933971	 1.5656429424	 0.090942
H	-0.0099948807	 0.0431167956	 2.1750046024	 0.105034
H	-0.3139617105	-2.5347688523	 0.5271090846	 0.068497
H	-1.093280635	-2.6813533867	 2.9089293141	 0.107603
H	-2.1442987351	-1.2974923956	 2.6463107765	 0.106715
H	-3.3899575579	-2.5817141579	 0.8753617368	 0.134308
H	-2.3395406141	-3.961825981	 1.1339541687	 0.126703
H	-5.0175564015	-4.2786692962	 4.3808729646	 0.191827
H	-2.1093992068	-0.0387243658	 0.4000463905	 0.111488
H	-1.690839419	-1.0730499287	-0.9903060246	 0.097375
49.668	86.5701	88.1695	135.4371	215.3793	263.5064	327.5119	344.4789	380.9801	413.2804	458.2689	508.2472	613.7374	614.8222	633.8063	765.9496	799.4466	810.8385	911.5378	944.6331	957.5598	965.0084	1015.4628	1023.9717	1069.4085	1080.8273	1119.7036	1147.1574	1184.1444	1218.9419	1240.4679	1248.3494	1268.2476	1275.4641	1293.1841	1318.3317	1332.8079	1364.1489	1392.2446	1431.0355	1470.6285	1472.49	1491.6224	1503.0681	2238.3591	2989.1033	3014.4515	3025.8939	3032.5214	3042.8547	3047.7569	3054.7418	3075.8706	3107.4001	3114.3548	3507.6935	3814.5982
OC1CC(CCC#C)C1	O[C@H]1C[C@@H](CCC#C)C1	
InChI=1S/C8H12O/c1-2-3-4-7-5-8(9)6-7/h1,7-9H,3-6H2	InChI=1S/C8H12O/c1-2-3-4-7-5-8(9)6-7/h1,7-9H,3-6H2/t7-,8+
