17
gdb 94361	2.99981	1.16609	1.00041	3.0513	70.57	-0.2601	-0.0425	0.2175	1206.8638	0.133789	-458.934396	-458.925835	-458.924891	-458.967879	31.713	
O	 0.5607576806	 0.7146985045	-0.6482058436	-0.428242
C	 0.2122307712	-0.3822637446	 0.1421080652	 0.084318
C	 0.0309202567	-0.234186262	 1.6896772845	-0.260726
C	-1.2610484441	-1.105629719	 1.5981656175	-0.312594
C	-1.2582208628	-0.8320822365	 0.0949265637	 0.369259
O	-2.1836045192	 0.0793846056	-0.4752690885	-0.285126
C	-2.125640598	-1.2608686771	-1.0185739764	-0.158821
C	-1.5565718751	-1.3674574757	-2.3962799914	 0.142295
O	-1.8373851297	-2.2572222887	-3.158591461	-0.248981
H	-0.2336290854	 1.2585475844	-0.7335489399	 0.292007
H	 0.9034896638	-1.1968960494	-0.0959843806	 0.105102
H	 0.8429896085	-0.5987235353	 2.3202331223	 0.111816
H	-0.1962696507	 0.8016542157	 1.9538655476	 0.117028
H	-1.0842286215	-2.1590530292	 1.8296730223	 0.122006
H	-2.1441437687	-0.7596596641	 2.1373817029	 0.12767
H	-2.9938057113	-1.8845052488	-0.8127001052	 0.120048
H	-0.8386898242	-0.5596003597	-2.6502048993	 0.10294
84.1066	110.7215	146.2055	197.1653	249.1443	346.5583	390.9052	403.2754	426.0023	474.1078	586.4673	604.678	719.339	767.1468	846.8604	910.8416	929.4443	941.101	993.2629	1058.7085	1071.7768	1089.6356	1121.6397	1136.8353	1159.4849	1204.7097	1217.4766	1253.6598	1263.4019	1291.118	1336.4131	1396.8718	1437.5538	1458.4853	1469.1261	1497.3667	1822.8731	2925.3199	3064.1027	3073.2472	3074.2496	3128.1425	3141.0344	3141.9643	3764.1974
OC1CCC11OC1C=O	O[C@H]1CC[C@]21O[C@H]2C=O	
InChI=1S/C6H8O3/c7-3-5-6(9-5)2-1-4(6)8/h3-5,8H,1-2H2	InChI=1S/C6H8O3/c7-3-5-6(9-5)2-1-4(6)8/h3-5,8H,1-2H2/t4-,5-,6+/m0/s1
