19
gdb 51112	3.93031	1.01185	0.94536	2.8933	79.55	-0.2136	-0.018	0.1956	1284.8079	0.158007	-385.824935	-385.816659	-385.815715	-385.858725	31.611	
O	 0.3283379005	-0.2455469908	-0.0949037255	-0.240842
C	 0.1367452813	 0.9378408109	-0.2066135892	 0.167817
C	 1.1943223495	 2.0077767824	-0.0128741485	-0.390563
C	 1.2225216035	 2.9805225077	-1.1647918309	 0.348695
C	 1.9545033379	 2.7095268437	-2.4548394708	-0.350601
C	 2.3438828202	 3.9010827096	-1.6182638749	-0.124055
C	 1.3463326908	 5.0903380391	-1.6957381869	-0.047386
C	 0.1697683053	 4.8540079309	-2.6023719863	-0.302003
C	 0.2167088942	 4.1729256122	-1.2610511514	-0.113208
H	-0.8704659884	 1.3307688741	-0.4788926706	 0.075935
H	 0.9606351472	 2.5451997297	 0.9193729849	 0.118442
H	 2.1614515172	 1.5138620822	 0.1205822462	 0.120752
H	 2.657166797	 1.8830063066	-2.3927485391	 0.119107
H	 1.4917148869	 2.7993757279	-3.4309888309	 0.115308
H	 3.3346285976	 3.9987523065	-1.1923274227	 0.092304
H	 1.5905560398	 6.0741224756	-1.3168888157	 0.09221
H	-0.5259700521	 5.6871499293	-2.6452395308	 0.114997
H	 0.2461141428	 4.3155407196	-3.5401265434	 0.115413
H	-0.5340508711	 4.3494844828	-0.5006805034	 0.08768
48.665	65.9272	139.7918	251.2325	310.4959	369.4422	430.9819	467.3623	517.8483	648.9811	699.6668	759.2599	774.0278	805.3219	864.9484	880.8522	906.8967	929.1877	962.9474	981.689	989.7436	1028.5528	1040.75	1053.4262	1066.1508	1077.3481	1096.3341	1114.2602	1173.5701	1180.8737	1239.0069	1260.1262	1298.7565	1305.725	1326.05	1394.9208	1430.4915	1451.9742	1480.1193	1514.8939	1832.95	2862.1071	2995.4544	3090.371	3123.6702	3135.1898	3180.9303	3185.6892	3197.6456	3203.1154	3211.3558
O=CCC12CC1C1CC21	O=CC[C@]12C[C@H]1[C@H]1C[C@@H]21	
InChI=1S/C8H10O/c9-2-1-8-4-7(8)5-3-6(5)8/h2,5-7H,1,3-4H2	InChI=1S/C8H10O/c9-2-1-8-4-7(8)5-3-6(5)8/h2,5-7H,1,3-4H2/t5-,6+,7-,8+/m0/s1
