18
gdb 12831	3.11759	2.35544	1.73367	1.3299	74.09	-0.2243	0.0095	0.2337	826.4183	0.154251	-347.781067	-347.773909	-347.772965	-347.811974	28.313	
C	-0.063844849	 1.6403395613	-0.1908888204	-0.437051
C	-0.0416728174	 0.1323353579	 0.0339163378	 0.389125
C	 1.0717867979	-0.6041468388	-0.8120239547	-0.273264
C	 1.9793833002	-0.6114101361	 0.4787073693	-0.316419
C	 0.6790514088	-0.4209627097	 1.2275235522	 0.207355
C	-0.1644767019	-1.0627158648	 2.0254705434	-0.236792
C	-1.5628806373	-0.8771369033	 1.4530109031	-0.124396
O	-1.3697296208	-0.3720073127	 0.1186859195	-0.321009
H	 0.9481348269	 2.0569915425	-0.2167302581	 0.111319
H	-0.5482045552	 1.8646657053	-1.1466934522	 0.125066
H	-0.6247790468	 2.1403833289	 0.6039862124	 0.119925
H	 0.7517708817	-1.6117906185	-1.0810061921	 0.11688
H	 1.4602566468	-0.0790670415	-1.6887268144	 0.097862
H	 2.5554861291	-1.5113456444	 0.6993767823	 0.114868
H	 2.6458998427	 0.2556503034	 0.5049313463	 0.115658
H	 0.0544707062	-1.7444469355	 2.8378086011	 0.101073
H	-2.0972759376	-1.8345698755	 1.393082354	 0.108996
H	-2.1967528743	-0.1851912585	 2.0310095505	 0.100805
131.3782	239.128	243.5699	250.4263	323.1612	381.7634	448.6854	590.7605	676.3184	713.3338	772.3848	796.7976	821.8549	874.4679	900.9389	920.087	924.119	957.7484	1024.1115	1024.8696	1061.4754	1111.5699	1143.3855	1167.8138	1176.5553	1198.7767	1222.8687	1243.688	1252.0773	1323.6032	1367.0279	1402.2094	1467.2605	1484.478	1487.4649	1493.2104	1517.7002	1729.1228	2968.9205	3026.1723	3034.9033	3058.942	3063.8452	3106.3345	3113.1452	3119.3542	3140.957	3209.6754
CC12CCC1=CCO2	C[C@@]12CC[C]1[CH]CO2	
InChI=1S/C7H10O/c1-7-4-2-6(7)3-5-8-7/h3H,2,4-5H2,1H3	InChI=1S/C7H10O/c1-7-4-2-6(7)3-5-8-7/h3H,2,4-5H2,1H3/t7-/m1/s1
