13
gdb 11684	5.10294	1.44839	1.31375	2.5795	64.68	-0.2684	-0.0426	0.2258	898.4037	0.095664	-361.466989	-361.460302	-361.459358	-361.497997	24.972	
O	 0.0349977244	 0.0442989002	-0.0855063714	-0.295867
C	 0.0228533113	 1.2326076618	 0.0338976597	 0.434434
C	-1.1252423917	 2.2719685081	 0.1502433024	-0.414529
C	-0.0500750761	 3.3681168758	-0.0093819026	 0.2047
C	 0.9492638037	 3.2514543346	 1.1001083292	-0.314869
C	 1.0859574207	 2.2945442526	-0.0682371317	-0.209962
C	-0.1798413077	 4.5256580596	-0.8304240702	 0.197479
N	-0.2978798181	 5.4645662431	-1.4965669357	-0.335415
H	-1.7955367512	 2.1863727293	-0.7087146418	 0.159309
H	-1.7122286702	 2.2981077926	 1.0716352321	 0.137961
H	 1.7157121761	 4.017534586	 1.1364236015	 0.156307
H	 0.617950923	 2.8931367356	 2.0702015523	 0.141023
H	 1.9786345259	 2.2737071607	-0.6801167638	 0.139428
96.1471	168.3694	238.8581	369.6936	443.9732	506.534	548.9753	566.7683	586.1303	659.7141	775.2653	817.7233	918.4971	949.0888	978.1785	990.35	1054.6396	1092.5581	1105.5971	1111.8679	1211.7526	1222.4736	1241.9082	1371.0139	1454.6758	1493.0979	1900.8597	2352.6274	3070.2766	3128.8256	3129.9098	3210.038	3225.2843
O=C1CC2(CC12)C#N	O=C1C[C@]2(C[C@@H]12)C#N	
InChI=1S/C6H5NO/c7-3-6-1-4(6)5(8)2-6/h4H,1-2H2	InChI=1S/C6H5NO/c7-3-6-1-4(6)5(8)2-6/h4H,1-2H2/t4-,6+/m0/s1
