16
gdb 27365	2.00348	1.94867	0.99437	4.5514	77.54	-0.2169	-0.0227	0.1943	1146.1074	0.126647	-430.320023	-430.311712	-430.310768	-430.352884	31.253	
C	-0.0164880647	 1.435391545	 0.0575142964	-0.454264
C	-0.0024313083	-0.0645412927	-0.0052525465	 0.334496
N	-0.0063601568	-0.6318941007	-1.1811386579	-0.339132
C	 0.0013418923	-2.0133609929	-1.240943743	 0.398407
N	-0.0038906187	-2.7493782584	-2.2821766067	-0.574965
N	 0.013144426	-2.6786548429	 0.0076701969	-0.348582
H	-0.0201219404	-3.6871620078	-0.033186618	 0.264441
C	 0.0205765675	-1.9956752811	 1.1725492688	 0.491415
N	-0.0109136785	-2.7059277599	 2.3331931392	-0.572164
N	 0.0196775025	-0.6853824883	 1.2190986078	-0.378216
H	 0.8618684685	 1.7923644618	 0.6052425226	 0.137835
H	-0.0274010863	 1.8601415676	-0.9456232068	 0.13757
H	-0.894646947	 1.7747054478	 0.6167524048	 0.139028
H	-0.0152546102	-2.1454062476	-3.102235319	 0.222809
H	 0.3121796553	-3.6593572763	 2.3439981015	 0.264178
H	 0.168335239	-2.1601202236	 3.16109915	 0.277145
110.6849	120.5758	182.8295	202.2464	303.2708	342.8175	348.6826	488.9729	528.3255	558.0479	559.9594	586.8204	635.1014	653.1162	745.3543	782.0182	856.4468	940.4338	978.432	998.472	1061.5188	1094.9429	1115.9088	1134.367	1294.9659	1325.2099	1379.022	1424.2942	1460.9573	1475.0322	1522.9769	1587.9282	1643.2062	1662.7815	1735.1802	3046.0827	3102.371	3163.3219	3513.6829	3597.0168	3610.4894	3717.8709
CC1=NC(=N)[NH+]=C(N)[N-]1	CC1=N[C@H](NC(=N1)[NH])N	
InChI=1S/C4H6N5/c1-2-7-3(5)9-4(6)8-2/h1H3,(H3-,5,6,7,8,9)/q-1/p+1	InChI=1S/C4H8N5/c1-2-7-3(5)9-4(6)8-2/h3,6H,5H2,1H3,(H,7,8,9)/t3-/m1/s1
