14
gdb 133486	2.81363	0.96984	0.84418	2.7364	59.1	-0.2693	0.0227	0.292	1354.1271	0.094609	-568.16511	-568.155341	-568.154397	-568.20281	32.864	
C	-0.0253428281	 1.494620518	 0.0274309957	-0.500467
C	-0.0078627046	 0.0403108011	 0.012365797	 0.07604
C	 0.0164938822	-1.1627804901	 0.0031316615	 0.064398
C	-0.0076935781	-2.6236766021	-0.0217602742	-0.205011
O	-1.3121588215	-3.1663258199	 0.0106068506	-0.400557
C	 0.7417692809	-3.1625090722	-1.2556599918	 0.276464
F	 1.9867217757	-2.6804542203	-1.319681376	-0.06939
F	 0.8154019659	-4.4948923096	-1.2169428755	-0.065322
F	 0.0996471723	-2.8188455239	-2.3829775676	-0.086682
H	 0.9926271251	 1.8977126105	 0.0016175638	 0.159622
H	-0.5639447487	 1.8931280202	-0.8388133087	 0.156306
H	-0.5133347952	 1.8749559212	 0.9310278285	 0.157086
H	 0.5106039795	-3.0324568563	 0.8529336015	 0.142938
H	-1.8153605955	-2.7447834967	-0.6961764648	 0.294573
7.2485	55.8438	81.0709	145.8653	219.8056	247.1884	302.8048	323.9143	370.5189	404.5811	431.6885	528.0149	535.7393	601.1303	704.7735	809.2285	863.5298	1051.8113	1053.6414	1062.4598	1159.8259	1185.1934	1222.8015	1271.227	1277.6842	1360.7217	1413.0145	1420.9105	1474.8318	1475.9848	2375.322	3033.123	3061.7646	3097.1429	3097.5814	3800.7163
CC#CC(O)C(F)(F)F	CC#C[C@@H](O)C(F)(F)F	
InChI=1S/C5H5F3O/c1-2-3-4(9)5(6,7)8/h4,9H,1H3	InChI=1S/C5H5F3O/c1-2-3-4(9)5(6,7)8/h4,9H,1H3/t4-/m1/s1
