14
gdb 75688	3.06372	1.2829	1.07901	1.5203	64.75	-0.2485	-0.069	0.1795	1084.7209	0.099358	-473.789141	-473.781111	-473.780167	-473.822101	29.104	
O	 0.2329851086	 1.4912915925	-0.0429441774	-0.416513
C	 0.1179393013	 0.1067452787	 0.0068332978	-0.054685
C	 0.2396083234	-0.6671875451	 1.3789440667	 0.415087
O	 1.1331003163	-0.8671462857	 2.1423758946	-0.286606
C	-1.1696596011	-1.2150835202	 1.2338353406	-0.21928
N	-2.0291072725	-0.0263832231	 1.0503973938	-0.370676
C	-1.2893152118	-0.5077473984	-0.11956024	 0.212573
C	-2.0057279541	-1.0947565741	-1.2677236261	 0.053125
O	-3.1852544389	-1.3628635989	-1.2328843736	-0.270612
H	-0.4400675392	 1.849009846	 0.5507088828	 0.30236
H	 0.8327833307	-0.3183947745	-0.7067000395	 0.126696
H	-1.5851913482	-2.1718892927	 1.5250608242	 0.142914
H	-2.9905567067	-0.3591064342	 0.9446774298	 0.26663
H	-1.3870520878	-1.2883428603	-2.1672784736	 0.098987
82.4719	123.7674	175.1644	228.1608	243.6134	319.3526	409.647	460.7133	500.4163	566.1929	679.0525	713.794	755.8388	798.9356	832.0783	942.4615	998.3052	1014.0621	1029.9355	1069.1628	1124.6085	1149.2307	1160.479	1262.7631	1270.2938	1341.6647	1376.4031	1424.4977	1436.9119	1785.2225	1907.5986	2931.1466	3066.7752	3205.9878	3449.485	3776.9331
OC1C(=O)C2NC12C=O	O[C@H]1C(=O)[C@H]2N[C@@]12C=O	
InChI=1S/C5H5NO3/c7-1-5-3(6-5)2(8)4(5)9/h1,3-4,6,9H	InChI=1S/C5H5NO3/c7-1-5-3(6-5)2(8)4(5)9/h1,3-4,6,9H/t3-,4+,5-/m1/s1
