19
gdb 92299	2.32558	1.97096	1.23807	4.1471	75.2	-0.2325	0.0549	0.2874	1036.5458	0.161677	-419.241791	-419.233671	-419.232727	-419.274722	30.855	
C	 0.0459332981	 1.6001695175	-0.1397757159	-0.400111
C	 0.0279105499	 0.0885871392	-0.024861426	 0.058136
C	 0.5165302555	-0.7678744484	-1.2314151176	-0.272128
C	 1.3460082755	-1.5871523066	-0.2127618658	 0.037558
C	 2.8834307327	-1.6847836764	-0.3207337227	-0.195198
N	 3.2933436909	-0.5275053835	 0.4473120115	-0.335837
C	 2.2717866034	 0.1284140943	 1.1048968495	 0.419935
O	 2.3850626237	 1.1269060574	 1.7807330278	-0.408805
N	 1.0761038714	-0.5702000579	 0.83724547	-0.158844
H	 0.9943760418	 1.964314396	-0.543904751	 0.128285
H	-0.760248138	 1.9185101213	-0.809510551	 0.110827
H	-0.1007039149	 2.0698400666	 0.8355621685	 0.149334
H	-0.9552163722	-0.2429526558	 0.3267898001	 0.088273
H	-0.2400143173	-1.3063078297	-1.8062355252	 0.104945
H	 1.145796526	-0.1888426357	-1.9147683118	 0.109212
H	 0.8976045	-2.55584205	 0.024377294	 0.088397
H	 3.2513138236	-2.6234284849	 0.1136790689	 0.110993
H	 3.2294784373	-1.6378643913	-1.3615859577	 0.111213
H	 4.2497970724	-0.313147032	 0.6723258845	 0.253816
66.4039	110.1622	184.8539	226.0534	305.2289	344.4086	418.4903	426.7396	522.6988	600.6804	693.2989	726.9527	747.4783	794.3632	813.9963	887.7432	929.4374	974.379	993.5622	1039.225	1063.1493	1096.9808	1137.9655	1145.4476	1166.453	1194.3898	1221.3914	1243.4221	1256.6567	1265.0712	1312.5126	1342.3058	1368.1504	1404.702	1414.561	1439.8625	1482.3452	1486.1627	1490.1029	1535.5144	1827.5453	3004.6637	3032.7223	3039.1597	3042.1252	3053.9303	3062.4396	3112.1817	3118.0823	3132.6413	3669.1296
CC1CC2CNC(=O)N12	C[C@H]1C[C@H]2CNC(=O)N12	
InChI=1S/C6H10N2O/c1-4-2-5-3-7-6(9)8(4)5/h4-5H,2-3H2,1H3,(H,7,9)	InChI=1S/C6H10N2O/c1-4-2-5-3-7-6(9)8(4)5/h4-5H,2-3H2,1H3,(H,7,9)/t4-,5-/m0/s1
