17
gdb 88909	6.00978	0.55178	0.52962	5.0817	81.06	-0.2602	-0.0547	0.2056	1994.2355	0.133227	-421.78181	-421.772007	-421.771063	-421.819038	33.577	
O	-0.1599049265	 1.4441272372	 0.4180462018	-0.414119
C	-0.0122115426	 0.0681183484	 0.2156024262	 0.083419
C	-0.7302454364	-0.896794783	 1.1263351914	-0.317705
C	-1.2217174809	-0.6666665987	-0.2878544539	-0.010512
C	-2.5143182458	 0.0998643219	-0.5292291494	-0.388441
C	-3.7111058957	-0.7054151675	-0.3311616029	 0.112347
C	-4.7053693225	-1.373672693	-0.1717067205	 0.022756
C	-5.8645785197	-2.1981065442	 0.0392666937	 0.018931
O	-6.9918134729	-1.9031885983	-0.2886353857	-0.232241
H	 0.3184995408	 1.6826516568	 1.2186584436	 0.293421
H	 0.956179945	-0.230557607	-0.1848550081	 0.09421
H	-0.2596027634	-1.8419583894	 1.3729260216	 0.117548
H	-1.3208178704	-0.4600806166	 1.9255334026	 0.120415
H	-1.0369246651	-1.4646306119	-1.0001516435	 0.102219
H	-2.5471044812	 0.9711272844	 0.1343797623	 0.15771
H	-2.5225739155	 0.5070711903	-1.5489026439	 0.146229
H	-5.6467160172	-3.1623728293	 0.5436375049	 0.093814
20.1265	39.4705	68.4436	160.6514	177.9604	206.4656	297.1856	304.8441	399.422	434.7415	499.1999	517.5886	628.0728	772.1456	827.3417	838.2338	880.153	895.3972	988.0776	1022.6457	1035.9621	1061.1264	1123.3381	1136.9691	1158.8765	1176.8036	1234.9149	1240.4935	1299.3813	1319.1161	1391.0207	1423.6841	1424.1268	1456.103	1489.2907	1766.1248	2328.465	2909.5364	3027.7441	3072.7533	3102.8667	3131.782	3158.6774	3221.0728	3811.6199
OC1CC1CC#CC=O	O[C@H]1C[C@H]1CC#CC=O	
InChI=1S/C7H8O2/c8-4-2-1-3-6-5-7(6)9/h4,6-7,9H,3,5H2	InChI=1S/C7H8O2/c8-4-2-1-3-6-5-7(6)9/h4,6-7,9H,3,5H2/t6-,7+/m1/s1
