18
gdb 127618	3.23294	1.5547	1.0773	2.8658	79.57	-0.1822	0.0284	0.2105	1104.8324	0.151427	-398.1368	-398.128907	-398.127963	-398.170383	29.206	
C	-0.140831339	 1.4161040798	-0.0154568064	-0.334284
N	-0.0411364106	-0.0239892928	 0.0469129163	-0.085085
N	-0.1011070103	-0.7525269501	-1.0917519643	-0.274963
C	-0.0105709359	-2.0372886901	-0.7131593378	-0.143126
C	 0.0837024456	-2.123301691	 0.6861422159	 0.200046
C	 0.0474187688	-0.8275573007	 1.1348426236	 0.351013
C	 0.2521312361	-0.7562439953	 2.6161503949	-0.352346
C	 0.0112411384	-2.2610738402	 2.974986075	-0.158266
N	 0.3118104072	-3.0399338821	 1.7376979847	-0.408967
H	 0.6938297264	 1.8860269596	 0.5144874595	 0.134328
H	-0.106380614	 1.6986516113	-1.0671489611	 0.161627
H	-1.080744666	 1.7707785604	 0.4222927716	 0.133734
H	-0.0270022008	-2.8131534406	-1.4633546264	 0.10329
H	 1.273919993	-0.445674958	 2.8741151468	 0.119224
H	-0.434921946	-0.1008493774	 3.1600802477	 0.113226
H	 0.641351417	-2.597102975	 3.8025960969	 0.109849
H	-1.0396752233	-2.3881004824	 3.2721810775	 0.10125
H	-0.2390076066	-3.8880119556	 1.6823360056	 0.229448
23.5529	140.3957	177.0898	224.8724	257.64	325.7446	509.3896	569.1579	621.9784	635.2299	683.332	711.4647	790.3644	839.9844	845.3113	872.3703	940.5903	1014.6194	1026.5768	1077.3496	1099.7657	1149.568	1187.9799	1191.3923	1219.9275	1237.7848	1304.6617	1324.0393	1347.0699	1368.8887	1400.296	1442.7502	1481.3637	1487.5013	1492.0304	1505.6054	1518.5989	1568.9353	1613.2882	2995.3163	3008.6985	3031.8315	3070.7419	3088.2313	3088.8284	3162.69	3249.3838	3544.7095
CN1N=CC2=C1CCN2	Cn1ncc2c1CCN2	
InChI=1S/C6H9N3/c1-9-6-2-3-7-5(6)4-8-9/h4,7H,2-3H2,1H3	InChI=1S/C6H9N3/c1-9-6-2-3-7-5(6)4-8-9/h4,7H,2-3H2,1H3
