19
gdb 68791	2.72118	1.30061	1.1182	1.5018	82.13	-0.2425	0.0467	0.2892	1180.8399	0.15591	-385.837625	-385.828236	-385.827292	-385.871314	35.597	
C	-0.2180960089	 1.5297739205	 0.0759362135	-0.501819
C	 0.1487127883	 0.0834403511	 0.0135900523	 0.354195
C	 0.725278054	-0.699466639	-1.1752407897	-0.304875
C	 1.3565161163	-1.7211616536	-0.1485588905	-0.238418
C	 2.8024526974	-1.7985117007	-0.1751785967	 0.314679
C	 4.0047899301	-1.8431462731	-0.1798808241	-0.463515
C	 0.747433042	-0.8474428198	 0.991992539	 0.34638
C	 1.2417118453	-0.7083354076	 2.3930568284	-0.507537
O	-0.6646241026	-0.8552858489	 0.7488251617	-0.324912
H	 0.5994218266	 2.1533639656	-0.2998435335	 0.126795
H	-1.1045779283	 1.7312296893	-0.5362952789	 0.132568
H	-0.4435413485	 1.8266298712	 1.1036370521	 0.133158
H	-0.0112436539	-1.1109541084	-1.8693397659	 0.10973
H	 1.4946718088	-0.1533525149	-1.7241556183	 0.117898
H	 0.9113648208	-2.7203401625	-0.1799024457	 0.108394
H	 5.0652669339	-1.8950665327	-0.1905495826	 0.195446
H	 2.3222429291	-0.5400143876	 2.4005005045	 0.138848
H	 0.7456579964	 0.1259889432	 2.8960737645	 0.130298
H	 1.0364830933	-1.6198541421	 2.9658977097	 0.132687
90.6879	135.1446	179.1272	186.4814	190.8896	255.7204	312.6801	330.1465	443.6642	479.9278	492.3524	528.8765	610.1903	626.4448	633.6882	693.1132	736.0229	804.6389	870.2795	902.9334	954.1827	984.6682	1022.0287	1081.2398	1090.2945	1133.2683	1166.0039	1199.0263	1208.5463	1231.0787	1293.6199	1316.7305	1408.127	1410.8003	1460.0206	1475.6522	1476.5641	1486.6266	1491.4074	1527.333	2231.1863	3033.8375	3037.3899	3061.4786	3070.2731	3096.1963	3102.5119	3120.1942	3125.9438	3133.8748	3503.3491
CC12CC(C#C)C1(C)O2	C[C@@]12C[C@@H](C#C)[C@]1(C)O2	
InChI=1S/C8H10O/c1-4-6-5-7(2)8(6,3)9-7/h1,6H,5H2,2-3H3	InChI=1S/C8H10O/c1-4-6-5-7(2)8(6,3)9-7/h1,6H,5H2,2-3H3/t6-,7-,8+/m1/s1
