19
gdb 102437	1.7933	1.27508	0.86941	2.8922	79.1	-0.2641	-0.0604	0.2037	1388.4455	0.155371	-423.001523	-422.990769	-422.989825	-423.038202	37.553	
C	 1.2447188264	 0.1477906524	 0.9296388273	-0.397591
C	 0.2559743068	-0.0328371929	-0.2256998937	-0.181994
C	-1.0687466999	-0.6810219781	 0.1944442876	-0.073402
C	-2.1510252836	-0.5392854011	-0.8912862755	-0.09873
O	-2.4542524546	 0.841017238	-1.0122618517	-0.416237
C	-0.9094822952	-2.1603433411	 0.5388623171	 0.205777
O	 0.0499907416	-2.8244856147	 0.2105311373	-0.292657
C	-2.008370733	-2.7549109686	 1.2881235038	 0.277928
C	-2.9154935009	-3.2359598786	 1.917084282	-0.409941
H	 2.1614781751	 0.6348149177	 0.5836344206	 0.113602
H	 0.8181588146	 0.7720325192	 1.7230623523	 0.111538
H	 1.5255517991	-0.8143266559	 1.3675517452	 0.130765
H	 0.0181234973	 0.9373839788	-0.6709895041	 0.111627
H	 0.7115515732	-0.6500201002	-1.0075662455	 0.110189
H	-1.4701124447	-0.1800117625	 1.0863256871	 0.10244
H	-1.7679967848	-0.9529023851	-1.8374928652	 0.100038
H	-3.0432424109	-1.1170173954	-0.6080886865	 0.100801
H	-3.0583329612	 0.95243926	-1.7521578298	 0.290762
H	-3.7085282053	-3.6750571518	 2.4725362117	 0.215086
33.5518	89.5197	101.807	142.1315	171.6555	197.2756	223.757	253.8809	264.8964	312.4923	361.859	461.3808	491.2852	611.4044	644.3377	702.7502	715.9466	749.2017	845.4493	877.567	982.0637	1013.1164	1055.373	1080.079	1081.9685	1133.9179	1180.7333	1219.7222	1264.3652	1284.8559	1319.5097	1360.6647	1390.656	1410.7683	1452.6289	1483.3474	1498.8164	1509.305	1522.2932	1763.7381	2207.7651	2975.6915	3009.7194	3025.8886	3034.1169	3051.2591	3089.7805	3102.926	3118.0258	3493.2684	3831.3805
CCC(CO)C(=O)C#C	CC[C@@H](CO)C(=O)C#C	
InChI=1S/C7H10O2/c1-3-6(5-8)7(9)4-2/h2,6,8H,3,5H2,1H3	InChI=1S/C7H10O2/c1-3-6(5-8)7(9)4-2/h2,6,8H,3,5H2,1H3/t6-/m0/s1
