20
gdb 63690	4.74361	0.65789	0.6334	3.6458	79.81	-0.2575	0.025	0.2825	1791.1088	0.16822	-440.262619	-440.25233	-440.251386	-440.299136	36.639	
C	 0.0375911963	 1.5558477008	-0.2638754609	-0.450782
C	 0.029040468	 0.0688239106	 0.0152589338	 0.384618
O	-1.1542981358	-0.5694197089	-0.3986011662	-0.464199
C	 1.3019503042	-0.7396366275	-0.0488168224	-0.340423
C	 0.5872433097	-0.5349447067	 1.2755412308	-0.035825
C	 1.2028553405	 0.2808440567	 2.3754319894	-0.11177
O	 2.1507877254	-0.5433415072	 3.0657595423	-0.178936
C	 2.4754616475	-0.174327613	 4.3174472143	 0.133377
N	 3.4008422401	-0.7705112154	 4.9359983997	-0.440866
H	 0.9594398251	 2.0360508523	 0.0740452341	 0.119523
H	-0.0440349386	 1.7357362349	-1.3429909998	 0.112369
H	-0.8123825163	 2.0460801073	 0.2215629921	 0.127771
H	-1.1804670588	-0.5420980754	-1.3619284777	 0.28081
H	 1.25066978	-1.7274276507	-0.4917195869	 0.118702
H	 2.2396776245	-0.2150559717	-0.2034136199	 0.114301
H	 0.02343099	-1.3924637589	 1.628958314	 0.109772
H	 1.7202526673	 1.1638038079	 1.9799622994	 0.10529
H	 0.4341083715	 0.6281821158	 3.0797928228	 0.109334
H	 1.8595769345	 0.6497002709	 4.7068786849	 0.079981
H	 3.493747415	-0.3842710019	 5.8731816761	 0.226953
35.6931	55.98	90.5403	148.2134	211.2753	213.9525	262.0877	301.9061	311.3481	383.4563	423.1533	446.3122	518.7327	637.3559	709.6576	822.3692	862.6951	883.9677	918.1711	925.1959	982.2814	1000.0592	1041.5738	1045.996	1072.3013	1090.7366	1125.6943	1131.5144	1182.5553	1239.2922	1278.194	1294.7964	1310.0636	1348.0824	1391.8155	1416.161	1422.4322	1443.337	1479.8511	1489.0934	1509.5028	1512.3501	1747.2713	2997.7112	3012.9732	3027.1635	3048.7304	3088.4371	3119.4123	3131.5885	3166.3636	3224.3877	3516.385	3789.7172
CC1(O)CC1COC=N	C[C@@]1(O)C[C@H]1CO[CH][NH]	
InChI=1S/C6H11NO2/c1-6(8)2-5(6)3-9-4-7/h4-5,7-8H,2-3H2,1H3	InChI=1S/C6H11NO2/c1-6(8)2-5(6)3-9-4-7/h4-5,7-8H,2-3H2,1H3/t5-,6+/m0/s1
