15
gdb 20387	4.88224	2.03258	1.47051	3.2791	66.77	-0.1895	0.0413	0.2309	813.2191	0.124014	-358.851348	-358.845203	-358.844259	-358.881495	23.93	
C	 0.0019209323	 1.4333787852	 0.0593296709	-0.164972
C	 1.4814556232	 1.925007959	-0.099159546	-0.35625
C	 2.2322591148	 0.6269759897	 0.0255841151	 0.19215
C	 1.3320057278	-0.404154959	-0.0748006212	 0.419895
N	 0.0050184142	-0.0262994179	-0.2798434786	-0.409139
N	 2.0155825501	-1.5633870366	-0.053998604	-0.335697
N	 3.3641154699	-1.341049417	 0.0748455632	-0.244811
C	 3.4845642548	-0.0127520437	 0.1055475968	-0.154953
H	-0.3256144822	 1.5795723498	 1.096825883	 0.107049
H	-0.6917346383	 1.9664161567	-0.5953219963	 0.114172
H	 1.6298200376	 2.3942104645	-1.0801833313	 0.115504
H	 1.7240213852	 2.6786361863	 0.6561820518	 0.111734
H	-0.687278406	-0.5529168956	 0.2391714153	 0.234886
H	 1.6820940337	-2.5100803859	-0.094842283	 0.266642
H	 4.4717970429	 0.4171567946	 0.1973765142	 0.103789
140.7676	232.3938	284.9463	423.319	443.473	570.1776	663.1045	666.4526	708.8699	730.8662	828.9236	862.0596	886.4742	937.6774	975.2471	1017.7436	1062.8803	1075.8171	1142.2212	1193.5144	1229.5852	1243.1953	1287.4467	1309.0044	1341.7553	1399.9723	1423.2636	1456.6754	1497.8211	1516.7134	1589.3397	1624.5025	3015.2303	3019.4997	3070.4408	3095.4533	3237.7484	3544.4112	3687.0041
C1CC2=C(N1)NN=C2	C1Cc2c(N1)[nH]nc2	
InChI=1S/C5H7N3/c1-2-6-5-4(1)3-7-8-5/h3H,1-2H2,(H2,6,7,8)	InChI=1S/C5H7N3/c1-2-6-5-4(1)3-7-8-5/h3H,1-2H2,(H2,6,7,8)
