15
gdb 61123	2.46683	1.25054	1.01937	0.769	68.52	-0.2636	-0.0734	0.1903	1174.7764	0.107208	-457.737267	-457.727607	-457.726662	-457.772228	33.961	
O	-0.0072339771	 1.4918974559	 0.1218091383	-0.456366
C	-0.0244963327	 0.1046608787	-0.0057369676	 0.176098
C	 0.6412616706	-0.6142134241	 1.2076088717	-0.387812
C	 0.0234383758	-0.2456462371	 2.472632243	 0.311639
C	-0.4934870251	 0.0552537501	 3.5139200025	-0.428202
C	-1.4754132457	-0.3911061112	-0.1556626573	 0.124
O	-1.7732381423	-1.5547272879	-0.1905961188	-0.247278
C	 0.7255451966	-0.312947084	-1.2724720794	 0.115706
O	 1.2724606748	 0.5065294275	-1.9658797793	-0.255166
H	 0.5405894825	 1.8228477527	-0.6091022781	 0.299892
H	 0.5565159282	-1.6951857552	 1.0487371226	 0.154378
H	 1.7069269477	-0.3570781007	 1.2187832377	 0.143952
H	-0.9474903668	 0.320349996	 4.4366069106	 0.203729
H	-2.207650805	 0.4370711301	-0.2497000835	 0.11596
H	 0.7313961083	-1.394498031	-1.5014085824	 0.129469
60.3455	95.9471	104.7222	133.633	230.5945	273.2959	302.2976	338.3741	346.8704	381.007	457.1199	508.3854	564.832	626.8987	655.8855	732.0157	831.1907	863.9264	921.3678	940.1542	1008.0727	1072.7745	1125.1786	1187.7248	1277.09	1317.5198	1372.594	1376.807	1412.1129	1455.9173	1800.0511	1835.1883	2245.4369	2932.3691	2975.4957	3034.2756	3080.0937	3506.0739	3675.3035
OC(CC#C)(C=O)C=O	OC(CC#C)(C=O)C=O	
InChI=1S/C6H6O3/c1-2-3-6(9,4-7)5-8/h1,4-5,9H,3H2	InChI=1S/C6H6O3/c1-2-3-6(9,4-7)5-8/h1,4-5,9H,3H2
