18
gdb 126828	2.31717	1.49194	0.98447	1.0113	77.22	-0.2024	0.0068	0.2092	1231.9475	0.147039	-435.273066	-435.263617	-435.262673	-435.309437	32.413	
C	 0.0570038731	 1.5673670274	 0.0309575705	-0.383321
C	 0.0325792406	 0.0383448516	 0.0786470415	-0.142192
N	 0.7012848413	-0.5058849115	 1.2427084395	-0.094664
N	 2.0742265523	-0.609761244	 1.3100907669	-0.22174
C	 2.3003093964	-0.9886918592	 2.5110984314	 0.072464
O	 1.1890203845	-1.1363960818	 3.2832917522	-0.213898
C	 0.1149263046	-0.7789098447	 2.4591947415	 0.516714
N	-1.1063122133	-0.7193660271	 2.7608208733	-0.390473
C	-1.530300755	-1.0777567849	 4.1018313993	-0.326518
H	 1.0859414702	 1.9378955589	 0.0155293623	 0.132806
H	-0.4510978168	 1.9238303151	-0.8703450107	 0.1202
H	-0.4540894742	 1.9863912312	 0.9021496919	 0.138153
H	-0.9951853377	-0.3307382795	 0.122588051	 0.146868
H	 0.5162037347	-0.3885544507	-0.8045633717	 0.126303
H	 3.2593938504	-1.2023384229	 2.9527027702	 0.164436
H	-0.7650444226	-0.8985113863	 4.8686596942	 0.114914
H	-2.4202459628	-0.4969081107	 4.3625140941	 0.120766
H	-1.8110364858	-2.1387213107	 4.1541995925	 0.119182
21.5628	50.2665	77.5408	180.166	184.8293	232.8812	236.0374	319.224	391.0312	550.9351	626.8517	635.2169	710.6378	752.1675	787.5113	806.759	940.6609	947.5453	1010.9638	1025.486	1094.8835	1103.8938	1129.804	1153.2549	1181.6148	1256.0236	1297.1978	1359.7575	1392.2668	1407.8188	1411.8773	1449.1906	1470.278	1491.113	1493.5345	1503.3846	1504.3626	1643.7926	1815.9563	2997.8559	3043.3386	3048.2158	3064.4005	3087.2283	3109.8946	3118.2167	3133.4273	3292.0166
CCN1N=COC1=NC	CCn1ncoc1=NC	
InChI=1S/C5H9N3O/c1-3-8-5(6-2)9-4-7-8/h4H,3H2,1-2H3	InChI=1S/C5H9N3O/c1-3-8-5(6-2)9-4-7-8/h4H,3H2,1-2H3
