17
gdb 127244	4.14301	0.88657	0.77609	2.1498	77.34	-0.235	-0.0199	0.215	1446.9371	0.135832	-418.03792	-418.028934	-418.027989	-418.074259	30.636	
C	 0.035546728	 1.4378049943	-0.0815131135	-0.319876
N	-0.0032507027	-0.0092415014	-0.0517141373	 0.066546
C	 0.176414612	-0.8671207682	-1.0840174583	-0.115446
C	-0.0249079828	-2.1465209453	-0.5916342622	 0.150297
C	 0.1011838002	-3.44666176	-1.3329496525	-0.390954
C	 1.5582707948	-3.7592305559	-1.6389844229	 0.164723
O	 1.9967603098	-3.9766660158	-2.7381048072	-0.240799
C	-0.3212891359	-1.9345473448	 0.7724340303	-0.078707
N	-0.3130907643	-0.6438226656	 1.0948834934	-0.26762
H	 0.5689470223	 1.7633209257	-0.9762835329	 0.141453
H	-0.9755917139	 1.8567551358	-0.0917628965	 0.14795
H	 0.5583667857	 1.7990537971	 0.8056469842	 0.158143
H	 0.4263880494	-0.5158594819	-2.0733036586	 0.140601
H	-0.2889604326	-4.259147292	-0.7060340164	 0.126016
H	-0.4538043864	-3.4522020111	-2.2755273758	 0.126606
H	 2.2179678685	-3.7516129311	-0.7413643521	 0.079063
H	-0.5407396621	-2.6757171198	 1.5282296981	 0.112007
24.2852	45.8782	54.7065	134.5169	214.0976	254.4978	374.6611	404.5308	457.8613	620.7974	650.6178	684.8316	747.4469	799.5705	829.9877	879.3094	1004.7812	1008.4485	1034.5716	1060.7151	1077.1733	1149.802	1180.9941	1188.1543	1243.1073	1288.0795	1338.509	1396.2444	1418.81	1420.8245	1451.3521	1459.0204	1476.2294	1481.721	1524.0238	1598.2259	1832.7674	2874.3858	3030.0064	3048.5683	3095.0934	3121.3874	3152.3915	3235.9626	3254.5882
CN1C=C(CC=O)C=N1	Cn1cc(CC=O)cn1	
InChI=1S/C6H8N2O/c1-8-5-6(2-3-9)4-7-8/h3-5H,2H2,1H3	InChI=1S/C6H8N2O/c1-8-5-6(2-3-9)4-7-8/h3-5H,2H2,1H3
