15
gdb 66880	3.15029	1.98555	1.78136	2.3925	68.94	-0.2094	-0.049	0.1605	804.0464	0.113313	-416.662853	-416.656718	-416.655774	-416.692829	26.345	
O	-0.0967510178	 1.4006170848	 0.0938735949	-0.461051
C	-0.0270212505	 0.0324549441	 0.0551818791	 0.380891
C	-0.2440073743	-0.7926247671	-1.2515834542	-0.110592
N	 0.8123843883	-1.7403694944	-1.3540537461	-0.134712
C	 0.8466524109	-2.2866336972	-0.1921016209	 0.080448
N	 1.9196631393	-1.7828512007	 0.6881035645	-0.344907
C	 0.7080734782	-0.8943894382	 1.1213162975	-0.09017
C	-0.3554276597	-1.9474837853	 0.7652785206	-0.101408
C	-1.1755975619	-0.9549406323	-0.0322787719	-0.157623
H	 0.6501975577	 1.7579290581	-0.4017546848	 0.297186
H	-0.5866442657	-0.2535188277	-2.1276886484	 0.106842
H	 2.0469519911	-2.4030900869	 1.4943618125	 0.225233
H	 0.805610993	-0.4551224904	 2.1142128565	 0.111872
H	-0.7338010178	-2.6912620012	 1.4597345377	 0.089066
H	-2.2445375807	-0.8034428857	-0.0635490669	 0.108926
242.108	301.0657	373.5012	421.6484	514.6608	541.3092	595.8202	662.1172	679.1557	705.8077	731.1479	754.2597	811.0664	857.8277	876.7887	900.4615	927.5385	939.5404	984.9895	1023.6244	1064.3943	1076.7218	1092.7943	1113.3432	1156.5692	1181.7418	1212.4886	1251.233	1281.5157	1288.1385	1320.4294	1434.404	1557.7005	3123.2695	3162.0661	3188.6699	3228.6207	3386.4732	3773.6378
OC12C3N=C4NC1C4C23	O[C@@]12[C@H]3[N][C]4N[C@@H]1[C@H]4[C@@H]23	
InChI=1S/C6H6N2O/c9-6-2-1-3(6)7-5(1)8-4(2)6/h1-4,9H,(H,7,8)	InChI=1S/C6H6N2O/c9-6-2-1-3(6)7-5(1)8-4(2)6/h1-4,9H,(H,7,8)/t1-,2-,3-,4+,6-/m1/s1
