19
gdb 84567	3.05427	1.67253	1.29977	1.6062	80.17	-0.2393	0.0034	0.2427	1006.6343	0.162164	-385.848736	-385.841799	-385.840854	-385.87977	29.044	
O	 0.1629621877	 1.4073502585	-0.1944356917	-0.43475
C	 0.0720860478	-0.0114249354	-0.021021911	 0.046786
C	 0.8196346649	-0.4711558713	 1.2012377128	-0.122434
C	 0.1660421802	-1.175730253	 2.1241189406	-0.093601
C	-1.2817002104	-1.5011282947	 1.9124173741	-0.017836
C	-1.7148573679	-1.9327758542	 0.4675017825	-0.069131
C	-3.1439846369	-1.435658769	 0.8084593856	-0.245248
C	-2.1870781604	-0.347559852	 1.3590661165	-0.066406
C	-1.3838085767	-0.4711395097	 0.0187563443	 0.000772
H	-0.151671019	 1.8098278223	 0.6228972019	 0.275551
H	 0.5463953999	-0.4160625208	-0.9253758166	 0.091682
H	 1.8640609163	-0.1899530506	 1.2955455349	 0.095392
H	 0.6541898926	-1.5240174165	 3.0299838724	 0.092092
H	-1.7201642726	-2.0882332559	 2.7233236203	 0.060383
H	-1.4323095901	-2.8574686468	-0.0394489148	 0.070678
H	-3.7763690679	-1.1502142656	-0.0363772175	 0.092456
H	-3.7001023191	-2.0167171655	 1.5497142191	 0.089413
H	-2.4555731201	 0.5698365807	 1.8879712975	 0.065453
H	-1.9181363281	-0.1211847004	-0.8699472209	 0.068748
132.8536	221.4792	313.4988	346.8549	387.7387	451.7904	522.4318	544.708	643.6007	720.0507	768.0354	789.3334	841.4857	867.0775	897.9975	902.3693	946.1739	991.3217	992.3209	1005.7845	1024.8052	1058.2103	1063.9016	1079.7569	1100.8974	1113.8921	1144.4419	1165.9832	1172.3305	1207.0293	1231.9901	1240.9747	1253.9242	1262.7527	1327.5092	1353.6058	1399.9792	1402.1978	1429.5103	1517.825	1706.5339	3018.0947	3047.2008	3061.8716	3073.3433	3084.0526	3096.4529	3113.1865	3160.1549	3185.1888	3797.4707
OC1C=CC2C3CC2C13	O[C@H]1C=C[C@@H]2[C@H]3C[C@@H]2[C@@H]13	
InChI=1S/C8H10O/c9-7-2-1-4-5-3-6(4)8(5)7/h1-2,4-9H,3H2	InChI=1S/C8H10O/c9-7-2-1-4-5-3-6(4)8(5)7/h1-2,4-9H,3H2/t4-,5-,6+,7-,8+/m0/s1
