19
gdb 89549	5.54679	0.87536	0.86825	4.4277	76.35	-0.271	0.0143	0.2853	1389.1417	0.158799	-423.055883	-423.047547	-423.046602	-423.089044	31.957	
C	-0.9443275987	 1.103143119	 0.019093946	-0.408477
C	 0.1147788593	 0.0186905371	 0.1342429298	 0.052074
C	 1.2469267287	-0.037975291	-0.9360884787	-0.309127
C	 2.231066015	-0.3683320163	 0.1965661026	 0.453045
C	 1.2205562649	 0.1655664769	 1.2234075822	-0.309126
C	 2.8689224808	-1.7623647413	 0.3357720797	-0.489307
C	 4.1834400759	-0.9855763146	 0.2785929285	 0.430585
O	 5.3491919965	-1.213215692	 0.314237369	-0.317897
O	 3.5682275339	 0.2342266725	 0.156105051	-0.271748
H	-0.4832987369	 2.0933125396	-0.0686154372	 0.117438
H	-1.5758601454	 0.9490852406	-0.8626707338	 0.119742
H	-1.5973571037	 1.1151091045	 0.8985741141	 0.119742
H	-0.3627802998	-0.9631772303	 0.2209525214	 0.078282
H	 1.158224535	-0.7503433203	-1.7599867901	 0.104616
H	 1.4583208683	 0.9555741047	-1.3433379455	 0.120696
H	 1.4243186229	 1.2181768059	 1.4428775698	 0.120695
H	 1.1103033165	-0.3805510659	 2.1634837778	 0.104616
H	 2.6960727403	-2.2829372218	 1.2796545376	 0.142076
H	 2.7177732465	-2.4504474272	-0.4981848343	 0.142075
73.5025	86.7918	230.5075	257.4689	298.1299	302.8229	387.4579	448.342	456.1415	523.1079	529.5388	702.7595	801.4044	820.836	839.7802	875.2253	902.2714	911.1678	952.7302	973.6801	1040.5415	1042.9763	1074.5102	1113.7626	1128.2042	1175.1086	1213.627	1216.5979	1229.1917	1236.3046	1282.3456	1287.5105	1322.5983	1378.3597	1415.3856	1453.7524	1466.2722	1491.2304	1495.9633	1498.9337	1940.3153	3026.6285	3044.573	3053.7669	3059.5236	3083.2687	3095.6245	3096.3759	3111.9444	3115.5815	3140.2382
CC1CC2(C1)CC(=O)O2	C[C@H]1C[C@@]2(C1)CC(=O)O2	
InChI=1S/C7H10O2/c1-5-2-7(3-5)4-6(8)9-7/h5H,2-4H2,1H3	InChI=1S/C7H10O2/c1-5-2-7(3-5)4-6(8)9-7/h5H,2-4H2,1H3/t5-,7+
