17
gdb 126040	3.80777	1.15402	1.03374	4.2065	76.78	-0.2419	-0.0121	0.2298	1186.3168	0.137058	-417.978072	-417.970189	-417.969245	-418.011144	29.375	
C	 0.0557588748	 1.5457265845	-0.3229257167	-0.409295
C	 0.0152391813	 0.0699784782	-0.0152445777	 0.009064
N	 1.2812168879	-0.6653536435	-0.0365422653	-0.322656
C	 0.560048132	-0.5445270994	 1.2435257806	-0.174737
C	 1.1958158882	 0.197161934	 2.3443811145	 0.488752
C	 1.0363904064	 0.1030836374	 3.696375188	-0.345626
C	 1.9094284882	 1.0984519626	 4.2034938702	 0.031961
N	 2.5418884775	 1.7374163386	 3.2507989538	-0.138305
O	 2.0886102823	 1.162397018	 2.0637646076	-0.20855
H	 0.9522468458	 2.0080244404	 0.0915154622	 0.159513
H	 0.0563507776	 1.7023356023	-1.4068094898	 0.12214
H	-0.824691547	 2.0491063139	 0.0902761452	 0.118097
H	-0.8593613696	-0.44945216	-0.4083961797	 0.088723
H	 1.1641563545	-1.6009541224	-0.4154545849	 0.238066
H	 0.0208841277	-1.4160581216	 1.6083915179	 0.094516
H	 0.3987861573	-0.5726101697	 4.241282162	 0.116398
H	 2.1023265951	 1.3703811366	 5.2318552019	 0.13194
53.4278	126.9921	172.4738	201.0896	276.1374	379.3522	440.8863	481.283	645.5267	675.3225	736.2034	778.3235	805.4806	856.2505	916.1057	922.5143	929.6635	944.4118	987.7341	1018.4453	1023.9499	1056.0328	1073.3946	1139.917	1173.0405	1208.0708	1244.2208	1247.0166	1304.8621	1361.029	1398.4266	1426.3535	1455.4994	1493.5259	1498.7204	1523.4633	1629.9371	3040.7422	3097.4589	3099.8282	3131.7156	3154.2453	3242.7447	3279.9103	3509.8622
CC1NC1C1=CC=NO1	C[C@H]1N[C@H]1c1ccno1	
InChI=1S/C6H8N2O/c1-4-6(8-4)5-2-3-7-9-5/h2-4,6,8H,1H3	InChI=1S/C6H8N2O/c1-4-6(8-4)5-2-3-7-9-5/h2-4,6,8H,1H3/t4-,6-/m1/s1
