14
gdb 18944	6.76972	1.50572	1.44865	1.3552	66.93	-0.2371	0.0411	0.2783	851.8965	0.106302	-345.266535	-345.260286	-345.259342	-345.296818	24.74	
C	-0.0626031422	-1.2792085864	-0.0843694099	-0.440592
C	-0.0594527895	-0.0766655476	-0.0592459947	 0.299675
C	-0.0472720082	 1.3720320869	-0.0209431977	-0.222685
C	-0.0202988599	 2.0703187162	 1.3676754483	-0.086306
C	 1.5180318421	 1.8591393864	 1.5259380074	 0.093618
O	 1.7973182808	 3.2588401344	 1.8258087046	-0.32492
C	 0.7584249563	 3.2992597073	 0.8057531019	 0.068635
C	 1.3286852003	 2.0952807595	-0.0052346031	-0.086306
H	-0.0682561431	-2.3407419456	-0.1094605215	 0.196277
H	-0.7725677308	 1.7917393983	-0.7259688889	 0.102544
H	-0.7724486283	 2.0637505249	 2.1553274305	 0.094697
H	 2.0702007973	 1.0848050588	 2.0544053545	 0.109071
H	 0.3911157228	 4.2655541607	 0.4624141249	 0.101595
H	 2.1028567123	 2.1169568964	-0.7709738665	 0.094697
124.5434	160.8877	353.3228	463.6757	516.9221	573.4851	618.5965	642.8105	756.325	781.928	799.8275	839.6119	851.117	898.8259	904.635	939.5269	975.2801	1027.8237	1043.1768	1090.361	1127.7484	1144.3219	1160.166	1168.0056	1181.7091	1219.3496	1269.4163	1327.8818	1368.053	2233.3229	3051.0367	3123.54	3132.3649	3135.598	3151.8573	3504.1566
C#CC1C2C3OC2C13	C#C[C@H]1[C@H]2[C@@H]3O[C@H]2[C@H]13	
InChI=1S/C7H6O/c1-2-3-4-6-5(3)7(4)8-6/h1,3-7H	InChI=1S/C7H6O/c1-2-3-4-6-5(3)7(4)8-6/h1,3-7H/t3-,4-,5+,6-,7+
