23
gdb 111103	2.94013	1.14881	1.06007	1.605	85.49	-0.2311	0.0901	0.3212	1304.6665	0.20648	-388.277239	-388.268369	-388.267425	-388.310754	34.812	
C	 0.0451717008	 1.5895640206	 0.0066381228	-0.378477
C	 0.0243813431	 0.067293173	 0.1927523317	-0.225562
C	-1.3786246467	-0.5204316847	 0.067134956	 0.049353
C	-2.0455429464	-0.6551647465	-1.3333802739	 0.10025
C	-1.2164044175	-1.9424031917	-1.5482251951	-0.252375
C	-1.5146245125	-2.0833265352	-0.020491731	-0.10009
C	-3.0460340379	-2.2394149414	-0.0858389386	 0.151997
C	-3.8367670919	-2.1076574112	 1.2054473797	-0.414852
O	-3.3545640203	-1.1562507352	-1.0091094515	-0.30235
H	 1.0537031409	 1.9911669966	 0.145555879	 0.111994
H	-0.2916380692	 1.8741220562	-0.9957285764	 0.117831
H	-0.6135416526	 2.0854112209	 0.7280482061	 0.116915
H	 0.7176506148	-0.3942446668	-0.5182071727	 0.097165
H	 0.4117579527	-0.1791818674	 1.1902849799	 0.097075
H	-2.0326344414	-0.034449778	 0.7984803511	 0.067568
H	-2.1333655743	 0.1524756258	-2.0593798741	 0.073884
H	-1.6395340728	-2.6917575442	-2.2219628715	 0.096962
H	-0.1664582356	-1.7712319026	-1.7810052433	 0.102332
H	-0.9646197466	-2.7627599594	 0.6315072359	 0.064783
H	-3.3134138545	-3.1910531204	-0.5670496802	 0.068862
H	-3.551536503	-1.2204212497	 1.7766763127	 0.118837
H	-4.9049194069	-2.0340681817	 0.9801476079	 0.127766
H	-3.6828914821	-2.990930417	 1.8350005555	 0.110134
64.3289	158.5272	172.0923	201.0885	232.5	275.5024	337.562	388.7948	486.6695	500.0457	528.9169	649.1754	750.6137	806.5432	837.968	850.0382	869.8228	885.2144	914.5022	948.8235	971.1172	1000.3394	1031.2497	1042.3013	1057.038	1072.438	1105.096	1119.6822	1130.7996	1146.7088	1159.8824	1216.5443	1239.4813	1255.0531	1264.9145	1285.5299	1298.2706	1333.4298	1352.8866	1396.4751	1403.8043	1409.7892	1412.9581	1482.1347	1487.6454	1494.1525	1498.6758	1500.7852	1512.3581	2993.873	3020.472	3032.1868	3037.4657	3047.6401	3065.7406	3075.5942	3101.1629	3104.1098	3106.3246	3112.7959	3119.9319	3127.4474	3149.1042
CCC1C2CC1C(C)O2	CC[C@H]1[C@H]2C[C@@H]1[C@@H](C)O2	
InChI=1S/C8H14O/c1-3-6-7-4-8(6)9-5(7)2/h5-8H,3-4H2,1-2H3	InChI=1S/C8H14O/c1-3-6-7-4-8(6)9-5(7)2/h5-8H,3-4H2,1-2H3/t5-,6-,7-,8-/m1/s1
