20
gdb 107171	4.61412	1.00473	0.93801	2.3219	79.64	-0.213	0.0678	0.2808	1317.7795	0.169812	-403.055511	-403.046599	-403.045655	-403.088884	34.056	
C	 0.0297497063	 1.4770053943	 0.0154388943	-0.416305
C	-0.0104190649	-0.0312948127	-0.0549851612	 0.013001
C	 0.702802651	-0.7180260202	-1.1552791263	-0.129433
N	 1.2892092472	-0.6734777408	 0.2341234613	-0.158779
C	 1.1543439552	-2.1864607278	 0.270051416	-0.042135
C	-0.1952423349	-2.7954831119	-0.0201849594	-0.365217
C	 0.6430401973	-2.260731906	-1.1475267213	 0.343765
C	 1.1257741494	-3.0812689994	-2.3059487925	-0.191681
O	 1.3928135837	-4.3965223288	-1.842617051	-0.418578
H	 0.9676976799	 1.8594899743	-0.3962940574	 0.127416
H	-0.8026329779	 1.912719369	-0.5474709527	 0.115317
H	-0.044398668	 1.8147593223	 1.0539899861	 0.125109
H	-0.9127258303	-0.4694938464	 0.3586513052	 0.086256
H	 1.1776641471	-0.1679275221	-1.9640291626	 0.086828
H	 1.9486925763	-2.7348135025	 0.7593702212	 0.108035
H	-0.1650658232	-3.8788144296	 0.0346115185	 0.135627
H	-1.1440851761	-2.3670454959	 0.2820363443	 0.109583
H	 0.3648653329	-3.0888272084	-3.1055439599	 0.089105
H	 2.0334077399	-2.616602215	-2.7271083947	 0.090613
H	 1.6592774391	-4.9315417425	-2.595373868	 0.291472
78.1216	152.8574	177.9965	208.8377	246.3904	263.7797	278.6023	349.5776	426.553	461.9861	574.7175	640.5126	730.0717	734.9471	811.4883	837.2298	901.7092	961.3488	964.0695	992.5843	1010.2591	1025.2319	1031.8682	1069.7908	1070.3728	1081.4346	1116.1567	1145.4326	1158.2433	1180.7273	1209.2562	1239.7362	1264.8863	1265.5735	1307.2555	1381.4997	1411.786	1439.2207	1472.6656	1489.8572	1495.1867	1504.0968	1523.083	2946.3954	2970.0408	3036.1435	3102.7565	3115.6119	3130.0357	3135.356	3162.9558	3197.4002	3216.721	3838.6139
CC1C2N1C1CC21CO	C[C@H]1[C@H]2N1[C@H]1C[C@@]21CO	
InChI=1S/C7H11NO/c1-4-6-7(3-9)2-5(7)8(4)6/h4-6,9H,2-3H2,1H3	InChI=1S/C7H11NO/c1-4-6-7(3-9)2-5(7)8(4)6/h4-6,9H,2-3H2,1H3/t4-,5-,6+,7-,8?/m0/s1
