19
gdb 91716	2.59653	1.53244	1.44047	2.7924	73.45	-0.2321	-0.0171	0.2149	1021.3038	0.160901	-423.061029	-423.053445	-423.052501	-423.093092	30.203	
C	-0.2248473143	 1.5634857336	-0.0246970037	-0.421856
C	 0.0379756192	 0.0583811678	-0.0104444086	 0.044327
C	 0.802197322	-0.5006840277	-1.253287866	-0.266375
C	 1.9205506991	-1.3357371431	-0.5734128401	-0.032855
O	 1.3079302721	-1.7797244594	 0.6434425062	-0.264381
C	 0.925814089	-0.4824327056	 1.1424430904	 0.048319
C	 2.289305753	 0.2300571811	 1.2203258839	-0.346763
C	 2.9559079771	-0.3292289324	-0.0501623066	 0.421302
O	 4.0157790426	-0.0305444651	-0.5291921538	-0.319517
H	 0.6919247913	 2.1406011507	-0.1826689081	 0.122783
H	-0.9162755266	 1.8262362721	-0.8314667329	 0.123755
H	-0.6753938294	 1.8984214856	 0.9161849342	 0.118258
H	-0.9219178666	-0.4607688788	 0.0711316899	 0.086906
H	 0.1672960836	-1.1425986392	-1.8674651751	 0.115451
H	 1.2068216423	 0.2878402781	-1.8950413305	 0.11738
H	 2.3281929844	-2.1703539922	-1.1400167007	 0.099727
H	 0.4118956957	-0.6012618617	 2.0963020132	 0.084702
H	 2.278421501	 1.3213596765	 1.2210041902	 0.129795
H	 2.8433567445	-0.1061665004	 2.1023811382	 0.139042
77.4936	174.6521	235.4406	277.692	347.5033	426.9359	463.2646	518.266	531.9989	600.5777	700.4644	735.6206	799.5456	814.5318	881.7005	918.0753	927.1649	935.4483	967.4533	986.1226	1022.0039	1054.9896	1078.2775	1120.0309	1139.4405	1151.8566	1197.3837	1225.6464	1254.6963	1261.4156	1289.4816	1318.2704	1329.3413	1353.4983	1371.911	1414.0393	1446.4418	1492.7362	1496.1907	1503.9971	1866.9432	3031.5216	3051.5285	3061.1184	3066.9097	3097.4411	3102.5513	3111.2936	3119.4847	3126.8529	3150.2464
CC1CC2OC1CC2=O	C[C@H]1C[C@@H]2O[C@H]1CC2=O	
InChI=1S/C7H10O2/c1-4-2-7-5(8)3-6(4)9-7/h4,6-7H,2-3H2,1H3	InChI=1S/C7H10O2/c1-4-2-7-5(8)3-6(4)9-7/h4,6-7H,2-3H2,1H3/t4-,6-,7-/m0/s1
