12
gdb 132890	3.08586	1.44975	0.98636	3.6781	62.45	-0.2156	-0.0637	0.1519	1058.4215	0.078076	-513.966795	-513.959726	-513.958782	-513.998376	26.847	
O	 0.0124308135	 1.3808473983	 0.0077794779	-0.4291
C	-0.0178316825	 0.0275496914	 0.0012379266	 0.38956
C	-1.1924477482	-0.6535775917	 0.0043487402	-0.099494
N	-1.1386602449	-2.0302869383	-0.0027534312	-0.338562
C	 0.020445732	-2.789841814	-0.0129012216	 0.307029
O	 0.0356412	-4.0062954052	-0.0190402072	-0.380454
C	 1.1989438641	-1.9014599611	-0.0150367242	 0.219355
F	 2.3604004055	-2.5210850574	-0.024576061	-0.034172
N	 1.1840437497	-0.6196625495	-0.0086112516	-0.367377
H	 0.9433315367	 1.6349206601	 0.0038364717	 0.30669
H	-2.1639518043	-0.1825075666	 0.0120397674	 0.15022
H	-1.9958430716	-2.5660804561	-0.0006916871	 0.276306
113.4381	239.8801	310.7065	331.0921	353.5856	386.3868	449.8982	490.8247	537.5207	612.9521	650.7983	703.8969	705.9063	782.1932	806.2199	835.9077	1017.2659	1110.5645	1211.9967	1233.0314	1332.733	1372.5136	1416.3546	1484.1376	1616.5968	1709.6053	1792.841	3245.9564	3610.069	3806.3697
OC1=CNC(=O)C(F)=N1	Oc1c[nH]c(=O)c(F)n1	
InChI=1S/C4H3FN2O2/c5-3-4(9)6-1-2(8)7-3/h1H,(H,6,9)(H,7,8)	InChI=1S/C4H3FN2O2/c5-3-4(9)6-1-2(8)7-3/h1H,(H,6,9)(H,7,8)
