15
gdb 16924	3.84178	2.19867	2.01663	2.4089	60.88	-0.2629	0.0236	0.2865	724.0256	0.122365	-399.820153	-399.81441	-399.813465	-399.849901	23.163	
N	-0.0520569103	 1.2657823283	 0.0073087856	-0.562932
C	-0.0229426798	 0.0071645531	-0.016630501	 0.448629
O	 1.1109885888	-0.7808787296	-0.0516237601	-0.255205
C	 0.626002861	-2.1434823102	-0.0156856051	 0.202895
C	-0.625679978	-2.0709175266	-0.8928127576	-0.262368
C	-1.193693038	-0.9538516547	 0.0145123308	-0.153737
C	-1.0963909218	-1.6739967862	 1.3821919423	-0.084784
O	 0.1388577183	-2.4207617853	 1.2736715805	-0.259141
H	 0.8960198935	 1.6475186482	-0.0016916629	 0.22587
H	 1.447569235	-2.8133332764	-0.2560831671	 0.106588
H	-0.4216468083	-1.7510591159	-1.9154318569	 0.125662
H	-1.2062160121	-2.9951237033	-0.8825035558	 0.118071
H	-2.1553031728	-0.5057551543	-0.2184482441	 0.108108
H	-1.0336456474	-0.9845476284	 2.2283828152	 0.130888
H	-1.930969138	-2.3673535087	 1.538407846	 0.111455
153.5418	273.2685	419.1853	467.362	502.4557	581.0901	711.3534	756.5923	821.5741	859.3795	886.1991	896.8763	906.2313	928.1357	956.9564	976.4778	987.7319	1035.5434	1080.4304	1098.9162	1131.1718	1176.768	1223.2319	1253.1687	1277.4999	1297.2956	1312.9618	1373.0652	1383.3358	1492.0304	1522.8177	1799.1289	3034.9067	3084.1406	3096.3228	3147.2253	3168.7943	3172.1672	3466.794
N=C1OC2CC1CO2	[NH][C]1O[C@@H]2C[C@H]1CO2	
InChI=1S/C5H7NO2/c6-5-3-1-4(8-5)7-2-3/h3-4,6H,1-2H2	InChI=1S/C5H7NO2/c6-5-3-1-4(8-5)7-2-3/h3-4,6H,1-2H2/t3-,4+/m0/s1
