15
gdb 77445	2.44538	1.56174	1.24391	2.9407	62.41	-0.2593	-0.0053	0.2539	1025.1532	0.109792	-494.885607	-494.876921	-494.875977	-494.918603	31.979	
C	 0.0979048826	 1.5284641858	-0.0297414226	-0.494201
C	 0.0518740513	 0.04668919	 0.0839758808	 0.348283
O	 0.5855512707	-0.7659911518	-1.0133925477	-0.289777
C	 1.2217754366	-1.6227417825	-0.1224327935	 0.423398
O	 1.971298679	-2.510986	-0.3651729772	-0.33925
C	 0.6015387045	-0.961151512	 1.0728497474	 0.060098
O	 1.0964084704	-0.7763370762	 2.3441157285	-0.454186
C	-0.9266478192	-0.8208586784	 0.8141700091	 0.004682
O	-1.6047939406	-0.2615008996	 1.8855191959	-0.428344
H	 1.1248725777	 1.8932642831	-0.1177282796	 0.141554
H	-0.465774508	 1.8548530972	-0.9095565509	 0.147191
H	-0.3663632557	 1.9702841387	 0.8552951658	 0.147289
H	 1.1825608877	-1.6408711177	 2.7664576826	 0.312708
H	-1.4872149431	-1.584590844	 0.2790976392	 0.12314
H	-0.989016604	-0.2225281827	 2.6319618621	 0.297414
137.2816	151.0011	176.1226	210.1001	225.0351	261.2572	301.3331	360.8782	432.3208	463.2432	551.3174	623.4674	642.1683	664.3606	744.2962	797.9151	866.1818	932.4719	1003.0658	1009.3024	1072.2958	1113.1973	1170.8918	1186.4335	1283.7424	1314.857	1351.9229	1390.8101	1414.2138	1474.4036	1485.4199	1511.2212	1942.9451	3045.4633	3113.5951	3133.1668	3135.0275	3725.9972	3774.3131
CC12OC(=O)C1(O)C2O	C[C@@]12OC(=O)[C@]1(O)[C@H]2O	
InChI=1S/C5H6O4/c1-4-2(6)5(4,8)3(7)9-4/h2,6,8H,1H3	InChI=1S/C5H6O4/c1-4-2(6)5(4,8)3(7)9-4/h2,6,8H,1H3/t2-,4-,5+/m0/s1
