18
gdb 65698	4.52143	0.81001	0.7693	2.9565	78.29	-0.2619	-0.0394	0.2225	1461.5953	0.145188	-401.96524	-401.955655	-401.954711	-402.000396	34.027	
C	-0.1580756067	 1.6343557444	 0.1916744896	-0.464443
C	-0.0042087083	 0.134321867	 0.0247827116	 0.315004
C	-1.2231697205	-0.5693329432	-0.5567752352	-0.34817
C	-1.5022210931	-0.1465649016	-1.9888833739	 0.166793
O	-2.5810988995	 0.1800339726	-2.4073917715	-0.232516
C	 1.355191761	-0.4202268806	-0.3029956378	-0.316456
C	 0.7741079954	-0.6458328609	 1.0866781101	-0.22925
C	 1.3455216389	 0.0289962797	 2.2170250591	 0.292957
N	 1.8004838923	 0.5764501885	 3.1294368775	-0.340026
H	 0.7271625648	 2.0822199178	 0.6487459475	 0.145435
H	-0.3197460646	 2.1160101409	-0.7787185017	 0.13178
H	-1.0184269791	 1.8683153378	 0.8272751534	 0.138127
H	-1.0512805355	-1.6549761426	-0.5746071881	 0.122328
H	-2.1206364701	-0.3817403733	 0.0406393855	 0.132678
H	-0.6088102342	-0.1697279808	-2.6552811768	 0.080453
H	 1.4352487616	-1.2942950529	-0.9399381373	 0.128969
H	 2.1835105513	 0.2740746916	-0.3825481264	 0.14323
H	 0.4193025061	-1.6463461145	 1.3117270346	 0.133107
54.0153	71.1906	123.4439	145.6619	203.4539	229.6569	295.9881	340.9214	358.1961	423.6834	482.4486	554.2869	611.8118	709.8699	789.1505	816.4554	869.9112	941.7094	956.7461	980.2915	1014.3832	1060.716	1087.2524	1098.6027	1112.6597	1134.6576	1201.8084	1256.9515	1312.6822	1345.5994	1396.3686	1426.0771	1428.5769	1455.2315	1484.1148	1492.6632	1499.1701	1838.4851	2351.5919	2864.9921	3015.9715	3037.2578	3092.9092	3099.7093	3126.8356	3140.9146	3163.8264	3231.3982
CC1(CC=O)CC1C#N	C[C@@]1(CC=O)C[C@H]1C#N	
InChI=1S/C7H9NO/c1-7(2-3-9)4-6(7)5-8/h3,6H,2,4H2,1H3	InChI=1S/C7H9NO/c1-7(2-3-9)4-6(7)5-8/h3,6H,2,4H2,1H3/t6-,7+/m0/s1
