16
gdb 11886	4.54479	1.55958	1.32671	3.0343	64.45	-0.2423	-0.021	0.2213	923.0181	0.130139	-383.753872	-383.746795	-383.745851	-383.785482	26.938	
O	 0.0627263642	-0.0011176242	 0.1502439227	-0.306562
C	-0.0084914375	 1.1966583824	 0.0789456126	 0.401461
C	-1.1893932594	 2.0586862977	 0.5494227002	-0.319285
C	-0.9554486577	 3.4407252967	-0.0843836449	-0.296879
C	 0.5627917145	 3.5252302408	-0.2119783805	 0.425372
C	 1.2930545419	 4.7566836479	-0.509152274	-0.255749
O	 1.2470802187	 4.2420847308	 0.8264682407	-0.271206
C	 1.0667275655	 2.1252104112	-0.5090884958	-0.39923
H	-2.1414015359	 1.5847720844	 0.3019720861	 0.13031
H	-1.1288357135	 2.1158888454	 1.6437869544	 0.145543
H	-1.4131062903	 3.4862478233	-1.079831738	 0.11244
H	-1.345656034	 4.2714354736	 0.5067107364	 0.121266
H	 2.2660951149	 4.7065102898	-0.9968392367	 0.115324
H	 0.7443709063	 5.684315472	-0.6716871569	 0.113406
H	 2.0510615622	 1.9243923275	-0.080786058	 0.146653
H	 1.1251091701	 1.9347810506	-1.5883187983	 0.137137
68.2689	126.7622	282.275	357.1534	376.5579	464.8401	478.9299	515.3685	593.8958	708.5648	757.0783	803.3365	841.1368	901.9472	912.4165	979.9649	985.6423	990.8228	1124.2645	1125.8027	1151.4396	1167.5219	1185.7176	1206.0823	1242.5319	1272.1176	1293.1286	1315.7357	1421.2763	1441.2416	1449.4544	1482.8883	1535.5837	1853.505	3038.2025	3041.6114	3044.4345	3076.3986	3112.9969	3118.1031	3118.9665	3160.6116
O=C1CCC2(CO2)C1	O=C1CC[C@]2(CO2)C1	
InChI=1S/C6H8O2/c7-5-1-2-6(3-5)4-8-6/h1-4H2	InChI=1S/C6H8O2/c7-5-1-2-6(3-5)4-8-6/h1-4H2/t6-/m1/s1
