18
gdb 90908	3.59724	1.52139	1.43491	1.4201	76.55	-0.2206	-0.0076	0.213	976.3676	0.147776	-401.792346	-401.785167	-401.784223	-401.823422	29.778	
C	-0.3374225091	 1.5080107523	-0.111191043	-0.40621
C	 0.0347165004	 0.0459511533	 0.0014241959	 0.034731
O	 1.1418782097	-0.3443496736	-0.9386075283	-0.328433
C	 2.06254452	-0.1505314415	 0.1820915814	 0.142045
C	 2.903408046	-0.9490878458	 1.28647519	-0.134894
N	 1.9913279221	-0.0969304288	 2.2302451516	-0.39298
C	 0.9714886013	-0.4657878553	 1.1448368578	 0.186413
C	 0.9618531805	-2.0079143045	 1.1800603006	-0.105827
C	 2.2521008523	-2.3227112072	 1.2909932269	-0.077037
H	 0.4986674402	 2.1645001455	 0.1402852316	 0.133514
H	-0.660717685	 1.7319651142	-1.1318790074	 0.132157
H	-1.1666130971	 1.731838244	 0.5681884308	 0.123001
H	-0.829733851	-0.6011948596	-0.1814402242	 0.088071
H	 2.4170801259	 0.8815115061	 0.1651907073	 0.104042
H	 3.9791143426	-0.8348011535	 1.4259079485	 0.077647
H	 1.8154881644	-0.6192503638	 3.0921398055	 0.207801
H	 0.0813154001	-2.6304119832	 1.1038530174	 0.103521
H	 2.7531843566	-3.2785094587	 1.3333883176	 0.112436
172.6325	213.6082	216.6819	333.6506	360.0986	472.7952	515.593	546.5647	594.374	679.1946	714.02	740.584	768.741	820.8374	825.3247	851.3138	902.544	925.262	945.7866	980.2235	998.2552	1007.7894	1055.453	1083.3388	1098.8994	1132.0818	1144.9311	1208.2315	1234.6848	1243.512	1267.3397	1293.1112	1314.5096	1364.6004	1389.2749	1410.6976	1486.0564	1491.0525	1624.6915	3042.8422	3051.6942	3090.4964	3111.6907	3115.6859	3130.9471	3222.6993	3252.6397	3419.234
CC1OC2C3NC12C=C3	C[C@H]1O[C@@H]2[C@H]3N[C@@]12C=C3	
InChI=1S/C7H9NO/c1-4-7-3-2-5(8-7)6(7)9-4/h2-6,8H,1H3	InChI=1S/C7H9NO/c1-4-7-3-2-5(8-7)6(7)9-4/h2-6,8H,1H3/t4-,5+,6-,7+/m1/s1
