18
gdb 50095	4.49618	0.72151	0.6684	2.2707	74.51	-0.2514	-0.0302	0.2212	1642.5011	0.146262	-439.038752	-439.029782	-439.028838	-439.073942	31.835	
O	-0.1295719079	 0.2296176629	 0.8119080623	-0.257308
C	 0.4563015758	 0.6580408963	-0.1506108893	 0.175023
C	 1.3026169842	 1.8832316973	-0.1217556539	-0.136495
N	 2.3093036727	 1.9948111121	-1.2005048853	-0.335863
C	 1.2092447227	 2.9507986145	-1.1774148479	 0.002483
C	 0.2362902403	 2.9300883139	-2.3392017424	-0.250264
C	 0.7585629624	 3.7667118317	-3.4846708689	 0.100785
C	-0.1156229951	 4.6170724273	-4.2996347807	-0.178196
O	 0.722633567	 5.1857857271	-3.2914653866	-0.239793
H	 0.4125190997	 0.1526754253	-1.1397098318	 0.084471
H	 1.5549072189	 2.2174293605	 0.8817199082	 0.107759
H	 3.1661050879	 2.4001815973	-0.8347262641	 0.246201
H	 1.4247437564	 3.9545035814	-0.8136204518	 0.115681
H	 0.0820493552	 1.9034335928	-2.6855507721	 0.113429
H	-0.732015607	 3.3265319485	-2.0131077793	 0.114261
H	 1.6857900267	 3.4071481192	-3.9331422338	 0.104018
H	 0.1598230529	 4.854480901	-5.3260454082	 0.11814
H	-1.1840340025	 4.6439929107	-4.0883523646	 0.115669
47.3383	75.1781	82.627	143.2729	214.8648	288.6633	355.0214	398.32	462.5614	467.9956	540.9687	788.1795	814.7744	835.2921	876.0511	922.4474	943.0493	954.4944	994.4402	1018.8894	1050.7303	1091.1622	1103.535	1146.5607	1159.3401	1171.7425	1194.9421	1231.2343	1239.0958	1278.9038	1292.0097	1318.6079	1365.163	1419.4203	1444.0494	1460.7532	1469.1354	1529.7073	1822.7362	2900.2783	3045.0783	3083.0582	3091.0851	3109.0992	3124.416	3147.9324	3170.1308	3517.1344
O=CC1NC1CC1CO1	O=C[C@H]1N[C@H]1C[C@H]1CO1	
InChI=1S/C6H9NO2/c8-2-6-5(7-6)1-4-3-9-4/h2,4-7H,1,3H2	InChI=1S/C6H9NO2/c8-2-6-5(7-6)1-4-3-9-4/h2,4-7H,1,3H2/t4-,5-,6+/m0/s1
