16
gdb 20371	6.03749	1.47715	1.31155	2.3282	71.41	-0.2309	0.0227	0.2536	941.8638	0.133049	-342.785378	-342.778688	-342.777744	-342.817058	25.397	
C	-0.2140690279	 1.3102230729	-0.2894929663	-0.285155
C	 1.2055649482	 1.0832654383	 0.1822893329	-0.285196
C	 0.2344910453	-0.0638586304	 0.1261544713	 0.097589
N	-0.2620027678	-0.6770766529	 1.3250479249	 0.044244
C	-0.568364904	-0.1121262845	 2.5202089088	-0.0372
C	-1.0054932748	-1.129619683	 3.3445139547	-0.234776
C	-0.9251147847	-2.2853196149	 2.545003756	-0.003441
N	-0.475047203	-2.0099340559	 1.3223707803	-0.267111
H	-0.8884042988	 1.8383995493	 0.3754665151	 0.125492
H	-0.3954361274	 1.4872735764	-1.3435770069	 0.126636
H	 2.0100540495	 1.1026775372	-0.5441781723	 0.12664
H	 1.4780984832	 1.4601230553	 1.1618671961	 0.125489
H	 0.3654146695	-0.8229223792	-0.6329697916	 0.124479
H	-0.4568967275	 0.9459064662	 2.6956148026	 0.128713
H	-1.3314994709	-1.0421698842	 4.3680800611	 0.102976
H	-1.1742094187	-3.3040252205	 2.8032073535	 0.110621
37.3	157.8125	207.4389	417.6357	421.5388	626.2764	634.28	674.8318	760.3133	776.2209	813.1328	823.8307	883.5388	905.8959	937.1986	945.3159	981.1224	1060.2335	1066.0922	1073.5769	1091.6561	1119.6372	1130.7335	1197.1165	1213.804	1230.5066	1258.4747	1367.9108	1416.1945	1434.7694	1466.2112	1483.3398	1505.0304	1557.7932	3137.761	3140.5971	3213.3197	3218.5691	3234.266	3244.6974	3257.6729	3278.2116
C1CC1N1C=CC=N1	C1CC1n1cccn1	
InChI=1S/C6H8N2/c1-4-7-8(5-1)6-2-3-6/h1,4-6H,2-3H2	InChI=1S/C6H8N2/c1-4-7-8(5-1)6-2-3-6/h1,4-6H,2-3H2
