15
gdb 47011	2.83175	1.85325	1.47476	2.8848	60.07	-0.2626	-0.0022	0.2604	888.9887	0.11487	-494.931167	-494.924445	-494.923501	-494.962593	25.514	
O	-0.0202301605	 0.0416325429	-0.3981144921	-0.325911
C	-0.0265641515	 1.1681639466	 0.0108987419	 0.438168
O	-1.1740223584	 1.7336085675	 0.4538652836	-0.237909
C	-1.2061157556	 3.0860372952	 0.9498256646	-0.084367
C	 0.1203876363	 3.8137034027	 0.7559534327	 0.164678
O	 0.3462764837	 4.1157092363	-0.6130169204	-0.270987
C	 1.160703223	 3.0651506254	-1.1411237517	-0.099931
C	 1.2086662819	 2.0660853604	 0.0296305214	-0.108629
O	 1.1590266418	 2.9466540848	 1.1534772269	-0.237536
H	-2.0080550549	 3.6071984327	 0.4200727272	 0.135435
H	-1.4500410997	 3.035824578	 2.0162125644	 0.12866
H	 0.1626285881	 4.7326467155	 1.3472839327	 0.110988
H	 0.7054980411	 2.6525944451	-2.0458243396	 0.136866
H	 2.1611993762	 3.4461348001	-1.3734770215	 0.121223
H	 2.1067465485	 1.4536577366	 0.0778869202	 0.129251
103.5282	152.5344	229.6072	353.8321	425.7315	441.5814	539.0553	679.111	703.0366	747.9129	831.3297	852.7011	892.4381	912.9656	957.5113	1013.565	1029.7514	1042.6028	1058.0254	1110.843	1145.6467	1194.7143	1247.9497	1255.4234	1266.1259	1303.0459	1337.2957	1368.341	1383.2292	1422.6326	1498.4445	1521.298	1859.854	3041.3324	3050.581	3087.7885	3099.2231	3107.7685	3153.6129
O=C1OCC2OCC1O2	O=C1OC[C@@H]2OC[C@H]1O2	
InChI=1S/C5H6O4/c6-5-3-1-7-4(9-3)2-8-5/h3-4H,1-2H2	InChI=1S/C5H6O4/c6-5-3-1-7-4(9-3)2-8-5/h3-4H,1-2H2/t3-,4-/m1/s1
