12
gdb 123500	4.3111	1.78245	1.26106	3.8014	69.05	-0.268	-0.0918	0.1762	875.6141	0.081904	-427.842905	-427.837377	-427.836433	-427.87285	21.478	
C	-0.0130086471	 1.3080624283	 0.0097552936	-0.17033
C	 1.2872274109	 1.7970596366	-0.0006560971	 0.351919
C	 2.0174725138	 3.0029945688	-0.0015602268	-0.058522
N	 3.3272318245	 3.0088224109	-0.0147258174	-0.271758
C	 3.9429203248	 1.7883868989	-0.0274264298	 0.113288
N	 3.3924014409	 0.6008125936	-0.0282244865	-0.197515
N	 2.0519204353	 0.6400316038	-0.0145324323	 0.078725
N	 1.2911371184	-0.4537732283	-0.0126388127	-0.131874
N	 0.0364845203	-0.0358904785	 0.0022232122	-0.169282
H	-0.9473095114	 1.8455699786	 0.0219752521	 0.147045
H	 1.4993476473	 3.9588661211	 0.008717104	 0.152348
H	 5.0270704822	 1.7924100563	-0.0383361093	 0.155956
211.2473	236.8784	436.1074	446.6048	575.4453	614.4023	672.0352	697.066	780.2297	788.0569	843.667	909.9527	951.4672	972.769	1002.8748	1095.4412	1147.2203	1187.7295	1274.0967	1307.4146	1329.205	1343.7361	1379.8779	1407.5186	1503.4315	1546.9619	1640.9296	3166.6145	3210.0012	3272.734
C1=C2C=NC=NN2N=N1	c1c2cncnn2nn1	
InChI=1S/C4H3N5/c1-4-2-6-8-9(4)7-3-5-1/h1-3H	InChI=1S/C4H3N5/c1-4-2-6-8-9(4)7-3-5-1/h1-3H
