15
gdb 5203	6.33619	1.17175	1.08416	1.2003	68.46	-0.2151	-0.0393	0.1758	1063.6671	0.118967	-362.698593	-362.691162	-362.690217	-362.732147	26.343	
O	-0.3368881392	 0.3800578641	 0.7646281643	-0.224194
C	-0.0067928438	 1.0948199913	-0.1419376237	 0.143961
C	 1.3195050712	 1.8585455596	-0.1659615221	-0.269062
N	 1.3615652384	 2.8841470085	-1.1775465725	 0.034733
C	 1.828180821	 2.724367286	-2.4619280621	-0.104097
C	 1.5866329868	 3.8868836965	-3.1555988607	-0.162978
C	 0.9399532951	 4.7849792172	-2.2627784074	-0.160566
C	 0.809305051	 4.1390986952	-1.0559322538	-0.103321
H	-0.6397111607	 1.2514830411	-1.0440636007	 0.104675
H	 1.4947601985	 2.2859032419	 0.8261678755	 0.152671
H	 2.1227467684	 1.1352296099	-0.3477903308	 0.152556
H	 2.2989713857	 1.8010904644	-2.761378469	 0.117861
H	 1.855359127	 4.0759073485	-4.1834331448	 0.098721
H	 0.6179911675	 5.7923479303	-2.477278631	 0.098793
H	 0.3840030029	 4.4607922254	-0.1181710813	 0.120245
22.4871	75.4144	103.4377	332.0258	346.0851	431.4553	623.6399	634.0812	679.3362	699.4127	742.0349	771.6177	800.2966	856.7625	884.3952	988.1484	1024.9986	1054.8517	1083.4678	1102.0538	1116.2425	1204.9975	1300.9856	1315.535	1337.7562	1403.5468	1421.7671	1424.1532	1445.13	1531.1478	1563.1362	1840.8749	2891.696	3048.2936	3098.196	3240.3425	3249.6154	3260.8898	3270.122	22.485	75.4139	103.4379	332.0259	346.0849	431.4551	623.639	634.0808	679.3363	699.4128	742.035	771.6176	800.2966	856.7621	884.3948	988.1484	1024.9983	1054.8513	1083.4678	1102.0535	1116.2423	1204.997	1300.9852	1315.5346	1337.7561	1403.5463	1421.7674	1424.1532	1445.1295	1531.1477	1563.1362	1840.8736	2891.6957	3048.2937	3098.1961	3240.3425	3249.6154	3260.8897	3270.1219
O=CCN1C=CC=C1	O=CCn1cccc1	
InChI=1S/C6H7NO/c8-6-5-7-3-1-2-4-7/h1-4,6H,5H2	InChI=1S/C6H7NO/c8-6-5-7-3-1-2-4-7/h1-4,6H,5H2
