19
gdb 84817	3.17609	1.0921	0.87439	1.6624	81.82	-0.2527	0.0064	0.2591	1321.3997	0.158729	-385.865176	-385.856226	-385.855282	-385.899063	34.042	
O	 0.0655261791	 1.456552274	 0.6176168102	-0.425921
C	-0.0246835023	 0.1410457408	 0.060560713	 0.066272
C	 0.8872532856	-0.8249563972	 0.7788602177	-0.114671
C	 0.2013773101	-1.6666919147	 1.5537052844	-0.061177
C	-1.2907652274	-1.4768418874	 1.4338593448	-0.269605
C	-1.4239126167	-0.5315813413	 0.2126157473	-0.014035
C	-2.5858047709	 0.4734272934	 0.2812758119	-0.368144
C	-3.8891482076	-0.1746399918	 0.3725224649	 0.297771
C	-4.9526542739	-0.7307422495	 0.4466454879	-0.443635
H	 0.1493118907	 1.3575668585	 1.5725621941	 0.276625
H	 0.2274690933	 0.2814168746	-0.9955335212	 0.087182
H	 1.9671587141	-0.7537409577	 0.7139372932	 0.099296
H	 0.6429275181	-2.4061755787	 2.2139006647	 0.099778
H	-1.8288622446	-2.4183614677	 1.2847788296	 0.119069
H	-1.7080346658	-1.0366831767	 2.3509092209	 0.109426
H	-1.5676201689	-1.160004046	-0.673159222	 0.091077
H	-2.4399186217	 1.1403449048	 1.1386063523	 0.125857
H	-2.5580105406	 1.1223947118	-0.6027626622	 0.133727
H	-5.8990083207	-1.2073439089	 0.5120396586	 0.191109
71.5029	93.5167	120.3776	238.4289	263.7443	337.952	351.5714	359.0407	445.4228	501.9264	541.551	618.2024	635.3694	726.3278	748.3033	796.0075	806.9999	876.8633	922.5264	967.4903	968.4595	982.4439	1001.4696	1057.951	1092.3176	1109.1258	1136.7058	1160.2157	1220.2964	1246.4015	1286.1358	1300.3645	1317.3463	1343.7743	1371.5679	1382.0443	1427.9689	1463.5323	1486.9095	1676.6095	2236.4085	3010.6724	3032.8977	3040.6996	3059.738	3067.9321	3076.271	3179.917	3206.994	3507.4738	3800.0966
OC1C=CCC1CC#C	O[C@H]1C=CC[C@H]1CC#C	
InChI=1S/C8H10O/c1-2-4-7-5-3-6-8(7)9/h1,3,6-9H,4-5H2	InChI=1S/C8H10O/c1-2-4-7-5-3-6-8(7)9/h1,3,6-9H,4-5H2/t7-,8+/m1/s1
