22
gdb 115483	3.11154	0.95285	0.82515	1.0903	84.36	-0.2387	0.0288	0.2675	1524.6942	0.194185	-404.386595	-404.376673	-404.375729	-404.422517	35.549	
C	-0.1489538593	 1.5855529604	-0.590202087	-0.380018
C	-0.0108141484	 0.1835430316	 0.0059230772	-0.17496
C	-1.3192628979	-0.6143510773	-0.019351554	 0.025426
C	-1.1869089182	-2.0496728197	 0.5597878239	-0.132099
O	-2.2100752538	-2.1202920888	 1.5742142582	-0.259535
C	-2.7671212487	-0.8750652214	 1.6315430531	 0.410179
C	-3.8196860903	-0.7065673057	 2.6798305647	-0.271037
C	-3.2851024766	-0.9406452567	 4.1019225496	-0.379252
N	-2.3598921555	 0.0106884564	 0.8169586921	-0.320035
H	 0.7973964986	 2.1323025854	-0.5359683141	 0.107086
H	-0.4471186562	 1.5381596258	-1.6436917268	 0.110319
H	-0.9110039668	 2.1563037918	-0.053850359	 0.141483
H	 0.7529542203	-0.3849257322	-0.5415937306	 0.09144
H	 0.3333895974	 0.2491399186	 1.046245356	 0.096322
H	-1.6856765473	-0.6447206953	-1.0545585893	 0.080691
H	-1.3704518657	-2.8419200166	-0.1704140564	 0.115024
H	-0.2155596076	-2.2250421868	 1.0363888791	 0.109107
H	-4.2292937821	 0.2999855323	 2.5742315855	 0.129675
H	-4.6269030234	-1.4197617339	 2.4725827292	 0.121202
H	-4.0884135059	-0.8258425558	 4.8348765504	 0.117845
H	-2.8692629006	-1.9463563678	 4.2010329572	 0.13544
H	-2.4977903221	-0.2209958745	 4.3462746212	 0.125696
37.2381	81.698	101.5003	136.1166	185.4031	216.2412	235.9044	283.0964	369.3147	408.069	459.898	634.6778	695.4464	723.7926	791.1931	803.1423	851.8922	925.1251	960.379	973.034	976.6089	1005.8082	1026.2436	1065.4886	1088.8551	1116.2097	1129.3613	1168.9631	1225.4538	1244.4474	1281.0622	1294.2477	1319.0828	1337.8994	1359.4874	1388.2636	1389.4236	1406.8377	1410.3706	1473.8516	1480.9162	1494.7866	1496.7952	1508.6833	1509.593	1520.7941	1736.8372	3003.823	3013.341	3035.4608	3037.5266	3040.4177	3046.0405	3052.4598	3094.6639	3099.1958	3109.1677	3116.9033	3126.054	3132.9931
CCC1COC(CC)=N1	CC[C@H]1COC(=N1)CC	
InChI=1S/C7H13NO/c1-3-6-5-9-7(4-2)8-6/h6H,3-5H2,1-2H3	InChI=1S/C7H13NO/c1-3-6-5-9-7(4-2)8-6/h6H,3-5H2,1-2H3/t6-/m0/s1
