22
gdb 10221	2.18979	1.1781	0.82374	1.3619	75.07	-0.2574	0.0787	0.3361	1434.8449	0.198183	-387.332963	-387.322298	-387.321354	-387.369167	37.301	
C	 0.8063274834	 1.7866136265	 0.3750020626	-0.387687
C	 0.3725153865	 0.3207565228	 0.2566671447	-0.187411
C	 0.8330793021	-0.5888343244	 1.4134281666	 0.042145
C	 0.0345833888	-0.3048245001	 2.6883802019	-0.089162
O	 0.6449026282	-1.0042126794	 3.7650844784	-0.421967
C	 0.7374711791	-2.0831312028	 1.0529851865	-0.180705
C	 1.8656773772	-2.5780706331	 0.156576574	-0.082747
O	 1.6199314195	-3.9475956982	-0.1330689587	-0.421162
H	 1.8975163303	 1.8698534116	 0.4291369161	 0.115925
H	 0.4724123997	 2.3641609176	-0.492856367	 0.112016
H	 0.3950241825	 2.2712445023	 1.2659812454	 0.11758
H	-0.7219037984	 0.2635329263	 0.1736953664	 0.093429
H	 0.7602398471	-0.0816235099	-0.6859404773	 0.09825
H	 1.8821032359	-0.3538346057	 1.646938482	 0.074842
H	 0.0142832947	 0.775923785	 2.8922679254	 0.082918
H	-1.0085729791	-0.6320118024	 2.5418310102	 0.083305
H	 0.0889689403	-0.9047989395	 4.5428885614	 0.286213
H	 0.7518352213	-2.6754415593	 1.9721923363	 0.120939
H	-0.2192635787	-2.2858797168	 0.5536362048	 0.093908
H	 1.91641141	-1.9857345459	-0.7713296184	 0.080348
H	 2.8291311436	-2.4481325968	 0.6764605028	 0.086026
H	 2.336291386	-4.2692382578	-0.6878858841	 0.282994
66.3843	78.4901	92.9095	116.6811	176.7268	214.7166	247.4083	260.5278	265.4914	274.8559	350.9061	430.8515	486.1741	517.4524	763.6059	786.1441	872.1833	919.5013	963.6237	1014.8589	1032.6513	1041.7681	1069.7821	1075.2224	1131.0671	1132.6307	1172.4065	1221.8813	1236.9562	1255.3305	1275.6044	1300.4334	1316.5532	1325.0945	1343.4246	1375.6537	1396.083	1414.2955	1455.8078	1462.7863	1487.4031	1497.2548	1501.7765	1507.9652	1520.5794	1527.9366	2959.5442	2961.3789	2984.143	2995.5433	3008.1934	3015.8018	3031.1041	3034.2898	3058.0131	3097.0022	3098.8306	3105.5558	3829.3678	3835.7811
CCC(CO)CCO	CC[C@@H](CO)CCO	
InChI=1S/C6H14O2/c1-2-6(5-8)3-4-7/h6-8H,2-5H2,1H3	InChI=1S/C6H14O2/c1-2-6(5-8)3-4-7/h6-8H,2-5H2,1H3/t6-/m1/s1
