17
gdb 34857	2.67226	1.63179	1.48429	0.9285	73.03	-0.2379	0.035	0.2729	960.9982	0.136582	-421.764817	-421.757348	-421.756404	-421.796596	29.3	
C	-0.1408681281	-1.3331126762	-0.1758848272	-0.458573
C	-0.0524799503	-0.1396945224	-0.0595426961	 0.337121
C	 0.0151974963	 1.3012094362	 0.0409209286	-0.203202
C	-0.1020677346	 2.0565205519	 1.398066499	 0.049883
C	 0.6788225032	 1.3546474675	 2.497530412	-0.074248
O	 1.8538989301	 0.7444933797	 1.9756825032	-0.266243
C	 2.4289027473	 1.3877500933	 0.8438616865	-0.074245
C	 1.361430136	 2.0842103945	 0.0152017401	 0.049924
O	 0.756845022	 3.1017498623	 0.8618690276	-0.300783
H	-0.2028030592	-2.3895571577	-0.2640250234	 0.197977
H	-0.6679682424	 1.7689984465	-0.6727260888	 0.120303
H	-1.0766122474	 2.4285786795	 1.7234041885	 0.090336
H	 0.9274944095	 2.099128869	 3.2693991185	 0.104737
H	 0.0916906433	 0.5516243245	 2.9560975236	 0.115975
H	 3.170460339	 2.1415780013	 1.1499766988	 0.104736
H	 2.9358327734	 0.605426258	 0.2686729742	 0.115964
H	 1.7337014518	 2.4817454719	-0.9321043053	 0.090339
133.1813	134.2307	198.1047	308.4132	333.8039	428.24	470.6646	532.0324	614.9806	631.9016	649.9659	658.1547	826.4768	841.5248	861.1868	886.4251	902.0879	999.2288	1004.3124	1025.34	1032.1589	1074.4275	1126.062	1127.9361	1171.061	1226.4665	1240.7498	1266.2635	1317.1546	1326.3121	1338.0451	1370.325	1373.0302	1421.4535	1483.1743	1494.333	2236.2505	2988.8335	2995.4071	3070.9109	3072.0895	3076.4671	3087.383	3092.3528	3503.5658
C#CC1C2COCC1O2	C#C[C@H]1[C@H]2COC[C@@H]1O2	
InChI=1S/C7H8O2/c1-2-5-6-3-8-4-7(5)9-6/h1,5-7H,3-4H2	InChI=1S/C7H8O2/c1-2-5-6-3-8-4-7(5)9-6/h1,5-7H,3-4H2/t5-,6+,7-
