12
gdb 130803	8.33207	0.67099	0.62098	1.9841	82.86	-0.2698	-0.0994	0.1704	1634.1897	0.077047	-435.453836	-435.446159	-435.445215	-435.48746	26.056	
O	-0.1312538068	 0.0072625992	-0.0005046106	-0.222172
C	-0.0198603212	 1.2117276655	 0.0077522931	-0.000835
C	 1.2424779452	 1.9048931082	-0.0009343631	 0.222662
C	 2.2902748158	 2.5107035168	-0.0080735715	-0.063378
C	 3.517124937	 3.1878455942	-0.0164066046	 0.276705
C	 4.8135980921	 2.7492338733	-0.0344047116	-0.330028
C	 5.5668447768	 3.946408643	-0.0333751612	 0.016436
N	 4.7977729206	 5.0112350766	-0.0162628511	-0.107812
O	 3.5013245636	 4.5454973256	-0.0054282072	-0.198747
H	-0.9014808719	 1.8824420048	 0.0230183139	 0.112991
H	 5.1584299083	 1.7295542287	-0.0463678272	 0.14702
H	 6.6398896805	 4.072614504	-0.0444237689	 0.147158
63.243	72.5607	110.0526	203.4712	257.2173	418.3731	486.5595	509.2103	642.953	703.3407	711.9645	837.1983	922.3194	933.5345	948.3772	968.3796	1016.1629	1036.7117	1065.7944	1220.4977	1263.4589	1362.3745	1418.7666	1488.1073	1607.8536	1759.4267	2312.3293	2935.4361	3252.1467	3292.1189
O=CC#CC1=CC=NO1	O=CC#Cc1ccno1	
InChI=1S/C6H3NO2/c8-5-1-2-6-3-4-7-9-6/h3-5H	InChI=1S/C6H3NO2/c8-5-1-2-6-3-4-7-9-6/h3-5H
