18
gdb 81733	3.01977	1.28781	1.07471	5.7764	77.66	-0.2449	0.0031	0.248	1158.6253	0.148143	-398.091049	-398.082224	-398.08128	-398.12425	33.191	
C	-0.2730404202	 1.5386663958	 0.1223825878	-0.413251
C	 0.0570480979	 0.060843456	 0.0320719946	 0.041484
C	 1.161713312	-0.4597665696	-0.9688636327	-0.085508
N	 1.9498053724	 0.3795793283	-1.8372512255	-0.5119
C	 1.8749443849	-1.0195209099	 0.2669263932	 0.231199
C	 2.1017662885	 0.0305399479	 1.291204303	-0.279169
N	 0.7638515382	-0.5598182894	 1.2190013139	-0.164368
C	 2.4796960776	-2.3151633444	 0.3389050655	 0.200576
N	 2.9725948009	-3.3616677856	 0.3637359107	-0.340057
H	 0.6108244484	 2.1782185061	 0.2035279821	 0.112304
H	-0.8235212649	 1.8532931791	-0.7702520913	 0.126087
H	-0.9063177196	 1.7309990859	 0.9940540511	 0.140541
H	-0.8677031939	-0.5056206007	-0.1036950645	 0.096166
H	 0.7574742307	-1.2752116148	-1.5721733679	 0.112326
H	 1.4345162861	 0.6301726901	-2.6737473202	 0.238061
H	 2.2370217116	 1.2403708617	-1.3859112063	 0.230067
H	 2.6462587742	-0.2692749427	 2.1806108268	 0.148894
H	 2.2760064552	 1.058115196	 0.9852820596	 0.116548
109.3951	142.164	175.3847	195.7341	219.2414	242.7397	324.4818	382.8327	454.7082	516.9056	557.2182	603.7809	651.6347	714.5281	748.8019	782.3505	816.8843	862.4266	945.2644	962.2191	1035.1129	1090.5364	1110.9022	1129.2959	1147.0276	1167.4573	1188.7877	1235.4825	1258.2722	1305.0793	1344.0676	1381.1381	1409.2672	1441.8593	1484.8253	1495.5198	1506.1455	1664.3518	2348.9367	3040.0158	3068.4997	3095.3766	3107.5122	3111.8729	3122.966	3210.3234	3518.1149	3600.0113
CC1C(N)C2(CN12)C#N	C[C@H]1[C@@H](N)[C@]2(CN12)C#N	
InChI=1S/C6H9N3/c1-4-5(8)6(2-7)3-9(4)6/h4-5H,3,8H2,1H3	InChI=1S/C6H9N3/c1-4-5(8)6(2-7)3-9(4)6/h4-5H,3,8H2,1H3/t4-,5+,6+,9?/m0/s1
