17
gdb 104274	2.32708	1.33048	1.09295	3.2533	70.35	-0.2525	0.0166	0.2691	1158.9289	0.133054	-458.893456	-458.884119	-458.883174	-458.927647	34.397	
O	-0.1602086068	 1.4886516302	-0.0417168632	-0.439081
C	-0.0186731899	 0.0818294548	-0.2308831894	-0.149399
C	-1.4108972151	-0.4979722395	-0.0290251015	 0.336501
O	-1.9281164722	-0.1132043583	 1.2120852255	-0.48091
C	-2.3412214809	-0.3734769074	-1.2632569777	-0.118592
O	-2.1411094875	-1.7682940232	-1.5891458591	-0.289608
C	-1.5299622608	-2.0253919261	-0.3010308829	-0.083516
C	-0.3348750156	-2.846231406	-0.3642575188	 0.318502
C	 0.659868324	-3.5204606625	-0.4023739491	-0.441661
H	 0.7143380937	 1.8795069444	 0.0355648352	 0.298893
H	 0.3562692308	-0.1607974972	-1.2336128674	 0.114054
H	 0.6642005194	-0.3546878191	 0.5103111618	 0.109267
H	-1.6151106819	 0.7896935468	 1.3603005913	 0.290795
H	-3.3790234974	-0.1591903392	-0.9812545788	 0.105477
H	-2.0251656466	 0.2878772993	-2.0757456304	 0.112487
H	-2.254666172	-2.4638963907	 0.3992263652	 0.11442
H	 1.5322253487	-4.1253869662	-0.4399886307	 0.202372
73.9904	106.4852	126.6588	181.8982	250.9346	267.2461	320.8869	356.8777	398.5489	444.4335	485.5285	534.911	593.5404	625.7062	674.8921	719.3636	797.6223	922.8443	942.0208	983.6166	1005.2898	1044.0235	1064.5723	1087.992	1146.3568	1166.1669	1191.4281	1224.3901	1266.054	1287.9702	1334.0032	1366.438	1412.8182	1452.7992	1507.1017	1517.8287	2233.4403	3007.9453	3009.3282	3027.8681	3053.5585	3088.8337	3500.3173	3755.4102	3844.1862
OCC1(O)COC1C#C	OC[C@@]1(O)CO[C@H]1C#C	
InChI=1S/C6H8O3/c1-2-5-6(8,3-7)4-9-5/h1,5,7-8H,3-4H2	InChI=1S/C6H8O3/c1-2-5-6(8,3-7)4-9-5/h1,5,7-8H,3-4H2/t5-,6+/m0/s1
