15
gdb 10794	4.67508	1.55107	1.22225	1.1314	61.56	-0.2492	-0.0319	0.2173	931.8585	0.120163	-399.863324	-399.856147	-399.855203	-399.895338	26.41	
O	-0.0262825605	 0.0015245966	-0.4851193346	-0.29853
C	-0.0535009385	 1.1196323558	-0.0351894714	 0.38749
C	-1.3219867998	 1.9179452608	 0.1869763101	-0.312982
C	-1.2285368658	 2.7399376779	 1.4819157271	-0.331866
C	-0.0261462765	 3.6764148213	 1.4792286011	 0.390708
O	-0.0332358612	 4.7772729353	 1.9920554318	-0.365076
N	 1.0678458915	 3.1868719591	 0.8113554516	-0.30953
C	 1.2504933312	 1.8142654103	 0.3770002971	-0.260636
H	-1.437400436	 2.5994166864	-0.6673588332	 0.141521
H	-2.1738972215	 1.2346034265	 0.1785998206	 0.13458
H	-2.1178229352	 3.3520106119	 1.6389949368	 0.142957
H	-1.1441887743	 2.0713119256	 2.3486769858	 0.134417
H	 1.8801755629	 3.7858603988	 0.8520691378	 0.252749
H	 1.7159993596	 1.1837096552	 1.1501930554	 0.14316
H	 1.9212966042	 1.7888357887	-0.4880111761	 0.151036
53.0446	136.899	178.1984	374.6775	417.4013	422.9324	505.5221	538.383	584.3035	636.7742	719.4906	731.672	787.109	901.8316	943.6474	981.083	1056.1483	1092.1105	1155.3896	1185.1131	1233.5182	1247.8602	1317.2874	1322.8173	1346.6329	1379.4646	1456.023	1460.92	1473.9727	1499.7282	1804.6011	1831.0303	2991.5339	3024.079	3038.0211	3074.2722	3112.1421	3125.167	3604.6698
O=C1CCC(=O)NC1	O=C1CCC(=O)NC1	
InChI=1S/C5H7NO2/c7-4-1-2-5(8)6-3-4/h1-3H2,(H,6,8)	InChI=1S/C5H7NO2/c7-4-1-2-5(8)6-3-4/h1-3H2,(H,6,8)
