16
gdb 53986	1.86382	1.4511	1.37731	2.5968	70.43	-0.2749	-0.0782	0.1967	1087.6142	0.119585	-437.924487	-437.914323	-437.913379	-437.960501	34.613	
C	-0.8050166946	 1.157515351	 0.2674276531	-0.494266
C	 0.3757047173	 0.3341758116	-0.1765191179	 0.377675
O	 1.4301425095	 0.2927257239	 0.4014114857	-0.281273
C	 0.1700656467	-0.5846879134	-1.4411751034	-0.13989
C	 1.5229352712	-0.868734977	-2.1213698762	-0.427657
C	-0.3918712743	-1.8957209408	-0.836905058	 0.153843
O	-1.5513354276	-2.1903471299	-0.8011101664	-0.221019
C	-0.7902698404	-0.0017624627	-2.3736938982	 0.298211
N	-1.5208684155	 0.4814440804	-3.1270763636	-0.335405
H	-0.9916057878	 1.9583282863	-0.4558269242	 0.176228
H	-1.7112740493	 0.5431591715	 0.292209823	 0.170562
H	-0.6020328681	 1.585810573	 1.2490365966	 0.152205
H	 2.2263812435	-1.2427065895	-1.3760931174	 0.156316
H	 1.4055975301	-1.6033972213	-2.9215054658	 0.143167
H	 1.9333546267	 0.0489063798	-2.5471088901	 0.152677
H	 0.4052433625	-2.532029413	-0.3991459672	 0.118625
30.6963	72.373	144.597	158.1792	171.5067	185.0856	220.5729	279.2549	298.2503	378.4844	444.8712	492.4842	556.4291	577.4118	640.9047	725.6456	790.2335	923.3145	965.102	993.4339	1052.9002	1115.697	1136.104	1179.8987	1226.3813	1390.4037	1397.9475	1417.9965	1457.165	1468.4043	1484.7052	1496.3115	1815.4534	1844.1302	2359.4882	2924.9192	3046.1785	3062.0195	3109.3925	3140.4933	3155.1528	3161.8902
CC(=O)C(C)(C=O)C#N	CC(=O)[C@@](C)(C=O)C#N	
InChI=1S/C6H7NO2/c1-5(9)6(2,3-7)4-8/h4H,1-2H3	InChI=1S/C6H7NO2/c1-5(9)6(2,3-7)4-8/h4H,1-2H3/t6-/m1/s1
