20
gdb 62582	3.24072	1.49805	1.32402	0.184	78.42	-0.2255	0.0455	0.271	1047.8196	0.170904	-403.061134	-403.05317	-403.052226	-403.092935	32.218	
C	-0.0517262032	 1.5668754843	 0.0472131768	-0.49423
C	 0.0196574103	 0.0495588588	-0.0676116294	 0.318982
C	-1.146762487	-0.6151586622	 0.6562458768	-0.424294
C	 0.4914723374	-0.7212544396	-1.237765938	-0.098152
C	 1.7917924477	-0.2518255278	-1.9153667516	 0.095486
O	 2.0642168255	 1.1694367301	-2.002488897	-0.300148
C	 2.8460033471	 1.1240372335	-0.7729640688	-0.11174
C	 2.4844283025	-0.3549308152	-0.5627264099	-0.025683
N	 1.2156110109	-0.8199802573	 0.1297008089	-0.207679
H	 0.5048211658	 2.0849226499	-0.7270267783	 0.161854
H	-1.1013118109	 1.8655900757	-0.0438745636	 0.115162
H	 0.2868815723	 1.8925469386	 1.0372218538	 0.118744
H	-2.0969713878	-0.3335834847	 0.1900840472	 0.11374
H	-1.0499054454	-1.7028734396	 0.639896225	 0.126258
H	-1.1717086139	-0.2930813021	 1.7026073396	 0.120359
H	-0.0763366558	-1.5663453634	-1.6217578752	 0.086257
H	 2.0808799476	-0.7929786702	-2.8187345629	 0.088837
H	 3.9112188362	 1.2741204712	-0.9888318604	 0.108054
H	 2.5206455052	 1.8561633986	-0.0302751539	 0.114139
H	 3.2902922053	-1.0504845687	-0.3344385689	 0.094055
157.9413	209.8138	219.6934	260.0658	296.077	332.0278	373.462	395.1137	495.8368	585.0929	637.2599	695.2277	727.8155	797.4129	867.0379	887.9769	907.4393	918.7803	961.8426	971.8396	989.3254	1023.2349	1034.6246	1053.6655	1075.4125	1097.5726	1140.3373	1166.7048	1201.4694	1224.2857	1246.3382	1292.8313	1297.7193	1325.4039	1349.4622	1399.8434	1408.0761	1420.8458	1480.6016	1488.0685	1500.2997	1513.172	1537.083	3026.3154	3033.3875	3039.5316	3086.181	3088.3816	3100.6505	3102.2401	3122.8692	3126.9697	3129.7555	3197.6321
CC1(C)C2C3OCC3N12	CC1(C)[C@H]2[C@H]3OC[C@H]3N12	
InChI=1S/C7H11NO/c1-7(2)6-5-4(3-9-5)8(6)7/h4-6H,3H2,1-2H3	InChI=1S/C7H11NO/c1-7(2)6-5-4(3-9-5)8(6)7/h4-6H,3H2,1-2H3/t4-,5+,6-,8?/m1/s1
