16
gdb 47659	2.2748	1.94538	1.3536	1.5037	65.31	-0.2662	-0.021	0.2452	959.1566	0.125428	-475.043637	-475.03607	-475.035126	-475.075803	28.453	
O	 0.1104009636	-0.0237951137	-0.0071087839	-0.304307
C	-0.0380559693	 1.1624342244	 0.0122816137	 0.421609
C	-1.3440828508	 1.9195447039	 0.0252050184	-0.301679
C	-1.3318529449	 2.9382245327	-1.1368550075	-0.16658
N	-1.0640694689	 2.2748896233	-2.4100915326	-0.201518
C	 0.1080740472	 2.1524803517	-2.8549994535	 0.100686
O	 1.2883842183	 2.6213580968	-2.3033483589	-0.228238
C	 1.8340650739	 1.907270133	-1.2084948564	-0.003169
O	 1.0267979669	 2.0473475957	-0.0595563575	-0.234339
H	-2.1589245743	 1.199719214	-0.0696915469	 0.141737
H	-1.4563342893	 2.4603142003	 0.9714175851	 0.136917
H	-2.3194078166	 3.4025447534	-1.2061997555	 0.117507
H	-0.590767902	 3.7139835048	-0.9179994874	 0.12666
H	 0.2695512615	 1.6801243746	-3.8248407944	 0.126392
H	 1.952560762	 0.8454348136	-1.4512931953	 0.131938
H	 2.7913621426	 2.3797139613	-0.9929948576	 0.136385
92.2478	155.8791	224.8398	253.6936	315.2716	327.2861	410.6514	553.0951	573.9084	624.8117	687.4129	712.4711	811.7322	847.4519	936.1263	950.2894	962.7262	992.469	1034.981	1046.1097	1112.1835	1175.9094	1185.8205	1228.1052	1256.8219	1306.6581	1343.1834	1373.6577	1403.5612	1430.3999	1456.486	1502.2781	1509.9253	1731.1144	1860.3839	3045.3328	3050.8874	3058.9439	3095.2077	3130.1706	3132.0394	3153.9069
O=C1CCN=COCO1	O=C1CCN=COCO1	
InChI=1S/C5H7NO3/c7-5-1-2-6-3-8-4-9-5/h3H,1-2,4H2/b6-3-	InChI=1S/C5H7NO3/c7-5-1-2-6-3-8-4-9-5/h3H,1-2,4H2/b6-3-
