21
gdb 86910	4.25072	0.82492	0.77206	2.1222	79.46	-0.2381	0.076	0.314	1537.3725	0.181382	-424.183104	-424.173983	-424.173039	-424.217719	34.687	
O	 0.3908447139	-0.0772076516	-0.9097704546	-0.430513
C	-0.2660341888	-0.5520412512	 0.2355195592	 0.173145
C	 0.0905807695	 0.0167956396	 1.6378961221	-0.285685
C	-1.4017444078	-0.111573682	 2.0186016992	 0.129651
C	-1.7494700164	-0.1734013089	 0.5012940895	-0.2923
O	-1.5882829064	-1.3306181613	 2.7164168131	-0.26431
C	-2.9040061873	-1.569928485	 3.1113968502	 0.151091
C	-3.8055134727	-2.4446696419	 2.274293504	-0.284828
C	-3.2162530755	-2.954045154	 3.5759462449	-0.295499
H	 0.2996012609	 0.8814223891	-0.9303429361	 0.274925
H	-0.1405555244	-1.6372719769	 0.219558903	 0.102841
H	 0.7995095084	-0.5313885656	 2.2610548693	 0.113379
H	 0.396246339	 1.0665723085	 1.5733419534	 0.091093
H	-1.8484553925	 0.7138606043	 2.5882152201	 0.064897
H	-1.9704285412	 0.8283920505	 0.1145606166	 0.088803
H	-2.5350438018	-0.858553335	 0.1808440407	 0.110381
H	-3.3629982821	-0.7347836154	 3.6424632992	 0.081873
H	-4.8646208053	-2.2143243207	 2.2303007647	 0.111368
H	-3.3884990556	-2.851155088	 1.3603844188	 0.119529
H	-2.4124641462	-3.6776890888	 3.5019312144	 0.125854
H	-3.8639293676	-3.0794709658	 4.4361161883	 0.114304
51.1655	70.5739	121.5874	186.5978	281.2898	317.5888	335.8697	400.4384	417.2691	462.626	499.7237	668.4976	750.7634	793.3617	810.046	818.8992	868.4562	917.5536	924.8213	961.0597	981.4444	998.243	1019.0475	1055.0739	1071.885	1075.3844	1093.8538	1127.0865	1154.6371	1191.9718	1196.6173	1198.9333	1213.9518	1243.9258	1259.7459	1267.38	1290.0315	1333.6572	1364.2597	1421.172	1431.2137	1452.5595	1455.9898	1484.1182	1499.2222	3008.2486	3044.4956	3054.6839	3087.7341	3090.0649	3125.2141	3130.836	3135.8545	3141.6388	3220.6181	3234.8382	3803.808
OC1CC(C1)OC1CC1	O[C@H]1C[C@@H](C1)OC1CC1	
InChI=1S/C7H12O2/c8-5-3-7(4-5)9-6-1-2-6/h5-8H,1-4H2	InChI=1S/C7H12O2/c8-5-3-7(4-5)9-6-1-2-6/h5-8H,1-4H2/t5-,7-
