18
gdb 40985	4.0594	1.6001	1.5302	1.2182	81.33	-0.2116	-0.0027	0.2089	923.9596	0.149024	-364.673188	-364.666921	-364.665977	-364.703261	27.511	
C	-0.0196749452	 1.5094273814	-0.2149849451	-0.185827
C	 1.5130365911	 1.4122984509	 0.1512763572	-0.337856
C	 1.0598637188	 0.113082549	 0.8422846564	 0.305056
C	 0.9661299909	-1.4404485367	 1.1658836464	-0.158037
C	 1.3439202688	-1.6705313448	 2.6063636062	-0.103059
C	 0.8348963503	-0.6162697379	 3.2548105854	-0.116866
C	 0.1629519333	 0.2080985537	 2.1860716108	-0.105243
C	-0.496098564	-0.7741949549	 1.1792935318	-0.015712
N	-0.10273023	-0.000068748	-0.0671380373	-0.153638
H	-0.5879417162	 2.1099312357	 0.5029022699	 0.105375
H	-0.2683632017	 1.8278787773	-1.2289140091	 0.107931
H	 2.1240074454	 1.2414060164	-0.737848513	 0.122002
H	 1.9539360998	 2.1912650002	 0.7757842804	 0.106235
H	 1.2075552618	-2.1502903492	 0.377358537	 0.079585
H	 1.9275805836	-2.4958852686	 2.9890887573	 0.104724
H	 0.9045774162	-0.3639195753	 4.3043569028	 0.101907
H	-0.3363078846	 1.1368436947	 2.4550496002	 0.065051
H	-1.4493211285	-1.3040410041	 1.2908639226	 0.078371
255.9893	268.3575	301.8	468.2996	503.0513	536.3431	624.7202	664.4687	717.2924	727.6896	757.4262	800.1384	839.6822	858.7215	882.1176	911.6531	916.6446	933.4387	956.8362	996.6922	999.2962	1015.8374	1055.1979	1116.2186	1121.123	1132.2862	1155.1173	1161.5249	1180.5279	1189.4315	1210.966	1224.4417	1248.3487	1270.5558	1316.6277	1344.3195	1469.015	1501.4046	1625.8782	3043.0432	3045.8925	3072.5791	3111.2206	3136.5963	3139.698	3150.4597	3213.6888	3241.2374
C1CC23C4C=CC2C4N13	C1C[C@@]23[C@H]4C=C[C@@H]2[C@H]4N13	
InChI=1S/C8H9N/c1-2-6-7-5(1)8(6)3-4-9(7)8/h1-2,5-7H,3-4H2	InChI=1S/C8H9N/c1-2-6-7-5(1)8(6)3-4-9(7)8/h1-2,5-7H,3-4H2/t5-,6+,7-,8+
