19
gdb 69603	3.37565	1.31238	1.22376	1.3674	75.76	-0.2303	0.0704	0.3007	1094.9768	0.159086	-422.996264	-422.988299	-422.987355	-423.028284	32.184	
O	-0.1099052032	 1.384236553	 0.0453228794	-0.467176
C	-0.0705822342	-0.0067357812	 0.0065573483	 0.372404
C	-0.4974275504	-0.7681744661	-1.219888505	-0.362306
C	-1.3386577497	-0.815213319	 0.0456418204	-0.183202
C	-1.056433315	-1.9499599018	 0.9830622833	 0.474263
C	-1.9068031281	-2.2288885453	 2.1941060414	-0.337221
C	-1.7990798812	-3.2406559522	 1.0609327383	-0.33574
O	 0.3524368177	-2.0363175	 1.1089668309	-0.296899
C	 0.8858086282	-0.7244314242	 0.9519937956	-0.156603
H	 0.5811224079	 1.7193873453	-0.536020087	 0.28644
H	-0.8998501316	-0.1730817823	-2.0323211547	 0.112339
H	 0.0545178723	-1.6552114059	-1.5145085433	 0.122722
H	-2.3062620353	-0.3299056852	 0.0591604291	 0.101049
H	-1.3842666449	-2.4612556704	 3.1151672477	 0.120555
H	-2.8377434995	-1.6853613385	 2.319156045	 0.111188
H	-2.6533226204	-3.3840659303	 0.4082239474	 0.115116
H	-1.2113249251	-4.1328969829	 1.2457971932	 0.123329
H	 1.9091030196	-0.832072664	 0.5757554946	 0.098846
H	 0.912832993	-0.1726256089	 1.9044121054	 0.100896
112.7258	192.1791	241.8271	280.2204	317.2856	359.6724	387.3566	413.2577	484.4057	559.3311	601.24	726.5059	758.723	767.7292	862.1812	886.9634	910.65	931.5001	951.6255	955.9062	1006.9023	1014.8194	1046.5911	1064.3425	1067.2181	1073.4653	1079.1839	1085.8811	1188.6	1204.2871	1228.525	1248.8717	1300.4983	1304.3161	1343.744	1398.0008	1418.3885	1449.6019	1478.0064	1502.2752	1516.9804	2987.8863	3064.2035	3127.0982	3129.1221	3134.9775	3197.901	3215.4788	3222.3785	3229.5853	3800.4462
OC12CC1C1(CC1)OC2	O[C@]12C[C@H]1C1(CC1)OC2	
InChI=1S/C7H10O2/c8-6-3-5(6)7(1-2-7)9-4-6/h5,8H,1-4H2	InChI=1S/C7H10O2/c8-6-3-5(6)7(1-2-7)9-4-6/h5,8H,1-4H2/t5-,6+/m1/s1
