23
gdb 116380	2.68053	1.22643	0.93517	2.7961	85.73	-0.2336	-0.0103	0.2233	1350.8571	0.206968	-388.342973	-388.333708	-388.332763	-388.377016	35.424	
C	-0.201780161	 1.5952177109	 0.0625102228	-0.394473
C	-0.0024343616	 0.0774901412	-0.0017760629	-0.179757
C	 0.8203773132	-0.4930054925	 1.1588342008	-0.065388
C	 0.7038742619	-2.034450955	 1.2750870734	-0.210029
C	 1.5221345339	-2.5978363365	 2.4435685661	-0.202966
C	 2.9993604471	-2.201640779	 2.3343948438	-0.19808
C	 3.159734766	-0.6716776651	 2.2147281454	-0.285452
C	 2.3049653738	-0.1275982239	 1.0781360806	 0.388135
O	 2.7791862257	 0.5072841694	 0.162653888	-0.314688
H	 0.757321387	 2.1156663303	 0.0150071338	 0.139873
H	-0.8166269719	 1.9433322842	-0.7733585467	 0.109569
H	-0.7081835449	 1.8895332827	 0.989380486	 0.103382
H	-0.9805475711	-0.4196694475	-0.0079150836	 0.084819
H	 0.491813786	-0.1853454746	-0.9437599561	 0.109113
H	 0.4493016168	-0.0732225099	 2.1077756708	 0.082161
H	-0.3529550987	-2.3030737948	 1.3825615344	 0.099822
H	 1.0451612783	-2.4875119857	 0.3340393281	 0.104665
H	 1.1117834982	-2.2198885202	 3.3901801759	 0.095607
H	 1.4263265303	-3.6887848171	 2.4766115294	 0.097982
H	 3.5647944765	-2.5670258593	 3.1981489956	 0.101017
H	 3.4399750379	-2.676195717	 1.4480492175	 0.10862
H	 2.8275461993	-0.2024204144	 3.1511787238	 0.110752
H	 4.1983213973	-0.3816226764	 2.039233683	 0.115318
81.52	100.1394	140.1875	191.1483	231.3167	292.657	303.1489	360.3622	423.0104	434.8629	495.1537	569.9528	669.8185	716.7315	784.2382	840.3411	859.2047	869.9027	904.747	940.8399	982.1573	1019.8766	1031.6433	1063.4286	1077.5491	1100.3167	1129.1103	1149.5498	1156.859	1224.5896	1255.0081	1274.555	1290.941	1300.7541	1337.3979	1353.3215	1369.4726	1377.4348	1379.8175	1391.3495	1408.1835	1469.739	1477.1854	1488.3987	1489.1031	1497.8101	1504.0515	1512.6299	1805.1142	2980.0304	3012.1291	3017.0056	3018.8077	3026.352	3027.5747	3032.7098	3062.8216	3066.8048	3070.4355	3074.7857	3096.4061	3106.3831	3129.6896
CCC1CCCCC1=O	CC[C@H]1CCCCC1=O	
InChI=1S/C8H14O/c1-2-7-5-3-4-6-8(7)9/h7H,2-6H2,1H3	InChI=1S/C8H14O/c1-2-7-5-3-4-6-8(7)9/h7H,2-6H2,1H3/t7-/m0/s1
