21
gdb 58329	3.8164	0.73916	0.7116	5.3972	76.66	-0.2711	0.014	0.2851	1664.0021	0.179401	-461.386594	-461.375833	-461.374889	-461.423043	38.155	
C	 0.0222369355	 1.5460729962	 0.1977825293	-0.413896
C	-0.0225937149	 0.016280574	 0.0449127975	 0.012928
C	 0.5273505464	-0.675565966	 1.299435646	-0.391501
C	-1.4337453029	-0.518860544	-0.2823164839	 0.129408
O	-2.3870960416	-0.2469426462	 0.7390981828	-0.433784
C	-1.9616244588	-0.0484128734	-1.640752831	-0.121679
O	-3.1214513649	-0.7944186709	-2.0119604651	-0.174926
C	-4.32423891	-0.3093067256	-1.6433212883	 0.188495
O	-5.3415672071	-0.9061772356	-1.8241762879	-0.276839
H	 1.0452473513	 1.8771232554	 0.3988306757	 0.128259
H	-0.3201624494	 2.0707301008	-0.6996649168	 0.118282
H	-0.5873598771	 1.8858832098	 1.0444773289	 0.113116
H	 0.6170535043	-0.2549781898	-0.8064056788	 0.080519
H	-0.1261385068	-0.490679292	 2.1570963455	 0.12906
H	 0.5906444762	-1.7591165621	 1.1576329818	 0.117855
H	 1.5285211846	-0.3073864636	 1.5434386032	 0.111527
H	-1.3851827309	-1.6131896781	-0.3245354228	 0.106824
H	-2.4003519749	 0.7038518503	 0.8953054069	 0.282665
H	-2.1955425534	 1.0246941959	-1.6216382161	 0.103918
H	-1.2245123815	-0.2228107555	-2.4293479015	 0.125294
H	-4.2600977442	 0.6968147405	-1.1882299951	 0.064473
59.4942	68.7113	70.8112	179.7864	199.0279	220.0115	244.6418	283.2134	299.6361	310.3891	325.552	385.7673	428.3452	506.4499	599.9479	675.8908	820.4306	889.1782	923.7949	961.2795	965.247	1028.0625	1032.3316	1050.3498	1067.3303	1108.4901	1154.7578	1174.3618	1203.4824	1263.2119	1294.4697	1327.3394	1361.1828	1375.2268	1398.8847	1408.3124	1421.7246	1429.4529	1433.7633	1486.0948	1491.6388	1494.7655	1511.6851	1512.9888	1869.6753	2959.1884	3010.8124	3018.7024	3027.1779	3037.9303	3053.5992	3090.6782	3099.5642	3106.2194	3109.4452	3115.71	3801.6945
CC(C)C(O)COC=O	CC(C)[C@@H](O)COC=O	
InChI=1S/C6H12O3/c1-5(2)6(8)3-9-4-7/h4-6,8H,3H2,1-2H3	InChI=1S/C6H12O3/c1-5(2)6(8)3-9-4-7/h4-6,8H,3H2,1-2H3/t6-/m0/s1
