17
gdb 97903	5.35233	0.57319	0.53775	3.9919	78.66	-0.2626	0.0086	0.2713	1960.1448	0.134646	-417.973736	-417.963348	-417.962404	-418.011276	35.476	
N	 0.3477363719	 1.5404228508	-0.3058404217	-0.500674
C	 0.049417455	 0.1344222557	-0.0560628253	-0.116443
C	 0.4197479068	-0.8554803486	-1.208771554	-0.361909
C	-0.2464971919	-0.4898822437	-2.4504710068	-0.024459
C	-0.8297107362	-0.142383289	-3.4468058532	 0.135872
C	-1.4795564085	 0.2645831874	-4.6940594948	-0.199908
O	-0.7862133885	 1.293852352	-5.3836642591	-0.398252
C	 0.7179035497	-0.3000825117	 1.1797461226	 0.293802
N	 1.2640844283	-0.6737854153	 2.1264734522	-0.31418
H	 1.3468476485	 1.6668181028	-0.4433484576	 0.239527
H	-0.1088616563	 1.8157011827	-1.1714981858	 0.248641
H	-1.0313754898	 0.0537109218	 0.1115587677	 0.145331
H	 1.5086931481	-0.8476493978	-1.3420589836	 0.142736
H	 0.1487155647	-1.8763507288	-0.9132408109	 0.150853
H	-1.6264136146	-0.6218883727	-5.3310825167	 0.12456
H	-2.476023192	 0.667826993	-4.4830942815	 0.145292
H	 0.1108418048	 0.9825798114	-5.5441025614	 0.28921
17.5511	48.4074	79.5884	138.1907	175.087	233.9571	258.1285	305.4548	334.959	348.6037	378.1566	470.1093	541.979	573.8163	579.2054	781.6713	838.7908	870.106	918.1779	983.3596	1019.5093	1048.3777	1123.1565	1154.6681	1181.68	1214.9157	1251.625	1296.2261	1347.4768	1363.8132	1416.0145	1416.7158	1463.8635	1488.6827	1658.6645	2356.2206	2364.7973	2982.464	3027.4085	3044.5727	3066.6427	3068.7858	3485.3185	3569.8901	3815.8193
NC(CC#CCO)C#N	N[C@@H](CC#CCO)C#N	
InChI=1S/C6H8N2O/c7-5-6(8)3-1-2-4-9/h6,9H,3-4,8H2	InChI=1S/C6H8N2O/c7-5-6(8)3-1-2-4-9/h6,9H,3-4,8H2/t6-/m0/s1
