13
gdb 20855	6.89344	1.31519	1.1197	4.4891	55.76	-0.2844	-0.0143	0.2701	1005.425	0.094931	-435.765496	-435.758384	-435.75744	-435.797454	24.977	
C	-0.0691164433	 1.5103657762	 0.1402228595	-0.381743
C	 0.0250158537	-0.004988662	-0.0517598664	-0.305653
C	 0.7386585556	-0.3991746079	-1.2949688657	 0.450869
N	 1.2524336919	 0.3832878266	-2.170885374	-0.175474
O	 1.8057449047	-0.4902604972	-3.1453048793	-0.23073
C	 1.5780613811	-1.7740391214	-2.7737619939	 0.512083
O	 1.898264585	-2.7603250961	-3.3462624957	-0.356642
O	 0.8862453411	-1.7191685725	-1.5742092643	-0.228659
H	 0.9238351027	 1.9628315177	 0.1943434514	 0.145839
H	-0.6045229729	 1.9797147083	-0.6884230691	 0.145861
H	-0.6022001632	 1.7325809319	 1.0674095425	 0.127626
H	 0.5423720472	-0.4791410788	 0.7916406287	 0.148306
H	-0.9718209235	-0.4623369249	-0.0828769137	 0.148316
60.7108	160.1834	180.9627	230.6034	326.0317	372.9497	558.2716	636.8444	656.1127	771.5804	772.8931	803.4618	885.0141	949.2508	975.7549	1015.8253	1090.9343	1117.1302	1154.195	1281.3615	1286.2693	1417.1912	1421.5114	1468.8155	1495.4371	1504.8242	1691.8589	1952.6581	3036.3966	3059.2614	3064.9682	3135.1891	3135.5803
CCC1=NOC(=O)O1	CCc1noc(=O)o1	
InChI=1S/C4H5NO3/c1-2-3-5-8-4(6)7-3/h2H2,1H3	InChI=1S/C4H5NO3/c1-2-3-5-8-4(6)7-3/h2H2,1H3
