18
gdb 74934	3.00966	1.76915	1.49779	0.9055	76.18	-0.2232	0.0072	0.2303	946.497	0.149654	-401.890897	-401.884059	-401.883115	-401.921814	28.35	
C	 0.0325881369	 1.4679685691	 0.0505713636	-0.50943
C	 0.0165189029	-0.0262150017	-0.0173175906	 0.370361
C	-0.0993187784	-0.781706169	-1.1161836765	-0.12375
C	 0.0537635247	-2.253386623	-0.8660424832	-0.141802
N	 1.4440859617	-2.3969852802	-0.2559684827	-0.317575
C	 0.7888507774	-2.2507887146	 1.0599148795	-0.062895
C	-0.5994035535	-2.6469859892	 0.5632784906	 0.113604
O	-1.258778962	-1.5869540732	 1.2362373546	-0.292816
C	 0.0271528877	-0.8614593187	 1.2404433487	-0.029085
H	 0.9658727161	 1.8340466137	 0.49751753	 0.128732
H	-0.0605468834	 1.9126724073	-0.9440575256	 0.124865
H	-0.7859561238	 1.8480671244	 0.6746973781	 0.131459
H	-0.2246804912	-0.3824962538	-2.1169331559	 0.093601
H	-0.144491296	-2.8945809488	-1.7248321948	 0.066711
H	 1.7189069546	-3.3769627587	-0.3319998672	 0.214782
H	 1.3041848984	-2.6331239375	 1.9422106799	 0.077905
H	-1.1033481873	-3.6130517107	 0.6411274797	 0.081567
H	 0.1718808852	-0.3111616856	 2.1715929517	 0.073767
150.2815	184.299	299.4561	366.7196	420.8565	471.5431	535.5128	608.6995	660.9582	719.3002	751.4646	782.0561	827.8595	831.522	871.1291	891.8766	921.1866	944.0645	990.5697	1025.7819	1032.878	1056.4183	1066.512	1093.539	1126.1269	1161.098	1186.3298	1193.6295	1233.914	1274.418	1287.1812	1323.9176	1354.2792	1359.9102	1378.3984	1412.5419	1478.3428	1487.4704	1704.4928	3016.1767	3064.1194	3086.0063	3096.6815	3107.4307	3109.7565	3113.7416	3182.3627	3447.6243
CC1=CC2NC3C2OC13	CC1=C[C@H]2N[C@@H]3[C@H]2O[C@H]13	
InChI=1S/C7H9NO/c1-3-2-4-7-5(8-4)6(3)9-7/h2,4-8H,1H3	InChI=1S/C7H9NO/c1-3-2-4-7-5(8-4)6(3)9-7/h2,4-8H,1H3/t4-,5+,6-,7+/m1/s1
