13
gdb 20145	4.45323	2.57017	2.10767	4.3162	59.19	-0.2403	-0.0161	0.2243	646.4866	0.097346	-361.416811	-361.41167	-361.410726	-361.445884	21.182	
O	-0.0097233483	 0.01827061	 0.0908902075	-0.313875
C	-0.0478425232	 1.2097498613	 0.0265073541	 0.448876
C	-1.2241234822	 2.1367116387	-0.0076899485	-0.203925
C	-0.8035155273	 3.4279910267	 0.6673946028	-0.093299
C	-0.8242073712	 3.3460816821	-0.8307891527	-0.093361
C	 0.7414040771	 3.2714366896	-0.8352292238	-0.066619
C	 0.7617135316	 3.3514939377	 0.6371369803	-0.066703
N	 1.1197091967	 2.0771548359	-0.0369998693	-0.177331
H	-2.2403616995	 1.7727290191	 0.026289996	 0.119847
H	-1.4253926132	 3.9887558772	 1.3487154014	 0.110537
H	-1.4654556232	 3.8301546097	-1.551803226	 0.110532
H	 1.4228192869	 3.6227572612	-1.5978885615	 0.112665
H	 1.4633129956	 3.7823861408	 1.3382052498	 0.112656
166.5275	457.7396	514.2903	625.1847	691.9258	761.8444	772.2685	782.4567	784.5318	811.3964	856.8615	895.383	900.7502	913.1535	938.4784	994.8893	1004.887	1020.2169	1039.4176	1059.9068	1118.5684	1192.9798	1237.0192	1246.0546	1261.3038	1294.5638	1366.8389	1894.8959	3204.0927	3216.4512	3229.3873	3231.9645	3243.7239
O=C1C2C3C2C2C3N12	O=C1[C@H]2[C@@H]3[C@H]2[C@H]2[C@@H]3N12	
InChI=1S/C6H5NO/c8-6-3-1-2(3)5-4(1)7(5)6/h1-5H	InChI=1S/C6H5NO/c8-6-3-1-2(3)5-4(1)7(5)6/h1-5H/t1-,2+,3-,4+,5-,7?
