16
gdb 92838	2.31882	1.73633	1.60896	1.7074	64.33	-0.2539	-0.0134	0.2405	927.5279	0.124261	-474.976957	-474.969143	-474.968199	-475.008898	30.226	
O	 0.1290344655	 1.4065589055	-0.0173856495	-0.435358
C	 0.045561599	-0.0029873624	-0.0546599575	 0.061381
C	 0.4854275258	-0.6473521642	 1.3127008585	-0.204441
N	-0.7251712073	-0.5564084306	 2.2068863739	-0.316934
C	-1.6667970615	-0.5487130794	 1.3648239379	 0.331956
O	-2.9527705591	-0.0833857819	 1.3273459467	-0.274574
C	-2.7381125049	 0.2686692342	-0.1130807623	-0.180814
C	-1.4064067473	-0.5398183985	-0.1077687555	 0.284539
O	-1.4066467653	-1.7526513434	-0.8213352172	-0.479754
H	-0.1090300291	 1.69999869	 0.869997104	 0.295437
H	 0.6326778496	-0.3399506233	-0.9114742761	 0.104967
H	 0.8179029409	-1.6834651675	 1.1909320802	 0.126375
H	 1.3018828448	-0.0763460922	 1.762882118	 0.12194
H	-3.5346470301	-0.1405979036	-0.7363374009	 0.128247
H	-2.6479774816	 1.350696587	-0.217942084	 0.143171
H	-2.1226114793	-2.3115590397	-0.4985499361	 0.293863
122.3921	205.5182	234.6344	247.878	316.883	338.7636	359.305	418.5821	482.0799	551.4305	681.9598	694.5176	760.9856	799.336	823.4056	892.7881	908.3856	964.3916	977.048	999.491	1091.7786	1127.6255	1137.3111	1174.1531	1193.0526	1217.3658	1254.6543	1289.267	1307.4088	1356.7639	1379.5675	1418.2726	1483.0554	1488.7543	1755.8522	3052.7888	3079.6639	3102.9497	3106.4543	3157.5472	3791.865	3798.2898
OC1CN=C2OCC12O	O[C@H]1C[N][C]2OC[C@@]12O	
InChI=1S/C5H7NO3/c7-3-1-6-4-5(3,8)2-9-4/h3,7-8H,1-2H2	InChI=1S/C5H7NO3/c7-3-1-6-4-5(3,8)2-9-4/h3,7-8H,1-2H2/t3-,5+/m0/s1
