18
gdb 20104	4.93509	1.49759	1.36601	1.5813	72.08	-0.2449	0.0829	0.3278	954.2928	0.15447	-347.751166	-347.744	-347.743056	-347.782713	27.624	
C	 0.4832048111	 1.4479358138	 0.0849063247	-0.176683
O	 1.0590812334	 0.2336060332	-0.4013628513	-0.234043
C	-0.2954178041	 0.1985346846	 0.0573523447	-0.055978
C	-0.5726763658	-0.601955284	 1.2768800374	 0.387961
C	 0.4916676143	-0.9685499673	 2.2701166225	-0.334354
C	-0.252503841	-2.0756802973	 1.5725968742	-0.095867
C	-1.6320374292	-2.2694813759	 2.211799023	-0.218993
C	-1.9658622684	-0.7720630385	 1.9041153829	-0.30371
H	 0.8804256334	 1.802253235	 1.0345772797	 0.11369
H	 0.3083949646	 2.2146049626	-0.6686381653	 0.113818
H	-1.0270126532	 0.0858259643	-0.7462000571	 0.086418
H	 1.5041655358	-0.8084069751	 1.9151247237	 0.128646
H	 0.3420347524	-0.7883760756	 3.3331755291	 0.097955
H	 0.2644055904	-2.7922072269	 0.9456594846	 0.092403
H	-2.2750095182	-2.957598281	 1.6589028218	 0.103712
H	-1.6307802879	-2.5665310393	 3.265829767	 0.096772
H	-2.1906241087	-0.1218643895	 2.7561482339	 0.095309
H	-2.7730713387	-0.6745449131	 1.1730170747	 0.102945
76.4894	162.5156	199.7408	272.4512	358.4758	432.5971	488.1855	652.5516	715.2022	783.8791	844.1219	846.7775	868.8162	907.4253	931.1298	951.5863	971.4194	1010.3812	1025.9592	1053.171	1092.8439	1099.5974	1104.3791	1150.5284	1159.8265	1172.4734	1206.9911	1224.3527	1245.22	1263.748	1289.3085	1294.8643	1389.737	1445.7715	1479.8039	1482.8188	1509.6195	1520.3586	3039.8512	3048.6997	3078.5958	3085.488	3089.3634	3099.177	3110.7203	3174.583	3184.513	3208.2781
C1OC1C12CC1CC2	C1O[C@H]1[C@]12C[C@H]1CC2	
InChI=1S/C7H10O/c1-2-7(3-5(1)7)6-4-8-6/h5-6H,1-4H2	InChI=1S/C7H10O/c1-2-7(3-5(1)7)6-4-8-6/h5-6H,1-4H2/t5-,6-,7-/m1/s1
