20
gdb 110337	2.36553	1.29607	1.20678	3.6254	79.89	-0.2311	0.0168	0.2479	1194.0422	0.170317	-403.146046	-403.136785	-403.13584	-403.180413	33.856	
C	 0.2194715256	 1.2205509956	-0.2958743158	-0.375821
C	-0.2107023371	-0.1867538678	 0.135349101	-0.218575
C	 0.590830752	-0.695173461	 1.3167363811	-0.008207
C	 0.8404082795	-2.1354964896	 1.6683311485	-0.05435
C	 2.0077040205	-1.2753550522	 1.2095194582	-0.249704
C	 2.0627785943	-2.1993160597	-0.0081049787	 0.401943
O	 2.6898610129	-2.2671079656	-1.0311341498	-0.368971
N	 1.0201626709	-2.9810245653	 0.4873678227	-0.083346
C	 0.039048691	-3.7359167983	-0.2598769065	-0.347303
H	 1.2702168991	 1.2288361158	-0.6015668453	 0.133946
H	-0.3808838924	 1.5731670831	-1.1396750133	 0.116048
H	 0.1019151943	 1.9404006015	 0.5216477313	 0.112897
H	-1.2746203116	-0.1838856001	 0.4058381596	 0.098323
H	-0.1055281826	-0.8711024154	-0.7121774919	 0.118744
H	 0.4965644194	-0.0673027008	 2.2043726695	 0.095043
H	 0.6788939761	-2.5761922952	 2.6443393214	 0.109683
H	 2.8463753241	-0.9011195595	 1.778739053	 0.113552
H	 0.4759158367	-3.9697565524	-1.2342687842	 0.156758
H	-0.2035905351	-4.6754954399	 0.2474035176	 0.12801
H	-0.8914990875	-3.173688743	-0.4142439585	 0.121327
62.0997	120.7881	136.8056	146.2236	215.1792	226.5429	246.2013	318.5636	447.3179	475.418	601.8267	698.9444	726.3547	755.7257	790.1079	829.7009	842.2932	890.2733	944.1512	959.176	1012.4687	1034.6123	1061.0569	1087.9278	1093.1362	1124.2266	1151.8735	1207.0812	1245.4666	1265.8905	1280.6696	1296.2248	1341.0072	1380.2571	1411.0092	1436.427	1444.94	1483.457	1485.6209	1499.128	1507.3141	1515.5628	1876.8963	3011.3479	3025.2417	3035.0619	3073.4897	3076.2282	3100.9041	3108.3423	3113.916	3124.0512	3190.608	3225.3118
CCC1C2C1C(=O)N2C	CC[C@H]1[C@@H]2[C@H]1C(=O)N2C	
InChI=1S/C7H11NO/c1-3-4-5-6(4)8(2)7(5)9/h4-6H,3H2,1-2H3	InChI=1S/C7H11NO/c1-3-4-5-6(4)8(2)7(5)9/h4-6H,3H2,1-2H3/t4-,5+,6-/m1/s1
