19
gdb 71667	2.76947	2.04968	1.78104	1.3424	76.28	-0.2338	0.0975	0.3314	877.6382	0.162139	-385.875164	-385.868716	-385.867772	-385.905523	27.827	
C	-0.0317329932	 1.5421919345	-0.0039999924	-0.513398
C	 0.0301001199	 0.0323203752	-0.0136982308	 0.310419
C	 0.9036739223	-0.7901950825	-1.008661342	-0.27666
C	 0.7346716992	-1.9282830909	 0.0335628911	-0.091178
C	-0.777029355	-2.1888253179	 0.07674223	-0.114522
C	-1.293694859	-1.5268149618	 1.3367801767	 0.065741
O	-0.2147611283	-1.1137350539	 2.1384208998	-0.242656
C	 0.7143394106	-0.8078571028	 1.1327509194	 0.052573
C	-1.29552349	-0.7513878356	 0.0371857367	-0.155903
H	 0.9711017166	 1.9820338584	 0.0116306137	 0.112234
H	-0.5489070479	 1.9266495075	-0.8907371309	 0.115566
H	-0.5713517889	 1.9036831856	 0.8780344758	 0.12649
H	 0.5105065796	-0.9580487841	-2.0147492874	 0.095047
H	 1.9320539339	-0.41878686	-1.06692942	 0.093325
H	 1.4019445191	-2.7875599305	 0.0830022019	 0.064793
H	-1.2599050415	-3.0299765919	-0.4010550077	 0.087828
H	-2.1754683827	-1.8315828509	 1.8841497196	 0.103319
H	 1.656271142	-0.4546584849	 1.5462414579	 0.082841
H	-2.1942328668	-0.4315747634	-0.4732461513	 0.084143
197.185	231.333	276.4434	419.9268	500.815	580.1292	595.6164	683.2876	739.9274	753.0718	787.3581	808.0757	827.8278	840.173	884.8241	911.8801	936.0592	966.5083	992.1535	1005.9819	1010.2712	1025.7274	1055.4774	1068.2258	1076.8546	1109.8915	1114.5403	1146.6176	1200.5498	1212.8962	1222.1478	1233.2572	1257.8388	1268.1582	1312.4347	1366.939	1380.9472	1412.7663	1492.5112	1494.5828	1500.2408	3025.4927	3048.0293	3088.4153	3096.8778	3106.4156	3124.3684	3154.51	3199.4766	3207.0993	3218.7748
CC12CC3C4C(OC13)C24	C[C@@]12C[C@@H]3[C@H]4[C@@H](O[C@H]13)[C@@H]24	
InChI=1S/C8H10O/c1-8-2-3-4-5(8)6(4)9-7(3)8/h3-7H,2H2,1H3	InChI=1S/C8H10O/c1-8-2-3-4-5(8)6(4)9-7(3)8/h3-7H,2H2,1H3/t3-,4-,5+,6-,7+,8+/m1/s1
