17
gdb 74423	2.97358	1.42071	1.08981	3.3808	75.05	-0.2403	-0.0647	0.1756	1134.2896	0.134126	-421.842998	-421.834408	-421.833463	-421.876098	31.864	
C	 0.0434952607	 1.5302537011	-0.048427319	-0.489818
C	-0.0232628669	 0.0426791722	 0.0448546619	 0.187753
C	-1.0846920702	-0.7625279631	 0.2013049786	-0.226749
C	-0.6994534362	-2.220866935	 0.15637226	 0.387952
C	-1.5157425648	-3.2722514153	 0.851117937	-0.492885
O	-0.1360531859	-2.5694125085	-1.1316835705	-0.287903
C	 0.7531221626	-2.2519355566	-0.0417634202	-0.164612
C	 1.2159026205	-0.7993485206	-0.0632683572	 0.350409
O	 2.3541162196	-0.4003163098	-0.1133351772	-0.315764
H	 0.7537216938	 1.92978501	 0.6830616162	 0.146618
H	 0.4112534174	 1.8375584534	-1.0341391274	 0.147793
H	-0.933678994	 1.9902607895	 0.1165027438	 0.124887
H	-2.1150800473	-0.4383652375	 0.3030735346	 0.114848
H	-2.5313945481	-3.3031350021	 0.4415865694	 0.133438
H	-1.062808233	-4.2570006984	 0.7173122216	 0.139965
H	-1.5911434837	-3.0596468189	 1.9224129468	 0.132388
H	 1.4184538055	-3.0420746504	 0.2923382718	 0.111681
103.9575	131.091	161.3419	199.0625	238.4054	290.3235	329.7923	404.3868	450.1609	509.9075	562.3391	630.0123	705.4091	756.2367	789.4717	844.2949	887.4073	928.8231	992.2515	1015.9489	1048.026	1066.2109	1080.4395	1111.059	1175.879	1251.0131	1288.1171	1330.0353	1408.1032	1411.8987	1443.6519	1471.6148	1481.4934	1485.7754	1494.6243	1689.7257	1824.1156	3036.4962	3038.1586	3090.9493	3100.6662	3125.1056	3131.6004	3169.8113	3189.2939
CC1=CC2(C)OC2C1=O	CC1=C[C@@]2(C)O[C@H]2C1=O	
InChI=1S/C7H8O2/c1-4-3-7(2)6(9-7)5(4)8/h3,6H,1-2H3	InChI=1S/C7H8O2/c1-4-3-7(2)6(9-7)5(4)8/h3,6H,1-2H3/t6-,7+/m0/s1
