19
gdb 60939	3.73632	1.0239	0.94406	2.4426	77.13	-0.268	-0.0363	0.2317	1286.123	0.159196	-422.97578	-422.96765	-422.966706	-423.009143	31.092	
O	 0.756509135	-0.3360253829	-1.119083239	-0.432472
C	-0.0806487409	-0.0251734952	-0.0346825001	-0.016949
C	-1.4061432357	-0.7445565751	-0.1721034468	 0.139149
O	-1.6390400001	-1.4821170112	-1.0999908651	-0.26658
C	 0.5932835299	-0.4250305135	 1.2819786565	 0.049318
C	 1.811346768	 0.385757875	 1.8303217415	-0.048541
C	 0.820951009	 1.4902279544	 2.300946208	-0.224995
C	 0.1451229364	 0.135609497	 2.6722865944	-0.072057
C	 1.5412485604	-0.3158783959	 3.1942460725	-0.220546
H	 0.2410838958	-0.935507174	-1.6819144027	 0.293339
H	-0.3173705547	 1.0519030825	-0.0321787285	 0.090536
H	-2.1510465337	-0.5617255766	 0.6287624989	 0.100044
H	 0.7624967104	-1.5079408318	 1.2637417566	 0.074332
H	 2.7720433832	 0.5224425568	 1.3345488728	 0.085188
H	 1.1542811358	 2.104323012	 3.1415260631	 0.0945
H	 0.3461430323	 2.1119595555	 1.5404007488	 0.096211
H	-0.8164115062	-0.0102199905	 3.1679035552	 0.071782
H	 1.7258269548	-1.3924546536	 3.2402645303	 0.094148
H	 1.9122933503	 0.1957142169	 4.0858506336	 0.093592
57.0777	97.4232	154.5089	257.8947	302.2207	350.1875	413.9065	464.422	550.8582	572.7266	771.0026	783.8393	805.6995	836.3686	876.5052	900.0393	905.2981	918.5753	1004.3625	1009.6424	1022.3427	1031.6976	1086.9326	1104.8051	1112.1386	1141.4442	1142.7532	1161.0019	1192.3239	1214.3917	1241.152	1246.359	1256.7375	1270.3313	1309.0413	1392.0172	1408.3805	1440.4423	1505.2066	1543.9768	1810.2258	2931.0436	2973.4779	3040.3626	3053.0429	3064.8934	3094.5246	3119.5065	3120.2947	3126.2936	3689.3223
OC(C=O)C1C2CC1C2	O[C@@H](C=O)[C@H]1[C@H]2C[C@@H]1C2	
InChI=1S/C7H10O2/c8-3-6(9)7-4-1-5(7)2-4/h3-7,9H,1-2H2	InChI=1S/C7H10O2/c8-3-6(9)7-4-1-5(7)2-4/h3-7,9H,1-2H2/t4-,5+,6-,7-/m0/s1
