16
gdb 29652	2.479	1.62492	0.99307	4.2635	68.49	-0.1738	0.0573	0.2311	1132.8127	0.124645	-471.252126	-471.24276	-471.241816	-471.286275	33.434	
C	-0.0246944319	 1.4433480962	 0.0456624843	-0.342749
N	-0.0088436199	-0.0022280011	 0.0564087362	-0.15191
C	-0.0026457567	-0.7785650771	-1.1118474541	 0.446259
O	-0.0044556477	-0.3686236162	-2.2592633286	-0.445199
N	 0.0088098004	-2.0789539591	-0.652724153	-0.422892
C	 0.0699047114	-2.1182678919	 0.7691229002	 0.107165
N	 0.0839289858	-3.2513438301	 1.5932318534	-0.613659
C	 0.0411853363	-0.8288005528	 1.1648128149	 0.369995
O	 0.0349536184	-0.2847081413	 2.3981092346	-0.438131
H	 0.8709048268	 1.8536352242	 0.5226629509	 0.135419
H	-0.0503951027	 1.7455942327	-1.0024317239	 0.168365
H	-0.9069760997	 1.8336290267	 0.5621530947	 0.135784
H	 0.1458212761	-2.8555012305	-1.2751145119	 0.256254
H	-0.7383573942	-3.83935675	 1.4921414947	 0.243311
H	 0.9075285764	-3.8338337855	 1.4758401447	 0.242543
H	 0.0609969111	-1.0256448943	 3.018665343	 0.309444
93.2858	108.306	122.9469	168.9893	248.423	249.9604	266.5388	340.0169	353.2361	419.4263	483.8213	571.9422	635.6399	644.0959	665.9228	748.2102	754.0026	789.3671	930.072	1030.5299	1156.5779	1160.599	1211.3089	1240.2635	1259.3438	1276.2735	1348.1408	1427.1253	1438.2491	1492.953	1514.904	1541.0244	1655.4998	1772.1638	1829.2138	3038.8172	3096.8978	3150.2072	3475.8701	3534.4264	3691.3051	3776.7477
CN1C(=O)NC(N)=C1O	Cn1c(=O)[nH]c(N)c1O	
InChI=1S/C4H7N3O2/c1-7-3(8)2(5)6-4(7)9/h8H,5H2,1H3,(H,6,9)	InChI=1S/C4H7N3O2/c1-7-3(8)2(5)6-4(7)9/h8H,5H2,1H3,(H,6,9)
