12
gdb 23938	9.31451	0.69218	0.6443	6.4407	91.15	-0.2438	-0.0709	0.1729	1580.4737	0.080108	-394.55641	-394.549131	-394.548187	-394.588937	26.049	
N	 0.1536442063	-3.6885334352	-0.019561956	-0.332421
C	 0.0830879163	-2.5278871037	-0.0122960726	 0.16383
C	 0.0105817289	-1.1679236766	-0.0039145733	 0.304916
C	-0.0509181997	 0.0421875347	 0.0035320771	-0.042589
C	-0.0929154629	 1.4467315597	 0.0118445384	 0.109257
N	-1.1784721094	 2.2097036983	 0.0301364624	-0.283311
C	-0.7222677315	 3.4931499839	 0.0313225524	-0.095153
C	 0.6558258091	 3.5234813809	 0.013586903	-0.092892
N	 1.0467154444	 2.2159342865	 0.0012903492	-0.287832
H	-1.4019051464	 4.3312743633	 0.0447753976	 0.124685
H	 1.3665799161	 4.3330620599	 0.0088170301	 0.147875
H	 1.9921582389	 1.8691102884	-0.0128627684	 0.283636
75.3653	85.5738	220.7869	232.9815	439.8911	460.6429	513.5135	567.6419	583.6627	589.46	644.4774	738.6093	766.6015	876.3707	917.6735	947.1801	1043.3429	1116.5998	1144.7638	1194.9836	1295.6615	1413.3034	1429.5057	1467.4942	1564.4486	2258.3951	2376.0918	3255.4181	3283.7949	3659.0152
N#CC#CC1=NC=CN1	N#CC#Cc1ncc[nH]1	
InChI=1S/C6H3N3/c7-3-1-2-6-8-4-5-9-6/h4-5H,(H,8,9)	InChI=1S/C6H3N3/c7-3-1-2-6-8-4-5-9-6/h4-5H,(H,8,9)
