18
gdb 52701	3.97432	0.69243	0.60527	6.8408	78.42	-0.2461	0.0189	0.265	1795.4694	0.146562	-439.09962	-439.0895	-439.088556	-439.136701	35.06	
C	 0.0118682535	 1.5251437753	-0.0583790845	-0.499772
C	 0.0419186305	 0.070019088	-0.0317185778	 0.121245
C	 0.0767816876	-1.1338889984	-0.0022701317	 0.05052
C	 0.0897005843	-2.5969260052	 0.0063897204	-0.214597
N	-1.2259902593	-3.1934709489	 0.3557385592	-0.516457
H	-1.9491172337	-2.7679583662	-0.2196496217	 0.246907
H	-0.7146864438	-4.8013039739	-0.1964217316	 0.314526
H	-1.4602145201	-2.9770076571	 1.3199500366	 0.251546
C	 0.5532470868	-3.1675535189	-1.3535613765	-0.315917
C	 0.7621237629	-4.688310623	-1.3941547532	 0.391431
O	-0.0961586002	-5.4166155895	-0.6682129456	-0.370598
O	 1.629008078	-5.1938850933	-2.0569703348	-0.331375
H	 0.7019236681	 1.9486787674	 0.6792419285	 0.155558
H	 0.2992329378	 1.9094303429	-1.0429490572	 0.155998
H	-0.9903332265	 1.9053816318	 0.1673264755	 0.152073
H	 0.7912470312	-2.9440029589	 0.7757239142	 0.131058
H	-0.1898563262	-2.904092367	-2.1176162742	 0.130858
H	 1.4930178293	-2.703287235	-1.6536617654	 0.146996
20.9162	72.9596	80.206	92.4014	178.0747	257.7073	289.5752	330.9746	340.2345	389.4238	429.745	504.7168	547.7444	620.5221	669.6737	783.7376	871.0689	904.2789	947.528	972.6601	988.7462	1052.291	1052.7003	1105.2736	1138.4546	1167.2137	1263.9007	1272.0988	1294.8196	1359.1549	1394.176	1414.7344	1461.797	1476.1675	1477.5161	1496.7776	1651.1032	1859.5359	2366.3434	3026.1036	3030.6999	3043.283	3092.7699	3094.2816	3135.7817	3256.2534	3487.9524	3569.3789
CC#CC([NH3+])CC([O-])=O	CC#C[C@@H](N)CC(=O)O	
InChI=1S/C6H9NO2/c1-2-3-5(7)4-6(8)9/h5H,4,7H2,1H3,(H,8,9)	InChI=1S/C6H9NO2/c1-2-3-5(7)4-6(8)9/h5H,4,7H2,1H3,(H,8,9)/t5-/m1/s1
