14
gdb 76033	2.76525	1.2284	1.07921	5.1945	71.11	-0.2608	-0.0094	0.2514	1127.827	0.097795	-436.632591	-436.623547	-436.622603	-436.666182	33.085	
O	 0.0450878183	 1.3724667714	-0.0877546382	-0.411785
C	 0.0472042314	 0.0012550386	 0.0056171927	 0.087643
C	-0.4220704628	-0.7056424446	 1.2844554591	-0.326916
C	-0.8571421246	 0.0738057059	 2.4042809496	 0.328068
N	-1.192209572	 0.713475642	 3.3076851233	-0.333982
C	-1.2850527487	-0.7258372062	 0.0088599726	 0.133592
O	-2.3962027832	 0.127166143	 0.0849948037	-0.450504
C	-1.4642271005	-1.9617821522	-0.6943328937	 0.269642
C	-1.6090985908	-2.9809824545	-1.316102414	-0.403197
H	-0.8509399865	 1.6754144651	 0.1210957673	 0.302803
H	 0.8881540149	-0.4468390541	-0.5108652447	 0.137223
H	 0.0637369495	-1.6424083504	 1.5330275914	 0.152016
H	-2.763842823	 0.2076948893	-0.8035523729	 0.304789
H	-1.741670452	-3.8872626334	-1.8547002262	 0.210607
99.4602	123.9263	155.6988	162.3353	242.3561	268.1576	348.2872	391.3542	447.864	473.1605	486.9812	557.7918	603.3577	649.6408	664.4421	696.2901	717.7013	826.6211	847.833	993.1716	1036.9648	1083.9865	1122.0668	1203.8747	1242.7699	1305.6121	1337.3913	1386.2334	1457.1369	2234.3002	2357.375	3180.6022	3190.6146	3497.5801	3737.9556	3796.2265
OC1C(C#N)C1(O)C#C	O[C@H]1[C@@H](C#N)[C@]1(O)C#C	
InChI=1S/C6H5NO2/c1-2-6(9)4(3-7)5(6)8/h1,4-5,8-9H	InChI=1S/C6H5NO2/c1-2-6(9)4(3-7)5(6)8/h1,4-5,8-9H/t4-,5+,6-/m1/s1
