13
gdb 84197	3.76662	1.11936	0.89083	1.4009	67.77	-0.2592	-0.0732	0.186	1193.0777	0.089368	-452.788627	-452.780698	-452.779754	-452.821397	28.77	
O	 0.1092817921	 1.4384646924	 0.1699761498	-0.42458
C	-0.0207843853	 0.0450960572	 0.0409401804	 0.007149
C	-1.4372925455	-0.4386610462	-0.1033186445	-0.235995
C	-1.4970321519	-1.2438758436	-1.1763886948	 0.270008
N	-0.250517251	-1.3341134201	-1.8393902922	-0.402987
C	 0.6536094893	-0.471741321	-1.2513147481	 0.381031
O	 1.7392990254	-0.1459931274	-1.6642112408	-0.359541
C	-2.6104050441	-1.9811199035	-1.6621581015	 0.231989
N	-3.5065247786	-2.584006536	-2.077941714	-0.316861
H	 0.9951990139	 1.6571682104	-0.1510322257	 0.301789
H	 0.4541693077	-0.4826192738	 0.8898795723	 0.119775
H	-2.2445150048	-0.2315955961	 0.5810394462	 0.148094
H	-0.1336492673	-1.7014354123	-2.771606327	 0.280129
103.3826	120.6103	151.7507	228.3298	324.7837	354.1641	450.9254	475.6905	493.6123	544.3002	599.1858	653.3506	666.7689	749.2641	797.5702	882.1873	970.6474	1017.1322	1113.2669	1180.1083	1206.9366	1230.8793	1292.4277	1339.8625	1403.0124	1421.765	1663.3614	1851.1148	2352.2272	2927.3563	3269.2816	3635.9866	3756.989
OC1C=C(NC1=O)C#N	O[C@H]1C=C(NC1=O)C#N	
InChI=1S/C5H4N2O2/c6-2-3-1-4(8)5(9)7-3/h1,4,8H,(H,7,9)	InChI=1S/C5H4N2O2/c6-2-3-1-4(8)5(9)7-3/h1,4,8H,(H,7,9)/t4-/m0/s1
