17
gdb 90850	3.24068	1.78611	1.54198	2.5513	69.79	-0.2383	-0.0072	0.2311	888.0602	0.139133	-417.98964	-417.983015	-417.982071	-418.020364	27.186	
O	-0.0528460818	 1.3768147907	-0.0877124152	-0.4441
C	 0.0190851892	-0.0373097853	 0.0098043553	 0.146708
C	 0.5982102157	-0.4980726664	 1.3796122658	-0.273761
C	-0.6089614821	-0.5396327582	 2.3140829958	-0.019373
C	-1.8432999064	-0.3214230806	 1.5292428826	-0.046397
C	-1.4341267702	-0.5435063474	 0.0593083872	-0.042393
N	-1.3780719453	-2.0174912	-0.1112860418	-0.205047
C	-1.4133438852	-2.5060080515	 1.0615051765	 0.033836
N	-1.6372760442	-1.6385685646	 2.1746671308	-0.154939
H	 0.8447963546	 1.723397585	-0.1002806502	 0.284715
H	 0.5670010706	-0.4698355797	-0.8372405328	 0.081087
H	 1.1026370583	-1.4652597248	 1.2948372765	 0.118504
H	 1.336365767	 0.2205434328	 1.7491853586	 0.099029
H	-0.5014065024	-0.2023968603	 3.3390195131	 0.104837
H	-2.6931748976	 0.2738008428	 1.8409054291	 0.10025
H	-2.064480554	-0.0736968422	-0.6951323947	 0.091585
H	-1.3174569662	-3.5690270203	 1.2634840034	 0.12546
141.1786	281.5241	290.6465	318.4684	388.5247	463.4591	565.2525	666.112	702.8995	757.861	792.0238	839.4653	859.6218	863.9357	912.9909	940.8819	962.1594	981.4619	985.378	1014.639	1036.0338	1053.8973	1084.2591	1116.361	1185.5055	1210.7088	1242.9935	1252.7891	1284.8367	1292.2197	1298.8619	1316.2513	1353.8723	1386.7237	1420.3612	1473.8976	1674.1133	3024.2223	3055.5493	3094.9322	3123.5082	3169.9681	3183.8467	3187.8829	3820.1174
OC1CC2C3C1N=CN23	O[C@H]1C[C@H]2[C@H]3[C@@H]1[N][CH]N23	
InChI=1S/C6H8N2O/c9-4-1-3-6-5(4)7-2-8(3)6/h2-6,9H,1H2	InChI=1S/C6H8N2O/c9-4-1-3-6-5(4)7-2-8(3)6/h2-6,9H,1H2/t3-,4-,5+,6-,8?/m0/s1
