19
gdb 58002	3.97891	0.779	0.72105	5.8525	74.	-0.262	-0.0345	0.2275	1605.4385	0.155631	-460.204485	-460.194102	-460.193158	-460.241101	35.755	
C	 0.1613901942	 1.5612661444	 0.1025721899	-0.389402
C	 0.0920093496	 0.0180464	 0.1062701441	-0.077053
C	 0.8815673599	-0.5857446984	-1.0596581932	-0.386248
C	 0.6235447765	-0.4777332212	 1.4464551902	 0.378963
O	 1.7879906985	-0.7199058455	 1.6522196	-0.297708
C	-0.4193781949	-0.6671642962	 2.5529001799	-0.207818
O	 0.1534983926	-0.7262756496	 3.8434246677	-0.164845
C	 0.8579693751	-1.8417918364	 4.1534830705	 0.190591
O	 1.4416101367	-1.955245741	 5.1862200913	-0.27243
H	 1.2006124244	 1.8944940104	 0.1796192738	 0.143534
H	-0.2574144259	 1.9520915487	-0.8291163373	 0.128493
H	-0.3986518407	 2.0024576536	 0.9332177638	 0.122662
H	-0.9646912938	-0.2736014877	 0.031290921	 0.084115
H	 1.9443008346	-0.3541420225	-0.9557059577	 0.145035
H	 0.7792766977	-1.6745563081	-1.0903008053	 0.119781
H	 0.5252563205	-0.1824736749	-2.0119219481	 0.11609
H	-1.1296026612	 0.1635533859	 2.5628134789	 0.147902
H	-0.9929963849	-1.5781513247	 2.3190312686	 0.136665
H	 0.796459711	-2.6218980166	 3.3732950718	 0.081672
36.6794	59.719	83.9305	186.7406	198.6751	207.7958	221.3549	260.5509	294.0884	318.1286	368.159	424.2017	567.0209	627.7733	688.5895	832.6733	879.8304	932.84	960.9058	979.2407	1026.3455	1042.6416	1072.3107	1115.1866	1129.6736	1176.7514	1200.8358	1291.0727	1321.254	1366.8073	1389.8017	1399.5318	1419.7452	1429.6548	1469.3033	1486.2779	1489.1376	1502.0803	1511.6399	1820.6958	1876.6738	2974.6476	2995.926	3014.5435	3038.4212	3046.1915	3103.4746	3109.2013	3113.6409	3119.5966	3132.1578
CC(C)C(=O)COC=O	CC(C)C(=O)COC=O	
InChI=1S/C6H10O3/c1-5(2)6(8)3-9-4-7/h4-5H,3H2,1-2H3	InChI=1S/C6H10O3/c1-5(2)6(8)3-9-4-7/h4-5H,3H2,1-2H3
