18
gdb 104267	2.23727	1.45033	1.13056	5.3703	72.42	-0.2721	0.0026	0.2746	1152.8029	0.145312	-439.061906	-439.052422	-439.051477	-439.096505	33.744	
C	 0.0675663702	 1.3927721361	 0.0490629535	-0.258482
O	-0.071916086	 0.0223953304	 0.3736337858	-0.27173
C	-1.3287038556	-0.5408108689	 0.1251648435	 0.363896
C	-2.4443720724	 0.0365885593	 0.9885920091	-0.460777
C	-1.7135424109	-0.7670884883	-1.3640724666	-0.126014
O	-1.8563118398	-2.1897633299	-1.1387266009	-0.269778
C	-1.2690471096	-2.1006437262	 0.1713008793	-0.106462
C	 0.0717979365	-2.6903016513	 0.2349452461	 0.320589
N	 1.1117067287	-3.1900381342	 0.2914416428	-0.328669
H	 1.1254648946	 1.6325118225	 0.1707114182	 0.1455
H	-0.2225225575	 1.5986618107	-0.9914999964	 0.113403
H	-0.5193337521	 2.0415093333	 0.7123714278	 0.118101
H	-2.6425334722	 1.0817271044	 0.7339678354	 0.128688
H	-3.371816431	-0.5225020253	 0.8348311057	 0.13732
H	-2.1705521136	-0.0182212068	 2.0464940779	 0.136825
H	-2.6472558162	-0.3193779906	-1.7177724361	 0.112403
H	-0.8983313462	-0.547881033	-2.0632724438	 0.119445
H	-1.9003731469	-2.5738909822	 0.9317551888	 0.125741
63.9764	98.9846	120.7182	188.8188	205.3203	246.1923	268.3745	324.1599	364.6232	389.8971	444.3092	536.698	596.288	667.147	851.0323	890.5873	919.0789	937.2647	976.7304	1020.2515	1044.2276	1101.4525	1157.3095	1172.1925	1181.0867	1184.7276	1231.9359	1248.0714	1277.9824	1349.9118	1353.8401	1405.6962	1477.6494	1486.7781	1488.2644	1504.5631	1508.1352	1511.9831	2360.6921	2994.3875	3030.5508	3041.4218	3049.6492	3052.1323	3091.3206	3116.3904	3121.1583	3130.5278
COC1(C)COC1C#N	CO[C@@]1(C)CO[C@H]1C#N	
InChI=1S/C6H9NO2/c1-6(8-2)4-9-5(6)3-7/h5H,4H2,1-2H3	InChI=1S/C6H9NO2/c1-6(8-2)4-9-5(6)3-7/h5H,4H2,1-2H3/t5-,6-/m0/s1
