18
gdb 30255	2.73767	1.53748	1.04982	3.3537	80.65	-0.1787	0.0439	0.2227	1147.3166	0.150015	-398.132114	-398.123837	-398.122893	-398.16512	31.118	
C	-0.2882723954	 1.5386600018	 0.059022796	-0.391796
C	-0.0267267721	 0.0371631128	 0.0035430631	-0.171238
C	 1.1316242863	-0.439781135	-0.9638208812	-0.185762
N	 1.804140446	-0.9878376381	 0.2325087034	-0.002001
C	 2.7932977499	-1.590402087	 0.9271670991	-0.045772
N	 2.477045678	-1.5995068341	 2.2177548867	-0.312562
C	 1.2589219319	-0.9731417709	 2.3575434009	 0.10722
N	 0.7036923974	-0.7725001453	 3.6288402647	-0.59975
C	 0.8286717267	-0.581879259	 1.1082095592	 0.281093
H	 0.6412065634	 2.093050699	 0.2217665	 0.12585
H	-0.7473761583	 1.8934236131	-0.8702843245	 0.114567
H	-0.9682353858	 1.7804348258	 0.8818626648	 0.127478
H	-0.9621821427	-0.49950614	-0.1907927299	 0.088565
H	 0.8607295921	-1.1986933872	-1.7020857434	 0.126495
H	 1.6898668429	 0.3680377035	-1.4447802047	 0.127364
H	 3.6907976684	-2.0037707899	 0.4956912139	 0.127552
H	 1.1773319303	-1.3604588824	 4.3039191326	 0.245757
H	-0.2911153391	-0.956409777	 3.6594754992	 0.236938
78.7415	118.6228	197.064	210.1473	255.435	314.0062	362.2006	434.7655	529.3924	644.1554	656.1679	682.0621	703.6232	762.3265	777.1906	806.9805	856.4471	913.7124	1020.6946	1052.5739	1083.842	1087.081	1128.1304	1172.0453	1204.1343	1224.0838	1239.1819	1284.4137	1344.7398	1357.1252	1380.6783	1410.0154	1438.5782	1467.0041	1493.3096	1496.0753	1511.0737	1629.8046	1650.8816	3032.0516	3036.7907	3057.7472	3101.3508	3109.8414	3115.5802	3263.8019	3530.2739	3623.2471
CC1CN2C=NC(N)=C12	C[C@H]1Cn2cnc(N)c12	
InChI=1S/C6H9N3/c1-4-2-9-3-8-6(7)5(4)9/h3-4H,2,7H2,1H3	InChI=1S/C6H9N3/c1-4-2-9-3-8-6(7)5(4)9/h3-4H,2,7H2,1H3/t4-/m0/s1
