12
gdb 131300	4.34943	1.01846	0.91031	3.017	61.22	-0.2785	-0.0486	0.2299	1200.7243	0.078818	-464.971968	-464.964515	-464.96357	-465.005066	26.042	
O	 0.2330184193	 1.2664936782	-0.1405703545	-0.389389
C	 0.1140262266	-0.0553229498	-0.0757688785	 0.495819
N	 0.2175090768	-0.835520137	-1.1414936772	-0.310547
N	 0.0248169002	-2.032072806	-0.5768244448	 0.151222
C	 0.0575037007	-3.2735504917	-1.3242686976	-0.271873
C	 1.4124085674	-3.6454814189	-1.7465697437	 0.289346
N	 2.4681458081	-3.9618865845	-2.0884873652	-0.280868
N	-0.1794029831	-1.9999286529	 0.7299607857	-0.11152
N	-0.1297670736	-0.7371459086	 1.0709703222	-0.291436
H	 0.1258626781	 1.6123918764	 0.7549913634	 0.325402
H	-0.3529366033	-4.0441848174	-0.6678854673	 0.200686
H	-0.5850193872	-3.1735574977	-2.2032898824	 0.193158
47.5979	82.8846	230.196	291.583	363.8312	371.8184	409.5026	477.9234	490.1341	674.6826	727.1604	775.6607	836.4908	943.8199	963.0276	1024.1903	1109.7957	1187.2143	1198.5142	1272.8826	1362.4442	1382.3122	1411.1531	1449.2805	1481.1788	1640.9628	2377.2666	3079.033	3135.2798	3799.4212
OC1=NN(CC#N)N=N1	Oc1nn(CC#N)nn1	
InChI=1S/C3H3N5O/c4-1-2-8-6-3(9)5-7-8/h2H2,(H,6,9)	InChI=1S/C3H3N5O/c4-1-2-8-6-3(9)5-7-8/h2H2,(H,6,9)
