19
gdb 6781	7.56077	0.6789	0.63779	4.3099	69.82	-0.2455	0.034	0.2795	1728.9296	0.163204	-402.226159	-402.215887	-402.214943	-402.263222	34.179	
C	 0.0203342977	 1.3899023054	 0.0416968965	-0.226321
O	 0.1117127538	-0.0127538811	 0.0558346011	-0.228413
C	 0.6140436128	-0.5438630237	-1.1496416979	-0.053684
C	 0.6671003696	-2.05976843	-1.0261388806	-0.183498
C	 1.2230462253	-2.7262129653	-2.2850261661	-0.317139
C	 1.1023185722	-4.2497865097	-2.2339083967	 0.409334
N	 2.012710366	-4.9205718318	-3.001223327	-0.523021
O	 0.2594400829	-4.8264412435	-1.5757320736	-0.354394
H	 1.003621749	 1.8640596622	-0.111155364	 0.099829
H	-0.6569821163	 1.7494310593	-0.749961325	 0.101153
H	-0.3743994183	 1.7033358495	 1.0113293718	 0.126748
H	-0.0306152707	-0.2495241545	-1.997867644	 0.080288
H	 1.6189116719	-0.1332321804	-1.3586595258	 0.076632
H	 1.2811247512	-2.32439979	-0.1585835191	 0.113229
H	-0.3343277126	-2.4502901799	-0.8283124062	 0.13597
H	 0.6606273138	-2.3901138993	-3.1680438793	 0.126306
H	 2.2666723656	-2.436266511	-2.4590349413	 0.101442
H	 2.6654475355	-4.4458028738	-3.5991631051	 0.255775
H	 1.9215041805	-5.9200980224	-3.0811880279	 0.259763
26.7335	54.5415	99.1485	117.27	124.4844	135.5263	235.0049	239.967	314.8648	422.4703	491.4426	523.3995	615.1561	668.2637	764.7998	848.8138	881.6332	990.9403	1056.5433	1068.2154	1092.2521	1120.0236	1167.4718	1179.9455	1219.7648	1221.7427	1257.5234	1297.1954	1305.5017	1335.608	1404.6354	1430.4296	1466.2482	1481.9145	1485.2533	1496.5473	1506.3213	1532.2752	1616.8054	1800.6461	2929.8394	2953.3215	2964.6016	3005.0161	3011.7241	3049.9225	3059.3052	3111.6791	3113.3753	3602.4871	3739.7888
COCCCC(N)=O	COCCCC(=O)N	
InChI=1S/C5H11NO2/c1-8-4-2-3-5(6)7/h2-4H2,1H3,(H2,6,7)	InChI=1S/C5H11NO2/c1-8-4-2-3-5(6)7/h2-4H2,1H3,(H2,6,7)
