15
gdb 29354	2.06261	1.87255	0.98351	0.395	78.38	-0.1769	0.0192	0.1962	1130.3585	0.112389	-416.802082	-416.793284	-416.79234	-416.834984	33.565	
N	 0.0507216513	 1.3766719359	 0.1759697072	-0.621723
C	 0.0063039868	-0.0084842067	 0.0381764605	 0.125927
C	-1.0610686682	-0.8447507686	 0.0092884789	-0.117474
O	-0.6194790188	-2.1680855028	-0.0615663834	-0.179411
C	 0.716266733	-2.1390432138	-0.0764985199	 0.286339
N	 1.3665409475	-3.3417247378	-0.216903496	-0.605734
C	 1.191494839	-0.8478934617	-0.0155052268	 0.058891
C	 2.5350559256	-0.4338238825	-0.0098430653	 0.140614
C	 3.6846530157	-0.0638203068	-0.0081629651	-0.413585
H	 0.9012976531	 1.7748993979	-0.2002003767	 0.251466
H	-0.7596439746	 1.8546736197	-0.1924526276	 0.245414
H	-2.1270711437	-0.7129483899	 0.0403857936	 0.122855
H	 0.8794423446	-4.1258311864	 0.1949795699	 0.260738
H	 2.3395905816	-3.3014416635	 0.0521922635	 0.266534
H	 4.695962307	 0.2576744169	-0.0029359328	 0.179149
113.0644	138.1237	207.8606	251.5179	265.5381	298.7414	362.4125	401.9835	432.0229	509.6118	537.9835	566.7206	584.7032	610.064	639.216	676.827	683.9296	711.1896	752.7908	787.5948	1004.8188	1073.0316	1138.9115	1145.8108	1245.992	1296.9325	1390.994	1491.3299	1602.764	1641.4289	1662.387	1679.2655	2213.1902	3303.0693	3504.5416	3545.7155	3556.4814	3642.2799	3662.2915
NC1=COC(N)=C1C#C	Nc1coc(N)c1C#C	
InChI=1S/C6H6N2O/c1-2-4-5(7)3-9-6(4)8/h1,3H,7-8H2	InChI=1S/C6H6N2O/c1-2-4-5(7)3-9-6(4)8/h1,3H,7-8H2
