22
gdb 58839	2.92244	1.24482	1.19053	1.4467	85.81	-0.2237	0.0094	0.2331	1198.0731	0.194884	-367.207724	-367.198865	-367.197921	-367.240909	34.905	
C	 0.0231986101	 1.4440104789	-0.2560278947	-0.398449
C	 0.0077778013	-0.049170721	 0.1042948329	-0.026816
C	 0.8151305792	-0.3347271549	 1.3784898683	-0.399216
C	-1.4164133194	-0.5730130317	 0.1875936008	 0.348064
C	-2.3861464698	-0.0493368402	 1.2587431759	-0.34656
C	-3.3139130241	-1.2183857711	 1.516177242	-0.091071
C	-2.9571865671	-2.2988991554	 0.8156613356	-0.075771
C	-1.7928909576	-2.0016176744	-0.069472608	-0.125493
N	-2.0110714458	-0.9553465567	-1.1024938053	-0.377255
H	 1.0476495572	 1.8011889762	-0.4033256208	 0.107971
H	-0.5359874837	 1.6243575986	-1.1790496628	 0.124497
H	-0.4252271396	 2.0512215637	 0.5392417041	 0.108771
H	 0.4747991202	-0.5950487759	-0.7243758802	 0.081856
H	 0.8001334471	-1.4001829014	 1.6295956721	 0.114313
H	 1.8592597142	-0.0332788827	 1.2462959226	 0.111951
H	 0.4256527674	 0.2182169822	 2.2406026681	 0.112169
H	-1.8562384951	 0.2435957152	 2.1741635808	 0.114378
H	-2.926362904	 0.8454000869	 0.92216864	 0.1128
H	-4.1714824198	-1.1477290018	 2.1757678172	 0.097504
H	-3.4514675199	-3.2631544609	 0.8386036714	 0.099113
H	-1.0803041156	-2.773898825	-0.3423512074	 0.08782
H	-3.0023480255	-0.7211111186	-1.1302964025	 0.219423
74.5311	139.545	209.2081	234.9266	259.845	297.0337	302.53	371.3388	444.0242	486.5444	529.203	597.9483	722.8737	747.1181	783.2987	864.0086	873.9566	910.5981	927.4004	938.4303	954.453	963.2439	980.9535	991.2467	1034.7592	1066.9319	1119.0642	1130.9125	1144.7078	1164.1512	1186.205	1201.3751	1273.8807	1282.5045	1309.5461	1342.3243	1349.1377	1380.8215	1395.9054	1414.0612	1425.7446	1470.3807	1488.8272	1494.1051	1505.2727	1512.7907	1661.1765	3020.7182	3026.9974	3030.6659	3033.62	3047.8411	3091.14	3098.1376	3103.0802	3108.2837	3156.0974	3187.3323	3212.5525	3468.6947
CC(C)C12CC=CC1N2	CC(C)[C@]12CC=C[C@H]1N2	
InChI=1S/C8H13N/c1-6(2)8-5-3-4-7(8)9-8/h3-4,6-7,9H,5H2,1-2H3	InChI=1S/C8H13N/c1-6(2)8-5-3-4-7(8)9-8/h3-4,6-7,9H,5H2,1-2H3/t7-,8-/m1/s1
