23
gdb 83949	2.1985	1.61225	1.36742	1.4788	84.81	-0.2396	0.0822	0.3218	1120.2915	0.207294	-388.284631	-388.275875	-388.274931	-388.317737	34.324	
C	-0.1058433119	 1.6388951017	-0.0093078383	-0.441387
C	 0.0490451574	 0.1239218634	 0.0041246385	 0.045608
C	 1.0609912686	-0.6001326999	-0.935514158	-0.065403
C	 2.3858426563	 0.1585263505	-0.9485442628	-0.071307
O	 2.949418181	 0.310649229	 0.3530182673	-0.277496
C	 2.0938791305	 0.1501444698	 1.4831121083	-0.07131
C	 0.8103861841	-0.6073176557	 1.1516751078	-0.065405
C	 1.1628754915	-1.7332101449	 0.131469214	 0.04675
C	 0.158312513	-2.8733513654	 0.0069234741	-0.432677
H	 0.8464313976	 2.1635412068	 0.107080492	 0.13093
H	-0.5542153553	 1.9747626287	-0.9513275357	 0.113119
H	-0.7651791651	 1.9687667965	 0.8016798028	 0.113114
H	-0.9391926525	-0.3290674007	-0.1160789365	 0.069881
H	 0.7477309101	-0.8504005982	-1.9540543824	 0.056271
H	 3.1288430917	-0.3918120695	-1.5406582777	 0.098333
H	 2.2574384067	 1.1448658191	-1.420352527	 0.089675
H	 2.6760381011	-0.4048277242	 2.2305204284	 0.098333
H	 1.8566476951	 1.1333566425	 1.9178216859	 0.089674
H	 0.2651212109	-0.8642430818	 2.0653845887	 0.056272
H	 2.1702328329	-2.1470020502	 0.2509988408	 0.072403
H	-0.869479937	-2.5175592153	-0.1153627292	 0.116145
H	 0.3928136955	-3.5047657114	-0.8572915634	 0.114239
H	 0.1819356681	-3.5106986908	 0.8978631425	 0.114239
70.4995	200.5418	204.4649	209.9692	249.5758	270.5011	280.8869	363.8946	426.914	520.5893	570.6099	625.1853	779.5931	789.6449	818.9755	834.2415	847.3913	960.6079	965.4219	979.7611	991.4353	1041.0576	1054.199	1060.9308	1081.8622	1102.4016	1133.1173	1146.1214	1170.8501	1180.8241	1221.6693	1224.4301	1263.84	1281.6668	1294.6687	1317.6607	1325.4683	1376.597	1382.9652	1390.8172	1409.1427	1416.987	1433.6953	1496.3505	1496.3614	1498.0427	1500.3672	1521.9432	1522.6671	2979.0932	2985.8102	3027.1515	3028.2316	3028.9417	3030.2682	3040.6533	3051.739	3057.6041	3065.3688	3086.4622	3089.9095	3102.1679	3110.9123
CC1C2COCC1C2C	C[C@H]1[C@H]2COC[C@@H]1[C@H]2C	
InChI=1S/C8H14O/c1-5-7-3-9-4-8(5)6(7)2/h5-8H,3-4H2,1-2H3	InChI=1S/C8H14O/c1-5-7-3-9-4-8(5)6(7)2/h5-8H,3-4H2,1-2H3/t5-,6-,7-,8+
