18
gdb 26513	3.67872	1.53995	1.26047	2.0686	83.25	-0.1958	0.0246	0.2204	1027.4764	0.149314	-364.789584	-364.7823	-364.781356	-364.820952	29.416	
C	-0.0623095858	 1.5597179419	 0.0905729962	-0.485079
C	 0.0280888359	 0.0666535786	 0.0565317255	 0.349326
C	-0.7828395578	-0.8991488336	 0.8856563161	-0.307508
C	 0.7426056936	-0.9387553023	 0.9603296428	-0.254959
C	 1.2278327706	-1.5954688517	-0.3121195376	 0.238206
C	 1.4454725024	-2.7285633343	-1.0604967614	-0.274875
C	 0.9351987799	-2.4241618413	-2.3666211448	-0.123433
C	 0.3529840813	-1.1694315274	-2.348018071	-0.16103
N	 0.6172275988	-0.6454490265	-1.1047408143	-0.020129
H	 0.8868968747	 2.0174011058	-0.2043339812	 0.134208
H	-0.8432207241	 1.925281789	-0.5862995054	 0.129353
H	-0.3138992446	 1.900658139	 1.0990698146	 0.127988
H	-1.2935113408	-0.4635505984	 1.7418876377	 0.114257
H	-1.3122496912	-1.7171785991	 0.4072995403	 0.131102
H	 1.2929554356	-0.7458914509	 1.8712126003	 0.103306
H	 1.9116609741	-3.6515822335	-0.7526775341	 0.09448
H	 1.0330878119	-3.0487837785	-3.2435029984	 0.091433
H	-0.1018310146	-0.595580487	-3.1399785454	 0.113355
135.0683	196.7644	206.9529	264.3578	360.5466	476.1542	494.7225	593.7654	633.1749	705.329	710.8715	725.954	787.568	810.7024	844.6745	853.8055	915.6411	943.4507	974.5246	981.904	994.0765	1040.8665	1071.6248	1080.0847	1107.6809	1121.7681	1204.0142	1215.5311	1238.7248	1253.5038	1368.4068	1380.1957	1413.1009	1428.0512	1462.7314	1479.6164	1481.9193	1499.1073	1579.1466	3032.1374	3094.7772	3109.6474	3116.4982	3200.6029	3208.2439	3227.6372	3253.5474	3261.998
CC12CC1C1=CC=CN21	C[C@]12C[C@H]1c1cccn21	
InChI=1S/C8H9N/c1-8-5-6(8)7-3-2-4-9(7)8/h2-4,6H,5H2,1H3	InChI=1S/C8H9N/c1-8-5-6(8)7-3-2-4-9(7)8/h2-4,6H,5H2,1H3/t6-,8-/m0/s1
