13
gdb 43035	2.92543	1.70455	1.23954	5.5789	68.18	-0.2666	-0.0398	0.2268	951.929	0.089787	-415.558878	-415.552096	-415.551152	-415.590222	25.691	
O	-0.0686190701	 0.0511519256	 0.1032210418	-0.297625
C	-0.0681913808	 1.242271048	 0.0957278187	 0.403418
C	-1.1391210667	 2.3357533473	-0.083704898	-0.218979
C	-0.8665274856	 3.2264745286	 1.1414790899	-0.162259
N	 0.48121717	 3.5891980711	 0.5537865431	-0.158486
C	 0.0182834413	 3.1634342742	-0.7664886154	-0.080935
C	 1.01988489	 2.2969592119	-0.0170601832	 0.103441
C	 2.4251604517	 2.1490066012	-0.1879804853	 0.202399
N	 3.5601289481	 1.9866319131	-0.3361273279	-0.334091
H	-2.1238296495	 2.0885437564	-0.4679491674	 0.118918
H	-1.4625104592	 4.1402174961	 1.1691993905	 0.1404
H	-0.8367521955	 2.756866914	 2.1291617213	 0.134311
H	 0.1565661464	 3.6825103326	-1.7044587282	 0.149488
137.7695	150.9116	187.8464	379.3714	408.3311	497.3582	541.4736	597.777	626.8282	748.9426	779.482	798.7505	838.147	881.0908	898.0339	964.4284	978.3624	1015.7207	1059.1195	1139.0593	1146.4956	1171.3093	1201.5144	1220.3619	1304.5714	1361.365	1507.5184	1905.6743	2362.3044	3062.7065	3131.6161	3177.6238	3229.967
O=C1C2CN3C2C13C#N	O=C1[C@H]2CN3[C@H]2[C@]13C#N	
InChI=1S/C6H4N2O/c7-2-6-4-3(5(6)9)1-8(4)6/h3-4H,1H2	InChI=1S/C6H4N2O/c7-2-6-4-3(5(6)9)1-8(4)6/h3-4H,1H2/t3-,4+,6+,8?/m0/s1
