18
gdb 131800	5.49379	0.66976	0.63817	3.9641	75.13	-0.2519	-0.0071	0.2448	1726.2545	0.147588	-439.078511	-439.069532	-439.068588	-439.11385	31.562	
O	-0.0024345357	 1.4615654093	 0.1983180532	-0.419081
C	 0.0435983197	 0.0480008124	 0.1037686906	-0.074527
C	-1.3912631849	-0.4578135274	 0.0317403629	-0.164725
C	-1.4621862212	-1.9905625419	-0.0951746314	-0.32677
C	-2.8599170427	-2.5079925037	-0.1372953743	 0.44133
C	-3.6104081946	-3.1161174622	-1.0973282849	-0.341385
C	-4.8622040355	-3.3246881767	-0.46085172	 0.036357
N	-4.8725554545	-2.8844423244	 0.772379242	-0.140445
O	-3.5963802455	-2.3627415726	 0.980950878	-0.210384
H	 0.8989068872	 1.7901671364	 0.2626224791	 0.287475
H	 0.5987453856	-0.2757019233	-0.7929261352	 0.083643
H	 0.5502770631	-0.3969258389	 0.976317965	 0.087647
H	-1.9286721341	-0.1352013767	 0.9289289241	 0.131393
H	-1.8898074128	 0.0107515392	-0.8237817016	 0.115854
H	-0.9494738895	-2.3201037746	-1.0048498661	 0.118276
H	-0.9380011053	-2.4525343189	 0.7512775218	 0.128002
H	-3.315681316	-3.37577325	-2.1001973569	 0.116557
H	-5.7566090833	-3.7829352359	-0.8593730462	 0.130784
41.0201	74.4965	90.7049	121.1697	243.5438	257.8172	309.4841	335.2621	460.7424	648.3027	674.5669	744.9593	761.449	808.9198	861.1206	917.2792	925.7402	945.5009	1009.7842	1022.1027	1036.5202	1054.2832	1085.7716	1092.9435	1203.6387	1213.7297	1232.1168	1259.8085	1298.5956	1306.8879	1313.7673	1371.6588	1390.4444	1465.7052	1476.6605	1500.4571	1515.2923	1528.7238	1635.789	2953.8436	2979.3984	3027.473	3052.9981	3075.2094	3104.1099	3242.0576	3279.7663	3831.8517
OCCCC1=CC=NO1	OCCCc1ccno1	
InChI=1S/C6H9NO2/c8-5-1-2-6-3-4-7-9-6/h3-4,8H,1-2,5H2	InChI=1S/C6H9NO2/c8-5-1-2-6-3-4-7-9-6/h3-4,8H,1-2,5H2
