17
gdb 30311	3.02993	1.63015	1.10814	2.1985	74.51	-0.1924	0.0054	0.1978	1068.8265	0.139126	-418.025514	-418.018162	-418.017218	-418.057407	28.264	
C	-0.2012888185	 1.5920608143	-0.0256653813	-0.397686
C	 0.0411238327	 0.0832890719	 0.068777572	-0.124604
C	 0.9086142005	-0.4834840744	-1.1245553797	-0.173369
N	 1.7287698802	-1.6188002293	-0.5936458174	-0.405107
C	 1.7914066251	-1.3461646502	 0.7779533843	 0.282042
C	 0.9034103793	-0.4174369448	 1.1775485024	 0.263888
O	 0.9186974646	-0.382507829	 2.5464448855	-0.19791
C	 1.8835753399	-1.2892721662	 2.8634010366	 0.039531
N	 2.4372992911	-1.9067816618	 1.8579645723	-0.347775
H	 0.7462580129	 2.1400389337	-0.0334937625	 0.119461
H	-0.7514325352	 1.8420029197	-0.9390341912	 0.116871
H	-0.7905840728	 1.9457686484	 0.8256610548	 0.126695
H	-0.934816908	-0.4260647369	 0.0799200459	 0.094563
H	 0.286710327	-0.8208387581	-1.9568834389	 0.115058
H	 1.5593525597	 0.3256061664	-1.4851643484	 0.103988
H	 2.6257481591	-1.709564162	-1.0562973548	 0.238242
H	 2.1120980624	-1.3970250217	 3.9119246603	 0.146111
104.4037	159.9674	218.9215	262.7657	313.6824	420.7144	482.3676	568.1985	630.7188	658.1376	703.3668	745.6356	795.9834	802.9116	902.2831	937.6227	946.8833	993.9264	1045.4129	1085.674	1107.4551	1125.6894	1141.8788	1225.3551	1259.3694	1302.7003	1317.7066	1328.6833	1359.7691	1394.6118	1408.7269	1467.4162	1494.3471	1500.1225	1505.5665	1520.9428	1684.2528	2976.1987	3003.205	3033.6903	3096.2318	3104.2506	3111.2442	3277.3696	3542.7884
CC1CNC2=C1OC=N2	C[C@H]1CNc2c1ocn2	
InChI=1S/C6H8N2O/c1-4-2-7-6-5(4)9-3-8-6/h3-4,7H,2H2,1H3	InChI=1S/C6H8N2O/c1-4-2-7-6-5(4)9-3-8-6/h3-4,7H,2H2,1H3/t4-/m0/s1
