16
gdb 128308	4.99146	1.06701	0.88506	4.7052	79.5	-0.1951	-0.0669	0.1281	1269.7687	0.126433	-430.248343	-430.240062	-430.239118	-430.281663	30.501	
C	-0.0553169031	 1.457659572	 0.0222743544	-0.314861
N	-0.0378534746	 0.0091433787	 0.1385591179	-0.361915
C	-1.2319926392	-0.68391158	 0.0639114761	 0.375567
N	-2.3664568511	-0.0496018533	 0.0910773173	-0.263923
N	-3.4698951643	-0.8269861055	 0.1014071274	-0.255027
C	-3.5209343467	-2.2131097311	 0.0225103408	 0.436864
N	-4.6549088203	-2.7999600299	-0.0108853164	-0.567158
N	-2.2712100626	-2.8605176255	-0.0083735452	-0.278595
C	-1.2115607805	-2.1343343456	 0.0171666099	-0.033772
H	 0.9692990856	 1.8276015839	 0.0941293891	 0.124562
H	-0.5038328253	 1.8059275618	-0.9189253255	 0.126364
H	-0.6417121071	 1.88148639	 0.8414898231	 0.151073
H	 0.730168156	-0.4459686696	-0.3318686256	 0.244913
H	-4.3466132389	-0.3298150466	 0.1251354431	 0.276502
H	-4.5011350341	-3.8049993737	-0.055123036	 0.22125
H	-0.2457140137	-2.6447851956	 0.0036659895	 0.118157
50.167	123.9222	170.0887	199.5428	339.6892	359.8303	381.9395	454.0396	476.4203	509.8806	605.3073	642.0071	648.2446	748.828	819.4858	823.5063	836.5337	979.4278	996.0336	1076.2819	1081.8131	1146.7843	1166.6987	1268.781	1300.0971	1332.2771	1435.1414	1442.963	1459.8766	1476.2615	1507.7481	1541.0293	1590.068	1688.302	1721.7322	3006.2295	3091.4293	3100.4144	3136.2717	3521.0357	3605.8925	3635.4431
CNC1=NNC(=N)N=C1	CNc1n[nH]c([NH])nc1	
InChI=1S/C4H7N5/c1-6-3-2-7-4(5)9-8-3/h2H,1H3,(H,6,8)(H2,5,7,9)	InChI=1S/C4H12N5/c1-6-3-2-7-4(5)9-8-3/h3-9H,2H2,1H3
