20
gdb 120217	3.4629	1.14402	1.05116	3.0419	80.01	-0.2235	0.0019	0.2255	1217.5868	0.172211	-403.078512	-403.070666	-403.069722	-403.111188	31.391	
O	-0.3677213527	 1.6791900498	-0.0622611373	-0.422048
C	-0.1498137453	 0.3178642784	 0.2294024251	-0.04496
C	-1.4763488615	-0.4498046307	 0.2630737425	-0.170929
N	-2.1773755549	-0.1794637794	-0.995194545	-0.106886
C	-1.9741468601	-1.1772327826	-2.1376657543	-0.057473
C	-3.0453473461	-2.1004256118	-1.4691412599	-0.224651
C	-3.6104572508	-0.6841465508	-1.1266668288	-0.050491
C	-3.9238463565	-0.1529332201	-2.5307780874	-0.06893
C	-2.8231144084	-0.4838639493	-3.2102957444	-0.068108
H	-1.0744025687	 1.6618359933	-0.7268180723	 0.277056
H	 0.5230698679	-0.1509930305	-0.5112180747	 0.074915
H	 0.3470110402	 0.252569772	 1.2039834633	 0.09908
H	-1.2925071081	-1.5135289783	 0.4839595497	 0.081178
H	-2.0954762389	-0.0426574152	 1.0716340705	 0.107272
H	-0.9588526207	-1.4956083852	-2.3712185998	 0.076786
H	-3.6392114492	-2.7481829826	-2.1176862613	 0.100726
H	-2.6788426545	-2.6545051436	-0.6020322248	 0.104872
H	-4.2971994689	-0.4877672774	-0.3034753561	 0.073876
H	-4.8155690282	 0.3721060869	-2.8391665955	 0.109274
H	-2.5466916746	-0.3100739328	-4.2395552396	 0.109443
67.4059	121.3098	184.7623	273.0749	341.2372	465.7514	504.3483	530.851	570.9704	578.2218	675.6481	731.2889	788.2039	825.5314	833.6865	896.9885	903.0428	914.3291	925.8056	934.748	954.9366	994.2154	1037.9412	1079.4766	1094.4682	1114.9492	1133.7138	1150.9729	1153.8122	1218.3877	1229.4994	1241.849	1255.1196	1273.7467	1283.4515	1322.3376	1376.3086	1378.8993	1454.3928	1479.4093	1506.2035	1514.3014	1620.6086	2940.0163	2970.4808	3052.8357	3063.5049	3067.6645	3123.8507	3127.4484	3131.2655	3231.7252	3258.2917	3688.5173
OCCN1C2CC1C=C2	OCCN1[C@H]2C[C@@H]1C=C2	
InChI=1S/C7H11NO/c9-4-3-8-6-1-2-7(8)5-6/h1-2,6-7,9H,3-5H2	InChI=1S/C7H11NO/c9-4-3-8-6-1-2-7(8)5-6/h1-2,6-7,9H,3-5H2/t6-,7+
