19
gdb 85365	2.44383	1.51582	1.11219	4.8357	78.14	-0.2603	-0.0433	0.217	1146.1237	0.159416	-423.082869	-423.074256	-423.073312	-423.115916	32.762	
C	-0.1208500606	 1.5144547472	-0.089663901	-0.412107
C	-0.0232646991	 0.0063025289	 0.0687094835	 0.123872
O	 0.4797524014	-0.5014820798	-1.1878698679	-0.251792
C	 0.7212879281	-1.8355463552	-1.3010199871	 0.405887
O	 0.8848444109	-2.323568938	-2.3895589503	-0.339457
C	 0.8436304525	-2.5972759865	-0.0365900988	-0.185471
C	 0.9373288992	-1.9826021172	 1.14433596	-0.071163
C	 0.82944305	-0.484038862	 1.2499108321	-0.058142
C	 2.2301044707	 0.1530440751	 1.3427451743	-0.400824
H	 0.8570864324	 1.9540641829	-0.3003719337	 0.135284
H	-0.7878086452	 1.7587458851	-0.9200544693	 0.13607
H	-0.5213383514	 1.9676150391	 0.8224858332	 0.117991
H	-1.0325417124	-0.4073323687	 0.2045441318	 0.090057
H	 0.9446393754	-3.6691764731	-0.1574275721	 0.121302
H	 1.1342539094	-2.5496033859	 2.0510484462	 0.112227
H	 0.2771824705	-0.2361117997	 2.1658925116	 0.090169
H	 2.7745062543	 0.0271678111	 0.4026256065	 0.140987
H	 2.1681008404	 1.2211203853	 1.5681202001	 0.124275
H	 2.8151845433	-0.3216605488	 2.1361999408	 0.120835
89.1129	149.2342	216.994	228.5976	236.823	284.8223	292.6372	408.028	465.1331	483.9572	540.99	604.2709	706.8984	732.3323	804.4195	850.7863	863.4889	920.013	979.5358	1001.4717	1014.157	1019.1043	1091.9262	1110.1504	1139.8302	1155.653	1195.8181	1259.6314	1317.6832	1338.1255	1378.8588	1388.8259	1401.3857	1408.5273	1415.1783	1481.3056	1493.3134	1498.0352	1509.8937	1691.5074	1825.7182	3002.659	3024.1365	3043.2867	3049.3223	3111.7114	3122.5361	3123.7172	3133.0519	3158.4591	3212.4616
CC1OC(=O)C=CC1C	C[C@H]1OC(=O)C=C[C@H]1C	
InChI=1S/C7H10O2/c1-5-3-4-7(8)9-6(5)2/h3-6H,1-2H3	InChI=1S/C7H10O2/c1-5-3-4-7(8)9-6(5)2/h3-6H,1-2H3/t5-,6-/m1/s1
