19
gdb 114033	2.67295	1.26743	1.04829	3.2596	72.13	-0.2389	0.0632	0.3021	1210.452	0.157415	-460.110317	-460.101053	-460.100109	-460.144121	34.753	
C	-0.201336818	 1.4220418148	 0.0772966839	-0.487144
C	 0.0242921698	-0.055031123	 0.0523640479	 0.43698
O	-1.1418568389	-0.8820287361	-0.0147811057	-0.343849
C	-0.5758389664	-1.806273578	 0.9612999961	 0.131639
C	-0.7061272152	-3.250320218	 0.5099058157	-0.094486
O	-2.0746094013	-3.5962488819	 0.3765272669	-0.421809
C	 0.7566093275	-1.0613677644	 0.9686840913	-0.309434
C	 1.2310342329	-0.7701761869	-0.4424207718	 0.049833
O	 1.1617274494	-1.6571129499	-1.5173245843	-0.416205
H	 0.7462949749	 1.9577560124	 0.1805911418	 0.123739
H	-0.6750096022	 1.745279906	-0.8566548072	 0.139168
H	-0.8581866766	 1.7038101444	 0.9057611761	 0.130773
H	-1.1119693289	-1.6765787473	 1.9103487428	 0.089649
H	-0.1594793274	-3.396939539	-0.42841267	 0.098156
H	-0.2839335244	-3.9149775331	 1.2726213172	 0.101651
H	-2.4438122961	-2.9828686712	-0.2696490922	 0.294838
H	 1.3783496113	-0.9073374931	 1.8417354363	 0.096237
H	 2.1160787589	-0.129629536	-0.4400593847	 0.092709
H	 1.8519669508	-2.3191058197	-1.4007966102	 0.287555
84.9942	137.0973	172.073	197.3313	220.1424	255.1393	309.8762	327.4532	368.0712	423.9398	474.3388	569.9289	583.0068	663.2842	783.1666	802.8562	866.8277	912.5233	947.7338	970.9981	988.3075	1036.0646	1057.831	1089.8445	1104.3678	1123.0496	1160.1693	1207.0643	1223.004	1269.1711	1282.7469	1308.9036	1337.3488	1355.1134	1406.8884	1412.476	1431.6633	1474.5863	1485.6106	1497.2236	1511.9585	3022.6965	3034.9067	3035.1855	3079.0176	3084.1506	3100.2921	3120.0726	3188.0065	3797.6336	3801.1981
CC12OC(CO)C1C2O	C[C@]12O[C@@H](CO)[C@H]1[C@H]2O	
InChI=1S/C6H10O3/c1-6-4(5(6)8)3(2-7)9-6/h3-5,7-8H,2H2,1H3	InChI=1S/C6H10O3/c1-6-4(5(6)8)3(2-7)9-6/h3-5,7-8H,2H2,1H3/t3-,4-,5+,6-/m0/s1
