15
gdb 129512	5.15377	0.98363	0.82693	5.3129	69.88	-0.2119	0.0181	0.23	1299.5526	0.115141	-450.179968	-450.171743	-450.170799	-450.213514	30.237	
N	-0.2083677902	 1.4220145754	 0.1735638437	-0.576534
C	 0.1072368562	 0.0714945677	 0.0905853461	 0.464454
O	 1.243629435	-0.3478097349	 0.0712314103	-0.359997
N	-1.0194096202	-0.7415808487	 0.0755044812	-0.48277
C	-0.9745836893	-2.1339830799	 0.0627950495	 0.500217
C	 0.0616586822	-3.0462788018	 0.0838907718	-0.291787
C	-0.5896756973	-4.2993322852	 0.0352288065	 0.000716
N	-1.9111889435	-4.1939431737	-0.0110439804	-0.233518
N	-2.1270143986	-2.8538267838	 0.004459352	-0.298993
H	 0.5962112694	 2.008883832	 0.0106628329	 0.268235
H	-1.0444638148	 1.7431819137	-0.291813483	 0.250988
H	-1.8984823777	-0.3164929863	 0.3251440893	 0.249054
H	 1.1096461048	-2.8180680699	 0.1332143712	 0.137335
H	-0.1350427699	-5.2795327926	 0.0372183591	 0.109698
H	-3.0709242461	-2.513087962	-0.0584888001	 0.262903
45.0332	88.278	167.5869	312.8356	330.0216	354.2114	392.3626	398.4623	432.3416	562.5529	623.1008	674.5372	687.1292	761.9021	807.9372	814.906	901.1365	932.43	984.2619	1052.9131	1068.5472	1102.9851	1121.8186	1241.4545	1272.8639	1329.3963	1372.7976	1444.6728	1483.1453	1585.2647	1621.7395	1631.0621	1821.3144	3243.6801	3320.3238	3572.516	3625.6493	3672.7086	3685.0547
NC(=O)NC1=CC=NN1	NC(=O)Nc1ccn[nH]1	
InChI=1S/C4H6N4O/c5-4(9)7-3-1-2-6-8-3/h1-2H,(H4,5,6,7,8,9)	InChI=1S/C4H6N4O/c5-4(9)7-3-1-2-6-8-3/h1-2H,(H4,5,6,7,8,9)
