21
gdb 26219	3.65842	0.9946	0.84049	1.4186	87.2	-0.1763	0.0539	0.2301	1438.6394	0.183228	-383.313721	-383.303899	-383.302955	-383.348642	36.77	
C	 0.0541902456	 1.6020519432	 0.2073112469	-0.384373
C	-0.0657314088	 0.0919231201	-0.0318579826	-0.091495
C	 0.7772697921	-0.6913618599	 0.996115334	-0.373668
C	-1.5010644161	-0.3542058051	-0.0290741211	 0.318394
C	-2.6644662165	 0.2697102293	 0.3617071365	-0.227947
C	-3.7451266346	-0.6450526356	 0.1789516855	-0.215619
C	-3.2139291093	-1.8061199062	-0.3326448265	 0.264153
N	-3.7820475838	-3.0221710089	-0.7739576655	-0.61115
N	-1.8574608918	-1.6207533948	-0.4531443816	-0.324409
H	 1.1007158491	 1.917002018	 0.1524079306	 0.106428
H	-0.5152779978	 2.1687036509	-0.5346107053	 0.119773
H	-0.322778775	 1.8706887451	 1.2000313094	 0.119762
H	 0.3561640758	-0.1191636156	-1.0271621225	 0.072509
H	 0.4220974728	-0.4924960426	 2.0127451183	 0.12028
H	 0.7149540179	-1.7714743378	 0.829651672	 0.101958
H	 1.8323763606	-0.4023781118	 0.9377264317	 0.106936
H	-2.7382773567	 1.2728975465	 0.7522252445	 0.08539
H	-4.7866819108	-0.4742978499	 0.4062237748	 0.077157
H	-4.7679832677	-2.8987667762	-0.970496392	 0.244444
H	-3.703581418	-3.7576576634	-0.0762649044	 0.240447
H	-1.2466608469	-2.2860510252	-0.8959661626	 0.25103
38.6227	118.4891	132.2341	178.8656	233.6512	256.3116	271.8603	308.3553	375.233	421.5996	468.5898	492.0861	611.0737	643.0322	688.9483	699.801	766.3223	813.1699	836.007	878.3972	928.5707	965.0135	986.2077	1019.4468	1057.8141	1099.8175	1122.5373	1157.3602	1169.8048	1216.3914	1265.3226	1293.859	1340.8189	1356.4246	1394.814	1417.0102	1435.362	1465.1384	1485.4284	1491.9598	1500.1244	1510.2977	1548.2037	1629.4068	1658.4023	2971.304	3026.8988	3035.891	3096.2052	3100.5577	3104.8716	3113.5647	3236.8848	3253.6468	3481.027	3589.1447	3669.6893
CC(C)C1=CC=C(N)N1	CC(C)c1ccc(N)[nH]1	
InChI=1S/C7H12N2/c1-5(2)6-3-4-7(8)9-6/h3-5,9H,8H2,1-2H3	InChI=1S/C7H12N2/c1-5(2)6-3-4-7(8)9-6/h3-5,9H,8H2,1-2H3
