15
gdb 125355	3.04073	1.31893	1.03106	3.9523	71.43	-0.264	-0.0188	0.2451	1124.9343	0.113426	-412.999332	-412.991117	-412.990173	-413.032975	28.821	
C	 0.2223622122	 1.4869264127	 0.1398582361	-0.514711
C	 0.0584718537	 0.0115944983	 0.0053912548	 0.314899
C	-0.0687291658	-0.8176807163	-1.0850679243	-0.138543
N	-0.1922561837	-2.1071511461	-0.6639796296	-0.184067
N	-0.1468363521	-2.1374186136	 0.630271891	-0.141873
N	 0.0038675506	-0.8552149902	 1.0557996291	-0.003112
C	 0.0694736334	-0.5992298092	 2.4786897707	-0.283609
C	 1.3631574725	-0.0495728015	 2.9039685027	 0.27959
N	 2.3695521942	 0.4066955683	 3.2387566178	-0.295698
H	 1.1609153601	 1.7478353771	 0.6402397687	 0.168277
H	 0.2264477808	 1.9481174334	-0.8495674349	 0.152912
H	-0.5954967	 1.9381370653	 0.713799032	 0.141341
H	-0.0779209362	-0.5583662845	-2.131624637	 0.130188
H	-0.7253331542	 0.0899385802	 2.7850621716	 0.175288
H	-0.1056100356	-1.5595406639	 2.9705388912	 0.199117
53.2964	102.6058	131.3191	235.435	243.3349	285.1773	371.8677	403.9363	491.259	652.4597	679.0263	714.8818	789.3417	847.872	936.2066	946.3666	985.3502	1014.6209	1067.7785	1120.4084	1154.275	1224.6006	1293.8052	1322.2878	1351.1428	1379.3131	1424.6238	1448.105	1460.2854	1483.0503	1507.8519	1597.6117	2370.1319	3034.3091	3053.7678	3089.5981	3116.7089	3134.6703	3269.6757
CC1=CN=NN1CC#N	Cc1cnnn1CC#N	
InChI=1S/C5H6N4/c1-5-4-7-8-9(5)3-2-6/h4H,3H2,1H3	InChI=1S/C5H6N4/c1-5-4-7-8-9(5)3-2-6/h4H,3H2,1H3
