21
gdb 101086	2.06221	1.32598	0.97748	2.0525	79.27	-0.2558	-0.0355	0.2202	1313.4281	0.179556	-424.221468	-424.211345	-424.210401	-424.256772	36.82	
C	 0.203139809	 1.4030288615	-0.0945845778	-0.396345
C	-0.0205375354	-0.0977495138	-0.3013824983	-0.172097
C	-1.4255447838	-0.5982054623	 0.1098578695	-0.048956
C	-2.5374062231	 0.0030403488	-0.7569463325	-0.426474
C	-1.4229507387	-2.1201230409	 0.1085029375	 0.290834
C	-2.4768679929	-2.968422766	-0.4998989777	-0.224792
O	-1.2309278215	-2.7949067773	-1.1518414997	-0.268179
C	-0.6704150782	-2.802784375	 1.2166997241	 0.137011
O	-0.3270552766	-2.272511845	 2.2418232053	-0.26475
H	 1.2360077797	 1.6733969814	-0.3346882614	 0.115481
H	-0.4472880412	 2.0124519801	-0.7291592204	 0.117183
H	 0.0195334904	 1.6895133517	 0.9469207452	 0.119588
H	 0.15107375	-0.3637956854	-1.3516022176	 0.107848
H	 0.7278460087	-0.6434295641	 0.2833613039	 0.110732
H	-1.5882404756	-0.3068825996	 1.1552190653	 0.097567
H	-2.4762263861	 1.0935935305	-0.7633224244	 0.122521
H	-2.4547034933	-0.3423377147	-1.7933074856	 0.129353
H	-3.5306276068	-0.2618881599	-0.3821712909	 0.114091
H	-2.6649447304	-3.9671163552	-0.1053043119	 0.119263
H	-3.3307092675	-2.4848599944	-0.9665697686	 0.130703
H	-0.4577418668	-3.8737749005	 0.9993950262	 0.089419
56.8767	83.8144	131.4934	180.736	189.1355	237.3827	259.5195	300.2104	325.5286	364.3076	406.1925	453.5973	489.5928	611.0944	726.2257	781.841	840.0672	854.1756	881.4479	957.8267	976.803	999.8747	1036.1784	1044.32	1100.8673	1134.2743	1145.5998	1168.7922	1186.2173	1243.2697	1291.3052	1338.4677	1340.9863	1367.3029	1390.0957	1409.3046	1414.6164	1424.1022	1485.7037	1495.9426	1506.3985	1507.0104	1512.038	1525.3753	1825.7879	2887.2588	3030.5917	3034.2911	3038.0642	3041.6527	3072.5168	3087.1588	3102.2816	3105.2199	3107.511	3122.9067	3184.9858
CCC(C)C1(CO1)C=O	CC[C@@H](C)[C@]1(CO1)C=O	
InChI=1S/C7H12O2/c1-3-6(2)7(4-8)5-9-7/h4,6H,3,5H2,1-2H3	InChI=1S/C7H12O2/c1-3-6(2)7(4-8)5-9-7/h4,6H,3,5H2,1-2H3/t6-,7-/m1/s1
