13
gdb 12295	3.19353	2.34795	1.36442	6.6651	62.97	-0.2412	-0.0765	0.1646	831.5248	0.097095	-398.652866	-398.646175	-398.645231	-398.684094	24.505	
O	-0.0035780626	-0.0404822559	 0.1953143766	-0.337453
C	-0.008320244	 1.1643032159	 0.0794681807	 0.307839
N	-1.1587848799	 1.9071790352	 0.1352294339	-0.338889
C	-1.3012932435	 3.3398335967	 0.0134262234	-0.201245
C	-0.0078602171	 4.0479664143	-0.1985819991	-0.054945
C	 1.1737947663	 3.4277365713	-0.2703879798	-0.145495
C	 1.2933467035	 1.9665648871	-0.1422436418	 0.28088
O	 2.3516655626	 1.3850683174	-0.203025702	-0.295274
H	-1.995115362	 1.3586810119	 0.2819866511	 0.254879
H	-1.9777980221	 3.5865893192	-0.820970493	 0.140019
H	-1.7853905257	 3.7532447467	 0.9131131972	 0.140007
H	-0.078264754	 5.1278598	-0.2948003952	 0.125512
H	 2.1010230986	 3.9699831502	-0.4259015317	 0.124166
83.247	129.6093	315.8423	346.346	441.6345	456.6629	524.6561	561.3134	615.4012	690.1613	720.5346	865.8031	887.3907	915.8269	998.5075	1034.3398	1082.1712	1153.6728	1208.7479	1240.5724	1346.1028	1390.6472	1406.4678	1473.1383	1507.2861	1699.3557	1792.9298	1809.0952	2975.4275	2985.9687	3171.0599	3194.8006	3594.9351
O=C1NCC=CC1=O	O=C1NCC=CC1=O	
InChI=1S/C5H5NO2/c7-4-2-1-3-6-5(4)8/h1-2H,3H2,(H,6,8)	InChI=1S/C5H5NO2/c7-4-2-1-3-6-5(4)8/h1-2H,3H2,(H,6,8)
