17
gdb 51953	5.50542	0.67576	0.66029	2.3194	72.71	-0.2582	-0.038	0.2202	1671.2499	0.135093	-455.153582	-455.144263	-455.143319	-455.189536	32.083	
O	-0.2680505918	 0.1901893974	 0.3451499727	-0.22673
C	 0.1316364698	 1.2708151926	 0.0045382211	 0.1526
C	 1.5500652207	 1.541461652	-0.4781272138	-0.245962
N	 1.6008820558	 2.5621262186	-1.5022754292	-0.34607
C	 2.1454387332	 3.7946231374	-1.2764923259	 0.44678
O	 2.6216116812	 4.122585055	-0.2003847891	-0.393185
C	 2.1264867827	 4.7302088953	-2.447810984	-0.128314
C	 1.7538371414	 6.1476382226	-2.1551505844	-0.21985
N	 3.138283692	 5.7951497825	-2.449888492	-0.301752
H	-0.5172102273	 2.1764472475	 0.0224782027	 0.086342
H	 2.1275426707	 1.9291930552	 0.3703904744	 0.178709
H	 2.0037245548	 0.6019443	-0.8084733906	 0.136616
H	 1.2514039497	 2.3471286519	-2.4221051605	 0.257103
H	 1.896666115	 4.3075480699	-3.4228203281	 0.090906
H	 1.2450788416	 6.7251737474	-2.9213824843	 0.125702
H	 1.4856782067	 6.3775871189	-1.1283416136	 0.136097
H	 3.6437356337	 5.7172373759	-1.5664609353	 0.251008
37.2968	58.2184	83.9424	106.1581	204.8438	277.7868	314.6784	336.4308	386.3556	484.3013	548.378	674.8051	759.5764	767.0451	836.5465	882.8903	918.6351	981.1112	1018.2194	1051.2234	1074.8203	1114.5694	1121.3724	1135.3796	1183.3732	1229.7909	1264.0996	1291.3469	1322.9789	1335.6402	1407.9306	1413.3527	1443.2728	1494.2096	1541.8282	1762.3528	1841.985	2877.7892	3043.2483	3099.4165	3116.1371	3136.4766	3210.984	3466.341	3641.7555
O=CCNC(=O)C1CN1	O=CCNC(=O)[C@H]1CN1	
InChI=1S/C5H8N2O2/c8-2-1-6-5(9)4-3-7-4/h2,4,7H,1,3H2,(H,6,9)	InChI=1S/C5H8N2O2/c8-2-1-6-5(9)4-3-7-4/h2,4,7H,1,3H2,(H,6,9)/t4-/m1/s1
