17
gdb 35502	3.31034	1.39884	1.17432	3.168	77.23	-0.2357	-0.0006	0.2351	1058.5611	0.138547	-380.866929	-380.859659	-380.858715	-380.899006	27.976	
N	-0.8917888875	-0.7487954458	-1.2016438217	-0.333376
C	-0.5684292207	 0.2376548303	-0.6919774557	 0.281285
C	-0.1502092812	 1.4696886585	-0.0519214844	-0.171985
C	-0.0694898997	 1.5021904501	 1.5026322023	-0.186776
N	 1.2567543324	 2.1651724439	 1.4298779503	-0.094319
C	 2.341434387	 1.4825699157	 2.1574344769	-0.226202
C	 2.9097034254	 0.5024869381	 1.1526657362	-0.070804
C	 2.366424393	 0.6760861276	-0.0510647787	-0.080869
C	 1.3787308338	 1.8107681947	-0.0178811406	-0.039178
H	-0.7338031206	 2.3027273777	-0.4496445539	 0.131047
H	-0.8416071239	 2.0885673124	 2.0078927264	 0.119722
H	-0.0381828612	 0.4952658658	 1.9366120348	 0.118181
H	 3.103742263	 2.1980730286	 2.4970871143	 0.115866
H	 1.9452739802	 0.9960875489	 3.0584264745	 0.1139
H	 3.6832402756	-0.215090624	 1.4001664031	 0.109012
H	 2.611946479	 0.1298481396	-0.9531502491	 0.118872
H	 1.6622105655	 2.635963758	-0.6824751648	 0.095624
76.2311	128.4367	218.1274	281.7486	380.5299	439.2997	510.4048	567.6361	672.3308	704.5296	752.1494	795.3191	817.5133	871.7457	932.0827	945.039	963.7568	986.5477	1029.3485	1056.0991	1066.0475	1090.8455	1115.8176	1131.5564	1182.9048	1208.6693	1241.0406	1249.9498	1296.522	1320.0656	1334.5264	1347.5125	1366.3761	1495.62	1512.4997	1672.0119	2354.1564	3002.678	3024.3203	3028.4351	3038.5718	3083.6931	3097.4835	3199.3818	3225.6082
N#CC1CN2CC=CC12	N#C[C@H]1CN2CC=C[C@@H]12	
InChI=1S/C7H8N2/c8-4-6-5-9-3-1-2-7(6)9/h1-2,6-7H,3,5H2	InChI=1S/C7H8N2/c8-4-6-5-9-3-1-2-7(6)9/h1-2,6-7H,3,5H2/t6-,7-/m0/s1
