19
gdb 39961	4.84887	1.01342	0.98609	2.3239	75.83	-0.2341	0.0639	0.298	1259.6574	0.158333	-422.969005	-422.960876	-422.959931	-423.002337	31.107	
C	 0.4253285102	 1.5669551016	 0.0800323826	-0.333259
C	 1.4146887209	 0.416658669	-0.0821449847	-0.33326
C	-0.0421663538	 0.1517748388	 0.0874135993	 0.451409
C	-0.7928744179	-0.643255919	 1.1467621553	-0.43967
C	-1.6054097099	-1.1733478479	-0.0502289886	 0.364676
C	-1.7971201613	-2.6697000531	-0.3534968349	-0.127959
O	-3.2305568697	-2.54309673	-0.2489769293	-0.274894
C	-3.1405301666	-1.10775617	-0.1332801133	-0.127959
O	-0.8399063863	-0.384522177	-0.9753133554	-0.322748
H	 0.4188469446	 2.1226846589	 1.0123500631	 0.115671
H	 0.2004928053	 2.1559253605	-0.802737444	 0.127214
H	 1.8329930747	 0.2578694406	-1.0703387964	 0.127214
H	 2.0854250486	 0.185011448	 0.7391625133	 0.115671
H	-0.2066042307	-1.397407042	 1.6768493791	 0.116331
H	-1.3637261657	-0.0520549915	 1.8665252319	 0.116331
H	-1.4715413791	-2.9446729383	-1.3651071229	 0.111087
H	-1.3882007286	-3.3821653146	 0.3732255662	 0.101529
H	-3.6717586907	-0.7271370493	 0.7475563373	 0.101529
H	-3.4969365741	-0.5898061248	-1.0330962185	 0.111087
48.6391	82.6667	211.3941	253.3554	314.7185	365.5828	395.5162	412.2813	461.6542	655.9772	755.3678	824.9974	826.9435	889.3423	893.624	900.9503	921.7247	922.3684	950.4313	985.7396	1000.0515	1029.0615	1048.8428	1069.381	1128.6215	1142.4272	1146.8956	1168.004	1186.2146	1206.188	1209.9084	1266.5688	1284.9852	1295.79	1367.3138	1398.9413	1448.3472	1483.55	1493.416	1507.3006	1521.7611	3005.5406	3017.7895	3061.9424	3062.3746	3065.6861	3118.2896	3126.9812	3129.5758	3210.452	3224.4931
C1CC11CC2(COC2)O1	C1CC21CC1(COC1)O2	
InChI=1S/C7H10O2/c1-2-6(1)3-7(9-6)4-8-5-7/h1-5H2	InChI=1S/C7H10O2/c1-2-6(1)3-7(9-6)4-8-5-7/h1-5H2
