14
gdb 20735	3.57937	1.90242	1.25181	1.8071	72.36	-0.2229	0.0029	0.2258	915.9686	0.107624	-341.585986	-341.578461	-341.577517	-341.617845	27.685	
C	-0.0354852179	 1.4715990173	-0.0345945745	-0.505442
C	-0.0110303442	-0.0203069385	 0.0228002083	 0.258791
N	-0.0274050519	-0.7567811409	-1.0811549716	-0.272255
N	 0.0039688891	-2.0357234508	-0.645529996	-0.185091
C	 0.0396885846	-2.1414945659	 0.6981191944	-0.144365
C	 0.031361748	-0.8453351857	 1.1905320318	 0.04058
C	 0.0585321758	-0.4270198527	 2.5384108303	 0.248736
C	 0.0811112248	-0.0424387346	 3.6800332498	-0.463686
H	 0.856239685	 1.8995391193	 0.4356422045	 0.136988
H	-0.0779822975	 1.8035791738	-1.0735911027	 0.140003
H	-0.9029751743	 1.8729073675	 0.4998476215	 0.136994
H	-0.0017232188	-2.7800031843	-1.3216382585	 0.278868
H	 0.067491085	-3.0924841852	 1.2050592385	 0.144467
H	 0.1013496023	 0.2912090908	 4.6873247042	 0.185412
87.131	133.239	172.9789	270.8359	326.6699	469.9515	511.9962	529.4019	540.7588	580.4103	654.0299	664.5875	712.1087	713.6579	799.2231	943.964	1007.4437	1067.6442	1079.3123	1146.433	1217.157	1320.7787	1375.2223	1413.1193	1476.5379	1479.9584	1487.5813	1508.5546	1591.9061	2232.3632	3039.9456	3092.6916	3138.1073	3269.3182	3506.3779	3679.916
CC1=NNC=C1C#C	Cc1n[nH]cc1C#C	
InChI=1S/C6H6N2/c1-3-6-4-7-8-5(6)2/h1,4H,2H3,(H,7,8)	InChI=1S/C6H6N2/c1-3-6-4-7-8-5(6)2/h1,4H,2H3,(H,7,8)
