19
gdb 107356	3.23098	1.23146	1.01582	4.047	75.39	-0.2316	0.0513	0.2829	1213.4393	0.160666	-419.248375	-419.239928	-419.238983	-419.281357	32.772	
C	 0.0813104093	 1.516416528	 0.1999132725	-0.384204
C	 0.0233834816	 0.0097118105	-0.0816238967	-0.251063
C	-1.3838801285	-0.5403866964	-0.0880466179	 0.353457
C	-2.0741477583	-0.9851683753	 1.1949955369	-0.351801
C	-1.7234889495	-1.9961768192	 0.1136887287	-0.059638
N	-2.7028995706	-2.3015190732	-0.8873298302	-0.341004
C	-3.1470424296	-1.1393223549	-1.5177160195	 0.408875
O	-4.1232309756	-1.0238663311	-2.2220695048	-0.398499
N	-2.2380023964	-0.1394569349	-1.1774358713	-0.394274
H	 1.1160917867	 1.8700854314	 0.2217151217	 0.119512
H	-0.4420144679	 2.0874969584	-0.5745409613	 0.11817
H	-0.3788146484	 1.7566872125	 1.1640122206	 0.120985
H	 0.4889551618	-0.2061429133	-1.0505504974	 0.111448
H	 0.6033011709	-0.5274953514	 0.6779153872	 0.099418
H	-1.4687840203	-1.0074303723	 2.0950836654	 0.115939
H	-3.1183955051	-0.7323853202	 1.3449400629	 0.118289
H	-0.9528164697	-2.7388156411	 0.2885527324	 0.108064
H	-3.3853770318	-3.0319340903	-0.7593226886	 0.254097
H	-2.5552446185	 0.8108601428	-1.2840190707	 0.252229
83.8099	137.9716	165.4836	226.6159	297.58	349.316	410.1971	449.0944	475.8256	496.6161	515.8906	636.8957	713.835	756.9311	775.0676	803.3035	854.0406	906.1648	941.0096	986.2762	990.5816	1016.6826	1036.8119	1058.9971	1086.5006	1123.7835	1150.0434	1238.9851	1265.5694	1291.151	1346.0063	1374.4204	1378.5764	1389.589	1412.0175	1421.8284	1472.7017	1478.9478	1501.1696	1507.5825	1851.9642	3030.6569	3035.2684	3068.2568	3103.4056	3111.2091	3127.4056	3167.347	3221.8058	3638.9828	3644.1552
CCC12CC1NC(=O)N2	CC[C@]12C[C@H]1NC(=O)N2	
InChI=1S/C6H10N2O/c1-2-6-3-4(6)7-5(9)8-6/h4H,2-3H2,1H3,(H2,7,8,9)	InChI=1S/C6H10N2O/c1-2-6-3-4(6)7-5(9)8-6/h4H,2-3H2,1H3,(H2,7,8,9)/t4-,6+/m1/s1
