21
gdb 96097	2.6073	1.47358	1.08667	0.3547	79.25	-0.2336	0.0905	0.3241	1184.7909	0.18277	-424.215858	-424.207368	-424.206424	-424.248568	33.512	
C	 0.0025014585	 1.479709896	 0.0960172231	-0.409909
C	 0.0335104877	-0.0372454878	 0.017768285	 0.11414
C	 0.6944310719	-0.5560734238	-1.2606919084	-0.079649
O	 0.7858138922	-1.9706806188	-1.2547449474	-0.252916
C	 1.5074623944	-2.4273813384	-0.1193301942	-0.150225
C	 0.8786982173	-1.9120463293	 1.1526630541	 0.438922
C	-0.2010906677	-2.6947310365	 1.8583810642	-0.319147
C	 1.1753513879	-2.5299315684	 2.477830008	-0.33625
O	 0.7666866523	-0.5112393314	 1.1528879402	-0.307936
H	 1.0163435122	 1.8886982329	 0.0455277733	 0.12527
H	-0.5846121131	 1.8972756342	-0.7276098007	 0.117047
H	-0.4469920252	 1.8000647788	 1.0394908427	 0.127251
H	-0.989668719	-0.4438329743	 0.0627345124	 0.073853
H	 0.1043724985	-0.2835886747	-2.141017124	 0.105983
H	 1.6981618115	-0.1066116029	-1.3551034215	 0.08651
H	 1.4966589995	-3.5200905805	-0.1559632204	 0.104776
H	 2.5539054123	-2.0820249704	-0.174937834	 0.090368
H	-1.0106262726	-2.1243145845	 2.2992294335	 0.118418
H	-0.4839711844	-3.6664370376	 1.4681480484	 0.115209
H	 1.8389607409	-3.3876295523	 2.5133723935	 0.113118
H	 1.2667404751	-1.8479568503	 3.3154956921	 0.125167
130.3294	133.1398	204.0179	232.936	266.1176	332.3268	368.9892	392.033	457.9778	490.9468	510.3193	582.0121	765.516	777.2676	843.7272	882.7001	912.8265	932.6136	950.4615	967.6551	978.0153	1016.3061	1047.7409	1063.62	1079.2049	1116.7843	1133.7331	1157.4662	1172.9718	1187.7627	1241.0554	1301.3309	1311.7464	1334.5399	1350.3945	1382.9444	1397.9627	1410.1668	1429.716	1451.336	1477.7125	1483.4471	1488.8262	1499.8445	1500.6739	2957.1064	2965.0987	2980.9727	3042.8262	3084.402	3091.3721	3115.9408	3122.4564	3132.9702	3136.1326	3217.4108	3230.9817
CC1COCC2(CC2)O1	C[C@H]1COCC2(CC2)O1	
InChI=1S/C7H12O2/c1-6-4-8-5-7(9-6)2-3-7/h6H,2-5H2,1H3	InChI=1S/C7H12O2/c1-6-4-8-5-7(9-6)2-3-7/h6H,2-5H2,1H3/t6-/m0/s1
