18
gdb 89770	2.2003	1.63425	1.10699	2.8029	76.36	-0.2467	0.0162	0.2629	1132.4645	0.146432	-401.934319	-401.925595	-401.92465	-401.968157	32.455	
C	-0.4227594206	 1.4200124542	-0.0447266716	-0.406608
C	 0.1124909048	 0.0056570003	-0.0167335886	 0.141305
O	 1.3343520312	-0.1451583307	-0.7817590339	-0.312457
C	 2.0661778118	-0.5566764491	 0.3675128824	 0.46819
C	 3.1537259683	-1.5732084299	 0.3134085282	-0.339406
C	 3.4626857079	-0.114065251	 0.6335517868	-0.33409
C	 0.8326757237	-0.500204955	 1.2795804047	-0.341959
C	 0.8947113411	 0.396475802	 2.4201648055	 0.303574
N	 0.9594950731	 1.1110022454	 3.3269196839	-0.338336
H	 0.3159761976	 2.1298551242	 0.3360168361	 0.143009
H	-0.6718382967	 1.693906985	-1.0741213344	 0.133516
H	-1.329401054	 1.5004105945	 0.56364354	 0.130327
H	-0.644026795	-0.7066200841	-0.3656003212	 0.094963
H	 3.223684323	-2.3071908803	 1.1098621445	 0.122681
H	 3.4307578012	-1.9384628846	-0.6696781213	 0.132458
H	 3.9412156879	 0.4762891602	-0.1402064372	 0.133153
H	 3.735725516	 0.1529343713	 1.6492321384	 0.13697
H	 0.4846710987	-1.4820939423	 1.6085693276	 0.132709
44.6386	121.2461	151.7691	217.8859	238.6053	310.3427	357.7339	380.5303	444.6304	506.321	550.6107	641.3991	755.8539	798.1359	806.0171	879.7241	893.2618	924.7458	974.2991	977.6221	1024.344	1052.3056	1073.4056	1089.5399	1094.6811	1148.4438	1185.8605	1197.2077	1220.5479	1310.6387	1327.9974	1368.559	1397.9755	1414.5849	1448.6859	1480.8987	1489.634	1500.5699	2355.201	3036.5902	3043.7383	3086.3287	3116.5406	3129.3672	3129.8546	3133.831	3214.7008	3228.8792
CC1OC2(CC2)C1C#N	C[C@H]1OC2(CC2)[C@H]1C#N	
InChI=1S/C7H9NO/c1-5-6(4-8)7(9-5)2-3-7/h5-6H,2-3H2,1H3	InChI=1S/C7H9NO/c1-5-6(4-8)7(9-5)2-3-7/h5-6H,2-3H2,1H3/t5-,6+/m1/s1
