17
gdb 122787	3.74903	0.86889	0.74713	4.7712	74.14	-0.2474	-0.074	0.1734	1485.9502	0.132451	-458.919654	-458.909823	-458.908879	-458.955581	34.39	
O	-0.3861677551	 1.2062158915	-1.2805409125	-0.431801
C	-0.3036787221	 0.3100798489	-0.2000590148	-0.039672
C	-1.6538679717	-0.2801416958	 0.1762660013	-0.098193
O	-2.040013835	-1.2033317211	-0.847569737	-0.234542
C	-3.3721107744	-1.1733128545	-1.2404576497	-0.191689
C	-3.6443814435	-0.1537086817	-2.3520032239	 0.225364
O	-2.7846298568	 0.555429659	-2.8282349936	-0.273821
C	-5.0203803874	-0.1137712805	-2.8062172763	 0.249735
C	-6.1735072084	-0.1155323914	-3.1514215386	-0.396053
H	-0.9663099348	 0.812538818	-1.9488199428	 0.302275
H	 0.3899893011	-0.5235336541	-0.4019360197	 0.091305
H	 0.0929106771	 0.8667627267	 0.6577216771	 0.099097
H	-1.5949774219	-0.814612123	 1.1355756638	 0.098294
H	-2.3896669387	 0.5289891504	 0.2688450769	 0.103633
H	-3.6385317258	-2.1625524682	-1.6381715395	 0.146043
H	-4.0704283818	-0.9748946314	-0.4112202019	 0.126003
H	-7.1876515108	-0.1001927526	-3.4713176488	 0.224019
42.5071	58.2409	104.1802	150.1407	161.4943	242.39	275.8096	306.4535	373.0871	466.322	543.3422	553.0338	568.5016	602.1996	661.1423	718.1184	826.2322	844.5763	893.6369	1001.2692	1030.6014	1088.1135	1113.8006	1133.82	1192.3669	1242.5173	1282.1324	1293.629	1375.7709	1394.7539	1402.2359	1452.745	1453.8272	1497.9758	1500.9745	1770.8038	2212.2915	2967.3326	2982.0498	2996.4302	3040.3574	3051.8972	3056.6459	3491.7417	3721.9047
OCCOCC(=O)C#C	OCCOCC(=O)C#C	
InChI=1S/C6H8O3/c1-2-6(8)5-9-4-3-7/h1,7H,3-5H2	InChI=1S/C6H8O3/c1-2-6(8)5-9-4-3-7/h1,7H,3-5H2
