20
gdb 108118	2.99858	1.50458	1.36116	1.2228	77.47	-0.2268	0.071	0.2978	1049.3579	0.172763	-403.095198	-403.087656	-403.086712	-403.127185	30.438	
C	-0.0229782671	 1.5657882898	 0.0091590606	-0.378268
C	-0.011486263	 0.0334465409	 0.0871284737	-0.324619
C	-1.3931103261	-0.5615457423	 0.0828448554	 0.341111
N	-2.3529207173	-0.2910202503	 1.194486439	-0.366367
C	-3.1272851885	-1.4439851032	 0.6063471884	-0.076992
C	-3.6702319469	-0.7611539273	-0.6602575371	-0.188687
C	-2.260889369	-0.6062852315	-1.2580327104	 0.031607
O	-1.87793324	-2.0022073606	-1.4574323499	-0.297617
C	-1.7834696961	-2.0465194753	-0.0312931778	 0.023917
H	 0.993742492	 1.96759379	 0.0448928867	 0.112813
H	-0.4861495414	 1.9101138261	-0.9213910091	 0.118275
H	-0.5916111105	 1.9939990509	 0.8394294865	 0.134057
H	 0.5460197444	-0.3887739874	-0.7577497495	 0.116118
H	 0.5150873326	-0.2872872535	 0.9961221617	 0.093862
H	-1.8995353796	-0.6122741057	 2.0516617947	 0.21032
H	-3.7995634044	-1.9951189265	 1.2609762321	 0.072197
H	-4.2925197483	-1.3911354921	-1.2981629183	 0.105501
H	-4.1731356984	 0.1754405595	-0.4155370176	 0.110465
H	-2.0816430353	 0.0273282115	-2.125164786	 0.081295
H	-1.2797131469	-2.9153980432	 0.3939072568	 0.081011
93.2524	152.1039	188.8036	293.643	334.1302	447.909	510.5788	544.8326	609.2832	697.7896	738.178	777.8804	813.4443	846.4301	885.2061	919.2611	925.1798	929.2796	954.4296	967.1368	982.6378	1003.696	1031.4763	1047.048	1104.7849	1114.4235	1123.4814	1170.3288	1185.2193	1218.1296	1242.9657	1246.1006	1273.3441	1279.3812	1320.7175	1341.8169	1358.9564	1399.2605	1411.6211	1466.1541	1480.8592	1496.6924	1507.5397	3015.8414	3040.0921	3057.7205	3081.9395	3106.6663	3114.34	3118.6959	3136.7015	3141.8822	3146.3142	3438.74
CCC12NC3CC1OC23	CC[C@@]12N[C@H]3C[C@@H]1O[C@@H]23	
InChI=1S/C7H11NO/c1-2-7-5-3-4(8-7)6(7)9-5/h4-6,8H,2-3H2,1H3	InChI=1S/C7H11NO/c1-2-7-5-3-4(8-7)6(7)9-5/h4-6,8H,2-3H2,1H3/t4-,5-,6+,7+/m0/s1
