16
gdb 16709	3.07945	2.25361	1.80578	2.5611	64.33	-0.2261	-0.0188	0.2073	793.97	0.130781	-383.730265	-383.723454	-383.72251	-383.761073	26.455	
C	-0.0486080435	 1.5085481999	-0.0215957069	-0.410786
C	 0.0551007608	-0.0037415904	 0.0772801121	 0.141715
O	 0.9087246763	-0.531483343	-0.9909298037	-0.297582
C	 1.9184831034	-1.2536790358	-0.274315048	-0.011955
C	 1.1089858938	-2.013066959	 0.814985488	-0.262661
C	 0.7885510384	-0.5598715641	 1.3141620693	-0.192949
C	 2.251323317	-0.2805618182	 0.8825578524	 0.442261
O	 3.2024801615	 0.279416053	 1.3333019881	-0.318412
H	 0.9285353858	 1.9831481143	 0.1078583233	 0.136473
H	-0.440866881	 1.7921024492	-1.0022403438	 0.132723
H	-0.7282865316	 1.8967830659	 0.7443721266	 0.118282
H	-0.9392435764	-0.4563974424	-0.0293094014	 0.082455
H	 2.6363443781	-1.7042264249	-0.9543120276	 0.101883
H	 0.2636868624	-2.5957973965	 0.4439845244	 0.120027
H	 1.7239647774	-2.5895148135	 1.5084009693	 0.123223
H	 0.3967026576	-0.3266499144	 2.300960198	 0.095306
129.6535	188.0217	229.2794	304.9624	422.0754	462.2329	495.6231	626.9443	628.3366	791.1295	807.1523	828.0501	841.3738	887.7605	955.3599	977.3813	998.0409	1040.4345	1046.6078	1077.4929	1095.9195	1126.6621	1156.1948	1206.2957	1219.6217	1245.2855	1277.8809	1336.7489	1385.9566	1413.1892	1476.8521	1487.8463	1494.3593	1910.0359	3013.321	3039.4897	3075.2058	3111.682	3121.9597	3145.7179	3159.3819	3168.8788
CC1OC2CC1C2=O	C[C@H]1O[C@@H]2C[C@H]1C2=O	
InChI=1S/C6H8O2/c1-3-4-2-5(8-3)6(4)7/h3-5H,2H2,1H3	InChI=1S/C6H8O2/c1-3-4-2-5(8-3)6(4)7/h3-5H,2H2,1H3/t3-,4-,5-/m1/s1
