17
gdb 72690	2.32142	1.57714	1.45719	1.9898	68.87	-0.2548	-0.0494	0.2054	1004.8662	0.133477	-458.930398	-458.921928	-458.920983	-458.963613	31.036	
C	 0.086979499	 1.5640181173	 0.0848500569	-0.479745
C	 0.0740255046	 0.0628070913	 0.0620250485	 0.339152
C	-1.2453500018	-0.7331818369	-0.0373240815	-0.121143
O	-0.84383167	-1.6262611159	 1.0351889502	-0.338172
C	 0.3972141671	-0.940255253	 1.2301921905	 0.234508
C	 1.5325526337	-1.4051500392	 0.3059653479	-0.125765
O	 1.1134291578	-0.5055517826	-0.7518146137	-0.32241
C	 0.682936017	-0.5635487782	 2.6481644811	 0.08312
O	 1.7390060461	-0.1044491828	 3.0094072084	-0.255338
H	 1.0517421502	 1.9343844252	 0.4410177403	 0.147409
H	-0.0702051574	 1.9454723049	-0.930400958	 0.140777
H	-0.7047406949	 1.9589951252	 0.7279937575	 0.126326
H	-2.152055142	-0.178080435	 0.2322635331	 0.108599
H	-1.3884648296	-1.2541532646	-0.9890578044	 0.119617
H	 2.5276371405	-1.143875461	 0.6806497008	 0.13001
H	 1.4852829513	-2.4583357612	 0.0132074924	 0.11838
H	-0.1723150619	-0.7156635434	 3.3414414301	 0.094677
79.6698	120.1778	183.5474	192.1993	243.2127	279.7445	343.895	381.5802	466.8898	502.1833	644.32	671.0752	745.4741	827.2646	878.8678	923.9765	953.8502	975.3173	998.603	1013.9473	1091.8894	1136.4541	1141.5662	1164.0154	1179.1808	1211.3512	1251.2746	1266.8598	1337.6831	1353.9285	1399.1955	1411.6252	1478.1145	1486.0964	1499.0421	1504.8783	1811.1102	2906.4514	3024.3026	3038.6711	3040.713	3090.3481	3104.0794	3108.5443	3126.6701
CC12COC1(CO2)C=O	C[C@]12CO[C@]1(CO2)C=O	
InChI=1S/C6H8O3/c1-5-3-9-6(5,2-7)4-8-5/h2H,3-4H2,1H3	InChI=1S/C6H8O3/c1-5-3-9-6(5,2-7)4-8-5/h2H,3-4H2,1H3/t5-,6-/m0/s1
