16
gdb 56527	1.97383	1.61862	1.12829	5.2864	69.43	-0.2808	-0.0057	0.2751	1109.3359	0.122401	-434.077239	-434.067439	-434.066495	-434.111619	35.37	
C	-0.0222640375	 1.5325186596	 0.0989547529	-0.419753
C	-0.0085563223	 0.0035300553	 0.0219727283	 0.180312
O	 0.6503013766	-0.4576095368	 1.185928601	-0.442178
C	-1.40081704	-0.4954594129	-0.0354761415	 0.266672
N	-2.4865775827	-0.8862266173	-0.0960297135	-0.319382
C	 0.7710737994	-0.4986284985	-1.2599452895	-0.144647
N	 2.1394379706	-0.0262360404	-1.3617350433	-0.499976
C	 0.7801908972	-1.9729826869	-1.2289243233	 0.296015
N	 0.7890568589	-3.1233907671	-1.1233392471	-0.308971
H	 1.0011504233	 1.9009185009	 0.1935239993	 0.132218
H	-0.4873962073	 1.9647817902	-0.7905846536	 0.138886
H	-0.5848043958	 1.8470685911	 0.9794914185	 0.15984
H	 0.572433855	-1.4204232839	 1.2287416427	 0.3111
H	 0.2177874067	-0.1790614297	-2.1499517001	 0.148354
H	 2.1632752057	 0.9595201817	-1.5947206079	 0.248306
H	 2.617861092	-0.1572942353	-0.4750771629	 0.253204
69.0393	118.4018	167.0123	187.9738	216.0672	245.042	270.7012	315.498	353.1392	397.5811	423.7058	446.7256	494.9458	582.2697	604.3037	632.4029	753.2492	831.2086	865.1598	923.4838	968.6006	1073.3615	1124.2383	1160.4173	1166.1446	1219.4925	1290.9905	1377.3522	1399.9889	1411.0316	1479.7102	1495.2124	1657.5633	2352.713	2360.6874	3059.6746	3064.3601	3141.9117	3149.1717	3506.9826	3602.9768	3767.2328
CC(O)(C#N)C(N)C#N	C[C@@](O)(C#N)[C@@H](N)C#N	
InChI=1S/C5H7N3O/c1-5(9,3-7)4(8)2-6/h4,9H,8H2,1H3	InChI=1S/C5H7N3O/c1-5(9,3-7)4(8)2-6/h4,9H,8H2,1H3/t4-,5+/m0/s1
