21
gdb 76378	2.40722	1.15926	1.13533	2.5751	80.72	-0.2334	-0.009	0.2244	1274.5917	0.178558	-424.243785	-424.232963	-424.232019	-424.279432	39.049	
C	-0.0771461061	 0.8463014051	-2.038075331	-0.431644
C	 0.0516447175	-0.3028363775	-1.0635111445	-0.064833
C	 1.3280936504	-0.6336935204	-0.3448030139	-0.042274
C	 2.6113747849	 0.1452712454	-0.5233766369	-0.414026
C	 0.1614604207	-0.0308250289	 0.439502267	 0.214882
O	 0.3335474432	 1.2879338946	 0.8806113811	-0.463748
C	-0.5734768043	-0.9566943036	 1.3628363888	 0.340799
C	-1.0636795282	-0.376384339	 2.6747400753	-0.4788
O	-0.7551703319	-2.1192869934	 1.0610292356	-0.327141
H	 0.4841407789	 1.7261920193	-1.7157389728	 0.126205
H	 0.2963057963	 0.5570520961	-3.0260489524	 0.128448
H	-1.1258082783	 1.1405562784	-2.1605749679	 0.116725
H	-0.5713335537	-1.1654856251	-1.2830408674	 0.109688
H	 1.4557578461	-1.693391128	-0.1430657735	 0.109823
H	 2.4379180581	 1.2223896279	-0.5248849467	 0.132943
H	 3.3086763798	-0.0738629706	 0.2915406526	 0.122406
H	 3.1021496236	-0.1288252719	-1.4635446333	 0.118058
H	-0.4377645907	 1.8032318349	 0.6212979361	 0.289083
H	-1.8018931605	 0.4129656461	 2.4913328065	 0.126629
H	-1.5175032178	-1.1679956946	 3.2715621918	 0.136848
H	-0.2393743782	 0.0942434352	 3.2186371456	 0.149927
61.8528	132.1102	141.2929	144.2033	154.9528	187.006	225.1385	228.0369	291.1906	310.5302	346.4091	461.5464	482.8803	555.8031	576.9226	614.7852	673.6185	770.1616	794.8609	920.6334	971.0115	1010.2636	1016.042	1033.6919	1041.93	1053.4923	1122.3012	1140.4742	1185.7458	1194.16	1259.6587	1282.0218	1336.5724	1369.443	1381.2273	1413.6236	1421.057	1433.6433	1456.7314	1470.9071	1488.2849	1494.5006	1504.2155	1512.6617	1782.4164	3033.7261	3039.9353	3040.7003	3089.0199	3095.9502	3103.999	3120.338	3135.6365	3151.733	3157.398	3159.6714	3799.8904
CC1C(C)C1(O)C(C)=O	C[C@H]1[C@@H](C)[C@]1(O)C(=O)C	
InChI=1S/C7H12O2/c1-4-5(2)7(4,9)6(3)8/h4-5,9H,1-3H3	InChI=1S/C7H12O2/c1-4-5(2)7(4,9)6(3)8/h4-5,9H,1-3H3/t4-,5+,7-
