13
gdb 7949	3.74647	1.808	1.26794	0.8413	55.28	-0.2652	-0.0297	0.2354	877.7316	0.096407	-435.814704	-435.807766	-435.806822	-435.846217	25.473	
O	 0.1004463357	 1.3656187434	 0.281789288	-0.429595
C	-0.0103782361	-0.0122506078	 0.033726928	 0.031634
C	-1.4606742398	-0.4768678715	-0.1346343073	-0.359662
C	-1.4317964203	-1.43816678	-1.3219338008	 0.411466
O	-2.2962948334	-2.1770318874	-1.7088532243	-0.330241
N	-0.1787290707	-1.2885372775	-1.930177136	-0.355085
C	 0.6570608675	-0.3902442867	-1.2960136102	 0.391761
O	 1.7093768685	 0.0397510727	-1.6999785391	-0.357355
H	 0.9747024497	 1.6310547766	-0.0349551765	 0.299919
H	 0.4898067001	-0.6023590137	 0.8201323137	 0.108273
H	-1.8960221917	-0.9609053661	 0.7400400741	 0.147709
H	-2.0896038386	 0.37973205	-0.3985008753	 0.163788
H	 0.0514100291	-1.7391796422	-2.8054765843	 0.277389
81.7944	139.7951	247.0033	353.9162	398.897	422.6692	533.7379	560.9407	611.7223	634.0885	678.5854	742.7966	826.3051	879.0346	972.8215	1031.7309	1124.6725	1161.2604	1187.2806	1248.4149	1277.4953	1330.5123	1355.3059	1370.9796	1419.9738	1459.0803	1836.3391	1884.5032	2963.8649	3072.7097	3138.0659	3610.3377	3761.0242
OC1CC(=O)NC1=O	O[C@H]1CC(=O)NC1=O	
InChI=1S/C4H5NO3/c6-2-1-3(7)5-4(2)8/h2,6H,1H2,(H,5,7,8)	InChI=1S/C4H5NO3/c6-2-1-3(7)5-4(2)8/h2,6H,1H2,(H,5,7,8)/t2-/m0/s1
