18
gdb 16074	3.14608	1.80636	1.48491	0.8877	68.08	-0.2392	0.0745	0.3136	926.3647	0.152863	-384.891151	-384.882976	-384.882032	-384.923559	30.498	
C	 0.1346552446	 1.3260986565	 0.1654441239	-0.259345
O	-0.1568187605	-0.0392226332	-0.0894228839	-0.277287
C	 0.5146318008	-0.541227134	-1.1839169531	 0.410718
C	 0.0708087318	-0.3418993751	-2.6402146858	-0.293716
C	 0.4593329221	-1.8273413471	-2.9307658474	-0.215988
C	 0.8768472479	-2.00704851	-1.4651988007	-0.207125
C	 1.9360356399	-0.9877611009	-1.1035576466	 0.029408
O	 2.8904291625	-0.5137905247	-2.0119180299	-0.424103
H	 1.2073890004	 1.479777426	 0.3469137236	 0.116303
H	-0.1732238421	 1.9697999548	-0.6703758632	 0.114306
H	-0.4273038244	 1.611267711	 1.0575873396	 0.125512
H	-1.0069129664	-0.1795184532	-2.7087116154	 0.106635
H	 0.5977373494	 0.4271855694	-3.2093286504	 0.107574
H	-0.4002857487	-2.4406488895	-3.2063957076	 0.104636
H	 1.2534265256	-1.9744706337	-3.6673888203	 0.095394
H	 0.7149066986	-2.8912425532	-0.8597755778	 0.09079
H	 2.2861255386	-1.082077594	-0.0745871451	 0.08959
H	 3.5128350299	-1.2270242692	-2.1901284199	 0.286697
83.752	166.1749	184.1592	217.4778	239.672	297.7357	367.3664	388.7302	484.9181	560.9737	662.7702	751.9884	795.6503	831.2586	919.8346	933.8606	957.471	998.9742	1031.495	1052.711	1103.7683	1133.6512	1139.9751	1180.5976	1202.4151	1219.431	1230.1943	1235.2686	1253.9791	1293.9641	1310.5704	1335.2277	1453.4495	1470.4788	1484.0996	1488.536	1505.6928	1513.5067	2994.3449	3048.5688	3062.213	3069.4696	3100.4087	3111.2357	3121.1497	3129.7309	3180.5539	3799.4484
COC12CCC1C2O	CO[C@]12CC[C@H]1[C@H]2O	
InChI=1S/C6H10O2/c1-8-6-3-2-4(6)5(6)7/h4-5,7H,2-3H2,1H3	InChI=1S/C6H10O2/c1-8-6-3-2-4(6)5(6)7/h4-5,7H,2-3H2,1H3/t4-,5+,6+/m0/s1
