13
gdb 24478	4.08058	1.71662	1.20831	3.8316	74.08	-0.246	-0.0697	0.1764	920.3395	0.093915	-415.661606	-415.655909	-415.654965	-415.691629	22.679	
O	-0.0224808685	 1.3164640077	 0.0095713174	-0.166718
C	 1.1079679532	 2.0572346274	 0.002646387	 0.068917
C	 2.3556509353	 1.5223230023	-0.0124679169	-0.270567
C	 2.4554012397	 0.1113490096	-0.0212296522	 0.304545
N	 3.4895039407	-0.7165585201	-0.0358650718	-0.360219
C	 2.8726832762	-1.9527673666	-0.0366513629	 0.022877
N	 1.54850465	-1.9996756686	-0.0240981272	-0.343318
C	 1.2232987302	-0.6654719195	-0.013515903	 0.184618
C	 0.0268911902	-0.0265763045	 0.0016721608	-0.015515
H	 0.8782261495	 3.1134492967	 0.0107166121	 0.153998
H	 3.2228855131	 2.1707219433	-0.0173309089	 0.136625
H	 3.4711173859	-2.8565242853	-0.0475290345	 0.119532
H	-0.9558467756	-0.4787498124	 0.0087373402	 0.165223
221.8477	256.1104	405.2314	424.21	558.7526	573.0505	627.3667	645.7696	793.2753	794.7886	845.2596	883.1192	912.1222	934.3035	947.9753	970.4515	1002.3364	1135.9438	1158.9451	1213.0015	1259.243	1318.4003	1334.1787	1378.3203	1422.4427	1450.5601	1557.2743	1615.4766	1671.4676	3215.5911	3216.6854	3234.04	3246.4191
O1C=CC2=NC=NC2=C1	o1ccc2ncnc2c1	
InChI=1S/C6H4N2O/c1-2-9-3-6-5(1)7-4-8-6/h1-4H	InChI=1S/C6H4N2O/c1-2-9-3-6-5(1)7-4-8-6/h1-4H
