14
gdb 125063	2.73336	1.55134	0.99578	0.8395	66.21	-0.2668	-0.0485	0.2183	1100.0506	0.100084	-470.033194	-470.024752	-470.023808	-470.066592	29.985	
C	 0.0905331817	 1.5225162898	 0.0418868134	-0.504043
C	-0.0387671522	 0.0456570808	 0.0894101868	 0.3468
C	-1.1173865939	-0.7971278998	 0.0281027529	 0.093197
N	-0.6234252741	-2.0793587804	 0.1226712751	-0.190539
N	 0.6242517184	-2.0790347054	 0.23243304	-0.015308
O	 1.0534608909	-0.7002615738	 0.2152292747	-0.210092
C	-2.5561327075	-0.4749218258	-0.1113335975	 0.336112
N	-3.3684288591	-1.5625231819	-0.1397362944	-0.536109
O	-2.9551950331	 0.6760271423	-0.1922757086	-0.373475
H	 0.7195390332	 1.8229725686	-0.8021237373	 0.157314
H	-0.902961346	 1.9574591342	-0.0627438198	 0.190701
H	 0.5651082399	 1.8931679004	 0.9560482994	 0.157306
H	-2.9957646833	-2.4943026837	-0.068742094	 0.280128
H	-4.3596597449	-1.4185397653	-0.2316295205	 0.268009
75.6655	116.1255	187.0934	190.6809	236.8279	276.5798	304.2343	416.1688	490.5482	582.2507	634.9981	663.5016	673.0488	697.8573	703.6641	804.4287	1002.1685	1030.1503	1071.8994	1088.2318	1165.628	1230.3449	1349.99	1393.1214	1418.7674	1472.4897	1481.9263	1488.6612	1605.1815	1633.3095	1777.7335	3047.0996	3105.9201	3168.554	3603.6441	3743.2539
CC1=C(N=NO1)C(N)=O	Cc1c(nno1)C(=O)N	
InChI=1S/C4H5N3O2/c1-2-3(4(5)8)6-7-9-2/h1H3,(H2,5,8)	InChI=1S/C4H5N3O2/c1-2-3(4(5)8)6-7-9-2/h1H3,(H2,5,8)
