18
gdb 35973	3.18642	1.19807	0.93117	4.4724	72.58	-0.2784	0.0168	0.2952	1229.2719	0.14924	-439.090472	-439.082205	-439.081261	-439.124019	30.462	
N	 0.1893223958	-1.1763458789	 0.0471934743	-0.314562
C	 0.1318875988	-0.0233884451	 0.0214174985	 0.287759
C	 0.0102183905	 1.443735802	-0.0046434017	-0.04382
C	-0.827091251	 1.9351000212	 1.1946015048	-0.196617
C	-1.3756012729	 3.3759728209	 1.07450961	-0.231355
C	-0.5810089709	 4.3284654046	 0.16903122	-0.07959
O	 0.8273756524	 4.2498836033	 0.3439477558	-0.225041
C	 1.455476182	 3.2876018691	-0.4471464262	 0.006657
O	 1.3306630601	 1.9663319663	 0.0244378927	-0.240006
H	-0.4818036788	 1.7075471797	-0.955659701	 0.114583
H	-1.6590592047	 1.2424159617	 1.3541279217	 0.125671
H	-0.1717920284	 1.8494940751	 2.0657291447	 0.138813
H	-2.402935019	 3.3553290743	 0.6910830153	 0.109964
H	-1.4341789969	 3.7993732546	 2.0820608502	 0.120995
H	-0.8253041988	 4.1441117126	-0.8887382085	 0.094053
H	-0.8661566731	 5.3620649241	 0.3880416466	 0.116601
H	 1.0769125582	 3.3467931618	-1.4840178205	 0.086467
H	 2.5256677366	 3.4993724526	-0.4191293467	 0.129429
54.402	107.8303	155.5753	210.0652	309.1363	328.757	370.3723	459.0401	532.1269	540.7702	566.9485	632.9723	756.9464	852.1678	876.8662	937.6599	961.7355	1025.9833	1033.6509	1079.1524	1090.4175	1117.6182	1139.0224	1193.4636	1242.2425	1268.3951	1299.3669	1308.4932	1332.6845	1372.7533	1383.8373	1390.3375	1417.9356	1447.8963	1471.7023	1489.3787	1493.2268	1508.6837	2368.2712	2937.4577	2970.3314	2985.8462	3036.815	3060.5431	3072.4342	3085.3648	3109.0073	3122.9105
N#CC1CCCOCO1	N#C[C@H]1CCCOCO1	
InChI=1S/C6H9NO2/c7-4-6-2-1-3-8-5-9-6/h6H,1-3,5H2	InChI=1S/C6H9NO2/c7-4-6-2-1-3-8-5-9-6/h6H,1-3,5H2/t6-/m1/s1
