21
gdb 40544	3.52862	1.19784	1.02437	0.3062	89.71	-0.2081	0.0293	0.2374	1243.5147	0.184497	-349.944139	-349.936244	-349.9353	-349.976723	31.772	
C	-0.187229625	 1.4125144015	-0.2327676725	-0.274727
C	 1.222221686	 1.0717122152	 0.1535424543	-0.268961
C	 0.1785650518	-0.0285342719	 0.0793195596	-0.099591
C	-0.3078461557	-0.7025785029	 1.2979300931	 0.385808
C	-0.6438941998	-1.9964234879	 1.4035969369	-0.220794
C	-1.1238280551	-2.3704217367	 2.7889831606	-0.265089
C	-0.9136144961	-1.0877865482	 3.5927181645	-0.037347
C	 0.4839424268	-0.5388492505	 3.7086601965	-0.27966
C	-0.4412016443	-0.0160500615	 2.625071089	-0.148634
H	-0.7992106274	 1.9501944964	 0.4826957737	 0.115903
H	-0.3976640356	 1.6592082281	-1.2674972968	 0.11327
H	 1.9908607217	 1.0906781122	-0.6110395166	 0.112035
H	 1.5633177634	 1.3658671026	 1.1397117765	 0.121736
H	 0.2478543157	-0.6817837984	-0.7853590545	 0.079906
H	-0.5658478043	-2.7197772522	 0.5988995427	 0.079598
H	-2.1822258926	-2.6669503897	 2.7817793253	 0.102198
H	-0.5714984386	-3.221991332	 3.2086476258	 0.103932
H	-1.6150441762	-0.8441030745	 4.3819145727	 0.082117
H	 0.6878439358	 0.1108066136	 4.5539558325	 0.104995
H	 1.3200735509	-1.1580188956	 3.3988378174	 0.111102
H	-0.7906017816	 1.0091976925	 2.6843982992	 0.082202
70.3762	132.7253	177.808	287.2063	321.0067	376.544	404.8727	556.7525	651.3668	708.7009	774.6111	785.2581	810.6117	814.2391	825.3626	838.7572	897.2104	910.5528	917.1542	960.0365	988.3022	1006.1556	1044.2291	1053.1256	1059.4805	1072.3093	1077.0783	1096.6501	1102.0589	1134.2139	1180.928	1191.9406	1199.8732	1207.7733	1232.7742	1275.2612	1315.2741	1368.1573	1389.1942	1399.4178	1466.5586	1473.2294	1486.0338	1499.2997	1691.839	3003.6528	3030.3293	3120.0271	3134.5975	3138.0814	3149.8689	3161.1805	3176.7527	3186.0283	3209.3606	3213.6201	3229.1513
C1CC1C1=CCC2CC12	C1CC1C1=CC[C@H]2C[C@@H]12	
InChI=1S/C9H12/c1-2-6(1)8-4-3-7-5-9(7)8/h4,6-7,9H,1-3,5H2	InChI=1S/C9H12/c1-2-6(1)8-4-3-7-5-9(7)8/h4,6-7,9H,1-3,5H2/t7-,9+/m0/s1
