21
gdb 116276	1.90768	1.45933	0.93206	2.3839	78.71	-0.2444	-0.0236	0.2208	1312.4736	0.181914	-424.241184	-424.231618	-424.230673	-424.276628	34.171	
C	-0.131465864	 1.6633956944	-0.1882415697	-0.39651
C	-0.2059041904	 0.1332443017	-0.1734415739	-0.197372
C	 0.738117444	-0.520845529	-1.1895757022	-0.007634
C	 2.249358147	-0.3544431021	-0.8772620883	-0.08156
O	 2.8645389716	-1.6307399522	-1.0436387787	-0.251907
C	 2.0022722852	-2.444791102	-1.8188763933	-0.110534
C	 0.5859389425	-2.0651167565	-1.3618063029	-0.1234
C	 0.2463248455	-2.769962906	-0.0655981189	 0.163496
O	-0.842345463	-3.2113583177	 0.2040060169	-0.264267
H	 0.8725943567	 2.022188618	 0.063137627	 0.121002
H	-0.3873325753	 2.0613549086	-1.1766138773	 0.117676
H	-0.8270323966	 2.0973542829	 0.535982424	 0.120725
H	 0.0256612062	-0.2351706963	 0.8342132114	 0.105765
H	-1.2332583847	-0.1872024143	-0.3823002745	 0.115672
H	 0.5342111834	-0.0800132228	-2.1728247449	 0.085272
H	 2.7157242574	 0.3817281484	-1.545961002	 0.100194
H	 2.4282456524	-0.0331885516	 0.1554367744	 0.107543
H	 2.119235938	-2.2542094945	-2.8980064329	 0.09698
H	 2.2690937671	-3.4887583296	-1.6255394546	 0.117064
H	-0.1925124095	-2.3069980272	-2.0893272333	 0.094078
H	 1.0980392265	-2.8641776421	 0.6462651536	 0.087717
49.5248	68.6996	112.7369	153.1284	172.3924	225.1413	281.3796	325.2684	402.1118	414.8315	463.384	668.9696	718.2809	785.848	835.6171	915.7316	941.0817	954.538	972.7255	983.1107	989.9765	1029.7042	1069.4247	1097.9396	1132.2005	1161.3219	1175.6899	1221.4651	1240.4789	1251.2458	1278.4158	1294.8373	1334.8268	1344.9952	1369.6356	1384.7571	1402.7246	1414.5577	1430.2377	1483.6018	1500.2334	1505.0117	1511.094	1527.5674	1825.7322	2875.3058	2973.0692	3004.1417	3021.491	3028.6235	3033.071	3055.1897	3063.4602	3076.7628	3091.36	3098.4717	3107.7292
CCC1COCC1C=O	CC[C@H]1COC[C@H]1C=O	
InChI=1S/C7H12O2/c1-2-6-4-9-5-7(6)3-8/h3,6-7H,2,4-5H2,1H3	InChI=1S/C7H12O2/c1-2-6-4-9-5-7(6)3-8/h3,6-7H,2,4-5H2,1H3/t6-,7+/m0/s1
