19
gdb 51010	2.27458	1.32508	0.96719	3.9102	77.28	-0.2584	0.0011	0.2595	1262.7101	0.157657	-423.011979	-423.003052	-423.002108	-423.046098	33.152	
O	 0.178324016	-0.0566918453	-0.0011243525	-0.276644
C	 0.0453878794	 1.1320618087	 0.0074984612	 0.151801
O	 1.0988291811	 1.9639174044	 0.0006119717	-0.236911
C	 0.9661018117	 3.3841433485	 0.010617312	 0.428797
C	-0.1485178379	 4.0671184023	-0.7328235817	-0.32475
C	-0.1310222531	 4.0579614403	 0.787674015	-0.324732
C	 2.3347053875	 3.9942977384	-0.001484953	-0.03592
C	 3.4877856439	 3.3633146866	 0.7365000644	-0.273022
C	 3.4703791112	 3.3723986423	-0.7733934482	-0.273022
H	-0.9344628255	 1.636482487	 0.0216130784	 0.084917
H	 0.0883935547	 4.9893462501	-1.2524147801	 0.127619
H	-0.8925405284	 3.4587825566	-1.235069198	 0.126338
H	-0.8633415529	 3.4434411949	 1.2995057664	 0.126335
H	 0.1178462586	 4.9738981801	 1.3127726491	 0.127618
H	 2.2939550004	 5.0796348367	 0.0055168908	 0.084906
H	 4.1785700956	 4.0194828427	 1.2539330867	 0.110617
H	 3.3088080787	 2.4133231129	 1.2253877618	 0.132721
H	 3.2800458745	 2.4283311177	-1.2694166441	 0.132716
H	 4.1491451342	 4.0348356953	-1.2986843398	 0.110618
84.4556	92.4082	129.0134	143.828	237.5115	254.7281	346.4927	388.6212	485.2951	522.3033	539.6698	734.435	773.0248	802.5737	821.2155	867.3098	888.455	946.1327	964.881	981.8502	992.2908	1038.5954	1048.7176	1067.8916	1074.4124	1087.2966	1089.1188	1133.7979	1183.0801	1199.9369	1201.8488	1225.964	1276.4112	1299.6146	1431.0364	1440.0111	1462.7029	1466.4378	1499.1668	1512.2204	1851.4198	3004.0422	3135.3483	3136.0538	3141.6651	3143.3672	3150.9873	3213.8432	3225.8742	3226.3469	3239.5132
O=COC1(CC1)C1CC1	O=COC1(CC1)C1CC1	
InChI=1S/C7H10O2/c8-5-9-7(3-4-7)6-1-2-6/h5-6H,1-4H2	InChI=1S/C7H10O2/c8-5-9-7(3-4-7)6-1-2-6/h5-6H,1-4H2
