17
gdb 114155	5.40634	0.92283	0.85623	2.7137	77.58	-0.2462	0.0162	0.2624	1352.4664	0.132961	-421.735593	-421.726779	-421.725835	-421.769279	32.517	
C	 0.0422394784	 1.3072774191	-0.170109094	-0.236921
O	-0.021625414	-0.0023881881	 0.3521843127	-0.240069
C	-1.2610390222	-0.6112582422	 0.1672466163	 0.142076
C	-1.6599917315	-1.1681478045	-1.2561525354	-0.356179
C	-1.8246350586	-2.548405719	-0.5934737137	 0.271976
O	-0.5292830325	-2.8827457649	-0.0650509341	-0.270017
C	-1.3567958199	-2.0320957514	 0.7210845973	-0.090334
C	-2.7442424903	-3.5822775253	-0.9200286273	 0.189007
C	-3.5398171595	-4.4275753772	-1.2339441784	-0.382653
H	 1.0390543739	 1.6947506287	 0.0510812231	 0.133619
H	-0.1104971721	 1.3228611307	-1.2594238178	 0.111757
H	-0.7084491334	 1.9662531869	 0.293820112	 0.105722
H	-2.0761266401	 0.0142512361	 0.5649162309	 0.075463
H	-2.5842298813	-0.7410340422	-1.6481110444	 0.117506
H	-0.8727746404	-1.1441450748	-2.0117530149	 0.121814
H	-1.5922525474	-2.3558912134	 1.7283906709	 0.114351
H	-4.2367324192	-5.1829854886	-1.5016028431	 0.192883
78.222	103.1567	136.4373	190.9752	207.6585	283.0065	377.6079	442.8685	461.9109	524.0564	570.3771	612.4163	652.2994	674.2216	734.8106	815.6437	875.8747	939.7618	958.9545	1000.3993	1022.8551	1055.6639	1130.2318	1150.8399	1176.8878	1184.037	1199.5479	1239.3499	1273.5109	1284.921	1383.2866	1415.2634	1465.1235	1483.5079	1487.71	1507.5992	2242.311	2973.3582	2981.4968	3025.7205	3079.6844	3121.8711	3145.3757	3190.4331	3501.7964
COC1CC2(OC12)C#C	CO[C@H]1C[C@]2(O[C@@H]12)C#C	
InChI=1S/C7H8O2/c1-3-7-4-5(8-2)6(7)9-7/h1,5-6H,4H2,2H3	InChI=1S/C7H8O2/c1-3-7-4-5(8-2)6(7)9-7/h1,5-6H,4H2,2H3/t5-,6-,7+/m0/s1
