15
gdb 35361	3.18588	1.41835	1.21084	4.4295	69.85	-0.2714	-0.0194	0.252	1025.0828	0.11439	-416.788523	-416.781396	-416.780452	-416.820415	26.926	
N	-0.4318005354	-1.1188278058	-0.2301139637	-0.311119
C	-0.2723868282	 0.0149670928	-0.0754657806	 0.330568
C	-0.0433095412	 1.4466523897	 0.0766530687	-0.101555
O	 0.0255419148	 1.8383232725	 1.5037702111	-0.263993
C	 1.3861528014	 1.9992103192	 1.3505104251	 0.440734
N	 2.4028084768	 1.8038905765	 2.0613194676	-0.291637
C	 3.4804284637	 1.6298077913	 1.0329224293	-0.159868
C	 2.7526570664	 1.1825517453	-0.2958723052	-0.275768
C	 1.4339041238	 1.9505493906	-0.1359488706	-0.144602
H	-0.8150075884	 2.0207470648	-0.4382229818	 0.148052
H	 4.0402647903	 2.563087171	 0.8949712612	 0.117697
H	 4.1816630943	 0.8725977647	 1.3897801607	 0.130323
H	 3.3097135638	 1.4288108336	-1.2018003594	 0.116366
H	 2.5849335024	 0.1013575013	-0.2724139321	 0.141698
H	 1.4222605855	 2.9212934625	-0.6358303303	 0.123103
87.0192	140.5971	231.2495	298.2209	341.0606	453.1052	528.4322	578.7277	630.3692	670.395	768.1624	787.6306	840.1698	883.2706	914.9704	929.5944	983.992	1002.8173	1066.0306	1089.5095	1145.6239	1160.7045	1184.9443	1227.7014	1284.386	1303.8348	1316.5176	1330.5749	1356.2267	1483.752	1501.413	1785.6647	2362.4916	3035.8562	3065.1467	3091.2401	3109.2426	3113.0146	3127.9149
N#CC1OC2=NCCC12	N#C[C@H]1O[C]2[N]CC[C@@H]12	
InChI=1S/C6H6N2O/c7-3-5-4-1-2-8-6(4)9-5/h4-5H,1-2H2	InChI=1S/C6H6N2O/c7-3-5-4-1-2-8-6(4)9-5/h4-5H,1-2H2/t4-,5+/m0/s1
