17
gdb 35111	3.21594	1.41093	1.10278	2.0872	79.25	-0.2516	0.0146	0.2662	1100.7434	0.13608	-384.647197	-384.63941	-384.638465	-384.679607	30.255	
C	 0.2483044875	-1.1922794053	 0.3443479698	-0.464627
C	 0.1079271778	-0.0136293234	 0.1586016761	 0.327825
C	-0.0663193383	 1.4232611706	-0.0699940323	-0.245974
C	-0.9432350288	 2.0573955968	 0.9920320435	-0.044393
C	-0.7075261403	 3.240903703	 1.5495548623	-0.064427
C	 0.4669613084	 4.1209733018	 1.2259755358	-0.299103
C	 1.5274234255	 3.4303757038	 0.4004455015	 0.048962
O	 2.0816286294	 2.2326747912	 0.9554684624	-0.247089
C	 1.2828480587	 2.1200221379	-0.2174526918	 0.044301
H	 0.3778692129	-2.2325050699	 0.513306406	 0.197399
H	-0.5749014866	 1.5386779531	-1.0419466532	 0.118519
H	-1.8157256099	 1.4794610044	 1.2803585388	 0.103601
H	-1.4043033591	 3.6222053875	 2.291727199	 0.094717
H	 0.1272117667	 5.0152769951	 0.6828607051	 0.116586
H	 0.9220312146	 4.4969589702	 2.1525528113	 0.123784
H	 2.2662792236	 4.0868353688	-0.0606651563	 0.091407
H	 1.837122328	 1.8415404645	-1.1137774081	 0.098513
71.701	133.3456	194.3872	316.8173	345.5031	379.1674	453.9226	514.9927	544.7903	619.0941	648.0352	663.9777	698.0064	780.1981	828.7126	888.0153	907.1808	928.908	943.0023	1004.3331	1026.9583	1038.7041	1063.9139	1126.1425	1144.9952	1203.8922	1240.7199	1278.2758	1291.6536	1322.8827	1356.7238	1378.435	1423.8695	1463.0346	1478.9576	1734.7735	2238.4062	2964.2597	3003.8941	3032.2932	3099.1573	3113.6653	3154.5866	3183.4582	3504.3662
C#CC1C=CCC2OC12	C#C[C@H]1C=CC[C@H]2O[C@@H]12	
InChI=1S/C8H8O/c1-2-6-4-3-5-7-8(6)9-7/h1,3-4,6-8H,5H2	InChI=1S/C8H8O/c1-2-6-4-3-5-7-8(6)9-7/h1,3-4,6-8H,5H2/t6-,7+,8-/m0/s1
