18
gdb 85272	2.48289	1.64759	1.20887	4.5509	71.87	-0.249	-0.008	0.2411	1058.7626	0.146902	-439.093657	-439.085209	-439.084265	-439.126609	32.426	
C	-0.0053943357	 1.5318962539	-0.0706757152	-0.468408
C	-0.0374630233	 0.0256614641	 0.0050622495	 0.314555
C	 1.1916628389	-0.7661064575	-0.1976857247	-0.302674
N	 0.626779957	-0.6060813128	 1.1774702927	-0.164413
C	-0.1384229291	-1.7700025846	 1.532634276	 0.40594
O	 0.0981474636	-2.4523043871	 2.4871758558	-0.311446
C	-1.2746393196	-1.9907615886	 0.5200492579	-0.38565
C	-1.3632989091	-0.6894173784	-0.2911845306	 0.05721
O	-2.4009604246	 0.1616803529	 0.1762321403	-0.432447
H	 0.9771731182	 1.9036931089	 0.2292568737	 0.125878
H	-0.205737392	 1.8661426748	-1.0944134315	 0.118996
H	-0.7637815927	 1.9672089108	 0.5817204577	 0.149002
H	 1.1332335384	-1.7487964879	-0.6595937414	 0.12246
H	 2.1400890313	-0.2583329413	-0.3415151607	 0.133687
H	-1.0282551125	-2.8632930452	-0.0940862155	 0.135009
H	-2.2055794799	-2.2171051856	 1.044022423	 0.135652
H	-1.4774214169	-0.8725284267	-1.3692616791	 0.077321
H	-3.2432790121	-0.2595595194	-0.019517418	 0.289326
72.066	135.6064	194.2907	265.9115	283.9119	321.2817	373.7133	408.0676	460.7773	510.9	552.5608	603.7246	653.3812	754.4986	781.0684	830.0626	887.665	918.4204	945.5576	1001.7653	1033.23	1055.1463	1095.6741	1102.9583	1123.9301	1159.1663	1190.9023	1226.8288	1261.2262	1285.8022	1347.1806	1377.1534	1414.218	1420.5132	1446.8112	1481.1986	1498.2629	1514.7036	1869.2202	2994.2695	3046.4195	3062.5489	3111.2815	3115.8566	3118.4982	3145.4876	3199.4765	3829.2645
CC12CN1C(=O)CC2O	C[C@@]12CN1C(=O)C[C@H]2O	
InChI=1S/C6H9NO2/c1-6-3-7(6)5(9)2-4(6)8/h4,8H,2-3H2,1H3	InChI=1S/C6H9NO2/c1-6-3-7(6)5(9)2-4(6)8/h4,8H,2-3H2,1H3/t4-,6+,7?/m1/s1
