16
gdb 129780	3.31466	1.50105	1.05707	3.4578	71.71	-0.2127	0.0108	0.2236	1080.9587	0.127771	-434.04831	-434.040894	-434.03995	-434.080097	28.617	
N	 0.0490060224	 1.3874976916	 0.203951316	-0.595739
C	-0.0941156238	 0.0252416964	 0.075457333	 0.28747
C	-1.1587555997	-0.8170484303	-0.0464024023	 0.105541
C	-2.6479922205	-0.9584996396	-0.190226139	-0.323993
N	-2.8897870469	-2.4175372539	 0.0269202392	-0.302043
C	-1.6150941029	-3.1519416658	-0.2003669591	-0.291296
C	-0.5557925796	-2.0928948188	-0.0433604005	 0.368013
N	 0.7429155861	-2.086050019	 0.0743651672	-0.273464
O	 1.0468801537	-0.6920105457	 0.152842321	-0.221202
H	 0.9802465732	 1.7208348031	-0.0030899833	 0.267475
H	-0.6669591123	 1.9313410878	-0.2539018512	 0.264192
H	-3.2364243178	-0.3770675072	 0.5269073313	 0.113134
H	-2.9947753983	-0.6751704863	-1.1940770782	 0.115522
H	-3.1410208029	-2.5398237479	 1.001235823	 0.225956
H	-1.5193482334	-3.9882833418	 0.4963648989	 0.129309
H	-1.5923992374	-3.5672672428	-1.2162218558	 0.131125
130.954	176.373	227.4286	260.5616	298.681	355.7862	519.3293	582.0078	588.0161	632.9554	643.7355	720.0724	772.3739	800.5233	815.414	877.5621	900.188	994.0552	1043.3715	1052.0813	1056.7775	1102.1592	1179.7772	1247.5654	1264.8178	1309.0029	1333.3045	1379.4645	1454.5285	1471.4704	1492.9614	1512.0121	1577.8134	1637.8619	1712.4339	2999.1621	3024.0945	3064.3745	3098.2718	3534.6013	3568.4038	3672.4687
NC1=C2CNCC2=NO1	Nc1c2CNCc2no1	
InChI=1S/C5H7N3O/c6-5-3-1-7-2-4(3)8-9-5/h7H,1-2,6H2	InChI=1S/C5H7N3O/c6-5-3-1-7-2-4(3)8-9-5/h7H,1-2,6H2
