19
gdb 45567	3.09208	1.44064	1.25518	4.3165	74.15	-0.2324	0.0644	0.2969	1057.5268	0.163381	-419.281741	-419.273978	-419.273034	-419.31451	30.139	
O	 0.005666916	-0.0750884284	 0.1466523185	-0.412547
C	-0.0125174464	 1.1310383602	 0.0294613096	 0.422762
N	-1.1291666704	 1.9431521846	-0.0533445364	-0.34054
C	-0.8321753904	 3.3606247917	 0.0528559748	 0.012269
C	-1.23328231	 3.9981191127	 1.4039459428	-0.214031
C	-0.0163767652	 3.7773023617	 2.3159753347	-0.208841
C	 1.1677651242	 4.0308883899	 1.369971575	-0.214033
C	 0.7461269558	 3.3822291763	 0.0304863061	 0.012266
N	 1.0786784406	 1.9733859499	-0.0847753052	-0.340544
H	-2.0217572971	 1.5555930364	 0.2005628391	 0.24975
H	-1.2626361705	 3.90935559	-0.7910067873	 0.084138
H	-1.4027000448	 5.071999883	 1.2591694272	 0.100924
H	-2.1620958278	 3.5730299	 1.7959235118	 0.097437
H	-0.0129084938	 4.4311948748	 3.1917513518	 0.100585
H	 0.0028550576	 2.7437230442	 2.6784339668	 0.118157
H	 1.3036894515	 5.1089372932	 1.2209206684	 0.100924
H	 2.1185346697	 3.6314045785	 1.735335769	 0.097437
H	 1.1373197277	 3.9422880023	-0.824970056	 0.08414
H	 1.9883853032	 1.6105052089	 0.1435727492	 0.249748
54.4883	95.9709	229.2585	285.5449	352.8695	410.579	448.8605	510.3678	573.7787	586.3876	686.0231	766.2261	809.2508	825.5017	858.3308	862.1262	911.9746	939.4175	985.1101	1015.2005	1015.416	1052.9523	1063.5871	1164.5859	1172.4628	1186.3798	1205.0358	1272.3007	1284.6514	1319.2344	1327.8076	1337.7977	1344.8503	1376.2448	1388.7363	1422.5289	1434.2799	1478.8342	1487.3369	1501.7636	1845.5304	3028.0165	3032.5151	3040.9091	3049.9103	3054.5852	3087.0364	3089.009	3104.5472	3668.7066	3671.2809
O=C1NC2CCCC2N1	O=C1N[C@H]2CCC[C@H]2N1	
InChI=1S/C6H10N2O/c9-6-7-4-2-1-3-5(4)8-6/h4-5H,1-3H2,(H2,7,8,9)	InChI=1S/C6H10N2O/c9-6-7-4-2-1-3-5(4)8-6/h4-5H,1-3H2,(H2,7,8,9)/t4-,5+
