21
gdb 89822	2.7197	1.3309	1.09017	2.6634	82.1	-0.2326	-0.0143	0.2183	1198.8954	0.18258	-387.117999	-387.109281	-387.108337	-387.151518	33.903	
C	 0.0014616126	 1.5765833209	 0.0350174095	-0.396279
C	 0.0089073242	 0.0392769569	-0.0226680146	-0.083294
C	 0.7581708351	-0.5476989683	-1.2383534398	-0.310911
C	 2.1748595724	-0.8219299777	-0.7298780864	 0.376835
C	 3.254981674	-1.3496713442	-1.6265020523	-0.332792
C	 3.3207244477	 0.0777605691	-1.1307184605	-0.302705
C	 2.0171819295	-1.2606301638	 0.7166401342	-0.404958
C	 0.7667025109	-0.5169018354	 1.1987374516	 0.403518
O	 0.4308774495	-0.3684442799	 2.3454703678	-0.323787
H	 1.0157939442	 1.981610898	-0.0429804039	 0.124002
H	-0.5913545953	 1.9898216738	-0.7865955234	 0.115712
H	-0.4277264282	 1.9157001711	 0.9815108204	 0.137953
H	-1.0266923069	-0.3124642851	 0.0315158322	 0.095262
H	 0.2891531856	-1.4895187857	-1.5500896668	 0.100458
H	 0.7494026679	 0.1199027603	-2.1052543152	 0.098914
H	 3.9610240989	-2.0649262185	-1.2169816103	 0.112708
H	 3.014605617	-1.514161594	-2.6723191075	 0.111268
H	 3.1269629541	 0.8728063903	-1.8434797582	 0.112091
H	 4.0677756372	 0.3230138837	-0.3826097203	 0.113367
H	 1.8048463897	-2.3379088807	 0.7860459448	 0.126871
H	 2.8734555198	-1.0583907409	 1.364641919	 0.125769
56.3003	98.4202	222.9349	241.3223	262.0618	312.8473	348.0363	375.9701	468.8298	504.8027	555.2869	640.5906	752.228	761.0171	783.927	848.4096	874.216	912.9003	938.4456	946.5711	969.4104	984.6218	1026.6927	1054.0275	1064.8006	1082.0422	1107.5853	1148.9566	1180.9744	1188.0087	1213.5431	1250.0687	1263.7073	1297.6814	1318.5463	1336.3504	1387.425	1402.8548	1449.956	1466.7792	1492.2239	1498.9244	1501.6687	1507.3183	1842.4483	3007.8437	3023.8214	3037.7828	3054.9034	3080.8989	3101.6211	3107.4104	3122.1702	3122.5186	3126.894	3200.3876	3215.3533
CC1CC2(CC2)CC1=O	C[C@H]1CC2(CC2)CC1=O	
InChI=1S/C8H12O/c1-6-4-8(2-3-8)5-7(6)9/h6H,2-5H2,1H3	InChI=1S/C8H12O/c1-6-4-8(2-3-8)5-7(6)9/h6H,2-5H2,1H3/t6-/m0/s1
