23
gdb 117817	2.16881	1.02957	0.85264	1.7968	83.32	-0.2407	-0.0278	0.2128	1515.7315	0.201347	-425.433939	-425.422434	-425.42149	-425.471077	40.508	
C	-0.242068736	 1.5737563883	-0.0278096698	-0.383122
C	-0.0602150827	 0.0546379531	 0.0401101397	-0.181652
C	 0.6645337422	-0.4952317718	-1.195590872	-0.198328
C	 0.7714765274	-2.0365237124	-1.248630987	 0.250416
C	 1.6086635192	-2.6120500394	-0.1040561383	-0.437708
O	-0.5784708999	-2.5022448019	-1.2685880071	-0.275631
C	-0.7577870691	-3.9055229235	-1.268902934	-0.250528
C	 1.3984114259	-2.3632352171	-2.6100965641	 0.12844
O	 2.547081951	-2.667616834	-2.7959631779	-0.251867
H	 0.7226568327	 2.0889519909	-0.0963926512	 0.11412
H	-0.8339362036	 1.8635392545	-0.9030717763	 0.116248
H	-0.7572823418	 1.9498511681	 0.8614721024	 0.113328
H	 0.5018051158	-0.2016621049	 0.9456889785	 0.097755
H	-1.0337964449	-0.437357553	 0.124620433	 0.118275
H	 0.1283491711	-0.1657600683	-2.0952526435	 0.101307
H	 1.6768386587	-0.0781442133	-1.2583655635	 0.107736
H	 1.1181401539	-2.4407461015	 0.8567563752	 0.124324
H	 1.7735495426	-3.6848367695	-0.2277005567	 0.12464
H	 2.591719239	-2.1364941092	-0.0918982942	 0.135591
H	-1.8178642013	-4.0836479422	-1.4649311407	 0.131591
H	-0.1698121612	-4.4047279756	-2.0535220081	 0.11386
H	-0.4987829466	-4.3600467715	-0.3036817654	 0.117054
H	 0.6698484077	-2.2638772657	-3.4486391292	 0.084152
58.9402	74.5986	93.9158	110.5613	163.694	181.1158	219.9261	247.6635	267.166	290.8411	322.0691	330.1122	368.1242	432.5112	532.2099	630.7671	745.5486	757.4576	857.9052	873.8317	919.6145	947.0217	1004.3761	1044.4206	1048.0178	1092.3539	1122.6223	1168.4201	1181.3711	1202.315	1220.7462	1244.3261	1288.2592	1325.0737	1340.2581	1387.2366	1392.6751	1411.2174	1414.2189	1471.948	1477.1875	1486.082	1487.7133	1494.3511	1499.4935	1504.9705	1510.5788	1512.6775	1834.2968	2864.2645	2988.3699	3018.9226	3029.0345	3042.234	3045.6229	3059.5291	3062.7775	3082.2338	3102.8614	3105.9489	3115.0939	3132.0198	3139.5391
CCCC(C)(OC)C=O	CCC[C@@](C)(OC)C=O	
InChI=1S/C7H14O2/c1-4-5-7(2,6-8)9-3/h6H,4-5H2,1-3H3	InChI=1S/C7H14O2/c1-4-5-7(2,6-8)9-3/h6H,4-5H2,1-3H3/t7-/m1/s1
