19
gdb 84080	2.30109	1.66017	1.03474	2.9927	78.21	-0.2376	-0.0062	0.2313	1183.5748	0.158751	-419.277968	-419.268502	-419.267557	-419.3121	34.043	
C	-0.0773530617	 1.544445456	 0.012130856	-0.383752
C	 0.0502174133	 0.0195965823	-0.0209174848	-0.099831
N	 0.8384020771	-0.458709799	-1.1619511263	-0.296262
C	 1.7997599187	-1.154954187	-0.6816874189	 0.360738
C	 2.8489252147	-1.8306781076	-1.5009770263	-0.49061
N	 1.8205177448	-1.2578098554	 0.7179419035	-0.132931
C	 2.777134661	-1.9510426383	 1.5533713362	-0.355354
C	 0.7478205001	-0.5329993874	 1.2264324163	 0.392563
O	 0.4768573662	-0.3936803902	 2.3969998212	-0.38582
H	 0.9108192145	 2.0135512372	 0.030156754	 0.122027
H	-0.6075558611	 1.8966102179	-0.8755843938	 0.12973
H	-0.6244103358	 1.8506596664	 0.9075618134	 0.137195
H	-0.9542659917	-0.4209416166	-0.0737405119	 0.120483
H	 2.660764261	-1.6230489214	-2.5542242957	 0.159058
H	 3.8495877325	-1.4720129939	-1.2361438636	 0.140529
H	 2.8384071634	-2.9144465288	-1.3407547992	 0.141224
H	 3.789353294	-1.5540651453	 1.4235234913	 0.134877
H	 2.462653039	-1.7927676643	 2.587265039	 0.170872
H	 2.78993538	-3.0256027447	 1.3441126097	 0.135264
95.1546	128.96	151.4463	179.9416	187.9296	219.635	250.3194	271.3161	324.0698	417.4814	542.6319	586.8679	617.5386	668.5855	707.9654	765.3152	903.5688	923.9295	1011.7282	1031.4648	1059.2211	1091.5123	1129.1898	1146.0095	1154.2485	1185.8891	1264.2534	1306.9297	1337.8632	1383.4762	1398.9522	1419.1959	1456.1519	1476.6995	1478.0909	1488.107	1497.1214	1498.7303	1509.3313	1701.0282	1828.3749	3027.4699	3031.848	3040.6145	3047.6306	3090.879	3095.4302	3122.3975	3135.3789	3136.741	3159.0879
CC1N=C(C)N(C)C1=O	C[C@H]1N=C(C)N(C)C1=O	
InChI=1S/C6H10N2O/c1-4-6(9)8(3)5(2)7-4/h4H,1-3H3	InChI=1S/C6H10N2O/c1-4-6(9)8(3)5(2)7-4/h4H,1-3H3/t4-/m1/s1
