17
gdb 13518	3.00941	1.83101	1.54953	5.4656	64.35	-0.2553	0.0175	0.2728	892.0431	0.143549	-401.016892	-401.009349	-401.008405	-401.048682	28.369	
C	-0.52069017	 1.3681330977	-0.2045791651	-0.42023
C	 0.1059430699	-0.0068713986	-0.0661560906	 0.06408
N	 1.5319292573	-0.1507205965	-0.4821412479	-0.346475
H	 1.7061996895	-0.3850674233	-1.4546721177	 0.228288
H	 2.117241946	 1.0920212672	 0.8967119991	 0.308176
C	 1.7041962589	-1.2376046568	 0.5164540794	-0.186593
C	 0.5368463064	-0.5969995756	 1.3198803661	-0.169247
C	 1.0200439953	 0.452221781	 2.3150574002	 0.427625
O	 1.9561290441	 1.303810767	 1.8421361829	-0.38291
O	 0.615499891	 0.5288009146	 3.4436874535	-0.334866
H	 0.0662150628	 2.1357772558	 0.3047476958	 0.142374
H	-0.6024760691	 1.642888198	-1.2618959154	 0.11957
H	-1.5307491978	 1.3669947921	 0.2177253503	 0.13214
H	-0.5314018516	-0.75430681	-0.5632502198	 0.081499
H	 1.4301718388	-2.2325620202	 0.1423674092	 0.10905
H	 2.6911159132	-1.2816114884	 0.9845980686	 0.125206
H	-0.1642737147	-1.2575682439	 1.8242094513	 0.102313
100.9263	181.9699	199.2676	224.6081	300.3146	329.0452	432.8033	487.2628	603.1061	692.369	760.6889	792.6601	832.5694	856.9877	891.4455	951.8005	973.6615	1014.5592	1054.1242	1066.2739	1096.439	1145.6023	1172.7343	1200.055	1240.8494	1266.1824	1315.4267	1353.2707	1362.1932	1392.0998	1419.2787	1435.7538	1490.9301	1501.622	1521.7087	1862.8811	2980.7063	3018.0486	3039.721	3093.3975	3103.6455	3132.0595	3149.8834	3457.1799	3512.5634
CC1[NH2+]CC1C([O-])=O	C[C@H]1NC[C@H]1C(=O)O	
InChI=1S/C5H9NO2/c1-3-4(2-6-3)5(7)8/h3-4,6H,2H2,1H3,(H,7,8)	InChI=1S/C5H9NO2/c1-3-4(2-6-3)5(7)8/h3-4,6H,2H2,1H3,(H,7,8)/t3-,4-/m1/s1
