15
gdb 47129	3.15529	1.27079	0.9313	1.4394	76.96	-0.2561	-0.0489	0.2072	1189.1625	0.113298	-416.826223	-416.81831	-416.817366	-416.858847	29.736	
O	 0.0765418357	-0.0545496922	 0.0293331974	-0.346714
C	-0.0257976803	 1.149699691	 0.0496295119	 0.409745
C	-1.3266353655	 1.92822101	 0.0806252055	-0.335028
C	-1.1581435466	 3.2765152221	 0.7944392094	-0.180893
N	-0.0130997408	 4.0524678655	 0.3286896054	-0.283582
C	 1.0157112638	 3.3793385584	-0.010677463	 0.214249
N	 1.0886569235	 1.9769771037	-0.0054009426	-0.384212
C	 2.226306146	 4.030454828	-0.4198758962	 0.261026
C	 3.2651457072	 4.5300715566	-0.7607613978	-0.356895
H	-1.624389487	 2.0941305903	-0.9633488778	 0.1412
H	-2.0950590364	 1.3062430435	 0.5437115297	 0.13729
H	-2.0592364284	 3.8838781293	 0.6743801075	 0.122163
H	-1.0353377876	 3.1136991109	 1.8763145034	 0.125028
H	 1.9789877505	 1.5265644936	-0.1639210566	 0.265177
H	 4.1725002858	 4.9949324195	-1.0605939561	 0.211445
106.0865	129.2709	152.7742	209.6184	366.9297	423.7178	452.1524	504.7537	550.0677	569.1101	603.6054	647.8911	673.1439	681.7692	722.1245	793.8967	895.1012	938.2525	1001.8685	1057.8919	1109.7652	1185.819	1193.1342	1248.821	1285.2094	1332.8196	1386.5228	1451.0108	1459.9532	1487.7841	1702.02	1824.6566	2240.109	2996.9047	3033.8886	3083.7854	3119.9189	3497.9668	3612.0389
O=C1CCN=C(N1)C#C	O=C1CCN=C(N1)C#C	
InChI=1S/C6H6N2O/c1-2-5-7-4-3-6(9)8-5/h1H,3-4H2,(H,7,8,9)	InChI=1S/C6H6N2O/c1-2-5-7-4-3-6(9)8-5/h1H,3-4H2,(H,7,8,9)
