18
gdb 76583	3.35477	0.81127	0.77256	1.1024	97.5	-0.2213	-0.0209	0.2003	1545.2261	0.144573	-364.729581	-364.719656	-364.718712	-364.764565	36.04	
C	 2.0377839684	-0.8444364809	 2.6093365878	-0.423434
C	 1.1138627009	-1.1227961539	 1.4456599281	 0.014184
C	 0.2082079089	-0.0591928041	 0.8641048668	-0.274988
C	 0.2421434479	 1.2795680803	 1.3683048486	 0.484829
C	 0.2364159626	 2.4258579856	 1.7646790645	-0.30103
C	 0.2349316184	 3.7079784785	 2.216087877	 0.299047
C	 0.2341789191	 4.8480238377	 2.6160942268	-0.563916
N	 1.3360483817	-0.6297379407	 0.0956434971	-0.097497
C	 2.4916520098	 0.2081227146	-0.2016197292	-0.316323
H	 2.954224914	-1.4381834954	 2.5232375205	 0.125862
H	 2.3118931226	 0.2088547767	 2.6872577714	 0.138814
H	 1.5454373857	-1.1288604668	 3.5446608437	 0.129617
H	 0.6945917446	-2.1290349622	 1.4524168409	 0.098338
H	-0.7670230481	-0.3662060341	 0.4899693428	 0.117939
H	 0.2326161429	 5.8492818853	 2.968944498	 0.191782
H	 2.3011662458	 0.7378774541	-1.1395482796	 0.131648
H	 2.7372690871	 0.9546613276	 0.5640860752	 0.119964
H	 3.3589954076	-0.4424985526	-0.3491780303	 0.125164
72.7754	77.6183	155.9486	168.0573	189.839	204.8475	268.3095	336.5889	366.6916	472.7605	493.1141	507.6156	531.9135	567.1942	601.0407	610.8814	700.8813	772.2752	783.9689	919.2654	994.3486	1041.9703	1079.225	1130.8869	1153.9343	1162.7479	1190.1525	1217.0328	1332.6782	1365.7759	1397.5496	1418.0924	1456.2194	1484.7848	1487.9148	1497.8639	1511.2859	2177.1745	2344.765	3016.4987	3042.4462	3085.5724	3097.854	3101.427	3110.6302	3115.6834	3139.3981	3504.7208
CC1C(C#CC#C)N1C	C[C@H]1[C@@H](C#CC#C)N1C	
InChI=1S/C8H9N/c1-4-5-6-8-7(2)9(8)3/h1,7-8H,2-3H3	InChI=1S/C8H9N/c1-4-5-6-8-7(2)9(8)3/h1,7-8H,2-3H3/t7-,8+,9?/m0/s1
