23
gdb 68785	2.29811	1.41952	1.32123	1.0367	85.94	-0.2358	0.0725	0.3083	1171.0708	0.203113	-388.275757	-388.265652	-388.264708	-388.309544	39.385	
C	 0.0112315539	 1.5600618922	 0.1298658647	-0.499146
C	-0.0196687068	 0.0600675553	 0.082717522	 0.313347
C	 1.162922991	-0.7766942222	-0.3645842395	-0.413921
C	 0.5926176345	-0.9756494947	 1.0142318236	 0.329506
O	 1.3442071889	-0.7320769359	 2.1557409059	-0.465848
C	-0.6982056718	-1.8255086501	 1.0045167794	 0.26793
C	-0.5777422008	-3.2834357763	 0.5607622833	-0.455358
C	-1.4228928539	-1.7248205506	 2.3483184048	-0.428086
C	-1.2854536442	-0.8032339687	-0.041126932	-0.33769
H	 0.9833876135	 1.919456974	 0.48194879	 0.12367
H	-0.1687506785	 1.9973442343	-0.8597042332	 0.115915
H	-0.7544573905	 1.9515727968	 0.8093603093	 0.115933
H	 1.0622032892	-1.5217492067	-1.1511019762	 0.098929
H	 2.1101814045	-0.2447109741	-0.3683673822	 0.106571
H	 2.0780588033	-1.3556159123	 2.1766160654	 0.28457
H	-0.0287873348	-3.8759150379	 1.3025084836	 0.106876
H	-1.5672869528	-3.7405703	 0.4451761154	 0.112387
H	-0.0561412564	-3.3796146174	-0.3964551154	 0.109237
H	-1.5097027712	-0.6848216184	 2.6775095702	 0.116578
H	-2.4313391136	-2.1469746129	 2.2742243435	 0.104321
H	-0.8813395408	-2.2696701616	 3.1283496442	 0.111072
H	-2.1907190542	-0.3084525897	 0.3219662307	 0.096195
H	-1.4819382584	-1.2053456232	-1.0410782574	 0.087015
120.7911	171.2937	186.7715	201.2801	212.6016	238.3818	275.3284	283.4482	326.2348	357.8985	400.6492	443.7629	477.7717	528.8982	568.8936	653.3192	740.7272	794.0717	834.1753	889.99	921.4298	954.3596	962.7064	971.752	989.5474	1030.7553	1049.6929	1056.3993	1118.5667	1148.3987	1196.7932	1207.6117	1226.1654	1262.3836	1285.9788	1298.4784	1334.3588	1395.3707	1406.0078	1417.1443	1424.7037	1477.3361	1482.0972	1484.0689	1486.2529	1497.3847	1502.048	1506.1713	1517.7416	3020.3416	3020.3973	3028.8022	3036.0987	3077.5936	3081.8807	3090.3159	3094.432	3097.701	3098.8006	3100.5688	3105.4373	3189.9192	3796.1399
CC12CC1(O)C(C)(C)C2	C[C@@]12C[C@]1(O)C(C)(C)C2	
InChI=1S/C8H14O/c1-6(2)4-7(3)5-8(6,7)9/h9H,4-5H2,1-3H3	InChI=1S/C8H14O/c1-6(2)4-7(3)5-8(6,7)9/h9H,4-5H2,1-3H3/t7-,8+/m1/s1
