21
gdb 79914	2.36182	1.53792	1.30784	1.3823	84.2	-0.2198	0.0176	0.2374	1113.2297	0.182085	-387.090112	-387.080912	-387.079968	-387.123454	35.323	
C	-0.0960516537	 1.569236721	-0.1253475338	-0.40124
C	 0.0430990381	 0.0719064832	 0.0373408274	 0.004144
C	 1.3246999819	-0.715053744	-0.2043928561	-0.107738
C	 2.6071236373	 0.0438869488	-0.125727409	-0.18409
C	 2.8363901633	 0.5340761262	 1.0956771946	 0.304389
C	 3.9617170535	 1.407578554	 1.5487405498	-0.511109
C	 1.7284379392	 0.1162974273	 2.064452701	 0.004218
O	 1.1013225785	 1.2179470034	 2.726606398	-0.428636
C	 0.7288226373	-0.6306021471	 1.1907245991	-0.074459
H	 0.818038406	 2.0983581724	 0.1440732413	 0.123488
H	-0.3452878025	 1.8169186494	-1.1637779853	 0.101596
H	-0.8966832371	 1.9514803728	 0.5152937737	 0.120403
H	-0.8418829746	-0.4712042945	-0.2898957425	 0.081625
H	 1.2750509932	-1.622898656	-0.7962487011	 0.080834
H	 3.2461395825	 0.2071372313	-0.9881223907	 0.087152
H	 4.660514708	 1.6226979887	 0.7361528138	 0.127671
H	 3.5877092877	 2.3666537673	 1.9300720102	 0.125453
H	 4.5269988647	 0.9404561198	 2.3670790495	 0.119426
H	 2.1372458907	-0.5706318437	 2.8258866089	 0.065167
H	 1.723509809	 1.5686688401	 3.3716836852	 0.282016
H	 0.217421287	-1.4775558504	 1.6322958561	 0.079689
109.469	156.4429	179.5998	184.2293	222.5602	254.5858	275.7795	312.5522	355.6355	512.212	524.1408	571.5324	683.1516	712.9886	749.0249	783.1131	844.2737	888.3864	904.0862	958.8664	985.8698	1009.9606	1021.4858	1061.2791	1064.1435	1082.4523	1090.3543	1120.8244	1136.4765	1203.2447	1222.8768	1235.1069	1290.9353	1330.3053	1352.7528	1366.0972	1402.7817	1412.2874	1417.5634	1432.0295	1478.4225	1489.4261	1493.3737	1496.7639	1715.4913	2938.9371	3007.9334	3034.1294	3052.7229	3094.5136	3110.6631	3115.5655	3145.9681	3158.9089	3175.2904	3179.5425	3816.8836
CC1C2C=C(C)C(O)C12	C[C@H]1[C@H]2C=C(C)[C@@H](O)[C@@H]12	
InChI=1S/C8H12O/c1-4-3-6-5(2)7(6)8(4)9/h3,5-9H,1-2H3	InChI=1S/C8H12O/c1-4-3-6-5(2)7(6)8(4)9/h3,5-9H,1-2H3/t5-,6+,7-,8+/m0/s1
