16
gdb 131836	2.78064	1.34045	1.07764	0.7061	67.58	-0.2109	0.0084	0.2193	1128.4253	0.124611	-471.19926	-471.190679	-471.189735	-471.233835	30.422	
O	 0.1605691157	 1.3074255978	-0.2149479996	-0.416732
C	-0.0112640585	-0.0841210754	-0.0135232846	-0.082974
C	-1.5081312683	-0.3724480378	 0.0339752063	-0.14207
N	-2.1797776015	-0.0879016781	-1.2160264899	-0.050199
N	-2.9868992277	 1.01622274	-1.3862918277	-0.206911
C	-3.3337937925	 0.9585143861	-2.6159260767	 0.076238
O	-2.8159085125	-0.0988171783	-3.3043879029	-0.205689
C	-2.0368920773	-0.793906388	-2.3835987017	 0.465122
N	-1.3504006232	-1.8426412475	-2.5712731403	-0.614597
H	 1.0787220124	 1.4669101462	-0.4499619558	 0.291117
H	 0.438571087	-0.6765794183	-0.8207232854	 0.127493
H	 0.4288198498	-0.4180581654	 0.9402174048	 0.088646
H	-1.6626439141	-1.4279741988	 0.2813689829	 0.133028
H	-1.9885301205	 0.2487894598	 0.7923016369	 0.141479
H	-3.9781348422	 1.6429025548	-3.1414923506	 0.166122
H	-1.4298563666	-2.171513527	-3.5288672457	 0.229929
37.3162	57.9705	154.5845	211.2776	228.0323	250.5746	332.3628	481.7058	487.3541	626.2576	666.5951	700.545	731.3119	773.8281	806.1598	874.2838	944.3162	952.9238	989.3121	1046.3981	1094.6685	1101.6609	1153.6371	1216.9013	1263.5491	1280.3549	1303.4994	1364.7609	1398.6032	1413.4062	1450.4118	1459.0618	1521.8703	1644.732	1782.4058	2974.1728	3042.7049	3059.2445	3131.6695	3297.0041	3551.3298	3839.2443
OCCN1N=COC1=N	OCCN1N=CO[C@@H]1[NH]	
InChI=1S/C4H7N3O2/c5-4-7(1-2-8)6-3-9-4/h3,5,8H,1-2H2	InChI=1S/C4H8N3O2/c5-4-7(1-2-8)6-3-9-4/h3-5,8H,1-2H2/t4-/m1/s1
