14
gdb 129979	4.75916	0.88182	0.78957	5.1521	65.08	-0.2469	-0.0291	0.2178	1369.5215	0.100396	-470.023333	-470.015045	-470.014101	-470.057426	29.191	
N	-0.1250363898	 1.2991216202	-0.2649574393	-0.593152
C	-0.0473205672	-0.0427735123	-0.1064833078	 0.503789
N	-1.005362178	-0.9213841297	-0.2473545602	-0.386512
C	-0.3272385412	-2.0970993149	-0.025152881	 0.35307
C	-0.9935639877	-3.4301945522	-0.0936978119	-0.387596
C	-1.6173803176	-3.7051512929	-1.4603557663	 0.158995
O	-1.6585151565	-4.7960889865	-1.9616584049	-0.230751
N	 0.9473137635	-1.9769561692	 0.2355885655	-0.189488
O	 1.1447860497	-0.568220566	 0.1857561448	-0.2068
H	 0.6097769768	 1.8563546307	 0.1393648388	 0.280735
H	-1.0520778345	 1.6911336613	-0.2433903977	 0.284108
H	-0.2995084955	-4.2327843489	 0.159163839	 0.154932
H	-1.820889183	-3.4449186033	 0.6301795889	 0.153201
H	-2.0585238889	-2.8130820766	-1.9530640778	 0.10547
51.4574	63.7886	126.1749	234.8676	305.6932	380.1354	397.1774	424.1213	436.4525	468.9837	649.5673	718.1838	752.4946	785.1706	832.3498	896.3749	1008.4496	1032.2849	1039.8934	1059.5362	1123.9019	1201.5894	1283.1869	1370.6203	1418.3207	1433.2092	1448.5613	1581.7661	1608.1246	1687.1245	1839.7522	2916.3298	3024.1122	3136.7265	3607.2512	3724.9204
NC1=NC(CC=O)=NO1	Nc1nc(CC=O)no1	
InChI=1S/C4H5N3O2/c5-4-6-3(1-2-8)7-9-4/h2H,1H2,(H2,5,6,7)	InChI=1S/C4H5N3O2/c5-4-6-3(1-2-8)7-9-4/h2H,1H2,(H2,5,6,7)
