18
gdb 6960	2.59224	2.21524	1.62351	2.5466	66.94	-0.2445	-0.0266	0.2179	875.4788	0.153154	-384.980964	-384.972887	-384.971942	-385.013164	30.846	
C	 0.1469357469	 1.5601736263	 0.0390637117	-0.427507
C	-0.063916117	 0.035751404	-0.040084891	 0.312953
O	-1.4424366107	-0.2673862073	-0.014230282	-0.48548
C	 0.6529229013	-0.596445257	-1.2422369371	-0.252026
C	 2.1178646178	-0.7734235426	-0.7734504961	-0.226242
C	 2.0152260572	-1.1359714276	 0.7232555511	-0.321483
C	 0.64187573	-0.6324984179	 1.1539375706	 0.367226
O	 0.1095006095	-0.775436943	 2.2274381464	-0.340701
H	 1.2035527387	 1.8419304404	-0.01635903	 0.11401
H	-0.3832006022	 2.0321424315	-0.7930380553	 0.131298
H	-0.2624563897	 1.9463525223	 0.9772062572	 0.127191
H	-1.671147616	-0.3686157988	 0.921573757	 0.285319
H	 0.190184998	-1.5698544329	-1.4376455913	 0.113789
H	 0.5682744748	 0.002544497	-2.1524991374	 0.104952
H	 2.6453389794	-1.5340626142	-1.3529780412	 0.109509
H	 2.6712247497	 0.1625291024	-0.9002050565	 0.111251
H	 2.0298808614	-2.2197061304	 0.8888490205	 0.141936
H	 2.806248341	-0.7159465721	 1.3510969633	 0.134004
67.9187	189.7257	203.4974	240.3713	299.4975	338.1056	382.0259	421.8793	512.4434	560.0237	589.8586	615.8663	691.5534	807.96	829.6875	909.8095	938.6279	957.6595	1008.3737	1016.4863	1048.5307	1084.2673	1147.5368	1183.5262	1215.4868	1238.5377	1252.0396	1292.144	1328.799	1347.0956	1395.2794	1399.4823	1443.8326	1482.5176	1488.9785	1499.3226	1508.8526	1835.9602	3035.7687	3049.0727	3051.5588	3055.6663	3093.8318	3101.18	3108.6808	3113.152	3119.3998	3724.99
CC1(O)CCCC1=O	C[C@@]1(O)CCCC1=O	
InChI=1S/C6H10O2/c1-6(8)4-2-3-5(6)7/h8H,2-4H2,1H3	InChI=1S/C6H10O2/c1-6(8)4-2-3-5(6)7/h8H,2-4H2,1H3/t6-/m1/s1
