23
gdb 72930	2.58244	1.62715	1.40739	0.1184	88.08	-0.2415	0.0803	0.3219	1078.0197	0.207435	-351.113999	-351.105983	-351.105039	-351.146115	33.224	
C	-0.0911352278	 1.5130156318	-0.0292565962	-0.491413
C	-0.0209300513	 0.0010082414	 0.0212138032	 0.386318
C	-1.3311887446	-0.772892703	 0.3313478482	-0.29039
C	-0.5734306758	-1.6284554926	 1.3933773807	-0.236676
C	 0.7137087733	-0.7796953494	 1.1719039416	-0.077725
C	 1.7993441601	-1.2778282421	 0.1660948877	-0.009594
C	 1.6529039337	-2.6767735093	-0.483751899	-0.234495
C	 0.7243195071	-2.0643604605	-1.5794201368	-0.246473
C	 0.9810638802	-0.6378215441	-1.0056912751	-0.074222
H	 0.9094721764	 1.9595495579	-0.0670856842	 0.111567
H	-0.6365240469	 1.8517427842	-0.9196237064	 0.112662
H	-0.6047422141	 1.9186762274	 0.8500176398	 0.107933
H	-2.0895489128	-0.1231531256	 0.7786133563	 0.092117
H	-1.8032136231	-1.3101253282	-0.4955236346	 0.09501
H	-0.9830116522	-1.5486516856	 2.4031115566	 0.097637
H	-0.4848183154	-2.6917028273	 1.1586268967	 0.100101
H	 1.0954719161	-0.2680856088	 2.0583808423	 0.055626
H	 2.8124191628	-0.9534509973	 0.412239487	 0.057694
H	 2.5993701143	-3.0395620074	-0.8936851972	 0.095868
H	 1.2332082663	-3.4738989796	 0.1358467451	 0.096827
H	 1.0906829026	-2.1993089223	-2.5999741289	 0.097659
H	-0.3136191907	-2.4039877835	-1.5551833586	 0.099407
H	 1.4243630717	 0.072821024	-1.7069683784	 0.054563
82.0777	225.0969	231.9277	265.3575	280.0706	329.2055	419.1522	453.565	571.894	626.8364	719.3034	740.8213	759.3257	784.9347	825.32	849.1176	874.1851	909.2832	933.6484	948.5644	954.8844	961.4874	1003.3806	1016.9428	1070.6273	1075.892	1121.884	1144.0426	1150.0093	1161.4292	1200.8499	1212.8813	1223.6381	1232.3439	1250.3526	1258.7798	1266.3935	1271.563	1278.4946	1310.7874	1323.6483	1348.9578	1406.7493	1468.1794	1485.5387	1488.5811	1489.8637	1493.4052	1511.7942	3011.1774	3048.4813	3051.8398	3062.6329	3063.5097	3068.5591	3073.8624	3074.1672	3083.0323	3087.0646	3090.128	3094.9609	3112.7386	3118.2268
CC12CCC1C1CCC21	C[C@]12CC[C@H]1[C@H]1CC[C@@H]21	
InChI=1S/C9H14/c1-9-5-4-8(9)6-2-3-7(6)9/h6-8H,2-5H2,1H3	InChI=1S/C9H14/c1-9-5-4-8(9)6-2-3-7(6)9/h6-8H,2-5H2,1H3/t6-,7+,8-,9+/m0/s1
