19
gdb 113993	3.21037	0.80557	0.70541	4.7835	77.54	-0.2379	0.0403	0.2782	1590.1949	0.158494	-419.18075	-419.171019	-419.170075	-419.216323	34.409	
O	 0.008308589	 1.484313499	 0.2443303231	-0.404656
C	-0.0121723231	 0.0715078377	 0.3828783324	-0.117198
C	-1.3768920712	-0.4886069682	 0.0332339367	 0.0024
C	-2.569361025	 0.3914573513	-0.1063258757	-0.255402
N	-2.0244184454	-0.3176158369	-1.2666994747	-0.095278
C	-1.365021753	 0.4626663896	-2.3060793612	-0.147839
C	-2.4090783349	 0.8098150057	-3.3841234578	-0.331715
C	-1.8249100053	 1.5407387026	-4.5048025563	 0.253002
N	-1.3428563063	 2.1166100734	-5.383214346	-0.308952
H	 0.9179082104	 1.7839191294	 0.3336285832	 0.29484
H	 0.750751389	-0.3999021123	-0.2573239988	 0.101346
H	 0.210710682	-0.2246493265	 1.4202342674	 0.10243
H	-1.5172153899	-1.4885265875	 0.4423167519	 0.097006
H	-3.5451854005	 0.059554591	 0.2377585739	 0.114317
H	-2.3863144916	 1.4605318151	-0.0321604652	 0.135485
H	-0.8903137899	 1.3786615584	-1.933806788	 0.131425
H	-0.5826637884	-0.1581221663	-2.7567980301	 0.117093
H	-2.8736967166	-0.1107232195	-3.7519424155	 0.158806
H	-3.2081518692	 1.4169030141	-2.9439316293	 0.152889
65.7952	75.7099	90.7148	131.3441	203.2982	238.5917	264.386	279.5983	392.8437	420.7544	451.7196	535.5521	628.6925	752.1584	790.3024	810.7356	927.0657	953.6989	974.2795	1031.0201	1041.6869	1051.6829	1087.3024	1110.0713	1123.3267	1156.8769	1173.0031	1231.8597	1241.1907	1276.5242	1295.0808	1318.7005	1337.7276	1395.8461	1418.7557	1458.0715	1468.8953	1502.4854	1515.2261	1524.4847	2362.2518	2969.4397	2995.2263	3029.3591	3051.1637	3070.8312	3097.8917	3106.9886	3112.9473	3196.5761	3830.9537
OCC1CN1CCC#N	OC[C@H]1CN1CCC#N	
InChI=1S/C6H10N2O/c7-2-1-3-8-4-6(8)5-9/h6,9H,1,3-5H2	InChI=1S/C6H10N2O/c7-2-1-3-8-4-6(8)5-9/h6,9H,1,3-5H2/t6-,8?/m1/s1
