15
gdb 49861	2.87794	1.50601	1.20575	4.7502	65.62	-0.2597	-0.0476	0.2121	1012.3593	0.113301	-453.96313	-453.95556	-453.954616	-453.995766	27.843	
O	-0.1212859299	-0.0319336694	-0.0021132629	-0.245249
C	-0.0590493758	 1.1685943989	 0.043675355	 0.159292
C	 1.2417827564	 1.9531490656	-0.0188098466	-0.095485
N	 2.4112044647	 1.1254587526	-0.1619375376	-0.31328
C	 3.1426368556	 1.368131423	-1.3077253418	 0.410111
O	 4.081740778	 0.7396096902	-1.7102083132	-0.350815
N	 2.5949086826	 2.5441952786	-1.9572568514	-0.137061
C	 1.2996373872	 2.2202831342	-2.5985693548	-0.251511
C	 1.3405206773	 2.8590172681	-1.2603121407	-0.058535
H	-0.9682872769	 1.801901305	 0.1429041573	 0.093213
H	 1.2831239262	 2.5830827885	 0.8842603826	 0.114218
H	 2.4623403644	 0.2148054266	 0.2676195944	 0.269995
H	 1.0677083226	 2.8167544096	-3.4744888536	 0.139223
H	 1.0184468936	 1.171812755	-2.6629531524	 0.148321
H	 1.100234454	 3.9091842735	-1.1415013344	 0.117561
77.6954	93.7046	209.4689	238.9438	297.1323	422.5969	456.8138	494.2799	655.4316	673.1578	726.2229	786.2563	793.6051	833.2872	881.4938	937.3307	976.9216	1013.9919	1073.3462	1086.388	1119.3155	1148.8047	1160.6319	1214.9911	1274.471	1285.4034	1360.4833	1374.6672	1417.2073	1420.9616	1504.4031	1831.0967	1875.7812	2892.1044	2976.5714	3115.6359	3177.1735	3211.0934	3644.4753
O=CC1NC(=O)N2CC12	O=C[C@H]1NC(=O)N2C[C@@H]12	
InChI=1S/C5H6N2O2/c8-2-3-4-1-7(4)5(9)6-3/h2-4H,1H2,(H,6,9)	InChI=1S/C5H6N2O2/c8-2-3-4-1-7(4)5(9)6-3/h2-4H,1H2,(H,6,9)/t3-,4+,7?/m1/s1
