15
gdb 77805	2.43813	1.42592	1.08245	3.7614	68.41	-0.256	-0.0532	0.2028	1099.085	0.110388	-457.755762	-457.747546	-457.746602	-457.788823	30.216	
O	-0.2769904217	 1.4493213065	-0.0265874106	-0.411421
C	-0.1669488275	 0.063312252	 0.0211849785	 0.051563
C	-0.4664578801	-0.745854996	 1.2576652094	-0.298377
C	-1.6232484746	-0.1381270214	 2.0156145423	 0.444282
O	-1.7975323913	 0.0572270872	 3.182805046	-0.309238
C	-2.5357337989	-0.0578765424	 0.7762325897	-0.416922
C	-1.4197401204	-0.7392431171	-0.0269500522	 0.208828
C	-1.6128286594	-1.8801640757	-0.938877711	 0.072502
O	-2.6894914304	-2.3475332467	-1.2182003126	-0.25519
H	 0.4237291634	 1.8302980532	 0.5140785702	 0.300958
H	 0.6582675219	-0.3514552448	-0.5621846996	 0.111324
H	 0.2083475566	-1.5170684922	 1.6111651738	 0.12453
H	-3.4136877431	-0.6982874589	 0.8911167376	 0.15633
H	-2.8351237196	 0.936372652	 0.4428416315	 0.145631
H	-0.6698202448	-2.3006482958	-1.3568627131	 0.075201
82.016	119.9927	192.2179	224.9985	268.4487	294.6784	390.6234	453.9736	460.8309	551.538	610.6128	637.827	712.3543	753.3061	874.9934	915.4889	947.4343	972.6595	1033.8106	1066.5898	1087.1587	1097.8436	1135.1246	1218.1865	1223.9045	1258.4707	1316.0642	1333.1308	1422.5908	1443.0952	1472.4513	1808.36	1890.9038	2871.346	3083.5879	3084.3777	3145.2349	3190.2973	3808.0286
OC1C2C(=O)CC12C=O	O[C@H]1[C@H]2C(=O)C[C@@]12C=O	
InChI=1S/C6H6O3/c7-2-6-1-3(8)4(6)5(6)9/h2,4-5,9H,1H2	InChI=1S/C6H6O3/c7-2-6-1-3(8)4(6)5(6)9/h2,4-5,9H,1H2/t4-,5+,6+/m1/s1
