15
gdb 12991	2.79307	2.67331	1.60419	3.8106	61.07	-0.2411	0.0132	0.2543	801.2029	0.119385	-399.827557	-399.820382	-399.819438	-399.858763	26.821	
C	-0.0813486354	 1.5400261796	 0.0317581581	-0.491402
C	 0.1463766715	 0.0612324998	 0.0112571892	 0.287804
O	-0.7088590174	-0.7756215325	 0.8264881974	-0.285803
C	 0.6964095699	-0.7961665302	 1.0705587169	-0.030678
C	 1.3880369434	-1.9911233681	 0.4314537223	-0.190678
N	 1.1197561735	-1.7921389853	-0.9844598509	-0.33194
C	 0.447489564	-0.6431752541	-1.307261083	 0.398026
O	 0.1567370722	-0.2577955632	-2.4181016553	-0.3791
H	 0.8199183551	 2.0738425232	-0.2850724664	 0.13355
H	-0.8819712731	 1.7988297107	-0.6669881731	 0.152999
H	-0.3595383886	 1.8706963226	 1.0348728808	 0.129463
H	 1.0243604773	-0.4235658946	 2.0363572951	 0.107484
H	 2.4642805132	-1.9799103979	 0.6481139986	 0.116212
H	 0.9703160775	-2.935759503	 0.8000575958	 0.127903
H	 1.2996756469	-2.4924820771	-1.6856161555	 0.256161
131.2983	162.3703	225.1297	258.7585	300.7121	441.1583	488.9496	493.0056	587.4159	693.2679	728.1697	790.3456	816.3102	881.4626	927.8532	982.6482	1043.4029	1063.0299	1092.0673	1117.6643	1189.7387	1224.5252	1285.1596	1316.258	1346.5137	1408.1609	1444.3623	1462.3027	1479.9468	1494.0673	1512.4556	1832.524	3016.2436	3047.9158	3056.1206	3115.8182	3135.5237	3163.793	3647.6102
CC12OC1CNC2=O	C[C@]12O[C@H]1CNC2=O	
InChI=1S/C5H7NO2/c1-5-3(8-5)2-6-4(5)7/h3H,2H2,1H3,(H,6,7)	InChI=1S/C5H7NO2/c1-5-3(8-5)2-6-4(5)7/h3H,2H2,1H3,(H,6,7)/t3-,5-/m0/s1
