24
gdb 122169	2.74898	0.91219	0.80098	1.974	87.68	-0.2208	0.0796	0.3004	1594.5491	0.214434	-405.516185	-405.505115	-405.504171	-405.552706	39.88	
C	-0.0129878427	 1.3770959814	 0.3584324662	-0.385216
C	-0.0315062302	-0.0644737046	-0.1207614523	-0.022753
O	-1.3182311758	-0.6004273919	 0.11006361	-0.249343
C	-1.4481729971	-1.9458273625	-0.3067197774	-0.127226
C	-2.8839414946	-2.3790041055	-0.0989127118	 0.32964
C	-3.8909042458	-1.6190894574	-0.9398572244	-0.448839
C	-3.1304054166	-3.8087608745	 0.2630186857	-0.302597
N	-3.3641760019	-2.7491938537	 1.2356152324	-0.102974
C	-2.4863273185	-2.6643760348	 2.3931159201	-0.31137
H	 0.9725227449	 1.8222682572	 0.1922658541	 0.114391
H	-0.757851093	 1.9693948506	-0.1805310212	 0.127351
H	-0.2425400368	 1.4289506243	 1.4264959644	 0.126795
H	 0.2149423187	-0.1194444591	-1.1950049653	 0.084981
H	 0.7298371787	-0.6596140575	 0.4122996925	 0.084076
H	-1.1914939447	-2.0404498846	-1.3762772334	 0.087683
H	-0.746825963	-2.5879020453	 0.2470825173	 0.083365
H	-3.7106579957	-1.7831276607	-2.0088043709	 0.105514
H	-4.9056764612	-1.9446000447	-0.7012025089	 0.121129
H	-3.8142446453	-0.5458909387	-0.7442011252	 0.13256
H	-4.0118633894	-4.3255807242	-0.1100207117	 0.109144
H	-2.2592453827	-4.449317131	 0.4056033524	 0.098516
H	-1.4778541835	-3.0793695525	 2.2382788375	 0.094542
H	-2.3818261429	-1.616520015	 2.6880158041	 0.132299
H	-2.9466482708	-3.2148323555	 3.2201910556	 0.118332
52.4149	83.7035	108.5094	142.5084	172.4408	182.14	226.4097	247.378	264.4542	335.7879	350.9338	393.3586	445.9341	470.506	539.1892	735.9454	771.7205	823.6799	898.4286	911.5437	917.6212	979.6193	1010.2963	1038.9354	1068.4645	1113.2763	1123.3973	1139.4704	1152.7731	1164.0606	1177.889	1191.3443	1207.2797	1257.1674	1296.6941	1300.9288	1368.6953	1395.7387	1405.1799	1415.4138	1445.1276	1453.0539	1481.4202	1483.8267	1485.0147	1497.4696	1499.8181	1500.4236	1512.3157	1520.2933	1536.1909	2947.6407	2958.687	2973.3447	2976.1285	3001.5136	3034.5317	3045.2209	3065.9869	3076.227	3103.8402	3111.6361	3119.5484	3121.9644	3131.3009	3161.9859
CCOCC1(C)CN1C	CCOC[C@@]1(C)CN1C	
InChI=1S/C7H15NO/c1-4-9-6-7(2)5-8(7)3/h4-6H2,1-3H3	InChI=1S/C7H15NO/c1-4-9-6-7(2)5-8(7)3/h4-6H2,1-3H3/t7-,8?/m1/s1
