19
gdb 45196	3.26793	1.55164	1.30323	3.0753	80.09	-0.2356	-0.0152	0.2203	1012.6259	0.161815	-385.861886	-385.855047	-385.854103	-385.892886	28.704	
O	-0.0703611126	-0.0133676192	 0.2490603084	-0.300426
C	-0.0654401212	 1.1693597162	 0.0835986407	 0.297722
C	-1.1817232856	 2.2246695614	-0.2553563286	-0.397886
C	-0.0321412633	 3.0708682905	-0.886141386	 0.022206
C	 0.4988704088	 4.5148021624	-0.6683527805	-0.267009
C	 1.7774596058	 4.1477363312	 0.1436115341	-0.015897
C	 1.1524074852	 3.2186971794	 1.2124046275	-0.244096
C	 0.9818008187	 2.2791135031	-0.030329292	 0.211854
C	 2.3509461612	 2.8219637726	-0.503798553	-0.332668
H	-1.9768472689	 1.8707698329	-0.9141964224	 0.123561
H	-1.6277007263	 2.6513792027	 0.6466343192	 0.128331
H	 0.0565746074	 2.7850563728	-1.9386370686	 0.085354
H	 0.7111706772	 5.0157500434	-1.616658234	 0.099882
H	-0.1613636428	 5.1651355955	-0.0863372682	 0.10503
H	 2.4479316268	 4.9618660067	 0.4232601945	 0.068317
H	 1.8778420746	 2.8095700209	 1.9186100355	 0.108461
H	 0.2610900496	 3.565600102	 1.7415364708	 0.097371
H	 2.5431305547	 2.8008306041	-1.5796464805	 0.099815
H	 3.2180665607	 2.4554061413	 0.0490791632	 0.110077
121.5483	247.9248	269.0224	400.2918	430.6533	506.2965	511.1081	603.8769	617.0019	653.847	769.3272	820.6607	839.7938	850.8936	877.211	916.177	932.3289	960.4284	976.9454	1002.387	1018.9435	1054.5011	1079.0323	1094.0761	1102.0848	1155.8209	1160.3302	1196.7715	1197.4295	1201.7243	1234.3756	1247.4858	1268.2176	1286.093	1307.6523	1375.7792	1452.8427	1486.9594	1493.6457	1524.4506	1886.1556	3049.9104	3054.7916	3060.6709	3065.1582	3074.5958	3099.6723	3104.8191	3123.7559	3129.784	3133.4745
O=C1CC2CC3CC12C3	O=C1C[C@H]2C[C@H]3C[C@@]12C3	
InChI=1S/C8H10O/c9-7-2-6-1-5-3-8(6,7)4-5/h5-6H,1-4H2	InChI=1S/C8H10O/c9-7-2-6-1-5-3-8(6,7)4-5/h5-6H,1-4H2/t5-,6-,8-/m1/s1
