18
gdb 111731	2.97341	1.16484	0.97183	1.9129	79.98	-0.2369	0.0126	0.2495	1242.7117	0.14648	-401.856563	-401.847675	-401.846731	-401.890305	33.509	
O	 0.1221895278	 1.3279685267	-0.2873896865	-0.418125
C	 0.1494089702	-0.0043351039	 0.2018493735	-0.091094
C	-1.2321173095	-0.616029414	 0.2030314196	-0.061974
N	-1.9423067679	-1.0701572175	-1.0135639821	-0.192507
C	-0.9400844789	-1.771545059	-1.8967413152	-0.161149
C	-0.5926132133	-2.8187847062	-0.8161233175	-0.315115
C	-1.554619771	-2.0637728509	 0.1143450391	 0.138049
C	-2.4974515582	-2.7014081865	 0.972616189	 0.206234
C	-3.2634029246	-3.2706558198	 1.7056646554	-0.386279
H	-0.3445797621	 1.3196503985	-1.1299967014	 0.292401
H	 0.8713954583	-0.6196442916	-0.3511375968	 0.093292
H	 0.5092188228	 0.0596717804	 1.2341964927	 0.12168
H	-1.9260538101	-0.0592749838	 0.8295684966	 0.11439
H	-1.462869052	-2.1903705878	-2.7576442551	 0.121487
H	-0.1304813293	-1.1308212805	-2.2599105823	 0.105689
H	-0.9649671606	-3.8138232844	-1.0610472737	 0.127804
H	 0.4438247962	-2.9033014801	-0.4794626531	 0.111863
H	-3.9473121076	-3.7630255197	 2.3517667677	 0.193356
61.8894	127.6564	139.8224	196.5967	262.7502	317.8286	323.8658	395.3867	489.9116	504.0228	576.6147	593.3122	625.208	660.643	709.9066	791.3184	802.4248	865.019	925.7728	976.1422	997.3644	1057.689	1070.0005	1106.7781	1121.7677	1169.9529	1210.3683	1216.1832	1234.632	1262.9625	1310.1021	1311.5569	1356.4194	1411.0516	1458.872	1486.5811	1501.0062	1522.7977	2231.6926	3017.288	3054.3638	3067.8961	3074.2423	3113.3012	3135.1741	3140.0737	3502.0886	3808.8185
OCC1N2CCC12C#C	OC[C@H]1N2CC[C@@]12C#C	
InChI=1S/C7H9NO/c1-2-7-3-4-8(7)6(7)5-9/h1,6,9H,3-5H2	InChI=1S/C7H9NO/c1-2-7-3-4-8(7)6(7)5-9/h1,6,9H,3-5H2/t6-,7+,8?/m1/s1
