13
gdb 132366	1.97233	1.80148	0.94702	3.5068	62.74	-0.2817	-0.0464	0.2353	1113.8661	0.088562	-502.073373	-502.066044	-502.0651	-502.105843	26.588	
C	-0.0344762869	 1.4977173679	 0.0336448283	-0.46875
C	-0.013442867	-0.0015648849	-0.0257279092	 0.345517
C	 0.1875382566	-0.6955856211	-1.2148308271	-0.333032
C	 0.1809417327	-2.0815709783	-1.1124847973	 0.364507
F	 0.365041307	-2.8111243237	-2.1975169307	-0.049976
N	 0.0010298907	-2.7426589892	 0.0097388054	-0.36485
C	-0.1789539303	-1.9641569645	 1.067620685	 0.348174
F	-0.3612727039	-2.6046006976	 2.2036111068	-0.048908
N	-0.2002872608	-0.651880594	 1.1381101236	-0.361215
H	 0.1247959929	 1.9461298984	-0.9487903219	 0.129614
H	-0.9941213603	 1.8406286605	 0.4325831294	 0.156426
H	 0.740199065	 1.8536528648	 0.7198047973	 0.156425
H	 0.3402942742	-0.2020947381	-2.1644365896	 0.126069
72.678	185.7292	213.3162	241.5335	297.934	365.3819	525.8719	558.4398	607.5277	614.4555	623.0477	723.1171	810.3481	864.3275	991.6248	1003.2415	1022.8023	1059.6544	1103.5816	1186.2193	1296.4686	1401.7661	1417.5699	1462.6981	1472.4152	1475.5777	1494.552	1615.9659	1637.7361	3048.0658	3110.3751	3139.324	3230.937
CC1=CC(F)=NC(F)=N1	Cc1cc(F)nc(F)n1	
InChI=1S/C5H4F2N2/c1-3-2-4(6)9-5(7)8-3/h2H,1H3	InChI=1S/C5H4F2N2/c1-3-2-4(6)9-5(7)8-3/h2H,1H3
