19
gdb 64558	2.48343	1.85919	1.39255	2.514	79.29	-0.2282	-0.0173	0.2109	990.839	0.158602	-385.860756	-385.852653	-385.851709	-385.893435	31.632	
C	-0.0704562543	 1.5897182229	-0.1939510538	-0.481195
C	 0.0298100916	 0.0630624136	-0.0822887107	 0.259178
C	-1.3568963197	-0.4676686882	-0.3871088101	 0.104729
O	-2.158578273	-0.8215295055	 0.4383997802	-0.259544
C	 1.2475952024	-0.6345374223	-0.8273811409	-0.119341
C	 2.1082500988	-0.2149885304	 0.4136121963	-0.227248
C	 0.7749309382	-0.5492519528	 1.1665227163	-0.100062
C	 0.6671612422	-2.0464344936	 0.8347779989	-0.068765
C	 0.9778356744	-2.1030676599	-0.4642933047	-0.10312
H	 0.8947730027	 2.0890946975	-0.0958987239	 0.128132
H	-0.4898400796	 1.8749295247	-1.16663483	 0.122568
H	-0.7390717338	 1.9824934351	 0.5793826332	 0.136932
H	-1.621427506	-0.448652905	-1.4728571875	 0.067306
H	 1.5247858241	-0.3800211758	-1.8503630208	 0.063351
H	 2.9639554731	-0.8541191927	 0.6387858356	 0.10001
H	 2.4017019284	 0.8361865037	 0.4395721182	 0.096927
H	 0.5691093674	-0.2174731535	 2.1828195486	 0.069807
H	 0.3813294239	-2.8318298366	 1.5188376085	 0.10784
H	 1.021969879	-2.9487292312	-1.1354105931	 0.102495
56.905	159.0105	191.5604	236.2139	277.3252	347.074	440.364	495.1437	532.5845	568.5995	661.899	723.9098	804.4938	830.3268	834.8537	874.6769	909.1456	916.1126	926.0868	935.3207	974.5109	983.779	1035.7622	1085.0046	1105.6887	1125.233	1126.6856	1154.8303	1216.9807	1222.1478	1241.7885	1263.5168	1268.2906	1320.576	1403.632	1418.0299	1487.0583	1492.8169	1512.7726	1620.4598	1827.7113	2829.3264	3029.5392	3071.2725	3089.5775	3117.1612	3124.6809	3132.7307	3137.7418	3224.9537	3252.1715
CC1(C=O)C2CC1C=C2	C[C@@]1(C=O)[C@H]2C[C@@H]1C=C2	
InChI=1S/C8H10O/c1-8(5-9)6-2-3-7(8)4-6/h2-3,5-7H,4H2,1H3	InChI=1S/C8H10O/c1-8(5-9)6-2-3-7(8)4-6/h2-3,5-7H,4H2,1H3/t6-,7+,8-
