16
gdb 128810	4.57294	0.8887	0.76136	4.127	68.2	-0.2213	0.0127	0.234	1446.9531	0.12505	-471.235114	-471.226404	-471.22546	-471.269424	30.619	
C	-0.5802729475	 1.314932519	-0.5774950555	-0.22765
O	-0.6511011059	-0.0938608523	-0.6305708182	-0.245701
C	-0.6573693374	-0.689627225	 0.64955126	-0.168966
C	-0.8115080484	-2.1609894257	 0.4669141736	 0.386923
N	-0.2381236029	-3.0692979984	 1.194020816	-0.273047
N	-0.7296305161	-4.2544332581	 0.6926897627	-0.297549
C	-1.5902866193	-4.1053133151	-0.3775172111	 0.456534
O	-2.1515417612	-4.9417262476	-1.048897084	-0.419618
N	-1.644191717	-2.7079971545	-0.4762379746	-0.382689
H	-0.5943719954	 1.6778568026	-1.6071878668	 0.137213
H	-1.4356683167	 1.7439753001	-0.0331716534	 0.111941
H	 0.3457768767	 1.6551985108	-0.090764152	 0.116287
H	 0.2703060077	-0.4961758333	 1.2067753581	 0.128821
H	-1.4946638621	-0.2901526136	 1.2488864068	 0.112616
H	-0.4063861733	-5.1311732199	 1.0611656639	 0.281524
H	-2.1046881313	-2.208930229	-1.2175462654	 0.283359
60.8569	86.4712	111.1804	187.7204	225.6441	305.675	337.0887	387.7699	450.523	514.4969	540.7141	674.6114	715.242	757.2513	801.906	985.1537	1000.7777	1020.1885	1031.0887	1096.3263	1153.993	1183.4691	1223.4159	1238.2281	1241.5275	1274.6051	1385.4454	1405.1344	1480.2113	1486.1809	1490.4715	1499.183	1519.5575	1655.8804	1859.3486	2949.0938	2981.0342	3024.7716	3031.0299	3126.4517	3691.1951	3699.5782
COCC1=NNC(=O)N1	COCc1n[nH]c(=O)[nH]1	
InChI=1S/C4H7N3O2/c1-9-2-3-5-4(8)7-6-3/h2H2,1H3,(H2,5,6,7,8)	InChI=1S/C4H7N3O2/c1-9-2-3-5-4(8)7-6-3/h2H2,1H3,(H2,5,6,7,8)
