23
gdb 103295	2.42338	1.30111	1.27227	1.502	85.76	-0.256	0.0705	0.3265	1189.0483	0.205068	-388.237306	-388.227706	-388.226762	-388.27122	37.329	
C	 0.7914597141	 0.9218053041	-0.0018377845	-0.519027
C	 0.3005770656	-0.5008674323	-0.0838658514	 0.297703
C	 0.5645208372	-1.5340277382	-1.2296026771	-0.278214
C	-0.3048853474	-2.2869979657	-0.1839990968	-0.098767
C	 0.6465163814	-1.6758232193	 0.8859241644	-0.271127
C	-1.2047477466	-0.9989088927	-0.0476095973	 0.3161
C	-2.0290013199	-0.8091671896	 1.2329430908	-0.487251
C	-2.1154322534	-0.616606428	-1.2243860379	-0.148416
O	-3.2052044205	-1.5228089469	-1.3816209944	-0.419749
H	 1.886288313	 0.9598776661	-0.0205491852	 0.119472
H	 0.4228172204	 1.5209800688	-0.8418932359	 0.11901
H	 0.4571855555	 1.4025266458	 0.9243806003	 0.120372
H	 0.149830279	-1.3403038102	-2.2180752318	 0.088835
H	 1.5984944399	-1.8792506203	-1.3165236874	 0.08714
H	-0.641734441	-3.325016523	-0.234821218	 0.061803
H	 1.6820460507	-2.0255109562	 0.8492079893	 0.085505
H	 0.3015807362	-1.6104580044	 1.916341295	 0.09229
H	-1.6004928288	-1.2717182441	 2.1221858475	 0.111574
H	-2.1631796853	 0.2586655485	 1.4451501812	 0.111359
H	-3.0232201959	-1.2379554085	 1.0792094044	 0.134901
H	-2.5791269706	 0.3538620815	-1.0137691807	 0.104982
H	-1.5719994505	-0.5054682502	-2.1689680215	 0.088859
H	-2.8323120033	-2.3858961054	-1.5884150232	 0.282648
84.8605	126.4631	157.8246	184.93	203.4549	278.5821	304.7179	333.6869	392.1817	416.158	474.8493	536.6365	592.4576	638.675	689.7302	769.7628	793.8331	884.0159	900.6798	931.3372	935.3816	966.1727	997.0909	1012.3367	1019.2143	1048.6494	1077.9189	1094.0723	1119.9593	1147.6877	1172.3208	1172.8497	1204.5035	1212.1107	1228.2271	1245.1319	1297.5529	1319.6958	1377.7917	1404.7822	1407.7453	1420.3728	1484.1243	1488.9577	1489.6927	1497.9086	1508.6385	1529.0651	1558.6151	3023.9477	3030.5674	3035.1115	3060.3495	3064.1312	3068.961	3084.6422	3090.5722	3091.8855	3100.3636	3128.3098	3137.3703	3150.8431	3813.9618
CC12CC(C1)C2(C)CO	C[C@@]12C[C@@H](C1)[C@]2(C)CO	
InChI=1S/C8H14O/c1-7-3-6(4-7)8(7,2)5-9/h6,9H,3-5H2,1-2H3	InChI=1S/C8H14O/c1-7-3-6(4-7)8(7,2)5-9/h6,9H,3-5H2,1-2H3/t6-,7+,8-/m0/s1
