17
gdb 127847	2.68297	1.55526	0.99116	2.7125	85.18	-0.1828	-0.0118	0.1709	1159.3074	0.13811	-414.2054	-414.197013	-414.196069	-414.238049	32.115	
C	 0.1205363623	 1.3629377478	 0.0239385737	-0.323658
N	 0.038027177	-0.0835298364	-0.0034683492	-0.351127
C	-1.138477038	-0.6202571337	-0.0184023043	 0.275356
C	-2.4356451631	 0.0003672012	-0.0129672188	-0.259428
C	-3.5501771445	-0.7854728615	 0.0057345144	 0.034047
N	-3.4525149232	-2.1271556875	 0.0199409336	-0.229618
N	-2.2805694857	-2.8219364285	 0.002040928	-0.324567
C	-1.1894450278	-2.1037368449	-0.0331452213	 0.371657
N	 0.0154801343	-2.7227297882	-0.1043737779	-0.542533
H	 1.1704155606	 1.6672793903	 0.0541714478	 0.112483
H	-0.3338025218	 1.8277352681	-0.8657711583	 0.107142
H	-0.3781733269	 1.7994916268	 0.9044566806	 0.105162
H	-2.5394590274	 1.0757823959	-0.0184774305	 0.10405
H	-4.5601061857	-0.3908720195	 0.0133686683	 0.125893
H	-4.2678774774	-2.7144683672	 0.037865159	 0.273141
H	 0.0712975267	-3.7007382638	 0.1215529265	 0.253733
H	 0.8001334207	-2.110081499	 0.0705582485	 0.268268
108.1582	151.2946	213.0178	222.0861	298.893	337.5206	366.7973	413.8529	501.198	525.7145	544.0262	575.0372	595.657	600.5568	762.7899	767.9494	822.371	912.3982	924.5626	994.5267	1062.7404	1103.9443	1120.1009	1163.788	1176.4261	1258.3438	1320.9116	1421.2845	1429.6865	1437.1555	1490.1232	1501.1311	1538.9992	1581.642	1622.1052	1654.9524	1668.9648	2961.2705	3003.6702	3090.4124	3194.5442	3235.2849	3558.5426	3672.4088	3716.2943
CN=C1C=CNN=C1N	CN=c1cc[nH]nc1N	
InChI=1S/C5H8N4/c1-7-4-2-3-8-9-5(4)6/h2-3H,1H3,(H2,6,9)(H,7,8)	InChI=1S/C5H8N4/c1-7-4-2-3-8-9-5(4)6/h2-3H,1H3,(H2,6,9)(H,7,8)
