19
gdb 127034	3.08514	1.10416	0.82566	1.4247	79.28	-0.2075	0.0364	0.244	1408.7459	0.159289	-419.234918	-419.225368	-419.224423	-419.270014	33.896	
C	-0.0393782483	 1.4709022438	-0.0523819578	-0.392133
C	-0.0149702972	-0.0457393766	-0.0184839733	-0.032994
O	 0.6700155525	-0.4950827089	-1.1916187191	-0.276791
C	 0.7883411455	-1.8274178501	-1.3360849294	 0.396598
N	 0.312448417	-2.7030676044	-0.4615483156	-0.327387
N	 0.6519247866	-3.9019564663	-0.9996754522	-0.222343
C	 1.3189947941	-3.7818788406	-2.1727823212	-0.099343
C	 1.4373703701	-2.4355612564	-2.4438220503	 0.087817
C	 2.0826774893	-1.751760063	-3.6064212011	-0.506734
H	 0.9766988284	 1.8757084403	-0.0628781812	 0.126198
H	-0.5614707265	 1.8313148351	-0.9433967067	 0.12618
H	-0.5564095489	 1.8564290978	 0.8314319188	 0.1171
H	 0.5032283601	-0.423061165	 0.8715781266	 0.112043
H	-1.0274211876	-0.467444277	-0.0052238926	 0.112097
H	 0.3972502486	-4.7414971696	-0.5118480824	 0.269959
H	 1.6574356695	-4.6455009037	-2.7247380193	 0.130837
H	 1.3669802951	-1.1312374309	-4.1575014285	 0.130975
H	 2.893376769	-1.0882058636	-3.2848661468	 0.131009
H	 2.5035408425	-2.4785787709	-4.3067738879	 0.116909
66.1893	79.9749	97.3279	133.7908	243.2431	247.9168	260.7278	322.0341	352.5158	384.6325	514.7298	638.1248	647.4513	733.8112	790.2267	795.7692	813.6297	921.0155	943.1965	1006.0959	1067.3126	1069.1854	1082.515	1130.2741	1183.3097	1184.7734	1259.6673	1290.1094	1323.6463	1386.8795	1406.945	1422.2992	1425.8056	1480.3288	1484.2349	1486.243	1498.3803	1501.2979	1518.6546	1556.1885	1633.6226	3025.3624	3029.0496	3044.5366	3059.8948	3077.4645	3109.0222	3119.0905	3121.585	3251.8684	3697.7266
CCOC1=NNC=C1C	CCOc1n[nH]cc1C	
InChI=1S/C6H10N2O/c1-3-9-6-5(2)4-7-8-6/h4H,3H2,1-2H3,(H,7,8)	InChI=1S/C6H10N2O/c1-3-9-6-5(2)4-7-8-6/h4H,3H2,1-2H3,(H,7,8)
