24
gdb 101031	2.40177	1.04175	0.98663	0.7173	85.74	-0.2376	0.0772	0.3149	1431.9176	0.215487	-405.517747	-405.50682	-405.505876	-405.553989	39.864	
C	-0.4337953849	 1.5046223811	-0.1244443838	-0.407211
C	-0.157534513	 0.0006495477	-0.2102440359	-0.261913
C	 0.7862179356	-0.4620012979	-1.3156945741	 0.319582
C	 1.0904211557	 0.4001131644	-2.4847018281	-0.284084
N	 2.1232865967	 0.1406752958	-1.4593838251	-0.360034
C	 0.8207722722	-1.9719614313	-1.5376686255	 0.111349
C	 1.3464014615	-2.7381199963	-0.3193723224	-0.420987
O	-0.5008045991	-2.3545191749	-1.9019252474	-0.253991
C	-0.6121578078	-3.6348456552	-2.4750889579	-0.231907
H	 0.4861221098	 2.0959719539	-0.0438374946	 0.109004
H	-0.9895717	 1.8658961178	-0.994513437	 0.125598
H	-1.0327843928	 1.7259126022	 0.7637616859	 0.117979
H	 0.2497014415	-0.3391908947	 0.7511157813	 0.100697
H	-1.1032693715	-0.5341405018	-0.3448293559	 0.126446
H	 1.284459991	-0.0525742674	-3.4535570759	 0.110821
H	 0.6512723632	 1.3911701737	-2.5341159639	 0.109286
H	 2.2072671041	 0.9510877249	-0.8499742247	 0.225144
H	 1.5005645601	-2.1605215187	-2.3838114899	 0.066414
H	 1.4856766218	-3.7992320385	-0.5440285467	 0.112307
H	 2.3168577973	-2.32827217	-0.0254979972	 0.13377
H	 0.6554330075	-2.6581270989	 0.5247070679	 0.119141
H	 0.0621462216	-3.7534433597	-3.3382964718	 0.101778
H	-0.3978905412	-4.4422726868	-1.7600173134	 0.106489
H	-1.643949459	-3.7447577894	-2.8193625437	 0.124323
64.1105	71.3286	79.4323	173.9664	185.6275	224.1492	243.4135	256.9722	304.0334	314.3218	345.3485	358.0788	489.406	505.6147	554.6299	696.0042	785.0076	843.3513	879.4961	901.4918	914.8864	977.6365	1001.7223	1029.7069	1053.4017	1080.835	1088.5173	1115.5552	1130.8057	1143.5139	1163.8247	1182.0016	1223.073	1261.4916	1290.9263	1317.4681	1336.4023	1366.1326	1391.2705	1394.6014	1405.9476	1430.1558	1476.7929	1483.6981	1491.1301	1494.921	1502.5609	1504.3937	1505.1983	1513.4037	1524.8592	2971.5406	2977.5363	3024.3551	3024.5712	3031.9609	3045.7884	3075.5943	3097.8249	3106.3774	3111.5714	3114.9244	3116.2412	3124.0127	3199.8002	3492.9334
CCC1(CN1)C(C)OC	CC[C@]1(CN1)[C@@H](C)OC	
InChI=1S/C7H15NO/c1-4-7(5-8-7)6(2)9-3/h6,8H,4-5H2,1-3H3	InChI=1S/C7H15NO/c1-4-7(5-8-7)6(2)9-3/h6,8H,4-5H2,1-3H3/t6-,7+/m1/s1
