16
gdb 54839	2.65225	1.45544	1.11996	2.014	65.18	-0.2362	0.0246	0.2607	1076.386	0.123762	-475.000121	-474.991818	-474.990874	-475.033276	31.434	
N	 0.5468617883	 0.3710923825	-0.8375709969	-0.541426
C	-0.0247966058	 0.0589230296	 0.3571676505	 0.387102
O	 0.3592828079	 0.5077652474	 1.4220171772	-0.378305
C	-1.1856909511	-0.9072593008	 0.3067035091	-0.201059
C	-1.937201854	-1.4266427995	-0.898931278	-0.001675
O	-1.0711913525	-1.5831823628	-2.034785627	-0.294293
C	-0.3032489461	-2.6087054349	-1.3296421703	-0.157132
C	-1.1332636693	-2.3874092974	-0.0658794479	 0.299855
O	-1.5421269949	-3.3919932386	 0.7772537148	-0.446683
H	 1.2947646436	 1.0448689329	-0.837888088	 0.256208
H	 0.153713721	 0.0262746463	-1.7012109617	 0.272869
H	-1.8404200535	-0.7719246033	 1.1636086531	 0.125474
H	-2.9948430794	-1.2834193128	-1.0828439871	 0.126436
H	-0.4886481865	-3.5904142102	-1.7758637325	 0.130296
H	 0.7676171509	-2.3854340283	-1.3077484028	 0.120785
H	-1.0067194286	-3.3584239701	 1.5780753376	 0.301545
50.6705	148.3886	203.7353	268.807	315.0224	340.4955	358.8756	400.5258	447.8631	490.8797	622.0249	645.6853	669.0018	739.3116	817.5061	855.4229	904.255	944.1987	968.0673	988.2242	1024.1672	1052.0667	1070.4105	1127.4093	1150.0975	1204.3243	1254.142	1276.5797	1320.8425	1331.3006	1379.2772	1477.3472	1508.5679	1608.304	1786.7792	3048.3339	3109.1392	3162.3492	3197.172	3551.4333	3709.8287	3796.4796
NC(=O)C1C2OCC12O	NC(=O)[C@H]1[C@H]2OC[C@@]12O	
InChI=1S/C5H7NO3/c6-4(7)2-3-5(2,8)1-9-3/h2-3,8H,1H2,(H2,6,7)	InChI=1S/C5H7NO3/c6-4(7)2-3-5(2,8)1-9-3/h2-3,8H,1H2,(H2,6,7)/t2-,3-,5-/m1/s1
