18
gdb 97100	2.51773	1.15952	1.14752	2.2012	76.07	-0.2541	-0.0381	0.216	1219.7138	0.145001	-439.089966	-439.080184	-439.07924	-439.125301	33.71	
C	-0.1853865514	 1.4411507509	 0.1782637537	-0.342874
N	-0.1053795454	-0.0130707037	 0.2340993673	-0.329942
C	-1.1181373444	-0.6953215336	-0.027448731	 0.443112
O	-2.4037083051	-0.338969337	-0.3833964336	-0.273003
C	-2.8026530305	-1.743390158	-0.5097663011	-0.119787
C	-1.3941140655	-2.1970608766	-0.0787000832	 0.030517
C	-0.5352087927	-2.9885107574	-1.0653158308	-0.464505
C	-1.326164374	-2.8105884045	 1.3110069163	 0.126259
O	-2.2822838053	-3.1191583171	 1.9725967707	-0.245353
H	 0.5818662877	 1.8135387835	-0.5087563648	 0.130058
H	-1.1618508358	 1.8231886373	-0.1401304105	 0.130532
H	 0.0462739566	 1.8487787461	 1.1682333363	 0.133131
H	-3.6031821908	-1.9924634932	 0.187588379	 0.145938
H	-3.0824939071	-1.9757873161	-1.5397575652	 0.119172
H	-0.5376949331	-2.5104202351	-2.0484186343	 0.136909
H	 0.5008717018	-3.0300025975	-0.7165326718	 0.146979
H	-0.905316482	-4.0128796772	-1.1759422088	 0.132265
H	-0.288634013	-2.9508077108	 1.6838649718	 0.100591
64.9993	83.2657	106.1026	144.2979	171.9121	204.1855	268.8601	280.1395	291.3718	347.2847	489.5188	615.4761	676.8847	701.8492	790.4261	887.7842	928.3367	970.1798	977.6642	1016.0642	1041.2857	1103.207	1131.2015	1155.4167	1159.0562	1194.1086	1220.2782	1264.0087	1342.6874	1403.7773	1422.4842	1439.1547	1490.7904	1493.9862	1494.2591	1497.2119	1513.7239	1818.8714	1845.5457	2905.0416	3021.0179	3039.8786	3073.4913	3087.8047	3093.0664	3113.321	3121.3147	3145.5795
CN=C1OCC1(C)C=O	CN=C1OC[C@]1(C)C=O	
InChI=1S/C6H9NO2/c1-6(3-8)4-9-5(6)7-2/h3H,4H2,1-2H3	InChI=1S/C6H9NO2/c1-6(3-8)4-9-5(6)7-2/h3H,4H2,1-2H3/t6-/m0/s1
