17
gdb 81490	2.21543	1.96497	1.18322	2.0629	74.76	-0.2506	0.0222	0.2728	1034.9373	0.133356	-421.716187	-421.707868	-421.706924	-421.748454	32.958	
C	-0.0869809059	 1.5195755639	-0.016555869	-0.478669
C	-0.0606747938	-0.0108728683	-0.0291863675	 0.186812
C	-1.3651789263	-0.5386040699	-0.402354034	 0.179503
C	-2.4668369171	-0.9127346621	-0.7165700518	-0.407504
C	 1.2383455263	-0.6870993487	-0.6129128008	-0.05467
O	 1.985744592	-0.1642619073	 0.5433908423	-0.300528
C	 0.7493282713	-0.7098557882	 1.128727867	-0.054666
C	 1.0014259293	-1.9775930249	 0.2433245755	 0.151587
O	 0.0740031589	-2.9647337429	-0.0299772759	-0.429974
H	 0.8938522715	 1.904114854	 0.2637301333	 0.146326
H	-0.3576172282	 1.9035618169	-1.0046354722	 0.126966
H	-0.8347115876	 1.8813185903	 0.6955091426	 0.126967
H	-3.4369693522	-1.2463616506	-0.9933635107	 0.20411
H	 1.6762919243	-0.5535393371	-1.6030465053	 0.100072
H	 0.6070708625	-0.6032918822	 2.2050213872	 0.100072
H	 1.9455957528	-2.4573714053	 0.5021593447	 0.110606
H	-0.772131988	-2.5586026975	-0.2622255154	 0.292991
125.7187	174.2693	219.8303	260.3141	263.7505	348.5936	375.9789	459.3185	506.7028	515.0299	555.3906	626.9811	636.3087	647.9236	681.7693	746.9683	843.0004	857.1946	889.8476	890.9244	932.9795	1046.3494	1093.0308	1127.2458	1133.8928	1146.9266	1191.6766	1205.8305	1226.9063	1260.067	1279.4697	1330.6219	1393.8026	1452.2187	1489.2237	1498.6658	2211.3403	3047.7186	3110.6131	3111.0021	3114.1181	3127.5915	3153.0019	3495.7071	3730.4857
CC1(C#C)C2OC1C2O	C[C@@]1(C#C)[C@H]2O[C@@H]1[C@H]2O	
InChI=1S/C7H8O2/c1-3-7(2)5-4(8)6(7)9-5/h1,4-6,8H,2H3	InChI=1S/C7H8O2/c1-3-7(2)5-4(8)6(7)9-5/h1,4-6,8H,2H3/t4-,5-,6+,7+
