15
gdb 68499	3.18448	1.3156	1.1361	1.3816	72.76	-0.2396	-0.0032	0.2365	1072.3135	0.110409	-420.552774	-420.544509	-420.543565	-420.5855	31.179	
O	 0.2307985929	 1.3543661805	 0.2882326561	-0.454101
C	 0.1627177244	 0.0022984039	 0.1255436004	 0.2778
C	 0.784566511	-1.0637676575	 1.0835025379	-0.290444
C	 0.081025678	-1.9316923914	-0.018349048	-0.182233
C	-1.1408554255	-0.9411634064	 0.0773196874	-0.27453
C	-1.9817812889	-0.9924829769	 1.2507719301	 0.329514
C	-2.7147890794	-1.0220890485	 2.204012363	-0.434932
C	 0.6704261415	-0.9096080197	-1.0022716174	 0.367255
O	 1.2250537356	-0.8366698366	-2.0547694485	-0.324438
H	 0.2351845778	 1.7713340722	-0.5814762675	 0.304127
H	 1.8731122312	-1.1075801518	 1.1356680306	 0.119562
H	 0.3142359797	-1.1166504227	 2.0648778876	 0.138702
H	 0.028595312	-3.0126290175	-0.0823472193	 0.112919
H	-1.7383938276	-0.8579799873	-0.8344724495	 0.112517
H	-3.3599518927	-1.0485879403	 3.0471569272	 0.198283
120.0806	125.2727	148.3568	214.9356	257.2367	346.8462	423.0558	449.3648	528.6367	585.6995	608.5739	642.9961	654.9395	742.0221	773.5887	788.3328	808.9853	911.865	937.5089	992.1901	1036.74	1078.1836	1100.4922	1101.2487	1142.7194	1173.219	1209.6611	1307.9867	1359.1307	1411.7968	1513.9013	1918.7224	2230.9817	3073.0918	3086.596	3163.951	3194.3466	3502.7988	3797.7323
OC12CC(C1C#C)C2=O	O[C@@]12C[C@@H]([C@H]1C#C)C2=O	
InChI=1S/C7H6O2/c1-2-5-4-3-7(5,9)6(4)8/h1,4-5,9H,3H2	InChI=1S/C7H6O2/c1-2-5-4-3-7(5,9)6(4)8/h1,4-5,9H,3H2/t4-,5+,7-/m0/s1
