25
gdb 108869	2.66763	1.05616	0.82658	0.2517	96.45	-0.2253	0.031	0.2563	1532.4185	0.229997	-352.392752	-352.382914	-352.381969	-352.427444	37.797	
C	-0.2276337093	 1.5788126693	 0.018937344	-0.370048
C	 0.0377103651	 0.0626760179	 0.0351556517	-0.270742
C	 0.76425909	-0.4436794802	-1.1898573233	 0.303966
C	 2.0486420681	-0.8098798117	-1.1441593106	-0.14034
C	 2.8495208401	-1.3499374661	-2.3065545724	-0.002985
C	 3.749708837	-2.5144739939	-1.8655593716	-0.39691
C	 1.9292443302	-1.7540511	-3.4691700506	-0.193061
C	 0.849643365	-0.6965593807	-3.7150488577	-0.217553
C	-0.0349662799	-0.5232671829	-2.4737091739	-0.283938
H	 0.7131562543	 2.136364275	-0.0270219805	 0.118241
H	-0.8340312838	 1.8769821537	-0.842103159	 0.116919
H	-0.7629524637	 1.8893078284	 0.9219521359	 0.110705
H	 0.618178008	-0.1880341636	 0.9299409056	 0.097024
H	-0.9234982543	-0.4625932174	 0.1300958428	 0.094744
H	 2.5823123163	-0.7312198103	-0.1967071179	 0.065431
H	 3.5145902213	-0.5460419901	-2.6633677783	 0.075802
H	 3.1498021139	-3.3499112749	-1.4875126692	 0.114341
H	 4.3531268298	-2.8830780955	-2.7020959857	 0.107635
H	 4.4342042411	-2.2075201804	-1.0674892887	 0.10866
H	 2.5234146525	-1.9226206681	-4.3747702588	 0.086345
H	 1.4485965844	-2.7121238372	-3.2263145866	 0.090898
H	 1.3304725882	 0.2612229622	-3.9536236086	 0.09607
H	 0.2350262406	-0.963494542	-4.5817947185	 0.087969
H	-0.7440980716	-1.3622673611	-2.3970889447	 0.102635
H	-0.6606789332	 0.3715107095	-2.5815961131	 0.098192
66.706	93.628	137.3611	203.7035	227.6412	258.1871	275.7987	296.0596	376.2412	430.5967	449.9986	520.7753	547.1327	586.5891	768.8346	782.0075	839.5873	858.7596	894.3707	898.9623	930.9953	976.1232	988.3885	997.6113	1036.2757	1075.5959	1080.9226	1097.8861	1121.0824	1155.5202	1176.0142	1198.3999	1237.0855	1277.8027	1285.9074	1322.5912	1337.7515	1352.2175	1356.7244	1373.3472	1383.5722	1398.2867	1406.214	1412.3368	1472.7582	1481.3411	1488.4119	1494.9908	1497.4648	1499.8368	1500.2608	1507.2695	1730.9855	2959.7877	2987.6515	3005.4798	3010.1783	3019.1042	3025.4349	3034.3713	3041.1594	3059.2636	3059.8626	3067.0132	3094.6762	3096.2674	3103.8454	3108.9885	3119.0619
CCC1=CC(C)CCC1	CCC1=C[C@@H](C)CCC1	
InChI=1S/C9H16/c1-3-9-6-4-5-8(2)7-9/h7-8H,3-6H2,1-2H3	InChI=1S/C9H16/c1-3-9-6-4-5-8(2)7-9/h7-8H,3-6H2,1-2H3/t8-/m0/s1
