18
gdb 91339	3.08808	1.39373	1.1678	2.3613	72.55	-0.2371	0.0267	0.2637	1102.7117	0.147848	-439.092368	-439.084135	-439.083191	-439.125463	31.017	
C	-0.047588029	 1.4818780008	 0.0927916884	-0.473416
C	-0.0783331039	-0.0032835663	-0.0179420443	 0.402501
N	-1.0857855762	-0.7548296842	 0.1793092646	-0.28853
C	-0.6347466601	-2.1330922088	-0.0079533981	-0.048413
C	-1.0039201445	-2.7939377427	-1.366788858	 0.129811
O	-2.1522200385	-2.2697352211	-1.9766282572	-0.414642
C	 0.3976147203	-2.3904654072	-1.9334714701	-0.293906
C	 0.8362775829	-1.9775833409	-0.5078117689	 0.074052
O	 1.1197483109	-0.5774238604	-0.3549831235	-0.260084
H	 0.7089286734	 1.7909835596	 0.8208969243	 0.14374
H	 0.2260126278	 1.927540475	-0.8688514823	 0.143988
H	-1.026837548	 1.8468953276	 0.3997664785	 0.153555
H	-0.8585149889	-2.7293634365	 0.8807968755	 0.078883
H	-1.0777252913	-3.8846697791	-1.2434856515	 0.066388
H	-2.3095617574	-2.7590108513	-2.7904097648	 0.28467
H	 0.9785438609	-3.1789090655	-2.4178221328	 0.100158
H	 0.3366457307	-1.5243915379	-2.5967441821	 0.115501
H	 1.641698601	-2.5490625413	-0.0470632478	 0.085745
65.1022	135.6404	146.6902	244.6201	257.4339	329.9806	393.7445	418.9281	539.3729	608.6149	628.256	695.835	744.0943	818.3931	870.8156	905.4534	918.2424	937.3812	1009.8561	1024.0048	1060.1393	1071.0916	1094.1473	1122.9181	1165.9645	1198.9642	1216.04	1236.5913	1253.0893	1289.8754	1316.9922	1329.336	1360.1787	1411.4418	1432.6015	1467.2483	1475.297	1475.7566	1726.8475	2984.832	3050.4584	3064.3788	3067.3026	3107.3435	3112.4292	3129.5785	3167.7036	3816.8368
CC1=NC2C(O)CC2O1	CC1=N[C@H]2[C@@H](O)C[C@H]2O1	
InChI=1S/C6H9NO2/c1-3-7-6-4(8)2-5(6)9-3/h4-6,8H,2H2,1H3	InChI=1S/C6H9NO2/c1-3-7-6-4(8)2-5(6)9-3/h4-6,8H,2H2,1H3/t4-,5+,6-/m0/s1
