21
gdb 115070	3.02159	1.24796	0.97915	1.5848	83.33	-0.2208	0.0264	0.2472	1245.7521	0.184274	-387.08775	-387.07928	-387.078336	-387.120743	33.24	
O	 0.024709897	 1.3960469891	-0.0222118489	-0.42521
C	 0.0385872325	-0.0243794377	-0.0684729593	-0.084191
C	-1.4034413528	-0.5224947292	 0.0028524421	 0.011861
C	-2.2464280163	 0.0241424493	-1.169875161	-0.266307
C	-3.5831621778	-0.65848113	-1.3011583951	-0.094248
C	-3.7890620264	-1.9157230412	-0.9037816721	-0.040961
C	-2.7180456952	-2.7478199309	-0.3030334836	-0.086343
C	-1.4196962967	-2.9540355947	-1.0736742843	-0.291786
C	-1.449765264	-2.0376948039	 0.1200783655	-0.031583
H	 0.9292794072	 1.7095910103	-0.1089119925	 0.286025
H	 0.5052800534	-0.3897392937	-0.9980999194	 0.084194
H	 0.6151821071	-0.4411453659	 0.7735096271	 0.080285
H	-1.8350643592	-0.118869697	 0.9295006338	 0.084054
H	-2.3722580252	 1.102313451	-1.0391528076	 0.119972
H	-1.678359019	-0.0855960933	-2.1065987516	 0.102611
H	-4.3913398987	-0.0950422741	-1.7594163798	 0.082884
H	-4.7662831255	-2.3754769562	-1.0248613667	 0.082137
H	-3.0496269083	-3.5821703217	 0.3066148471	 0.080527
H	-0.9124548193	-3.9077045024	-0.9726778296	 0.10761
H	-1.3689973548	-2.5245207254	-2.0681339606	 0.117556
H	-0.9725392378	-2.4244373223	 1.0171717266	 0.080913
91.3373	125.6466	191.2201	236.4037	255.9234	307.3165	358.8765	454.7054	484.3937	508.4965	596.5042	722.4019	736.0536	776.9868	833.3178	856.1927	897.7227	938.382	954.5097	973.5108	991.2742	1019.4768	1059.3619	1064.1645	1079.8099	1098.2747	1108.9548	1131.0508	1155.3227	1191.4579	1210.5787	1231.706	1246.3683	1272.7044	1319.9653	1337.8504	1366.5594	1379.2521	1415.9684	1425.0673	1456.6335	1479.6084	1491.9937	1519.4467	1711.4609	2958.5245	2984.7103	2986.4856	3015.3574	3085.0558	3129.1719	3132.5588	3147.6115	3157.6943	3174.9141	3217.6768	3832.8992
OCC1CC=CC2CC12	OC[C@H]1CC=C[C@H]2C[C@@H]12	
InChI=1S/C8H12O/c9-5-7-3-1-2-6-4-8(6)7/h1-2,6-9H,3-5H2	InChI=1S/C8H12O/c9-5-7-3-1-2-6-4-8(6)7/h1-2,6-9H,3-5H2/t6-,7+,8+/m0/s1
