21
gdb 58593	2.67877	1.27377	1.14864	1.4954	73.65	-0.2424	0.0691	0.3115	1184.4004	0.181753	-461.364561	-461.354983	-461.354039	-461.398741	36.344	
C	 0.0443660987	 1.6097585799	-0.1584970183	-0.419647
C	 0.0614790906	 0.0892617854	-0.0038925518	 0.079738
O	 0.7944471144	-0.3140503431	 1.1514194596	-0.441485
C	-1.3413418659	-0.5137537633	 0.1378059947	 0.421359
O	-2.0421211911	-0.1611977905	-1.053359868	-0.499815
C	-1.3463187882	-2.053478453	 0.3407904039	-0.303505
C	-2.5383600286	-2.2882825196	 1.3006090277	-0.088101
O	-3.1825035087	-1.0198654412	 1.455641485	-0.267923
C	-2.1429482172	-0.0515490332	 1.365427749	-0.144542
H	 1.0587478938	 1.9878745382	-0.3306162471	 0.100793
H	-0.5774845353	 1.897285536	-1.0085242616	 0.143857
H	-0.3458806794	 2.0886450523	 0.745103786	 0.121809
H	 0.507117059	-0.3523114105	-0.9096678362	 0.076066
H	 1.6634705629	 0.0954122766	 1.1071703245	 0.285487
H	-2.9670088819	-0.3887992954	-0.9004815435	 0.283386
H	-1.4776946436	-2.5416272327	-0.6270601275	 0.108024
H	-0.4059343802	-2.3884058406	 0.779890308	 0.125877
H	-3.2837399994	-2.9920218583	 0.9215560229	 0.107169
H	-2.18950343	-2.650439176	 2.2787131834	 0.098371
H	-1.5133108604	-0.0480969777	 2.2669284024	 0.104791
H	-2.6035782496	 0.9291833068	 1.230779157	 0.10829
73.0877	87.9214	195.486	224.4694	250.5637	255.2611	261.4556	335.5938	388.9573	406.7373	432.8798	486.7885	522.1508	625.4386	692.8173	801.0619	826.0502	894.0266	931.1563	952.2199	969.2799	986.9849	1002.0126	1075.805	1090.8984	1094.5487	1130.213	1164.2381	1174.1651	1221.6653	1238.6174	1270.2916	1274.2074	1304.8196	1326.8202	1373.0659	1386.3623	1400.0903	1407.9116	1442.1143	1485.5427	1494.6001	1503.2749	1505.988	1523.681	2973.0744	2996.0078	3006.6453	3034.0525	3079.2535	3091.1032	3098.8136	3112.6454	3137.7813	3139.5185	3788.7842	3831.1541
CC(O)C1(O)CCOC1	C[C@@H](O)[C@@]1(O)CCOC1	
InChI=1S/C6H12O3/c1-5(7)6(8)2-3-9-4-6/h5,7-8H,2-4H2,1H3	InChI=1S/C6H12O3/c1-5(7)6(8)2-3-9-4-6/h5,7-8H,2-4H2,1H3/t5-,6-/m1/s1
