19
gdb 7506	3.103	1.32082	1.06598	1.4471	82.21	-0.2172	0.0464	0.2636	1200.4781	0.162647	-327.879647	-327.869895	-327.868951	-327.914894	34.293	
C	 0.1238421946	 1.4986165555	 0.0670535737	-0.501272
C	 0.0788758647	 0.0434719853	 0.0674975434	 0.058612
C	 0.0421191206	-1.1615262736	 0.0825697593	 0.043574
C	 0.0391845272	-2.6050096508	 0.0351183597	 0.168796
C	 1.1420687112	-3.2195922337	-0.8094592517	-0.456221
C	-0.4837887406	-3.3457887509	 1.234826333	-0.276425
N	-1.2439777833	-3.3382839295	-0.0041604635	-0.116733
C	-2.4895787516	-2.5837682551	-0.014245637	-0.312116
H	 1.1498061483	 1.8609253344	-0.0620463781	 0.150078
H	-0.478748512	 1.9182160171	-0.7463256297	 0.148451
H	-0.2559233576	 1.9109229148	 1.0085289952	 0.147916
H	 2.1269398874	-2.9400994695	-0.4224232601	 0.120723
H	 1.0513664444	-4.3083720502	-0.8043155039	 0.124122
H	 1.0723389371	-2.8719268227	-1.8447849188	 0.124851
H	-0.0341872385	-4.2953537006	 1.5168736831	 0.111987
H	-0.8470124744	-2.742531873	 2.0652040374	 0.1096
H	-2.4580144007	-1.6629670645	 0.5863613282	 0.111004
H	-2.7373486713	-2.3109681195	-1.0447102837	 0.123297
H	-3.2866907055	-3.2277194832	 0.3706558833	 0.119756
26.8611	93.4658	116.6478	188.5845	204.3107	226.8619	262.0195	303.2611	336.8564	393.2178	446.5931	533.7211	573.7953	604.1767	736.767	840.7296	921.6408	976.2567	1051.0268	1053.1097	1056.9068	1063.5566	1101.6187	1117.7738	1159.0328	1163.2101	1207.4836	1308.6054	1354.756	1407.3993	1414.6441	1449.1977	1476.8817	1478.9931	1481.1735	1489.9539	1493.865	1495.7938	1510.197	2359.9176	2995.0612	3025.5828	3039.9049	3074.7408	3085.1096	3087.3934	3088.5625	3105.1737	3108.5119	3127.3658	3175.7162
CC#CC1(C)CN1C	CC#C[C@@]1(C)CN1C	
InChI=1S/C7H11N/c1-4-5-7(2)6-8(7)3/h6H2,1-3H3	InChI=1S/C7H11N/c1-4-5-7(2)6-8(7)3/h6H2,1-3H3/t7-,8?/m0/s1
