14
gdb 47710	2.43471	1.74839	1.09687	2.5812	59.76	-0.2695	-0.0352	0.2343	1027.0511	0.102187	-511.018763	-511.011237	-511.010293	-511.051516	27.132	
O	-0.0338563852	-0.0717593785	 0.1671812607	-0.328583
C	-0.0659644081	 1.1293643057	 0.0490732403	 0.422179
C	-1.3790505446	 1.9045799339	-0.0421628549	-0.207797
O	-1.2782519887	 2.996676513	-0.9379615698	-0.220211
C	-0.8193196098	 4.1653045621	-0.3436659346	-0.005642
O	 0.3072109131	 3.9555768512	 0.5030678427	-0.245293
C	 1.3728066443	 3.2193468833	 0.0684130237	 0.4646
O	 2.471818801	 3.6788927205	-0.054091899	-0.334553
N	 1.1133841926	 1.8619179828	-0.0857552157	-0.382189
H	-2.1213174539	 1.2116371055	-0.4406186985	 0.157587
H	-1.6971577828	 2.2213559169	 0.9609608516	 0.139248
H	-0.5668139254	 4.8499938087	-1.1593306411	 0.138188
H	-1.5642512281	 4.6139531423	 0.3261201218	 0.123099
H	 1.9449562957	 1.2957030426	-0.1976108271	 0.279366
72.0972	108.8426	161.8306	281.1565	335.7563	387.716	437.0598	544.9943	563.8582	646.5316	708.021	727.6185	789.9206	840.4648	911.5552	983.2683	1008.8726	1060.5862	1154.8433	1164.521	1243.106	1286.4736	1311.0774	1343.1029	1367.4633	1426.3423	1452.188	1471.3095	1524.0704	1816.8841	1859.0857	3018.5872	3023.8784	3092.6937	3132.9168	3596.2707
O=C1COCOC(=O)N1	O=C1COCOC(=O)N1	
InChI=1S/C4H5NO4/c6-3-1-8-2-9-4(7)5-3/h1-2H2,(H,5,6,7)	InChI=1S/C4H5NO4/c6-3-1-8-2-9-4(7)5-3/h1-2H2,(H,5,6,7)
