12
gdb 21344	5.86146	1.33688	1.2774	3.4624	59.36	-0.2844	-0.0194	0.265	918.6362	0.086482	-373.726742	-373.720166	-373.719221	-373.758815	22.538	
N	-0.0449475264	-1.1475907421	-0.2962954809	-0.283167
C	 0.0178993459	-0.0247685538	-0.0361649859	 0.28289
C	 0.0730784641	 1.4089011991	 0.2827457364	-0.292208
N	 1.3931075024	 1.9785490148	 0.1127850108	 0.054127
C	 1.9509830027	 2.5670367474	-0.9704869046	 0.026821
N	 3.194318244	 2.9124628887	-0.7107787642	-0.264809
C	 3.3573704335	 2.4944121667	 0.5767406547	 0.047836
N	 2.2988067091	 1.9211916853	 1.1221105873	-0.23991
H	-0.6321804318	 1.9454419316	-0.358597526	 0.178061
H	-0.2277897359	 1.5612761188	 1.3221503204	 0.193738
H	 1.4176629663	 2.7187403418	-1.8972892413	 0.156342
H	 4.2775661561	 2.6224981516	 1.1264377233	 0.140279
36.2321	96.2259	264.5799	332.2118	365.9324	490.9856	655.6123	693.6934	777.1947	855.5826	915.7999	933.0255	953.0394	970.8116	1031.2268	1165.7696	1196.2695	1232.9402	1309.8882	1349.8431	1375.8052	1400.2714	1447.276	1467.3601	1551.7073	2372.629	3073.171	3123.3632	3255.8556	3266.9966
N#CCN1C=NC=N1	N#CCn1cncn1	
InChI=1S/C4H4N4/c5-1-2-8-4-6-3-7-8/h3-4H,2H2	InChI=1S/C4H4N4/c5-1-2-8-4-6-3-7-8/h3-4H,2H2
