16
gdb 48557	3.99172	1.49687	1.36214	4.1594	72.56	-0.2377	-0.0376	0.2	949.4049	0.125327	-400.69865	-400.691995	-400.691051	-400.729826	26.325	
O	-0.277970073	 0.4107270334	-0.8045012722	-0.25854
C	 0.0126596851	 1.1560896156	 0.1000906758	 0.040982
C	 1.3127286935	 1.8436805593	 0.2150635925	 0.254326
C	 1.7527090491	 2.9451220962	 1.1892341776	-0.189927
C	 3.2688097412	 2.9715887501	 1.0304590181	-0.083433
C	 3.7691934377	 1.6679121848	 0.4424568116	-0.246487
C	 2.5772489972	 1.3606806655	-0.4360412948	-0.076118
N	 1.9381483376	 2.5801548082	-0.9656039026	-0.171264
C	 2.379507533	 3.6470006429	 0.0197013771	-0.014855
H	-0.6980911354	 1.363098742	 0.9318094914	 0.072566
H	 1.2027801046	 3.3334364307	 2.0345100037	 0.102714
H	 3.8601807742	 3.5741415681	 1.7077128069	 0.101446
H	 4.6864412132	 1.7969699186	-0.1415276385	 0.119134
H	 3.9352221773	 0.8876279196	 1.1918891097	 0.117109
H	 2.5235487765	 0.5005738511	-1.0929254011	 0.124906
H	 2.4016437281	 4.6826444139	-0.2884556351	 0.107439
100.4173	185.8989	198.53	396.935	432.274	572.3256	676.4243	706.4447	731.6876	761.6838	783.3665	828.903	845.7367	889.2286	900.7557	955.9763	961.3108	1009.3108	1018.9243	1029.7078	1043.7948	1049.9641	1075.4931	1105.4541	1160.6963	1188.6053	1219.8125	1265.6501	1272.1762	1299.9449	1370.7265	1386.6229	1434.2641	1486.4561	1803.4175	2874.6215	3051.5752	3096.7118	3199.8682	3205.1996	3211.1752	3224.1419
O=CC12C3C4CC1N2C34	O=C[C@@]12[C@H]3[C@H]4C[C@@H]1N2[C@@H]34	
InChI=1S/C7H7NO/c9-2-7-4-1-3-5(7)6(3)8(4)7/h2-6H,1H2	InChI=1S/C7H7NO/c9-2-7-4-1-3-5(7)6(3)8(4)7/h2-6H,1H2/t3-,4+,5+,6-,7+,8?/m1/s1
