18
gdb 61440	3.19804	0.96093	0.79012	14.8144	79.12	-0.1732	-0.0481	0.1251	1402.4412	0.146677	-472.41025	-472.400888	-472.399944	-472.445002	34.949	
N	 0.0990121573	 1.4112831763	-0.023826952	-0.54424
C	 0.1117573739	-0.0467947598	 0.0011465394	-0.061974
C	-1.3333605495	-0.60276442	 0.1255081105	-0.331407
C	-2.1233815595	-0.0241554931	 1.3854867529	 0.364795
O	-1.9672848874	 1.210626336	 1.5790631339	-0.470288
O	-2.8051740958	-0.8564136074	 1.9771137066	-0.424128
C	 0.6648903494	-0.5407511199	-1.3208387532	 0.473843
N	 0.7485254344	 0.3689296859	-2.2600561869	-0.469499
N	 0.9972918773	-1.8162576899	-1.4877611929	-0.513311
H	 1.2409042444	-2.2035273407	-2.3849431116	 0.283823
H	 0.8161693003	-2.4644670542	-0.7371795398	 0.300798
H	 0.9227554521	 1.7771186581	 0.4441255027	 0.227473
H	-0.7437445855	 1.6551904085	 0.5683152041	 0.293792
H	 0.7243480366	-0.4774789684	 0.8072396399	 0.100491
H	-1.8951958629	-0.3244174181	-0.7752283981	 0.105635
H	-1.3212521912	-1.6925308944	 0.1998905726	 0.091309
H	 0.4571469548	 1.290124709	-1.8748853356	 0.295037
H	 0.9806036112	 0.1923662121	-3.2235408223	 0.277853
49.675	83.98	123.0319	165.196	272.284	329.106	394.584	403.2029	429.167	467.2954	485.6007	526.3592	542.0724	599.4334	611.7361	719.2261	735.586	832.9801	875.3058	905.3287	945.1082	963.2937	1046.2231	1084.1938	1101.4771	1131.9041	1173.9815	1230.7571	1285.0013	1312.6975	1343.2986	1376.2365	1428.636	1460.066	1500.5012	1646.8362	1674.6041	1717.9553	1798.0566	2830.6121	2991.067	3032.6426	3105.1703	3156.3539	3530.1579	3591.7593	3667.1691	3706.6456
NC(CC([O-])=O)C(N)=[NH2+]	N[C@@H](CC(=O)[O])C(=[NH2])N	
InChI=1S/C4H9N3O2/c5-2(4(6)7)1-3(8)9/h2H,1,5H2,(H3,6,7)(H,8,9)	InChI=1S/C4H9N3O2/c5-2(4(6)7)1-3(8)9/h2H,1,5-7H2/t2-/m0/s1
