16
gdb 102908	2.84405	0.84126	0.73167	4.8786	70.49	-0.271	-0.0075	0.2635	1509.6159	0.123674	-434.063502	-434.053844	-434.0529	-434.099333	33.071	
O	 0.011345017	 1.0675500114	 0.4963119728	-0.411697
C	-0.2247782913	-0.2651163367	 0.0971142524	-0.082918
C	-1.7298830632	-0.4922708307	-0.2062949808	-0.135722
N	-2.6186074297	-0.1319765076	 0.896353811	-0.285431
C	-2.6762693563	-1.1339159575	 1.9574554273	-0.275344
C	-3.600695263	-0.7104451653	 3.012424862	 0.265809
N	-4.3102586029	-0.3766673341	 3.859829193	-0.287373
C	-2.0838046023	 0.3105684287	-1.3909440159	 0.279979
N	-2.2856740321	 0.9719909459	-2.3164449171	-0.310659
H	-0.0552174105	 1.6341988338	-0.2815638184	 0.306199
H	 0.3797862999	-0.5587321657	-0.7716986377	 0.121504
H	 0.067887276	-0.898326999	 0.9403286756	 0.125725
H	-1.8911521663	-1.5486048773	-0.4563856257	 0.132301
H	-2.3148277891	 0.76275946	 1.2712685211	 0.250943
H	-3.0491086482	-2.0741408863	 1.5325799973	 0.163329
H	-1.7088882879	-1.3631013597	 2.4363247434	 0.143356
45.3635	81.495	99.7318	112.7043	190.7633	230.0519	272.2739	360.8742	386.692	405.0693	446.1352	492.4982	607.7631	701.8608	769.6495	853.3891	911.2284	948.5232	995.3936	1037.1656	1092.1212	1120.6503	1138.7007	1214.2068	1240.1468	1290.1624	1332.5869	1386.0479	1402.4089	1413.6111	1489.2963	1497.5972	1510.7377	2359.8754	2372.7605	2962.9444	3017.4158	3043.5644	3051.5071	3089.9686	3516.466	3795.3098
OCC(NCC#N)C#N	OC[C@@H](NCC#N)C#N	
InChI=1S/C5H7N3O/c6-1-2-8-5(3-7)4-9/h5,8-9H,2,4H2	InChI=1S/C5H7N3O/c6-1-2-8-5(3-7)4-9/h5,8-9H,2,4H2/t5-/m0/s1
