22
gdb 111214	2.17329	1.42387	1.00654	1.8295	84.58	-0.2	0.0908	0.2908	1294.5593	0.192956	-404.254907	-404.245513	-404.244569	-404.289666	35.057	
C	 0.6600114874	-0.3526496686	-1.6976789976	-0.368283
C	 0.2915518349	-0.184480797	-0.223535504	-0.136387
N	-1.0295938713	-0.77795433	 0.0180763051	-0.109213
C	-1.6322407816	-0.8126576616	 1.4079039597	-0.084434
C	-2.6153625661	-1.8658120591	 0.8292021832	-0.214675
C	-1.1866662603	-2.2529689591	 0.3549735937	-0.088623
C	-0.7383946742	-2.0376794578	 1.8257016489	 0.18268
O	 0.6247545834	-1.9143450896	 2.0940239282	-0.244728
C	 0.8949649689	-1.5542610086	 3.4326974111	-0.247681
H	 1.6047380192	 0.1536275808	-1.9206624673	 0.105018
H	 0.7833146849	-1.4109509397	-1.9531733017	 0.111116
H	-0.1221040983	 0.0592972332	-2.3417906499	 0.117592
H	 1.0909080068	-0.5788493835	 0.4104135005	 0.111921
H	 0.1899898352	 0.8849619302	 0.0045452524	 0.088801
H	-1.8687083936	 0.0994820305	 1.9592850113	 0.076179
H	-3.1183450292	-2.5351988139	 1.5289960182	 0.093341
H	-3.2629210037	-1.4896908103	 0.0403306549	 0.112259
H	-0.8941952719	-3.0471475184	-0.3332969285	 0.082151
H	-1.2001685405	-2.7123694224	 2.5660489842	 0.062847
H	 1.9799357354	-1.5599399383	 3.5576905226	 0.130288
H	 0.5131890965	-0.5515575696	 3.6735756171	 0.111138
H	 0.4501103078	-2.2728456372	 4.138408788	 0.108693
48.3284	82.0733	150.5388	175.2606	209.0419	233.3357	289.8393	364.9921	392.0393	440.4226	541.9474	639.1451	727.6652	756.8505	797.7836	833.7428	884.9329	895.1465	924.1493	965.5387	1008.2371	1036.3089	1064.2255	1081.524	1097.7069	1128.3537	1138.015	1162.7049	1179.7481	1183.3443	1188.545	1200.4656	1219.7067	1233.1746	1244.8999	1292.0107	1304.6155	1376.8747	1404.5339	1427.5105	1480.8982	1486.9193	1488.3656	1493.21	1498.5494	1508.9852	1516.4303	2952.9875	2980.3953	3019.0972	3030.8049	3033.6009	3079.0271	3082.5059	3096.8114	3099.5879	3110.4498	3117.619	3121.0533	3175.2712
CCN1C2CC1C2OC	CCN1[C@H]2C[C@@H]1[C@H]2OC	
InChI=1S/C7H13NO/c1-3-8-5-4-6(8)7(5)9-2/h5-7H,3-4H2,1-2H3	InChI=1S/C7H13NO/c1-3-8-5-4-6(8)7(5)9-2/h5-7H,3-4H2,1-2H3/t5-,6+,7-
