19
gdb 62029	3.04699	0.98404	0.7859	8.6177	76.33	-0.223	0.0148	0.2378	1440.7219	0.157829	-456.353703	-456.343776	-456.342831	-456.389657	35.13	
C	 0.358536682	 1.5331246532	-0.3393141523	-0.366862
N	-0.2277323021	 0.3157952609	 0.2257439831	 0.017614
C	-0.4823986025	 0.3395662244	 1.678610474	-0.159537
C	-1.5059715831	-0.6815074634	 2.1961567137	-0.33591
C	-1.0038369286	-2.1172971643	 2.4339924916	 0.383721
O	-0.5928159479	-2.7739279005	 1.3592297676	-0.378463
O	-1.0102939218	-2.6032521875	 3.5403171338	-0.347286
C	-0.4606120196	-0.7891662429	-0.4779038662	-0.04883
N	-0.2104029681	-0.7335396825	-1.7909800749	-0.482946
H	 0.1187125893	 0.0775375368	-2.3010905751	 0.237631
H	-0.3722205173	-1.5596278242	-2.3396611141	 0.278035
H	 1.2778227122	 1.3040319523	-0.8911185195	 0.139456
H	-0.3409360596	 2.0403265488	-1.0157991152	 0.138142
H	 0.6162010406	 2.2244320528	 0.4633619701	 0.145938
H	 0.4696750334	 0.2310287793	 2.2162492726	 0.129507
H	-0.8636639347	 1.3394636444	 1.9136173799	 0.113917
H	-1.8579463068	-0.3289032401	 3.1677140599	 0.125743
H	-2.3618467086	-0.7035899244	 1.5121234137	 0.123977
H	-0.6364013369	-2.143097253	 0.5483898677	 0.286156
44.4675	53.5433	98.8391	155.9093	210.1961	237.9218	269.0182	346.4997	367.6866	386.7821	430.2876	494.3196	590.8854	615.1605	696.9014	739.3217	786.6375	837.7008	947.3442	1003.65	1056.1492	1083.1428	1089.8445	1126.3497	1138.5676	1190.4193	1273.6126	1287.1826	1316.0922	1338.4556	1358.845	1401.7926	1433.9564	1457.8706	1492.8785	1494.4671	1509.7894	1549.9398	1589.7756	1663.8514	1836.8935	2596.3732	3011.5493	3017.8521	3046.6569	3060.9817	3071.85	3118.3497	3141.9961	3514.902	3695.4315
CN(CCC([O-])=O)C=[NH2+]	CN(CCC(=O)O)[C]N	
InChI=1S/C5H10N2O2/c1-7(4-6)3-2-5(8)9/h4,6H,2-3H2,1H3,(H,8,9)	InChI=1S/C5H10N2O2/c1-7(4-6)3-2-5(8)9/h2-3,6H2,1H3,(H,8,9)
