20
gdb 52095	3.92253	0.92513	0.90193	3.5731	81.06	-0.2504	0.0326	0.283	1368.7658	0.172221	-403.126437	-403.117962	-403.117018	-403.161221	31.751	
O	 0.2957695519	 0.7151182861	 1.4221788875	-0.322607
C	 0.1876636763	 1.4583691809	 0.4700932752	 0.157954
N	 1.1562085664	 1.7056415985	-0.4522317264	-0.270873
C	 2.4913372405	 1.1300863943	-0.380248055	-0.307649
C	 3.5622646808	 2.1670991323	-0.1392838622	 0.348212
C	 3.713606784	 3.1117950464	 1.093007152	-0.238399
C	 4.9134781339	 3.4417126458	 0.1608100825	-0.038761
C	 5.0969354143	 1.9095749779	-0.033206809	-0.259425
C	 3.9144797859	 3.4034635603	-1.029612166	-0.259987
H	-0.7409509545	 2.0208235057	 0.2459153332	 0.071972
H	 0.9546421722	 2.3677513824	-1.1845328461	 0.247819
H	 2.4664828992	 0.4073981817	 0.4395330679	 0.150459
H	 2.7078446136	 0.580521315	-1.3061069245	 0.106813
H	 2.9531341237	 3.8884402447	 1.210742014	 0.089688
H	 3.9464032581	 2.6320112606	 2.0474380737	 0.096747
H	 5.696421397	 4.180015817	 0.3334749976	 0.074013
H	 5.4359440596	 1.3398876079	 0.8366157661	 0.094115
H	 5.6037440592	 1.5856349311	-0.9471060872	 0.08835
H	 4.3339755361	 3.1933724715	-2.0183255063	 0.087741
H	 3.1740820419	 4.2085133097	-1.0712012571	 0.083818
22.7798	60.5985	139.2289	232.98	261.6349	320.5073	413.1566	528.3259	540.6242	546.8474	665.2001	749.4696	786.6639	809.6411	882.4679	909.2554	944.089	961.1347	976.9057	988.7172	997.9084	1028.7229	1032.9476	1098.8264	1102.4365	1143.2261	1145.1956	1162.5164	1171.6218	1210.4028	1231.482	1233.6074	1239.0206	1298.3534	1316.872	1385.6763	1431.1734	1477.5942	1496.5756	1498.4661	1532.2865	1554.683	1806.7265	2930.7571	3015.9987	3035.8423	3043.9397	3052.5797	3099.9828	3107.2177	3109.4731	3112.5449	3116.3646	3635.0432
O=CNCC12CC(C1)C2	O=CNC[C@@]12C[C@@H](C1)C2	
InChI=1S/C7H11NO/c9-5-8-4-7-1-6(2-7)3-7/h5-6H,1-4H2,(H,8,9)	InChI=1S/C7H11NO/c9-5-8-4-7-1-6(2-7)3-7/h5-6H,1-4H2,(H,8,9)/t6-,7-
