17
gdb 73461	2.35531	1.89578	1.60241	2.8385	66.86	-0.2332	0.049	0.2821	916.8311	0.135968	-458.915088	-458.907474	-458.90653	-458.946564	30.471	
O	-0.206939283	 1.2661848851	-0.1254804143	-0.482943
C	-0.0079551493	-0.1117122655	-0.0493262898	 0.266223
C	 1.0210105012	-0.7815298259	-0.9616308372	-0.148925
O	 0.4447596486	-2.0531192189	-1.2870398523	-0.264437
C	-0.6093655803	-2.2851543659	-0.354345577	 0.017534
C	-0.0828938747	-2.3106012221	 1.1221558534	-0.250687
C	-0.4497001082	-0.8310823471	 1.23604352	-0.23156
C	-1.2609908403	-0.9186982003	-0.0639025657	 0.378327
O	-2.4922853688	-0.459921376	-0.4525703554	-0.471731
H	 0.3265248323	 1.702403717	 0.5465008087	 0.294854
H	 1.1538435856	-0.1966359449	-1.8786829785	 0.112767
H	 2.0040063559	-0.9193176169	-0.4898222365	 0.092791
H	-1.2106352876	-3.1217283766	-0.7043219701	 0.096808
H	-0.712886859	-2.9281148622	 1.7681133677	 0.109703
H	 0.9642179805	-2.6071516747	 1.2388383691	 0.099058
H	-0.6418192639	-0.2662758253	 2.1418647235	 0.08643
H	-2.3990689791	 0.4874660502	-0.6235567656	 0.295789
190.4222	223.4139	230.592	265.1852	315.5801	358.0772	376.4628	432.2903	524.2704	577.9678	667.7222	676.9506	746.2207	811.1506	842.6975	911.071	934.9878	965.9496	978.1797	1014.9184	1049.437	1064.5519	1091.9985	1128.6497	1154.9974	1187.7808	1208.7283	1225.9128	1254.7038	1272.1455	1298.6511	1343.2171	1366.6894	1402.941	1473.8961	1498.2504	1525.4854	2999.954	3046.5298	3061.1145	3102.3895	3146.0071	3171.9819	3750.8294	3812.0647
OC12COC3CC1C23O	O[C@@]12CO[C@H]3C[C@@H]1[C@@]23O	
InChI=1S/C6H8O3/c7-5-2-9-4-1-3(5)6(4,5)8/h3-4,7-8H,1-2H2	InChI=1S/C6H8O3/c7-5-2-9-4-1-3(5)6(4,5)8/h3-4,7-8H,1-2H2/t3-,4-,5-,6-/m0/s1
