19
gdb 37145	3.86718	1.82771	1.59706	0.2427	82.24	-0.2462	0.0917	0.3379	890.082	0.162395	-348.645418	-348.639551	-348.638607	-348.675108	26.583	
C	-0.0248443363	 1.5271544409	-0.1268219169	-0.298933
C	 1.3129007529	 0.8310634096	 0.0114666929	-0.040134
C	 0.0138361701	 0.0198425629	-0.0370195905	-0.190271
C	 0.2905545724	-0.7269349695	-1.3259444607	 0.350237
C	-0.0892440576	-1.7444052797	-2.4281471041	-0.356003
C	 1.3293908944	-1.22362188	-2.8326291553	-0.106022
C	 1.8029214353	-1.1578971362	-1.3534271506	-0.039471
C	 2.0718687392	 0.3737621365	-1.2623406541	-0.096808
C	 0.9949775868	 0.2198178289	-2.3555116857	-0.053195
H	-0.3861090086	 2.0617657484	 0.7467136316	 0.106067
H	-0.296285803	 1.9964150968	-1.0660043499	 0.110495
H	 1.8625996562	 0.9427106631	 0.9396279379	 0.08356
H	-0.3679575247	-0.4896290275	 0.839768209	 0.085839
H	-0.1642272415	-2.795894149	-2.1319139402	 0.093488
H	-0.918249651	-1.4714226623	-3.0891993396	 0.094435
H	 1.9141247796	-1.5072800541	-3.7077762405	 0.068756
H	 2.2296182117	-1.9677211232	-0.7576631618	 0.06425
H	 3.0506695111	 0.8200151595	-1.4495997909	 0.055535
H	 0.4904142632	 0.9870078546	-2.9449231305	 0.068175
278.7995	325.188	405.6367	453.9819	513.5032	654.0215	688.3426	755.1844	791.5571	802.8253	807.6624	856.906	860.7671	882.1893	893.4733	912.2306	936.5603	949.1524	993.6024	997.2706	1038.5763	1043.0605	1062.7824	1084.515	1092.5239	1108.8676	1118.9845	1133.8437	1147.1333	1179.349	1183.3557	1187.7069	1210.0234	1215.3843	1250.7198	1285.05	1306.9945	1329.2467	1362.4885	1481.3928	1506.8669	3035.6481	3083.9421	3088.942	3094.4058	3095.7343	3113.0519	3127.1602	3167.8915	3179.5755	3208.9261
C1C2C1C13CC4C1C2C34	C1[C@H]2[C@@H]1[C@]13C[C@@H]4[C@H]1[C@H]2[C@H]34	
InChI=1S/C9H10/c1-3-5(1)9-2-4-7(9)6(3)8(4)9/h3-8H,1-2H2	InChI=1S/C9H10/c1-3-5(1)9-2-4-7(9)6(3)8(4)9/h3-8H,1-2H2/t3-,4-,5+,6+,7+,8-,9-/m0/s1
