14
gdb 53933	1.81575	1.62063	1.28438	4.2607	70.58	-0.2493	-0.0069	0.2425	1066.317	0.095959	-436.624881	-436.614903	-436.613958	-436.65991	36.097	
N	-0.0065724441	 1.3036422349	-0.2519192271	-0.536778
C	 0.0518607777	 0.0156238364	 0.1687926391	 0.414029
O	 1.017670251	-0.5121560219	 0.6580846311	-0.332084
C	-1.3207925017	-0.7646882833	 0.0456444468	-0.096998
O	-0.9564045557	-2.1252871363	-0.0864123063	-0.405346
C	-2.0793515322	-0.5199879684	 1.2823840041	 0.343069
C	-2.6968990973	-0.3524805896	 2.2990711365	-0.486002
C	-2.1079233389	-0.3099691482	-1.1148428189	 0.308449
C	-2.746076736	 0.0395844092	-2.0721757652	-0.458714
H	 0.8417275609	 1.8449558872	-0.2186648126	 0.267909
H	-0.7805787267	 1.6360398562	-0.8016973616	 0.270183
H	-1.7619286743	-2.6470281601	 0.0056038124	 0.293424
H	-3.2366152986	-0.1990969978	 3.2012328947	 0.20941
H	-3.314108374	 0.3382348817	-2.9191788529	 0.20945
33.0104	121.6966	136.3326	163.4921	226.2807	269.1339	287.8468	306.4547	391.3673	413.9071	475.9483	512.3765	558.3578	564.471	611.883	639.7521	642.1817	671.8936	675.7764	696.4589	759.263	940.967	1082.268	1094.146	1128.8135	1318.0778	1353.534	1612.3552	1844.5912	2224.1863	2232.8506	3495.8657	3499.5913	3597.345	3730.1623	3808.3066
NC(=O)C(O)(C#C)C#C	NC(=O)C(O)(C#C)C#C	
InChI=1S/C6H5NO2/c1-3-6(9,4-2)5(7)8/h1-2,9H,(H2,7,8)	InChI=1S/C6H5NO2/c1-3-6(9,4-2)5(7)8/h1-2,9H,(H2,7,8)
