18
gdb 77883	2.07323	1.62122	1.25569	3.2002	74.8	-0.2165	0.0207	0.2372	1098.1853	0.146282	-435.203039	-435.193461	-435.192517	-435.23728	34.878	
C	-0.0203935561	 1.3889558092	 0.1548436303	-0.343667
N	-0.0049774684	 0.0295522725	-0.3356152526	-0.126265
C	-1.0674404167	-0.9685440441	-0.0403670948	-0.113185
C	-0.9678902275	-2.0523272106	-1.0918378627	-0.065437
N	-0.593388093	-1.8776540482	-2.4686663143	-0.523999
C	 0.0082219502	-2.0524429479	 0.0740806824	 0.278021
O	 0.1015302548	-3.0791365243	 0.9849704899	-0.441476
C	 1.0048756272	-0.9122503553	-0.0202885996	 0.306944
N	 2.2428906678	-0.8644137356	 0.2182544858	-0.561703
H	 0.8995180574	 1.893947477	-0.1547613635	 0.133382
H	-0.8608024413	 1.9320325769	-0.2872416101	 0.13223
H	-0.096533735	 1.4564951716	 1.2517129599	 0.119343
H	-1.9004260466	-0.7387927897	 0.6123441307	 0.112805
H	-1.7013435745	-2.8429856452	-0.9463618494	 0.1098
H	-1.4243867834	-1.6767350621	-3.0192635283	 0.228503
H	-0.0003007997	-1.0545867222	-2.5432260797	 0.239922
H	 0.6652994455	-3.763351557	 0.6057454972	 0.300055
H	 2.6053097094	 0.089287735	 0.1595525488	 0.214727
80.8733	123.753	151.0372	164.0538	202.5119	238.2371	267.1647	272.3286	318.771	432.5638	483.4375	589.4072	628.7013	708.7655	744.494	759.353	856.2454	881.8554	902.3424	916.976	961.5463	970.7286	997.9068	1122.6786	1141.418	1151.2671	1187.3663	1224.9079	1243.5149	1260.2931	1298.5052	1362.971	1388.9433	1454.3762	1490.3178	1492.8792	1507.1567	1661.3461	1790.1676	2978.1687	3073.0487	3110.4829	3143.808	3195.2795	3457.0446	3476.3939	3552.3063	3792.7071
CN1C2C(N)C2(O)C1=N	CN1[C@H]2[C@@H](N)[C@@]2(O)[C]1[NH]	
InChI=1S/C5H9N3O/c1-8-3-2(6)5(3,9)4(8)7/h2-3,7,9H,6H2,1H3	InChI=1S/C5H9N3O/c1-8-3-2(6)5(3,9)4(8)7/h2-3,7,9H,6H2,1H3/t2-,3+,5+/m1/s1
