20
gdb 111217	4.03973	0.94474	0.87672	2.074	76.54	-0.233	0.0675	0.3004	1381.8292	0.170782	-440.178178	-440.169102	-440.168157	-440.21279	33.496	
C	 0.8550054873	 0.2339081207	 0.6065295101	-0.212805
O	-0.4900343948	 0.4376227041	 1.0108749903	-0.282273
C	-1.5233997527	-0.33058325	 0.4999318283	 0.219509
C	-1.7339088392	-0.6471640275	-1.0184241771	-0.129717
N	-0.5975918532	-1.6515328729	-0.8910126717	-0.337244
C	-1.4822042601	-1.8836822287	 0.3264999506	-0.101901
C	-2.7381632878	-1.7610949001	-0.5931825674	 0.066354
C	-4.1524895608	-1.5140535498	-0.0959260976	-0.144208
O	-4.6397086292	-2.7653524222	 0.3743195346	-0.419159
H	 1.438861824	 0.9635991166	 1.1756209268	 0.108563
H	 1.2090780783	-0.7760129321	 0.8361328799	 0.117496
H	 0.9979552097	 0.4063160557	-0.4647255361	 0.117401
H	-2.4084682584	 0.0459713256	 1.0105970702	 0.078597
H	-1.8002238815	 0.0403219225	-1.8639057072	 0.078647
H	-0.7502948414	-2.4123559508	-1.5612306164	 0.202794
H	-1.2566968842	-2.6554937696	 1.0631019917	 0.085838
H	-2.7705647766	-2.5757629151	-1.3252301287	 0.078235
H	-4.1937464165	-0.7543522362	 0.6959530135	 0.095978
H	-4.7611336843	-1.1397406141	-0.9358159408	 0.089078
H	-5.5435170387	-2.640705946	 0.678384467	 0.288815
46.0232	64.1729	170.0218	215.6128	232.3191	265.0454	299.0725	355.6739	396.9966	434.3369	575.8086	652.9568	757.5704	817.2413	837.6829	878.6192	910.23	936.093	980.5698	1023.386	1051.9584	1066.6545	1091.8844	1116.3063	1137.2805	1159.016	1176.936	1183.063	1189.9458	1196.5343	1238.5596	1247.487	1260.5216	1268.3174	1295.652	1311.9406	1400.3203	1459.0659	1472.6023	1484.448	1487.6874	1496.553	1521.4806	2965.0059	3016.9782	3025.7703	3050.8965	3094.4047	3097.4141	3106.5703	3111.8669	3128.9445	3374.7403	3828.2508
COC1C2NC1C2CO	CO[C@H]1[C@H]2N[C@@H]1[C@H]2CO	
InChI=1S/C6H11NO2/c1-9-6-4-3(2-8)5(6)7-4/h3-8H,2H2,1H3	InChI=1S/C6H11NO2/c1-9-6-4-3(2-8)5(6)7-4/h3-8H,2H2,1H3/t3-,4-,5+,6-
