12
gdb 129112	5.0561	1.35585	1.0763	2.3222	62.67	-0.2506	-0.0621	0.1884	998.9012	0.0781	-468.769371	-468.762881	-468.761937	-468.800408	24.563	
N	-0.0438752074	 1.2247308689	 0.0074273162	-0.504393
C	-0.0262221025	-0.0255076465	 0.0007160876	 0.399004
C	-1.277188868	-0.9395531258	 0.002914338	-0.445928
C	-0.6063612645	-2.2686454203	-0.0080255718	 0.310481
C	 0.7295702681	-2.0925735207	-0.0147025652	 0.351545
O	 1.1578967991	-0.797206086	-0.0102145914	-0.248431
N	 1.3434341688	-3.2954166839	-0.0246204442	-0.207986
N	 0.4712147842	-4.2074107983	-0.0244956466	-0.028084
O	-0.8787054678	-3.553302166	-0.0133843937	-0.232347
H	 0.8963955433	 1.6208042209	 0.0041592885	 0.248116
H	-1.8876520406	-0.7468096442	 0.8901713284	 0.17901
H	-1.8976820325	-0.7373444881	-0.8752325358	 0.179014
105.7628	210.5465	338.6859	342.2163	414.4103	528.7908	540.2302	552.4768	648.7895	708.3605	734.0092	794.1748	846.3267	895.0316	963.986	978.6455	993.8242	1149.1574	1164.537	1240.7939	1261.6378	1367.9524	1428.4998	1451.6731	1498.2857	1644.6886	1813.9092	3064.5643	3101.8125	3498.2865
N=C1CC2=C(O1)N=NO2	[NH][C]1Cc2c(O1)nno2	
InChI=1S/C4H3N3O2/c5-3-1-2-4(8-3)6-7-9-2/h5H,1H2	InChI=1S/C4H3N3O2/c5-3-1-2-4(8-3)6-7-9-2/h5H,1H2
