19
gdb 83071	2.4846	1.46889	1.20934	3.4065	82.26	-0.2347	-0.0138	0.221	1112.861	0.15925	-385.906594	-385.898294	-385.89735	-385.939288	31.905	
C	-0.1557635172	 1.5019012103	 0.0912427231	-0.419195
C	 0.0753732066	 0.0093820237	 0.0662446932	-0.051962
C	 1.3811412112	-0.6478376991	-0.2282662031	-0.113759
C	 2.6841164251	 0.1471531989	-0.1054157742	-0.284682
C	 2.7508138275	 0.5321045647	 1.3580520333	-0.079398
C	 1.7355887347	 0.0263802006	 2.0609325973	-0.149283
C	 0.797634788	-0.7491744086	 1.2031421546	 0.216294
C	 0.16013246	-1.9801552363	 1.7030202689	 0.077844
O	 0.2507142264	-2.3955029145	 2.8340205418	-0.271767
H	 0.6704749203	 2.0369304184	 0.5628399911	 0.131711
H	-0.2710878028	 1.8829047368	-0.929626393	 0.121777
H	-1.0706653894	 1.7426097219	 0.6420521016	 0.12496
H	-0.7760664278	-0.5513622064	-0.3169632986	 0.093604
H	 1.3726544037	-1.523136576	-0.8685817741	 0.096138
H	 3.5465708054	-0.4641268143	-0.3992447071	 0.117374
H	 2.6931027034	 1.0259700779	-0.7640577653	 0.115957
H	 3.5377127943	 1.1625174632	 1.7565793896	 0.100967
H	 1.5730000724	 0.137342878	 3.1252079776	 0.115459
H	-0.4480926019	-2.5204138991	 0.9384857932	 0.057962
97.1448	184.2015	191.4966	216.657	228.9589	269.8408	363.8036	435.7716	512.4753	556.4308	671.8223	687.7257	750.7588	776.2403	820.5396	864.1964	923.0663	946.8444	965.0871	992.3045	1015.6373	1034.6145	1060.2553	1065.4238	1112.1222	1126.5016	1145.8803	1188.882	1245.357	1278.27	1314.101	1352.9597	1385.3073	1414.4682	1432.7493	1441.3854	1477.7391	1498.3026	1501.5452	1670.5108	1804.6892	2843.509	3019.5356	3037.5761	3046.4321	3095.2808	3113.1155	3135.9508	3168.533	3193.8304	3226.7832
CC1C2CC=CC12C=O	C[C@H]1[C@H]2CC=C[C@@]12C=O	
InChI=1S/C8H10O/c1-6-7-3-2-4-8(6,7)5-9/h2,4-7H,3H2,1H3	InChI=1S/C8H10O/c1-6-7-3-2-4-8(6,7)5-9/h2,4-7H,3H2,1H3/t6-,7+,8+/m0/s1
