19
gdb 26296	3.46009	1.01042	0.94313	3.8532	79.49	-0.1881	0.036	0.2241	1338.7591	0.158861	-419.242463	-419.233078	-419.232134	-419.276897	34.637	
C	-0.0124493184	 1.5560990674	 0.0123840039	-0.384739
C	-0.0104074929	 0.0155184721	 0.0450575384	-0.101914
C	 0.7608064353	-0.5162003445	 1.2685568451	-0.38477
C	-1.3987910961	-0.5397496773	-0.0163955071	 0.337937
C	-1.9972102543	-1.3155665748	-0.9290539647	-0.166249
O	-3.3083663386	-1.5786247388	-0.5557431778	-0.215944
C	-3.5460025612	-0.9404147574	 0.6447724563	 0.466274
N	-4.6188938126	-0.9318189238	 1.3200617929	-0.611611
N	-2.3658726463	-0.3047303078	 0.9674920265	-0.393643
H	 1.0123403905	 1.9397626406	 0.0062657142	 0.119531
H	-0.5271698742	 1.9307387328	-0.8765265209	 0.127509
H	-0.5158720783	 1.9732970063	 0.8915699326	 0.114209
H	 0.4987321533	-0.3418721055	-0.8578945389	 0.093947
H	 0.2934616896	-0.1942466356	 2.2057856325	 0.114191
H	 0.7932483997	-1.6090871192	 1.2695137036	 0.127516
H	 1.7882139722	-0.1395630318	 1.2661418255	 0.119546
H	-1.6597072024	-1.7493571913	-1.8533182061	 0.143999
H	-5.3377103188	-1.4806334111	 0.856578518	 0.222648
H	-2.2657477363	 0.2392268398	 1.8046282458	 0.271561
56.9487	99.8661	159.8242	166.6628	213.182	244.9861	314.4754	334.3122	420.308	436.1336	500.8677	616.0646	652.192	701.986	710.1436	745.93	753.2398	879.3784	924.8476	929.2841	962.9691	1006.3433	1054.2403	1075.4396	1099.199	1119.408	1177.4824	1226.5256	1263.5748	1330.7991	1334.1111	1376.7499	1399.2112	1421.1889	1435.5906	1485.1125	1490.0033	1501.5585	1508.7165	1709.4887	1789.9743	3033.6301	3035.1789	3040.4491	3099.019	3105.7477	3117.3846	3119.2648	3299.3009	3543.2975	3710.5113
CC(C)C1=COC(=N)N1	CC(C)C1=CO[C@H]([NH])N1	
InChI=1S/C6H10N2O/c1-4(2)5-3-9-6(7)8-5/h3-4H,1-2H3,(H2,7,8)	InChI=1S/C6H11N2O/c1-4(2)5-3-9-6(7)8-5/h3-4,6-8H,1-2H3/t6-/m1/s1
