19
gdb 109903	2.73651	1.44746	1.21759	2.8599	70.14	-0.2413	0.0513	0.2926	1077.7126	0.160202	-460.113928	-460.105751	-460.104807	-460.146767	31.601	
O	 0.3717313307	 0.9800725194	-0.6772451113	-0.421644
C	 0.1370791359	-0.2755187536	-0.0215651246	-0.101211
C	-1.3500745383	-0.587310092	 0.0619952897	-0.087194
C	-2.1427597283	-0.5443042591	-1.2976047854	 0.104174
O	-1.394197844	-0.3228349458	-2.4654521819	-0.434888
C	-2.5870051607	-2.0197892835	-1.0921408061	-0.104368
C	-1.5744988203	-3.0588426506	-1.5922056925	-0.080533
O	-0.8234182975	-2.998077824	-0.3481847021	-0.293574
C	-1.7662649868	-2.0754295853	 0.2285347785	 0.092889
H	-0.0170218905	 1.6758517536	-0.1367253136	 0.287547
H	 0.6418447872	-1.0257064753	-0.6310588709	 0.1416
H	 0.6022047908	-0.2883265987	 0.9735873121	 0.10126
H	-1.8324975521	 0.0462796868	 0.8162571173	 0.061595
H	-2.9994842733	 0.1428074643	-1.2428044337	 0.063673
H	-0.7594453507	 0.3778266961	-2.2536379561	 0.29455
H	-3.6476237389	-2.2475562508	-1.1804215044	 0.076436
H	-1.9893065197	-4.0618308077	-1.7465748279	 0.099243
H	-0.9759022802	-2.7614211519	-2.4571960719	 0.126502
H	-2.1342261734	-2.4094230819	 1.2024387448	 0.073942
79.3647	130.2547	189.7771	249.2984	270.2286	329.0728	372.1191	473.0613	519.1805	603.1395	619.0883	679.9327	767.3979	818.4001	847.7863	888.9724	919.7517	981.0045	998.2952	1013.9268	1023.4048	1041.0728	1077.404	1096.9955	1147.0812	1163.9379	1177.7512	1189.4187	1217.1148	1236.4494	1272.359	1299.2804	1317.7291	1345.0998	1352.6152	1367.856	1376.5003	1406.4917	1425.7256	1510.516	1516.3531	2982.0137	3012.3358	3028.9118	3031.9694	3069.2939	3099.8432	3127.5427	3133.1022	3713.077	3811.1268
OCC1C(O)C2COC12	OC[C@H]1[C@@H](O)[C@H]2CO[C@@H]12	
InChI=1S/C6H10O3/c7-1-3-5(8)4-2-9-6(3)4/h3-8H,1-2H2	InChI=1S/C6H10O3/c7-1-3-5(8)4-2-9-6(3)4/h3-8H,1-2H2/t3-,4+,5+,6-/m0/s1
