20
gdb 105992	2.65508	1.56194	1.18386	2.2251	82.12	-0.203	0.0699	0.2729	1128.9608	0.169612	-365.900046	-365.891488	-365.890544	-365.933203	32.766	
C	 0.0753287128	 1.468548417	-0.2442827376	-0.372093
C	-0.0463505045	-0.0118138889	 0.1462821599	-0.332066
C	-1.4549124822	-0.5126272348	 0.1318302939	 0.310503
C	-2.7348549422	-0.1072190441	 0.918661484	-0.123205
C	-3.2656354734	-1.4908880656	 0.8209296266	-0.116295
N	-3.627148924	-0.4798595381	-0.2351854199	-0.177419
C	-2.3774440205	-0.9070658713	-1.0028865665	-0.125493
C	-2.008463232	-1.9489609168	 0.0296229512	 0.259084
C	-1.2949779745	-3.2550618491	-0.08032621	-0.528544
H	 1.1183905934	 1.7981089269	-0.2152508202	 0.111644
H	-0.3093708191	 1.6400348094	-1.2544253257	 0.122201
H	-0.495510549	 2.1046629081	 0.4400806147	 0.120525
H	 0.5524334745	-0.6236449284	-0.5410763481	 0.101724
H	 0.3887499653	-0.1652093117	 1.143521978	 0.102192
H	-2.9723042461	 0.7090025633	 1.5920371485	 0.090622
H	-4.0167443549	-2.0190197764	 1.3980535432	 0.090949
H	-2.2733648746	-0.8750217861	-2.0815126982	 0.0918
H	-0.4385400005	-3.1743707694	-0.758504074	 0.124172
H	-0.9164579729	-3.5921131799	 0.891968149	 0.123036
H	-1.9532846956	-4.0388890041	-0.4733836887	 0.126666
80.7064	121.4505	182.0467	204.4868	229.4711	258.7786	313.4997	417.7624	575.1867	635.032	680.3763	752.2747	773.469	780.6542	786.4518	860.4524	876.785	898.869	934.6196	967.7321	973.4836	982.8869	997.962	1004.2382	1090.1757	1101.2819	1123.0851	1152.412	1190.5346	1191.7895	1229.55	1304.6491	1320.358	1343.5425	1371.897	1408.1094	1413.6894	1460.6146	1475.4982	1480.8586	1497.0841	1499.421	1507.2821	3007.9137	3018.8579	3036.2953	3042.2462	3076.1086	3091.5273	3105.4196	3110.1817	3162.0555	3173.6225	3176.2528
CCC12C3C4N3C1C24C	CC[C@@]12[C@@H]3[C@H]4N3[C@@H]1[C@@]24C	
InChI=1S/C8H11N/c1-3-8-5-4-7(8,2)6(8)9(4)5/h4-6H,3H2,1-2H3	InChI=1S/C8H11N/c1-3-8-5-4-7(8,2)6(8)9(4)5/h4-6H,3H2,1-2H3/t4-,5+,6-,7+,8-,9?/m1/s1
