18
gdb 124628	4.37005	0.92415	0.8515	5.4043	77.44	-0.2184	-0.0098	0.2086	1390.6774	0.145991	-435.25323	-435.243935	-435.242991	-435.287845	33.703	
C	 0.0092335829	 1.5366110777	 0.0199734585	-0.405016
C	 0.0202042961	 0.0080471866	 0.0005721838	 0.054252
C	 0.7201303476	-0.5855466046	 1.2307073412	-0.386469
N	-1.3625394387	-0.4672966811	-0.134091762	-0.393753
C	-1.6759917879	-1.72244517	-0.5320694617	 0.51783
C	-2.8832357212	-2.4056017695	-0.5155724612	-0.2505
N	-2.6445561178	-3.6157824667	-1.083997129	-0.072111
N	-1.4693097963	-3.7820001864	-1.4441977454	-0.050853
O	-0.744585088	-2.4770903372	-1.0741616366	-0.256703
H	 1.0301285911	 1.923044465	 0.0761046066	 0.130377
H	-0.4662297297	 1.9384818687	-0.878697266	 0.130462
H	-0.5335907049	 1.9137795596	 0.8957010481	 0.11523
H	 0.5448766173	-0.3324333193	-0.8974521302	 0.12083
H	 0.7174029141	-1.6774534959	 1.1871610202	 0.142505
H	 1.7605303478	-0.248834778	 1.2782426325	 0.121795
H	 0.2194498028	-0.272110478	 2.1537543529	 0.111445
H	-2.055272385	-0.004400191	 0.4343473222	 0.250839
H	-3.8515548702	-2.1085097299	-0.153891224	 0.119839
55.0929	67.715	129.8452	228.6139	257.3323	272.2112	301.0129	320.7889	413.3534	429.0276	462.9686	517.1124	658.0215	708.165	745.5676	775.0455	849.6384	931.6024	949.1414	951.3323	972.3939	1063.0116	1144.4623	1150.4778	1178.5443	1190.505	1316.5446	1330.7462	1362.7725	1400.4327	1402.815	1422.2913	1485.5371	1486.5842	1491.5305	1502.1622	1509.2621	1514.8271	1629.5057	3029.8482	3035.4808	3066.4398	3099.9252	3109.4285	3125.5074	3127.8221	3291.0036	3619.3734
CC(C)NC1=CN=NO1	CC(C)Nc1cnno1	
InChI=1S/C5H9N3O/c1-4(2)7-5-3-6-8-9-5/h3-4,7H,1-2H3	InChI=1S/C5H9N3O/c1-4(2)7-5-3-6-8-9-5/h3-4,7H,1-2H3
