22
gdb 120982	4.9436	0.79961	0.75377	2.0398	83.62	-0.2114	0.0759	0.2873	1597.7149	0.194052	-404.296585	-404.287525	-404.28658	-404.330953	33.767	
C	-0.0375241027	 1.5980403342	-0.0479589445	-0.380372
C	 0.083872545	 0.072949229	-0.0048749867	-0.172652
C	 0.6261610587	-0.4400634271	 1.330804572	-0.129204
N	 0.7436497057	-1.8845755279	 1.3440584345	-0.080762
C	-0.5033325325	-2.686203974	 1.4595368453	-0.193893
C	 0.1550782678	-3.5454528333	 2.5546641442	 0.103968
O	 1.0158168994	-4.5904135045	 2.0640154396	-0.297752
C	 2.1927323548	-3.7467017634	 2.1758133488	-0.073473
C	 1.3246794413	-2.5324530061	 2.5419790756	-0.045795
H	 0.9360089173	 2.0784830005	 0.1009726836	 0.114407
H	-0.4304685214	 1.9370946082	-1.0110506755	 0.114885
H	-0.710539778	 1.9675750243	 0.7338111145	 0.11443
H	-0.8988832715	-0.3791815835	-0.1909911254	 0.099621
H	 0.742262647	-0.2826083126	-0.8055687396	 0.106587
H	 1.6256890865	-0.0201557696	 1.5036743788	 0.096965
H	-0.0203488346	-0.0660811158	 2.1527684584	 0.06685
H	-1.3523067102	-2.105359328	 1.8558646076	 0.087058
H	-0.8111069472	-3.2046203766	 0.5461565012	 0.111519
H	-0.4421160503	-3.8581175713	 3.4136039545	 0.08161
H	 2.8558765854	-4.1025718745	 2.9755619155	 0.094506
H	 2.7430784916	-3.6655219827	 1.2330298403	 0.107919
H	 1.6190244679	-1.8749376553	 3.363033377	 0.07358
68.9452	96.782	104.7824	168.9229	239.7085	278.7648	303.7754	351.671	400.2769	460.1373	691.0861	758.0388	773.6465	822.2653	838.9843	893.964	903.5194	941.0444	960.3691	989.9778	1006.9558	1033.9233	1050.9913	1068.0979	1074.3584	1133.4178	1151.586	1163.532	1192.3761	1195.1566	1215.062	1227.9009	1278.4143	1290.3668	1311.0381	1326.6822	1332.0296	1350.3195	1360.3845	1411.511	1419.8894	1482.9296	1491.2482	1500.854	1501.4422	1504.6124	1515.0675	2877.7658	2969.4754	3009.2028	3023.4751	3030.1366	3035.6566	3066.2277	3074.3219	3078.3937	3082.6464	3092.4678	3097.267	3105.2894
CCCN1CC2OCC12	CCCN1C[C@H]2OC[C@@H]12	
InChI=1S/C7H13NO/c1-2-3-8-4-7-6(8)5-9-7/h6-7H,2-5H2,1H3	InChI=1S/C7H13NO/c1-2-3-8-4-7-6(8)5-9-7/h6-7H,2-5H2,1H3/t6-,7-/m1/s1
