21
gdb 117194	3.5395	0.86137	0.74462	2.2192	80.41	-0.2364	-0.011	0.2254	1597.9614	0.179469	-424.238702	-424.228409	-424.227465	-424.274707	37.547	
C	-0.0146346059	 1.5594889575	-0.0413977733	-0.386964
C	-0.0111627665	 0.0291140379	-0.0319829946	-0.161945
C	 0.7138497567	-0.5648078894	-1.2386762478	-0.289467
C	 0.7117055645	-2.0841797726	-1.260632872	 0.307905
O	 0.1313737415	-2.7477301437	-0.4252695672	-0.333025
C	 1.4770155182	-2.7508959156	-2.3715054745	 0.282363
O	 2.12785039	-1.918072815	-3.2905254216	-0.456477
C	 2.2196996761	-4.0194921953	-2.0086217355	-0.268772
C	 0.9772453351	-4.1071509424	-2.8406623713	-0.302924
H	 1.0046804962	 1.9618684512	-0.0325832688	 0.113516
H	-0.5150367867	 1.9527617731	-0.9338124847	 0.110318
H	-0.5365395597	 1.958606545	 0.8337250671	 0.114469
H	 0.4610763483	-0.3415810184	 0.8843175361	 0.110959
H	-1.0372579175	-0.3527341649	-0.0078547956	 0.111226
H	 0.2626965061	-0.211363976	-2.1783724873	 0.105356
H	 1.7563090734	-0.2253984275	-1.2969580396	 0.13394
H	 1.4853074109	-1.6290660977	-3.9473156202	 0.286077
H	 3.1745909776	-4.1507488566	-2.503390481	 0.128528
H	 2.1619850521	-4.3339476557	-0.9736476791	 0.138885
H	 0.0741927258	-4.4770386518	-2.3697289828	 0.139177
H	 1.0901219036	-4.311917142	-3.8994529862	 0.116856
44.6369	65.687	102.7021	127.8606	247.4174	255.872	266.7171	291.5048	315.2815	360.0203	408.3479	453.4851	565.9483	586.1554	745.5913	765.7473	785.7348	847.9381	864.4897	899.1561	915.5472	948.3845	999.1234	1041.1191	1053.3715	1075.4569	1087.3453	1108.3617	1137.1533	1205.4588	1243.9198	1263.9493	1281.7748	1317.694	1343.0678	1349.7982	1396.9374	1414.2365	1436.2087	1440.0204	1471.3813	1486.4476	1500.421	1507.8548	1781.0636	3004.146	3026.8696	3045.7225	3048.827	3074.0716	3098.6101	3102.2291	3138.7287	3147.0637	3234.4307	3250.0421	3800.7733	44.6369	65.6878	102.7024	127.8606	247.4173	255.872	266.7171	291.5048	315.2814	360.0202	408.3479	453.485	565.9483	586.1555	745.5914	765.7473	785.7348	847.9381	864.4897	899.1561	915.5472	948.3845	999.1234	1041.119	1053.3714	1075.4569	1087.3454	1108.3616	1137.1532	1205.459	1243.9195	1263.9494	1281.7746	1317.6937	1343.0677	1349.7981	1396.9372	1414.2365	1436.2088	1440.02	1471.3814	1486.4474	1500.4211	1507.8547	1781.0636	3004.146	3026.8696	3045.7226	3048.827	3074.0717	3098.6101	3102.2291	3138.7287	3147.0637	3234.4307	3250.0421	3800.7733
CCCC(=O)C1(O)CC1	CCCC(=O)C1(O)CC1	
InChI=1S/C7H12O2/c1-2-3-6(8)7(9)4-5-7/h9H,2-5H2,1H3	InChI=1S/C7H12O2/c1-2-3-6(8)7(9)4-5-7/h9H,2-5H2,1H3
