22
gdb 112755	2.59008	1.29545	0.97397	1.5888	84.31	-0.197	0.0869	0.2839	1309.231	0.192344	-404.2918	-404.282096	-404.281152	-404.326335	36.105	
C	-0.0635172991	 1.3785522109	-0.182732076	-0.234619
O	-0.1079815745	 0.0898046304	 0.3859029201	-0.241511
C	-1.322680966	-0.575958128	 0.154974163	 0.03625
C	-1.4811649039	-1.2767743253	-1.2273592848	-0.205397
N	-1.2067896607	-2.5799914191	-0.5864266683	-0.111667
C	-2.0266343966	-3.7100807796	-0.9563963038	-0.328987
C	-1.3291946514	-1.981798258	 0.7456430304	 0.360784
C	-0.66629436	-2.4441789247	 1.9988010996	-0.308207
C	-2.1814615734	-2.4588130337	 1.8905619141	-0.346255
H	 0.9012446188	 1.8171843476	 0.0829068997	 0.128454
H	-0.1480294701	 1.3523152851	-1.2796837515	 0.106907
H	-0.8680000786	 2.0227108545	 0.2073460163	 0.102225
H	-2.1681596383	 0.0648799057	 0.4437555528	 0.066601
H	-2.5008465805	-1.1869400071	-1.6323965533	 0.084716
H	-0.7582445128	-0.9952934128	-2.0006865012	 0.102338
H	-1.8317642421	-3.9725780266	-2.0016613694	 0.120093
H	-1.7657065903	-4.5817504511	-0.3463977908	 0.119224
H	-3.1123166711	-3.526923362	-0.8462606833	 0.09038
H	-0.1511381977	-3.3989294908	 1.9678278965	 0.113442
H	-0.1918405225	-1.6925020531	 2.6197488144	 0.122578
H	-2.7539349724	-1.7256345304	 2.4510357688	 0.110421
H	-2.6668591968	-3.424933882	 1.7992960866	 0.112232
67.4008	106.7916	152.6373	194.2581	211.9171	229.6607	248.6981	297.2363	348.0022	373.4703	463.8722	552.5174	579.8974	709.5274	774.3306	836.6826	876.6436	917.5713	958.4029	966.4143	992.3879	1006.5455	1048.5007	1065.3138	1073.7972	1129.125	1160.488	1171.5698	1182.2817	1186.9499	1195.852	1219.6096	1233.8476	1250.38	1268.7766	1335.5395	1367.1928	1403.4676	1450.7442	1456.2257	1480.5099	1485.7557	1488.0235	1490.7107	1499.9722	1509.2537	1512.9847	2925.6079	2970.5996	2979.2781	2999.0198	3018.9881	3054.2625	3060.4095	3094.086	3115.22	3121.9437	3131.449	3203.8	3222.7378
COC1CN(C)C11CC1	CO[C@H]1CN(C)C21CC2	
InChI=1S/C7H13NO/c1-8-5-6(9-2)7(8)3-4-7/h6H,3-5H2,1-2H3	InChI=1S/C7H13NO/c1-8-5-6(9-2)7(8)3-4-7/h6H,3-5H2,1-2H3/t6-/m0/s1
