13
gdb 12909	3.45051	1.85706	1.53453	4.0281	58.7	-0.2609	0.0221	0.283	820.6798	0.094898	-398.554011	-398.547017	-398.546073	-398.585173	25.882	
O	-0.0428364744	 1.436038585	-0.0191520038	-0.441402
C	-0.0113861265	 0.0665721539	-0.0401512365	 0.302763
C	 0.5937389114	-0.8090883022	-1.1416051272	-0.157684
O	-0.5111201948	-1.7537422747	-1.0086648318	-0.267632
C	-1.1343264996	-0.9231753142	-0.0474525811	 0.048332
C	-0.2707943765	-0.7881022052	 1.2075563485	-0.299127
C	 0.6222689986	-1.8182063135	 1.6548000812	 0.308418
N	 1.3635513203	-2.6365415819	 2.0004748389	-0.341428
H	 0.7357438087	 1.7611819304	 0.4483715421	 0.301548
H	 0.5627635208	-0.3191938078	-2.1192402249	 0.13176
H	 1.5662830912	-1.2764692832	-0.9632479251	 0.1364
H	-2.2147830106	-0.8487385919	-0.0314979002	 0.135149
H	-0.7581587486	-0.2161913947	 1.9922866399	 0.142901
131.8309	142.4265	264.6456	308.262	361.9094	385.8784	406.1838	558.0138	621.7927	654.2324	776.9466	830.0381	907.2172	912.1087	983.2023	1027.9139	1043.8009	1065.9821	1072.5005	1147.1119	1197.2512	1263.4153	1277.4951	1315.3977	1340.0805	1483.9749	1508.1231	2350.8509	3052.2123	3115.8249	3163.3673	3199.236	3786.3
OC12COC1C2C#N	O[C@]12CO[C@H]1[C@H]2C#N	
InChI=1S/C5H5NO2/c6-1-3-4-5(3,7)2-8-4/h3-4,7H,2H2	InChI=1S/C5H5NO2/c6-1-3-4-5(3,7)2-8-4/h3-4,7H,2H2/t3-,4+,5+/m1/s1
