19
gdb 32681	3.46789	1.23802	0.97064	4.0915	82.4	-0.2145	0.0402	0.2547	1235.9729	0.161707	-382.078524	-382.070445	-382.069501	-382.111675	30.189	
C	-0.1095359412	 1.6059119653	-0.0777968873	-0.381651
C	 0.2029064397	 0.1177821252	 0.099468013	-0.183274
C	 0.7577554378	-0.5178036883	-1.1737769578	-0.156968
C	 0.8688041918	-2.0940494695	-1.1883960717	-0.205399
N	-0.088785329	-2.0697251475	-2.3163234324	-0.006161
C	-0.8602826539	-2.5942604849	-3.3059564226	-0.031896
N	-1.4643647284	-1.6133849517	-3.9551362173	-0.263738
C	-1.0686677266	-0.4226936681	-3.37601802	-0.235774
C	-0.2056047744	-0.7102194539	-2.3472659641	 0.308344
H	 0.7870467931	 2.1698443225	-0.3577044837	 0.116606
H	-0.8586294168	 1.7556905063	-0.8621396438	 0.130938
H	-0.5015126175	 2.0391253204	 0.8469479326	 0.117669
H	 0.9310319485	-0.0166766537	 0.9098565018	 0.097931
H	-0.7064108865	-0.4177309118	 0.3991321127	 0.103949
H	 1.6998404704	-0.0348785461	-1.4557220332	 0.094169
H	 1.8464818366	-2.5028063348	-1.4544601687	 0.130167
H	 0.4812847159	-2.5960112259	-0.2979595287	 0.128646
H	-0.9573173436	-3.6478112099	-3.5151400035	 0.130366
H	-1.4301914959	 0.5240814462	-3.7443899353	 0.106078
83.3253	105.9135	128.0267	200.2617	251.3128	358.3459	409.3371	502.8439	659.6218	666.9221	708.4322	767.265	783.0614	813.1856	827.1591	860.7846	933.5674	966.8967	991.1162	1048.9148	1089.1319	1102.3087	1124.8899	1139.2357	1182.0457	1213.2286	1230.0214	1244.7858	1286.2719	1290.0183	1338.4447	1374.0474	1376.8495	1411.8169	1419.4546	1459.3341	1485.4334	1499.2954	1507.1312	1511.2034	1557.1002	3020.1821	3034.3212	3042.3276	3060.3105	3062.4899	3103.2178	3110.8006	3118.5697	3257.4516	3263.082
CCC1CN2C=NC=C12	CC[C@H]1Cn2cncc12	
InChI=1S/C7H10N2/c1-2-6-4-9-5-8-3-7(6)9/h3,5-6H,2,4H2,1H3	InChI=1S/C7H10N2/c1-2-6-4-9-5-8-3-7(6)9/h3,5-6H,2,4H2,1H3/t6-/m0/s1
