20
gdb 71763	3.18421	1.7932	1.58416	1.6909	80.37	-0.2198	0.0924	0.3122	937.3802	0.174471	-366.007975	-366.001213	-366.000269	-366.038562	28.878	
C	-0.0755395009	 1.476910869	 0.027780634	-0.489871
C	-0.0148323021	-0.0301211177	-0.0318815058	 0.329662
C	 0.2730635234	-0.703173103	-1.3718572293	-0.298068
C	 0.7423076524	-2.1046881955	-1.0167586528	-0.04182
C	 1.1023442615	-2.1556733121	 0.4331869584	-0.058623
C	 0.6360971344	-0.8618192625	 1.0658517611	-0.110798
C	-0.8742399605	-0.8488795431	 0.9033611677	-0.114815
C	-1.290452981	-2.2204022603	 0.3952013919	-0.182199
N	-0.0712348698	-2.8981660972	-0.0790037667	-0.120835
H	 0.8558376406	 1.9281930418	-0.3338589375	 0.115427
H	-0.8944173277	 1.8669656704	-0.5884510418	 0.117343
H	-0.239953543	 1.8255679623	 1.0525161797	 0.114967
H	-0.6031176558	-0.7098856958	-2.0334648046	 0.101923
H	 1.0720574947	-0.171444949	-1.9036905038	 0.099426
H	 1.2517258059	-2.6925702763	-1.7758069514	 0.08497
H	 1.9253118456	-2.7262197148	 0.8480952068	 0.084984
H	 1.1457533041	-0.4244993036	 1.9145385876	 0.079986
H	-1.5063736558	-0.3250889422	 1.6140837433	 0.078662
H	-1.724982366	-2.8204852256	 1.2025887122	 0.105537
H	-2.02625014	-2.1767839447	-0.4165951791	 0.104143
206.1482	230.5994	287.8994	310.6615	437.9894	444.7955	553.8706	683.8462	709.5165	726.6947	743.1568	758.028	790.3587	869.2248	878.7215	922.4935	932.4539	956.3359	992.18	1001.9113	1019.2185	1030.5006	1048.1024	1068.6085	1090.5068	1098.4214	1127.3775	1186.553	1212.9648	1227.4732	1256.5573	1268.5102	1294.7825	1300.9114	1316.0749	1350.1171	1378.2766	1417.474	1435.5563	1485.7947	1490.121	1500.5667	1509.7574	3017.6138	3021.6475	3032.5945	3052.4063	3067.6198	3079.1338	3095.9177	3137.9164	3153.85	3174.8115	3199.484
CC12CC3C4C1C2CN34	C[C@@]12C[C@H]3[C@H]4[C@@H]1[C@@H]2CN34	
InChI=1S/C8H11N/c1-8-2-5-7-6(8)4(8)3-9(5)7/h4-7H,2-3H2,1H3	InChI=1S/C8H11N/c1-8-2-5-7-6(8)4(8)3-9(5)7/h4-7H,2-3H2,1H3/t4-,5-,6-,7-,8-,9?/m0/s1
