17
gdb 77399	2.16995	2.02139	1.25542	4.0606	67.42	-0.2223	0.0477	0.27	1005.8534	0.133024	-458.859381	-458.85087	-458.849925	-458.891889	32.672	
C	-0.1500155348	 1.6268657194	-0.0195681551	-0.439358
C	-0.0537259017	 0.107846192	-0.0057655481	-0.158842
C	 1.1591356978	-0.5784282453	-0.685688139	 0.376047
O	 1.467889182	-0.6694899187	-2.0201417212	-0.464714
C	 2.1275588777	-0.3338823339	 0.5376012661	-0.090837
O	 2.5332885271	-1.7272835102	 0.6297724943	-0.323301
C	 1.1242873752	-1.8017019608	 0.2763321064	-0.021758
C	 0.6976436839	-0.5909432852	 1.1567487182	 0.376048
O	 0.3412232989	-0.7000433548	 2.4779039758	-0.464714
H	 0.810069642	 2.0972146138	 0.224143196	 0.113251
H	-0.4614226846	 1.9973766379	-1.00266995	 0.122077
H	-0.8892905308	 1.9857729223	 0.7052757791	 0.12208
H	-1.0156963808	-0.3577028292	-0.2498809014	 0.079091
H	 1.604840372	 0.2176583293	-2.3699429418	 0.290275
H	 2.8694824739	 0.4408696958	 0.7287013435	 0.092426
H	 0.6519564904	-2.7750246868	 0.1514118132	 0.101954
H	 0.2943686216	 0.1821123342	 2.8622926141	 0.290275
174.0212	179.5896	202.0172	218.4788	225.5297	262.6061	312.8681	326.4798	449.0396	532.9627	591.358	612.4472	687.8171	741.2853	761.4911	867.7878	906.3343	915.8213	953.3076	971.5584	1005.9694	1051.9726	1068.649	1111.3661	1126.1658	1155.1145	1169.5806	1194.1775	1272.5216	1284.3676	1299.6915	1354.8127	1397.3441	1413.9659	1473.4426	1495.2877	1509.0824	3022.4926	3043.0368	3086.9632	3089.3318	3123.5995	3137.8052	3805.0722	3806.021
CC1C2(O)C3OC2C13O	C[C@H]1[C@@]2(O)[C@@H]3O[C@H]2[C@]13O	
InChI=1S/C6H8O3/c1-2-5(7)3-6(2,8)4(5)9-3/h2-4,7-8H,1H3	InChI=1S/C6H8O3/c1-2-5(7)3-6(2,8)4(5)9-3/h2-4,7-8H,1H3/t2-,3-,4+,5+,6-
