12
gdb 21897	3.61271	1.8737	1.2338	3.7757	59.05	-0.2447	-0.0402	0.2045	879.4657	0.085509	-414.69377	-414.687102	-414.686157	-414.72473	24.343	
O	 0.1150179334	 1.3227564857	 0.0627241301	-0.415718
C	 0.0783487662	-0.0192823182	 0.0510264858	 0.361066
N	 0.0801177251	-0.712591789	-1.0741835981	-0.329876
N	 0.0366702474	-2.0089748481	-0.6496488913	-0.188287
C	 0.0085230315	-2.134243082	 0.6827948924	-0.079398
C	 0.0341946389	-0.8463571604	 1.2090068439	 0.038485
C	 0.0186423711	-0.4665418528	 2.6132717984	 0.058737
O	-0.020090987	-1.2562403951	 3.5346830987	-0.293984
H	 0.1402125167	 1.6217731731	-0.8556455752	 0.310278
H	 0.0294231979	-2.7398050175	-1.3406552773	 0.286286
H	-0.0269715429	-3.088973387	 1.182539826	 0.170489
H	 0.0453978717	 0.6282933113	 2.7948046366	 0.081921
149.6108	165.7958	236.7748	343.6898	362.6967	435.7691	506.5185	560.485	658.8137	676.0662	740.2074	834.2625	847.1302	943.3979	1044.9285	1067.9792	1135.5893	1235.9714	1244.0925	1349.1238	1432.7454	1446.3123	1506.394	1565.5281	1612.897	1778.6795	2913.2248	3273.5676	3678.5197	3787.4758
OC1=NNC=C1C=O	Oc1n[nH]cc1C=O	
InChI=1S/C4H4N2O2/c7-2-3-1-5-6-4(3)8/h1-2H,(H2,5,6,8)	InChI=1S/C4H4N2O2/c7-2-3-1-5-6-4(3)8/h1-2H,(H2,5,6,8)
