17
gdb 69585	3.76482	1.32283	1.18457	3.3489	74.17	-0.2489	-0.0147	0.2342	1079.9415	0.134827	-421.791219	-421.783518	-421.782574	-421.823121	30.202	
C	-0.1190451401	 1.5297636701	 0.0547311692	-0.493314
C	 0.1294486666	 0.050179141	-0.0025296306	 0.376323
O	-0.6793198248	-0.781853311	 0.8657013073	-0.290047
C	 0.7405256415	-0.7682349929	 1.059055755	-0.148604
C	 1.4689611324	-1.9039784908	 0.3803533924	 0.444903
C	 2.7232313025	-2.4788473894	 0.8970463226	-0.249397
O	 1.4995647301	-3.2037588038	 0.9784656482	-0.272735
C	 1.1520058416	-1.7623902118	-1.0733694391	-0.173197
C	 0.438634752	-0.6566633414	-1.2982015626	-0.143785
H	 0.7328842546	 2.083303714	-0.3538711948	 0.127656
H	-1.0044411364	 1.7937558787	-0.5341644924	 0.131666
H	-0.2880444036	 1.8505434754	 1.0851774148	 0.135283
H	 1.0865484789	-0.3760666856	 2.0116220001	 0.097239
H	 3.4614880623	-2.8713972702	 0.1987784111	 0.116362
H	 3.1229986437	-2.1210193722	 1.8462079942	 0.11681
H	 1.451861312	-2.5055210417	-1.8021801216	 0.116121
H	 0.0811830367	-0.3083304783	-2.2598069737	 0.108717
114.0233	192.1489	219.2654	251.9516	321.715	361.8153	418.1403	466.9652	538.5507	616.433	632.8197	744.7527	780.4896	834.5863	849.6526	890.2765	915.119	926.0369	952.7264	979.6079	1021.288	1044.5828	1095.4078	1116.1595	1130.2307	1159.0603	1218.622	1264.0498	1281.4943	1351.8895	1387.9804	1415.9902	1456.9077	1484.2982	1494.5654	1525.0552	1660.346	3036.3591	3073.9322	3097.8381	3128.3584	3149.7399	3162.6034	3197.2338	3221.0612
CC12OC1C1(CO1)C=C2	C[C@]12O[C@H]1[C@]1(CO1)C=C2	
InChI=1S/C7H8O2/c1-6-2-3-7(4-8-7)5(6)9-6/h2-3,5H,4H2,1H3	InChI=1S/C7H8O2/c1-6-2-3-7(4-8-7)5(6)9-6/h2-3,5H,4H2,1H3/t5-,6-,7-/m1/s1
