16
gdb 96656	4.0681	0.85476	0.81489	2.0116	76.76	-0.2639	-0.047	0.2169	1453.6289	0.11966	-437.875592	-437.865462	-437.864517	-437.91172	34.588	
C	-0.532286231	 1.7159346969	-0.3706191551	-0.328902
N	-0.6807308612	 0.2782158537	-0.3864378714	-0.204121
C	 0.1877200784	-0.4835287103	-0.8652620892	 0.37937
C	 1.5119911616	-0.2387932686	-1.5279484077	-0.490654
O	-0.1613848026	-1.8592370142	-0.8708942494	-0.244728
C	 0.4724497265	-2.6636351623	 0.0101489235	 0.302074
O	 1.3064343365	-2.3041496157	 0.8010349634	-0.354464
C	 0.0109810665	-4.0268863641	-0.1256356315	 0.236502
C	-0.335106166	-5.1750988429	-0.1952021462	-0.366598
H	 0.3799354404	 2.1072043901	-0.8389840594	 0.110128
H	-1.3987990483	 2.1620609491	-0.8702470541	 0.139793
H	-0.5580383451	 2.0554456124	 0.6703463472	 0.144141
H	 2.304518452	-0.6945806213	-0.9282451108	 0.172948
H	 1.5203421591	-0.7129033337	-2.5142680535	 0.150088
H	 1.7225930611	 0.8240078096	-1.6440412518	 0.138685
H	-0.6430869478	-6.1905573085	-0.256991784	 0.215739
47.1639	62.3428	109.9628	121.3484	143.7374	201.2381	263.7037	288.0539	318.2276	410.7181	467.3265	512.317	614.1789	636.4245	658.6048	704.5682	767.5884	802.2631	904.1979	976.4903	1064.5566	1105.3827	1132.7417	1134.8443	1190.8645	1244.0884	1393.7666	1442.464	1472.0432	1483.0364	1485.4816	1505.9023	1788.6513	1818.0831	2238.395	3011.1523	3055.4804	3080.7875	3092.2519	3121.0545	3156.0088	3497.1221
CN=C(C)OC(=O)C#C	CN=C(C)OC(=O)C#C	
InChI=1S/C6H7NO2/c1-4-6(8)9-5(2)7-3/h1H,2-3H3	InChI=1S/C6H7NO2/c1-4-6(8)9-5(2)7-3/h1H,2-3H3
