19
gdb 33069	4.32224	0.79467	0.70705	3.8246	79.5	-0.2104	0.0338	0.2442	1605.1804	0.159772	-419.254143	-419.244616	-419.243672	-419.289617	33.965	
C	 0.0256017943	 1.4844789253	 0.0458452626	-0.498755
C	 0.026781497	-0.0062414189	-0.0240513031	 0.33925
N	 0.0360342192	-0.729201904	-1.1230541125	-0.341658
C	 0.0403112421	-2.0521601064	-0.7196869576	 0.273721
C	 0.0224731001	-3.1661090782	-1.7169157285	-0.32579
C	-1.310810862	-3.249145043	-2.4778115903	-0.052865
O	-1.3286540995	-4.2930416778	-3.4391496273	-0.420129
C	 0.0312246637	-2.1190906498	 0.6483368031	-0.19861
N	 0.0229966453	-0.808309283	 1.0820729412	-0.273212
H	 0.9103058958	 1.8711381986	 0.5651484596	 0.130474
H	 0.0241742441	 1.8797244239	-0.9705994717	 0.157482
H	-0.8583106134	 1.8695666139	 0.5674590339	 0.130576
H	 0.829574952	-3.0129394046	-2.4463844508	 0.098413
H	 0.2109340441	-4.1252563315	-1.2234321868	 0.102479
H	-2.1213927482	-3.4740874856	-1.7766780996	 0.106703
H	-1.5303784699	-2.2719910489	-2.9308190304	 0.107263
H	-0.6830976423	-4.0732703321	-4.1183525436	 0.279756
H	 0.033615943	-2.9484530599	 1.3361877675	 0.124389
H	 0.0259930345	-0.502272008	 2.0404297044	 0.260514
51.8859	72.4244	94.8606	104.2631	233.2847	275.727	299.717	356.4833	373.01	411.7862	514.0313	646.8095	670.6882	714.4651	729.5044	786.7395	790.7371	970.1366	998.3662	1015.026	1037.14	1057.7927	1062.5317	1072.4907	1111.7291	1150.3258	1238.6339	1285.7917	1299.4489	1323.5411	1376.7865	1394.29	1412.3032	1414.0799	1441.3494	1475.7374	1483.7034	1500.5954	1512.4187	1574.3841	1610.8457	3007.8377	3014.4702	3029.3747	3068.4243	3078.0248	3088.7037	3148.8122	3270.3266	3664.2577	3815.8787
CC1=NC(CCO)=CN1	Cc1nc(CCO)c[nH]1	
InChI=1S/C6H10N2O/c1-5-7-4-6(8-5)2-3-9/h4,9H,2-3H2,1H3,(H,7,8)	InChI=1S/C6H10N2O/c1-5-7-4-6(8-5)2-3-9/h4,9H,2-3H2,1H3,(H,7,8)
