23
gdb 90715	3.022	1.2482	1.1936	1.5436	85.39	-0.2359	0.0842	0.3201	1211.1398	0.204767	-388.273202	-388.263929	-388.262985	-388.30663	36.455	
C	 0.3592074648	 1.5526307945	-0.2518193142	-0.412461
C	 0.1109256712	 0.090578654	 0.0528027883	 0.160337
O	 0.9081135712	-0.8151874336	-0.760053971	-0.318223
C	 1.2257050232	-1.6356958411	 0.3843152758	 0.093256
C	 0.6127046657	-0.5828665314	 1.3472589934	-0.10334
C	 2.0481368896	-0.2081939335	 1.8111732854	-0.298491
C	 2.6475826535	-1.394336201	 0.9706909758	 0.32378
C	 3.0621521326	-2.563216818	 1.8658739348	-0.4424
C	 3.7358365331	-1.0360161355	-0.0332521338	-0.448064
H	 1.4066436537	 1.829062356	-0.1075516132	 0.123754
H	 0.0941017341	 1.765676526	-1.2923784566	 0.128226
H	-0.2618050022	 2.1846746141	 0.3924467356	 0.116434
H	-0.9561328184	-0.1335747916	-0.1008370894	 0.071135
H	 0.8837992939	-2.6690630983	 0.2604361754	 0.060679
H	-0.1243959794	-0.8016663217	 2.1185636343	 0.070837
H	 2.3861803679	 0.786299226	 1.5105237255	 0.097424
H	 2.2070040565	-0.3062123698	 2.8881564092	 0.097262
H	 2.2603984736	-2.8444481819	 2.5585599962	 0.110201
H	 3.3122453556	-3.446820857	 1.2676383932	 0.113326
H	 3.9410061098	-2.3014126238	 2.4656886317	 0.113619
H	 4.6260343817	-0.653947593	 0.4795925158	 0.105971
H	 4.0392277253	-1.9123627993	-0.6178848786	 0.109607
H	 3.3821972529	-0.2754581201	-0.7331406136	 0.12713
70.8668	182.1449	204.4152	220.0568	246.0266	264.3553	311.9478	337.0799	369.4719	387.2426	489.6864	518.572	579.834	725.4262	771.9579	828.2453	863.9673	881.0907	897.8848	927.684	956.0933	965.4317	978.6861	1008.1018	1038.7204	1054.7565	1103.0433	1119.6522	1154.7443	1172.574	1206.9999	1224.6449	1237.0876	1254.8664	1290.3751	1309.5384	1317.7841	1340.9332	1390.6668	1397.0578	1409.5317	1417.8662	1476.6178	1482.1048	1484.2001	1487.8027	1499.7747	1504.2067	1511.7385	2974.9982	3018.129	3026.9056	3039.5097	3044.721	3061.5058	3084.2052	3086.0026	3091.8583	3105.3865	3107.0666	3118.656	3122.9702	3126.8814
CC1OC2C1CC2(C)C	C[C@H]1O[C@@H]2[C@H]1CC2(C)C	
InChI=1S/C8H14O/c1-5-6-4-8(2,3)7(6)9-5/h5-7H,4H2,1-3H3	InChI=1S/C8H14O/c1-5-6-4-8(2,3)7(6)9-5/h5-7H,4H2,1-3H3/t5-,6+,7-/m1/s1
