16
gdb 54059	1.91896	1.5698	0.94085	2.518	74.44	-0.2507	0.003	0.2537	1215.2834	0.123876	-434.07235	-434.063138	-434.062194	-434.106657	33.652	
N	 1.1640477973	-0.8365334752	 0.4520303492	-0.575972
C	 0.1895208687	 0.1120648934	 0.2455970653	 0.471887
O	 0.4071566163	 1.3070807133	 0.2685166654	-0.386365
N	-1.0816205372	-0.4142863054	-0.0506118444	-0.122095
C	-1.3197778703	-1.8412895472	-0.284217626	-0.330241
C	-1.2250943655	-2.6625551376	 0.9224411814	 0.302176
C	-1.1059656969	-3.3427387375	 1.9066634572	-0.450889
C	-2.1393161833	 0.4744706251	-0.2111318228	 0.106984
N	-3.30453117	 0.0727735802	-0.5232067999	-0.487718
H	 2.0241707512	-0.43543247	 0.7931628769	 0.265919
H	 0.9078611156	-1.7235467961	 0.8627159419	 0.266525
H	-2.3283186209	-1.9066862621	-0.7024732604	 0.192792
H	-0.6129024402	-2.2072060793	-1.0372200641	 0.15332
H	-1.0356456	-3.9455104388	 2.7788338626	 0.210882
H	-1.8193332819	 1.5015976394	-0.0387109573	 0.150026
H	-3.9416154331	 0.8623180377	-0.5956757948	 0.23277
64.8612	88.7379	128.9216	198.0865	259.5067	296.9336	321.012	342.4393	459.7417	466.6185	503.9864	564.4006	623.9008	634.8012	661.9284	672.1364	776.503	812.1617	826.1385	953.8931	966.9601	1078.8893	1113.1039	1139.1808	1168.3289	1305.6604	1346.7146	1364.3092	1399.265	1434.0102	1466.784	1633.2195	1715.3501	1806.078	2234.3739	3043.2967	3096.2872	3146.8107	3500.6381	3520.5545	3556.4347	3682.5364
NC(=O)N(CC#C)C=N	NC(=O)N(CC#C)C=N	
InChI=1S/C5H7N3O/c1-2-3-8(4-6)5(7)9/h1,4,6H,3H2,(H2,7,9)	InChI=1S/C5H7N3O/c1-2-3-8(4-6)5(7)9/h1,4,6H,3H2,(H2,7,9)
