19
gdb 84886	2.30285	1.76899	1.30572	2.1678	75.65	-0.247	0.0261	0.273	1040.4362	0.16126	-419.193631	-419.185544	-419.1846	-419.226144	31.148	
C	 0.035763707	 1.5823987853	-0.0572650829	-0.385642
C	 0.0387522009	 0.0502882396	 0.0457026188	-0.035091
N	 0.6184782043	-0.5247856434	-1.1710973187	-0.278082
C	 1.7805103594	-1.0226473836	-1.1119280211	 0.134728
O	 2.6405680422	-1.1074299997	-0.0718162162	-0.223952
C	 2.2394086469	-0.4446537741	 1.1399277272	-0.118413
C	 0.7402137326	-0.4705366738	 1.2921879634	 0.285828
C	 0.110035818	-0.3641378679	 2.6274552472	-0.295408
N	 0.2320147711	-1.6779558476	 1.9689769263	-0.354983
H	 1.0546909345	 1.9819916748	-0.0449876917	 0.118266
H	-0.4287707194	 1.887310181	-0.9985003074	 0.132613
H	-0.5208342573	 2.0288702797	 0.772233925	 0.113107
H	-1.0095332504	-0.2790088099	 0.0791957488	 0.076741
H	 2.2291802205	-1.4818340514	-1.9913479251	 0.124958
H	 2.7251949917	-0.9812452506	 1.9563017861	 0.128603
H	 2.6186761928	 0.5849354548	 1.1091312923	 0.112309
H	 0.7194360758	-0.2381754975	 3.5190835096	 0.11724
H	-0.8698616806	 0.1042951038	 2.6858973718	 0.114555
H	-0.6634621199	-1.9498768896	 1.5686242967	 0.232624
96.0422	140.5535	220.9627	231.6832	285.2098	310.6614	385.0186	447.6166	508.3835	533.0604	601.0333	714.5629	831.8689	856.3883	887.5737	912.8128	949.1145	959.3721	971.298	985.7839	1016.6954	1060.7618	1096.3619	1104.8447	1120.9182	1151.806	1187.4371	1262.7823	1263.7398	1309.0805	1332.0053	1352.0832	1373.4528	1400.9875	1413.4868	1442.5939	1485.8972	1491.3446	1501.1808	1515.0525	1727.3404	2996.6491	3026.4218	3040.0263	3099.5855	3111.0594	3121.4225	3123.6441	3156.1465	3181.3801	3489.9017
CC1N=COCC11CN1	C[C@H]1N=COC[C@]21CN2	
InChI=1S/C6H10N2O/c1-5-6(2-8-6)3-9-4-7-5/h4-5,8H,2-3H2,1H3	InChI=1S/C6H10N2O/c1-5-6(2-8-6)3-9-4-7-5/h4-5,8H,2-3H2,1H3/t5-,6+/m1/s1
