12
gdb 20710	7.50075	1.37457	1.17011	3.6563	59.7	-0.2956	-0.0863	0.2093	950.6413	0.083702	-410.842866	-410.835841	-410.834897	-410.874758	23.741	
C	-0.034742176	 1.4561837944	-0.0382729924	-0.47965
C	 0.0052703076	-0.0297982374	-0.0124334333	 0.399671
N	-0.0496317907	-0.8043735631	-1.0766192044	-0.274334
N	 0.0224872788	-2.0294720648	-0.5325122623	 0.061278
C	-0.0031735041	-3.2028817093	-1.3373485227	 0.210815
O	 0.0576184065	-4.3079356888	-0.8968699115	-0.223889
N	 0.1167166178	-2.0121322602	 0.8097523273	-0.078903
N	 0.1065278691	-0.766399289	 1.147515271	-0.226082
H	 0.8869165302	 1.8709106395	 0.3807591081	 0.15879
H	-0.1526773905	 1.8124306073	-1.0621767613	 0.153625
H	-0.8653847551	 1.8260169566	 0.5696302235	 0.1589
H	-0.0864368435	-2.9170383751	-2.3970239119	 0.13978
73.0392	107.3989	200.8299	235.9173	310.5706	350.9938	512.7115	688.4199	719.7882	735.1344	804.4743	967.7468	1018.3264	1031.5298	1071.5617	1096.9225	1191.0401	1265.5064	1345.5296	1399.3905	1413.0208	1439.0019	1475.7619	1479.5247	1578.739	1864.2118	3038.159	3055.34	3115.0452	3155.2238
CC1=NN(C=O)N=N1	Cc1nn(C=O)nn1	
InChI=1S/C3H4N4O/c1-3-4-6-7(2-8)5-3/h2H,1H3	InChI=1S/C3H4N4O/c1-3-4-6-7(2-8)5-3/h2H,1H3
