15
gdb 31216	2.29116	1.49154	0.91446	5.7461	75.3	-0.2244	-0.0047	0.2197	1193.492	0.114388	-416.860633	-416.852383	-416.851439	-416.894129	29.859	
O	-0.1160165635	 1.3991163453	-0.338773711	-0.427921
C	 0.0053865023	 0.0443700513	 0.0805034135	-0.212203
C	-1.3604751736	-0.5593295064	 0.0369866928	 0.245826
C	-1.7865462043	-1.8794978213	-0.0304561288	 0.087907
C	-3.2184635569	-1.86836716	 0.0072854373	-0.257698
C	-3.6072352214	-0.5577369681	 0.0898152741	-0.074625
N	-2.4714100248	 0.2179840545	 0.1159278609	-0.272869
C	-0.9352195365	-3.0059443596	-0.1179554976	 0.187658
N	-0.2255676168	-3.9200352935	-0.1906368495	-0.364332
H	 0.7112902185	 1.8495576569	-0.1470040004	 0.300324
H	 0.6808402341	-0.5311472334	-0.5681541768	 0.133194
H	 0.4130747622	-0.0117912149	 1.1026446364	 0.121144
H	-3.8603892994	-2.733458755	-0.0287216795	 0.120668
H	-4.5871882223	-0.1111761933	 0.123176668	 0.133446
H	-2.4211126376	 1.2236021675	 0.1168716006	 0.279482
57.5494	119.5004	171.4574	202.4617	242.6749	275.0301	422.743	521.8805	543.7229	589.6137	619.9539	654.1833	690.6063	727.8533	743.4116	840.6492	922.2132	1028.9236	1044.7737	1083.0567	1102.6895	1169.1418	1211.5653	1238.998	1271.7895	1332.0653	1403.4393	1455.778	1494.6161	1517.4241	1520.2201	1605.8155	2337.2074	2971.863	3018.5123	3263.9897	3283.0244	3668.37	3841.7682
OCC1=C(C=CN1)C#N	OCc1c(cc[nH]1)C#N	
InChI=1S/C6H6N2O/c7-3-5-1-2-8-6(5)4-9/h1-2,8-9H,4H2	InChI=1S/C6H6N2O/c7-3-5-1-2-8-6(5)4-9/h1-2,8-9H,4H2
