21
gdb 65126	3.3102	1.31447	1.19524	1.4454	82.78	-0.2229	0.078	0.3009	1138.8613	0.184043	-383.1596	-383.151501	-383.150556	-383.192319	32.154	
C	 0.9559062962	-0.4797266844	-1.1019248207	-0.453497
C	 0.0724315912	 0.0148944473	 0.0265762336	 0.260114
C	 0.665802886	 0.1776512441	 1.3813670301	-0.280285
N	 0.3076439264	 1.3627633777	 0.5815935761	-0.339739
C	-1.3611651711	-0.4592554927	-0.0663563307	 0.028425
C	-2.5882412191	 0.3729429879	 0.3792986795	-0.076443
C	-2.3503803052	 1.1907371416	-0.9080038687	-0.164022
N	-2.1245617872	-0.255063933	-1.4029870874	-0.169819
C	-3.3699921763	-0.5745206753	-0.5567482699	-0.169861
H	 1.9991925327	-0.1875801958	-0.9421183856	 0.104595
H	 0.918613326	-1.5719626009	-1.1782697403	 0.125632
H	 0.6184718429	-0.0772519565	-2.061855573	 0.142314
H	 0.0549332081	 0.0292851816	 2.2682855447	 0.115757
H	 1.7163699342	-0.070710906	 1.5104958447	 0.108971
H	 1.1449701481	 1.763825694	 0.1647263837	 0.226809
H	-1.3862817577	-1.5191681742	 0.2188151627	 0.070648
H	-2.8502043826	 0.724541116	 1.3826067429	 0.064295
H	-3.219696197	 1.6649432162	-1.372637421	 0.092334
H	-1.4712839231	 1.8287092644	-0.9563494558	 0.121139
H	-3.4545828405	-1.6297972517	-0.2804055459	 0.094886
H	-4.296816862	-0.2026677305	-1.001507349	 0.097747
60.7609	157.3876	200.5893	230.4567	309.539	347.932	408.092	439.838	529.0432	613.6638	764.37	781.5031	787.6676	827.8004	863.1834	897.5691	903.8633	921.5223	938.8106	973.1308	991.5164	1018.7135	1028.8861	1061.402	1084.0829	1108.8593	1117.2674	1132.0395	1140.6696	1164.1656	1184.0486	1199.8621	1225.5549	1249.4887	1268.4686	1282.4047	1327.6496	1374.6796	1414.8642	1423.6477	1481.0933	1498.9187	1512.0377	1515.3742	1551.9149	3017.3674	3030.6908	3040.7391	3051.4299	3067.0989	3096.5464	3101.6962	3109.5146	3113.2629	3170.4198	3185.6643	3486.7982
CC1(CN1)C1C2CN1C2	C[C@]1(CN1)[C@H]1[C@H]2CN1C2	
InChI=1S/C7H12N2/c1-7(4-8-7)6-5-2-9(6)3-5/h5-6,8H,2-4H2,1H3	InChI=1S/C7H12N2/c1-7(4-8-7)6-5-2-9(6)3-5/h5-6,8H,2-4H2,1H3/t6-,7+/m1/s1
