21
gdb 104349	3.1068	1.22484	1.07603	2.3209	79.45	-0.2306	0.0375	0.2681	1203.9796	0.18298	-424.240577	-424.231556	-424.230611	-424.273772	35.325	
O	-0.0670548528	 1.4426571924	-0.1253096597	-0.437775
C	 0.0118273096	 0.0288247857	 0.0519272632	-0.130468
C	-1.424965523	-0.5003816897	 0.0344126586	 0.367185
O	-2.0195621461	-0.1223009629	-1.2068164345	-0.48287
C	-1.4469710096	-2.0316902412	 0.0778862536	-0.229092
C	-2.8822168962	-2.566192813	-0.0278317761	-0.256325
C	-3.8201327414	-1.8421599468	 0.8996990504	-0.038311
C	-3.5291568904	-0.6669132133	 1.4535598793	-0.057108
C	-2.2380947854	 0.0717165509	 1.2180983636	-0.262004
H	 0.8074486007	 1.7757953734	-0.3428171911	 0.294351
H	 0.5698794462	-0.4371567743	-0.7724227397	 0.092905
H	 0.5097935064	-0.225160631	 0.9995279863	 0.087427
H	-1.7962912393	 0.8091576615	-1.3274050535	 0.282265
H	-0.8336138775	-2.4289427537	-0.7379584505	 0.093115
H	-0.9977479409	-2.3625404521	 1.0221896259	 0.094331
H	-3.2359113744	-2.457156536	-1.0614047524	 0.127018
H	-2.8937798841	-3.6420010711	 0.1859196704	 0.093337
H	-4.780855592	-2.310938189	 1.0991790784	 0.07845
H	-4.2458469491	-0.1895775347	 2.1181236749	 0.07769
H	-1.627581788	 0.0507350631	 2.1333238885	 0.096934
H	-2.4351314631	 1.1327833218	 1.0261671244	 0.108944
110.8876	131.38	177.3603	220.7421	245.3466	337.7001	345.7767	384.5068	410.0684	436.4705	453.3534	535.7023	599.6723	669.1092	717.8994	780.5202	880.7726	895.3902	926.4886	958.2023	969.7918	1000.9723	1018.4392	1040.5381	1064.7167	1098.0482	1119.1156	1130.9326	1190.6453	1198.0687	1230.2507	1252.4375	1275.517	1311.2506	1349.4433	1360.6404	1368.9408	1415.3917	1425.5599	1447.1107	1463.9221	1471.7963	1485.3318	1508.5634	1729.8374	2983.8496	2998.3204	3021.7461	3028.0154	3030.5691	3051.3041	3055.0411	3078.4364	3138.8778	3163.396	3779.1973	3845.5696
OCC1(O)CCC=CC1	OC[C@@]1(O)CCC=CC1	
InChI=1S/C7H12O2/c8-6-7(9)4-2-1-3-5-7/h1-2,8-9H,3-6H2	InChI=1S/C7H12O2/c8-6-7(9)4-2-1-3-5-7/h1-2,8-9H,3-6H2/t7-/m0/s1
