18
gdb 111231	3.45746	1.27825	1.1759	2.7199	70.93	-0.2451	0.0176	0.2627	1090.8931	0.149815	-439.066199	-439.058619	-439.057675	-439.098428	29.447	
O	-0.1300099105	 1.3874563737	-0.2391095894	-0.420224
C	-0.0366008601	 0.0324295631	 0.1806229441	-0.124231
C	-1.425749966	-0.5697256039	 0.0836624229	 0.014831
C	-2.0009263491	-0.6813261691	-1.3548852744	 0.118968
C	-1.3072812835	-2.0593534088	-1.473150054	-0.261697
C	-1.5096212299	-2.133002183	 0.0714682946	-0.022528
N	-2.9028098976	-2.5185109277	 0.3355637407	-0.260388
C	-3.735488042	-1.8575779214	-0.3568108722	 0.104043
O	-3.4287452063	-0.8893553311	-1.2553309515	-0.239818
H	 0.7319027927	 1.7994458615	-0.127595293	 0.28956
H	 0.6851527552	-0.5226503402	-0.4377170417	 0.087546
H	 0.3096697234	-0.0415254549	 1.2235650428	 0.096048
H	-2.0865302855	-0.0748828953	 0.8002339593	 0.091701
H	-1.8479237247	 0.1121197944	-2.083111885	 0.100378
H	-1.7986187077	-2.8240966089	-2.0771611381	 0.112278
H	-0.2622081275	-1.9620964896	-1.7678322932	 0.111564
H	-0.8274897781	-2.7204804397	 0.6870205629	 0.072943
H	-4.8085773629	-2.016126059	-0.2900301551	 0.129026
78.8879	150.9365	239.9665	282.5326	320.2966	390.5941	438.4453	488.3661	503.5257	619.4879	760.9379	831.0764	852.5143	868.4399	918.4095	937.7265	952.6989	970.0415	1008.5552	1053.5284	1062.3993	1091.6903	1115.1545	1146.9427	1149.4715	1161.689	1209.8854	1235.7461	1253.6119	1271.1836	1282.1663	1312.2959	1335.5758	1374.2079	1393.8126	1458.7676	1484.0273	1525.5403	1697.5095	2974.0293	3000.0005	3079.2208	3082.1283	3100.7176	3142.7921	3145.4304	3179.9282	3828.2963
OCC1C2CC1N=CO2	OC[C@H]1[C@H]2C[C@@H]1[N][CH]O2	
InChI=1S/C6H9NO2/c8-2-4-5-1-6(4)9-3-7-5/h3-6,8H,1-2H2	InChI=1S/C6H9NO2/c8-2-4-5-1-6(4)9-3-7-5/h3-6,8H,1-2H2/t4-,5+,6-/m1/s1
