25
gdb 118776	2.82337	0.95909	0.81649	1.6188	89.91	-0.2519	0.0812	0.3331	1578.0135	0.225061	-389.497216	-389.485638	-389.484693	-389.533944	42.25	
C	-0.1549623314	 1.5900800904	 0.227792948	-0.382629
C	-0.2704658123	 0.075879655	 0.4191440655	-0.152887
C	-1.2380900673	-0.5761203637	-0.581045557	-0.266126
C	-1.3529811138	-2.0875602581	-0.3951753331	 0.34003
C	-0.2149308207	-2.8515518077	-1.0527006018	-0.467376
O	-1.6889432337	-2.5232460391	 0.9387230037	-0.33343
C	-2.6539498757	-2.748546183	-0.1047996338	 0.339838
C	-3.9401037587	-1.9536909396	 0.0350502879	-0.45544
C	-2.9097563957	-4.2014966281	-0.4626675343	-0.457791
H	 0.5293660093	 2.0321309578	 0.9587607706	 0.111869
H	 0.2196975482	 1.8389585087	-0.77162793	 0.110759
H	-1.1280333279	 2.0804115605	 0.3454864149	 0.112353
H	 0.7238312755	-0.3788430995	 0.3292182307	 0.095661
H	-0.6185667719	-0.1515451714	 1.4324018715	 0.116482
H	-2.2137907186	-0.091875394	-0.4899208064	 0.094928
H	-0.8958221903	-0.3817127824	-1.6061292656	 0.092722
H	-0.1497010454	-3.8770650806	-0.6899575687	 0.128966
H	-0.3384191532	-2.8686133194	-2.1413625649	 0.118148
H	 0.7423621417	-2.3656237088	-0.8378704621	 0.123569
H	-3.7694056913	-0.9789206057	 0.4916351529	 0.129589
H	-4.4224377982	-1.8097454097	-0.9382829624	 0.11701
H	-4.6429291763	-2.499253559	 0.6743264735	 0.11963
H	-3.5274299415	-4.6687243005	 0.312238812	 0.123673
H	-3.4595365778	-4.2700427484	-1.408150702	 0.117558
H	-1.9934850029	-4.7832152138	-0.5556018293	 0.122895
72.2039	74.9693	107.7974	126.2777	145.5219	164.0932	221.5355	245.1392	295.8576	314.4037	338.5573	378.469	395.6361	461.0511	496.584	552.4923	698.7529	727.6189	745.104	867.6345	870.6982	895.2544	926.6294	940.3177	987.542	1006.8761	1046.105	1061.3149	1078.6214	1125.5599	1155.8939	1187.0633	1204.9108	1245.5708	1274.4535	1313.4851	1328.7544	1387.1302	1401.7507	1405.4392	1411.0862	1417.56	1439.3066	1473.5839	1478.71	1480.3921	1488.363	1492.8011	1499.7575	1503.7594	1510.4917	1514.6885	1523.2884	3024.6133	3027.1327	3032.0613	3033.6967	3038.1607	3041.7538	3068.5595	3088.1019	3089.643	3095.3015	3096.1254	3100.258	3101.3219	3142.1139	3146.5473	3157.9503
CCCC1(C)OC1(C)C	CCC[C@@]1(C)OC1(C)C	
InChI=1S/C8H16O/c1-5-6-8(4)7(2,3)9-8/h5-6H2,1-4H3	InChI=1S/C8H16O/c1-5-6-8(4)7(2,3)9-8/h5-6H2,1-4H3/t8-/m1/s1
