18
gdb 76284	2.42445	1.62655	1.038	1.1852	75.39	-0.2404	0.007	0.2473	1144.9182	0.148561	-435.339135	-435.330069	-435.329124	-435.37309	32.933	
C	-0.0109386985	 1.6296203621	 0.0564855167	-0.393838
C	 0.0682391639	 0.1038016318	-0.0153193222	-0.056351
N	 0.8627145143	-0.4063754688	-1.1257401062	-0.10972
C	 0.4992958192	-0.2539020389	-2.5141130684	-0.346742
C	 1.8412456065	-1.2762845422	-0.7195570029	 0.470196
O	 2.6180313546	-1.9053554722	-1.4013288496	-0.414195
N	 1.7753458839	-1.3013246644	 0.6834894725	-0.418671
C	 0.7745312225	-0.501311495	 1.1992075541	 0.404169
N	 0.4351935944	-0.251696392	 2.3964440591	-0.543803
H	 0.9916154392	 2.0670232412	 0.0648192599	 0.125771
H	-0.5636740378	 2.0356717987	-0.7954469813	 0.119377
H	-0.5240149334	 1.9145245146	 0.9774740313	 0.154063
H	-0.952384592	-0.3057815839	-0.0612820927	 0.111588
H	 0.532192164	 0.7961254091	-2.8240788207	 0.129941
H	 1.2189403031	-0.8210623626	-3.1065860312	 0.168584
H	-0.5096326989	-0.6419449844	-2.7088172855	 0.122172
H	 2.4352884504	-1.8374900837	 1.2220214676	 0.264984
H	 1.0218065244	-0.7441309694	 3.0713024494	 0.212477
75.906	108.0221	145.8133	167.9551	233.3932	254.8384	292.5029	372.4121	416.624	470.3652	540.7701	609.0016	659.9612	693.973	759.8437	780.1844	846.5275	860.5894	977.4567	1059.9192	1085.6606	1110.5562	1121.5323	1161.7426	1179.2752	1258.1574	1300.8316	1350.3535	1357.4256	1384.9649	1402.164	1432.7155	1458.4141	1488.2004	1493.8949	1497.3912	1527.1395	1767.1757	1850.0568	2989.1437	3011.819	3046.6425	3070.6474	3119.6269	3140.0621	3145.583	3467.6621	3665.8394
CC1N(C)C(=O)NC1=N	C[C@H]1N(C)C(=O)N[C]1[NH]	
InChI=1S/C5H9N3O/c1-3-4(6)7-5(9)8(3)2/h3H,1-2H3,(H2,6,7,9)	InChI=1S/C5H9N3O/c1-3-4(6)7-5(9)8(3)2/h3H,1-2H3,(H2,6,7,9)/t3-/m1/s1
