19
gdb 74940	3.14747	1.68746	1.36641	2.0376	79.56	-0.227	0.0083	0.2353	995.4377	0.161159	-385.872101	-385.865018	-385.864073	-385.903302	29.004	
C	-0.0056268812	 1.4981853751	 0.0282979765	-0.494977
C	-0.054172005	 0.0047728381	-0.0166139363	 0.325901
C	-0.0797130873	-0.7782631067	-1.1024957948	-0.182243
C	-0.0085281474	-2.2321118669	-0.7264996703	 0.074068
O	 1.3702822787	-2.6951082873	-0.4687837479	-0.321251
C	 1.1579633357	-2.6840589403	 0.9572137211	 0.124567
C	 1.4611672657	-1.3205051408	 1.6296732681	-0.249981
C	 0.0092350531	-0.8262132283	 1.2482255106	-0.12956
C	-0.3227444927	-2.2766318683	 0.7855439065	-0.107885
H	 0.9106977547	 1.8442051968	 0.5243281359	 0.131534
H	-0.0364799077	 1.9374005986	-0.9721464133	 0.126289
H	-0.8434765965	 1.90349634	 0.6096944511	 0.12635
H	-0.0651045079	-0.4255695672	-2.1277260303	 0.090545
H	-0.5094226157	-2.9263329317	-1.4067722281	 0.071851
H	 1.5248926199	-3.5959558886	 1.4344630938	 0.072757
H	 1.5869392784	-1.4257508427	 2.7117676961	 0.097929
H	 2.3008757706	-0.7557851452	 1.21892354	 0.105562
H	-0.5588703347	-0.4060967051	 2.0815315435	 0.066173
H	-1.1919166006	-2.8073515295	 1.1681461679	 0.072372
146.1812	190.4088	228.2255	309.1837	354.5453	451.8628	559.4094	574.0735	682.3913	723.8434	768.9278	818.3401	831.5208	857.062	897.4354	918.5983	925.1715	953.1735	966.843	973.3408	1015.0095	1028.2172	1047.8659	1078.966	1131.1161	1155.1175	1167.6723	1203.8689	1229.0885	1247.3396	1266.8114	1281.9665	1295.7276	1322.6696	1339.2332	1350.0551	1412.3064	1461.6888	1478.715	1486.0521	1698.2633	3016.7221	3050.1646	3062.739	3067.6592	3074.8892	3078.1298	3113.924	3117.9829	3135.7374	3194.4731
CC1=CC2OC3CC1C23	CC1=C[C@H]2O[C@H]3C[C@@H]1[C@@H]23	
InChI=1S/C8H10O/c1-4-2-6-8-5(4)3-7(8)9-6/h2,5-8H,3H2,1H3	InChI=1S/C8H10O/c1-4-2-6-8-5(4)3-7(8)9-6/h2,5-8H,3H2,1H3/t5-,6+,7-,8-/m0/s1
