19
gdb 128233	2.1984	1.45122	0.93038	1.3142	79.27	-0.1871	0.0389	0.2259	1286.6496	0.160892	-415.385554	-415.375962	-415.375018	-415.420838	34.325	
C	 0.301869081	 0.9089734647	 0.5630711577	-0.324548
N	-0.4266545261	 0.2521052198	-0.524683897	-0.398026
C	 0.3506470316	-0.5509965376	-1.3916402593	 0.085327
C	 1.0033640689	-0.1577409017	-2.5426132989	-0.059947
N	 1.5952096571	-1.2620162967	-3.0514272949	-0.210586
N	 1.3709970158	-2.3789642178	-2.3108889169	-0.318194
C	 0.6193212875	-1.9506380692	-1.3014255573	 0.362685
N	 0.106767825	-2.8136262014	-0.3385158696	-0.387117
C	 0.6021020456	-4.1828243393	-0.3301994321	-0.309879
H	 0.8598578415	 0.2211838667	 1.2212706611	 0.093152
H	 1.0230007868	 1.6152971074	 0.1413346427	 0.127343
H	-0.4043040531	 1.476371044	 1.1771966068	 0.115739
H	-1.202362367	-0.2859587432	-0.1554886421	 0.22404
H	 1.0718688109	 0.8072382217	-3.0194072817	 0.129809
H	 2.1524333819	-1.3382335493	-3.8827301235	 0.269317
H	 0.0941501428	-2.3926417289	 0.5803361855	 0.230243
H	 1.6914930424	-4.2534898589	-0.1956590167	 0.114752
H	 0.1047140827	-4.7333965657	 0.4723186059	 0.110785
H	 0.3595409246	-4.6584944044	-1.2835342998	 0.145104
30.2854	103.187	158.4277	164.417	176.8135	212.2463	288.7906	314.9675	352.3945	457.5182	529.168	567.1272	625.0449	654.7767	747.5081	770.4186	797.6425	820.0624	936.0745	1033.7053	1062.218	1081.648	1131.2445	1148.8298	1157.8745	1171.1383	1201.4005	1245.9534	1337.6791	1365.6594	1450.0611	1453.7964	1469.4267	1480.7372	1487.5466	1490.9982	1500.6	1513.3631	1521.0907	1567.4426	1636.1175	2954.1016	2996.5635	3066.5117	3085.2385	3109.687	3127.5826	3261.7103	3532.0093	3575.2752	3699.3089
CNC1=CNN=C1NC	CNc1c[nH]nc1NC	
InChI=1S/C5H10N4/c1-6-4-3-8-9-5(4)7-2/h3,6H,1-2H3,(H2,7,8,9)	InChI=1S/C5H10N4/c1-6-4-3-8-9-5(4)7-2/h3,6H,1-2H3,(H2,7,8,9)
