19
gdb 35326	4.59486	0.97144	0.9329	1.6512	82.06	-0.2473	0.0243	0.2716	1316.8357	0.158174	-385.829597	-385.821082	-385.820137	-385.863365	32.656	
C	-0.7248480076	-1.050299055	-0.8161965573	-0.456968
C	-0.340497816	 0.0223088839	-0.4330088918	 0.331989
C	 0.1065970373	 1.3231129189	 0.0365912978	-0.049226
C	-0.1365975901	 1.6644692926	 1.5301685592	-0.369815
C	 1.3999765512	 1.7753805137	 1.6132314509	 0.47421
C	 2.0651305736	 3.0763778369	 2.1156352202	-0.288915
C	 2.4223559365	 2.3286074753	 3.4306170913	-0.215359
C	 2.1909229231	 0.9878457701	 2.6791708023	-0.282656
O	 1.5414148883	 1.4112626803	 0.2267693095	-0.319074
H	-1.0587800366	-1.9983752025	-1.1590875216	 0.201401
H	-0.2360978168	 2.1022659092	-0.6561125833	 0.104965
H	-0.6921787722	 2.5870341668	 1.7060737863	 0.11365
H	-0.5756197696	 0.8518399543	 2.109823553	 0.121929
H	 2.9554936525	 3.2920946318	 1.5178609204	 0.115735
H	 1.4478102635	 3.9769748574	 2.1732480372	 0.094468
H	 3.4144927113	 2.5021526316	 3.8504106061	 0.104012
H	 1.6787773985	 2.4954096826	 4.2143278076	 0.104916
H	 1.6762540488	 0.174536107	 3.1972733519	 0.097972
H	 3.1169779942	 0.6024180752	 2.2428331002	 0.116768
35.6848	110.2725	159.8083	218.8905	279.0255	366.3338	390.9818	433.4339	515.982	593.739	618.3993	668.0277	691.8452	766.5213	783.7513	855.057	891.2367	909.1225	919.443	929.1347	967.2998	989.1991	1024.9344	1047.5113	1095.4303	1158.017	1171.5401	1190.9028	1212.9005	1242.2587	1245.0099	1258.7096	1274.3574	1287.3396	1316.007	1371.1102	1466.4044	1481.2375	1487.8886	1504.9246	2234.852	3019.2157	3052.6557	3057.9727	3068.4422	3080.8918	3104.8313	3110.3111	3127.5806	3141.2014	3502.6393
C#CC1CC2(CCC2)O1	C#C[C@H]1CC2(CCC2)O1	
InChI=1S/C8H10O/c1-2-7-6-8(9-7)4-3-5-8/h1,7H,3-6H2	InChI=1S/C8H10O/c1-2-7-6-8(9-7)4-3-5-8/h1,7H,3-6H2/t7-/m0/s1
