20
gdb 62613	3.84083	1.50453	1.25429	1.5065	83.04	-0.2111	-0.004	0.207	1052.0511	0.171258	-365.931241	-365.923397	-365.922453	-365.963118	31.926	
C	-0.1122753257	 1.5370642905	 0.0288270064	-0.46202
C	-0.0290690947	 0.0120977267	-0.0498272635	 0.361328
C	-1.4013514836	-0.5522046493	 0.3203874064	-0.462017
C	 0.7909631279	-0.6520995278	-1.1832769631	-0.11214
C	 2.0871866004	-0.1645677485	-0.4589429829	-0.031865
C	 3.1496021843	-1.2338133427	-0.5701546407	-0.100744
C	 2.454848281	-2.3596061895	-0.4132892921	-0.100794
C	 1.0415787332	-1.8589382257	-0.222404077	-0.031848
N	 1.1625690274	-0.6150316722	 0.7251649278	-0.186856
H	 0.7997064516	 2.0536163632	-0.2714982273	 0.115035
H	-0.9212039573	 1.89938588	-0.6145821695	 0.114991
H	-0.3456248831	 1.8430285547	 1.0544994726	 0.126106
H	-2.1689472045	-0.122703328	-0.3322559213	 0.114989
H	-1.4774993082	-1.6371150892	 0.2434251871	 0.115036
H	-1.6513258619	-0.273389436	 1.3498804504	 0.126106
H	 0.5923566832	-0.680432296	-2.2643379216	 0.054099
H	 2.3925626453	 0.8780828838	-0.4605208273	 0.070724
H	 4.2085655677	-1.07295555	-0.7118953157	 0.109572
H	 2.7785964487	-3.3901210832	-0.3889717276	 0.109574
H	 0.2616966682	-2.5749766908	 0.0214248288	 0.070724
99.5186	180.302	204.1241	291.8106	292.6494	411.9703	484.2625	496.3114	516.3141	590.2722	673.98	753.7547	756.1992	766.6997	799.4016	827.6991	917.7714	919.9942	934.0551	947.9627	968.4206	972.7388	1003.0718	1026.3383	1079.7405	1100.5864	1143.3018	1155.1939	1168.9673	1181.6955	1220.6909	1232.1279	1277.537	1300.7778	1335.2558	1337.3577	1408.9886	1424.1699	1482.4438	1486.5821	1506.5146	1512.4347	1644.1588	2999.6946	3036.7173	3043.427	3092.5198	3099.7606	3131.9853	3134.4502	3159.5451	3161.5721	3226.197	3253.4596
CC1(C)C2C3C=CC2N13	CC1(C)[C@H]2[C@@H]3C=C[C@H]2N13	
InChI=1S/C8H11N/c1-8(2)7-5-3-4-6(7)9(5)8/h3-7H,1-2H3	InChI=1S/C8H11N/c1-8(2)7-5-3-4-6(7)9(5)8/h3-7H,1-2H3/t5-,6+,7-
