18
gdb 44546	3.15509	1.50785	1.4452	4.374	74.53	-0.227	0.0009	0.2279	974.6224	0.149568	-401.933606	-401.926577	-401.925633	-401.965207	28.48	
O	 0.0096139902	 0.6585741909	 1.1999619482	-0.318725
C	-0.0137982431	 1.5048840041	 0.3471312492	 0.413813
C	-1.2873747331	 2.094125651	-0.2877218158	-0.326653
C	-0.8540184999	 3.3744357346	-0.9977302647	-0.040196
C	-0.8085655013	 4.6691932409	-0.1700091362	-0.051345
N	-0.0431259181	 4.3436129926	 1.0562175797	-0.334689
C	 0.678970735	 4.6896864372	-0.190515225	-0.051345
C	 0.7372381156	 3.3963559092	-1.0196643341	-0.040197
C	 1.2250923869	 2.1287402862	-0.3223442416	-0.326653
H	-1.6726845106	 1.3531716456	-0.9996040945	 0.119968
H	-2.0491672667	 2.235334476	 0.4819053215	 0.131873
H	-1.3057143214	 3.5200516191	-1.9793330239	 0.076149
H	-1.5215019669	 5.4847129236	-0.1753845661	 0.093003
H	-0.0461843867	 5.1662299516	 1.6565263442	 0.234003
H	 1.3687558467	 5.5245309469	-0.2152278318	 0.093003
H	 1.1575311205	 3.5539772622	-2.0132870331	 0.076149
H	 2.0036099679	 2.2911823722	 0.4260654459	 0.131874
H	 1.610920205	 1.398408816	-1.044842822	 0.119968
73.8993	161.5105	265.1953	386.7284	433.2619	471.8726	549.4254	633.7966	645.0239	711.9162	756.2125	768.1845	812.4026	837.0952	852.4675	893.936	926.6827	940.7082	1020.0143	1036.6661	1044.0857	1072.8613	1090.5483	1091.0822	1126.8798	1144.592	1158.3712	1209.9885	1230.1448	1248.9296	1267.1415	1287.7491	1311.0194	1343.8153	1360.2963	1378.5555	1439.4794	1447.1059	1847.4424	3036.162	3038.9977	3097.8829	3109.3345	3113.9294	3114.8732	3179.9491	3193.738	3490.8627
O=C1CC2C3NC3C2C1	O=C1C[C@H]2[C@H]3N[C@H]3[C@H]2C1	
InChI=1S/C7H9NO/c9-3-1-4-5(2-3)7-6(4)8-7/h4-8H,1-2H2	InChI=1S/C7H9NO/c9-3-1-4-5(2-3)7-6(4)8-7/h4-8H,1-2H2/t4-,5+,6-,7+
