17
gdb 100233	2.6931	1.13548	0.96742	7.5258	72.86	-0.2683	0.0101	0.2785	1250.1823	0.135754	-414.194877	-414.18492	-414.183976	-414.229763	35.478	
N	-0.0196325314	 1.4857546099	-0.0161088254	-0.519981
C	 0.0561276361	 0.0306296656	-0.0311180734	-0.180514
C	 0.822056499	-0.4615097091	 1.2348712219	 0.069761
N	 0.2496629983	 0.0243411107	 2.4860592286	-0.502542
C	 0.84753096	-2.0108103686	 1.2335358381	-0.383422
C	 1.5368418856	-2.5994239729	 2.3791478875	 0.295833
N	 2.0723318044	-3.10223613	 3.2699448453	-0.296449
C	 2.2071117569	 0.0516520039	 1.126718259	 0.331013
N	 3.2673865227	 0.4818628943	 0.9677976949	-0.33685
H	 0.8615216307	 1.8913395994	-0.3165127626	 0.253833
H	-0.735348202	 1.8159460699	-0.6526520529	 0.243897
H	-0.9618281364	-0.370436886	 0.0337681753	 0.107968
H	 0.5256462218	-0.3964720457	-0.9321920745	 0.10423
H	 0.0366277173	 1.0123111974	 2.3621624466	 0.255473
H	-0.6337515197	-0.4488903632	 2.6573176354	 0.233828
H	-0.1886291811	-2.3701051639	 1.2260750973	 0.15401
H	 1.3177200278	-2.3708304916	 0.313102459	 0.169913
61.6057	113.0708	128.6363	178.5267	197.4667	248.7384	265.8485	290.3359	344.2268	385.5423	395.7109	429.3438	484.6823	589.8385	672.1085	719.7102	828.5299	869.6752	920.3704	946.531	956.9674	1019.111	1052.1021	1105.6168	1150.7442	1199.9598	1253.8154	1338.8548	1341.8434	1369.4793	1413.4187	1460.332	1493.8638	1660.0217	1663.0436	2358.7196	2372.3262	2968.3533	3043.0362	3062.3908	3094.1849	3474.6716	3511.8969	3557.7784	3595.8701
NCC(N)(CC#N)C#N	NC[C@@](N)(CC#N)C#N	
InChI=1S/C5H8N4/c6-2-1-5(9,3-7)4-8/h1,3,7,9H2	InChI=1S/C5H8N4/c6-2-1-5(9,3-7)4-8/h1,3,7,9H2/t5-/m0/s1
