18
gdb 61969	3.89133	0.76566	0.67028	5.7199	74.49	-0.2645	0.0149	0.2794	1640.8883	0.14652	-435.280233	-435.269991	-435.269047	-435.3167	35.384	
C	-0.0106380061	 1.4312605432	-0.1716669165	-0.462019
C	-0.0437482804	-0.0533221495	 0.0798884308	 0.394706
N	-0.1050793287	-0.6811055725	 1.1789280189	-0.510519
O	 0.0000113436	-0.7250742702	-1.0970239312	-0.249878
C	-0.0265431372	-2.1509740218	-1.0232119894	-0.058281
C	 0.106060532	-2.6361781945	-2.4785086301	-0.137076
N	 1.3270704097	-2.2184649679	-3.169712601	-0.505225
C	-0.0094472809	-4.100970063	-2.5094006842	 0.285856
N	-0.096792499	-5.252500767	-2.499945334	-0.310857
H	 0.8980000104	 1.7026949917	-0.7177778957	 0.146798
H	-0.8619859355	 1.7276410668	-0.7919360974	 0.151029
H	-0.041976618	 1.985986698	 0.7669639028	 0.133554
H	-0.1309871461	-0.0353123098	 1.9642923571	 0.226525
H	 0.8022133483	-2.5143718285	-0.4069481513	 0.131934
H	-0.960977135	-2.4892922383	-0.5641356762	 0.136675
H	-0.7436224497	-2.2283671536	-3.0411426722	 0.142025
H	 1.4016872959	-1.2092901453	-3.0788509015	 0.245102
H	 2.1381977368	-2.6156257778	-2.7024917288	 0.239652
45.271	59.1655	101.7389	112.9936	182.1972	197.2522	241.1008	268.122	315.347	389.4892	465.3262	545.681	570.9638	577.5187	630.5376	837.6993	860.8137	882.4028	940.5226	951.8112	987.0339	1068.8646	1076.4147	1085.0901	1117.745	1150.1929	1200.6798	1262.4537	1308.5186	1350.9296	1390.8639	1412.0513	1428.4064	1471.7234	1481.9662	1502.5044	1659.0475	1735.5437	2367.9277	3036.4834	3049.4922	3050.8635	3100.5194	3112.4967	3147.6507	3487.9452	3522.2361	3573.3808
CC(=N)OCC(N)C#N	C[C]([NH])OC[C@@H](N)C#N	
InChI=1S/C5H9N3O/c1-4(7)9-3-5(8)2-6/h5,7H,3,8H2,1H3	InChI=1S/C5H9N3O/c1-4(7)9-3-5(8)2-6/h5,7H,3,8H2,1H3/t5-/m0/s1
