20
gdb 93045	2.54973	1.7616	1.23301	2.1913	79.31	-0.2396	0.0284	0.268	1064.1688	0.173166	-403.160052	-403.152196	-403.151252	-403.1923	30.864	
C	-0.1038075202	 1.5601656787	-0.0762895956	-0.403681
C	 0.0265595859	 0.0485301119	 0.0132659534	 0.10912
O	 0.6525535052	-0.3909482798	-1.2134373845	-0.239691
C	 1.1794070154	-1.6396824603	-1.2168088107	 0.119929
N	 1.4455899913	-2.4105161316	-0.2500052231	-0.26461
C	 1.2555370601	-1.935982935	 1.1088764173	-0.00246
C	 2.6121963265	-1.5177920392	 1.7548055848	-0.21225
C	 2.2769081958	-0.0342920989	 1.4426679408	-0.242515
C	 0.7931911235	-0.4524421545	 1.2245637992	-0.015423
H	 0.8817477869	 2.0344293419	-0.0795799443	 0.129739
H	-0.6271142924	 1.8464469064	-0.9924738295	 0.128229
H	-0.6686650322	 1.939002495	 0.7808829722	 0.118582
H	-0.9743644624	-0.4080072814	 0.0303319424	 0.086171
H	 1.3852609591	-1.9483075216	-2.2410084655	 0.119534
H	 0.6775421225	-2.6831282079	 1.6599385947	 0.076025
H	 2.6298904948	-1.7220185685	 2.8288137098	 0.099651
H	 3.5021647362	-1.9477891749	 1.2924024626	 0.109454
H	 2.471574854	 0.6991638946	 2.2277220823	 0.097737
H	 2.7473350359	 0.3133624057	 0.5188732541	 0.113596
H	 0.1937035039	-0.2810707705	 2.1240093496	 0.072863
116.7255	128.8986	212.493	228.8577	295.2253	349.1737	441.8744	497.9677	547.3746	617.6263	690.3806	747.7937	815.3544	845.8027	857.1306	909.7732	939.9437	945.2999	963.7741	978.0089	1010.4509	1041.2896	1100.1098	1115.2472	1148.1063	1171.7428	1181.4721	1201.1694	1244.7619	1250.7214	1265.945	1281.0136	1339.5721	1346.0645	1375.9389	1386.2765	1407.7934	1417.819	1476.435	1484.4433	1494.1435	1499.1467	1724.2948	2993.294	3044.7711	3052.469	3060.1413	3063.1445	3069.874	3112.2282	3119.6556	3124.1126	3130.0288	3147.7501
CC1OC=NC2CCC12	C[C@H]1OC=N[C@H]2CC[C@@H]12	
InChI=1S/C7H11NO/c1-5-6-2-3-7(6)8-4-9-5/h4-7H,2-3H2,1H3	InChI=1S/C7H11NO/c1-5-6-2-3-7(6)8-4-9-5/h4-7H,2-3H2,1H3/t5-,6+,7+/m1/s1
