16
gdb 78417	3.19175	1.43206	1.23415	2.2883	68.28	-0.2382	-0.0077	0.2305	1018.6415	0.12446	-437.831918	-437.824678	-437.823734	-437.8635	28.57	
O	 0.0230954322	 1.2976682802	 0.0613722942	-0.42983
C	 0.035810415	-0.0931407725	-0.0446528873	 0.070697
C	-1.3507043056	-0.6697781155	 0.0438986476	-0.091958
C	-0.5909355724	-0.6607982206	-1.2926687812	-0.088067
N	-0.557147914	-2.1470677469	-1.2936293927	-0.146529
C	-1.3658697699	-2.2056224364	-0.0307299975	 0.007129
C	-0.2901825109	-3.1087669838	 0.6250431141	-0.397972
C	 0.5325172735	-2.8317377937	-0.661392316	 0.380447
O	 1.6568730496	-3.0169627075	-1.0187333154	-0.310313
H	 0.7523056672	 1.6420655549	-0.4658102205	 0.295747
H	 0.8936908958	-0.5855605451	 0.4144504432	 0.107198
H	-2.1742870813	-0.0418043764	 0.356737752	 0.11177
H	-0.7444558645	-0.0882835294	-2.1988729185	 0.113562
H	-2.3651721733	-2.6319913519	-0.1392293255	 0.096199
H	 0.1917821146	-2.7437001074	 1.5339370584	 0.142994
H	-0.590392186	-4.1490519177	 0.7715368653	 0.138926
114.4834	187.4107	272.7085	317.8536	327.0911	394.9566	467.1431	505.6928	560.961	652.8154	743.471	809.5376	835.0494	868.4096	896.9026	933.2224	970.4994	997.5234	1009.8865	1054.168	1059.8077	1087.8948	1100.9515	1144.9716	1148.4136	1181.7256	1195.3177	1223.2052	1240.4595	1294.6199	1306.8907	1347.6835	1438.6649	1448.6274	1892.4085	3077.103	3089.2226	3093.4578	3136.6178	3190.5039	3209.5564	3803.5336
OC1C2C1N1C2CC1=O	O[C@H]1[C@H]2[C@@H]1N1[C@H]2CC1=O	
InChI=1S/C6H7NO2/c8-3-1-2-4-5(6(4)9)7(2)3/h2,4-6,9H,1H2	InChI=1S/C6H7NO2/c8-3-1-2-4-5(6(4)9)7(2)3/h2,4-6,9H,1H2/t2-,4+,5-,6-/m0/s1
