20
gdb 60308	3.83014	0.7409	0.73641	3.6476	84.53	-0.2551	-0.0238	0.2313	1651.0439	0.168165	-403.152047	-403.141348	-403.140404	-403.188917	38.103	
C	 0.1207894379	 1.4715476671	 0.0167149253	-0.386903
C	-0.0160901385	-0.0561586405	 0.0320626825	 0.033827
C	 0.261164867	-0.6321963657	 1.4251254221	-0.3785
C	-1.4111757187	-0.4547872233	-0.4851916143	-0.16621
N	-1.5932131971	-1.8886227287	-0.6394207771	-0.319586
C	-2.4394653292	-2.6206662117	 0.1411903621	 0.290032
O	-3.1241930644	-2.1600870663	 1.0369760005	-0.362976
C	-2.4538442982	-4.0397601308	-0.2007677401	 0.212768
C	-2.4889007996	-5.2138308053	-0.45767945	-0.404631
H	 1.1191852838	 1.7783590172	 0.3429110323	 0.115879
H	-0.0459531214	 1.8820060288	-0.9851152431	 0.110575
H	-0.6062837078	 1.93622887	 0.6930019461	 0.120861
H	 0.7271156256	-0.4701657613	-0.6660986672	 0.066003
H	-0.4542731914	-0.242623703	 2.1578034171	 0.126433
H	 0.1806343445	-1.7227009642	 1.4306821974	 0.119502
H	 1.2682677461	-0.3674764113	 1.7627623177	 0.109573
H	-2.1840045447	-0.1221758475	 0.2130186916	 0.148211
H	-1.5987673214	 0.033382921	-1.4500049368	 0.10282
H	-1.0715242358	-2.3773136456	-1.3497191613	 0.253341
H	-2.5306225768	-6.2536863787	-0.673033845	 0.20898
40.704	46.2087	67.4209	155.1559	215.0184	234.3777	245.0173	279.678	310.2648	346.6267	414.802	435.2051	489.2643	571.4251	605.4303	656.9	675.0821	763.4782	818.434	851.7547	927.809	941.642	966.0023	971.8619	1078.4685	1142.6121	1181.0313	1196.6835	1235.3073	1293.5579	1332.6622	1374.8463	1393.6703	1403.5979	1427.0391	1477.5762	1486.912	1494.3064	1504.6355	1510.6509	1539.4308	1758.0555	2225.9177	2988.7906	3023.3681	3028.1026	3036.153	3091.8894	3100.6258	3104.8423	3109.2489	3113.9523	3496.6071	3635.5922
CC(C)CNC(=O)C#C	CC(C)CNC(=O)C#C	
InChI=1S/C7H11NO/c1-4-7(9)8-5-6(2)3/h1,6H,5H2,2-3H3,(H,8,9)	InChI=1S/C7H11NO/c1-4-7(9)8-5-6(2)3/h1,6H,5H2,2-3H3,(H,8,9)
