15
gdb 19682	4.54558	1.90742	1.6897	1.3824	63.7	-0.2412	-0.0309	0.2102	779.3801	0.119771	-362.604275	-362.597946	-362.597002	-362.635011	23.967	
O	-0.6796527272	 0.8622627173	 0.6068614474	-0.244255
C	 0.117175001	 1.0277554088	-0.2827819118	 0.131556
C	 1.2771647915	 1.9875077263	-0.2341464036	-0.078708
C	 1.3450670465	 3.1779972668	-1.1890478344	-0.076272
C	 0.6592350592	 4.3427297673	-0.5485199597	-0.03415
C	 0.1292278261	 3.9234240363	 0.8111035671	-0.239367
C	 1.405835207	 3.0610143337	 0.8642414395	-0.024285
N	 2.0813869782	 4.015244132	-0.181792065	-0.161033
H	 0.0376515072	 0.4525338633	-1.2353823757	 0.078147
H	 2.2096840005	 1.4155041476	-0.3295215992	 0.111397
H	 1.6341787117	 3.1729782292	-2.233610218	 0.102231
H	 0.4227739259	 5.2361516527	-1.1156313387	 0.100051
H	 0.1998215728	 4.7543313241	 1.5173184767	 0.115888
H	-0.8404014419	 3.4311146117	 0.9008223825	 0.125688
H	 1.9143494414	 2.846299573	 1.8006134028	 0.093112
84.9569	181.4561	214.3071	390.0488	469.9601	672.1365	694.6044	759.5142	778.3162	801.5714	833.9	879.8245	928.8917	977.2312	1007.0205	1021.7709	1033.577	1063.7158	1074.9211	1092.4695	1120.1888	1141.2653	1190.3118	1204.3687	1261.0876	1264.2972	1342.0883	1360.7364	1374.8847	1424.1914	1499.0343	1822.8942	2854.0325	3031.4846	3072.7234	3130.4138	3153.5048	3176.7607	3188.8135
O=CC1C2C3CC1N23	O=C[C@H]1[C@H]2[C@H]3C[C@@H]1N23	
InChI=1S/C6H7NO/c8-2-3-4-1-5-6(3)7(4)5/h2-6H,1H2	InChI=1S/C6H7NO/c8-2-3-4-1-5-6(3)7(4)5/h2-6H,1H2/t3-,4+,5-,6+,7?/m1/s1
