21
gdb 108484	1.97305	1.6506	1.28258	2.2872	77.98	-0.2395	0.0708	0.3103	1135.0171	0.181363	-424.181542	-424.172373	-424.171429	-424.215648	34.267	
C	-0.2576692008	 1.1890397359	 0.1579177889	-0.258307
O	-0.1833057819	-0.174075847	-0.2072051164	-0.28971
C	 0.7338583669	-0.4981529743	-1.2033257798	 0.369779
C	 1.0499662001	-2.004640258	-1.1996750287	-0.134476
O	 2.4754724469	-1.7678968052	-1.127742641	-0.286437
C	 2.295103175	-0.3411615311	-1.1594304786	 0.03394
C	 2.2626556125	 0.2222725597	-2.6028828961	-0.260433
C	 0.6966842884	 0.2031880241	-2.5946572012	-0.045308
C	-0.0585099486	-0.4335008902	-3.7531268722	-0.420302
H	 0.7344882222	 1.6011994329	 0.3910654396	 0.110508
H	-0.7215120295	 1.8103657358	-0.620023776	 0.11511
H	-0.8785654085	 1.2399019534	 1.0552655054	 0.131554
H	 0.6743514578	-2.4992329751	-0.2972622361	 0.112419
H	 0.7655790388	-2.5857118621	-2.0839130961	 0.099556
H	 2.8823980049	 0.176646278	-0.3976660733	 0.076964
H	 2.7023671252	 1.2148126632	-2.7268599454	 0.100127
H	 2.7264973633	-0.4646055454	-3.314934958	 0.11079
H	 0.3324760647	 1.2260016247	-2.4555498313	 0.07522
H	 0.316280331	-1.4365848464	-3.9816459239	 0.120425
H	-1.1278333865	-0.5170444347	-3.5296069124	 0.121009
H	 0.0447378181	 0.167755312	-4.6628791273	 0.117575
65.4805	84.71	168.9421	212.0589	227.4521	254.8447	263.8475	382.3755	418.3023	429.7698	524.0647	616.7739	625.2985	776.0158	837.034	865.3828	908.8664	941.2296	974.9116	1000.0377	1012.6026	1055.3896	1091.3704	1112.9915	1127.5995	1138.458	1166.28	1170.9907	1176.6667	1203.4871	1222.8297	1255.9912	1266.8926	1291.1444	1315.8992	1351.4593	1390.1321	1409.4115	1472.985	1479.7679	1493.4705	1494.1852	1497.671	1506.5612	1519.8066	2992.6292	3026.9687	3031.48	3043.3526	3054.5106	3062.0726	3079.9823	3083.826	3094.3692	3099.5044	3117.9486	3121.0467
COC12COC1CC2C	CO[C@]12CO[C@H]1C[C@H]2C	
InChI=1S/C7H12O2/c1-5-3-6-7(5,8-2)4-9-6/h5-6H,3-4H2,1-2H3	InChI=1S/C7H12O2/c1-5-3-6-7(5,8-2)4-9-6/h5-6H,3-4H2,1-2H3/t5-,6+,7+/m1/s1
