13
gdb 129894	5.60138	1.32921	1.07738	8.2273	66.43	-0.2261	-0.0019	0.2241	1015.7827	0.092469	-445.0873	-445.080513	-445.079569	-445.118266	26.079	
N	 0.1240121701	 1.3747908518	 0.1397702797	-0.60114
C	-0.0130546097	-0.0046154736	 0.0217702942	 0.336726
C	-1.1166326967	-0.8077218747	-0.0289846961	-0.207071
N	-0.6194591919	-2.1134546323	-0.0269684573	 0.050135
N	-1.034948332	-3.4046371224	-0.0555366707	-0.177588
N	 0.0637408808	-4.1071602726	-0.0347096263	-0.10863
N	 1.192688056	-3.3445090094	 0.0017732982	-0.360248
C	 0.7273558814	-2.1103131509	 0.0056537613	 0.537888
N	 1.135234966	-0.8026107219	 0.0147500184	-0.439026
H	 0.6526880472	 1.7937922017	-0.6179927225	 0.261942
H	-0.7684802994	 1.841814954	 0.2285305845	 0.264584
H	-2.1630508696	-0.572163893	-0.0893321543	 0.155341
H	 2.0519648978	-0.4822187966	 0.2755666408	 0.287087
151.1621	220.8167	304.7435	330.0763	340.9609	387.7787	507.7157	580.579	634.1753	662.3029	698.7423	756.5376	771.8354	820.1581	867.4563	1002.5509	1010.8484	1101.2289	1126.8376	1134.2866	1214.9719	1283.133	1296.7468	1381.6702	1438.5964	1486.1862	1627.7042	1631.8101	1678.7061	3309.5604	3519.9171	3627.7231	3681.7187
NC1=CN2N=NN=C2N1	Nc1cn2nnnc2[nH]1	
InChI=1S/C3H4N6/c4-2-1-9-3(5-2)6-7-8-9/h1H,4H2,(H,5,6,8)	InChI=1S/C3H4N6/c4-2-1-9-3(5-2)6-7-8-9/h1H,4H2,(H,5,6,8)
