18
gdb 44467	4.01709	1.35862	1.22523	1.7549	75.97	-0.2282	-0.0256	0.2027	1034.1272	0.149477	-401.87492	-401.868125	-401.867181	-401.906121	28.227	
O	 0.0204719956	 0.0335082144	 0.2343537784	-0.290667
C	-0.0137328979	 1.2194056377	 0.0644289782	 0.40134
C	-1.3310438608	 2.052810438	-0.1344678518	-0.403517
C	-0.7990183453	 3.412945844	-0.5660420271	 0.055987
N	-0.8634349796	 4.8016489084	 0.1537779358	-0.17136
C	-0.1396555118	 4.0928535076	 1.3055081333	-0.203829
C	 0.5899542152	 3.504778156	 0.0695392989	 0.288966
C	 0.5668259642	 4.9715138133	-0.4317588917	-0.250809
C	 1.2488375362	 2.1506261987	 0.0069267696	-0.473192
H	-1.9603545134	 1.5616011266	-0.8798193223	 0.133221
H	-1.8854559116	 2.0344419943	 0.8079743905	 0.147369
H	-0.8584263685	 3.5468515224	-1.6501636945	 0.079385
H	 0.4253491609	 4.7753326947	 1.9459297912	 0.101807
H	-0.7818630696	 3.4511322108	 1.9107438584	 0.105251
H	 0.5807588067	 5.1432082452	-1.5113115448	 0.107065
H	 1.1540802811	 5.7212812382	 0.104446933	 0.10623
H	 1.938456478	 1.8939798937	 0.8143705584	 0.132369
H	 1.7588361206	 1.9645658359	-0.9464384534	 0.134383
77.4677	278.7526	343.1334	375.3512	465.0487	477.1255	497.4394	606.1459	643.8254	692.2493	695.0197	738.9653	804.9258	819.1111	889.1845	908.1452	931.4531	962.9122	1001.4358	1038.3	1056.1098	1063.9452	1111.1306	1133.6943	1154.1477	1164.7283	1180.224	1196.6177	1218.4918	1223.0435	1247.8925	1276.5095	1329.568	1402.5467	1448.1601	1451.4463	1517.0902	1557.3837	1854.9015	3042.9345	3053.3374	3058.7751	3064.9522	3075.925	3110.0196	3117.2843	3124.9393	3130.8406
O=C1CC2N3CC2(C3)C1	O=C1C[C@H]2N3C[C@@]2(C3)C1	
InChI=1S/C7H9NO/c9-5-1-6-7(2-5)3-8(6)4-7/h6H,1-4H2	InChI=1S/C7H9NO/c9-5-1-6-7(2-5)3-8(6)4-7/h6H,1-4H2/t6-/m1/s1
