20
gdb 73216	2.10987	1.87525	1.42407	3.5836	78.34	-0.2341	0.035	0.2691	1029.3289	0.172877	-403.195052	-403.186759	-403.185815	-403.227763	32.154	
C	-0.1061751338	 1.5012329973	-0.0435504486	-0.473963
C	-0.0159698626	-0.0150554825	 0.0339709631	 0.221047
C	-1.2962095361	-0.8043428292	 0.4363122542	-0.262439
C	-0.4292284799	-1.7004275596	 1.3639324615	-0.231265
C	 0.7714762252	-0.7259054479	 1.1782322908	-0.050989
C	 2.0437407634	-1.3118857359	 0.546265521	-0.190292
N	 1.7074917501	-1.335064523	-0.8682183592	-0.308701
C	 0.6223906622	-0.5869003642	-1.2403606184	 0.36962
O	 0.2402350771	-0.4090878353	-2.3782340855	-0.398207
H	 0.8844706209	 1.960545225	-0.1371839838	 0.115047
H	-0.6917968737	 1.7931816643	-0.920679956	 0.142756
H	-0.5868859882	 1.9103921396	 0.8509695517	 0.108327
H	-1.9956898787	-0.1739706872	 0.9927258752	 0.099706
H	-1.8394185332	-1.2921890353	-0.3761588953	 0.116225
H	-0.787647636	-1.8275912895	 2.3874600578	 0.101235
H	-0.2323388646	-2.6909204108	 0.9439007984	 0.106709
H	 0.9848951802	-0.1165194694	 2.057706211	 0.071922
H	 2.9264640779	-0.6863616601	 0.7405808726	 0.104568
H	 2.2599429053	-2.3192785156	 0.9223653839	 0.109969
H	 2.3064713744	-1.7331459504	-1.5744711745	 0.248727
81.8118	153.5301	208.111	219.1029	249.8677	279.3005	372.0775	484.5586	527.8469	589.8925	627.6714	708.9026	729.2942	762.4597	805.0145	824.0652	878.0372	925.9061	949.2713	977.159	1015.8164	1033.7469	1081.635	1137.4428	1143.7275	1171.6196	1193.7872	1223.727	1234.0758	1243.869	1267.3099	1274.4865	1308.7092	1324.9066	1372.4707	1402.6556	1448.0289	1477.3004	1488.1197	1491.6687	1499.0843	1531.8409	1816.1111	2997.8569	3027.555	3042.876	3057.1507	3061.0482	3092.4994	3093.5274	3106.7999	3110.8122	3121.8707	3636.4142
CC12CCC1CNC2=O	C[C@]12CC[C@H]1CNC2=O	
InChI=1S/C7H11NO/c1-7-3-2-5(7)4-8-6(7)9/h5H,2-4H2,1H3,(H,8,9)	InChI=1S/C7H11NO/c1-7-3-2-5(7)4-8-6(7)9/h5H,2-4H2,1H3,(H,8,9)/t5-,7-/m0/s1
