19
gdb 60865	2.58427	1.32306	1.13503	2.5126	71.3	-0.2601	-0.0356	0.2245	1148.5056	0.15693	-460.158266	-460.14902	-460.148076	-460.192203	34.758	
O	-0.0511580521	 1.4491434889	 0.3421732622	-0.438798
C	 0.0404475356	 0.0761559779	 0.0843729209	 0.017709
C	 0.7620355193	-0.1584141222	-1.2303501551	 0.136575
O	 1.1728093403	 0.7710712571	-1.8867634335	-0.273524
C	 0.7474089745	-0.6774437731	 1.230791878	 0.376452
O	 0.6710107651	-2.0380998261	 0.8520332275	-0.488732
C	 2.1420025509	-0.0933466146	 1.6139446233	-0.281185
C	 1.4886115731	 0.5975453277	 2.8413683634	-0.201295
C	 0.2252309077	-0.2830878905	 2.6429471626	-0.278937
H	 0.3787191794	 1.8802733788	-0.4149968129	 0.296322
H	-0.9628619409	-0.3745664198	-0.0143733657	 0.102438
H	 0.8935418109	-1.207901655	-1.5443830843	 0.124374
H	 1.091813861	-2.5665848839	 1.5371186653	 0.281452
H	 2.832740977	-0.8952554237	 1.8946899681	 0.091386
H	 2.6338499702	 0.5453289167	 0.8760518637	 0.109789
H	 2.0111170045	 0.4983875849	 3.7947012511	 0.094669
H	 1.280716053	 1.6501997778	 2.6513932739	 0.125744
H	-0.748524192	 0.2086972837	 2.6911969924	 0.116383
H	 0.2104283727	-1.1583458748	 3.301579629	 0.089178
72.3376	108.7724	154.9251	215.2994	250.023	261.3412	311.8968	343.3891	397.1999	435.1201	485.8526	533.4011	621.0853	708.2274	770.2689	779.174	839.7228	877.6105	940.2228	950.0672	964.3021	975.2034	1044.2139	1096.922	1107.2535	1164.1585	1190.2372	1210.3506	1218.8994	1247.7842	1263.2334	1283.3885	1289.0956	1336.7933	1379.9954	1392.9711	1440.5013	1462.1721	1474.1272	1497.7926	1800.7942	2958.1779	3000.284	3044.5478	3049.9059	3080.9735	3103.9153	3112.4469	3147.1436	3668.1767	3822.5024
OC(C=O)C1(O)CCC1	O[C@@H](C=O)C1(O)CCC1	
InChI=1S/C6H10O3/c7-4-5(8)6(9)2-1-3-6/h4-5,8-9H,1-3H2	InChI=1S/C6H10O3/c7-4-5(8)6(9)2-1-3-6/h4-5,8-9H,1-3H2/t5-/m0/s1
