17
gdb 48436	3.69516	0.81663	0.73579	3.179	74.27	-0.2775	-0.054	0.2235	1499.0713	0.135216	-418.008883	-417.999783	-417.998839	-418.04373	32.051	
O	-0.3330901666	 0.4495558169	 1.0196263242	-0.266062
C	-0.1454618471	 1.2406672666	 0.125914659	 0.097726
C	 1.1619342254	 1.9334050735	-0.0962070727	 0.229741
C	 1.4327662441	 2.4908221257	-1.4774171082	-0.292252
C	 1.8185646696	 1.3699184156	-2.4675212165	-0.335626
C	 2.1172723106	 1.8827476484	-3.8014682747	 0.257552
N	 2.3462728897	 2.3097892771	-4.8504906369	-0.30126
C	 1.7178581022	 2.5944585736	 1.1364024751	-0.263023
N	 2.3137173811	 1.3689296008	 0.626640542	-0.337453
H	-0.9537223371	 1.5053530377	-0.5896793762	 0.090631
H	 0.5494430115	 3.0260141854	-1.8443671726	 0.126679
H	 2.2479608676	 3.2168444898	-1.4285274529	 0.136633
H	 2.6947223969	 0.8400191882	-2.0794635803	 0.177079
H	 1.0114206883	 0.6324092628	-2.5528694159	 0.151966
H	 2.3112573279	 3.4957384998	 1.0090816323	 0.134514
H	 1.119788471	 2.5462099386	 2.0419072745	 0.139766
H	 1.969355655	 0.5819690495	 1.1788146099	 0.253392
59.832	80.0247	105.5312	159.2345	215.3565	271.8657	326.0038	334.6972	405.521	450.1523	516.29	666.3993	759.8097	768.448	852.0359	910.1481	951.2783	959.4839	1009.265	1029.033	1036.9463	1047.2962	1120.1454	1144.6106	1182.4789	1277.5058	1293.4406	1306.3478	1339.4235	1364.266	1391.2872	1429.2887	1469.5003	1484.3514	1500.3574	1803.826	2363.7175	2901.6362	3041.7236	3051.3537	3087.185	3109.6468	3111.5926	3206.5547	3458.2073
O=CC1(CCC#N)CN1	O=C[C@@]1(CCC#N)CN1	
InChI=1S/C6H8N2O/c7-3-1-2-6(5-9)4-8-6/h5,8H,1-2,4H2	InChI=1S/C6H8N2O/c7-3-1-2-6(5-9)4-8-6/h5,8H,1-2,4H2/t6-/m1/s1
