18
gdb 18098	4.41562	1.89578	1.37085	0.	82.93	-0.1942	0.0023	0.1965	915.986	0.156719	-310.702923	-310.696122	-310.695178	-310.734176	26.461	
C	-0.0382294008	 1.5071149804	 0.0105858098	-0.247543
C	 1.4674576273	 1.9420657527	-0.0015402763	-0.36307
C	 2.2189811343	 0.6341353353	-0.0157098139	 0.339377
C	 3.4790927369	 0.1841714329	-0.0301640765	-0.255213
C	 3.5154478894	-1.3342807202	-0.0387557067	-0.247543
C	 2.0097609024	-1.7692315805	-0.0266299758	-0.36307
C	 1.2582375457	-0.4613011267	-0.0124544678	 0.339378
C	-0.0018740431	-0.0113371771	 0.001995747	-0.255214
H	-0.5640044662	 1.894823098	 0.8928426824	 0.104308
H	-0.5808624307	 1.9043608313	-0.8570969345	 0.104305
H	 1.7019213836	 2.5555019376	-0.877408822	 0.116119
H	 1.7187568866	 2.5462492956	 0.8760862228	 0.116114
H	 4.3824747422	 0.7838394127	-0.0355494513	 0.085603
H	 4.0412231585	-1.7219884619	-0.9210124891	 0.104308
H	 4.0580804288	-1.7315268852	 0.8289272485	 0.104304
H	 1.7584602171	-2.3734094778	-0.9042598612	 0.116114
H	 1.7752986149	-2.3826732891	 0.8492350815	 0.116119
H	-0.9052562269	-0.6110051981	 0.0073793932	 0.085604
65.0307	155.5016	242.8664	316.6598	424.7817	596.0978	608.7157	668.9114	765.5929	784.7643	799.6973	808.7546	837.8865	881.5327	902.3669	915.4309	983.7792	1002.5475	1025.4495	1030.3918	1061.6307	1158.1396	1160.8692	1180.4025	1237.5426	1238.4491	1262.6698	1270.0502	1279.6353	1309.0096	1331.4998	1393.048	1471.6781	1473.2436	1496.1956	1498.2113	1702.5079	1705.9951	3013.5526	3014.3668	3033.525	3033.5336	3049.8449	3050.0677	3082.2595	3082.4269	3192.2454	3192.3758
C1CC2=CCCC2=C1	C1CC2=CCCC2=C1	
InChI=1S/C8H10/c1-3-7-5-2-6-8(7)4-1/h3,6H,1-2,4-5H2	InChI=1S/C8H10/c1-3-7-5-2-6-8(7)4-1/h3,6H,1-2,4-5H2
