17
gdb 9533	2.8086	1.91337	1.60992	1.631	65.48	-0.2524	0.0196	0.272	893.2545	0.140682	-400.986161	-400.97769	-400.976746	-401.018989	30.446	
C	-0.0650240472	 1.4402007005	-0.016239691	-0.263532
O	 0.1268106417	 0.0316934671	 0.017019072	-0.286491
C	 0.7143837901	-0.5324269988	-1.1321490462	 0.275045
C	 2.142402779	-0.066396146	-1.3892270105	-0.460979
C	 0.4731095179	-2.059459246	-1.1425727641	-0.121297
O	-0.3381966491	-1.9347610969	-2.3549518883	-0.254863
C	-0.1941769258	-0.5665516784	-2.367812831	 0.400857
N	-0.6693903859	 0.3030683675	-3.137054879	-0.553117
H	 0.8855716801	 1.9863628135	 0.0478207447	 0.109494
H	-0.5972406601	 1.7512876987	-0.9219452596	 0.149882
H	-0.6661410073	 1.6852279793	 0.8621525782	 0.128541
H	 2.7494656651	-0.2106928966	-0.4900617947	 0.127806
H	 2.5889834477	-0.6327193141	-2.2114297782	 0.128693
H	 2.1659600867	 0.9902485617	-1.6666729903	 0.14238
H	 1.3424921785	-2.6968206785	-1.316672953	 0.117503
H	-0.1242931443	-2.4156965564	-0.3020859246	 0.131392
H	-1.2702910872	-0.1143354767	-3.8509399444	 0.228685
100.9266	118.9629	155.2222	200.9799	223.1777	274.7776	322.1397	358.052	422.4967	531.3791	679.6536	696.9905	761.5224	865.0825	900.1474	915.2546	951.6273	973.8734	1020.3789	1093.6537	1151.2632	1160.5627	1182.831	1203.0654	1240.8149	1245.8812	1261.737	1370.7319	1404.5091	1474.452	1482.1058	1488.222	1500.5106	1506.3344	1513.6549	1817.0215	3008.1758	3043.9481	3072.7774	3079.2753	3118.2671	3125.2836	3127.4019	3143.0633	3463.9185
COC1(C)COC1=N	CO[C@@]1(C)CO[C]1[NH]	
InChI=1S/C5H9NO2/c1-5(7-2)3-8-4(5)6/h6H,3H2,1-2H3	InChI=1S/C5H9NO2/c1-5(7-2)3-8-4(5)6/h6H,3H2,1-2H3/t5-/m0/s1
