17
gdb 31978	4.60644	0.90288	0.79693	2.7143	73.68	-0.2017	0.0204	0.2221	1434.9762	0.136384	-455.169442	-455.160266	-455.159321	-455.204044	32.235	
C	 0.055047127	 1.2982102054	-0.1509562304	-0.320343
N	-0.0815981884	-0.1431440417	-0.013733044	-0.38762
C	-1.3304380595	-0.6839085066	 0.036379874	 0.496962
N	-2.4605946746	-0.0743876555	 0.2408425444	-0.355098
C	-3.3891936764	-1.1128913701	 0.2512363295	-0.192026
C	-2.7789427444	-2.3001755786	 0.0512240966	 0.29824
C	-3.1939854932	-3.7190738106	-0.0639886537	-0.188937
O	-3.0772978271	-4.2524477199	-1.3814949293	-0.410468
O	-1.4163055264	-2.0292828023	-0.0921644051	-0.248316
H	 1.1044903919	 1.5663728201	-0.0125332905	 0.126658
H	-0.2878423224	 1.6706865829	-1.1256372713	 0.127059
H	-0.5402382562	 1.7852758604	 0.6234449135	 0.163613
H	 0.6041096785	-0.7147517916	-0.4818444366	 0.252485
H	-4.4409719739	-0.9247737301	 0.4021116453	 0.121677
H	-2.630192182	-4.3368276676	 0.6528485371	 0.101963
H	-4.2521333617	-3.7906373862	 0.2019965279	 0.128677
H	-2.156264071	-4.1590142979	-1.6456491675	 0.285475
73.4068	83.6672	121.2773	148.3083	188.0155	252.5518	304.9326	322.9421	438.933	442.2587	514.3389	631.8002	730.0746	755.0487	771.8346	866.9441	940.8485	965.9173	1008.517	1030.3762	1098.6102	1148.012	1157.47	1183.0256	1207.1224	1240.8997	1261.1156	1343.8577	1372.3171	1416.4365	1454.8065	1483.8477	1486.1584	1507.6752	1536.7933	1660.498	1668.6023	2979.3383	3014.5463	3098.0361	3102.027	3145.1844	3258.235	3630.6014	3818.575
CNC1=NC=C(CO)O1	CNc1ncc(CO)o1	
InChI=1S/C5H8N2O2/c1-6-5-7-2-4(3-8)9-5/h2,8H,3H2,1H3,(H,6,7)	InChI=1S/C5H8N2O2/c1-6-5-7-2-4(3-8)9-5/h2,8H,3H2,1H3,(H,6,7)
