19
gdb 70936	3.38926	1.47256	1.25944	2.1813	75.31	-0.2434	0.0748	0.3182	1031.0201	0.160868	-422.953157	-422.945744	-422.9448	-422.984722	30.183	
O	 0.0098975988	 1.3705990006	 0.0258402597	-0.468273
C	 0.0466233776	-0.0097248477	 0.0008068697	 0.372766
C	 0.6294577481	-0.9547709192	-1.1391584628	-0.381563
C	-0.0145340683	-1.8666629324	-0.0646492617	 0.306485
C	 0.6742469681	-0.9836175975	 1.0282399845	-0.327188
C	-0.6122699538	-3.2133172646	 0.2233933589	-0.192236
O	-1.6828915487	-2.8999771799	 1.1365990399	-0.285036
C	-2.0611587281	-1.4969913254	 1.0822466741	-0.121065
C	-1.2256324273	-0.8968368315	-0.0416862069	-0.061982
H	 0.9123644058	 1.7006641221	 0.0968211075	 0.284028
H	 0.1324334207	-0.9068598718	-2.1109013275	 0.101806
H	 1.718125846	-0.9894111743	-1.2351137984	 0.090096
H	 1.7666282979	-1.0309304041	 1.0556918901	 0.084066
H	 0.251013214	-1.000794111	 2.0321942874	 0.110461
H	-1.0039976953	-3.6889474355	-0.6880419835	 0.09602
H	 0.0549056261	-3.9183146665	 0.7292524423	 0.107396
H	-3.1330889508	-1.4376043581	 0.8667538877	 0.102182
H	-1.8904452154	-1.0525661721	 2.0689738828	 0.106269
H	-1.7771575255	-0.8376282111	-0.9844535336	 0.075767
114.2796	225.6548	245.7956	269.2139	346.4173	410.7493	483.3428	515.2318	576.2884	625.4708	687.3674	732.3673	796.2406	823.1462	869.9315	872.3023	955.8959	981.3169	1001.1498	1015.0192	1041.5281	1067.1587	1094.9345	1116.3245	1118.0972	1129.2333	1137.1771	1160.0208	1172.8926	1204.2475	1239.3413	1269.4327	1312.0276	1340.0601	1365.2229	1378.3286	1415.4243	1493.1192	1516.1694	1525.0778	1551.6063	2992.1975	3033.6468	3051.2362	3054.8696	3063.6468	3071.6987	3076.7921	3124.7278	3142.6669	3806.6219
OC12CC3(C1)COCC23	O[C@@]12C[C@]3(C1)COC[C@@H]23	
InChI=1S/C7H10O2/c8-7-2-6(3-7)4-9-1-5(6)7/h5,8H,1-4H2	InChI=1S/C7H10O2/c8-7-2-6(3-7)4-9-1-5(6)7/h5,8H,1-4H2/t5-,6-,7-/m1/s1
