21
gdb 64074	3.16651	1.16334	1.05654	3.7393	86.03	-0.2345	-0.047	0.1875	1240.8008	0.182635	-387.13994	-387.131053	-387.130109	-387.173056	34.858	
C	-0.0195355442	 1.5448726738	 0.0063040641	-0.425753
C	-0.0411811032	 0.0035681789	-0.0074559681	 0.227215
C	-1.5102781945	-0.4731699104	 0.084708917	-0.411122
C	 0.6336956956	-0.5075465628	-1.3006041395	-0.241526
C	 0.9949038049	-1.996747775	-1.2474680144	-0.336273
C	 1.8375045509	-2.3436604599	-0.0261071864	 0.384281
O	 2.6510035061	-3.2459991292	-0.0313130604	-0.335022
C	 1.5670824622	-1.5428080545	 1.1875803979	-0.18172
C	 0.7125817901	-0.512013905	 1.1979877813	-0.039823
H	 1.0059886719	 1.9274261867	-0.00829602	 0.120358
H	-0.5412943491	 1.9422790906	-0.8709271167	 0.117129
H	-0.5162617024	 1.9407787029	 0.898717763	 0.113491
H	-2.0975450475	-0.0527470189	-0.7389942971	 0.116947
H	-1.5883457763	-1.5630202033	 0.0411912991	 0.121711
H	-1.9690121463	-0.1467365747	 1.0238342235	 0.116917
H	-0.0149632941	-0.3034896603	-2.1600924164	 0.097682
H	 1.5531776401	 0.0695817303	-1.4597922273	 0.103926
H	 0.0861607956	-2.6117724647	-1.1941087765	 0.125117
H	 1.5360073486	-2.3178568417	-2.1412577883	 0.121408
H	 2.093594773	-1.8566556832	 2.0839687625	 0.104755
H	 0.5211700887	 0.0112564703	 2.1346835729	 0.100305
71.9504	195.9987	211.0547	237.9438	262.6611	309.6374	330.6225	373.1398	405.4927	454.1081	468.6866	523.2022	632.2573	698.7776	724.6065	759.7574	829.2254	898.7604	921.4526	939.924	968.5525	1003.4512	1023.5139	1032.4985	1046.4473	1132.6747	1136.1334	1190.2572	1223.3624	1249.6936	1262.618	1307.8461	1351.3384	1374.3861	1395.67	1400.8512	1425.8253	1460.9161	1480.991	1487.1731	1495.582	1501.0153	1511.0199	1678.9965	1779.9189	3021.5649	3025.5599	3028.42	3032.9839	3066.7482	3095.2608	3099.3749	3100.3497	3103.532	3112.1484	3129.189	3182.4392
CC1(C)CCC(=O)C=C1	CC1(C)CCC(=O)C=C1	
InChI=1S/C8H12O/c1-8(2)5-3-7(9)4-6-8/h3,5H,4,6H2,1-2H3	InChI=1S/C8H12O/c1-8(2)5-3-7(9)4-6-8/h3,5H,4,6H2,1-2H3
