14
gdb 48423	2.20255	1.68294	1.24368	2.4484	68.79	-0.2608	-0.0543	0.2065	1016.7117	0.098949	-436.660814	-436.652589	-436.651645	-436.694321	29.398	
O	-0.7922196928	 0.8186699284	 0.4998231071	-0.226665
C	 0.1650716347	 0.8932185677	-0.2171394988	 0.129071
C	 1.3477195651	 1.8641819248	 0.0170017137	 0.103441
C	 1.3950042945	 2.4339006493	 1.4672627855	-0.239346
N	 2.5503203536	 1.777130396	 2.0903076445	-0.247625
C	 3.0838258066	 1.0673041772	 1.1926684787	 0.117551
O	 2.5457507797	 1.0331045232	-0.0608242962	-0.253898
C	 1.3454278413	 2.8506676827	-1.0478079834	 0.280526
C	 1.2734612854	 3.6575296912	-1.9358088829	-0.436183
H	 0.2968915553	 0.2591284137	-1.1167383766	 0.116058
H	 1.5265137588	 3.5184603994	 1.4759298863	 0.135063
H	 0.470500014	 2.1896499274	 1.9969791846	 0.15514
H	 3.9691042945	 0.4522901067	 1.3068574644	 0.15172
H	 1.2287175391	 4.3801932322	-2.7137250072	 0.215147
65.7508	81.5468	158.5888	171.0214	253.5823	360.6214	464.8754	481.4971	515.9908	540.0134	635.0433	658.202	678.7384	794.6048	883.4905	926.999	949.8176	959.0987	981.2063	1037.1508	1111.4393	1134.5848	1172.0269	1242.7994	1312.7242	1331.5142	1399.6533	1493.5724	1717.1903	1842.9338	2233.3604	2939.1551	3069.5942	3114.6509	3223.0458	3497.3085
O=CC1(CN=CO1)C#C	O=C[C@]1(CN=CO1)C#C	
InChI=1S/C6H5NO2/c1-2-6(4-8)3-7-5-9-6/h1,4-5H,3H2	InChI=1S/C6H5NO2/c1-2-6(4-8)3-7-5-9-6/h1,4-5H,3H2/t6-/m1/s1
