13
gdb 24924	5.27964	1.38568	1.10104	4.9362	67.09	-0.1928	0.0103	0.2031	997.9379	0.092892	-448.947778	-448.941285	-448.940341	-448.978561	25.485	
N	-0.0561045146	 1.2607171444	 0.04512323	-0.576761
C	-0.0139605982	 0.0008676426	 0.0524997506	 0.437938
N	-1.1540777938	-0.8357071011	 0.1130872063	-0.438352
C	-0.6809234241	-2.1228116392	-0.140187756	 0.274044
C	 0.6736049036	-2.0890622711	-0.137924589	 0.32934
O	 1.1284340488	-0.7947061267	-0.0129158634	-0.245951
N	 1.2520437276	-3.3036183839	-0.0289021741	-0.33427
C	 0.2085070108	-4.1175634231	 0.033486162	-0.008806
N	-1.0033237131	-3.4458357137	 0.0311216288	-0.364187
H	 0.8776751527	 1.6572377843	-0.0189771417	 0.236398
H	-2.0028758491	-0.4455611339	-0.2676853773	 0.273398
H	 0.2528064948	-5.1950114254	 0.0192978539	 0.140727
H	-1.9116448255	-3.8756901632	-0.01581667	 0.276484
124.3768	256.1366	324.1558	353.6837	460.7827	483.9379	569.6671	610.0707	643.2366	711.6733	718.4208	738.9685	768.1731	774.2656	867.7062	909.5873	973.0115	1026.0509	1081.2614	1145.9882	1245.9087	1297.0672	1325.8175	1385.0986	1420.4904	1471.5419	1548.0931	1637.9401	1792.4437	3268.9643	3544.9876	3625.0153	3670.3543
N=C1NC2=C(O1)N=CN2	[NH][C@H]1Nc2c(O1)nc[nH]2	
InChI=1S/C4H4N4O/c5-4-8-2-3(9-4)7-1-6-2/h1H,(H2,5,8)(H,6,7)	InChI=1S/C4H5N4O/c5-4-8-2-3(9-4)7-1-6-2/h1,4-5,8H,(H,6,7)/t4-/m0/s1
