17
gdb 21040	3.8207	1.7334	1.21286	2.0751	72.78	-0.1909	0.0362	0.2271	993.9488	0.143166	-360.073135	-360.064632	-360.063688	-360.106147	30.555	
C	 0.051646598	 1.367416268	-0.0586985853	-0.320752
N	-0.0055399711	-0.0713865225	 0.0343846317	-0.015559
N	 0.0449208287	-0.8074380472	-1.1131438826	-0.352959
C	 0.0798220395	-2.069775435	-0.700181971	 0.379475
N	 0.1956923507	-3.1179441441	-1.6164660961	-0.590869
C	 0.050724558	-2.1587988441	 0.7113929965	-0.387717
C	-0.0003989702	-0.8479817186	 1.1481223517	 0.394669
C	-0.038160379	-0.2935983609	 2.5352050075	-0.50597
H	 1.0853202769	 1.7345822377	-0.0850732311	 0.132973
H	-0.4495043693	 1.6720527305	-0.9786612913	 0.152339
H	-0.4596040849	 1.8183950287	 0.794746078	 0.131615
H	-0.0282141467	-2.8103025169	-2.5545960254	 0.246019
H	-0.3635076647	-3.9235671507	-1.3698234769	 0.241659
H	 0.0660199788	-3.0452915548	 1.3252918755	 0.089369
H	 0.8344178831	 0.3329857955	 2.7539878673	 0.134345
H	-0.9314360066	 0.3173495403	 2.7116910868	 0.133324
H	-0.0488972512	-1.111476786	 3.2585887849	 0.13804
68.7913	123.3365	157.4606	198.1605	254.3574	275.5404	303.7819	363.7539	500.8526	604.4737	626.969	659.9992	686.7873	746.908	784.4703	822.1275	991.2015	1027.2385	1056.3104	1061.5511	1138.9224	1146.1722	1178.262	1225.2036	1321.5621	1416.0485	1431.9193	1456.607	1481.1808	1486.9963	1488.9895	1502.4137	1527.9409	1543.6935	1605.2571	1647.8904	3023.289	3026.2179	3073.8557	3102.1218	3127.1484	3147.2359	3255.5905	3539.4165	3634.6456
CN1N=C(N)C=C1C	Cn1nc(N)cc1C	
InChI=1S/C5H9N3/c1-4-3-5(6)7-8(4)2/h3H,1-2H3,(H2,6,7)	InChI=1S/C5H9N3/c1-4-3-5(6)7-8(4)2/h3H,1-2H3,(H2,6,7)
