14
gdb 43508	2.48788	1.44605	1.02612	3.2272	68.86	-0.2633	-0.0615	0.2018	1113.0503	0.101137	-432.905034	-432.896952	-432.896008	-432.938796	29.078	
N	-0.0567630735	 1.2833407444	 0.1065629883	-0.530849
C	-0.0121201243	 0.019232605	 0.01117382	 0.390908
C	-1.2435524174	-0.8612697714	 0.0157790352	-0.394863
C	-0.7327215533	-2.2871675691	-0.0539566267	 0.404475
O	-1.35569902	-3.3025682708	-0.1381216589	-0.273101
C	 0.835583231	-2.2268523685	-0.0159840918	-0.236593
N	 1.095706929	-0.8096776989	-0.1441168466	-0.328297
C	 1.3560432686	-2.814970114	 1.2260759097	 0.283858
N	 1.7836944692	-3.2481712806	 2.2084102581	-0.304958
H	 0.8747272191	 1.7027192801	 0.0877742594	 0.210936
H	-1.8322838341	-0.7149441575	 0.9267596401	 0.182519
H	-1.9048401505	-0.6460334678	-0.8282940258	 0.176264
H	 1.2202380966	-2.808853864	-0.8628771133	 0.160084
H	 2.0239969297	-0.4465205468	 0.0092402123	 0.259617
48.6227	65.2116	140.0701	248.3994	365.8197	394.7386	441.5967	477.6588	502.8538	550.7329	576.7993	622.3018	710.5285	780.3032	858.88	886.6812	936.2274	976.7912	1076.5706	1119.838	1141.0405	1156.8383	1216.1323	1249.5723	1325.7089	1383.0811	1416.3442	1421.6419	1761.6181	1885.2497	2354.0523	3033.7269	3072.4733	3112.2097	3456.8973	3626.6955
N=C1CC(=O)C(N1)C#N	[NH][C]1CC(=O)[C@@H](N1)C#N	
InChI=1S/C5H5N3O/c6-2-3-4(9)1-5(7)8-3/h3H,1H2,(H2,7,8)	InChI=1S/C5H5N3O/c6-2-3-4(9)1-5(7)8-3/h3H,1H2,(H2,7,8)/t3-/m0/s1
