19
gdb 93588	4.11293	0.93544	0.86104	1.8872	79.34	-0.2442	-0.0014	0.2428	1373.5725	0.159554	-423.012957	-423.004376	-423.003432	-423.046965	32.02	
O	-0.3270398836	 1.505000716	-0.3508661844	-0.431525
C	 0.0136219295	 0.1642357703	 0.0083956481	 0.104716
C	-1.2060225083	-0.7864116971	 0.1591272307	-0.25123
C	-1.2062900984	-1.6985093854	-1.0927742319	-0.321631
C	 0.1753312178	-1.4913647749	-1.6800752039	 0.356433
C	 0.8368041119	-0.5060892711	-1.063266396	-0.240476
C	 0.682692797	-2.2683945537	-2.8270423757	-0.031308
C	 0.3682306577	-3.6956597677	-3.0359885382	-0.184994
O	-0.2855782564	-2.6933080579	-3.8040367508	-0.231668
H	-0.657162837	 1.4827595942	-1.2562449261	 0.274148
H	 0.5521028211	 0.2771968235	 0.9548673735	 0.086474
H	-1.0866121769	-1.3940863915	 1.0610534192	 0.106003
H	-2.1249339454	-0.207347798	 0.2767191453	 0.109218
H	-1.3961136123	-2.7454672746	-0.8321415717	 0.107436
H	-1.9738347582	-1.4298860743	-1.8279665976	 0.124318
H	 1.824092109	-0.148416974	-1.3363273992	 0.093468
H	 1.6135762833	-1.9021803909	-3.2605260155	 0.093785
H	 1.080296431	-4.3168275232	-3.5783460095	 0.119656
H	-0.2587533217	-4.2241945697	-2.3203965063	 0.117177
55.854	84.143	131.8793	180.7922	273.8767	336.8317	369.6223	422.4167	514.4535	537.9007	615.5931	749.7605	769.6567	826.7377	846.2719	878.9001	894.5827	920.2767	957.837	988.0347	998.3221	1060.165	1072.9452	1096.7311	1146.2093	1161.4319	1169.0219	1185.2003	1234.0831	1265.6463	1269.7692	1285.2679	1300.1082	1331.8877	1365.7723	1416.1699	1431.1689	1478.163	1496.8087	1524.6717	1703.3999	3039.0013	3050.6734	3061.8315	3070.336	3085.516	3109.5032	3111.8742	3174.3783	3188.8126	3795.7142
OC1CCC(=C1)C1CO1	O[C@H]1CCC(=C1)[C@H]1CO1	
InChI=1S/C7H10O2/c8-6-2-1-5(3-6)7-4-9-7/h3,6-8H,1-2,4H2	InChI=1S/C7H10O2/c8-6-2-1-5(3-6)7-4-9-7/h3,6-8H,1-2,4H2/t6-,7+/m0/s1
