21
gdb 82622	2.27721	2.00017	1.4945	1.5169	80.18	-0.2236	0.0875	0.3111	1000.0034	0.184399	-387.099473	-387.091707	-387.090763	-387.131102	31.84	
C	-0.1055716584	 1.5968312335	 0.025569662	-0.424653
C	 0.0397698867	 0.0770675753	 0.0037049961	-0.023893
C	 0.9149141078	-0.530402157	-1.1225779716	 0.036703
C	 2.3488969286	-0.0914755062	-0.7545271978	-0.237077
C	 2.2975300676	-0.6375119303	 0.6669102005	-0.162237
C	 1.3652058342	-1.8264746481	 0.5585671167	 0.039829
O	 0.920879026	-1.9291837474	-0.7830842213	-0.262391
C	 0.8417450849	-0.5423613837	 1.1547469628	 0.303677
C	 0.4579951982	-0.3841322585	 2.5994097745	-0.509285
H	 0.8558594891	 2.1033231461	 0.1511170294	 0.11917
H	-0.5631488525	 1.9632808031	-0.9000038514	 0.113987
H	-0.7488926092	 1.9113565723	 0.8538824694	 0.119142
H	-0.9546076322	-0.3841521526	-0.0478616737	 0.073342
H	 0.583106443	-0.4020539868	-2.1513264846	 0.075088
H	 3.0933967263	-0.5976097667	-1.3758054015	 0.104776
H	 2.5037176068	 0.9877261548	-0.8169988122	 0.100907
H	 3.1373799263	-0.6156699657	 1.3488754453	 0.082438
H	 1.4706527451	-2.7701580918	 1.0758352983	 0.096968
H	 0.5031817939	 0.6639860605	 2.917988215	 0.118624
H	-0.562034368	-0.7432820173	 2.7808062305	 0.118806
H	 1.1286959859	-0.9519394134	 3.2528592237	 0.116078
183.6137	205.3223	208.2262	226.3324	285.567	330.484	448.7387	514.7033	577.5474	587.1046	663.8365	722.8109	774.1258	848.6726	869.0543	887.7131	897.5968	913.1841	952.2343	989.5361	1005.7492	1019.0476	1030.8157	1057.2056	1072.8773	1093.5628	1113.5245	1141.3054	1156.8292	1173.1163	1233.6279	1250.4301	1273.7775	1289.2878	1304.9505	1339.2787	1370.4216	1410.6728	1420.4087	1425.8436	1483.5075	1491.9457	1495.3099	1502.9243	1508.3139	3019.7352	3029.0503	3033.2936	3064.0592	3077.2332	3091.2313	3094.4977	3105.4726	3117.8172	3141.9423	3200.5354	3215.7025
CC1C2CC3C(O2)C13C	C[C@H]1[C@H]2C[C@@H]3[C@H](O2)[C@]13C	
InChI=1S/C8H12O/c1-4-6-3-5-7(9-6)8(4,5)2/h4-7H,3H2,1-2H3	InChI=1S/C8H12O/c1-4-6-3-5-7(9-6)8(4,5)2/h4-7H,3H2,1-2H3/t4-,5+,6+,7-,8+/m0/s1
