21
gdb 90262	3.75429	1.34885	1.15344	2.0407	83.68	-0.2059	0.0783	0.2843	1141.4368	0.183464	-383.189959	-383.181947	-383.181003	-383.222331	31.69	
C	-0.0138165975	 1.5802559303	 0.3059531057	-0.322086
N	 0.0664111712	 0.1458794521	 0.1503370512	-0.071566
C	-1.1836183231	-0.6388855674	 0.3083101285	-0.255661
C	-0.4144445528	-1.655406503	 1.1513382433	 0.382895
C	-0.8572998978	-2.6769650033	 2.1938606702	-0.359441
C	 0.2628650034	-3.5923652619	 1.6245052016	-0.167551
N	 0.4826078229	-2.6654390284	 0.4640341531	-0.149809
C	 1.6659108359	-1.7524878933	 0.6337106092	-0.184245
C	 0.757784094	-0.6371668385	 1.2056276306	-0.070151
H	 0.9888641036	 2.0178527516	 0.2538551292	 0.119319
H	-0.6055828712	 2.0068964973	-0.5111317829	 0.121412
H	-0.4774070307	 1.8991976498	 1.2602704086	 0.085247
H	-1.9491616477	-0.115204839	 0.9062142507	 0.083407
H	-1.6316114582	-0.9913944548	-0.6271698567	 0.10739
H	-0.7869472753	-2.3810065505	 3.2431545146	 0.106086
H	-1.8645283943	-3.0599321085	 2.0068245293	 0.11298
H	 1.1380011682	-3.6869438685	 2.278798729	 0.096344
H	-0.046429162	-4.5944466286	 1.3142680303	 0.106082
H	 2.409564924	-2.143540386	 1.3393025892	 0.090939
H	 2.1555097814	-1.5039806651	-0.3116771324	 0.107325
H	 1.0706624761	-0.0685957742	 2.0880923876	 0.061083
84.5433	156.9766	209.5417	256.8048	299.5411	337.5752	388.4152	439.7531	480.8222	671.8862	708.2396	746.7903	775.8496	802.822	887.2431	893.5985	921.5611	949.6125	977.9686	1000.4413	1017.0969	1070.8287	1089.4678	1116.0004	1139.4486	1151.8721	1170.2266	1182.3754	1194.2669	1212.9007	1220.7599	1228.8409	1260.6805	1273.4389	1299.5604	1306.0666	1331.742	1366.6235	1452.0536	1476.8774	1478.9747	1482.6769	1499.0973	1501.4574	1512.4155	2911.5874	2957.7895	3016.4508	3024.1054	3044.7251	3052.9532	3058.7792	3061.1401	3077.9495	3093.523	3095.6284	3111.2114
CN1CC23CCN2CC13	CN1C[C@@]23CCN2C[C@@H]13	
InChI=1S/C7H12N2/c1-8-5-7-2-3-9(7)4-6(7)8/h6H,2-5H2,1H3	InChI=1S/C7H12N2/c1-8-5-7-2-3-9(7)4-6(7)8/h6H,2-5H2,1H3/t6-,7-/m1/s1
