17
gdb 99071	4.33215	0.75302	0.73316	3.3766	70.46	-0.2742	0.0008	0.2751	1562.4917	0.134852	-455.182654	-455.172586	-455.171642	-455.218913	34.261	
C	-0.2161015573	 1.3732466783	 0.1579685027	-0.24386
O	-0.1926551818	-0.0553344354	 0.3010460567	-0.229059
C	 0.8444156825	-0.544400049	 0.9986729523	 0.468108
O	 1.7125438588	 0.132281054	 1.4889970975	-0.361735
C	 0.8038751258	-2.0617796235	 1.0543371063	-0.319627
C	 1.2755712586	-2.5449822049	 2.4350493333	-0.122313
N	 0.2765123828	-2.1964576715	 3.4458706846	-0.494946
C	 1.600551512	-3.9865825988	 2.4024854162	 0.255821
N	 1.8192262803	-5.1220178596	 2.4099233439	-0.321043
H	 0.6792023027	 1.7217942919	-0.3624765131	 0.143931
H	-1.1096415374	 1.5969547862	-0.4241634897	 0.13726
H	-0.2644490271	 1.8536346609	 1.1379326328	 0.147813
H	-0.2010136132	-2.4270405208	 0.831033939	 0.135889
H	 1.4735814831	-2.4433162517	 0.2756889025	 0.153333
H	 2.1921300015	-1.993856096	 2.6702110486	 0.159127
H	-0.5400418606	-2.7940561991	 3.3507709808	 0.24241
H	 0.6471091194	-2.3542734011	 4.3776002255	 0.248892
37.6117	69.8782	111.8103	123.7453	170.9709	199.0473	258.1598	284.5294	306.2726	381.7765	403.127	548.4725	582.6105	634.8508	716.5107	842.37	886.8903	922.1701	956.0439	1011.6409	1039.7096	1129.5251	1154.6869	1179.1141	1207.7718	1234.4946	1288.3455	1297.0596	1381.9646	1403.4993	1462.7199	1474.8783	1481.7332	1496.3138	1664.7019	1821.6185	2346.2931	3055.7021	3059.9098	3071.69	3118.9014	3132.7573	3164.4093	3497.2278	3579.5738
COC(=O)CC(N)C#N	COC(=O)C[C@@H](N)C#N	
InChI=1S/C5H8N2O2/c1-9-5(8)2-4(7)3-6/h4H,2,7H2,1H3	InChI=1S/C5H8N2O2/c1-9-5(8)2-4(7)3-6/h4H,2,7H2,1H3/t4-/m1/s1
