21
gdb 115212	4.07922	0.9649	0.81885	3.071	81.17	-0.2289	0.0209	0.2498	1436.1993	0.184259	-420.418296	-420.409174	-420.40823	-420.452502	34.071	
C	-0.1093353881	 1.5888577868	 0.0394810369	-0.380435
C	-0.0367917038	 0.0596673759	 0.0380071339	-0.199814
C	 0.7727200676	-0.5091673837	 1.2077280369	 0.031227
C	 0.6828785834	-2.0329462812	 1.2561435207	-0.084571
O	 1.5094820449	-2.6216440685	 2.2738158526	-0.254506
C	 2.7461847062	-2.0997101609	 2.5273166571	 0.370645
N	 3.6675335029	-2.7928893779	 3.0488995253	-0.505204
C	 2.9348237213	-0.6169692802	 2.2639844016	-0.245664
N	 2.1715844903	-0.0780090899	 1.1398941452	-0.294325
H	 0.8938410273	 2.0216450777	 0.04090571	 0.137124
H	-0.6472237055	 1.9568702786	-0.8391053993	 0.111784
H	-0.6319274969	 1.955784832	 0.9294828248	 0.115182
H	-1.048101979	-0.3646359487	 0.0695012186	 0.100873
H	 0.4101157536	-0.2915616752	-0.9029073851	 0.094602
H	 0.3670757034	-0.1105474553	 2.1494527681	 0.087514
H	-0.3330470621	-2.3744340735	 1.4763075882	 0.116309
H	 0.9792274075	-2.451279516	 0.2819107112	 0.097987
H	 3.3429592386	-3.751980987	 3.1954203442	 0.216111
H	 2.6231916224	-0.0816954784	 3.1718809018	 0.132262
H	 4.0002589742	-0.4248014049	 2.1299246543	 0.137007
H	 2.5764526018	-0.4073118997	 0.2658526433	 0.215892
64.9813	97.6786	161.1613	167.6606	197.424	263.399	346.2706	400.4364	431.2425	481.6934	514.1066	546.8512	709.0526	758.284	793.225	839.6147	886.4235	921.1442	939.7278	985.0238	994.4342	1018.6904	1050.7092	1095.884	1125.5628	1150.0968	1159.3172	1172.7277	1249.0097	1267.7422	1296.9273	1320.5825	1332.9407	1349.857	1386.1823	1392.338	1408.1343	1430.632	1463.4792	1474.0744	1493.3183	1494.1923	1506.0273	1511.4633	1748.7392	2988.2114	3001.1756	3014.7784	3017.8819	3039.8157	3050.8908	3083.068	3104.5271	3124.8229	3128.5826	3450.2955	3477.7297
CCC1COC(=N)CN1	CC[C@H]1CO[C]([NH])CN1	
InChI=1S/C6H12N2O/c1-2-5-4-9-6(7)3-8-5/h5,7-8H,2-4H2,1H3	InChI=1S/C6H12N2O/c1-2-5-4-9-6(7)3-8-5/h5,7-8H,2-4H2,1H3/t5-/m0/s1
