22
gdb 100712	2.11155	1.12695	0.87405	3.0046	78.54	-0.2454	0.0314	0.2767	1423.4064	0.191719	-441.523523	-441.512047	-441.511103	-441.560804	40.694	
C	-0.0814233782	 1.5425202779	-0.0655400965	-0.420452
C	 0.0731624039	 0.0181173776	-0.0263720475	 0.033335
C	 0.9587081378	-0.4544120318	-1.1922167863	-0.076683
O	 0.4282174719	-0.118070027	-2.4654255859	-0.42043
C	 0.6261220359	-0.5121251952	 1.3162861476	-0.092169
C	-0.1610581009	-0.0086014522	 2.5409068981	-0.402988
C	 0.5647341421	-2.0448674259	 1.3304679675	 0.411364
N	 1.6993993395	-2.6758424021	 1.7499315357	-0.52672
O	-0.441370641	-2.6578066897	 1.0225623941	-0.380542
H	 0.8543909021	 2.0428194012	 0.214410257	 0.105441
H	-0.3332789936	 1.8549304152	-1.0819788986	 0.131195
H	-0.8674726774	 1.8982361166	 0.605207102	 0.113457
H	-0.9120902553	-0.4495695688	-0.1575324956	 0.090129
H	 1.9353056856	 0.0438109944	-1.1416211661	 0.099192
H	 1.137737501	-1.5368412768	-1.1191337411	 0.098172
H	-0.3855601348	-0.6198034647	-2.5803808304	 0.28458
H	 1.6715030391	-0.1867240098	 1.4185855177	 0.059798
H	-1.2128021095	-0.297063948	 2.4568868806	 0.139056
H	 0.2348030259	-0.445356851	 3.4634474074	 0.114666
H	-0.1007433651	 1.0779917462	 2.6326881776	 0.121321
H	 2.542319588	-2.1786596058	 1.9750258646	 0.258588
H	 1.6970606129	-3.6815903204	 1.8039758381	 0.259691
37.5923	65.6803	97.8058	138.6357	160.1959	214.1807	226.0439	231.8046	275.812	309.2784	325.8311	353.3523	401.137	426.409	533.071	595.5792	628.4871	774.2299	791.8115	854.7532	909.1762	922.5623	970.85	1034.922	1059.9148	1075.7163	1104.6561	1121.4206	1147.3594	1166.7344	1227.5993	1265.3946	1299.1492	1350.8186	1365.1093	1390.8389	1398.9878	1408.6228	1411.0775	1422.1498	1489.1653	1496.2358	1499.7536	1504.3462	1511.1101	1614.5996	1787.0071	2996.0616	3000.1528	3020.5399	3028.4908	3042.1785	3054.3604	3099.0626	3109.3285	3123.4764	3129.9386	3600.8935	3741.3213	3812.0493
CC(CO)C(C)C(N)=O	C[C@@H](CO)[C@@H](C)C(=O)N	
InChI=1S/C6H13NO2/c1-4(3-8)5(2)6(7)9/h4-5,8H,3H2,1-2H3,(H2,7,9)	InChI=1S/C6H13NO2/c1-4(3-8)5(2)6(7)9/h4-5,8H,3H2,1-2H3,(H2,7,9)/t4-,5+/m0/s1
