19
gdb 53732	3.62321	0.73926	0.65037	3.8044	90.6	-0.2488	-0.0414	0.2074	1755.5639	0.156188	-385.87772	-385.867483	-385.866539	-385.914317	36.05	
C	-0.451201426	 1.3974844063	 0.0158119894	-0.476451
C	 0.1076129956	-0.0128611662	 0.0321950354	 0.236803
O	 0.5496028524	-0.5309550569	 1.037789566	-0.284264
C	 0.0802453567	-0.7069552141	-1.2363281579	 0.064548
C	 0.0632364755	-1.2990391986	-2.2916004156	-0.001908
C	 0.0395846204	-1.9932347888	-3.5447381652	 0.162152
C	-0.5429371015	-1.2218079922	-4.7199322554	-0.458447
C	 1.1842803648	-2.9692409689	-3.8119261743	-0.282899
C	-0.1753181527	-3.5048879555	-3.4896020003	-0.282903
H	 0.1049289466	 2.0154235417	-0.6973865373	 0.142899
H	-1.49474243	 1.3858489499	-0.3169026752	 0.142934
H	-0.3828728169	 1.8280955056	 1.0159452323	 0.140191
H	 0.0265448956	-0.3066376864	-4.908794442	 0.130207
H	-0.5178134228	-1.8320018733	-5.6277301117	 0.117978
H	-1.5827861613	-0.9405780379	-4.5272197268	 0.130209
H	 1.5348809744	-3.0257465231	-4.8367676931	 0.122909
H	 1.9592460719	-3.0483776119	-3.0595447194	 0.136565
H	-0.3338285501	-3.9517626693	-2.5159056285	 0.136566
H	-0.7679021227	-3.9330163304	-4.2908295905	 0.122909
31.9731	67.7074	93.7855	119.4515	172.3024	210.2876	256.8813	274.0845	338.922	415.3763	495.2363	555.3762	574.414	608.3709	629.8088	770.5229	794.0255	828.1233	940.7755	945.2433	954.9751	1006.3368	1041.8847	1050.354	1076.7456	1082.0993	1118.155	1196.4024	1218.4543	1289.4204	1352.8594	1382.2434	1413.8083	1461.6151	1465.1998	1469.7584	1487.3249	1495.6123	1501.7714	1758.6825	2310.739	3036.7996	3038.7584	3102.9888	3108.0609	3111.4143	3140.0374	3144.0196	3150.1346	3227.5451	3241.5813
CC(=O)C#CC1(C)CC1	CC(=O)C#CC1(C)CC1	
InChI=1S/C8H10O/c1-7(9)3-4-8(2)5-6-8/h5-6H2,1-2H3	InChI=1S/C8H10O/c1-7(9)3-4-8(2)5-6-8/h5-6H2,1-2H3
