24
gdb 116652	3.52142	0.71715	0.67843	2.6292	90.78	-0.2439	0.0255	0.2694	1820.236	0.213992	-405.550279	-405.538588	-405.537644	-405.588007	41.25	
C	 0.4403877725	 0.8409119204	-0.4599756365	-0.249416
O	-0.3896533343	 0.2141871497	 0.5077907821	-0.195554
C	-1.1944356799	-0.7659271252	 0.0358185068	 0.120381
N	-1.9549387459	-1.3824600841	 0.8225045018	-0.235182
C	-2.8443248104	-2.4438359932	 0.3613191151	 0.065482
C	-2.7984288732	-2.7788226346	-1.1366519071	-0.419406
C	-2.6284376542	-3.6724479596	 1.2889178892	 0.061077
C	-3.7625326723	-4.698787152	 1.1707887997	-0.403682
C	-1.2572118847	-4.3337003135	 1.0976733937	-0.3956
H	 1.0136160137	 1.6014441405	 0.0718391098	 0.144572
H	 1.135316683	 0.1272960734	-0.9203434148	 0.123994
H	-0.1504872173	 1.3254429972	-1.2475544682	 0.123854
H	-1.1004351426	-0.930672469	-1.0454324353	 0.073839
H	-3.8600315967	-2.0834561836	 0.5821793958	 0.082125
H	-1.8128471097	-3.1365200398	-1.4521177817	 0.117691
H	-3.5267934326	-3.5585626945	-1.3736926251	 0.117863
H	-3.0513835882	-1.9046549172	-1.7456081415	 0.113382
H	-2.6540391346	-3.2576151401	 2.3037455845	 0.087456
H	-3.7573576211	-5.2070306786	 0.2001393436	 0.111471
H	-3.6602586172	-5.4722476925	 1.9390544116	 0.111537
H	-4.7446629298	-4.230528735	 1.2995605212	 0.108171
H	-1.0898789705	-5.0986121004	 1.8629971504	 0.108943
H	-1.176452386	-4.8283313398	 0.1229603851	 0.10581
H	-0.450804628	-3.5991992585	 1.1767433201	 0.121191
38.9662	59.273	79.1877	140.7628	151.7791	203.0864	224.1942	241.9956	280.1398	291.7686	307.8984	319.0819	361.006	425.8337	497.4081	554.5548	639.9018	760.1965	886.0444	928.3509	929.0646	965.3217	984.415	1014.4952	1026.7636	1068.6617	1109.536	1148.0383	1171.7992	1176.9128	1185.7684	1212.2029	1272.0141	1317.7114	1331.2643	1367.5097	1381.4846	1396.8736	1402.8034	1418.0055	1420.779	1483.4403	1487.4973	1491.425	1494.2669	1496.7672	1501.5496	1509.3356	1509.9435	1511.9138	1773.714	2989.2868	3006.5687	3025.4246	3029.2144	3031.5837	3034.0055	3041.6669	3069.7289	3088.6349	3093.7474	3096.7738	3101.3272	3112.4943	3117.0085	3141.4387
COC=NC(C)C(C)C	COC=N[C@@H](C)C(C)C	
InChI=1S/C7H15NO/c1-6(2)7(3)8-5-9-4/h5-7H,1-4H3	InChI=1S/C7H15NO/c1-6(2)7(3)8-5-9-4/h5-7H,1-4H3/t7-/m0/s1
