16
gdb 28381	3.21611	1.41269	0.98359	2.9782	82.73	-0.1659	-0.0145	0.1513	1145.26	0.126107	-434.106243	-434.098076	-434.097132	-434.138492	32.112	
N	 0.1351249899	 1.3624212278	 0.1762257445	-0.569407
C	-0.0605688494	-0.0041423597	 0.049802228	 0.402482
C	-1.2305971644	-0.6794777391	 0.0318100332	-0.251338
C	-1.1982368035	-2.1107470954	-0.0193344257	-0.157405
C	-0.0196121488	-2.7884158762	-0.0550710516	 0.206655
N	 0.1272699878	-4.167562114	-0.1718336497	-0.587393
C	 1.2282355097	-2.0376451072	-0.0198156582	 0.363423
N	 2.3687758653	-2.6078933179	-0.0174594407	-0.563639
O	 1.1295680815	-0.656777569	 0.0147188204	-0.260621
H	 0.988301297	 1.6841572788	-0.2614631493	 0.25739
H	-0.6632708317	 1.9143178296	-0.1022527137	 0.257915
H	-2.1686633447	-0.1417346146	 0.0596789353	 0.089164
H	-2.1355888789	-2.6574724211	-0.0407357063	 0.090058
H	-0.6005199486	-4.7134381315	 0.2652599951	 0.241051
H	 1.0597648867	-4.4674724889	 0.0836776934	 0.264122
H	 3.1250906821	-1.9268351415	 0.0220398053	 0.217543
115.3096	164.5411	245.93	315.1187	321.2217	341.7862	374.8612	404.7611	474.1775	525.8669	575.206	608.3839	652.92	691.1623	741.4095	761.7836	774.2061	799.8996	810.9622	892.5862	976.8311	1017.0188	1103.0605	1137.722	1160.4932	1255.9811	1287.416	1322.4341	1434.2765	1445.0685	1609.4226	1629.2176	1654.7014	1678.2402	1734.3699	3178.0907	3217.9612	3508.8057	3541.0635	3554.4002	3654.4854	3661.2944
NC1=CC=C(N)C(=N)O1	NC1=CCC(=C([NH])O1)N	
InChI=1S/C5H7N3O/c6-3-1-2-4(7)9-5(3)8/h1-2,8H,6-7H2	InChI=1S/C5H8N3O/c6-3-1-2-4(7)9-5(3)8/h2,8H,1,6-7H2
