19
gdb 112442	3.20505	1.12382	0.95725	4.2009	71.88	-0.2388	-0.0163	0.2225	1262.5014	0.158069	-460.183226	-460.174166	-460.173222	-460.217456	33.516	
C	-0.6508655366	 1.2425088624	-0.6543959725	-0.252651
O	 0.2775934201	 0.3987259531	 0.0046379902	-0.255273
C	 0.8956671695	-0.5570140147	-0.8397114478	 0.085959
C	 2.181895733	-1.0852957145	-0.2015987802	-0.343387
C	 2.3289813794	-2.5127617286	-0.7400881162	 0.409001
O	 3.3105568459	-3.2009344234	-0.6507532815	-0.311845
C	 1.0172498025	-2.9038755681	-1.43404249	-0.330513
C	 0.0176632068	-1.8279457801	-1.0178784562	 0.094594
O	-0.5268675075	-2.1920437004	 0.2384943278	-0.446946
H	-0.1651100005	 1.8158717879	-1.4566930087	 0.118439
H	-1.4922271019	 0.6829357485	-1.086096062	 0.118376
H	-1.0374940074	 1.9372855594	 0.0943115464	 0.136756
H	 1.1050443733	-0.1096225309	-1.8231675654	 0.074932
H	 3.0725720565	-0.4860141703	-0.3974779373	 0.128808
H	 2.0492278188	-1.1438231156	 0.8845965284	 0.149536
H	 1.1905807772	-2.8934955543	-2.5177000353	 0.126036
H	 0.6960493555	-3.9101351101	-1.157569208	 0.145021
H	-0.7793217216	-1.6810013816	-1.7606155956	 0.064747
H	-0.7059046529	-1.3625536187	 0.7023967341	 0.288411
62.1221	92.5456	126.1935	177.2586	262.2608	290.4467	347.1977	380.9127	459.2271	480.7739	494.5678	551.6902	620.5791	681.4341	785.503	831.2067	848.7985	940.8462	957.6402	1017.5813	1032.9284	1101.6846	1140.3187	1142.1486	1171.143	1183.5195	1202.8663	1221.3772	1243.6327	1259.1885	1308.3185	1327.8117	1367.8519	1387.1263	1419.4021	1433.8242	1444.7419	1482.1977	1491.3126	1509.2359	1854.3124	2986.468	2990.6666	3003.1261	3044.6185	3047.7571	3060.7936	3121.3215	3124.2152	3125.1771	3746.6163
COC1CC(=O)CC1O	CO[C@H]1CC(=O)C[C@H]1O	
InChI=1S/C6H10O3/c1-9-6-3-4(7)2-5(6)8/h5-6,8H,2-3H2,1H3	InChI=1S/C6H10O3/c1-9-6-3-4(7)2-5(6)8/h5-6,8H,2-3H2,1H3/t5-,6+/m1/s1
