20
gdb 74850	2.42864	1.79326	1.22482	1.4986	85.73	-0.2168	0.016	0.2328	1077.7063	0.172223	-365.9905	-365.982498	-365.981553	-366.022663	32.12	
C	 0.0931882414	 1.4878092863	 0.0341084822	-0.510365
C	 0.0097280825	-0.0075674576	 0.0099274762	 0.234591
C	-0.1004641313	-0.7906911831	-1.0735423856	-0.188047
C	-0.0492234399	-2.2414071735	-0.7392451383	-0.087818
C	 1.2492498187	-2.7168948214	-0.1105430791	-0.287931
C	 0.1045246513	-2.2895315114	 0.7711236057	-0.108897
C	 0.0772943457	-0.8572321289	 1.2466008639	 0.282347
C	 0.7109082349	-0.3954704615	 2.5123697166	-0.290169
N	-0.7481454867	-0.5644699188	 2.4397869505	-0.366379
H	 1.0818435095	 1.8336649585	 0.3610437277	 0.130639
H	-0.093611416	 1.9053241635	-0.9585715411	 0.129745
H	-0.63874205	 1.9313420369	 0.7214482034	 0.118618
H	-0.1696137514	-0.4239004549	-2.0920968374	 0.090218
H	-0.6573221467	-2.9523970716	-1.2873591202	 0.086578
H	 1.4646920559	-3.7799841839	-0.1487580109	 0.108415
H	 2.1184182957	-2.0723927466	-0.1955257756	 0.109184
H	-0.4040505677	-3.0277678126	 1.3784447503	 0.096968
H	 1.2250374291	-1.1150565948	 3.1441112587	 0.118307
H	 1.1217670549	 0.610553372	 2.5496682195	 0.106352
H	-1.2019332101	 0.3412093233	 2.3414732635	 0.227643
110.4511	162.9783	211.9017	251.7563	269.5057	369.993	427.1005	453.5039	524.7935	613.1512	649.1247	719.6481	806.1223	811.9469	840.6597	861.3778	899.1246	918.4768	949.4764	979.2064	993.057	999.9438	1028.5955	1060.7856	1068.0163	1068.6147	1093.434	1100.3985	1127.1958	1181.4331	1195.525	1254.2189	1262.2542	1307.667	1349.4274	1365.3008	1402.1501	1416.3103	1477.2689	1479.9419	1489.3702	1510.3589	1688.5662	3015.7497	3059.6237	3101.9708	3112.6823	3121.7302	3167.1774	3185.7444	3188.3261	3191.6754	3212.2115	3490.0186
CC1=CC2CC2C11CN1	CC1=C[C@H]2C[C@H]2[C@]21CN2	
InChI=1S/C8H11N/c1-5-2-6-3-7(6)8(5)4-9-8/h2,6-7,9H,3-4H2,1H3	InChI=1S/C8H11N/c1-5-2-6-3-7(6)8(5)4-9-8/h2,6-7,9H,3-4H2,1H3/t6-,7+,8+/m0/s1
