22
gdb 14874	3.67629	1.2173	0.99816	1.7531	78.44	-0.239	0.0823	0.3213	1269.0665	0.199514	-350.197736	-350.18826	-350.187316	-350.23302	33.864	
C	-0.059079352	 1.6731995898	-0.1789924805	-0.387105
C	-0.0062865505	 0.1889651292	 0.200018725	-0.189509
C	-1.3692500722	-0.488027901	 0.0808608676	-0.047316
C	-1.8579559938	-0.8093489336	-1.3498017787	-0.076215
O	-1.8222536912	-2.2274060443	-1.1015170016	-0.294538
C	-1.4745958582	-2.0268446016	 0.2920660801	 0.142158
C	-0.2642594714	-2.8453045747	 0.7104664694	-0.186841
C	-0.5301160726	-4.350059161	 0.5927348289	-0.385444
H	 0.927867819	 2.1388848281	-0.0997491308	 0.114568
H	-0.4073335895	 1.8091300951	-1.2089682328	 0.118871
H	-0.7429862182	 2.2245448287	 0.4758581982	 0.115395
H	 0.7206310287	-0.3240072884	-0.4412679476	 0.102776
H	 0.3644779884	 0.0877601223	 1.2278127234	 0.097991
H	-2.1009882739	 0.0678456567	 0.6752442816	 0.07065
H	-2.8694510962	-0.4613323775	-1.5966493152	 0.09508
H	-1.178653528	-0.5190155644	-2.1625811406	 0.095292
H	-2.3282778439	-2.298910974	 0.9327985177	 0.063962
H	 0.5951966423	-2.5737272209	 0.088038845	 0.098246
H	-0.0065014707	-2.5858018337	 1.7458320537	 0.093041
H	 0.3560853756	-4.9315342524	 0.8637040668	 0.108747
H	-1.3494888133	-4.6603456892	 1.2507418996	 0.11165
H	-0.8086095084	-4.607073173	-0.4330471491	 0.138542
26.0984	91.4696	118.2552	136.9326	213.817	223.7353	257.3533	304.9533	392.5621	451.826	506.9011	743.4387	771.7298	808.6686	828.4903	884.7433	938.9474	954.1685	973.6867	997.4545	1033.5898	1049.9517	1059.8953	1111.3474	1136.9596	1157.9148	1170.1151	1199.1991	1252.951	1271.9967	1294.5486	1304.5732	1325.7503	1345.5806	1369.9767	1397.8659	1405.8612	1412.0633	1415.6376	1473.8614	1487.2369	1498.401	1499.863	1506.4396	1509.7709	1527.0694	2970.0216	3001.246	3020.0524	3027.2897	3030.3387	3035.8292	3036.7811	3049.5019	3063.8008	3073.1779	3097.374	3103.1406	3104.5026	3119.9786
CCC1COC1CC	CC[C@H]1CO[C@H]1CC	
InChI=1S/C7H14O/c1-3-6-5-8-7(6)4-2/h6-7H,3-5H2,1-2H3	InChI=1S/C7H14O/c1-3-6-5-8-7(6)4-2/h6-7H,3-5H2,1-2H3/t6-,7-/m0/s1
