17
gdb 81492	2.27245	1.96643	1.20939	4.3461	73.63	-0.2587	0.0278	0.2866	1018.5158	0.135482	-417.94106	-417.932702	-417.931757	-417.973623	31.801	
C	-0.1021115711	 1.5343072744	 0.0125150399	-0.467163
C	-0.040962388	 0.002808273	-0.0026213816	 0.230305
C	-1.3598400807	-0.5060783605	-0.3715013517	 0.221127
N	-2.4404103913	-0.7545129966	-0.7002055613	-0.354317
C	 1.2179832559	-0.6836763723	-0.64423475	-0.126592
N	 2.012597172	-0.1076538063	 0.5083434777	-0.329141
C	 0.7724150601	-0.7135329647	 1.1407272068	-0.093856
C	 0.9656520236	-1.9557200528	 0.2376342808	 0.120718
O	-0.1225418194	-2.8074805657	 0.0722755218	-0.408213
H	 0.869697846	 1.9467710812	 0.2784491674	 0.153578
H	-0.4002633802	 1.9085651637	-0.9711474959	 0.133392
H	-0.8519689711	 1.871875096	 0.7338467505	 0.134588
H	 1.5554855613	-0.6053668319	-1.6790475186	 0.094575
H	 2.8161025255	-0.713666114	 0.7013078148	 0.217426
H	 0.5819753091	-0.6662621304	 2.2131234364	 0.100978
H	 1.8935765528	-2.5064152543	 0.452507924	 0.076341
H	-0.0425070246	-3.278392909	-0.7637992612	 0.296253
121.0658	160.5844	200.372	206.6526	251.9199	288.4213	358.7051	368.6887	517.6038	554.5171	561.6802	628.1455	674.892	772.0096	829.3625	877.0838	901.3777	911.8476	941.2882	1043.8082	1079.8064	1123.9914	1127.5424	1138.0661	1152.6039	1160.7079	1187.0721	1240.9267	1262.9006	1282.2302	1294.3325	1321.8554	1399.4174	1425.659	1488.5213	1501.2608	2347.8095	2991.981	3052.471	3106.4303	3114.1611	3121.3186	3168.1791	3392.5489	3818.0008
CC1(C#N)C2NC1C2O	C[C@@]1(C#N)[C@H]2N[C@@H]1[C@H]2O	
InChI=1S/C6H8N2O/c1-6(2-7)4-3(9)5(6)8-4/h3-5,8-9H,1H3	InChI=1S/C6H8N2O/c1-6(2-7)4-3(9)5(6)8-4/h3-5,8-9H,1H3/t3-,4-,5+,6+
