19
gdb 92039	2.31698	2.01839	1.48901	3.2777	73.68	-0.2164	0.0546	0.271	950.3358	0.162696	-419.15191	-419.144743	-419.143799	-419.183128	29.767	
O	 0.1306641315	 1.43087436	-0.1363234415	-0.439776
C	 0.0553857898	 0.0197076027	-0.0156309387	 0.104808
C	 0.8284141412	-0.4851506404	 1.2256715056	-0.162264
N	 0.19822924	-0.3861496181	 2.5408727397	-0.105037
C	-0.5212280015	 0.8322012353	 2.9012767033	-0.25211
C	-1.2742926927	-0.4190612937	 2.5986619435	-0.012905
C	-2.0697147435	-0.5954130029	 1.3359001973	-0.027403
N	-2.3532685804	 0.5657276048	 0.4670306677	-0.352289
C	-1.4002913861	-0.4601264228	 0.0119543376	-0.08758
H	-0.7769181369	 1.7485793547	-0.0090463258	 0.294658
H	 0.5481978834	-0.4198537284	-0.8939177544	 0.076011
H	 1.0587614377	-1.5473963086	 1.067324676	 0.096419
H	 1.7802513999	 0.0535022814	 1.2689936491	 0.118624
H	-0.408779673	 1.1419527875	 3.9376805248	 0.109413
H	-0.5710138148	 1.6412814186	 2.1830278601	 0.131237
H	-1.6572354322	-1.0010455096	 3.4343327196	 0.085493
H	-2.8585996977	-1.3390632449	 1.4121427291	 0.088958
H	-3.2513746156	 0.4599281273	 0.0055570078	 0.241171
H	-1.7105686189	-1.1226585329	-0.7901487305	 0.092572
128.0522	220.9364	293.5281	344.9417	353.442	444.9364	490.8798	536.9018	573.3477	652.4688	701.4216	752.1405	765.7067	845.5258	881.6089	883.8808	922.1373	942.3921	946.0304	991.0824	1039.158	1065.2297	1076.7435	1120.3312	1130.6731	1146.6808	1157.9916	1169.1415	1187.0227	1246.712	1285.9189	1316.2119	1328.7615	1346.3826	1375.6359	1397.0026	1414.3681	1439.8038	1459.5464	1470.5005	1512.0745	2998.0426	3022.0114	3084.0053	3112.1304	3118.9839	3141.4458	3154.916	3224.8181	3521.7396	3680.1251
OC1CN2CC2C2NC12	O[C@H]1CN2C[C@H]2[C@H]2N[C@@H]12	
InChI=1S/C6H10N2O/c9-4-2-8-1-3(8)5-6(4)7-5/h3-7,9H,1-2H2	InChI=1S/C6H10N2O/c9-4-2-8-1-3(8)5-6(4)7-5/h3-7,9H,1-2H2/t3-,4-,5+,6-,8?/m0/s1
