15
gdb 86860	3.00723	1.25417	1.04614	3.1921	66.72	-0.2755	-0.0036	0.2719	1132.9306	0.111628	-457.764785	-457.756582	-457.755638	-457.797871	30.489	
O	 0.3886012153	 0.7855705372	 0.7586336967	-0.434716
C	-0.1783361758	-0.2434698439	-0.0034516047	 0.014443
C	-1.6462023596	-0.0292625583	-0.3648305334	-0.26578
C	-1.7573244879	-0.8343096375	-1.6834951854	-0.098966
O	-0.4433101871	-0.7162451169	-2.3043136822	-0.208749
C	 0.4724925994	-0.3405477013	-1.3825158175	 0.416136
O	 1.6152680355	-0.0879100159	-1.6394051127	-0.350882
C	-2.0974879071	-2.2386438759	-1.4832557845	 0.365965
C	-2.3932093938	-3.3889405701	-1.3046446109	-0.468884
H	 1.299202298	 0.8813685146	 0.4445714021	 0.298574
H	-0.0533410131	-1.2242924724	 0.486244398	 0.113345
H	-2.3529749375	-0.3738309173	 0.3891197778	 0.135536
H	-1.812758132	 1.033746539	-0.5599326787	 0.132674
H	-2.4604849692	-0.3780357214	-2.3844406934	 0.136391
H	-2.652757865	-4.4085151498	-1.1557794212	 0.21491
79.7761	97.5366	186.6152	255.5429	268.1302	370.0902	402.047	449.3722	475.926	576.7698	603.3128	642.3043	686.4479	718.3932	767.2638	817.886	849.006	967.3271	1007.7204	1034.3221	1066.4119	1140.7704	1182.081	1188.296	1262.5332	1272.9609	1326.4602	1365.799	1385.5489	1424.3199	1490.8088	1877.5446	2241.9032	2964.6727	3075.0621	3086.6903	3148.8298	3500.0994	3742.3081
OC1CC(OC1=O)C#C	O[C@H]1C[C@@H](OC1=O)C#C	
InChI=1S/C6H6O3/c1-2-4-3-5(7)6(8)9-4/h1,4-5,7H,3H2	InChI=1S/C6H6O3/c1-2-4-3-5(7)6(8)9-4/h1,4-5,7H,3H2/t4-,5-/m0/s1
