17
gdb 51580	3.59382	0.8442	0.7467	3.1581	70.75	-0.2692	-0.0046	0.2646	1489.0288	0.13395	-458.93601	-458.927174	-458.92623	-458.971147	30.946	
O	-0.0587534817	 0.0882225838	-0.0389119581	-0.266709
C	 0.0851636995	 1.2531943796	 0.1721722106	 0.175444
O	 0.9529595143	 2.0148388363	-0.5334808794	-0.188997
C	 1.0004678041	 3.3881880113	-0.1943032129	 0.09083
C	 1.7887243929	 3.8147230772	 1.0121706928	-0.332086
C	 2.3220384814	 4.0728919898	-0.3851731643	-0.067682
C	 3.5058976486	 3.3098126782	-0.8810341636	 0.09554
C	 4.2058778127	 3.6885217402	-2.1141766532	-0.185591
O	 4.7573146737	 4.0014076609	-0.8329912359	-0.239276
H	-0.4577525786	 1.8288544163	 0.9450539144	 0.086476
H	 0.0958056849	 3.9270845182	-0.4608102239	 0.11736
H	 1.4277971574	 4.6490345245	 1.6023931079	 0.129451
H	 2.275610412	 3.0291584371	 1.5805929713	 0.137083
H	 2.2768040093	 5.0964267617	-0.744145019	 0.104775
H	 3.5549964829	 2.2682502248	-0.5674853681	 0.108823
H	 4.7415407447	 2.9323090701	-2.6858595234	 0.121768
H	 3.8530158019	 4.5422892399	-2.6917252251	 0.112791
47.6584	63.1052	108.7601	139.2429	197.6369	279.6653	326.9131	382.3165	485.798	572.1085	639.2509	775.7186	832.8226	858.2889	867.0275	948.6833	958.3948	1020.3018	1033.4722	1050.0204	1068.5934	1098.9995	1130.6686	1153.1458	1161.7283	1166.9472	1176.8627	1197.2633	1243.432	1293.8932	1329.4649	1384.6466	1425.8843	1462.4789	1487.1841	1532.4179	1872.22	2967.7977	3082.8822	3126.7136	3137.9704	3146.5893	3162.7123	3170.9031	3228.8851
O=COC1CC1C1CO1	O=CO[C@H]1C[C@H]1[C@H]1CO1	
InChI=1S/C6H8O3/c7-3-9-5-1-4(5)6-2-8-6/h3-6H,1-2H2	InChI=1S/C6H8O3/c7-3-9-5-1-4(5)6-2-8-6/h3-6H,1-2H2/t4-,5+,6-/m1/s1
