20
gdb 26363	3.90481	0.93369	0.90201	1.8757	82.21	-0.181	0.0507	0.2318	1394.2995	0.170434	-403.18375	-403.174251	-403.173307	-403.21863	35.676	
C	 0.0255201321	 1.5451455771	 0.0032657662	-0.379498
C	-0.0134589286	 0.012743017	 0.0592159281	 0.03842
C	 0.7553735017	-0.5417536163	 1.2651711594	-0.379548
N	-1.3882241109	-0.4864964427	 0.0287368089	 0.02686
C	-2.3540502833	-0.25664748	 0.9680783872	-0.079024
C	-3.5131272263	-0.8969561602	 0.577560896	-0.316752
C	-3.2275877428	-1.5411736433	-0.6549734493	 0.291372
O	-4.064765979	-2.2990416048	-1.4262420335	-0.450482
C	-1.9151897936	-1.2763778039	-0.9756095186	-0.18784
H	 1.0601006151	 1.8967870518	-0.0580281953	 0.116409
H	-0.5199240761	 1.9149350702	-0.8689728617	 0.129617
H	-0.4258392583	 1.9836773938	 0.8988031374	 0.121256
H	 0.4521744776	-0.3756326201	-0.8523238115	 0.094111
H	 1.8025888549	-0.226247055	 1.2257078656	 0.116422
H	 0.3298826669	-0.1769571625	 2.2053295472	 0.12126
H	 0.7213577278	-1.634342467	 1.277225249	 0.129612
H	-2.1532665441	 0.3411672625	 1.8422391513	 0.114654
H	-4.451318913	-0.9014414223	 1.1130455353	 0.085235
H	-4.9211142767	-2.3361586928	-0.9916109758	 0.293353
H	-1.3232543536	-1.5808349715	-1.8222382657	 0.114563
24.0874	111.4602	201.1169	208.9606	231.6281	266.0495	297.8202	302.4771	403.226	410.746	498.9432	610.2306	621.3457	639.0167	666.6326	703.1991	740.6535	762.4983	880.3418	930.9165	947.1767	996.2164	1005.259	1079.2456	1108.6483	1143.8326	1167.1629	1182.6941	1223.6085	1287.0815	1338.1226	1346.439	1371.9255	1399.7674	1419.3455	1445.9866	1464.2798	1484.0143	1487.4488	1499.3872	1508.2609	1533.9859	1641.4107	3038.1892	3042.5521	3055.7457	3106.867	3115.3064	3121.0856	3123.5004	3231.4304	3264.5545	3272.7889	3847.2594
CC(C)N1C=CC(O)=C1	CC(C)n1ccc(O)c1	
InChI=1S/C7H11NO/c1-6(2)8-4-3-7(9)5-8/h3-6,9H,1-2H3	InChI=1S/C7H11NO/c1-6(2)8-4-3-7(9)5-8/h3-6,9H,1-2H3
