19
gdb 10340	2.66198	1.6141	1.10082	6.0234	67.86	-0.2478	0.0267	0.2745	1109.7543	0.165823	-402.242247	-402.233316	-402.232372	-402.27585	32.576	
C	-0.0780352244	 1.6113418716	-0.2215375893	-0.39164
C	-0.0306066323	 0.1055484613	 0.0553201038	-0.170735
C	-1.4153425286	-0.5581647826	 0.1312727296	-0.126231
C	-1.3313798713	-2.0867950229	-0.0706223878	-0.191231
N	-2.6789532137	-2.6673736218	-0.2357207943	-0.524133
H	-2.6616446742	-3.6744509352	-0.1163410327	 0.24955
H	-3.3544023259	-1.6085556314	 0.9987097905	 0.310919
H	-3.0346883019	-2.4810612147	-1.1686425616	 0.245994
C	-2.1512538768	-0.1979854512	 1.4401161339	 0.417183
O	-1.7605241244	 0.6474904114	 2.2048163171	-0.331439
O	-3.276777021	-0.8839516106	 1.6735252673	-0.380373
H	 0.9333101071	 2.0254415459	-0.2805327051	 0.108972
H	-0.5771226726	 1.8215317238	-1.1749925251	 0.101698
H	-0.6158999321	 2.1297764117	 0.5736463597	 0.154018
H	 0.5472412607	-0.3893803692	-0.7358709062	 0.082207
H	 0.4986510026	-0.0762679153	 0.9967791991	 0.115029
H	-2.0372682499	-0.1635667089	-0.6883421424	 0.094071
H	-0.675580221	-2.2992562851	-0.9255140837	 0.106487
H	-0.8738518104	-2.5531398466	 0.8088870572	 0.129657
73.8401	107.393	151.0893	210.6676	238.9216	285.602	307.8253	330.4354	403.987	426.1107	530.7521	587.9951	725.5867	772.127	810.5618	891.3628	923.7216	970.082	984.1419	1018.36	1059.4462	1067.1965	1112.5345	1133.7505	1188.5876	1233.9038	1284.3599	1309.2538	1323.374	1376.6819	1384.1707	1404.6885	1415.6384	1479.363	1493.6851	1496.2974	1510.7627	1516.7544	1649.5824	1843.2499	2983.4504	3007.0969	3022.7256	3033.0248	3070.8667	3076.3407	3097.2822	3144.6264	3230.7901	3502.5361	3585.2108
CCC(C[NH3+])C([O-])=O	CC[C@@H](CN)C(=O)O	
InChI=1S/C5H11NO2/c1-2-4(3-6)5(7)8/h4H,2-3,6H2,1H3,(H,7,8)	InChI=1S/C5H11NO2/c1-2-4(3-6)5(7)8/h4H,2-3,6H2,1H3,(H,7,8)/t4-/m0/s1
