18
gdb 69470	5.6869	0.82009	0.7816	4.1297	74.91	-0.2642	0.0056	0.2698	1463.4033	0.146532	-439.069915	-439.061141	-439.060196	-439.10455	31.722	
C	 0.1130941127	 1.5232268041	 0.0313513583	-0.483804
C	-0.0596594937	 0.0355785344	 0.0455708241	 0.341968
C	-1.3950284095	-0.7241137887	-0.0825974581	-0.333785
C	-0.8376861253	-1.7814357736	 0.9161790109	 0.113208
O	-0.7415263977	-3.1118670608	 0.4004907741	-0.193575
C	-1.2491500163	-4.1294334613	 1.1216353876	 0.167805
O	-1.1994914257	-5.2663419396	 0.7620706896	-0.273196
C	 0.4854064399	-1.0221949387	 0.9796153018	-0.111538
N	 1.0420167116	-0.826762779	-0.3542913181	-0.350684
H	 1.1373233798	 1.7893371348	 0.3037098412	 0.138214
H	-0.0850686882	 1.9273232967	-0.9682597608	 0.127667
H	-0.5763391846	 2.0078672496	 0.7306407046	 0.118403
H	-2.2606359034	-0.1912861771	 0.318953385	 0.114019
H	-1.6349860938	-1.0959591966	-1.0831971405	 0.115051
H	-1.3784615213	-1.7909050297	 1.8682940321	 0.09527
H	-1.7121800481	-3.7922028598	 2.0700934091	 0.077529
H	 1.1475938378	-0.9518150567	 1.835329159	 0.096848
H	 0.7772933557	-1.568878838	-0.99984455	 0.240601
29.8488	82.1872	144.4323	201.3774	250.5607	282.4919	316.9106	405.5426	410.7897	514.4657	647.1603	674.3203	771.7181	796.381	897.7748	927.6327	954.5985	978.5843	1001.703	1035.8228	1043.1285	1061.9198	1110.9087	1137.916	1144.3837	1186.6638	1204.2755	1223.0525	1244.0937	1278.7743	1307.3436	1369.5478	1403.3691	1436.0143	1455.3171	1482.8245	1485.1097	1494.9929	1867.1429	2941.7018	3032.0095	3051.789	3056.9567	3091.6582	3112.3873	3124.5338	3177.1864	3470.6019
CC12CC(OC=O)C1N2	C[C@]12C[C@@H](OC=O)[C@H]1N2	
InChI=1S/C6H9NO2/c1-6-2-4(9-3-8)5(6)7-6/h3-5,7H,2H2,1H3	InChI=1S/C6H9NO2/c1-6-2-4(9-3-8)5(6)7-6/h3-5,7H,2H2,1H3/t4-,5-,6+/m1/s1
