17
gdb 38992	3.09441	1.78338	1.29683	0.8419	67.23	-0.2277	0.0662	0.2939	956.758	0.137667	-458.906889	-458.900153	-458.899208	-458.937881	27.304	
C	 0.0356440866	 1.4504777689	 0.048295868	-0.363773
C	 1.3437104461	 0.6936555798	 0.0067296493	-0.004436
O	 1.6380436211	 0.1278435874	 1.2911343165	-0.298613
C	 0.4461308189	-0.7071625162	 1.2259417702	 0.033053
C	 0.7887323923	-2.173423197	 0.9314114456	-0.115203
O	-0.1922400897	-2.7261885824	 0.0550947903	-0.228357
C	-0.2226467719	-2.050863345	-1.1670610842	 0.002867
O	-0.6913907902	-0.7148884778	-1.0425162254	-0.275523
C	 0.0071679203	-0.0371786019	-0.070270742	 0.366249
H	-0.2821428876	 1.9580039789	 0.9559795552	 0.117176
H	-0.2067699197	 1.957418167	-0.8816428195	 0.126746
H	 2.1650328783	 0.8905699253	-0.6707744042	 0.112731
H	-0.1919222232	-0.5874966154	 2.1076238941	 0.090013
H	 1.7851581377	-2.210001188	 0.4668505917	 0.108991
H	 0.793862804	-2.7946241391	 1.829137202	 0.118882
H	 0.7840785382	-2.0392696328	-1.6214095418	 0.085785
H	-0.9355987313	-2.5667670619	-1.8113269958	 0.123413
156.1116	173.436	350.5144	387.9395	419.0206	456.0689	467.815	510.7358	620.7748	704.4644	787.2896	830.9283	879.892	919.1384	958.6568	969.6087	986.8398	1000.9885	1034.4222	1044.8506	1080.3238	1089.3461	1109.5555	1125.0862	1177.7136	1210.7871	1254.6552	1280.7758	1289.772	1327.0377	1359.9622	1367.9081	1401.5685	1444.9972	1484.0691	1494.234	1512.9472	2947.4166	3004.4399	3058.1429	3107.2763	3113.3478	3128.725	3194.4281	3204.8809
C1C2OC3COCOC123	C1[C@H]2O[C@@H]3COCO[C@]123	
InChI=1S/C6H8O3/c1-4-6(1)5(9-4)2-7-3-8-6/h4-5H,1-3H2	InChI=1S/C6H8O3/c1-4-6(1)5(9-4)2-7-3-8-6/h4-5H,1-3H2/t4-,5-,6-/m1/s1
