18
gdb 31270	2.05185	1.6743	1.0132	0.7928	76.1	-0.1912	0.0459	0.2371	1180.659	0.147732	-439.098463	-439.089279	-439.088335	-439.13263	33.426	
C	 0.2975840999	 0.6135376769	 0.5419347722	-0.263445
O	-0.4548924069	 0.3388443788	-0.6497752387	-0.277378
C	-1.5176392268	-0.4812824942	-0.47594547	 0.291831
C	-1.598143837	-1.8453256047	-0.2777390348	 0.187705
C	-0.441788086	-2.7781254974	-0.1633444814	-0.222804
O	 0.1237911802	-2.6968776884	 1.1556921697	-0.412709
C	-2.9910961153	-2.1568622134	-0.2125497826	-0.240277
C	-3.6999333439	-0.9938220695	-0.3789260942	-0.092351
N	-2.7880346323	 0.0283443625	-0.529337722	-0.294463
H	 1.1746195081	 1.1821883518	 0.2255507189	 0.12323
H	-0.2935433609	 1.2172071321	 1.2426127867	 0.111133
H	 0.5987533647	-0.3176385708	 1.0300367235	 0.153455
H	-0.7788344955	-3.8043039012	-0.3696202824	 0.092063
H	 0.3217581099	-2.5219443824	-0.913208544	 0.093959
H	 0.8877408356	-3.2833125944	 1.1782733438	 0.279954
H	-3.4128079846	-3.1400675635	-0.0659745504	 0.09215
H	-4.7596580004	-0.8027982181	-0.4146521301	 0.116419
H	-2.9947895987	 0.9968151758	-0.7027524542	 0.261528
77.3431	97.0463	156.3196	177.4915	184.1445	244.0329	316.366	352.9927	434.7056	472.3204	507.6751	630.7834	645.316	671.5977	727.4165	772.5951	825.7461	910.4617	978.6002	1015.842	1018.3183	1086.2592	1099.7869	1184.8118	1188.9201	1225.5379	1235.432	1263.8835	1272.8195	1320.5193	1420.155	1446.0529	1466.1602	1489.8171	1506.7772	1515.7006	1518.7001	1520.3025	1633.5004	2979.8437	3013.1799	3014.1901	3096.734	3136.9203	3240.2416	3273.2194	3679.6086	3800.8301
COC1=C(CO)C=CN1	COc1c(CO)cc[nH]1	
InChI=1S/C6H9NO2/c1-9-6-5(4-8)2-3-7-6/h2-3,7-8H,4H2,1H3	InChI=1S/C6H9NO2/c1-9-6-5(4-8)2-3-7-6/h2-3,7-8H,4H2,1H3
