14
gdb 10020	4.3481	1.19886	0.94524	5.3742	65.69	-0.2601	-0.0462	0.2138	1165.6837	0.104746	-415.8913	-415.882717	-415.881773	-415.924971	28.46	
C	 0.0489074238	 1.4490248603	 0.0267472097	-0.319497
N	 0.0703118927	 0.0049656131	-0.0787741248	-0.226566
C	 0.4933286783	-0.6543709691	 0.9073041684	 0.132332
N	 0.5610111982	-2.0621585535	 0.9220615643	-0.167513
C	 0.1347043059	-2.7936806823	-0.2249991922	 0.170795
O	 0.1500734414	-3.9861646785	-0.3148688535	-0.249496
C	 1.0560384944	-2.6749748445	 2.0922140065	 0.175496
O	 1.1823055109	-3.8491092089	 2.2777811364	-0.254806
H	 0.6581350869	 1.879926322	-0.7749527944	 0.141736
H	-0.9751493674	 1.8079504984	-0.1217700333	 0.14174
H	 0.4184712791	 1.827491203	 0.9925541702	 0.107019
H	 0.8482051483	-0.2057451385	 1.844799691	 0.107919
H	-0.2068155336	-2.1000116042	-1.0062796162	 0.144424
H	 1.3231196712	-1.9070488674	 2.845448358	 0.096416
81.6559	107.2136	137.0076	180.3553	199.8499	236.4653	259.1351	384.1876	394.2665	477.601	521.8593	801.975	920.8146	981.5428	1023.2185	1033.5243	1051.4001	1141.9753	1156.7088	1228.0629	1294.2429	1407.5778	1433.7061	1448.5544	1475.2327	1477.8187	1504.1447	1765.0523	1813.7827	1889.0427	2927.9732	2981.7941	3026.1925	3049.9975	3072.768	3091.6562
CN=CN(C=O)C=O	CN=CN(C=O)C=O	
InChI=1S/C4H6N2O2/c1-5-2-6(3-7)4-8/h2-4H,1H3	InChI=1S/C4H6N2O2/c1-5-2-6(3-7)4-8/h2-4H,1H3
