21
gdb 112649	2.92473	1.16468	0.92594	1.5676	81.74	-0.2367	0.0227	0.2594	1339.1034	0.181707	-424.23274	-424.223155	-424.222211	-424.267343	35.718	
C	 0.0486735398	 1.4687728346	 0.0878933287	-0.250518
O	 0.1130511218	 0.0602349625	-0.0567283279	-0.257618
C	 0.6931630681	-0.6080659839	 1.0563738953	 0.070947
C	 0.1028228067	-2.0316605303	 1.13258001	-0.322355
C	 1.2009830153	-2.9374640625	 0.6189187057	 0.327361
C	 0.9523267121	-4.3909404052	 0.3696330013	-0.490323
C	 2.3458488705	-2.2704807273	 0.4654897566	-0.212818
C	 2.239767482	-0.8108929435	 0.8282915281	 0.088183
O	 2.7705512012	 0.0646951051	-0.1527078262	-0.431799
H	 1.0456619034	 1.9142167389	 0.1867099581	 0.128766
H	-0.4337237689	 1.8593861036	-0.8121117528	 0.123746
H	-0.5567734258	 1.7487939776	 0.963037245	 0.107195
H	 0.4924624425	-0.030685155	 1.9670668982	 0.06364
H	-0.1735741208	-2.2942059856	 2.1624191695	 0.10469
H	-0.814652299	-2.0922156074	 0.5357209705	 0.115299
H	 0.1529080894	-4.5309169008	-0.3692000549	 0.127794
H	 1.8490689129	-4.899180632	 0.0056264596	 0.125061
H	 0.6198640158	-4.8985435037	 1.284359299	 0.12526
H	 3.2817101734	-2.6980525636	 0.1215225727	 0.089851
H	 2.7989906089	-0.583799463	 1.7444468503	 0.086002
H	 2.1550321807	 0.0159927716	-0.8957218469	 0.281636
46.5989	125.3793	150.3899	188.6358	192.9248	284.0493	298.0014	316.9493	381.7637	410.1759	469.1932	489.2628	556.21	627.6775	757.2395	830.0186	856.9303	880.845	891.0453	997.7709	1014.9803	1026.0333	1052.6859	1078.3422	1090.6134	1129.8834	1179.3219	1182.2027	1192.4001	1231.7956	1256.3694	1277.3925	1285.4332	1316.1433	1357.5427	1390.3783	1413.3415	1437.2454	1473.6839	1478.6441	1479.3177	1485.7138	1487.4735	1517.5814	1724.9123	2989.3229	3012.2188	3016.8732	3023.1551	3036.5109	3061.0704	3061.863	3062.943	3112.9026	3113.5697	3189.4203	3769.9651
COC1CC(C)=CC1O	CO[C@H]1CC(=C[C@H]1O)C	
InChI=1S/C7H12O2/c1-5-3-6(8)7(4-5)9-2/h3,6-8H,4H2,1-2H3	InChI=1S/C7H12O2/c1-5-3-6(8)7(4-5)9-2/h3,6-8H,4H2,1-2H3/t6-,7+/m1/s1
