14
gdb 105150	2.45033	1.23853	0.96724	2.018	68.45	-0.2954	-0.033	0.2624	1185.267	0.10052	-432.848761	-432.839996	-432.839051	-432.882825	30.74	
O	 0.0925175078	 1.359039557	-0.3400248449	-0.400856
C	 0.0338209794	 0.1000027771	 0.283906901	-0.124742
C	-1.363833118	-0.498455184	 0.164378818	 0.116064
N	-1.6915150653	-0.997372997	-1.1828113419	-0.334164
C	-1.5876335326	-1.9708032435	-0.0863402805	-0.234548
C	-0.4820828009	-2.8988828862	-0.1304587334	 0.346128
N	 0.3926827583	-3.6538038841	-0.1415669158	-0.318282
C	-2.4089270293	 0.1772319563	 0.9028521685	 0.263011
N	-3.2522275692	 0.7141015032	 1.4833225798	-0.317744
H	-0.0360418051	 1.2197278893	-1.2854831868	 0.300439
H	 0.751547923	-0.6143381486	-0.1393245164	 0.130766
H	 0.2818535429	 0.2539519779	 1.3376477382	 0.141498
H	-2.6698460497	-0.8367727206	-1.4120397263	 0.269756
H	-2.5023971512	-2.3928478767	 0.3200341104	 0.162676
69.5031	111.5613	123.4784	157.1253	233.0156	277.0695	337.507	417.5342	425.1595	493.158	560.2197	595.2927	648.32	716.5222	841.6072	903.1674	938.5692	974.6203	1037.8063	1078.3312	1097.6704	1190.8124	1208.8886	1294.194	1322.7124	1393.5125	1418.6514	1434.8066	1490.7702	2356.6062	2366.1329	3030.1887	3105.2365	3160.2001	3511.5593	3801.4817
OCC1(NC1C#N)C#N	OC[C@]1(N[C@H]1C#N)C#N	
InChI=1S/C5H5N3O/c6-1-4-5(2-7,3-9)8-4/h4,8-9H,3H2	InChI=1S/C5H5N3O/c6-1-4-5(2-7,3-9)8-4/h4,8-9H,3H2/t4-,5+/m0/s1
