17
gdb 95897	3.13449	1.12404	0.86653	3.4749	73.83	-0.2523	-0.0629	0.1894	1282.4004	0.135412	-458.971656	-458.963131	-458.962186	-459.005065	31.188	
O	-0.0644444669	 1.437007852	 0.0003457553	-0.422047
C	 0.0209225257	 0.0176406087	-0.0132850028	 0.053991
C	-1.4159810591	-0.5182456407	-0.0133644579	-0.096697
O	-1.4241764446	-1.9094385001	-0.2557707671	-0.247156
C	-0.9896885118	-2.2473452185	-1.5597603322	-0.163459
C	 0.2675608478	-1.5179155593	-1.9609645772	 0.177214
C	 0.9622435011	-1.9429539664	-3.1866548355	 0.100843
O	 0.5865825866	-2.8453857255	-3.900837235	-0.273655
C	 0.7336139721	-0.4912641395	-1.2389254982	-0.167235
H	 0.7990687325	 1.7954461833	 0.227510628	 0.290851
H	 0.536949642	-0.3509099154	 0.8879129941	 0.094418
H	-1.8885809665	-0.3590902636	 0.9581610952	 0.11871
H	-1.9904754129	 0.0332415576	-0.7740505096	 0.106536
H	-0.8195399025	-3.3276745445	-1.5697207674	 0.138398
H	-1.7801553135	-2.0434238693	-2.3018114029	 0.118194
H	 1.8835643804	-1.3627393564	-3.4198056794	 0.071974
H	 1.6421577597	 0.0260062077	-1.5464769774	 0.099118
95.6538	111.7571	181.671	207.4554	235.3872	289.8268	351.3912	402.8123	427.3443	471.0461	552.8114	584.7278	710.635	858.0629	890.2653	921.75	972.0901	1010.8534	1040.8074	1060.5474	1083.9372	1098.2741	1146.3041	1197.3932	1222.8842	1256.7803	1302.1755	1327.5047	1347.5391	1380.5193	1402.8421	1419.438	1434.0724	1480.4485	1501.6673	1705.7148	1787.3793	2876.2438	2969.4575	2969.9402	2993.856	3089.1257	3109.7347	3133.7758	3824.9924
OC1COCC(C=O)=C1	O[C@H]1COCC(=C1)C=O	
InChI=1S/C6H8O3/c7-2-5-1-6(8)4-9-3-5/h1-2,6,8H,3-4H2	InChI=1S/C6H8O3/c7-2-5-1-6(8)4-9-3-5/h1-2,6,8H,3-4H2/t6-/m1/s1
