16
gdb 66338	2.56288	1.39672	1.31066	4.1044	71.08	-0.2731	-0.0176	0.2556	1047.0477	0.124184	-437.888997	-437.880754	-437.879809	-437.921758	30.844	
O	-0.0782992939	 1.4041533276	 0.0272669984	-0.448335
C	 0.0283033448	-0.0132490391	 0.0031386702	 0.183041
C	-1.4250940121	-0.5364485857	-0.0097129038	-0.112128
O	-1.464310901	-1.9114871209	-0.2964187698	-0.243336
C	-1.0195098425	-2.2169495825	-1.6045321473	-0.120857
C	 0.2357295655	-1.4873999889	-1.9861993741	-0.06921
C	 0.737462058	-0.5054346442	-1.2444751851	-0.106697
C	 0.7473956364	-0.4830322174	 1.2090876758	 0.246358
N	 1.3412086386	-0.813461527	 2.1442569929	-0.335636
H	 0.800879011	 1.7794729249	 0.1513187244	 0.296261
H	-1.8935778405	-0.3935760978	 0.965444041	 0.135751
H	-1.9661750679	 0.0618502304	-0.7577405369	 0.11362
H	-0.8550834756	-3.2998836022	-1.626907699	 0.133339
H	-1.8116132487	-1.9968737907	-2.3434416181	 0.111294
H	 0.7186526717	-1.7935326537	-2.9101488152	 0.112416
H	 1.6582775062	 0.0056631371	-1.5108633034	 0.104119
85.8971	146.4912	190.0066	250.6527	292.9672	305.0846	354.4243	430.7187	477.1053	501.0732	575.4011	623.8419	683.9113	735.9999	823.3347	907.6658	955.922	985.4641	989.7079	1036.379	1069.1612	1111.9655	1135.864	1183.0815	1210.5937	1260.2823	1309.2008	1358.1329	1366.3319	1407.8539	1415.2683	1481.0118	1495.3563	1721.4651	2347.6734	2945.8501	3003.4562	3065.0866	3121.6523	3160.6523	3182.1977	3806.1312
OC1(COCC=C1)C#N	O[C@]1(COCC=C1)C#N	
InChI=1S/C6H7NO2/c7-4-6(8)2-1-3-9-5-6/h1-2,8H,3,5H2	InChI=1S/C6H7NO2/c7-4-6(8)2-1-3-9-5-6/h1-2,8H,3,5H2/t6-/m0/s1
