18
gdb 63594	4.50818	0.70088	0.66594	5.9729	94.9	-0.2604	-0.0364	0.2239	1693.6431	0.146171	-364.803752	-364.794237	-364.793292	-364.838292	34.801	
C	-0.0914651341	 1.5312862558	-0.0816748216	-0.45522
C	 0.001061417	 0.0200474449	-0.0298664727	 0.334513
C	-1.2373076867	-0.7081394206	-0.5154421662	-0.449676
C	 1.334130468	-0.6243338199	-0.2592150648	-0.315172
C	 0.7398792025	-0.6332958514	 1.1513390958	-0.268888
C	 1.3306419153	 0.1439325029	 2.1862643059	 0.102589
C	 1.8243335522	 0.7978884562	 3.0784197968	 0.057659
C	 2.3856216401	 1.5355968525	 4.0777673561	 0.196489
N	 2.8646936265	 2.16684324	 4.9286310908	-0.343866
H	 0.8133208309	 2.0091670326	 0.3014974956	 0.132214
H	-0.2402415426	 1.8647106456	-1.1145421543	 0.123437
H	-0.9378630356	 1.8931021719	 0.5121041688	 0.127936
H	-1.4418797544	-0.4580668899	-1.5626302635	 0.126259
H	-1.121494533	-1.794197975	-0.4486492428	 0.119217
H	-2.116715854	-0.4245906866	 0.0728838969	 0.128127
H	 1.3782109361	-1.5808088788	-0.7686831598	 0.125837
H	 2.1941190865	 0.0159579991	-0.4196082814	 0.132893
H	 0.3320727354	-1.5828931695	 1.4868144604	 0.125653
70.4233	78.5815	185.9389	192.9532	213.6439	247.4951	303.367	346.6215	366.9453	385.9572	481.1525	528.3071	578.264	586.8173	690.5767	710.7349	827.8353	909.3223	924.7311	942.9101	975.3618	1045.1845	1059.5609	1080.3268	1102.0033	1147.2875	1225.0057	1279.083	1331.9922	1400.4781	1415.1734	1427.8814	1480.4765	1482.4871	1491.1128	1502.2928	1511.3634	2257.3475	2385.1829	3027.9731	3035.3139	3092.4228	3096.5026	3104.6264	3121.7527	3136.9781	3145.7726	3228.1294
CC1(C)CC1C#CC#N	CC1(C)C[C@H]1C#CC#N	
InChI=1S/C8H9N/c1-8(2)6-7(8)4-3-5-9/h7H,6H2,1-2H3	InChI=1S/C8H9N/c1-8(2)6-7(8)4-3-5-9/h7H,6H2,1-2H3/t7-/m1/s1
