13
gdb 131181	3.51485	1.14953	0.87315	2.7794	64.03	-0.2285	-0.0083	0.2202	1217.5194	0.089693	-486.04293	-486.03496	-486.034015	-486.076479	28.091	
O	 0.2118559417	 1.338340346	 0.1181517799	-0.423287
C	 0.0909311494	 0.0093673712	-0.0250472905	 0.307566
C	-0.0874123765	-0.8271497534	-1.1043427911	 0.28965
O	-0.2199722264	-0.3977291233	-2.3894962873	-0.238611
C	 0.1404710951	-1.2537983141	-3.3935945745	 0.110018
N	-0.0048882705	-0.8695162686	-4.5821866387	-0.434385
N	-0.1501837142	-2.1049943969	-0.6741399262	-0.262212
N	-0.0125874628	-2.126774261	 0.6255659376	-0.13348
N	 0.1270944548	-0.8379521621	 1.02402291	-0.217865
H	 0.1462855607	 1.7406444315	-0.7571227252	 0.327773
H	 0.5209539594	-2.2078116136	-3.0225115051	 0.141568
H	 0.3058847666	-1.5980969834	-5.2217045721	 0.239562
H	 0.2361661428	-0.6177262723	 2.0011688532	 0.293702
49.872	98.5218	146.2991	271.5378	294.3114	321.5723	381.8843	468.3934	547.401	548.6402	694.3336	703.9442	725.1876	827.4683	848.2774	996.7807	1046.6201	1050.8625	1056.0915	1177.8066	1241.0884	1267.0437	1316.4987	1356.6963	1405.9135	1420.6712	1569.7564	1689.769	1750.1276	3114.8213	3521.621	3660.3942	3800.5473
OC1=C(OC=N)N=NN1	Oc1c(O[CH][NH])nn[nH]1	
InChI=1S/C3H4N4O2/c4-1-9-3-2(8)5-7-6-3/h1,4H,(H2,5,6,7,8)	InChI=1S/C3H4N4O2/c4-1-9-3-2(8)5-7-6-3/h1,4H,(H2,5,6,7,8)
