18
gdb 126255	1.89951	1.75615	0.99222	4.6978	74.6	-0.2237	0.0136	0.2374	1205.42	0.147962	-435.257173	-435.248083	-435.247139	-435.292043	32.327	
C	 0.2457441032	 1.2172376869	-0.3186518729	-0.371851
C	 0.4047564655	-0.2850430655	-0.0279023695	-0.30193
C	 0.9944442074	-0.5723157139	 1.3210880197	 0.170096
C	 2.2920308646	-0.7013413983	 1.7873510266	 0.349146
N	 2.159414186	-0.9020113875	 3.1203176169	-0.245711
N	 0.859225275	-0.8995884509	 3.4908011644	-0.130597
N	 0.1701674418	-0.7035051318	 2.4097757686	-0.238856
O	 3.5401878535	-0.6628757666	 1.2902135311	-0.258818
C	 3.6855493728	-0.7161088194	-0.1240476184	-0.256382
H	 1.214948462	 1.7280572315	-0.3333223645	 0.110134
H	-0.2362823291	 1.3783508274	-1.2882542175	 0.11208
H	-0.3668990416	 1.6922477102	 0.4528010329	 0.137688
H	-0.5817325063	-0.7593451564	-0.0501533713	 0.127902
H	 0.9919190364	-0.7558924105	-0.8218203095	 0.094256
H	 2.8912750966	-1.0508403507	 3.7964526648	 0.279618
H	 3.23062052	 0.156328265	-0.6051891207	 0.141369
H	 4.759524551	-0.7141138527	-0.3139058965	 0.143662
H	 3.2438682814	-1.632363987	-0.5308748543	 0.138194
37.9166	66.7509	154.6449	206.5418	219.8035	242.6375	294.7537	342.7808	423.3719	481.6103	539.2787	669.0923	682.9239	709.8865	753.8347	785.0822	971.522	1002.7643	1054.3756	1061.395	1082.0622	1083.5488	1179.374	1195.9236	1234.5455	1263.6233	1286.8834	1336.9321	1360.0855	1392.6066	1406.5081	1471.8192	1481.6924	1490.3472	1495.4356	1502.4439	1506.556	1520.5125	1637.7986	3025.9991	3032.1822	3053.4864	3085.2208	3096.3992	3102.2991	3119.2966	3145.2716	3657.906
CCC1=C(NN=N1)OC	CCc1c([nH]nn1)OC	
InChI=1S/C5H9N3O/c1-3-4-5(9-2)7-8-6-4/h3H2,1-2H3,(H,6,7,8)	InChI=1S/C5H9N3O/c1-3-4-5(9-2)7-8-6-4/h3H2,1-2H3,(H,6,7,8)
