20
gdb 89972	3.32551	1.22295	1.05593	3.3642	81.68	-0.2392	0.0377	0.2769	1222.6218	0.171373	-403.163866	-403.154862	-403.153918	-403.19793	32.749	
C	 0.004975703	 1.431324207	-0.0710602553	-0.342117
N	-0.0174588009	-0.0066596166	-0.0597013324	-0.086637
C	-1.1116106403	-0.9818145452	-0.0489809294	-0.267332
C	-0.0308501573	-2.096507093	-0.0440109162	 0.189162
C	 0.1307898926	-3.1820137304	 1.0496965328	-0.277771
C	 0.752485329	-4.1084964488	-0.0306553082	-0.202254
C	 0.1236833152	-3.1991491448	-1.1213804387	-0.277814
C	 0.9901466256	-0.9389172839	-0.056232527	 0.380637
O	 2.1920416606	-0.8366453555	-0.0612184562	-0.389774
H	 1.0515181151	 1.7459828465	-0.0779861336	 0.160634
H	-0.4915698919	 1.836637229	-0.9617033841	 0.12627
H	-0.4839724438	 1.850692184	 0.8172831954	 0.126274
H	-1.7416584804	-0.9369382206	 0.8479234498	 0.105792
H	-1.7470690266	-0.9503382981	-0.9426532903	 0.105781
H	 0.7431806161	-2.92595755	 1.9173603087	 0.112274
H	-0.8417686396	-3.5471964347	 1.3942166795	 0.100576
H	 1.8421153135	-4.0357844892	-0.0347530692	 0.12728
H	 0.4633232464	-5.161311439	-0.0214411707	 0.09617
H	-0.8511140384	-3.5697451862	-1.453599582	 0.10058
H	 0.7302386524	-2.9568670203	-1.9970623428	 0.112269
84.9979	102.3011	119.0391	156.8446	207.8315	242.3826	259.9728	347.9823	449.9439	540.9509	666.4734	732.3181	770.3533	791.5472	800.9708	893.9404	910.4527	937.5068	957.5965	964.8552	1042.7439	1063.4734	1121.1884	1140.7525	1170.0857	1173.3957	1184.6376	1217.8933	1235.3406	1255.6326	1279.6692	1280.2036	1286.0978	1336.6257	1417.7441	1447.9523	1471.2006	1481.1576	1482.4506	1501.7109	1510.2337	1530.7027	1865.3425	3009.2965	3015.4101	3049.4821	3054.0121	3057.3456	3060.3239	3071.6116	3104.2894	3109.5539	3126.6279	3131.6742
CN1CC2(CCC2)C1=O	CN1CC2(CCC2)C1=O	
InChI=1S/C7H11NO/c1-8-5-7(6(8)9)3-2-4-7/h2-5H2,1H3	InChI=1S/C7H11NO/c1-8-5-7(6(8)9)3-2-4-7/h2-5H2,1H3
