21
gdb 101833	3.37826	0.80302	0.78289	2.9276	75.53	-0.2524	0.0759	0.3284	1566.5033	0.180261	-461.324384	-461.314184	-461.31324	-461.360905	36.459	
C	-0.7671879966	 0.9393801583	 0.0108244329	-0.392224
C	 0.1535053798	-0.2457447116	 0.2981088968	 0.097179
C	 0.9376371254	-0.6912329136	-0.9377660138	-0.062739
O	 1.8067397109	 0.3255413317	-1.40056229	-0.42306
O	 1.1688589207	 0.1183913174	 1.2521107488	-0.284052
C	 0.7946499173	 0.0526789769	 2.6124549966	-0.102527
C	 0.8071450338	-1.3570424082	 3.1540107874	 0.080375
C	-0.0399641893	-1.7496626864	 4.2867770749	-0.180121
O	-0.3758788544	-2.1415740598	 2.9560301921	-0.227495
H	-0.1997489082	 1.7431493554	-0.4642920532	 0.133895
H	-1.5748714239	 0.6371116956	-0.663754515	 0.115806
H	-1.2266557647	 1.322593604	 0.9265989911	 0.111613
H	-0.4240408133	-1.0964648377	 0.6797394858	 0.102323
H	 1.4927759327	-1.6096630976	-0.692103645	 0.087661
H	 0.2481508911	-0.9213935114	-1.7566797317	 0.104679
H	 2.3166920818	 0.6006953026	-0.6292195392	 0.290195
H	 1.5311213187	 0.6535713482	 3.1597090592	 0.111029
H	-0.1971115947	 0.4954410257	 2.7836980556	 0.098786
H	 1.7349257253	-1.9046765742	 2.9837757153	 0.101727
H	 0.2816470774	-2.5536883591	 4.9464552818	 0.120524
H	-0.7069543098	-1.0172663561	 4.7404875995	 0.116424
28.2156	77.6406	87.3143	119.8486	219.8461	232.7858	245.6734	302.7629	342.8365	392.6021	440.4687	449.3086	510.6016	666.8803	783.148	811.3848	862.2312	900.86	920.9459	949.1604	988.5646	1010.8314	1075.5415	1093.3993	1111.2267	1141.5698	1144.9753	1152.7998	1159.9323	1176.8954	1236.3096	1287.3911	1303.3078	1352.4024	1368.9803	1383.0197	1386.829	1414.8451	1432.9083	1449.3044	1474.6721	1486.9103	1497.803	1501.059	1531.4165	2985.9172	3003.2111	3042.2557	3046.7099	3061.2163	3077.334	3085.3615	3108.1846	3111.4103	3132.5027	3171.9871	3791.95
CC(CO)OCC1CO1	C[C@@H](CO)OC[C@H]1CO1	
InChI=1S/C6H12O3/c1-5(2-7)8-3-6-4-9-6/h5-7H,2-4H2,1H3	InChI=1S/C6H12O3/c1-5(2-7)8-3-6-4-9-6/h5-7H,2-4H2,1H3/t5-,6-/m0/s1
