21
gdb 109050	3.55978	1.12516	0.97634	1.0914	85.26	-0.2148	0.0193	0.2341	1298.9968	0.183427	-387.082328	-387.07375	-387.072806	-387.115667	33.24	
C	-0.1458895216	 1.5416111548	 0.0965502049	-0.369945
C	 0.0400981528	 0.0160726205	 0.0035351007	-0.276789
C	 0.7594536291	-0.4316931038	-1.2435391072	 0.270508
C	 2.0284381857	-0.8514738666	-1.2525279706	-0.151961
C	 2.7008949172	-1.2965552294	-2.4944304062	-0.112274
C	 2.0550379988	-2.4271886637	-3.3103861292	-0.33651
C	 1.9431964888	-1.0014493327	-3.7633822406	 0.135432
O	 0.7672003343	-0.2539584545	-3.7040700886	-0.256486
C	-0.0266976435	-0.4100200815	-2.5351057897	-0.175348
H	 0.8234982943	 2.0486962282	 0.1127249041	 0.122691
H	-0.7118163649	 1.9351158239	-0.753713043	 0.120136
H	-0.6888152998	 1.8113029517	 1.007922787	 0.112911
H	 0.5958267599	-0.3336443705	 0.8805756564	 0.102281
H	-0.9473142849	-0.4654989363	 0.0528480076	 0.098249
H	 2.6018647115	-0.8709639911	-0.328567675	 0.080456
H	 3.7837820387	-1.2321632854	-2.510495484	 0.086062
H	 2.7042914347	-3.0870104753	-3.8762421104	 0.112852
H	 1.1948068714	-2.9145528294	-2.8659970736	 0.12142
H	 2.5019881695	-0.7033761975	-4.6435913879	 0.102687
H	-0.645672676	-1.3215691203	-2.6140842976	 0.09951
H	-0.7228639861	 0.435257869	-2.550372427	 0.114118
73.3685	101.3117	188.9443	211.8793	240.8691	329.8097	393.3129	440.0443	485.1781	504.1895	591.2567	691.2046	749.6731	788.5446	805.3344	861.9002	867.4088	897.2757	949.6065	972.2743	1008.7494	1021.0805	1037.4314	1045.4755	1087.8007	1093.044	1110.8733	1125.1252	1184.0561	1204.4846	1232.7159	1272.5215	1279.9369	1350.329	1354.2168	1380.8722	1391.1168	1408.5534	1427.1078	1478.3371	1483.5034	1494.1937	1504.2058	1507.4948	1727.0728	2939.471	3003.7965	3037.3894	3060.6288	3063.2082	3106.1304	3112.742	3133.432	3145.4117	3160.5397	3174.7052	3224.1613
CCC1=CC2CC2OC1	CCC1=C[C@H]2C[C@H]2OC1	
InChI=1S/C8H12O/c1-2-6-3-7-4-8(7)9-5-6/h3,7-8H,2,4-5H2,1H3	InChI=1S/C8H12O/c1-2-6-3-7-4-8(7)9-5-6/h3,7-8H,2,4-5H2,1H3/t7-,8+/m0/s1
