23
gdb 38750	2.22926	2.14594	1.71307	0.1434	86.46	-0.2711	0.0742	0.3454	962.185	0.211706	-351.18052	-351.173796	-351.172852	-351.211051	29.825	
C	-0.0175630409	 1.5577995776	-0.1610686768	-0.236026
C	 1.5279552508	 1.5638140888	-0.0304637442	-0.001956
C	 2.0597918688	 1.7965810233	 1.3989559064	-0.223469
C	 1.9198639049	 0.4326104755	 2.1181139902	 0.003462
C	 2.3262947746	-0.5523771296	 1.0013339722	-0.229266
C	 1.5324018284	 0.0011489627	-0.1857920487	-0.009561
C	-0.0221345513	 0.0159935325	 0.0395550652	 0.000937
C	-0.4118874262	-0.4602288217	 1.4428072665	-0.214458
C	 0.4618781052	 0.1509451824	 2.5657554951	-0.206721
H	-0.5766335104	 2.1545963305	 0.5680562473	 0.085739
H	-0.3503402464	 1.8454923036	-1.1621886997	 0.091442
H	 2.0645916417	 2.1583428405	-0.7729673893	 0.055474
H	 3.1202355243	 2.0711394201	 1.3542760311	 0.088649
H	 1.5380014305	 2.6065305399	 1.9210089988	 0.086489
H	 2.5824405556	 0.3825874426	 2.9873828699	 0.056036
H	 3.4034506332	-0.4953420561	 0.804030785	 0.087031
H	 2.0906907257	-1.5960340549	 1.2363387598	 0.08891
H	 1.836140835	-0.3873650195	-1.1594974649	 0.052832
H	-0.6011291594	-0.5352394334	-0.7070839389	 0.057141
H	-1.4704413897	-0.2446734257	 1.6307643544	 0.089166
H	-0.3188311029	-1.5529023792	 1.4703069122	 0.094678
H	 0.4647723724	-0.5364484306	 3.4190667212	 0.090159
H	 0.015268346	 1.0826434805	 2.9323126172	 0.093314
175.8382	295.2708	325.7081	390.5767	414.2221	447.3669	540.9072	588.4055	731.4693	759.0522	777.6859	804.6867	828.3479	848.3079	872.0463	892.4233	898.0743	929.2433	952.8688	987.9583	1005.3956	1024.0642	1036.2649	1062.3476	1088.7084	1102.7606	1131.6135	1148.413	1157.5361	1181.502	1204.072	1229.0545	1257.7892	1262.2019	1267.474	1295.8955	1309.9163	1323.2911	1330.1239	1342.416	1347.5042	1360.7165	1376.7164	1390.2658	1476.4024	1483.5947	1490.3634	1493.5406	1512.0537	3018.7469	3026.8335	3027.9004	3030.4118	3037.1477	3048.4324	3053.5163	3059.7411	3065.9605	3071.0025	3075.1447	3075.6188	3088.491	3096.6922
C1C2CC3CC2C1CC3	C1[C@H]2C[C@@H]3C[C@H]2[C@H]1CC3	
InChI=1S/C9H14/c1-2-7-5-8-3-6(1)4-9(7)8/h6-9H,1-5H2	InChI=1S/C9H14/c1-2-7-5-8-3-6(1)4-9(7)8/h6-9H,1-5H2/t6-,7+,8-,9+/m1/s1
