19
gdb 52167	3.75375	0.9071	0.84253	4.4175	76.41	-0.2657	0.0112	0.2769	1401.0152	0.159341	-423.012687	-423.004148	-423.003204	-423.047532	31.158	
O	 0.2559614286	 0.4145020351	-0.8935719715	-0.277785
C	 0.296605723	 1.5855084891	-0.6615955185	 0.17499
O	 0.8279354784	 2.0887221588	 0.465093364	-0.174694
C	 0.8875253526	 3.5205890852	 0.6043865162	-0.125544
C	 2.2820833009	 4.016015233	 0.3164857251	-0.007696
C	 2.8161868456	 4.397317632	-1.0401395224	-0.064395
C	 1.7711629364	 5.1236569152	-1.8978324099	-0.233472
C	 1.604307883	 6.1929511722	-0.7703789016	-0.232213
C	 2.6558657364	 5.4514166626	 0.0684917919	-0.078267
H	-0.1064561425	 2.3685717924	-1.3343217792	 0.0736
H	 0.1366937786	 3.9864316008	-0.0431262106	 0.111678
H	 0.6079788254	 3.7248572201	 1.6418750781	 0.125823
H	 3.0250056982	 3.4948420757	 0.9165542235	 0.104665
H	 3.7246466915	 3.9473829222	-1.4219677948	 0.094234
H	 2.2059245326	 5.5523194729	-2.802750852	 0.113146
H	 0.882849584	 4.5536646848	-2.1898827636	 0.095548
H	 1.9499433861	 7.1776528492	-1.0908359786	 0.111105
H	 0.6106704016	 6.3111921737	-0.3261188725	 0.098214
H	 3.4221502095	 5.933932435	 0.6636268863	 0.091063
30.7227	55.2418	143.2353	196.2955	232.8064	305.0355	374.8009	436.4919	521.0329	667.9446	711.5966	775.9386	787.8333	800.858	906.0593	933.0079	957.0159	984.526	1016.5001	1022.3349	1027.4654	1044.5419	1049.0311	1082.8242	1122.875	1138.3909	1164.5719	1221.1313	1227.2696	1245.9233	1264.8129	1305.161	1310.5055	1344.2584	1390.8659	1426.6429	1460.5363	1483.0327	1501.0014	1512.4618	1865.2353	2939.2241	3041.9494	3045.3022	3054.3856	3092.5377	3100.1076	3117.867	3139.3486	3175.7744	3188.3994
O=COCC1C2CCC12	O=COC[C@H]1[C@H]2CC[C@@H]12	
InChI=1S/C7H10O2/c8-4-9-3-7-5-1-2-6(5)7/h4-7H,1-3H2	InChI=1S/C7H10O2/c8-4-9-3-7-5-1-2-6(5)7/h4-7H,1-3H2/t5-,6+,7-
