22
gdb 12086	3.15348	1.50139	1.42094	0.0501	81.67	-0.2413	0.0854	0.3267	1049.1345	0.199635	-313.046831	-313.037954	-313.03701	-313.079953	34.343	
C	-1.8262051257	 0.3425309988	 1.6787623651	-0.408402
C	-0.8822628003	-0.6396370787	 1.0209741693	 0.018075
C	 0.0452000973	-0.2110398953	-0.088063913	-0.312612
C	 0.6185129952	-0.6174574899	 1.2514752402	-0.088978
C	 1.3228496691	 0.3483097753	 2.1850993925	 0.383659
C	 1.5431481368	 1.7718421509	 1.7034022974	-0.473773
C	 1.1125617983	 0.144585993	 3.6729037655	-0.288215
C	 2.4260793812	-0.2387203161	 3.0407082553	-0.313817
H	-1.3884442865	 1.3408258518	 1.7604815705	 0.119707
H	-2.7535896875	 0.4358973667	 1.1022983906	 0.113101
H	-2.095784456	 0.0204811935	 2.6905634916	 0.115392
H	-1.3034089698	-1.6367491687	 0.9138147993	 0.07657
H	 0.1967438887	-0.8662158825	-0.9394635113	 0.104803
H	 0.0551385544	 0.843910917	-0.3415085398	 0.108386
H	 1.0672500318	-1.6076333945	 1.2595987452	 0.07821
H	 0.6032235291	 2.2999521818	 1.5091533826	 0.116168
H	 2.0887407576	 2.3503666837	 2.4556273463	 0.108313
H	 2.1293855932	 1.7892681663	 0.7779890812	 0.118606
H	 1.0858197589	 1.019641944	 4.3143359374	 0.10418
H	 0.4470616843	-0.6539389141	 3.9830086185	 0.10843
H	 2.6498731712	-1.2950720538	 2.9316250058	 0.107003
H	 3.2952809288	 0.3774070708	 3.2468339198	 0.105191
53.5322	153.35	180.3948	238.0542	245.9871	303.4998	337.376	353.9945	370.9537	441.1005	550.6479	675.9562	772.8937	785.1196	837.4576	852.3424	862.9425	916.2579	934.0278	949.8798	965.1163	1031.3807	1043.6405	1065.0488	1076.6382	1079.1329	1096.2867	1113.4061	1133.7422	1148.7851	1191.	1199.1068	1234.6506	1299.3992	1332.4964	1392.0708	1410.0238	1419.3828	1426.5765	1468.0438	1484.7403	1490.0782	1498.0451	1502.3457	1503.4448	1508.1096	3026.1173	3031.306	3085.826	3087.2713	3097.3172	3109.0301	3121.9472	3123.0928	3127.6542	3128.8735	3134.9697	3200.4749	3211.2714	3216.2298
CC1CC1C1(C)CC1	C[C@H]1C[C@H]1C1(C)CC1	
InChI=1S/C8H14/c1-6-5-7(6)8(2)3-4-8/h6-7H,3-5H2,1-2H3	InChI=1S/C8H14/c1-6-5-7(6)8(2)3-4-8/h6-7H,3-5H2,1-2H3/t6-,7+/m0/s1
