18
gdb 39556	3.90391	1.68667	1.51652	1.0662	80.72	-0.2072	-0.0034	0.2038	912.5094	0.150671	-364.761507	-364.755298	-364.754354	-364.791533	27.177	
C	-0.0264069831	 1.4142945362	-0.0241179453	-0.22252
C	 1.3470209904	 2.0333676777	 0.026634844	-0.064543
C	 2.3868443765	 1.2060137356	 0.1086896044	-0.095526
C	 2.1048038317	-0.2696970999	 0.1436633704	-0.03262
C	 1.000302882	-0.70642584	-0.8924463379	-0.056318
C	 0.7859470641	-2.1699402756	-0.530637352	-0.082281
C	 0.7164817303	-2.1250477534	 0.8032620807	-0.08229
C	 0.8971576744	-0.6398152215	 1.0864031778	-0.056315
N	-0.044800118	-0.0555581303	 0.0243979557	-0.119389
H	-0.6452342326	 1.7809436935	 0.8074565843	 0.114221
H	-0.5542475882	 1.722193723	-0.9381626136	 0.114221
H	 1.4473430728	 3.1145192565	-0.0045361266	 0.089683
H	 3.4134334495	 1.5564065688	 0.1504013358	 0.088006
H	 3.0006459504	-0.8913512067	 0.211288004	 0.06451
H	 1.0277116084	-0.3925276243	-1.9362227874	 0.065885
H	 0.7033956971	-3.0000483747	-1.2163990409	 0.104695
H	 0.5603172653	-2.9075883553	 1.5308649505	 0.104695
H	 0.8171138689	-0.2565302094	 2.1039680962	 0.065886
241.3361	289.579	351.0072	448.6386	519.5886	523.2694	559.9477	660.7939	692.7989	722.422	775.696	817.0452	833.3467	902.2862	912.3121	918.7338	936.9432	943.7898	948.9737	979.3747	1008.4796	1011.8868	1035.5474	1121.979	1130.9629	1150.0769	1166.6579	1188.8933	1221.4594	1225.2907	1268.2489	1274.2297	1323.8714	1336.7468	1346.6079	1393.0717	1458.5926	1618.317	1704.3991	3002.0403	3026.637	3078.7409	3116.3179	3120.079	3160.0372	3184.5943	3229.3724	3255.954
C1C=CC2C3C=CC2N13	C1C=C[C@@H]2[C@H]3C=C[C@@H]2N13	
InChI=1S/C8H9N/c1-2-6-7-3-4-8(6)9(7)5-1/h1-4,6-8H,5H2	InChI=1S/C8H9N/c1-2-6-7-3-4-8(6)9(7)5-1/h1-4,6-8H,5H2/t6-,7-,8+
