19
gdb 107989	2.97611	1.47699	1.30029	1.3454	74.36	-0.2324	0.0769	0.3093	1061.47	0.159387	-422.966519	-422.958779	-422.957835	-422.998885	30.277	
C	 0.1025626355	 1.5796307925	 0.0574979645	-0.381037
C	 0.0487558411	 0.0489416909	-0.0169362981	-0.334772
C	 0.6427962439	-0.487894733	-1.2831491656	 0.425167
O	 2.0472468843	-0.1699098946	-1.6036519304	-0.352269
C	 1.6137497869	-1.0117585373	-2.7183027089	 0.021303
C	 0.8351534597	-1.9678842613	-1.7672105664	-0.14392
C	-0.4411610788	-2.3741254689	-2.4838999087	-0.113182
O	-0.7911696813	-1.1439086795	-3.1620365784	-0.277841
C	 0.2469419126	-0.276909277	-2.7835485437	 0.060024
H	 1.1324462523	 1.9326498395	-0.0416930059	 0.140574
H	-0.4870945722	 2.0346934856	-0.7446764481	 0.120165
H	-0.2944520846	 1.9374038061	 1.0116103238	 0.113465
H	 0.583890497	-0.3898788745	 0.8343865083	 0.111916
H	-0.9887850194	-0.3022929101	 0.0473741496	 0.112082
H	 2.3358777137	-1.2437230717	-3.5002159366	 0.092542
H	 1.3748339332	-2.6786713625	-1.143781191	 0.085245
H	-0.2955459369	-3.1731551611	-3.2206200987	 0.110101
H	-1.2515311211	-2.6667014006	-1.8055227419	 0.110065
H	 0.1451233744	 0.7131665076	-3.222421414	 0.100373
77.292	160.5642	181.9855	255.1129	275.8714	389.6554	476.0728	503.3046	641.248	677.2809	736.5413	756.5748	796.7579	815.3355	895.1882	923.036	941.784	945.8652	973.7994	985.9597	1016.8028	1031.5695	1072.5509	1096.7807	1120.3591	1141.0487	1168.2804	1199.6578	1213.3593	1230.8277	1264.7382	1277.161	1297.4808	1342.2215	1372.0234	1408.8484	1420.7413	1469.7041	1497.9017	1507.4863	1519.0641	3023.6952	3026.4294	3043.45	3061.115	3063.0803	3111.6628	3124.6565	3125.8613	3145.0103	3160.2117
CCC12OC3C1COC23	CC[C@@]12O[C@H]3[C@@H]1CO[C@@H]23	
InChI=1S/C7H10O2/c1-2-7-4-3-8-6(7)5(4)9-7/h4-6H,2-3H2,1H3	InChI=1S/C7H10O2/c1-2-7-4-3-8-6(7)5(4)9-7/h4-6H,2-3H2,1H3/t4-,5-,6+,7+/m0/s1
