17
gdb 14459	3.28468	2.40403	1.99804	1.5978	67.57	-0.2393	0.0739	0.3132	755.2235	0.144446	-363.80735	-363.800971	-363.800026	-363.837447	25.979	
O	-0.0433101254	 1.41900969	 0.0634703788	-0.471103
C	 0.040579634	 0.0349307655	 0.026886863	 0.341676
C	 0.6662311787	-0.9666006597	 1.0110182968	-0.238172
N	 0.0201005884	-1.8789474155	-0.031347173	-0.159071
C	-1.1818221559	-0.9020729436	-0.0301806606	-0.000804
C	-1.7826400335	-0.935099123	-1.4275778797	-0.241184
C	-0.4684895552	-0.9352479353	-2.2577284264	-0.238108
C	 0.5339698516	-0.906676705	-1.1138812988	-0.04032
H	 0.8481625685	 1.7839630005	 0.035549237	 0.280722
H	 1.7563691648	-1.0539170251	 1.0486946488	 0.09293
H	 0.2258194983	-1.0594728234	 2.0075370894	 0.101461
H	-1.838992902	-0.9922841118	 0.836435449	 0.07315
H	-2.3837558282	-1.8341673298	-1.5865104991	 0.108949
H	-2.4128439007	-0.0624137618	-1.6186015285	 0.110619
H	-0.356618298	-1.8303509144	-2.8752824433	 0.109116
H	-0.369556007	-0.0590492683	-2.9047626602	 0.104655
H	 1.6001109918	-0.9965244092	-1.3337954631	 0.065486
201.9772	219.9516	263.0751	371.0907	441.2663	470.04	620.8254	698.2432	705.8608	778.7666	816.3206	842.4798	901.7437	916.1666	939.0384	988.9179	994.7416	1026.3664	1035.6468	1050.9929	1095.1694	1122.0466	1135.8218	1149.4443	1202.2344	1251.349	1256.6259	1260.4351	1284.6234	1298.3521	1321.2933	1332.5385	1407.1115	1475.0871	1497.3909	1530.0462	3046.7727	3057.2265	3065.756	3095.2382	3097.3209	3108.6025	3112.1308	3115.2697	3803.0729
OC12CN3C1CCC23	O[C@@]12CN3[C@@H]1CC[C@@H]23	
InChI=1S/C6H9NO/c8-6-3-7-4(6)1-2-5(6)7/h4-5,8H,1-3H2	InChI=1S/C6H9NO/c8-6-3-7-4(6)1-2-5(6)7/h4-5,8H,1-3H2/t4-,5+,6+
