17
gdb 48549	2.94428	1.44888	1.40952	2.9052	73.12	-0.2392	-0.0231	0.2161	998.2629	0.136954	-421.807082	-421.799905	-421.798961	-421.838919	27.814	
O	-0.2189227082	 0.0725050305	-0.3353863432	-0.277084
C	-0.0220039843	 1.1814573209	 0.1079730903	 0.019774
C	 1.2622469883	 1.8684785535	 0.0717811025	 0.220307
C	 1.8299521888	 2.8804008929	 1.0816361389	-0.150092
C	 3.2303862846	 2.4371154088	 1.5110749064	-0.230162
C	 3.6045993494	 1.2986119428	 0.5153015769	-0.21635
C	 2.5874456291	 1.4737389103	-0.6036377971	 0.027276
O	 2.7460162683	 2.8371495801	-1.146625219	-0.30256
C	 1.6610723615	 3.2794520962	-0.3487475589	 0.05492
H	-0.8413387973	 1.7684376876	 0.5842017479	 0.065324
H	 1.1406871135	 3.3179951353	 1.7962354642	 0.102985
H	 3.9354051722	 3.2702502118	 1.4435827115	 0.12102
H	 3.2277405389	 2.0889893425	 2.5468557914	 0.110252
H	 4.6296904624	 1.3818062435	 0.1454843789	 0.11522
H	 3.4840635657	 0.310226407	 0.9725248939	 0.114298
H	 2.5679562947	 0.727803682	-1.3968569797	 0.106439
H	 1.0570660724	 4.1043359345	-0.7099764947	 0.118432
93.1001	155.6019	211.9818	245.2945	384.9841	458.8815	502.8878	645.6215	693.089	730.2034	758.2325	821.1943	835.4412	879.5603	892.2778	933.3812	966.5368	995.9069	1011.0733	1051.7949	1055.9913	1064.6837	1084.8973	1146.2609	1165.8982	1209.6195	1254.3716	1266.9862	1293.349	1311.7648	1338.3567	1349.1461	1412.4086	1453.9773	1472.9467	1497.6866	1791.3603	2859.8557	3048.616	3064.1157	3098.4145	3114.0348	3135.9562	3173.4009	3184.7215
O=CC12C3CCC1OC23	O=C[C@@]12[C@H]3CC[C@@H]1O[C@@H]23	
InChI=1S/C7H8O2/c8-3-7-4-1-2-5(7)9-6(4)7/h3-6H,1-2H2	InChI=1S/C7H8O2/c8-3-7-4-1-2-5(7)9-6(4)7/h3-6H,1-2H2/t4-,5-,6+,7+/m0/s1
