22
gdb 101318	2.68614	0.85228	0.72447	3.2207	78.67	-0.2497	0.0644	0.3141	1618.9588	0.193091	-441.447535	-441.436904	-441.435959	-441.484155	38.34	
C	 2.056685649	 3.2034538097	 1.6861387906	-0.417026
C	 1.1046224671	 2.0592804561	 1.312237062	 0.007947
C	 1.2128630154	 1.6779454993	-0.173256753	-0.066796
O	 0.8874772081	 2.739764213	-1.0550663217	-0.421945
C	 1.3811435995	 0.8457294671	 2.1791819126	-0.023071
N	 0.8585401012	 0.8547005646	 3.5569027822	-0.358353
C	 0.3738878028	-0.1670649664	 2.6038082321	-0.044301
C	-1.1091232745	-0.1000873311	 2.317165854	-0.06713
O	-1.8572716318	-0.4654858326	 3.464949168	-0.422652
H	 3.1024574122	 2.929741099	 1.495673864	 0.106806
H	 1.8315913431	 4.1108332829	 1.1167471085	 0.110062
H	 1.9602821407	 3.4475665061	 2.7476242932	 0.133726
H	 0.0798257015	 2.3983539272	 1.494345767	 0.090232
H	 2.2217215185	 1.282545802	-0.3817619481	 0.081423
H	 0.5019384275	 0.8764707595	-0.4003030171	 0.112791
H	 1.586235025	 3.3981222012	-0.9998930281	 0.284644
H	 2.3920241131	 0.4525881596	 2.0544067594	 0.079266
H	 1.5344374035	 0.4516155331	 4.1993018809	 0.233552
H	 0.7438430288	-1.1809498395	 2.7499982956	 0.089198
H	-1.3880443062	 0.9025231983	 1.965699383	 0.094621
H	-1.377211899	-0.8152369605	 1.5322112763	 0.108309
H	-1.5596988053	 0.1246622714	 4.1677931885	 0.288694
46.4227	58.5184	94.0225	143.3009	169.0138	232.0665	256.446	283.1486	312.3926	355.3162	402.6982	440.5081	484.7919	505.9202	597.1698	811.62	815.275	875.2253	912.0738	925.704	960.8352	986.2088	997.9485	1064.9874	1070.9814	1075.3292	1101.0534	1133.7524	1157.1375	1183.507	1219.3317	1252.0332	1267.5379	1275.7193	1292.4875	1350.431	1367.6219	1387.2995	1402.2658	1405.2716	1421.3204	1441.8294	1479.2128	1495.5417	1497.1826	1498.5851	1510.045	2960.5078	3010.7741	3022.1157	3059.5347	3072.6335	3074.275	3083.56	3094.2044	3113.6049	3119.8428	3509.8286	3788.7005	3830.6401
CC(CO)C1NC1CO	C[C@@H](CO)[C@H]1N[C@H]1CO	
InChI=1S/C6H13NO2/c1-4(2-8)6-5(3-9)7-6/h4-9H,2-3H2,1H3	InChI=1S/C6H13NO2/c1-4(2-8)6-5(3-9)7-6/h4-9H,2-3H2,1H3/t4-,5-,6+/m0/s1
