20
gdb 105210	2.02153	1.50863	1.10181	2.8769	76.42	-0.2361	0.0295	0.2655	1205.7772	0.169091	-440.304366	-440.294294	-440.29335	-440.339062	37.092	
C	 0.6616622301	 1.2086044525	 0.3840972231	-0.260772
O	-0.1195325111	 0.1567580801	-0.1701563104	-0.30246
C	 0.4761071257	-0.4948903929	-1.2568860963	 0.289227
C	 1.7383848252	-1.3049372957	-1.0473675698	-0.343104
C	 0.429974498	-2.0151911337	-1.2548583556	-0.03222
C	-0.244087426	-2.7558028871	-0.1237479233	-0.406683
C	 0.2865054748	 0.1553140856	-2.6058203862	 0.351381
N	-0.592233522	 1.2003757655	-2.6046817161	-0.538767
O	 0.8672932533	-0.2359745616	-3.6026162994	-0.378801
H	 1.6229700955	 0.8387949031	 0.7614204161	 0.118614
H	 0.8536540478	 2.0004596765	-0.35124748	 0.122557
H	 0.0855430553	 1.6208484756	 1.2157280837	 0.12723
H	 2.4596636748	-1.2942161519	-1.8555497116	 0.140832
H	 2.1478789019	-1.3043034579	-0.0424605658	 0.113643
H	 0.2934369294	-2.4390693112	-2.2451530961	 0.11021
H	-0.1312766122	-2.2194486967	 0.8211581226	 0.124487
H	-1.3161555736	-2.8754623085	-0.3122191902	 0.119667
H	 0.1893747593	-3.7548937273	-0.008285676	 0.118938
H	-1.1929694292	 1.328313967	-1.8070849116	 0.266531
H	-0.8796535871	 1.5622870587	-3.4994597071	 0.259489
77.7712	130.8203	153.7687	164.4669	173.3607	196.2897	254.7463	308.6225	357.4644	391.5502	418.0402	486.1219	543.8021	559.1956	608.3003	681.7144	743.2925	833.0104	901.0911	914.6712	933.7295	1010.2128	1060.4263	1075.3042	1093.508	1098.6344	1140.0477	1184.7455	1197.6752	1205.4417	1225.7841	1290.2889	1367.5215	1397.8858	1422.9127	1460.2664	1479.6219	1488.2242	1491.7829	1501.7343	1509.9258	1593.9676	1787.5824	3009.4493	3036.9343	3069.5259	3095.5959	3122.3575	3122.7695	3135.8436	3162.0714	3234.4923	3591.0876	3726.7673
COC1(CC1C)C(N)=O	CO[C@]1(C[C@H]1C)C(=O)N	
InChI=1S/C6H11NO2/c1-4-3-6(4,9-2)5(7)8/h4H,3H2,1-2H3,(H2,7,8)	InChI=1S/C6H11NO2/c1-4-3-6(4,9-2)5(7)8/h4H,3H2,1-2H3,(H2,7,8)/t4-,6+/m1/s1
