23
gdb 106623	2.56044	1.36954	1.20048	1.7502	84.7	-0.2342	0.0809	0.3151	1196.2818	0.206469	-388.280751	-388.271814	-388.27087	-388.314065	35.106	
C	-0.1427154443	 1.5493684844	 0.0376084525	-0.386054
C	 0.0967196169	 0.0333844228	 0.0179618713	-0.298039
C	 0.7512850726	-0.4784822513	-1.2482100398	 0.292987
C	 0.0804595666	-0.4085430656	-2.6641824523	-0.276832
C	 1.1664506963	-1.4631646726	-2.967753619	 0.084078
O	 2.3945451751	-0.7221282655	-2.8391462356	-0.279466
C	 2.1547619016	 0.0264022107	-1.6270536409	-0.119023
C	 0.9280926787	-2.0199539617	-1.5400781756	-0.012804
C	 1.9984051579	-2.8557089318	-0.8578618024	-0.441118
H	 0.7967914642	 2.1090537984	-0.0098011225	 0.119901
H	-0.759529639	 1.8628933693	-0.8111078193	 0.120982
H	-0.6596149175	 1.8502248276	 0.9538453575	 0.113929
H	 0.7157449226	-0.2492967926	 0.8805415812	 0.097803
H	-0.8615601052	-0.4847464513	 0.1510339104	 0.09618
H	-0.9351823652	-0.8093716462	-2.6698553618	 0.095851
H	 0.1349825816	 0.530679508	-3.2200364009	 0.095618
H	 1.2023908299	-2.0724431388	-3.8699260528	 0.072916
H	 2.1874678916	 1.1011248137	-1.8397994255	 0.097901
H	 2.920151523	-0.207151462	-0.8771064102	 0.094454
H	-0.0504470817	-2.5057664615	-1.4738491121	 0.068285
H	 3.0007216789	-2.4904385128	-1.0947961546	 0.134946
H	 1.8761347587	-2.8521182432	 0.231212497	 0.112682
H	 1.9411355066	-3.8982110278	-1.1891099843	 0.114821
81.6739	152.5392	168.142	216.0243	241.7502	278.8648	314.7204	354.4206	451.6941	490.9242	579.0773	608.7661	698.8834	766.6002	777.1433	819.5475	872.9535	905.3107	936.3661	949.7638	981.9564	994.4803	1001.6478	1027.5153	1067.7298	1076.4246	1100.1379	1125.4359	1140.8005	1181.3043	1197.6693	1217.9549	1225.6387	1234.4262	1269.1563	1302.067	1323.9934	1367.7454	1377.0039	1398.7347	1411.4596	1413.1832	1482.9833	1489.2609	1494.6422	1501.4941	1504.7834	1507.2036	1533.4539	3011.9712	3020.5161	3032.8828	3036.7829	3044.4108	3056.8441	3058.2898	3067.4157	3089.9491	3105.2195	3106.7376	3121.5253	3129.4271	3132.1649
CCC12CC(OC1)C2C	CC[C@@]12C[C@@H](OC1)[C@H]2C	
InChI=1S/C8H14O/c1-3-8-4-7(6(8)2)9-5-8/h6-7H,3-5H2,1-2H3	InChI=1S/C8H14O/c1-3-8-4-7(6(8)2)9-5-8/h6-7H,3-5H2,1-2H3/t6-,7-,8-/m1/s1
