13
gdb 18419	3.57514	1.86666	1.57538	1.9265	64.61	-0.2484	-0.0324	0.216	815.6393	0.09423	-361.390312	-361.383497	-361.382553	-361.421354	25.799	
O	 0.0345141021	 0.0178837465	-0.0816194163	-0.295216
C	 0.0072524964	 1.2057799354	 0.0384560993	 0.420474
C	-1.0986055797	 2.2800522327	 0.007854859	-0.293897
N	-0.0438237676	 3.3463164534	-0.1702278316	-0.133694
C	 0.7895144721	 3.3174836621	 1.0463370236	-0.198295
C	 0.2845568641	 3.0036545232	 2.3552079761	 0.346234
C	-0.1264760661	 2.7852514529	 3.4637202995	-0.436786
C	 1.0495933298	 2.2917139694	-0.0219473989	-0.18003
H	-1.7057502718	 2.1991592504	-0.897190761	 0.146923
H	-1.7362459734	 2.4071779099	 0.8840754438	 0.147771
H	 1.5100084132	 4.132767955	 1.0364067343	 0.137467
H	-0.4850118987	 2.5796262459	 4.442408327	 0.211327
H	 1.9707875499	 2.2919227333	-0.5944208847	 0.127723
90.9507	173.094	233.1012	375.6449	444.9308	465.4926	559.6854	606.9545	623.6143	655.6855	678.1615	744.8528	793.7126	881.3163	917.8002	965.9126	1010.6873	1047.7274	1057.701	1106.9186	1159.638	1216.4389	1242.3488	1297.6486	1380.7385	1455.7014	1902.3355	2237.0358	3077.4191	3134.116	3141.2237	3183.3833	3500.1118
O=C1CN2C(C#C)C12	O=C1CN2[C@@H](C#C)[C@@H]12	
InChI=1S/C6H5NO/c1-2-4-6-5(8)3-7(4)6/h1,4,6H,3H2	InChI=1S/C6H5NO/c1-2-4-6-5(8)3-7(4)6/h1,4,6H,3H2/t4-,6-,7?/m0/s1
