18
gdb 127031	6.39828	0.82388	0.73999	2.8957	75.82	-0.2253	0.022	0.2472	1554.4515	0.147945	-435.304448	-435.295145	-435.294201	-435.33993	32.398	
C	-0.0886795526	 1.455470463	 0.1082700012	-0.39213
C	 0.0573408797	-0.0495200709	-0.0093221321	-0.034598
O	 0.5803809557	-0.5314163232	 1.2354434381	-0.257268
C	 0.7762641916	-1.8469469281	 1.316399646	 0.433439
N	 0.518996585	-2.6997748318	 0.33424608	-0.322922
N	 0.8846274118	-3.8800679282	 0.9182507882	-0.256159
C	 1.3260374728	-3.6784900327	 2.17524629	 0.376292
C	 1.7985159177	-4.7669606078	 3.0772839752	-0.492389
N	 1.2699044354	-2.3878715366	 2.462131473	-0.376599
H	 0.8786517686	 1.9245875838	 0.3083935823	 0.130735
H	-0.4868395309	 1.8650789726	-0.8247881662	 0.118009
H	-0.7717535767	 1.7165657566	 0.9213438722	 0.130736
H	-0.9040715497	-0.5372416305	-0.2097360199	 0.115209
H	 0.7399527921	-0.3300209538	-0.8203168216	 0.115209
H	 0.8006818613	-4.7387806269	 0.4008453065	 0.272998
H	 1.7377500256	-5.7433108408	 2.589199038	 0.123353
H	 2.8361274787	-4.5920541724	 3.3758247903	 0.158015
H	 1.1948325141	-4.7962734322	 3.9888739189	 0.158072
33.8473	61.5488	95.212	145.9837	217.7072	255.2311	312.606	350.6733	379.6894	477.9192	505.476	687.7578	688.9796	773.8165	783.293	814.3254	926.2244	997.8528	1028.3426	1058.5347	1065.7612	1107.3375	1134.841	1183.8806	1185.0151	1277.9384	1293.6678	1379.2382	1402.6611	1416.7261	1428.7303	1464.086	1470.4094	1484.1448	1498.1311	1510.925	1525.758	1585.1652	1589.2381	3028.4728	3046.2718	3047.7557	3064.7458	3113.785	3120.8867	3124.9156	3125.0117	3670.0464
CCOC1=NNC(C)=N1	CCOc1n[nH]c(C)n1	
InChI=1S/C5H9N3O/c1-3-9-5-6-4(2)7-8-5/h3H2,1-2H3,(H,6,7,8)	InChI=1S/C5H9N3O/c1-3-9-5-6-4(2)7-8-5/h3H2,1-2H3,(H,6,7,8)
