19
gdb 65589	3.54115	1.21945	1.19693	1.2014	80.66	-0.2614	0.0391	0.3005	1121.6782	0.159073	-385.853721	-385.845399	-385.844454	-385.886007	33.56	
O	-0.384145058	 0.9134634798	 0.4902017733	-0.449996
C	 0.0448686037	-0.3390313063	-0.064494439	 0.139328
C	 0.839571432	-1.1802043501	 0.9840112558	-0.247921
C	-0.1991227333	-1.9945419154	 1.7366324648	-0.037534
C	-1.4237389149	-1.2856001371	 2.2640070032	-0.284112
C	-1.4794024023	-1.9877307263	 0.9287636077	-0.039839
C	-1.2471265814	-1.1635339912	-0.3273466473	-0.230038
C	 0.8272796456	-0.0927262613	-1.2790843286	 0.272009
C	 1.4896714945	 0.1304389542	-2.2576480858	-0.428469
H	 0.4002141498	 1.4607398167	 0.6084653893	 0.281158
H	 1.5321774365	-1.8506726718	 0.4645523606	 0.110718
H	 1.4389592152	-0.5176962414	 1.6187035053	 0.096033
H	 0.137013439	-2.8914948405	 2.2450069942	 0.080256
H	-1.9443883373	-1.7625901876	 3.0876465384	 0.100046
H	-1.4328680886	-0.2028270206	 2.2808386087	 0.133985
H	-2.0883200508	-2.880420556	 0.8389217782	 0.080131
H	-2.0624626695	-0.4791726747	-0.5775479341	 0.119889
H	-1.0873348125	-1.826400723	-1.1828505581	 0.110281
H	 2.0649402121	 0.3245862628	-3.1290699566	 0.194074
122.6313	143.5902	217.6563	268.3704	300.8828	373.7243	395.8492	402.1899	511.6871	532.5864	601.1637	625.6688	637.7338	657.8648	779.7984	783.2795	825.8132	871.4307	883.5387	902.3529	960.5867	1022.0527	1039.3622	1064.0803	1071.6226	1087.2632	1094.4975	1119.6432	1145.0141	1193.4224	1215.1605	1267.876	1307.935	1310.8781	1342.6614	1373.5435	1400.8428	1472.8892	1479.2825	1493.6781	2230.0567	3037.6734	3057.9449	3080.7276	3104.2857	3138.2403	3163.1894	3173.0374	3233.9087	3500.2595	3805.4202
OC1(CC2CC2C1)C#C	O[C@]1(C[C@H]2C[C@H]2C1)C#C	
InChI=1S/C8H10O/c1-2-8(9)4-6-3-7(6)5-8/h1,6-7,9H,3-5H2	InChI=1S/C8H10O/c1-2-8(9)4-6-3-7(6)5-8/h1,6-7,9H,3-5H2/t6-,7+,8+
