20
gdb 107980	2.69977	1.43907	1.38845	1.5111	79.85	-0.239	0.0887	0.3277	1083.5193	0.169762	-403.052455	-403.043804	-403.04286	-403.0856	32.953	
C	 0.0067111648	 1.3777540924	 0.0607972466	-0.263808
O	-0.0389357576	-0.03689696	-0.0170046686	-0.291419
C	-1.3117073735	-0.5618899096	 0.0393137637	 0.362027
C	-2.3746517998	-0.5128622069	 1.1366751334	-0.262745
N	-3.0370876892	-1.4133338825	 0.098969691	-0.183981
C	-2.4446072436	-0.5639974741	-1.0467453593	-0.072321
C	-1.8960425236	-1.8047472769	-1.7529680787	-0.309012
C	-1.6535289673	-2.0514061593	-0.2549670792	 0.307981
C	-1.1484291798	-3.2829027337	 0.4343131876	-0.520464
H	 1.0578025715	 1.6683518006	 0.0071284585	 0.131182
H	-0.5374770434	 1.8454955082	-0.7716483274	 0.112949
H	-0.4166972545	 1.7452613478	 1.0057443697	 0.115149
H	-2.1695358667	-1.0106167623	 2.0893341204	 0.102306
H	-2.9183827631	 0.4229685299	 1.2995771745	 0.099007
H	-3.010017343	 0.2811941706	-1.4415143272	 0.078384
H	-2.6350588219	-2.4533126647	-2.2315707595	 0.102895
H	-1.0091522614	-1.667650366	-2.3752643567	 0.105284
H	-0.1213131681	-3.4972495415	 0.1213616246	 0.131235
H	-1.1513430896	-3.164419131	 1.5226709528	 0.124704
H	-1.7724842202	-4.1463794008	 0.1833415635	 0.130647
78.7643	150.7031	165.9003	191.707	260.3251	269.5147	310.9087	412.5693	465.4779	511.4113	606.2297	652.6262	730.2853	800.2759	862.2744	880.0748	894.5495	924.4862	958.1329	1004.4954	1018.1048	1066.1894	1092.6702	1107.8408	1123.6991	1140.5674	1160.5811	1180.1342	1188.4924	1198.8657	1216.833	1243.0941	1263.3812	1314.5213	1345.7137	1409.788	1480.5269	1483.4638	1485.943	1489.3688	1491.6576	1505.5415	1521.7193	2994.3716	3034.6493	3044.0285	3049.1835	3059.4293	3102.4364	3106.0836	3107.3108	3107.9697	3125.1816	3126.8692
COC12CN3C1CC23C	CO[C@@]12CN3[C@@H]1C[C@@]23C	
InChI=1S/C7H11NO/c1-6-3-5-7(6,9-2)4-8(5)6/h5H,3-4H2,1-2H3	InChI=1S/C7H11NO/c1-6-3-5-7(6,9-2)4-8(5)6/h5H,3-4H2,1-2H3/t5-,6+,7+/m1/s1
