22
gdb 79290	2.56106	1.70538	1.46836	1.5869	83.82	-0.232	0.0895	0.3215	1040.9114	0.197212	-367.219083	-367.211329	-367.210385	-367.250727	32.01	
C	-0.0816372548	 1.6243998927	-0.0329915463	-0.425014
C	 0.0271272184	 0.0985816562	-0.0050542751	 0.02583
C	 0.9232591331	-0.4990358543	-1.0881370072	-0.042234
C	 2.3008201973	-0.6153150182	-0.5269342879	-0.032764
C	 2.2547214042	-0.1166415667	 0.9144763741	-0.248096
C	 0.7924557945	-0.5388696345	 1.1846181216	-0.074807
C	 0.8790667974	-2.0171959912	 0.7265728344	 0.077473
C	-0.3942598775	-2.8527590497	 0.7096141718	-0.418452
N	 1.4386399059	-1.8195621314	-0.6432860813	-0.135992
H	 0.8956667561	 2.114415281	-0.0186282403	 0.119554
H	-0.5966212099	 1.9536944364	-0.9419885714	 0.115445
H	-0.657651022	 1.9928666921	 0.8224685176	 0.113846
H	-0.9864087809	-0.3114284095	-0.0665792377	 0.07076
H	 0.7195842358	-0.3822025797	-2.1463138154	 0.08281
H	 3.1979877225	-0.590002001	-1.133620478	 0.086325
H	 2.9643539834	-0.636876018	 1.5659035739	 0.09875
H	 2.4368699283	 0.9572860782	 1.0015510392	 0.09898
H	 0.3990059212	-0.3472164985	 2.1824690526	 0.060591
H	 1.6330113909	-2.5493206187	 1.3196933356	 0.069751
H	-1.1775532813	-2.4117967741	 0.0879953742	 0.120958
H	-0.1782095956	-3.8466107764	 0.3069526764	 0.126403
H	-0.788925787	-2.9732646946	 1.7241025694	 0.109883
178.7284	187.0444	223.0998	238.846	293.7694	307.7311	458.3287	524.9257	539.8486	682.8656	697.2203	746.3509	790.8857	833.1824	856.7913	871.7004	908.6897	925.9095	934.6481	963.0903	996.7671	1031.9802	1040.1678	1053.6353	1067.6458	1110.4271	1112.4503	1130.3269	1137.5897	1154.4786	1206.6724	1218.0841	1245.472	1278.3354	1285.3003	1288.862	1333.7839	1372.1597	1387.5924	1395.0296	1411.8548	1412.3942	1487.8155	1492.9452	1496.2191	1504.253	1514.0229	3026.7709	3034.7403	3040.1751	3050.3695	3056.3166	3093.8169	3100.0116	3108.5043	3116.9432	3121.6034	3123.4806	3175.492	3187.7287
CC1C2C3CC1C(C)N23	C[C@H]1[C@H]2[C@H]3C[C@@H]1[C@@H](C)N23	
InChI=1S/C8H13N/c1-4-6-3-7-8(4)9(7)5(6)2/h4-8H,3H2,1-2H3	InChI=1S/C8H13N/c1-4-6-3-7-8(4)9(7)5(6)2/h4-8H,3H2,1-2H3/t4-,5-,6+,7-,8+,9?/m1/s1
