14
gdb 65860	3.61484	1.11832	1.09197	2.168	62.33	-0.288	-0.0117	0.2763	1105.7694	0.100449	-473.869958	-473.861968	-473.861024	-473.902745	29.244	
O	-0.3070698875	 1.3345999811	 0.1591716724	-0.445591
C	-0.0067287743	-0.0350971646	-0.0250946163	 0.196504
C	 0.6336882183	-0.6650233431	 1.2435379071	-0.106501
O	-0.4569798493	-0.9891854121	 2.0991747011	-0.212796
C	-1.6270771617	-1.0838520682	 1.3977855803	 0.432681
O	-2.6595287006	-1.3867526798	 1.9090087353	-0.317228
C	-1.3508115764	-0.7685809142	-0.0698768329	-0.375686
C	 0.8383127817	-0.235213303	-1.2144434256	 0.240998
N	 1.5290201621	-0.3687472014	-2.1309765125	-0.321535
H	 0.5158122478	 1.8305055744	 0.2439670471	 0.299666
H	 1.2012725576	-1.5700777207	 1.0001850761	 0.138425
H	 1.2856476786	 0.0441643711	 1.7588523937	 0.135426
H	-2.1386821525	-0.1531722643	-0.5021139736	 0.173289
H	-1.2841416739	-1.7067461352	-0.6280327623	 0.16235
82.3439	146.9182	171.6493	198.0319	332.1069	378.502	395.0192	447.3068	491.9997	556.1491	591.4158	610.6947	694.8365	818.1766	843.8861	921.9797	948.9873	1063.2213	1074.3355	1096.0892	1121.7968	1165.9061	1210.4135	1267.0185	1288.3874	1358.4877	1401.5551	1445.8696	1503.2518	1905.5981	2357.3954	3047.0518	3083.7141	3112.341	3158.5453	3801.0925
OC1(COC(=O)C1)C#N	O[C@]1(COC(=O)C1)C#N	
InChI=1S/C5H5NO3/c6-2-5(8)1-4(7)9-3-5/h8H,1,3H2	InChI=1S/C5H5NO3/c6-2-5(8)1-4(7)9-3-5/h8H,1,3H2/t5-/m0/s1
