16
gdb 48327	2.83399	1.49539	1.14336	2.95	70.99	-0.25	-0.0508	0.1992	1059.877	0.122726	-437.847163	-437.83906	-437.838116	-437.879991	29.731	
O	-0.5267670918	 0.4414239076	 0.6960595829	-0.277139
C	 0.0069280183	 1.0940268585	-0.1715779371	 0.077213
C	 1.231274962	 1.9385486986	-0.0139471501	 0.105674
C	 1.7482123745	 2.5384368879	-1.2898506842	 0.129731
O	 1.1386874028	 2.5574139943	-2.3289542194	-0.262673
C	 1.498282194	 2.814735786	 1.1888334212	-0.05581
C	 0.9828232493	 2.2197816373	 2.4971015722	-0.258158
C	 1.88882683	 1.0077988905	 2.1666908551	-0.151857
N	 2.3970189856	 1.6695682915	 0.9008681799	-0.178375
H	-0.391566841	 1.1226403352	-1.2033047129	 0.126847
H	 2.7650899888	 2.974017575	-1.1893998016	 0.100801
H	 1.8059165715	 3.8454487732	 1.0294665066	 0.111984
H	 1.3173139582	 2.7911752809	 3.3646895106	 0.120881
H	-0.0888820301	 2.0350903573	 2.5655416305	 0.141031
H	 2.740052916	 0.8975361206	 2.8406484146	 0.123109
H	 1.4035072119	 0.0469626355	 2.0104781117	 0.14674
86.7597	128.9956	204.2823	226.2385	245.0438	294.8497	370.8998	388.4519	450.1683	670.805	715.1444	728.1469	784.9214	825.0137	898.2237	937.1831	961.9882	1002.8951	1023.8229	1035.973	1065.7433	1105.2059	1146.7514	1205.4862	1214.4552	1264.2896	1286.2755	1304.5519	1355.3651	1416.0653	1429.1744	1473.2992	1493.0816	1795.8952	1823.8206	2912.476	2964.5742	3085.9459	3091.8956	3140.2492	3146.907	3169.3182
O=CC1(C=O)C2CCN12	O=CC1(C=O)[C@H]2CCN12	
InChI=1S/C6H7NO2/c8-3-6(4-9)5-1-2-7(5)6/h3-5H,1-2H2	InChI=1S/C6H7NO2/c8-3-6(4-9)5-1-2-7(5)6/h3-5H,1-2H2/t5-,7?/m1/s1
