18
gdb 55405	2.57709	1.43718	1.03291	3.516	73.25	-0.2469	-0.0143	0.2326	1169.3842	0.14819	-439.160052	-439.151305	-439.150361	-439.194021	31.91	
C	-0.0226636322	 1.4733981835	 0.2171332391	-0.488225
C	 0.1054530698	-0.0082391156	-0.0397688273	 0.384879
O	 1.1632759036	-0.5571744935	-0.2428083212	-0.297569
C	-1.2089119889	-0.8033460576	-0.0050737015	-0.2248
C	-1.0918320349	-2.2452950248	-0.515066887	-0.237811
C	-1.9768847727	-3.0860558269	 0.43222692	-0.174306
N	-2.0513838712	-2.2567257316	 1.6223284855	-0.297058
C	-1.7249814075	-0.9465010973	 1.4498538555	 0.409363
O	-1.8279269629	-0.0663902213	 2.2787361583	-0.379995
H	 0.9645057374	 1.9333135304	 0.2720617891	 0.135898
H	-0.602268779	 1.9410533826	-0.5878529161	 0.13305
H	-0.5825244092	 1.6232004222	 1.1465036481	 0.181145
H	-1.97356603	-0.2228325765	-0.5357877123	 0.111114
H	-1.3950955412	-2.3545328059	-1.5575623615	 0.112168
H	-0.04501186	-2.5473321699	-0.4358687473	 0.146137
H	-2.97510471	-3.2633268971	 0.0086741493	 0.109412
H	-1.5329809295	-4.0607370194	 0.656991812	 0.1209
H	-2.5001034616	-2.5485287813	 2.4765002573	 0.255697
74.1962	75.1014	161.4685	184.8518	195.0959	271.1991	352.3592	450.5467	504.8355	574.4554	582.6288	591.2667	686.0636	709.3549	790.1514	880.6443	927.1812	940.2974	976.4906	998.4655	1062.4732	1079.3506	1125.5203	1183.3594	1201.6834	1225.4628	1248.4202	1268.6864	1305.4551	1344.9272	1371.1079	1384.3159	1452.9221	1468.007	1477.7925	1500.6905	1539.0379	1808.6283	1817.5669	3005.8288	3032.8798	3041.3768	3068.7103	3082.2264	3100.4863	3129.9076	3155.9868	3638.6106
CC(=O)C1CCNC1=O	CC(=O)[C@H]1CCNC1=O	
InChI=1S/C6H9NO2/c1-4(8)5-2-3-7-6(5)9/h5H,2-3H2,1H3,(H,7,9)	InChI=1S/C6H9NO2/c1-4(8)5-2-3-7-6(5)9/h5H,2-3H2,1H3,(H,7,9)/t5-/m1/s1
