19
gdb 89835	3.19334	1.2263	0.9888	2.7195	75.4	-0.2512	-0.0284	0.2229	1213.9157	0.159062	-423.044181	-423.035882	-423.034937	-423.077133	32.436	
O	 0.2560770445	 1.2161842313	 0.4827454732	-0.445235
C	 0.0258046326	-0.1000948874	 0.0714424399	 0.067388
C	-1.4447054263	-0.5163801487	-0.0731573833	-0.324419
C	-1.3505151324	-1.7599180688	-0.961327733	 0.368487
C	-1.5158260783	-3.1331353917	-0.3530695116	-0.308024
C	-2.5567290533	-2.5854846865	-1.3011208858	-0.32794
C	-0.2337914227	-1.491195836	-1.9723428601	-0.412551
C	 0.581391362	-0.3740309674	-1.3269256657	 0.370287
O	 1.4601697146	 0.2867098225	-1.8238539711	-0.330162
H	 0.9695982232	 1.5451535416	-0.0850554152	 0.290776
H	 0.5217495847	-0.8223066193	 0.7487525308	 0.094815
H	-1.9347696698	-0.7113391637	 0.8835223297	 0.109768
H	-1.9916233577	 0.2912159423	-0.576286389	 0.112458
H	-0.8738848334	-3.9326893914	-0.7086650645	 0.113226
H	-1.7693925252	-3.2002249317	 0.6999182494	 0.116386
H	-3.514176422	-2.2820121585	-0.8901519966	 0.116106
H	-2.6172329726	-3.0159976487	-2.295491108	 0.114679
H	 0.3923286936	-2.3610546505	-2.1946297421	 0.134438
H	-0.6118569514	-1.1182483572	-2.932499107	 0.139516
72.2657	111.174	241.6847	271.8431	315.4396	362.1853	373.4203	407.4855	471.6533	491.4493	590.4043	624.1738	745.3139	766.9797	780.9347	861.5594	906.2335	945.2895	952.7209	976.895	992.2103	1050.0898	1057.7459	1083.9383	1107.835	1151.7023	1176.912	1177.5546	1188.5866	1245.4656	1266.8435	1274.7159	1294.1893	1371.9428	1381.0635	1417.551	1445.8669	1466.7846	1497.1983	1504.8284	1838.1091	2920.389	3033.2481	3037.6492	3083.5614	3103.218	3123.6168	3127.9933	3202.309	3216.9329	3710.8753
OC1CC2(CC2)CC1=O	O[C@H]1CC2(CC2)CC1=O	
InChI=1S/C7H10O2/c8-5-3-7(1-2-7)4-6(5)9/h5,8H,1-4H2	InChI=1S/C7H10O2/c8-5-3-7(1-2-7)4-6(5)9/h5,8H,1-4H2/t5-/m0/s1
