19
gdb 80128	2.43113	1.73342	1.27242	2.5854	80.22	-0.2347	-0.016	0.2187	1052.1111	0.159977	-385.916952	-385.908974	-385.908029	-385.949561	30.847	
C	-0.9999836734	 1.1570131046	 0.2440447556	-0.411077
C	-0.1154859593	-0.0653070684	 0.0453493306	-0.096422
C	 0.6150828412	-0.3512233646	-1.3200786953	-0.104568
C	 0.9960028312	 0.8567233571	-2.1360243649	-0.067515
C	 2.2940504152	 1.154845278	-2.0516144382	-0.062906
C	 3.0695662657	 0.1976503793	-1.1733816623	-0.27302
C	 1.9515372488	-0.6666325643	-0.5583609704	-0.14278
C	 1.2779739846	-0.0752202768	 0.6961223853	 0.389026
O	 1.7047975153	 0.3420674234	 1.7347521981	-0.307554
H	-0.4972269888	 2.0643218158	-0.1032894858	 0.126271
H	-1.9447698143	 1.0592763467	-0.3003133342	 0.115796
H	-1.2306084432	 1.2872298641	 1.3055538416	 0.134149
H	-0.6446097608	-0.9735990751	 0.3655022127	 0.099751
H	 0.1588825141	-1.1454308458	-1.9172602723	 0.074908
H	 0.2737802743	 1.409551555	-2.7271319462	 0.09601
H	 2.7739542712	 1.9819957051	-2.56402591	 0.097011
H	 3.7831821876	-0.3958022491	-1.7592714733	 0.108767
H	 3.6503865298	 0.7099657956	-0.397309297	 0.128388
H	 2.2079670409	-1.7217855408	-0.439649914	 0.095765
72.1912	166.3884	186.638	210.4233	238.2413	348.7672	489.0671	513.2292	557.0854	621.687	710.8516	756.6657	770.5952	825.6605	854.8923	877.6327	928.1653	956.7947	972.4357	975.9089	991.1039	1047.4854	1060.1275	1102.8202	1116.9666	1138.3875	1153.7752	1184.879	1206.5065	1245.8688	1261.4709	1302.2984	1323.5744	1334.7946	1380.0487	1404.702	1483.5702	1492.7608	1499.6088	1674.6095	1880.8623	3017.2909	3022.5304	3038.4065	3059.7448	3067.171	3091.7288	3107.4552	3115.5687	3178.7899	3203.4999
CC1C2C=CCC2C1=O	C[C@H]1[C@H]2C=CC[C@H]2C1=O	
InChI=1S/C8H10O/c1-5-6-3-2-4-7(6)8(5)9/h2-3,5-7H,4H2,1H3	InChI=1S/C8H10O/c1-5-6-3-2-4-7(6)8(5)9/h2-3,5-7H,4H2,1H3/t5-,6+,7+/m0/s1
