15
gdb 16860	4.08885	2.07632	1.6236	4.4928	62.31	-0.2426	0.0454	0.2881	792.6125	0.120721	-399.792726	-399.786277	-399.785333	-399.82352	24.888	
N	-0.1043711708	 1.1520298002	 0.5403647453	-0.545221
C	-0.0048406025	 0.0470361497	-0.0588820013	 0.453419
O	 1.1702131776	-0.6325313627	-0.1934368441	-0.26416
C	 1.3398688004	-1.5229798137	-1.306065919	-0.106678
C	 0.1817547732	-2.4836114058	-1.4101451407	-0.072731
C	-0.4782759652	-2.9502886939	-0.125340105	-0.331074
C	-1.1091111858	-1.8777083415	-0.9694680965	 0.130629
O	-1.1167155453	-0.5247092105	-0.5700551082	-0.232991
H	 0.8229666063	 1.4730431655	 0.8102650731	 0.2267
H	 1.435760799	-0.9377946574	-2.2308158189	 0.12102
H	 2.2902482768	-2.0293939301	-1.1184985885	 0.128654
H	 0.1947545556	-3.1415686973	-2.2728919568	 0.102873
H	-0.9554577749	-3.9235396607	-0.1178038295	 0.124863
H	-0.0198112901	-2.6580014599	 0.8123735566	 0.145234
H	-2.0348961141	-2.082622142	-1.4914061866	 0.119463
77.8765	190.4183	313.512	376.2671	446.032	528.8981	585.676	722.7122	746.4306	759.3212	799.5202	819.6875	830.1923	912.375	969.2521	992.2943	1049.201	1056.3258	1093.7656	1100.8316	1125.9977	1137.0359	1179.9562	1245.5618	1272.5018	1289.6258	1374.8476	1418.8416	1429.063	1486.2504	1513.3293	1764.5677	3016.1111	3093.2414	3143.9815	3165.4409	3199.5252	3234.9436	3528.8452
N=C1OCC2CC2O1	[NH][C]1OC[C@H]2C[C@H]2O1	
InChI=1S/C5H7NO2/c6-5-7-2-3-1-4(3)8-5/h3-4,6H,1-2H2	InChI=1S/C5H7NO2/c6-5-7-2-3-1-4(3)8-5/h3-4,6H,1-2H2/t3-,4-/m1/s1
