19
gdb 72867	3.32531	1.28949	1.0916	3.0099	75.71	-0.241	-0.0256	0.2155	1147.4348	0.157722	-423.006256	-422.997637	-422.996693	-423.039855	32.099	
C	-0.1043738308	 1.5870910369	 0.3934895244	-0.475841
C	 0.1143839396	 0.1342653344	 0.0631667691	 0.464641
C	-1.1195310317	-0.7699954256	-0.2361596462	-0.313419
C	-0.5592679517	-1.8178351605	 0.791861479	-0.088257
C	-0.4537841744	-3.2475326897	 0.3400065036	 0.143512
O	 0.5518505301	-3.9126858242	 0.354264415	-0.246177
C	 0.7116338886	-0.9609147365	 1.0043844546	-0.151204
C	 1.8019155328	-1.0776954161	-0.0757749223	-0.097272
O	 1.1636442326	-0.0733474793	-0.9064399825	-0.327407
H	 0.8259724776	 2.0517886598	 0.7325828243	 0.126525
H	-0.4488409021	 2.1259885563	-0.49653283	 0.131727
H	-0.8613846667	 1.7031287461	 1.1758485156	 0.115331
H	-2.09094182	-0.3482506111	 0.0313750301	 0.106425
H	-1.1436461759	-1.1020484019	-1.2765831634	 0.118821
H	-1.1887227425	-1.8245182075	 1.6909783526	 0.10496
H	-1.4161498214	-3.6754626726	-0.0287844088	 0.077906
H	 1.0359354434	-0.7816555732	 2.0285222961	 0.079863
H	 2.7921100402	-0.7420586585	 0.2551665012	 0.10275
H	 1.8996304223	-2.0423937566	-0.5788332123	 0.12712
63.4772	94.5244	176.0461	212.5835	231.8034	285.109	353.5956	392.5988	404.8736	603.1745	633.7373	705.5946	751.2403	825.8085	882.5902	890.2104	909.3481	931.8477	993.6146	996.8993	1008.2901	1023.9913	1101.634	1124.8551	1137.8312	1162.157	1169.5983	1193.1113	1226.0574	1237.2502	1307.71	1317.4171	1332.0112	1360.7278	1408.5338	1422.2461	1472.3101	1479.1475	1488.8937	1531.9234	1819.8625	2851.9315	3027.8138	3029.2379	3031.7051	3064.9737	3100.1178	3103.8804	3113.5595	3118.663	3125.6353
CC12CC(C=O)C1CO2	C[C@]12C[C@@H](C=O)[C@H]1CO2	
InChI=1S/C7H10O2/c1-7-2-5(3-8)6(7)4-9-7/h3,5-6H,2,4H2,1H3	InChI=1S/C7H10O2/c1-7-2-5(3-8)6(7)4-9-7/h3,5-6H,2,4H2,1H3/t5-,6+,7-/m0/s1
