19
gdb 67827	3.11455	1.75783	1.44907	1.6755	78.32	-0.2267	0.0067	0.2334	962.0877	0.161506	-385.887024	-385.879956	-385.879012	-385.917984	29.333	
C	-0.0226964806	 1.5234598203	 0.0269612867	-0.497503
C	-0.0108880375	 0.0148077838	-0.0410546111	 0.317797
C	 0.914293091	-0.679527709	-0.9982060148	-0.149431
C	 0.4079564841	-1.838515774	-1.4221669711	-0.094747
C	-0.8760501434	-2.1609269252	-0.6639808261	 0.014066
O	-0.542745624	-3.0260695833	 0.4345551888	-0.261772
C	 0.1299025567	-2.2142131684	 1.4034182701	-0.103834
C	-0.4005551897	-0.7938288497	 1.2134116152	-0.115697
C	-1.2654659891	-0.8170930824	-0.0154590574	-0.114122
H	 0.9416975902	 1.913686496	 0.372533387	 0.119033
H	-0.2255468171	 1.9615747627	-0.9567810241	 0.122084
H	-0.7914938434	 1.883384868	 0.7178408893	 0.117018
H	 1.8830174708	-0.2712515359	-1.2668316161	 0.094317
H	 0.9027593687	-2.5613793397	-2.0594453729	 0.101216
H	-1.6559990203	-2.6608938354	-1.2407741318	 0.078234
H	-0.110133916	-2.6091475182	 2.3953186067	 0.104881
H	 1.2179534355	-2.2710291188	 1.2615430326	 0.095162
H	-0.7002195543	-0.2311262244	 2.0911721286	 0.087254
H	-2.2679955214	-0.4112713363	-0.0647229393	 0.086047
194.8707	223.2401	252.3153	273.9518	327.646	431.1332	551.5139	567.6827	677.6746	725.6035	731.0943	784.9015	808.0361	835.3131	896.8966	912.8563	930.587	943.5322	951.0281	982.946	984.3774	1019.8089	1044.31	1069.5664	1085.3487	1108.8531	1118.9802	1210.9852	1234.8825	1250.0621	1283.0814	1295.8214	1325.7174	1352.9071	1376.9387	1410.6598	1417.4991	1489.2937	1499.6178	1509.3021	1661.0079	3006.3534	3024.3711	3074.5768	3084.1613	3099.917	3100.7014	3165.1553	3181.0642	3190.1873	3214.4298
CC12C=CC3OCC1C23	C[C@@]12C=C[C@H]3OC[C@@H]1[C@@H]23	
InChI=1S/C8H10O/c1-8-3-2-6-7(8)5(8)4-9-6/h2-3,5-7H,4H2,1H3	InChI=1S/C8H10O/c1-8-3-2-6-7(8)5(8)4-9-6/h2-3,5-7H,4H2,1H3/t5-,6-,7-,8-/m1/s1
