17
gdb 62987	2.30766	1.58892	1.27366	1.5934	73.97	-0.2453	0.0391	0.2844	1050.4192	0.132533	-421.748871	-421.740068	-421.739123	-421.781824	33.878	
C	-0.141461405	 1.5553953062	-0.1623389618	-0.465846
C	-0.0213476741	 0.0500059339	-0.033354628	 0.365837
O	-1.2546505506	-0.5811807433	 0.2309838624	-0.475598
C	 0.6562688479	-0.7022864052	-1.1945142247	 0.000802
O	 1.9821855961	-0.1821193303	-1.3110707519	-0.239431
C	 1.73834936	-1.1990337075	-0.3380339658	 0.016341
C	 1.1488199669	-0.5218845968	 0.9166141877	-0.294934
C	 1.9885108058	 0.3795191771	 1.6734912359	 0.344472
C	 2.6698119553	 1.1453256283	 2.3032117041	-0.458921
H	 0.8127170175	 1.9863564904	-0.4704645953	 0.151762
H	-0.908597044	 1.8070800549	-0.9011717817	 0.121733
H	-0.4173847934	 2.0058942629	 0.7984326052	 0.116187
H	-1.6849554148	-0.1094089304	 0.9523768651	 0.284175
H	 0.1846824541	-1.1247929275	-2.0738134058	 0.112781
H	 2.3385192671	-2.0994108809	-0.391918416	 0.114002
H	 0.6815539434	-1.2720192677	 1.5621639909	 0.110545
H	 3.2816067778	 1.8158568359	 2.8541686398	 0.196093
100.7687	136.4954	210.6729	230.5077	269.5838	287.2577	359.8676	366.1155	388.6973	506.7477	544.7244	576.6842	622.6951	632.3947	678.0628	788.6088	861.2697	862.1076	894.9081	915.91	965.3282	1011.1704	1047.6417	1065.3241	1102.6582	1122.8975	1158.01	1220.1176	1232.4077	1254.2302	1321.3722	1387.2799	1392.4986	1410.3366	1483.3714	1495.9566	2230.8882	3033.9047	3066.2334	3100.6589	3142.1099	3185.8536	3201.2824	3503.1703	3806.6143
CC1(O)C2OC2C1C#C	C[C@@]1(O)[C@H]2O[C@H]2[C@H]1C#C	
InChI=1S/C7H8O2/c1-3-4-5-6(9-5)7(4,2)8/h1,4-6,8H,2H3	InChI=1S/C7H8O2/c1-3-4-5-6(9-5)7(4,2)8/h1,4-6,8H,2H3/t4-,5+,6+,7+/m1/s1
