18
gdb 37502	3.76034	2.011	1.74156	1.4977	77.98	-0.2244	0.0117	0.2362	827.0681	0.152487	-364.764316	-364.758841	-364.757896	-364.793712	24.799	
C	-0.028554216	 1.5188044036	-0.060178714	-0.179712
C	 1.506153357	 1.3897795285	 0.0274200394	-0.058611
C	 1.220767459	 0.0682972614	 0.8297686032	-0.006448
C	 1.7873457834	-1.1342967519	 0.0044901616	-0.065433
C	 3.1885582224	-0.9653162531	-0.5006387766	-0.09893
C	 3.207398462	 0.0960539821	-1.3150239568	-0.107261
C	 1.832727139	 0.7151788011	-1.3438583122	-0.064074
C	 0.8561930217	-0.4839150997	-1.0514682578	-0.01252
N	-0.0815046796	 0.0223408624	 0.0373434744	-0.155413
H	-0.5013239627	 1.9565672185	 0.824082242	 0.10464
H	-0.4618093315	 1.9562703852	-0.9667258883	 0.096546
H	 2.1695616368	 2.1839632818	 0.3721887937	 0.062849
H	 1.1727749245	 0.0910211291	 1.9183099946	 0.07606
H	 1.4831159345	-2.1023378294	 0.4002548616	 0.077346
H	 4.0345782876	-1.5672735401	-0.1931965272	 0.098529
H	 4.0736589998	 0.5254344791	-1.8037062508	 0.096007
H	 1.6044720559	 1.3466955535	-2.2038249546	 0.064677
H	 0.4207221362	-1.027912862	-1.889753152	 0.071748
322.8374	372.601	424.7009	524.3485	626.5827	693.8822	737.1278	766.757	793.3916	818.6903	835.6029	856.9312	888.9249	893.6407	939.0191	945.0377	950.731	960.7554	982.1237	1000.8091	1015.5816	1026.0858	1070.5677	1119.2231	1135.645	1144.8031	1152.3041	1183.9448	1215.3547	1225.3247	1236.5735	1257.7594	1279.291	1288.4944	1299.5203	1320.8429	1367.4065	1506.2943	1644.9615	3035.5586	3093.0879	3097.3451	3104.5813	3115.3554	3118.5333	3130.8772	3194.5493	3219.7028
C1C2C3C4C=CC2C4N13	C1[C@H]2[C@@H]3[C@@H]4C=C[C@H]2[C@@H]4N13	
InChI=1S/C8H9N/c1-2-5-7-4(1)6-3-9(7)8(5)6/h1-2,4-8H,3H2	InChI=1S/C8H9N/c1-2-5-7-4(1)6-3-9(7)8(5)6/h1-2,4-8H,3H2/t4-,5-,6-,7+,8+/m1/s1
