19
gdb 78184	2.13639	1.56347	1.39823	2.3161	79.03	-0.2455	0.0181	0.2637	1064.7873	0.159465	-382.038831	-382.030038	-382.029094	-382.071984	33.093	
C	 0.0201809955	 1.6793517463	-0.4604516628	-0.444831
C	 0.0243604119	 0.1659667629	-0.4211112211	 0.028925
C	 0.5374242403	-0.7730687883	-1.4371459941	-0.071427
C	 1.8696802544	-0.3531241884	-2.0778593604	-0.207946
C	 1.9157677397	 0.8306277598	-2.9241526066	 0.291427
N	 1.9759180729	 1.7746414315	-3.5901069858	-0.342372
C	 2.4421062333	-0.3178110038	-0.6124420101	 0.064161
C	 3.1578557473	 0.8895650143	-0.0354387734	-0.421396
N	 1.1217825971	-0.7479965314	-0.0263354226	-0.164632
H	 0.7679177102	 2.1129111857	-1.1221631487	 0.155378
H	-0.9590408891	 2.0130447418	-0.8197141051	 0.129504
H	 0.1593465669	 2.0883710417	 0.5455621073	 0.128523
H	-0.8808683742	-0.2190488705	 0.0481034749	 0.107876
H	-0.0372868574	-1.6171302494	-1.8048058614	 0.107948
H	 2.3159301898	-1.1781489808	-2.637567925	 0.134452
H	 3.0981446502	-1.1855268008	-0.5022989354	 0.103354
H	 2.6379517446	 1.8316259515	-0.2052592052	 0.136538
H	 3.2758342963	 0.752619825	 1.0444225583	 0.13501
H	 4.1570477503	 0.9734803229	-0.4751159427	 0.129509
119.3667	127.8148	151.5616	202.4487	235.8753	277.5877	299.9935	353.2937	440.5575	523.8039	550.7281	658.8782	685.717	736.1941	764.742	791.35	891.7992	921.9171	944.7643	1009.7081	1030.1065	1078.2911	1099.6428	1116.183	1124.0322	1148.2296	1173.5347	1208.698	1272.4224	1300.9106	1337.4539	1361.5747	1390.2253	1410.003	1423.0454	1451.0451	1483.5572	1491.6795	1506.8536	1508.647	2346.2609	3044.4487	3047.0456	3061.2102	3089.1286	3099.2707	3107.5412	3109.9492	3156.6602	3161.5403	3169.96
CC1C2C(C#N)C(C)N12	C[C@H]1[C@H]2[C@@H](C#N)[C@@H](C)N12	
InChI=1S/C7H10N2/c1-4-6(3-8)7-5(2)9(4)7/h4-7H,1-2H3	InChI=1S/C7H10N2/c1-4-6(3-8)7-5(2)9(4)7/h4-7H,1-2H3/t4-,5+,6+,7+,9?/m1/s1
