17
gdb 123904	3.46385	1.57429	1.12788	5.049	74.03	-0.1986	0.0076	0.2062	1041.422	0.140908	-414.197518	-414.190551	-414.189606	-414.228817	27.683	
C	-0.0198653888	 1.5293313171	 0.0082349595	-0.206226
C	 1.4244358446	 2.0738855585	 0.0377082926	-0.160726
N	 2.2262425324	 1.6048424	 1.173168194	-0.390837
C	 1.9233165989	 0.3062386889	 1.5693979128	 0.316452
C	 0.9449741028	-0.4771580953	 0.9985481749	 0.296687
C	-0.038751135	-0.0170067692	-0.0237697553	-0.340711
N	 1.0662484766	-1.6513349764	 1.6719506411	-0.28362
N	 2.0354014444	-1.5920582853	 2.6041844114	-0.126681
N	 2.56550214	-0.3975083863	 2.5403851874	-0.287531
H	-0.556472536	 1.8773537154	 0.8984315677	 0.109294
H	-0.5409390922	 1.9310531788	-0.8662187441	 0.103557
H	 1.9306507114	 1.7730279664	-0.8904977833	 0.112956
H	 1.4162519331	 3.1666949378	 0.0521697946	 0.109667
H	 2.2967031251	 2.2571392884	 1.9416979777	 0.241959
H	-1.0479160294	-0.3888915871	 0.1876106523	 0.113184
H	 0.2231741487	-0.3775444516	-1.0277699555	 0.11958
H	 0.5505219935	-2.5090699199	 1.5592411323	 0.272995
110.7884	214.311	301.6577	319.5192	395.8466	452.9362	520.2114	525.81	542.0058	685.8782	701.1686	736.2286	766.8711	860.3881	873.284	941.5315	997.3399	1023.0217	1064.8054	1085.313	1107.6005	1178.1231	1209.8141	1231.4728	1250.6283	1294.503	1330.606	1334.1663	1363.9325	1387.6697	1402.1285	1447.8172	1478.9824	1482.3115	1496.6517	1549.573	1645.5256	3005.8064	3011.5457	3038.6565	3058.695	3091.1624	3095.6344	3581.2523	3658.1343
C1CNC2=C(C1)NN=N2	C1CNc2c(C1)[nH]nn2	
InChI=1S/C5H8N4/c1-2-4-5(6-3-1)8-9-7-4/h1-3H2,(H2,6,7,8,9)	InChI=1S/C5H8N4/c1-2-4-5(6-3-1)8-9-7-4/h1-3H2,(H2,6,7,8,9)
