19
gdb 93532	2.84041	1.36653	1.07203	3.9406	72.05	-0.2511	0.012	0.2631	1163.9001	0.158636	-460.204928	-460.196085	-460.195141	-460.23843	33.046	
C	-0.2162937974	 1.4638512086	-0.0395378397	-0.417882
C	 0.0791391758	-0.0269189051	 0.006233976	 0.101022
O	 0.780191462	-0.3749973023	-1.1801857692	-0.252717
C	 0.8926818527	-1.7743148139	-1.3148736225	-0.21983
C	 1.2568639458	-2.540485703	-0.0460105725	 0.379341
O	 1.5545769905	-3.7031916181	-0.0817982869	-0.325439
O	 1.1781450514	-1.8940058206	 1.1351226436	-0.240781
C	 0.9197318021	-0.4662801922	 1.208111988	 0.12754
C	 2.2525555301	 0.2592681166	 1.354892334	-0.402581
H	 0.7039332906	 2.0400753045	-0.1618455912	 0.137191
H	-0.8698931299	 1.6838381662	-0.8870353799	 0.134381
H	-0.7164792378	 1.7889439773	 0.8775922482	 0.123106
H	-0.8724568345	-0.5850954487	 0.0422342697	 0.078307
H	-0.0497458881	-2.2149928646	-1.680567466	 0.130182
H	 1.6627147254	-1.9797890801	-2.0616093676	 0.150775
H	 0.3274353884	-0.352058815	 2.1223651047	 0.099215
H	 2.8054338112	 0.242003951	 0.4118620698	 0.136933
H	 2.09888476	 1.300584907	 1.6507539166	 0.124218
H	 2.8522227616	-0.2310535074	 2.1250791047	 0.137018
82.9828	105.2392	199.2743	212.527	255.8082	282.3852	301.3419	402.2039	410.1094	454.6636	527.7295	560.7791	627.9076	732.9348	753.2715	838.6434	884.8872	966.3954	1014.0553	1015.9382	1033.6323	1094.9286	1125.855	1146.6419	1163.5787	1187.694	1239.292	1273.8763	1353.1414	1362.3777	1374.0771	1390.0928	1407.339	1414.4354	1417.8805	1468.7583	1483.2178	1489.3749	1498.185	1507.4247	1846.0758	2955.6154	2978.3482	3049.8195	3052.6443	3055.5431	3112.7753	3125.0377	3127.0457	3133.5417	3135.6442
CC1OCC(=O)OC1C	C[C@H]1OCC(=O)O[C@H]1C	
InChI=1S/C6H10O3/c1-4-5(2)9-6(7)3-8-4/h4-5H,3H2,1-2H3	InChI=1S/C6H10O3/c1-4-5(2)9-6(7)3-8-4/h4-5H,3H2,1-2H3/t4-,5+/m1/s1
