20
gdb 84855	2.52605	1.7645	1.21887	2.1506	79.13	-0.2448	0.0298	0.2746	1069.8437	0.172972	-403.156728	-403.148801	-403.147857	-403.189242	30.941	
C	-0.1419344756	 1.565723007	-0.0329529404	-0.385841
C	 0.0618637601	 0.0492801608	-0.03874605	 0.022193
N	 0.7350918704	-0.3459798345	-1.2770238324	-0.277752
C	 1.5053409619	-1.3466671355	-1.2598185802	 0.123859
O	 1.8657893153	-2.1635648155	-0.2398055641	-0.247112
C	 1.4274938456	-1.8557906789	 1.0924192753	 0.105712
C	 2.6159516906	-1.3447180912	 1.939773639	-0.233014
C	 2.170438875	 0.1102961955	 1.6243712271	-0.242505
C	 0.7760684734	-0.4548608629	 1.2129712205	-0.019058
H	 0.8201449914	 2.0867428494	-0.0060703307	 0.119422
H	-0.6655083885	 1.875548288	-0.940865837	 0.125427
H	-0.7278769134	 1.8790562388	 0.8376032491	 0.103901
H	-0.9328574295	-0.421774313	-0.0642364011	 0.085976
H	 2.0004601845	-1.6793736031	-2.1711544296	 0.120585
H	 0.871450842	-2.7269289922	 1.4475348658	 0.083734
H	 2.4901261936	-1.5983359628	 2.995907768	 0.105666
H	 3.6038721933	-1.6683993921	 1.6071130699	 0.111287
H	 2.1912190723	 0.83350014	 2.4415937108	 0.101297
H	 2.7112445102	 0.5298856219	 0.7720549714	 0.119076
H	 0.0979390874	-0.4394755398	 2.0718510987	 0.077148
82.9288	124.2224	214.1441	232.7455	298.7175	385.7377	414.2331	482.2433	520.3795	640.3581	689.3099	739.8441	803.9246	844.6048	870.7078	911.7905	939.2569	943.0223	962.6582	972.1125	1014.7168	1040.2076	1102.5333	1115.9482	1139.5727	1157.5425	1182.8625	1213.8923	1247.6296	1260.271	1274.6034	1288.7884	1324.792	1346.3926	1360.5213	1376.3223	1402.1671	1420.0516	1470.5654	1485.9377	1492.7058	1498.9094	1728.1021	2981.9405	3036.6065	3055.3505	3062.8186	3067.0745	3078.1285	3106.4722	3116.3214	3122.2809	3131.0085	3149.7809
CC1N=COC2CCC12	C[C@H]1N=CO[C@H]2CC[C@@H]12	
InChI=1S/C7H11NO/c1-5-6-2-3-7(6)9-4-8-5/h4-7H,2-3H2,1H3	InChI=1S/C7H11NO/c1-5-6-2-3-7(6)9-4-8-5/h4-7H,2-3H2,1H3/t5-,6+,7+/m1/s1
