16
gdb 56450	2.65117	1.1882	0.91498	4.3295	70.85	-0.2896	-0.0532	0.2364	1260.4323	0.122893	-437.897308	-437.888407	-437.887463	-437.931927	31.773	
O	 0.2010311917	 1.4514820346	-0.10516058	-0.408526
C	 0.0369763999	 0.0744922324	-0.001261187	-0.084569
C	 0.5189199292	-0.636245396	-1.2039954769	 0.260756
N	 0.8926203423	-1.2127343573	-2.1330645137	-0.31833
C	 0.7872571439	-0.4653108594	 1.2499658839	 0.371004
O	 1.399061035	 0.3432188556	 1.9165163574	-0.344783
C	 0.6893385542	-1.9006240424	 1.5562903803	-0.108343
C	 1.8946549257	-2.5606153811	 2.2231368506	-0.244727
C	 0.6762001159	-2.3038316459	 3.030918066	-0.253778
H	 0.831203471	 1.677995084	 0.6028263313	 0.305171
H	-1.0280473124	-0.1818542428	 0.1220122362	 0.143614
H	 0.111794907	-2.4992348536	 0.8621049235	 0.115325
H	 2.118889556	-3.5730658301	 1.9097602851	 0.137465
H	 2.7516407794	-1.9167804133	 2.3817717322	 0.14899
H	 0.7031562976	-1.4850794355	 3.7404188213	 0.147026
H	 0.0323133535	-3.1341903492	 3.2954236699	 0.133703
52.8813	62.3255	126.0261	203.2465	232.2062	276.9144	327.909	378.4607	462.8467	466.3532	591.1918	633.0097	728.2751	800.6338	820.7986	842.6381	884.1247	918.5575	963.4957	1051.5242	1086.6575	1101.7436	1120.0762	1121.3625	1158.1683	1209.9353	1222.6694	1231.7791	1344.3998	1415.1508	1435.5895	1458.1413	1489.3347	1788.9679	2354.1391	2982.3411	3146.9459	3150.2665	3187.0686	3235.7598	3250.6329	3629.0326
OC(C#N)C(=O)C1CC1	O[C@@H](C#N)C(=O)C1CC1	
InChI=1S/C6H7NO2/c7-3-5(8)6(9)4-1-2-4/h4-5,8H,1-2H2	InChI=1S/C6H7NO2/c7-3-5(8)6(9)4-1-2-4/h4-5,8H,1-2H2/t5-/m0/s1
