20
gdb 84169	2.84527	1.3242	0.93766	3.1565	84.87	-0.204	0.0024	0.2064	1275.241	0.171425	-403.209936	-403.200745	-403.199801	-403.243889	33.966	
C	 0.0555994313	 1.4641650553	-0.003577074	-0.354291
N	 0.0015068405	 0.0096676593	 0.0320836711	-0.112558
C	 0.0040460312	-0.693178851	-1.1869355251	-0.040571
C	-0.3190422193	-1.9836165552	-1.3105738491	 0.226484
C	-0.3321524507	-2.6906749735	-2.6329681134	-0.480034
C	-0.7172956494	-2.7386048451	-0.0648343464	-0.313752
C	-0.0091682316	-2.1577132069	 1.1649800633	-0.320201
C	-0.0677628918	-0.6377339192	 1.2513337742	 0.404778
O	-0.1193917104	-0.0400918937	 2.3103903463	-0.378146
H	 0.9300035339	 1.8004576087	-0.5719170187	 0.125133
H	-0.8449493155	 1.8815663564	-0.4681040373	 0.128422
H	 0.1275461744	 1.8192323602	 1.0231215555	 0.170335
H	 0.2788632524	-0.084221319	-2.0420165447	 0.099677
H	-0.0735756061	-2.0176599164	-3.455568654	 0.119681
H	 0.3743615254	-3.5310777641	-2.6493643211	 0.122875
H	-1.3228926655	-3.1151691412	-2.8445118668	 0.124461
H	-1.8093481731	-2.6894956014	 0.0657113183	 0.115295
H	-0.4754946407	-3.8028128235	-0.1629322408	 0.107339
H	-0.4073368345	-2.5501745788	 2.1022209773	 0.12812
H	 1.0561908394	-2.4242336011	 1.1281095354	 0.126954
93.1766	102.1724	138.5676	178.0931	204.3764	280.6393	318.3176	368.3388	422.1481	439.2343	493.2999	537.883	596.7207	696.7258	778.9263	801.8124	871.8195	898.6907	999.8566	1023.3786	1033.8812	1048.8401	1074.4089	1139.4857	1156.4774	1178.6173	1227.1512	1231.8515	1293.1254	1335.3692	1346.8969	1392.3865	1411.9313	1418.5492	1447.2629	1464.6419	1475.0594	1484.5523	1496.0687	1500.763	1514.5217	1746.0886	1774.5556	2991.0522	3007.9832	3024.0103	3026.3651	3049.8012	3058.1492	3079.0247	3104.1158	3119.0605	3169.7649	3180.8127
CN1C=C(C)CCC1=O	CN1C=C(C)CCC1=O	
InChI=1S/C7H11NO/c1-6-3-4-7(9)8(2)5-6/h5H,3-4H2,1-2H3	InChI=1S/C7H11NO/c1-6-3-4-7(9)8(2)5-6/h5H,3-4H2,1-2H3
