20
gdb 47488	2.77169	1.38808	1.06633	3.8117	79.33	-0.2328	0.0352	0.268	1170.4592	0.173528	-403.189118	-403.181033	-403.180089	-403.221774	31.901	
O	-0.0153406297	-0.0719026565	 0.1013243085	-0.376553
C	-0.0175540304	 1.1441727913	 0.0475601578	 0.390877
C	-1.3161891958	 1.9490692572	 0.018831138	-0.38818
C	-1.158700819	 3.4089521963	 0.4014990458	 0.37583
C	-2.3882975876	 4.2258483538	 0.6880365523	-0.334922
C	-1.4654158064	 3.831940815	 1.8196325122	-0.302687
C	 0.0269294781	 4.0404235318	-0.3000844069	-0.280093
C	 1.3082200407	 3.3019601325	 0.0906648356	-0.151299
N	 1.1444152669	 1.8613132722	-0.0616715737	-0.307003
H	-1.7041884306	 1.8682790356	-1.0063544352	 0.127718
H	-2.0306440859	 1.4272385842	 0.6605301868	 0.125657
H	-2.3982391584	 5.265347578	 0.3762337813	 0.110889
H	-3.3539433002	 3.7348552712	 0.6234777134	 0.114564
H	-1.8080183559	 3.0770777347	 2.5193941966	 0.117742
H	-0.8537989524	 4.6073584957	 2.2699084229	 0.10947
H	-0.1121983184	 3.9851760086	-1.3876091355	 0.106427
H	 0.1267466439	 5.098175614	-0.0365053132	 0.100508
H	 2.1439694458	 3.6271493016	-0.5388265705	 0.109039
H	 1.5688973801	 3.5527031178	 1.1300793439	 0.108672
H	 1.9718810054	 1.2841240951	-0.0077417201	 0.243346
88.219	118.0351	202.2822	266.4431	337.2963	363.9496	441.8409	467.9714	475.3859	536.3519	646.9327	671.5926	740.1243	781.7007	822.0055	864.1828	912.0623	921.3415	963.4629	979.3648	994.5052	1015.4823	1054.9308	1080.7098	1095.9935	1115.2481	1184.8469	1186.3989	1205.5072	1258.2447	1295.6247	1310.2979	1349.2251	1365.467	1390.6718	1407.3531	1458.0437	1468.8983	1480.7724	1488.4685	1508.1168	1526.2397	1788.5021	2987.1557	3019.0022	3024.4477	3055.6542	3081.3375	3098.6971	3124.2691	3129.1362	3202.5569	3217.0378	3600.7657
O=C1CC2(CC2)CCN1	O=C1CC2(CC2)CCN1	
InChI=1S/C7H11NO/c9-6-5-7(1-2-7)3-4-8-6/h1-5H2,(H,8,9)	InChI=1S/C7H11NO/c9-6-5-7(1-2-7)3-4-8-6/h1-5H2,(H,8,9)
