22
gdb 104315	2.78668	1.33302	1.24818	1.7167	81.42	-0.2316	0.0799	0.3115	1155.9702	0.194602	-404.327855	-404.318855	-404.31791	-404.361124	35.077	
C	-0.0004102365	 1.5269843762	 0.3853180243	-0.245485
O	 0.0199275989	 0.1183321033	 0.4140742895	-0.290465
C	-1.1523370292	-0.5503578731	-0.0394113734	 0.437831
C	-2.3415911975	-0.2922432848	 0.8990715161	-0.44129
C	-1.5050640761	-0.2484950374	-1.5265059786	-0.279554
C	-2.1224072569	-1.5525030954	-2.0852048844	-0.221053
C	-1.454733525	-2.6471191512	-1.270322788	-0.027676
N	 0.009470861	-2.4623021642	-1.1816508635	-0.342667
C	-0.8520053328	-2.0430860682	-0.0587454793	-0.076343
H	 0.9966722562	 1.8592198732	 0.6863062653	 0.124438
H	-0.2081096301	 1.923246146	-0.6188763349	 0.104776
H	-0.731209686	 1.9589588407	 1.0847330042	 0.100863
H	-2.6462940743	 0.7579996176	 0.8847311988	 0.115617
H	-3.2077704909	-0.8894090899	 0.5976723539	 0.118083
H	-2.0811658428	-0.5600674932	 1.9279883568	 0.118011
H	-2.1746432986	 0.6081962474	-1.6378401601	 0.088129
H	-0.5734434082	-0.0285510291	-2.0514492146	 0.128621
H	-3.2054259543	-1.5829684936	-1.917049763	 0.097336
H	-1.9545575811	-1.6614656946	-3.1615112483	 0.103117
H	-1.8612812576	-3.6536621988	-1.2667691796	 0.080227
H	 0.4470380554	-3.3486957175	-0.9433635986	 0.229223
H	-0.7848247936	-2.5724306335	 0.8866515375	 0.078263
89.8513	140.4192	192.5053	199.1386	236.733	293.2478	338.4568	360.5874	394.5266	445.5634	505.9004	600.8665	658.7734	746.8361	825.3243	831.6164	873.3188	905.952	917.6037	939.002	955.3486	988.8456	1006.8913	1056.6333	1105.8773	1111.7585	1123.743	1160.6138	1179.4627	1181.4413	1205.6944	1225.3074	1246.3451	1257.8016	1277.9685	1321.9298	1341.8926	1382.9975	1402.4478	1430.9666	1475.7545	1477.8771	1485.1729	1494.1851	1497.7518	1504.9145	1512.1261	2984.6431	3032.1699	3036.3333	3040.1916	3068.6823	3078.3454	3105.5931	3110.299	3111.6751	3122.7268	3153.1821	3164.0924	3504.6199
COC1(C)CCC2NC12	CO[C@@]1(C)CC[C@H]2N[C@@H]12	
InChI=1S/C7H13NO/c1-7(9-2)4-3-5-6(7)8-5/h5-6,8H,3-4H2,1-2H3	InChI=1S/C7H13NO/c1-7(9-2)4-3-5-6(7)8-5/h5-6,8H,3-4H2,1-2H3/t5-,6-,7+/m1/s1
