15
gdb 72064	2.49736	1.7156	1.32418	6.0247	71.56	-0.2497	-0.0028	0.2469	975.0225	0.113271	-416.733939	-416.726569	-416.725624	-416.765705	28.371	
O	-0.2613658164	 1.3043073651	-0.0682496565	-0.448408
C	-0.0156203098	-0.0408326917	-0.0200313923	 0.318744
C	 0.9018608055	-0.8813364004	-0.8956230269	-0.235047
N	 0.0884936994	-2.1026829705	-0.5009354426	-0.195113
C	 0.3980724615	-2.2139719399	 0.9851149951	-0.181288
C	-0.3412671909	-0.9097565108	 1.2072936002	-0.203926
C	-1.0577076577	-1.1358764003	-0.1160507916	 0.265767
C	-2.4104098017	-1.1875611965	-0.5122082213	 0.138294
N	-3.5225039048	-1.220965181	-0.8342310287	-0.360817
H	 0.2460590715	 1.746559595	 0.6214587156	 0.300272
H	 0.7602720632	-0.6766375638	-1.9587741465	 0.134472
H	 1.9686207141	-0.9523982738	-0.6592392772	 0.106711
H	-0.1203795	-3.0813462552	 1.399549383	 0.131079
H	 1.4662484054	-2.2695643462	 1.2178485356	 0.109839
H	-0.7649152792	-0.4700821202	 2.1020951442	 0.119421
118.482	154.5428	208.6021	306.705	352.4506	436.5014	440.2111	530.6884	554.8844	622.532	644.6268	707.5537	811.7856	850.7394	905.9751	923.2726	933.9874	982.9056	995.1621	1076.2449	1091.1726	1149.0513	1158.508	1187.271	1232.3837	1249.5838	1277.8848	1303.4982	1353.9159	1455.564	1502.768	1523.7526	2341.4869	3046.9215	3055.2224	3115.0916	3123.2808	3196.2513	3798.8462
OC12CN3CC1C23C#N	O[C@@]12CN3C[C@@H]1[C@@]23C#N	
InChI=1S/C6H6N2O/c7-2-5-4-1-8(5)3-6(4,5)9/h4,9H,1,3H2	InChI=1S/C6H6N2O/c7-2-5-4-1-8(5)3-6(4,5)9/h4,9H,1,3H2/t4-,5+,6+/m1/s1
