19
gdb 6192	3.76424	1.54826	1.46356	3.2021	72.33	-0.2537	0.0326	0.2863	963.562	0.165804	-365.097538	-365.089464	-365.08852	-365.129558	31.032	
C	-0.2681774238	 1.5918866437	 0.0298656973	-0.448843
C	 0.0648240068	 0.0984079016	 0.0175569631	 0.2703
C	-1.2208887215	-0.7426126045	-0.061991358	-0.426318
C	 1.0150684162	-0.2757642623	-1.1410900542	-0.104335
O	 1.7336566033	-1.4399406152	-0.7057350216	-0.239839
C	 1.7277555119	-1.5117249073	 0.6620163531	 0.407735
N	 2.3012373658	-2.4126806627	 1.3345263936	-0.54484
C	 0.9288635465	-0.3529509359	 1.2147440035	-0.324915
H	 0.6372521084	 2.2037135914	 0.1021461327	 0.115272
H	-0.8013744065	 1.8851728646	-0.8815185627	 0.117421
H	-0.9107029032	 1.8421552361	 0.8803809188	 0.122699
H	-1.8020886637	-0.4852621367	-0.9539532223	 0.11418
H	-0.9958363151	-1.8130312665	-0.1034912433	 0.132616
H	-1.8543071226	-0.5668388	 0.8135169849	 0.118553
H	 0.4948042575	-0.5303558743	-2.0684355577	 0.114449
H	 1.7311861688	 0.5302992739	-1.3494134332	 0.102508
H	 2.7850515364	-3.0656551488	 0.7150456041	 0.219591
H	 1.621408936	 0.4420102175	 1.5174051203	 0.122405
H	 0.3606686285	-0.6502772844	 2.0972184016	 0.131363
96.0418	170.1937	221.9388	248.9316	292.1772	329.9664	366.5271	398.4997	478.2547	518.2338	578.3958	681.5517	799.5461	856.4832	894.8192	913.7415	934.4685	951.1344	961.1871	1000.5929	1011.9905	1052.2417	1103.7998	1137.0654	1207.0215	1220.5487	1251.0238	1282.0657	1306.1999	1327.3744	1396.2472	1405.2311	1428.2035	1469.1407	1485.0315	1491.5216	1506.1071	1507.8735	1521.2911	1779.4925	3014.1937	3026.2516	3032.183	3041.5615	3090.2229	3092.9857	3100.0502	3101.4814	3107.3613	3124.1183	3467.0436
CC1(C)COC(=N)C1	CC1(C)CO[C]([NH])C1	
InChI=1S/C6H11NO/c1-6(2)3-5(7)8-4-6/h7H,3-4H2,1-2H3	InChI=1S/C6H11NO/c1-6(2)3-5(7)8-4-6/h7H,3-4H2,1-2H3
