21
gdb 85810	2.6126	1.22881	1.12085	1.4341	84.98	-0.2493	0.0536	0.3029	1217.5458	0.179703	-387.050529	-387.040449	-387.039505	-387.084669	38.553	
C	-0.72940853	 1.1189606372	-0.101516541	-0.415974
C	 0.0641806605	-0.1743690094	-0.1786283651	 0.000854
C	 1.3977378673	-0.2163334739	-0.9686372671	 0.083871
O	 1.9933747871	 1.0711594185	-0.987305839	-0.423956
C	 1.9772109414	-1.1629254606	 0.1159151753	-0.291225
C	 0.8259096312	-0.7309722102	 1.0930653562	 0.138273
C	 1.2813077296	 0.3535341521	 2.0824740247	-0.455656
C	 0.1475369957	-1.8126392255	 1.7877616044	 0.26333
C	-0.4220304561	-2.7086684491	 2.3545440918	-0.463994
H	-0.1032516542	 1.9619152873	 0.1963128316	 0.134406
H	-1.1646875289	 1.3593121349	-1.0773936078	 0.115252
H	-1.5520593858	 1.023914778	 0.6151966091	 0.117722
H	-0.5751954408	-0.9789275239	-0.5539428755	 0.083355
H	 1.3379534048	-0.6258643485	-1.985626385	 0.062879
H	 2.892956133	 0.976319563	-1.3162750143	 0.284389
H	 1.904522006	-2.2156378301	-0.1653392131	 0.109453
H	 2.9952544821	-0.9465677157	 0.452241993	 0.096914
H	 1.8113031873	 1.1491096701	 1.5546129571	 0.133301
H	 0.427502812	 0.7872468785	 2.6109403418	 0.121582
H	 1.9534548646	-0.0809233557	 2.8290350268	 0.117721
H	-0.9221224868	-3.4997932472	 2.8557081561	 0.187504
95.6789	130.4394	173.3653	182.025	225.5939	252.9701	279.2816	294.9759	320.7168	373.7001	402.2727	512.9653	530.7323	570.0573	613.9993	618.3916	619.4615	752.7011	835.7805	862.8938	884.0093	941.0183	957.4245	992.2284	1018.3707	1076.017	1110.5917	1160.6816	1172.8699	1180.776	1206.3666	1242.3245	1253.9821	1302.0275	1326.5424	1371.0638	1403.0993	1406.6766	1421.8443	1468.7728	1484.8003	1493.6807	1500.3304	1509.6436	2225.8896	3005.3893	3037.2803	3042.3384	3056.4429	3064.5869	3096.2301	3110.0063	3121.199	3132.6131	3136.3405	3502.8304	3816.0573
CC1C(O)CC1(C)C#C	C[C@H]1[C@@H](O)C[C@]1(C)C#C	
InChI=1S/C8H12O/c1-4-8(3)5-7(9)6(8)2/h1,6-7,9H,5H2,2-3H3	InChI=1S/C8H12O/c1-4-8(3)5-7(9)6(8)2/h1,6-7,9H,5H2,2-3H3/t6-,7-,8-/m0/s1
