18
gdb 67438	2.30467	2.04039	1.85743	3.7858	74.77	-0.2312	-0.0166	0.2146	891.5822	0.148749	-401.888359	-401.881266	-401.880321	-401.919354	28.895	
C	 0.1869288679	 1.5854069835	-0.0254595674	-0.522596
C	 0.1015430178	 0.0815856501	-0.0638161355	 0.27672
C	 0.3667914227	-0.8474628898	-1.2676931775	-0.121962
C	 0.9742454577	-1.8705100893	-0.2135280638	-0.251826
C	 0.6514343607	-0.8995376685	 0.9868328737	 0.020023
O	-0.7051743035	-1.0812978407	 1.5927991148	-0.280578
C	-1.1561497126	-0.6738182608	 0.3483675449	 0.28302
N	-1.8656236081	-1.3034024981	-0.488595866	-0.263781
C	-1.0823188211	-1.1416044068	-1.7613370252	-0.176149
H	 1.2095253771	 1.9262260733	-0.2177564114	 0.124321
H	-0.4636468842	 2.0342003744	-0.7834349881	 0.133182
H	-0.1212513304	 1.970445718	 0.9520187681	 0.135997
H	 1.0634498713	-0.5295300747	-2.0461690949	 0.070322
H	 0.5297068059	-2.8655106008	-0.1586852901	 0.132068
H	 2.0556845947	-1.9669614379	-0.3357065306	 0.114709
H	 1.3883390599	-0.7079579206	 1.7652562211	 0.099836
H	-1.4647828067	-0.3472427995	-2.4173374407	 0.106629
H	-1.1618428391	-2.0869628718	-2.3069000615	 0.120064
201.2822	214.0776	228.7606	268.6744	350.0701	390.7417	516.9387	624.048	653.7954	670.2196	729.8728	753.0911	793.4947	841.2564	869.0666	892.6401	916.1361	952.0254	974.6405	997.9773	1056.3647	1093.9036	1114.8397	1124.0497	1162.3777	1188.526	1197.8171	1212.0453	1255.1263	1285.7062	1288.3762	1315.8676	1359.6636	1411.0312	1458.7368	1485.9792	1490.5241	1495.1077	1695.3559	3012.1533	3032.1969	3072.9739	3080.3518	3092.0602	3099.4939	3103.9125	3131.7584	3138.0968
CC12C3CC1OC2=NC3	C[C@@]12[C@H]3C[C@@H]1O[C]2[N]C3	
InChI=1S/C7H9NO/c1-7-4-2-5(7)9-6(7)8-3-4/h4-5H,2-3H2,1H3	InChI=1S/C7H9NO/c1-7-4-2-5(7)9-6(7)8-3-4/h4-5H,2-3H2,1H3/t4-,5-,7+/m0/s1
