16
gdb 16538	2.90485	2.27765	1.58744	3.7131	64.5	-0.2314	-0.0329	0.1985	836.625	0.130125	-383.715951	-383.708647	-383.707703	-383.747777	26.839	
C	-0.5756110192	 1.4425395161	 0.1217732173	-0.416945
C	-0.0371668255	 0.0272596741	-0.0418991647	-0.113637
C	 0.7337711504	-0.4404771233	-1.3178788064	-0.111761
C	 1.7791081692	 0.5360157389	-1.8772554196	-0.078474
O	 2.784598098	 0.088153187	-0.9336198811	-0.284286
C	 1.9163631851	-0.956219992	-0.4339267462	-0.009653
C	 1.1697858238	-0.4237588863	 0.8136297456	 0.398698
O	 1.4344893884	-0.3429882925	 1.9762831785	-0.292458
H	 0.1976014735	 2.194025304	-0.0618393018	 0.131216
H	-1.4092266191	 1.6347210001	-0.5609722171	 0.121654
H	-0.9340179223	 1.58563064	 1.1454044411	 0.141419
H	-0.8416440872	-0.6966050378	 0.1525341237	 0.112342
H	 0.1868710355	-1.0618530377	-2.0236543965	 0.087173
H	 2.0873303508	 0.3155168249	-2.9065384457	 0.109505
H	 1.5736731769	 1.6081975854	-1.7888340263	 0.111048
H	 2.3750500315	-1.9480391309	-0.4416874408	 0.094158
72.0569	176.8143	187.6353	218.2417	262.5105	446.872	469.7707	615.5114	629.2732	765.0707	788.7781	828.5395	895.8249	936.2382	991.2154	1003.5393	1009.1009	1049.862	1062.8657	1114.0798	1138.8624	1153.208	1177.5801	1204.2831	1237.8806	1268.16	1315.7943	1322.3423	1360.3424	1407.9759	1492.7535	1496.0879	1526.4381	1893.2211	3013.3186	3023.7328	3041.2581	3072.8166	3084.7406	3110.6446	3116.1506	3136.8183
CC1C2COC2C1=O	C[C@H]1[C@H]2CO[C@H]2C1=O	
InChI=1S/C6H8O2/c1-3-4-2-8-6(4)5(3)7/h3-4,6H,2H2,1H3	InChI=1S/C6H8O2/c1-3-4-2-8-6(4)5(3)7/h3-4,6H,2H2,1H3/t3-,4+,6+/m0/s1
