19
gdb 48279	2.324	1.03764	0.75967	2.049	77.33	-0.2574	-0.0558	0.2016	1480.9028	0.156322	-423.027515	-423.017835	-423.016891	-423.063665	33.849	
O	-0.4852609376	 0.1507782885	 0.4469275797	-0.246435
C	-0.173443645	 1.1683901869	-0.1138232951	 0.148938
C	 1.2425927506	 1.7402514761	-0.1040452156	-0.166395
C	 1.5219283024	 2.7518324696	-1.2181799713	-0.234338
C	 1.637162476	 2.1113683897	-2.5858173663	 0.021846
C	 0.4265635717	 1.9130912066	-3.4697551506	-0.26326
C	 1.4739720334	 2.9371385531	-3.8339619483	-0.276039
C	 1.4831312009	 2.3060317394	 1.3002973468	 0.130945
O	 1.8647855874	 3.423312605	 1.5221667271	-0.226825
H	-0.9235411637	 1.7962189343	-0.6424573518	 0.092924
H	 1.9093040922	 0.8678374073	-0.1704595018	 0.127749
H	 0.7272846261	 3.5092581587	-1.2254302435	 0.105542
H	 2.4404499515	 3.2934758094	-0.9698022129	 0.125647
H	 2.3864963222	 1.3244998942	-2.6412932915	 0.086418
H	 0.360295786	 1.0071966732	-4.0617651308	 0.118119
H	-0.531551983	 2.2819730823	-3.1183257995	 0.111755
H	 1.2171230418	 3.9848005372	-3.715936189	 0.115734
H	 2.1244810758	 2.7330102763	-4.6769001101	 0.116187
H	 1.2728436414	 1.5805476122	 2.1141816646	 0.11149
44.6235	57.7356	101.138	120.5084	141.8982	240.7225	259.9714	349.8702	375.7318	389.7083	561.799	665.0992	778.6366	795.9203	834.0903	838.1696	870.4444	894.2656	941.2282	980.3683	1041.7623	1059.4412	1072.1723	1083.7752	1126.2838	1142.5521	1165.4845	1197.9521	1218.3508	1231.9436	1251.1944	1311.5418	1350.7904	1407.2899	1417.0595	1422.6467	1468.3962	1484.6187	1507.3371	1804.5952	1843.8523	2894.5541	2916.8119	3015.5623	3033.2129	3078.2952	3128.229	3130.4314	3135.9094	3209.2225	3224.1851
O=CC(CC1CC1)C=O	O=CC(CC1CC1)C=O	
InChI=1S/C7H10O2/c8-4-7(5-9)3-6-1-2-6/h4-7H,1-3H2	InChI=1S/C7H10O2/c8-4-7(5-9)3-6-1-2-6/h4-7H,1-3H2
