14
gdb 129044	2.72329	1.70147	1.0472	4.9976	78.6	-0.2353	-0.0843	0.151	1048.5683	0.10415	-432.867335	-432.86025	-432.859306	-432.899205	26.858	
N	-0.0772113104	 1.351688398	 0.0083506755	-0.479652
C	-0.0278156365	 0.0729674498	 0.0012382333	 0.166329
C	-1.2637451196	-0.6840717861	 0.0044368632	-0.125609
C	-1.4785216533	-2.0135742078	-0.0013345337	 0.026157
N	-0.5881858448	-3.0633182548	-0.0120131067	-0.234774
N	 0.7393865341	-3.1117994932	-0.0198588825	-0.17908
C	 1.5215948863	-2.0826638018	-0.0189598602	-0.054924
C	 1.3289021024	-0.617966199	-0.0102074217	 0.286898
O	 2.3292188932	 0.0777996658	-0.0126418853	-0.323025
H	 0.8867341088	 1.7040580918	 0.0046864895	 0.239861
H	-2.1515333832	-0.0613197252	 0.0128536557	 0.125406
H	-2.5016644947	-2.3754409035	 0.002654447	 0.131309
H	-0.9881126282	-3.988272246	-0.0145371898	 0.280725
H	 2.577539906	-2.341920548	-0.0264042343	 0.140378
85.0558	127.1073	362.3188	362.8378	368.9511	412.1115	447.5096	529.9701	561.0994	650.9334	668.4857	764.9322	799.4616	847.72	885.2735	938.1361	979.8301	986.6916	994.5174	1053.1018	1200.4142	1230.8246	1329.1509	1387.5577	1419.443	1463.689	1525.57	1643.3219	1656.9773	1699.7209	1737.7306	3166.4084	3182.8004	3202.1815	3411.377	3633.4496
N=C1C=CNN=CC1=O	[NH]C1=C[CH]NN=CC1=O	
InChI=1S/C5H5N3O/c6-4-1-2-7-8-3-5(4)9/h1-3,6-7H	InChI=1S/C5H5N3O/c6-4-1-2-7-8-3-5(4)9/h1-3,6-7H
