18
gdb 57812	6.31628	0.47904	0.45829	3.3177	83.14	-0.2679	0.0184	0.2863	2299.6876	0.145294	-401.93752	-401.926936	-401.925992	-401.975635	36.105	
C	 0.0378268293	 1.5334195174	-0.0834458713	-0.385947
C	 0.0111761849	 0.0095620762	 0.1018727214	-0.022236
O	 0.7181094596	-0.391627484	 1.2725744267	-0.410996
C	-1.362300486	-0.5096707939	 0.0914769682	 0.152049
C	-2.4993850561	-0.9071572604	 0.1231183126	-0.028251
C	-3.8565481648	-1.4358050278	 0.1429020272	-0.352383
C	-3.8774300827	-2.9730912722	-0.0649349312	-0.32393
C	-5.2360297752	-3.5094783422	-0.045062059	 0.255392
N	-6.3189360014	-3.9120444741	-0.0257722955	-0.300041
H	 1.0735237226	 1.8822291866	-0.0676198887	 0.128696
H	-0.4228753166	 1.8195678738	-1.0333274449	 0.12705
H	-0.5134711267	 2.0269220438	 0.7235987326	 0.118075
H	 0.5682932304	-0.4535037225	-0.7215525928	 0.120486
H	 0.207493145	-0.0945188193	 2.0341725229	 0.282715
H	-4.3447563909	-1.1970874964	 1.0946860107	 0.152701
H	-4.4599353113	-0.9605844826	-0.6389645399	 0.154423
H	-3.4071954525	-3.2242949227	-1.0207600101	 0.165569
H	-3.2880176576	-3.4610242598	 0.7176031213	 0.166629
14.2646	52.9685	62.8583	134.7923	166.4706	186.3892	250.8234	279.8604	340.5339	386.7217	403.3128	453.6778	505.5073	557.2477	579.3042	739.0686	765.21	898.4274	950.4159	1002.5492	1020.485	1033.4697	1066.9956	1099.2874	1176.2441	1198.6087	1283.4894	1285.7079	1307.3151	1336.3801	1369.538	1399.3431	1417.4973	1467.2427	1478.9177	1487.7267	1491.3552	2360.6624	2364.0467	3037.7518	3038.5945	3041.7063	3062.3554	3070.2862	3105.3819	3114.6725	3128.9274	3802.4578
CC(O)C#CCCC#N	C[C@@H](O)C#CCCC#N	
InChI=1S/C7H9NO/c1-7(9)5-3-2-4-6-8/h7,9H,2,4H2,1H3	InChI=1S/C7H9NO/c1-7(9)5-3-2-4-6-8/h7,9H,2,4H2,1H3/t7-/m1/s1
