16
gdb 52386	4.61395	0.63884	0.60411	2.3629	67.37	-0.2429	-0.1085	0.1344	1755.6929	0.120092	-475.025727	-475.015753	-475.014809	-475.06293	32.792	
O	 0.3429820131	-0.0294840261	-0.0822681033	-0.233163
C	 0.3055467616	 1.1699034011	-0.0098932172	 0.150772
C	 1.3554272521	 2.096848848	-0.6038748231	-0.234088
N	 0.7695695307	 3.3953027253	-0.9178326212	-0.290952
C	 1.7266587444	 4.4476054481	-1.1876573382	-0.274028
C	 2.407720262	 4.3642953246	-2.5484870056	 0.282001
O	 2.0814119626	 3.5874902045	-3.4156930614	-0.275956
C	 3.5478660792	 5.3511947886	-2.8311437426	 0.09095
O	 3.9496355008	 6.1378826915	-2.0146963075	-0.213009
H	-0.5101356002	 1.7092341753	 0.5227157441	 0.087434
H	 2.1105794472	 2.2439597212	 0.1830902953	 0.134281
H	 1.8527306322	 1.5837822548	-1.4391630072	 0.131439
H	 0.1578407765	 3.2978348569	-1.7230210468	 0.23443
H	 1.2346477122	 5.4307880344	-1.1408991882	 0.14683
H	 2.4934972945	 4.4796802635	-0.4052039033	 0.147896
H	 3.962684531	 5.2600500084	-3.8570284037	 0.115162
37.4526	54.1459	75.9886	86.8847	128.6029	183.2876	241.4668	261.8647	419.4238	448.6577	510.8012	518.9339	661.5786	710.3963	772.5951	825.1622	876.4103	1007.971	1027.4151	1071.136	1128.0577	1157.8022	1186.0778	1222.578	1292.1992	1338.0882	1360.5282	1369.9071	1403.6513	1433.769	1468.68	1518.7803	1805.2755	1821.1025	1842.0614	2885.9171	2926.5756	2997.1162	3009.8729	3037.9063	3073.8236	3514.4669
O=CCNCC(=O)C=O	O=CCNCC(=O)C=O	
InChI=1S/C5H7NO3/c7-2-1-6-3-5(9)4-8/h2,4,6H,1,3H2	InChI=1S/C5H7NO3/c7-2-1-6-3-5(9)4-8/h2,4,6H,1,3H2
