20
gdb 31659	2.85718	1.16318	0.88628	1.8488	84.24	-0.1835	0.0482	0.2317	1367.2607	0.17024	-403.183741	-403.173773	-403.172829	-403.218933	35.982	
C	 0.0541835261	 1.5353916485	 0.1519657528	-0.36516
C	-0.0134169902	 0.005633835	-0.0144450812	-0.322948
C	-1.4127407661	-0.5373636587	-0.0076459412	 0.144789
C	-2.1502912409	-0.9916463818	-1.0833007142	-0.185912
N	-3.4011079485	-1.3428451844	-0.6566737611	 0.021085
C	-4.4247802472	-1.961797254	-1.4667451393	-0.331331
C	-3.4881513625	-1.1376845556	 0.7060040442	-0.187444
C	-2.2774292531	-0.637156708	 1.123292456	 0.216536
O	-1.9960511116	-0.279999901	 2.4144558102	-0.452208
H	 1.090674203	 1.8884596733	 0.1707804808	 0.106365
H	-0.4652356468	 2.0351967477	-0.6711036985	 0.121231
H	-0.4300455724	 1.852971818	 1.0814592985	 0.116009
H	 0.4813799526	-0.2806272883	-0.9492930928	 0.103248
H	 0.5802081621	-0.466918762	 0.7832203876	 0.089414
H	-1.8740834672	-1.093598583	-2.1217582213	 0.111166
H	-4.4708701251	-3.0468861251	-1.3119481425	 0.134042
H	-5.4044672706	-1.5361987404	-1.2292417813	 0.137244
H	-4.2142868337	-1.7700849957	-2.521229523	 0.136512
H	-4.3875925375	-1.358269838	 1.2558915445	 0.112867
H	-1.0510050501	-0.1164034465	 2.4830977718	 0.294496
64.416	77.1106	123.8529	166.3237	194.4169	204.8538	279.6796	285.3416	306.9999	409.8216	493.712	593.3085	612.7355	618.4795	636.8312	727.2283	740.699	772.4751	807.8887	962.8263	1025.3273	1060.1376	1082.6793	1092.1955	1146.6953	1154.9608	1202.7806	1209.861	1265.4667	1302.275	1350.0391	1396.4945	1407.4576	1436.9391	1451.199	1466.4133	1484.2009	1486.0958	1495.1814	1509.0759	1521.5549	1579.7736	1647.344	2985.5894	3021.328	3032.022	3056.1177	3084.6697	3100.9522	3110.3208	3127.2551	3245.2885	3271.5972	3838.5774
CCC1=CN(C)C=C1O	CCc1cn(C)cc1O	
InChI=1S/C7H11NO/c1-3-6-4-8(2)5-7(6)9/h4-5,9H,3H2,1-2H3	InChI=1S/C7H11NO/c1-3-6-4-8(2)5-7(6)9/h4-5,9H,3H2,1-2H3
