20
gdb 71887	2.70606	1.8399	1.34039	0.8989	78.48	-0.2085	0.0666	0.2751	1023.6021	0.170374	-403.09354	-403.085511	-403.084567	-403.125403	32.312	
C	 0.037854069	 1.5273860187	 0.1754234237	-0.489402
C	-0.0924289961	 0.0444952238	-0.0313664264	 0.43544
C	 0.3476678898	-0.6487666639	-1.3383169526	-0.215351
N	-0.7428890557	-1.6825706546	-1.2136123411	-0.160704
C	-0.3587261842	-2.6879581898	-0.1575668039	-0.215351
C	-0.6960124787	-1.6979074864	 0.9775355284	 0.43544
C	-1.2361824277	-2.1504469525	 2.3049866627	-0.489402
O	 0.3763847125	-0.723183368	 1.1128964322	-0.374329
C	-1.3744689876	-0.8255815565	-0.1114136933	-0.171118
H	 1.0938192334	 1.8008706295	 0.2808841308	 0.130952
H	-0.3746156607	 2.0767020738	-0.6765488805	 0.120363
H	-0.48434778	 1.8411356794	 1.0839920658	 0.125046
H	 0.1605299577	-0.0343057087	-2.2258233964	 0.103531
H	 1.3680099046	-1.0422708836	-1.3728609371	 0.105112
H	-1.0521818184	-3.5351141181	-0.1987546804	 0.103531
H	 0.6711594555	-3.0539121985	-0.2080638405	 0.105112
H	-0.4555023177	-2.6716397055	 2.8705617133	 0.130952
H	-1.5711542983	-1.2962742766	 2.900648907	 0.125046
H	-2.0770162103	-2.8376449109	 2.1689952051	 0.120363
H	-2.4134816872	-0.5075064917	-0.183688057	 0.07477
189.7425	193.7708	195.8602	224.4025	269.9722	343.3837	401.6662	408.4951	474.0556	585.1373	592.3773	732.1264	791.9973	812.0858	847.6367	850.6943	877.3915	908.7641	927.6638	951.9176	981.4273	989.9945	1011.585	1082.8906	1139.801	1164.3769	1168.2477	1186.2004	1196.564	1215.3955	1242.5553	1244.767	1270.0933	1333.7631	1364.5401	1408.3415	1415.756	1474.8255	1477.8754	1480.6763	1487.729	1488.5395	1492.8271	3030.9798	3032.4056	3035.0944	3038.1548	3093.8092	3097.2009	3102.5167	3102.8613	3115.0195	3115.7543	3124.0046
CC12CN3CC(C)(O1)C23	C[C@@]12CN3C[C@@](C)(O1)[C@@H]23	
InChI=1S/C7H11NO/c1-6-3-8-4-7(2,9-6)5(6)8/h5H,3-4H2,1-2H3	InChI=1S/C7H11NO/c1-6-3-8-4-7(2,9-6)5(6)8/h5H,3-4H2,1-2H3/t5-,6+,7-
