19
gdb 55126	2.63037	1.31104	1.21086	4.5161	75.92	-0.225	0.036	0.2611	1134.3131	0.159896	-419.206563	-419.197805	-419.19686	-419.240333	33.473	
C	-0.5975447469	 1.211854263	 0.3560785222	-0.50861
C	 0.0344439067	-0.1153688444	 0.0754064075	 0.328341
N	-0.4595870246	-1.3650103327	 0.7175673201	-0.379018
C	 0.9683374552	-0.9735565518	 0.8587899976	-0.102657
C	 1.6702506808	-1.4668567015	-0.4072714437	-0.24576
C	 0.707682354	-0.5440555713	-1.2513536896	-0.124918
C	-0.1245642234	-1.1471540456	-2.3812551677	 0.367043
N	-0.983233665	-2.1301821656	-1.9983458477	-0.522648
O	 0.0042173194	-0.7777246346	-3.5355361834	-0.377962
H	 0.0498722753	 2.0307311686	 0.0260442674	 0.134274
H	-1.5544806673	 1.3119574282	-0.1690987897	 0.137986
H	-0.7853249227	 1.3410063567	 1.4278662951	 0.117657
H	-0.9400059764	-1.0893333027	 1.5731290067	 0.229555
H	 1.3918458747	-0.8254465489	 1.8451435097	 0.097966
H	 2.7109585422	-1.1486720289	-0.4866488268	 0.114609
H	 1.5983771155	-2.5409150895	-0.5913324816	 0.116899
H	 1.2604010456	 0.2878919095	-1.6888215955	 0.098867
H	-1.122184632	-2.3160742956	-1.0128871468	 0.269195
H	-1.5912438911	-2.5243021327	-2.6970640337	 0.249182
37.5324	131.2437	191.2619	228.1014	267.9107	303.5204	364.9718	392.5523	436.8218	490.2688	585.5029	612.7053	683.9528	706.2934	757.2254	809.8012	851.1517	908.9845	939.8542	946.4899	999.2575	1016.1479	1036.605	1076.3484	1099.941	1105.2426	1149.3247	1176.158	1220.2964	1240.6699	1295.5532	1301.9127	1345.8351	1365.9666	1409.2848	1443.9893	1479.028	1482.7943	1497.2603	1608.2043	1788.2618	3025.0336	3074.534	3089.3904	3099.2594	3109.955	3135.2222	3185.4671	3477.3261	3510.3493	3695.6769
CC12NC1CC2C(N)=O	C[C@]12N[C@H]1C[C@H]2C(=O)N	
InChI=1S/C6H10N2O/c1-6-3(5(7)9)2-4(6)8-6/h3-4,8H,2H2,1H3,(H2,7,9)	InChI=1S/C6H10N2O/c1-6-3(5(7)9)2-4(6)8-6/h3-4,8H,2H2,1H3,(H2,7,9)/t3-,4-,6+/m0/s1
