23
gdb 121119	2.71851	1.02368	0.92521	1.8045	82.83	-0.2369	0.0825	0.3194	1436.2802	0.204896	-425.434117	-425.42412	-425.423176	-425.470074	36.374	
C	-0.6926843778	 1.4968773362	 0.1185418645	-0.384806
C	-0.3488380605	 0.0248698302	 0.2729412998	-0.038315
O	-1.4738429355	-0.7388869958	-0.1175972144	-0.256451
C	-1.2831803121	-2.1433102701	-0.0739935371	 0.122192
C	-1.417025022	-2.7243019199	 1.3400625025	-0.089829
O	-2.8069398721	-2.8345599703	 1.5894504667	-0.272427
C	-3.5334906203	-2.9247955136	 0.351425539	 0.153697
C	-4.5975917436	-1.8325934945	 0.3284091883	-0.3906
C	-2.4767655653	-2.803809151	-0.7704824311	-0.277611
H	 0.1619239896	 2.119631784	 0.399421561	 0.114585
H	-0.9621035706	 1.7211176439	-0.9174201553	 0.126008
H	-1.5398531945	 1.7614771484	 0.7576416934	 0.129464
H	 0.5183993668	-0.2396333316	-0.3560369497	 0.08525
H	-0.0668191665	-0.1917961196	 1.3154040284	 0.089206
H	-0.3202390337	-2.4051756219	-0.5370528455	 0.061148
H	-0.9221437515	-3.7093755759	 1.3860577852	 0.082174
H	-0.9751293528	-2.0884776599	 2.1137785325	 0.106221
H	-4.0190622091	-3.9097962748	 0.3143840323	 0.067308
H	-4.1207989124	-0.8491863106	 0.3096461651	 0.134017
H	-5.237709093	-1.9341832098	-0.5547081423	 0.103548
H	-5.2277593594	-1.9018238592	 1.2197608023	 0.118391
H	-2.819001448	-2.2063796677	-1.6173963873	 0.114696
H	-2.1847097358	-3.7914079665	-1.1387378785	 0.102136
47.3008	58.1952	84.5062	145.9329	203.4195	252.4079	256.3605	335.6475	349.7044	400.2621	420.9786	467.2763	717.008	780.2704	793.0682	820.5536	858.2753	867.2501	901.0751	922.1442	984.8029	998.7022	1036.6345	1062.0323	1102.2644	1115.0307	1132.0696	1154.2059	1170.982	1188.4462	1212.3686	1257.5273	1271.2656	1296.7514	1324.8147	1336.574	1368.266	1385.2007	1396.3438	1403.3902	1405.9274	1437.8941	1475.1696	1483.5326	1488.1783	1499.3445	1500.9789	1509.7059	1529.7502	2956.7345	2958.096	2989.9664	2997.4279	2999.0565	3037.9413	3045.12	3067.3499	3072.8631	3108.3611	3119.4717	3122.084	3124.1086	3130.7435
CCOC1COC(C)C1	CCO[C@H]1CO[C@@H](C)C1	
InChI=1S/C7H14O2/c1-3-8-7-4-6(2)9-5-7/h6-7H,3-5H2,1-2H3	InChI=1S/C7H14O2/c1-3-8-7-4-6(2)9-5-7/h6-7H,3-5H2,1-2H3/t6-,7+/m0/s1
