15
gdb 9237	6.13449	0.78194	0.71334	5.0312	75.85	-0.2842	-0.0383	0.2459	1488.3794	0.117406	-362.649921	-362.640888	-362.639944	-362.684048	30.946	
C	-0.0493107672	 1.5704639707	-0.0051281058	-0.388979
C	 0.0489279493	 0.0308621117	-0.0145554586	-0.170425
C	 0.7421685785	-0.4922007613	-1.2884914922	-0.071554
O	-0.0593551881	-0.0935484012	-2.3841020111	-0.414645
C	 0.7324549078	-0.4699911662	 1.16898723	 0.111091
C	 1.3132267935	-0.8788059328	 2.147211172	 0.017387
C	 1.9682157938	-1.3407783209	 3.2521680613	 0.203437
N	 2.5273163716	-1.7351057193	 4.1912929102	-0.338087
H	 0.94820961	 2.0188987344	 0.0236353844	 0.129115
H	-0.5570318513	 1.9008906669	-0.9126943448	 0.147856
H	-0.6075828671	 1.9196589231	 0.866448623	 0.131728
H	-0.9686949753	-0.3834013922	-0.0198781837	 0.134714
H	 1.7567432899	-0.0694826999	-1.3465135409	 0.10472
H	 0.8351387045	-1.5860844035	-1.2293687653	 0.107314
H	 0.3762817698	-0.3668757095	-3.1964588484	 0.296329
76.0381	81.4422	137.5458	211.8329	217.7019	228.2001	247.6994	324.5847	392.3976	486.4156	515.0219	581.6992	595.1603	730.6475	863.2473	933.7765	1011.7728	1087.3573	1096.4532	1135.8029	1192.6439	1237.2205	1263.8521	1320.6808	1340.2313	1399.816	1453.5338	1493.1456	1500.0571	1522.4978	2263.3821	2399.6307	2983.9795	3014.5251	3030.3251	3052.6058	3125.8281	3148.7447	3837.7171
CC(CO)C#CC#N	C[C@@H](CO)C#CC#N	
InChI=1S/C6H7NO/c1-6(5-8)3-2-4-7/h6,8H,5H2,1H3	InChI=1S/C6H7NO/c1-6(5-8)3-2-4-7/h6,8H,5H2,1H3/t6-/m1/s1
