19
gdb 55364	3.11485	1.3835	1.09186	2.6821	74.4	-0.2389	0.0314	0.2703	1126.1774	0.161451	-419.229138	-419.220917	-419.219973	-419.262368	31.76	
N	 0.569486402	 0.225996051	 0.8014877471	-0.519925
C	-0.1948545602	 0.4085738865	-0.3090515114	 0.388016
O	 0.0550107592	 1.2238139994	-1.1768083218	-0.368609
C	-1.4439330518	-0.4763998209	-0.3485806411	-0.062049
C	-2.0203058914	-0.6947609668	-1.7630898667	-0.241749
C	-2.7211766213	-2.0649450273	-1.6523751625	-0.238753
C	-1.9563822862	-2.7832240886	-0.5491730913	-0.006592
C	-0.4739512257	-2.7367643332	-0.5992676292	-0.25424
N	-1.2151295564	-1.8034693984	 0.2735546678	-0.122945
H	 1.4304893408	 0.7404119216	 0.8854413315	 0.257308
H	 0.3753237805	-0.5432943957	 1.4213130821	 0.270694
H	-2.1968287382	 0.017961549	 0.2801734637	 0.108244
H	-2.7010115291	 0.1070049717	-2.0524382272	 0.114952
H	-1.2181765346	-0.7014219877	-2.5041968263	 0.125107
H	-3.7664663129	-1.9458943829	-1.3462253911	 0.107959
H	-2.7203538654	-2.6190092992	-2.5959289437	 0.109697
H	-2.4500309287	-3.5874666967	-0.0110987126	 0.092512
H	 0.1073823522	-3.4799283106	-0.0620997487	 0.115818
H	 0.0080661873	-2.3500683313	-1.4934262686	 0.124555
45.6384	115.6938	190.266	262.8897	313.4627	361.5478	379.7406	479.379	497.8014	619.4513	638.1691	650.3556	714.9757	766.0736	830.7021	864.9697	872.3141	930.7133	957.371	989.9719	1014.4812	1052.6024	1091.9286	1096.4056	1110.462	1127.9176	1168.1756	1178.6048	1214.2713	1267.6921	1281.617	1315.687	1320.5994	1335.8651	1383.0734	1389.4258	1489.5693	1494.9835	1518.5696	1599.3098	1797.0984	3016.1142	3044.2275	3080.249	3090.4804	3113.7925	3127.4875	3149.3602	3198.0309	3589.113	3730.0151
NC(=O)C1CCC2CN12	NC(=O)[C@H]1CC[C@H]2CN12	
InChI=1S/C6H10N2O/c7-6(9)5-2-1-4-3-8(4)5/h4-5H,1-3H2,(H2,7,9)	InChI=1S/C6H10N2O/c7-6(9)5-2-1-4-3-8(4)5/h4-5H,1-3H2,(H2,7,9)/t4-,5+,8?/m0/s1
