16
gdb 35474	4.38625	1.17497	0.99895	5.5873	74.52	-0.2609	-0.0147	0.2462	1142.3021	0.126881	-396.922383	-396.915117	-396.914173	-396.954255	27.817	
N	-0.125457984	-1.1386970221	-0.1423608974	-0.321535
C	-0.0467751069	 0.0125759192	-0.0966196587	 0.29174
C	-0.0091371563	 1.4797240246	-0.0093870038	-0.112051
C	-0.722155368	 1.9677152523	 1.2840945386	-0.249272
C	-0.6227727184	 3.4800017944	 1.3126367518	-0.024507
C	 0.320576271	 4.198683266	 2.2243740362	-0.252066
N	 0.6318076657	 4.0323426184	 0.7992448965	-0.087244
C	 1.5955695092	 3.1061627595	 0.3927497303	 0.055807
N	 1.3800084823	 1.9393626764	-0.0712061073	-0.222655
H	-0.5594578373	 1.8654278147	-0.8795833325	 0.139487
H	-1.7640550908	 1.6410730182	 1.3000749655	 0.132488
H	-0.2166444911	 1.512016549	 2.1396793862	 0.133122
H	-1.5002762253	 4.0245168029	 0.9725819644	 0.112843
H	 0.1008148141	 5.215046569	 2.5364221862	 0.136705
H	 0.8878398258	 3.6035440441	 2.9356461037	 0.136637
H	 2.6191514101	 3.4785973833	 0.4304053004	 0.130502
93.4185	159.1732	222.0006	286.0033	390.093	412.3414	483.2976	526.9544	558.8252	625.5832	712.7767	797.4331	847.0762	884.7427	919.5407	959.1057	992.611	1010.4126	1046.4419	1069.497	1114.2409	1125.1433	1148.1443	1171.022	1217.5954	1284.4072	1307.0886	1339.1101	1351.9446	1388.6284	1412.4958	1483.5422	1505.1236	1686.5781	2367.2726	3009.516	3069.2831	3112.8491	3116.8285	3138.3772	3140.3657	3207.6492
N#CC1CC2CN2C=N1	N#C[C@H]1C[C@H]2CN2C=N1	
InChI=1S/C6H7N3/c7-2-5-1-6-3-9(6)4-8-5/h4-6H,1,3H2	InChI=1S/C6H7N3/c7-2-5-1-6-3-9(6)4-8-5/h4-6H,1,3H2/t5-,6+,9?/m1/s1
