15
gdb 19669	4.86036	1.78659	1.66056	1.2902	69.18	-0.2507	0.0358	0.2866	803.4084	0.119918	-325.429147	-325.422827	-325.421883	-325.459445	25.102	
C	 0.0242883978	-1.263806932	-0.0653384173	-0.446003
C	 0.023092092	-0.0629359326	 0.0010809043	 0.295884
C	 0.038453495	 1.3855353179	 0.0871614994	-0.159832
C	-0.0841092549	 2.1049602457	 1.4280320177	-0.059027
C	 1.2745597793	 2.245399239	 2.0298873536	-0.032213
C	 2.2944708049	 1.620191208	 1.0950048645	-0.240923
C	 1.3770043242	 2.1719207536	-0.0092834462	-0.021432
N	 0.8083430627	 3.2304349969	 0.9885462714	-0.170222
H	 0.0192036194	-2.3240996709	-0.1249408101	 0.197525
H	-0.6798422995	 1.8235539566	-0.6137131974	 0.115173
H	-0.9930076521	 2.2880484603	 1.9892276304	 0.102255
H	 1.4075035944	 2.5465570105	 3.0626991897	 0.098824
H	 3.238690476	 2.168957472	 1.1285601132	 0.114727
H	 2.4778848686	 0.5427607479	 1.1300726746	 0.114588
H	 1.7592549823	 2.488360077	-0.9770830377	 0.090676
133.7875	155.7621	357.9965	397.9627	534.9277	541.565	629.1665	642.776	737.3235	763.0757	786.2723	812.6562	832.4002	922.9571	938.6693	979.9347	1009.873	1027.2068	1045.0776	1064.6473	1090.8643	1119.9755	1140.7614	1193.3207	1195.1074	1260.921	1268.6163	1342.1469	1352.6718	1380.6935	1493.2545	2232.5801	3057.7331	3059.8189	3117.0804	3146.0979	3178.9303	3190.9509	3502.2844
C#CC1C2C3CC1N23	C#C[C@H]1[C@H]2[C@H]3C[C@@H]1N23	
InChI=1S/C7H7N/c1-2-4-5-3-6-7(4)8(5)6/h1,4-7H,3H2	InChI=1S/C7H7N/c1-2-4-5-3-6-7(4)8(5)6/h1,4-7H,3H2/t4-,5+,6-,7+,8?/m1/s1
