13
gdb 21137	5.6442	1.63243	1.27618	0.649	66.12	-0.2431	-0.0944	0.1487	894.8182	0.096947	-390.928902	-390.921941	-390.920997	-390.960604	24.366	
C	-0.0058553356	 1.4481468014	 0.1258568557	-0.333793
N	 0.1418056902	 0.0054894593	 0.0657815479	-0.335484
C	 0.6146668688	-0.5295376422	-0.9780022708	 0.482625
N	 0.7395197594	-1.9387192378	-0.9900622736	-0.235068
N	 1.2069313916	-2.679951623	-1.9745031556	-0.010194
N	 1.5981460993	-2.1027520795	-3.0481284028	-0.221741
C	 1.4915014908	-0.7124468073	-3.0791291944	 0.110327
N	 1.0478841283	 0.0732278579	-2.1614140035	-0.281304
H	 0.5651312165	 1.8303598415	 0.9798791521	 0.126998
H	 0.3211026904	 1.9674786476	-0.7809595515	 0.135111
H	-1.0575681421	 1.691976507	 0.3154356994	 0.126995
H	 0.4452854393	-2.4482281947	-0.1662185843	 0.290351
H	 1.8372400432	-0.2762520803	-4.0139987387	 0.145177
76.3129	106.859	232.2603	233.6793	353.329	460.7193	495.6127	614.5054	684.8457	741.7931	795.6915	826.6094	987.6718	1008.4181	1053.4574	1080.873	1134.9819	1138.9201	1195.0864	1239.1842	1370.8686	1415.2618	1438.377	1492.6468	1495.507	1524.0672	1641.3894	1770.6348	3019.3521	3074.8033	3096.6616	3164.8848	3589.4074
CN=C1NN=NC=N1	C[N]c1[nH]nncn1	
InChI=1S/C3H5N5/c1-4-3-5-2-6-8-7-3/h2H,1H3,(H,4,5,6,7)	InChI=1S/C3H10N5/c1-4-3-5-2-6-8-7-3/h3,5-8H,2H2,1H3
