19
gdb 65100	2.98779	1.37154	1.27221	1.0295	74.81	-0.2351	0.0727	0.3077	1088.1483	0.157722	-422.96176	-422.953305	-422.952361	-422.994947	32.253	
C	 0.3039031142	 0.6986470065	-1.3909363895	-0.475737
C	-0.0340431281	 0.0167333664	-0.0853614213	 0.293073
C	 1.0096613044	-0.6269625272	 0.7268644346	-0.21891
O	 0.4551533181	 0.6396997807	 1.1079085904	-0.275711
C	-1.4446056405	-0.4505054796	 0.0366322327	 0.448366
C	-2.5868381482	 0.3360901996	 0.601354632	-0.335427
C	-2.2641532471	-1.0396668216	 1.1584208903	-0.204994
C	-2.6644858259	-2.0921333651	 0.1310993791	-0.08838
O	-1.9195773794	-1.4113970364	-0.919408754	-0.333386
H	 1.3537249611	 1.0007418641	-1.4082103964	 0.123476
H	 0.1126660388	 0.0209919844	-2.2284953438	 0.143281
H	-0.3178758491	 1.5893142466	-1.5269326869	 0.130405
H	 0.7506371253	-1.4619790984	 1.3748750758	 0.111327
H	 2.0454103911	-0.5962144524	 0.391706813	 0.114056
H	-2.2996890166	 1.1545042323	 1.2529651497	 0.132928
H	-3.4799188105	 0.495274165	 0.0026649247	 0.111408
H	-2.0158854338	-1.2123600563	 2.1965158017	 0.108234
H	-2.23708919	-3.0831482371	 0.3203549693	 0.109647
H	-3.7292018841	-2.1878371316	-0.1123754016	 0.106344
59.3001	150.8777	162.7517	198.698	294.3094	315.0155	359.8072	405.918	489.9581	503.0484	574.1393	754.2868	796.4373	851.9011	867.5508	899.3699	923.2491	956.7113	971.9186	982.658	998.8399	1014.5793	1037.281	1072.4812	1102.2843	1126.3754	1133.066	1148.4827	1164.2303	1171.0886	1205.9613	1291.2888	1337.0929	1370.7777	1410.3745	1428.922	1479.667	1484.0259	1504.2604	1520.004	1527.155	3024.4194	3042.6321	3073.5336	3086.7983	3111.7786	3115.3766	3129.1773	3176.7441	3206.8374	3218.5559
CC1(CO1)C12CC1CO2	C[C@]1(CO1)[C@]12C[C@H]1CO2	
InChI=1S/C7H10O2/c1-6(4-9-6)7-2-5(7)3-8-7/h5H,2-4H2,1H3	InChI=1S/C7H10O2/c1-6(4-9-6)7-2-5(7)3-8-7/h5H,2-4H2,1H3/t5-,6-,7-/m0/s1
