23
gdb 86436	2.1626	1.45214	0.91707	0.5737	95.7	-0.2103	-0.0219	0.1884	1350.6634	0.206972	-351.178274	-351.169058	-351.168113	-351.213015	35.836	
C	 0.0868711061	 1.5987698303	 0.0457512656	-0.398764
C	-0.0269069265	 0.06178207	-0.0034032401	-0.042839
C	 0.5614279111	-0.4637592168	-1.3222190807	-0.18854
C	 0.3555689772	-1.9614114834	-1.6254899649	-0.041562
C	 0.5730333594	-2.2380989913	-3.1235639653	-0.401504
C	 1.2364421134	-2.8684693746	-0.801587091	-0.060127
C	 1.6209813578	-2.7080165177	 0.4720826443	-0.087037
C	 1.2673872129	-1.6582439281	 1.4235375459	-0.091107
C	 0.569029988	-0.5262238069	 1.2504764585	-0.05343
H	 1.1363748686	 1.9132152734	 0.0321079059	 0.119556
H	-0.4149788625	 2.0578315721	-0.8117115536	 0.110216
H	-0.3690880289	 1.9992935503	 0.9568711681	 0.111637
H	-1.1034937715	-0.1740041994	 0.0024063553	 0.085245
H	 0.1028266089	 0.1116385353	-2.1357381093	 0.087445
H	 1.6351750038	-0.2390099173	-1.3537608004	 0.100712
H	-0.6933064479	-2.2095478675	-1.3981617847	 0.087337
H	 1.5955121343	-1.9817446004	-3.4239450435	 0.118137
H	 0.4133551485	-3.2960132296	-3.3562213097	 0.111898
H	-0.1153282885	-1.6500311107	-3.7382484288	 0.109425
H	 1.5987830228	-3.7550867502	-1.3191146503	 0.080315
H	 2.2614897582	-3.4832564749	 0.8878152936	 0.081026
H	 1.6151282736	-1.8528085156	 2.4364742408	 0.080703
H	 0.4069599212	 0.0812812731	 2.1401596645	 0.081258
16.8958	147.938	218.1458	237.9623	248.2502	282.1375	334.2569	353.4336	395.4719	408.6922	466.6169	587.4353	618.5609	706.6995	786.4305	806.4984	827.4027	896.8215	899.2637	919.135	968.4271	999.1418	1006.4884	1013.6666	1028.9869	1049.4452	1084.8206	1113.4465	1140.139	1188.2003	1212.5719	1279.3906	1289.5657	1297.8156	1321.1938	1349.1925	1359.4721	1377.2101	1405.1192	1408.0121	1437.1562	1460.2062	1483.5121	1497.4701	1498.7796	1501.7488	1503.2123	1682.9312	1713.3033	2964.1611	2977.0254	3018.1158	3028.0222	3030.0579	3058.86	3095.4663	3098.5325	3103.025	3104.0454	3118.2173	3127.1049	3142.1448	3156.7215
CC1CC(C)C=CC=C1	C[C@H]1C[C@@H](C)C=CC=C1	
InChI=1S/C9H14/c1-8-5-3-4-6-9(2)7-8/h3-6,8-9H,7H2,1-2H3	InChI=1S/C9H14/c1-8-5-3-4-6-9(2)7-8/h3-6,8-9H,7H2,1-2H3/t8-,9+
