21
gdb 57866	3.08617	0.99809	0.87234	1.973	83.47	-0.2475	-0.0139	0.2336	1427.6986	0.181388	-420.449927	-420.439367	-420.438423	-420.485746	37.644	
C	 0.0618118483	 1.3867920663	-0.3300325875	-0.384604
C	 0.0434260881	-0.0597154204	 0.1790567817	-0.097308
C	 0.6473652319	-0.1596860243	 1.595503367	-0.387533
C	-1.3961377762	-0.5731692165	 0.2319271369	 0.432761
O	-2.3145032423	 0.1627229772	 0.5386757832	-0.369065
N	-1.610212409	-1.9280847412	-0.0434618816	-0.120904
C	-0.5471701721	-2.8545012089	-0.4325284835	-0.357217
C	-2.9170469369	-2.4118322347	 0.0374463084	 0.097406
N	-3.2001192176	-3.6265249173	-0.21107338	-0.478238
H	 1.0837383083	 1.7776065528	-0.3171031095	 0.108256
H	-0.3161629779	 1.4533711075	-1.3545468807	 0.117761
H	-0.5678087192	 2.0193061054	 0.2991450349	 0.142897
H	 0.6387168457	-0.679111031	-0.4969335459	 0.086336
H	 0.0644970637	 0.4469587215	 2.2951500083	 0.139132
H	 0.6572823618	-1.1883533698	 1.9693797578	 0.120544
H	 1.6771486255	 0.2096535014	 1.5943190594	 0.12118
H	 0.2726034489	-2.8414592312	 0.2888690836	 0.135761
H	-0.986927195	-3.8506538013	-0.4583585548	 0.179859
H	-0.1551021087	-2.6186326777	-1.4267111341	 0.136386
H	-3.6111326676	-1.6257210968	 0.331191431	 0.145261
H	-4.1993688896	-3.7804633309	-0.0929638449	 0.231329
51.4397	73.6031	151.5278	177.7278	193.1238	202.1165	241.9271	258.8062	297.607	313.5148	344.3536	388.9956	453.7747	546.106	683.3359	755.9172	782.6238	834.7102	879.6099	935.1623	972.4675	975.6417	1086.3129	1093.6016	1106.9832	1123.9839	1154.8764	1176.4994	1206.2114	1299.1489	1332.2084	1358.2818	1388.0311	1396.039	1406.5671	1419.5212	1458.6967	1483.3553	1490.3533	1498.9764	1503.1283	1512.0858	1517.3211	1710.2676	1773.0958	3037.7815	3044.8586	3045.6049	3073.4135	3107.8422	3111.0367	3113.2987	3117.5162	3136.6699	3150.6294	3162.7659	3509.2583
CC(C)C(=O)N(C)C=N	CC(C)C(=O)N(C)C=N	
InChI=1S/C6H12N2O/c1-5(2)6(9)8(3)4-7/h4-5,7H,1-3H3	InChI=1S/C6H12N2O/c1-5(2)6(9)8(3)4-7/h4-5,7H,1-3H3
