19
gdb 102246	1.9957	1.17518	0.85365	3.3842	79.08	-0.247	0.0377	0.2847	1408.4146	0.157024	-419.217986	-419.207243	-419.206299	-419.254827	38.29	
C	 0.3546821327	 1.5067506551	 0.0558409884	-0.389791
C	 0.1491207606	-0.0085179337	 0.0686261506	-0.170518
C	-1.3357383941	-0.4226350044	-0.06302391	-0.155578
N	-1.9465833336	 0.0502902954	-1.2989854498	-0.333324
C	-2.8830655803	 1.0552933201	-1.3021834147	 0.468488
N	-3.3959189772	 1.3488637156	-2.5608233175	-0.570566
O	-3.2032539203	 1.6748480433	-0.3032392584	-0.396953
C	-1.4845902489	-1.8760071405	 0.0572162143	 0.303672
C	-1.5685586705	-3.0727578138	 0.1325436247	-0.430245
H	 1.4128340857	 1.7513325254	 0.188120738	 0.109729
H	 0.0236372228	 1.943939385	-0.8902266051	 0.126689
H	-0.2111606713	 1.9907347034	 0.8576904082	 0.133536
H	 0.7185608913	-0.4811224071	-0.7414636029	 0.096431
H	 0.5291924099	-0.4381384814	 1.002211487	 0.112087
H	-1.9044793057	 0.0716577542	 0.7325244757	 0.150233
H	-1.6846846955	-0.4043716131	-2.1581603877	 0.241829
H	-3.481773237	 0.5935646774	-3.2245804646	 0.246012
H	-4.212130083	 1.9393919433	-2.508057812	 0.261838
H	-1.6610464757	-4.1273518943	 0.2167345557	 0.196431
33.8011	57.5033	92.0833	137.527	156.0453	224.0843	260.0174	283.812	320.0467	407.9706	436.3995	458.2482	522.9506	545.9364	566.7583	625.8262	641.5615	656.9375	776.7036	787.1882	884.6711	958.3266	989.3799	1042.4598	1082.8065	1102.9972	1127.6037	1170.6703	1280.33	1291.7463	1318.9395	1370.3815	1377.2929	1414.861	1480.6788	1493.9241	1504.3951	1537.3588	1629.4718	1793.1163	2235.578	3029.5465	3043.6889	3059.8655	3074.8593	3112.7457	3119.7938	3503.5737	3573.1097	3642.7383	3687.1963
CCC(NC(N)=O)C#C	CC[C@@H](NC(=O)N)C#C	
InChI=1S/C6H10N2O/c1-3-5(4-2)8-6(7)9/h1,5H,4H2,2H3,(H3,7,8,9)	InChI=1S/C6H10N2O/c1-3-5(4-2)8-6(7)9/h1,5H,4H2,2H3,(H3,7,8,9)/t5-/m0/s1
