21
gdb 114630	1.8755	1.72969	1.07309	2.195	79.11	-0.2379	0.0685	0.3063	1198.9459	0.181343	-424.177714	-424.168226	-424.167282	-424.211943	35.404	
C	 0.0162758457	 1.4655503959	 0.1954288301	-0.268965
O	-0.2977659112	 0.0885079609	 0.3671594272	-0.286293
C	 0.5129167369	-0.5553842849	 1.272458909	 0.454278
C	 1.9201023627	-0.9711611336	 0.9292064469	-0.346895
C	 0.8896016846	-2.0266127905	 1.2658664549	-0.137339
C	 0.7070498992	-2.0967633827	 2.7876903774	-0.267989
C	 0.2502245762	-0.5977058755	 2.7914370243	-0.041437
C	 0.9605648805	 0.3683521229	 3.7201882408	-0.107048
O	 0.3940406289	 1.6619257095	 3.5394518938	-0.410769
H	 1.0184752012	 1.590474802	-0.2397027641	 0.100123
H	-0.7256757841	 1.8735083416	-0.4949162802	 0.117864
H	-0.0250340152	 2.0036740465	 1.1491816929	 0.138427
H	 2.1478264038	-0.8874138226	-0.1286446188	 0.115493
H	 2.7667647477	-0.7895796833	 1.5884079107	 0.097999
H	 0.6140380767	-2.798317103	 0.5583656068	 0.093728
H	-0.0812133994	-2.7782975501	 3.1129835112	 0.107231
H	 1.6178774834	-2.3195363288	 3.3555341913	 0.092053
H	-0.8271810856	-0.5289590839	 2.9692385654	 0.090088
H	 0.8352656479	 0.0281905719	 4.7611682566	 0.08722
H	 2.0410640867	 0.3759169012	 3.507407606	 0.084818
H	 0.8885202533	 2.2874871462	 4.0768633979	 0.287413
88.1944	103.4878	139.7406	185.7191	208.6263	242.6156	266.0628	342.8784	384.0617	408.1608	474.9459	495.8939	677.5372	682.9241	805.438	855.6357	910.4916	932.793	957.207	1002.923	1011.6416	1025.1841	1058.73	1063.2852	1081.1751	1098.389	1122.707	1159.0169	1190.0047	1212.1945	1215.6523	1233.88	1254.109	1255.061	1273.8144	1298.5292	1353.492	1391.1398	1454.1862	1473.6571	1486.0295	1489.9005	1506.4731	1516.38	1518.4707	2965.6054	2995.0705	2996.1178	3036.8492	3069.199	3072.427	3100.3556	3108.5734	3123.5201	3191.5817	3202.0919	3830.4684
COC12CC1CC2CO	CO[C@]12C[C@H]1C[C@H]2CO	
InChI=1S/C7H12O2/c1-9-7-3-5(7)2-6(7)4-8/h5-6,8H,2-4H2,1H3	InChI=1S/C7H12O2/c1-9-7-3-5(7)2-6(7)4-8/h5-6,8H,2-4H2,1H3/t5-,6+,7-/m1/s1
