19
gdb 86750	4.3532	0.98165	0.91184	2.6027	76.62	-0.2528	0.006	0.2588	1307.8312	0.159605	-423.004653	-422.996191	-422.995247	-423.038639	31.746	
O	-0.339549055	 1.5452454893	-0.458855819	-0.436606
C	 0.1281163891	 0.2702727296	-0.0121732822	 0.097984
C	-1.0001346362	-0.7262163555	 0.3553837053	-0.257366
C	-1.1163877721	-1.7167416469	-0.8390919916	-0.084152
C	 0.1944682862	-1.503321079	-1.5678147731	-0.0583
C	 0.8774338709	-0.4588714742	-1.1027800609	-0.120534
C	-1.4007076358	-3.1315275371	-0.3734597684	 0.083732
C	-0.841234684	-4.3450787505	-0.9819440658	-0.18659
O	-0.3354306737	-3.8436567886	 0.2578468586	-0.231211
H	-0.735886501	 1.415955522	-1.3277262657	 0.273534
H	 0.7519329403	 0.5063528817	 0.8553443284	 0.090682
H	-0.7089438488	-1.2877646137	 1.2483148751	 0.121969
H	-1.9288085688	-0.1954181687	 0.5773229435	 0.10479
H	-1.9533085281	-1.4403259692	-1.4996845123	 0.082459
H	 0.5056317904	-2.1256143266	-2.3997797575	 0.099083
H	 1.8204003258	-0.0941671266	-1.4944985149	 0.100618
H	-2.3588732365	-3.2371896	 0.141019214	 0.09201
H	-1.3933956178	-5.2820404809	-0.9179264885	 0.11422
H	-0.158453825	-4.2721631951	-1.826072115	 0.113678
43.6795	76.2694	152.8756	203.8417	292.4719	332.6439	368.3201	450.2323	480.1267	603.7277	678.6241	758.0181	797.3874	805.01	845.2378	875.72	906.5719	951.6989	970.5274	985.896	998.0587	1051.4679	1066.1131	1097.9296	1109.5233	1140.9052	1162.0098	1175.5189	1192.0505	1264.2557	1277.1988	1282.2278	1298.7165	1333.7871	1340.9799	1383.7108	1429.7248	1435.1901	1477.0324	1531.6281	1682.4658	2979.5324	3055.2146	3069.0819	3079.4123	3088.7986	3114.3158	3171.6203	3183.269	3208.8296	3799.1131
OC1CC(C=C1)C1CO1	O[C@H]1C[C@@H](C=C1)[C@H]1CO1	
InChI=1S/C7H10O2/c8-6-2-1-5(3-6)7-4-9-7/h1-2,5-8H,3-4H2	InChI=1S/C7H10O2/c8-6-2-1-5(3-6)7-4-9-7/h1-2,5-8H,3-4H2/t5-,6-,7-/m1/s1
