22
gdb 61557	3.6021	0.8318	0.76636	1.6709	83.35	-0.2287	-0.0096	0.2191	1583.4757	0.191628	-404.338784	-404.328299	-404.327355	-404.375343	37.408	
C	-0.0021089644	 1.5200079717	-0.0472807114	-0.400276
C	 0.0564918656	-0.021462448	-0.0197372194	-0.0845
C	 0.7374809881	-0.6125263185	-1.2622871802	-0.14393
N	-0.0142674868	-0.3101625746	-2.4776359938	-0.075395
C	 0.4859857851	 0.7795692049	-3.3136860324	-0.220378
C	 0.6557041498	-0.637047036	-3.7320577523	-0.22155
C	 0.7866942962	-0.4651476324	 1.2489620286	 0.385758
C	-0.055720681	-0.6086669578	 2.5041322238	-0.480256
O	 1.9772162601	-0.6869565427	 1.2530829209	-0.311504
H	 1.0058531267	 1.9433216433	-0.1091139747	 0.127614
H	-0.5772821626	 1.8608134024	-0.910891981	 0.138604
H	-0.4807735291	 1.9206618541	 0.8518508192	 0.11558
H	-0.9736800356	-0.3964798112	 0.0198273299	 0.087521
H	 1.7817956498	-0.2640773175	-1.3094283518	 0.102815
H	 0.7751504167	-1.703055551	-1.1582213658	 0.104738
H	-0.2694001136	 1.4072665123	-3.7781966138	 0.114986
H	 1.3780831722	 1.308426859	-2.982058473	 0.112628
H	 1.6612374826	-1.0518289259	-3.6788548705	 0.111817
H	 0.0261808245	-1.0658726733	-4.5066277065	 0.115407
H	-0.7186952	 0.2513862424	 2.6423164774	 0.135646
H	-0.7002389236	-1.4906866774	 2.4038865079	 0.144051
H	 0.5877132696	-0.7332449538	 3.3759880288	 0.140624
40.5558	59.4578	102.8149	128.9097	145.0545	223.7362	245.9126	284.1073	298.7894	340.0192	407.6442	497.2725	587.7397	601.2968	759.3263	795.2063	839.3835	892.0082	896.8425	929.6735	954.9938	994.1952	1027.8261	1038.4982	1077.9742	1110.7284	1121.0846	1128.1883	1146.513	1169.0564	1178.4603	1208.2808	1281.7901	1318.5645	1325.3124	1350.8954	1381.314	1394.8442	1404.5555	1462.333	1475.1516	1484.036	1493.9968	1500.4292	1502.65	1522.5989	1804.2111	2977.0985	3032.0514	3037.3593	3039.0406	3058.0133	3093.4194	3096.9648	3097.7784	3105.1001	3127.8279	3151.2911	3175.1862	3189.7128
CC(CN1CC1)C(C)=O	C[C@@H](CN1CC1)C(=O)C	
InChI=1S/C7H13NO/c1-6(7(2)9)5-8-3-4-8/h6H,3-5H2,1-2H3	InChI=1S/C7H13NO/c1-6(7(2)9)5-8-3-4-8/h6H,3-5H2,1-2H3/t6-/m0/s1
