17
gdb 91048	2.19577	1.93551	1.58658	2.1322	67.	-0.245	0.0505	0.2955	936.3021	0.134106	-458.882592	-458.874799	-458.873855	-458.914363	30.701	
C	-0.1685651704	 1.5723320391	-0.0657667258	-0.424777
C	 0.0778062618	 0.0815536806	 0.0186380551	 0.101216
O	 1.1423400133	-0.4084716938	-0.8526081753	-0.303354
C	 1.7482730946	-1.1697761212	 0.2002671296	-0.002412
C	 2.9050841876	-0.4616221534	 0.9699995299	-0.001937
O	 2.6093466946	 0.9343030285	 1.0107245623	-0.219109
C	 1.9441843549	 0.094089969	 1.9477794406	-0.016201
C	 0.746152574	-0.6018094508	 1.2446193003	 0.29238
O	-0.0047832984	-1.3336147242	 2.1540180365	-0.477232
H	 0.7414477615	 2.13128112	 0.1491639128	 0.153586
H	-0.5202888946	 1.839314194	-1.0674883244	 0.124932
H	-0.9482088584	 1.8566430414	 0.649797996	 0.11668
H	-0.8532326625	-0.4625431474	-0.218221451	 0.061062
H	 1.8779425407	-2.2338137681	-0.0138069278	 0.082558
H	 3.9451381633	-0.750017926	 1.0724017359	 0.1107
H	 2.034653184	 0.3223086601	 3.0037547255	 0.114269
H	-0.6153218861	-1.8987232978	 1.6676833298	 0.287641
168.9029	198.6619	215.3352	245.4872	311.7382	329.5946	338.5644	437.6732	534.6712	576.1531	680.8214	688.7161	809.8158	835.0152	846.3856	856.8594	897.2113	953.7049	991.632	1011.594	1037.5538	1049.1571	1095.5105	1109.6796	1142.0526	1155.5111	1204.9402	1238.6601	1255.6545	1280.0896	1317.6101	1359.333	1379.5461	1398.8919	1421.3932	1481.3064	1505.4638	2945.16	3041.7716	3082.0947	3101.6657	3163.0232	3176.9646	3192.4133	3801.9415
CC1OC2C3OC3C12O	C[C@H]1O[C@H]2[C@H]3O[C@H]3[C@@]12O	
InChI=1S/C6H8O3/c1-2-6(7)4(8-2)3-5(6)9-3/h2-5,7H,1H3	InChI=1S/C6H8O3/c1-2-6(7)4(8-2)3-5(6)9-3/h2-5,7H,1H3/t2-,3-,4+,5-,6-/m1/s1
