20
gdb 82379	2.37088	1.94368	1.34209	1.5135	77.84	-0.2199	0.0849	0.3048	1017.6565	0.172751	-403.112673	-403.10496	-403.104016	-403.144494	30.932	
C	-1.0458825477	 1.0285953264	 0.054723505	-0.388843
C	 0.0339056825	-0.0624874536	-0.019958317	-0.041766
C	 0.829931926	 0.0320709316	-1.3041223241	 0.043162
O	 1.7726041747	 1.1093303455	-1.4312965424	-0.26037
C	 2.2711854321	-0.2327747424	-1.3230847911	 0.045979
C	 3.003107611	-0.6181435119	-0.0550239109	-0.193217
N	 2.3336424762	-0.367519857	 1.2186916963	-0.116306
C	 1.8973455151	 0.9955120248	 1.5338255853	-0.253346
C	 0.8988273957	-0.0743277239	 1.2373365234	-0.018636
H	-0.5884438039	 2.0217488614	 0.0382137946	 0.13426
H	-1.736993715	 0.9563498885	-0.7918777193	 0.111611
H	-1.6309095258	 0.9375089525	 0.9753640148	 0.11597
H	-0.4752040102	-1.0370334105	-0.0669727667	 0.082488
H	 0.2524553432	-0.149864709	-2.2120985919	 0.090583
H	 2.7226090657	-0.6135022252	-2.2413499952	 0.089867
H	 3.2056352212	-1.6968163685	-0.1191763835	 0.110535
H	 3.9797868826	-0.1196262749	-0.0273103139	 0.117697
H	 2.070366262	 1.3024220979	 2.5631793421	 0.104351
H	 2.0391469087	 1.7670710121	 0.7853301387	 0.137926
H	 0.387320426	-0.5235205439	 2.0884439556	 0.088058
115.3771	213.0589	237.2708	250.2447	311.3942	349.126	418.1025	459.628	500.5119	675.6872	688.8874	707.043	769.5311	843.9454	871.0744	889.2902	929.2938	941.6354	1007.901	1011.4105	1046.0981	1050.9429	1088.1337	1103.4893	1126.3985	1144.689	1159.8412	1179.848	1198.2154	1276.742	1299.047	1326.9362	1334.8449	1359.059	1375.5591	1377.4399	1404.5871	1423.5696	1471.972	1487.422	1496.3651	1500.6859	1501.4862	2992.4103	3008.0564	3034.6141	3052.8147	3086.2323	3096.9881	3099.4207	3101.4145	3104.8049	3118.5981	3209.8338
CC1C2OC2CN2CC12	C[C@H]1[C@H]2O[C@H]2CN2C[C@@H]12	
InChI=1S/C7H11NO/c1-4-5-2-8(5)3-6-7(4)9-6/h4-7H,2-3H2,1H3	InChI=1S/C7H11NO/c1-4-5-2-8(5)3-6-7(4)9-6/h4-7H,2-3H2,1H3/t4-,5+,6+,7-,8?/m1/s1
