20
gdb 89274	2.46755	1.74617	1.30433	1.5613	78.06	-0.2412	0.0215	0.2627	1058.0741	0.171488	-403.165803	-403.157415	-403.156471	-403.198869	32.356	
C	-0.7146864097	 1.2789335706	-0.1420111242	-0.404175
C	 0.0436671209	-0.0370275727	-0.0397224278	 0.011157
C	 1.3723735909	-0.1892857277	-0.8520196887	-0.288231
C	 2.128088016	-0.5963902365	 0.4521350363	 0.318688
C	 2.7713532324	-1.9699432231	 0.4798106868	-0.46319
N	 3.058073952	 0.4509763685	 0.9180466415	-0.29604
C	 2.4175058731	 1.1316134436	 1.7734654047	 0.101155
O	 1.1321561414	 0.813058193	 2.0831913716	-0.229432
C	 0.8191153631	-0.3399535636	 1.2701199941	 0.027232
H	-0.073239064	 2.1284399965	 0.1088754709	 0.123983
H	-1.0876231509	 1.4261169871	-1.1610395988	 0.115804
H	-1.5728629063	 1.2990448378	 0.5378135387	 0.118693
H	-0.6369396181	-0.868973145	-0.250309583	 0.076246
H	 1.3543830046	-0.9507440708	-1.6360055004	 0.099406
H	 1.7487677158	 0.7441357565	-1.2772084685	 0.106985
H	 3.6256909634	-2.0008003053	-0.2033715196	 0.131176
H	 3.1320954502	-2.2113420043	 1.4846786059	 0.121048
H	 2.0579479092	-2.7423636032	 0.1733576262	 0.109922
H	 2.8045896042	 1.9860004417	 2.3183184289	 0.138346
H	 0.4134300119	-1.1118068933	 1.9281935855	 0.081229
46.2773	208.2433	216.7743	225.9407	245.0104	291.6369	326.8453	380.2169	499.9401	588.8321	629.2196	640.0749	788.133	827.9041	852.6641	893.938	905.1123	924.097	934.3034	965.1461	965.8762	998.9991	1072.1857	1099.1877	1120.7791	1173.9759	1193.1465	1194.1218	1207.9804	1250.9644	1289.4972	1312.5841	1322.774	1354.6969	1362.7483	1406.9868	1413.5574	1478.4446	1484.9584	1491.905	1493.3739	1496.611	1689.2879	3032.0976	3035.2253	3043.0929	3059.59	3082.9614	3100.1188	3102.9545	3110.5221	3113.213	3118.2809	3211.4344
CC1CC2(C)N=COC12	C[C@H]1C[C@@]2(C)N=CO[C@@H]12	
InChI=1S/C7H11NO/c1-5-3-7(2)6(5)9-4-8-7/h4-6H,3H2,1-2H3	InChI=1S/C7H11NO/c1-5-3-7(2)6(5)9-4-8-7/h4-6H,3H2,1-2H3/t5-,6-,7+/m0/s1
