18
gdb 121555	6.31214	0.42149	0.41974	4.4184	82.08	-0.2677	0.0208	0.2884	2518.4658	0.145527	-401.928397	-401.91776	-401.916816	-401.967405	35.538	
O	-0.0585728138	 1.3851109007	 0.5138947002	-0.420687
C	 0.0195208811	 0.0395505041	 0.0752802919	-0.074344
C	-1.3877743372	-0.5418838887	 0.1172236851	-0.159088
C	-1.4234423628	-2.008371295	-0.3530670664	-0.35957
C	-2.7611979916	-2.5867812704	-0.3143115629	 0.054904
C	-3.8719781064	-3.0452293064	-0.270468234	 0.121872
C	-5.2192865652	-3.6077533562	-0.2242206691	-0.473362
C	-5.3279344568	-4.7727046502	 0.6651851803	 0.278957
N	-5.4262217979	-5.6892570461	 1.360389384	-0.302252
H	 0.8270592623	 1.7593540803	 0.5019331797	 0.287892
H	 0.4188598702	-0.0254201247	-0.950863288	 0.085911
H	 0.6870898948	-0.5552351888	 0.7208492603	 0.087782
H	-1.7735599478	-0.4704989193	 1.1391210624	 0.122289
H	-2.0435168456	 0.0666748513	-0.5138291639	 0.119282
H	-1.0272438947	-2.0792175312	-1.3748937225	 0.132348
H	-0.7546603556	-2.6141318961	 0.2728950751	 0.137469
H	-5.9414963915	-2.853367006	 0.1141436963	 0.180887
H	-5.5462746514	-3.9138047573	-1.2265102585	 0.179709
7.1677	60.5747	75.9585	101.8459	116.6062	217.3499	249.2126	260.0043	307.5441	370.9993	388.2522	400.7579	521.5907	566.3462	755.3681	800.4194	865.195	927.5953	936.6683	1018.8483	1029.245	1086.6816	1116.8834	1166.8052	1212.7273	1230.4937	1236.1222	1298.8438	1304.9213	1312.3401	1337.7919	1375.7373	1448.9332	1465.7045	1473.7588	1499.3776	1528.4601	2369.9286	2382.8071	2954.2265	2979.5899	3013.6684	3023.4092	3042.3401	3052.6992	3054.5932	3101.0279	3831.4669	7.1617	60.5734	75.9583	101.8456	116.6052	217.3493	249.2121	260.002	307.5429	370.9989	388.2496	400.7571	521.59	566.3458	755.3679	800.4192	865.1949	927.5953	936.668	1018.8482	1029.245	1086.6813	1116.8835	1166.8049	1212.7275	1230.4938	1236.1222	1298.8443	1304.9215	1312.3404	1337.792	1375.7375	1448.9333	1465.7047	1473.7595	1499.3779	1528.4603	2369.9288	2382.8066	2954.2264	2979.5899	3013.6684	3023.4093	3042.3401	3052.6992	3054.5931	3101.0279	3831.4664
OCCCC#CCC#N	OCCCC#CCC#N	
InChI=1S/C7H9NO/c8-6-4-2-1-3-5-7-9/h9H,3-5,7H2	InChI=1S/C7H9NO/c8-6-4-2-1-3-5-7-9/h9H,3-5,7H2
