16
gdb 54110	2.92548	1.57538	1.24671	5.9058	64.66	-0.2427	0.0043	0.2469	1000.9313	0.124159	-474.967055	-474.959338	-474.958394	-474.999337	30.059	
N	 0.1881009079	 1.1356689364	 0.053957886	-0.612514
H	 0.2977120229	 0.1408116833	-0.0981856974	 0.245366
H	 1.1137270492	 1.5519263125	 0.0935313809	 0.251348
H	-1.0395048993	 2.6680448282	-0.6309103171	 0.305122
C	-0.5901142089	 1.4427931891	 1.2403930357	 0.169493
C	-1.7658292277	 0.4745803578	 1.6008140089	 0.014284
C	-0.7508382914	-0.5661794543	 2.1438678785	-0.25145
C	-0.3655163507	 0.8374265249	 2.6716100139	 0.01562
O	-1.8024136061	 1.073848794	 2.9404200024	-0.282808
C	-0.9153188504	 2.9454271586	 1.2204877994	 0.396701
O	-1.2395684141	 3.3922094807	-0.0120180593	-0.373637
O	-0.8663190206	 3.6732088184	 2.170057073	-0.31248
H	-2.7122695982	 0.3255722371	 1.0797513436	 0.108741
H	-1.1680430298	-1.2262525866	 2.9040195742	 0.124313
H	-0.078863303	-1.0960166467	 1.4640717154	 0.08917
H	 0.3452777302	 1.1337906468	 3.4411804521	 0.112731
72.9437	162.9263	221.5063	289.6472	338.8717	382.8498	417.16	478.2128	590.184	607.5833	703.9188	726.1843	742.1672	790.2007	807.0764	845.1647	880.2484	911.5016	931.8802	997.0391	1027.5415	1065.862	1122.7444	1126.3478	1167.5511	1172.4424	1204.1663	1207.8285	1259.9708	1273.3318	1323.0604	1383.7848	1495.6373	1653.8691	1877.8211	3066.5914	3117.6727	3141.3113	3152.5035	3508.4322	3601.9491	3652.0204
[NH3+]C1(C2CC1O2)C([O-])=O	N[C@]1([C@H]2C[C@@H]1O2)C(=O)O	
InChI=1S/C5H7NO3/c6-5(4(7)8)2-1-3(5)9-2/h2-3H,1,6H2,(H,7,8)	InChI=1S/C5H7NO3/c6-5(4(7)8)2-1-3(5)9-2/h2-3H,1,6H2,(H,7,8)/t2-,3+,5+
