17
gdb 72753	2.57737	1.77795	1.53982	1.2757	67.48	-0.2408	0.0571	0.2979	929.4093	0.135646	-458.891757	-458.884329	-458.883384	-458.923469	29.298	
O	 0.1380162903	 1.4153021847	 0.1231107433	-0.470597
C	-0.0002242544	 0.0369302779	-0.0052726398	 0.29281
C	 0.2723777053	-0.6956181403	 1.3318609172	-0.130194
O	-1.0699952898	-1.2688551788	 1.3610052441	-0.323764
C	-1.3318657537	-0.7692736294	 0.0729276502	 0.350791
C	-2.6211528441	-0.3473002489	-0.5903791988	-0.179811
O	-2.0318323024	-0.6913505327	-1.8791817116	-0.299031
C	-0.9428592254	-1.4418216867	-1.2722459998	 0.048998
C	 0.4034560409	-0.6828298963	-1.3268015365	-0.335923
H	-0.0876820227	 1.8232348164	-0.7198577092	 0.288725
H	 1.0475487781	-1.4689361943	 1.3191667516	 0.10886
H	 0.429083907	-0.0104265671	 2.169456446	 0.125738
H	-3.487481131	-0.9817546613	-0.3600443827	 0.114451
H	-2.9087929879	 0.7084215433	-0.5281858536	 0.110185
H	-0.989066226	-2.5105676673	-1.4946472817	 0.080637
H	 0.4770529476	-0.0180407908	-2.1928194839	 0.109958
H	 1.3050638283	-1.3002833885	-1.2738095144	 0.108167
97.311	200.2952	238.8691	322.1292	345.7841	388.7712	397.9925	505.3425	517.2269	629.8528	713.67	755.5193	822.9382	892.3647	904.8101	919.7009	968.6371	974.6169	981.3986	1047.4477	1077.558	1099.3703	1109.1061	1125.0693	1153.2312	1161.8494	1224.8319	1249.2301	1273.052	1282.1309	1311.9508	1333.1483	1370.4477	1394.0282	1458.795	1504.2145	1514.0196	3011.3544	3041.278	3049.158	3066.5933	3083.3094	3104.651	3108.5765	3810.0842
OC12COC11COC1C2	O[C@@]12CO[C@]31CO[C@H]3C2	
InChI=1S/C6H8O3/c7-5-1-4-6(5,3-8-4)9-2-5/h4,7H,1-3H2	InChI=1S/C6H8O3/c7-5-1-4-6(5,3-8-4)9-2-5/h4,7H,1-3H2/t4-,5-,6+/m0/s1
