20
gdb 117902	3.45836	0.8795	0.75092	3.328	84.52	-0.2356	-0.0384	0.1972	1547.5289	0.170038	-399.346209	-399.335635	-399.334691	-399.38269	36.694	
C	 0.0581696635	 1.5359856884	 0.0103101554	-0.379821
C	 0.0473499047	 0.0068280792	-0.0542641682	-0.175986
C	-1.3770547117	-0.5589310617	 0.0322216478	-0.156805
N	-1.4321377203	-2.0186106123	 0.0025187002	-0.080356
C	-1.3075700608	-2.722514435	 1.2648771175	-0.36069
C	-1.4376497569	-2.6385128553	-1.2122464103	 0.311394
N	-1.3971379566	-1.9893849834	-2.3220118457	-0.542707
C	-1.5136440813	-4.0933996299	-1.195576442	 0.222774
N	-1.5713235629	-5.2462863012	-1.2724431735	-0.341182
H	 1.0785202494	 1.9253104808	-0.0500470589	 0.119102
H	-0.513109514	 1.9703857522	-0.8170465955	 0.125196
H	-0.3818323812	 1.9006284413	 0.9455584645	 0.113369
H	 0.4956368337	-0.3342157758	-0.992563608	 0.128692
H	 0.6554848479	-0.4038710754	 0.7614970614	 0.095424
H	-1.8590321413	-0.2339038501	 0.9617799583	 0.100117
H	-1.9701690177	-0.1872286637	-0.8073613512	 0.143983
H	-1.3907832733	-3.7989223728	 1.1126404337	 0.169292
H	-0.3413091316	-2.5184480098	 1.7438225815	 0.134369
H	-2.1021918931	-2.4091924139	 1.9519635705	 0.13528
H	-1.4598865766	-2.6209557416	-3.1154531275	 0.238554
58.967	72.3597	88.3812	98.8429	160.8455	180.6975	239.1051	280.0895	303.7615	355.0863	401.0926	420.5978	539.2678	630.6091	717.5537	738.8666	751.5975	786.7879	880.4365	893.6986	980.1646	1042.4543	1092.5022	1120.2372	1137.9381	1158.8325	1238.354	1251.3789	1316.3156	1334.9386	1363.4941	1407.7669	1416.6892	1450.4033	1468.2502	1480.5256	1483.207	1491.609	1501.1954	1508.1523	1526.4118	1663.3266	2341.7849	3014.5073	3031.0725	3031.4678	3037.3947	3065.518	3078.8337	3098.1265	3109.295	3111.628	3146.5456	3538.8701
CCCN(C)C(=N)C#N	CCCN(C)C(=N)C#N	
InChI=1S/C6H11N3/c1-3-4-9(2)6(8)5-7/h8H,3-4H2,1-2H3	InChI=1S/C6H11N3/c1-3-4-9(2)6(8)5-7/h8H,3-4H2,1-2H3
