18
gdb 82231	2.47366	2.052	1.51735	2.5008	69.02	-0.2365	0.0608	0.2972	912.33	0.151046	-439.038585	-439.03181	-439.030865	-439.069424	28.357	
O	 0.0296219363	 1.4009244539	 0.0642833543	-0.44249
C	 0.0515111695	-0.0126227858	-0.0087157703	 0.12272
C	-1.3535396576	-0.6132801341	 0.0348047052	-0.059796
N	-2.2841703811	-0.0550457459	-0.9689705977	-0.351622
C	-1.7599718117	-1.4287827228	-1.1367909216	-0.04428
C	-0.6348874811	-1.6271973618	-2.1490514503	 0.089999
C	-0.0008106917	-0.2895097534	-2.5682489786	-0.257167
C	 0.7960895078	-0.5122198608	-1.2679715427	 0.056941
O	 0.5732552043	-1.9488018478	-1.3871560639	-0.301864
H	-0.7103576455	 1.679409264	-0.491029339	 0.292928
H	 0.6076470809	-0.3654039013	 0.8665940387	 0.091585
H	-1.7552650444	-0.850903776	 1.0151620989	 0.094008
H	-3.2369983777	-0.0858256313	-0.6163084546	 0.237403
H	-2.4463873713	-2.2570245666	-0.9869960007	 0.091346
H	-0.8572286254	-2.3861512863	-2.9020865477	 0.075153
H	 0.6344553169	-0.4086908655	-3.4467757564	 0.10649
H	-0.6429336409	 0.5836733017	-2.6625394873	 0.117986
H	 1.8552675226	-0.24660619	-1.2373370663	 0.080661
147.6568	232.317	343.2591	407.6443	423.6448	435.0325	482.8314	523.2514	630.791	689.3312	753.4031	805.4023	867.8073	892.2119	914.1282	915.6233	927.4042	953.6972	972.8633	1016.0993	1054.3038	1076.0008	1093.2798	1101.8284	1126.1611	1165.2813	1181.3212	1221.2684	1251.1368	1256.4455	1283.2545	1309.4032	1315.5857	1344.2499	1374.4188	1383.6221	1432.2512	1441.3408	1488.5029	3055.0633	3084.4211	3087.5841	3099.2235	3147.2145	3157.5148	3164.1008	3507.5771	3764.6056
OC1C2NC2C2CC1O2	O[C@H]1[C@H]2N[C@H]2[C@H]2C[C@@H]1O2	
InChI=1S/C6H9NO2/c8-6-3-1-2(9-3)4-5(6)7-4/h2-8H,1H2	InChI=1S/C6H9NO2/c8-6-3-1-2(9-3)4-5(6)7-4/h2-8H,1H2/t2-,3+,4+,5+,6-/m1/s1
