13
gdb 130986	4.72688	0.91838	0.80298	3.7124	60.84	-0.2572	-0.0696	0.1876	1310.9112	0.087519	-486.003857	-485.99571	-485.994766	-486.038472	27.58	
O	 0.33935447	 0.9015746036	 1.1954847838	-0.223831
C	 0.4526402971	 1.6794446229	 0.2897913496	 0.170426
C	 1.3197929787	 1.3985116568	-0.9409130934	-0.262042
N	 1.4788676564	 2.5622298566	-1.790337901	-0.377782
C	 2.3514116298	 3.544674801	-1.4576601213	 0.520941
N	 2.9556175329	 3.6773184597	-0.304064302	-0.195978
O	 3.6897788093	 4.8279076041	-0.4680936007	-0.142824
N	 3.4861981441	 5.3207672449	-1.7295285835	 0.058202
N	 2.6840043738	 4.5634291229	-2.3382661521	-0.236351
H	-0.0840096692	 2.6536811349	 0.2610009333	 0.098818
H	 2.283168671	 0.9987874907	-0.6001023768	 0.162931
H	 0.822698131	 0.6134913116	-1.5190363061	 0.151466
H	 1.2666132749	 2.4904327004	-2.7712260498	 0.276024
31.6953	68.9718	102.8029	185.8715	283.2516	338.3057	390.8791	412.0242	620.2088	645.7108	667.4245	774.7639	791.9906	806.7361	930.4961	1018.6245	1062.6986	1067.1956	1122.3602	1136.3282	1259.5373	1307.4182	1337.3548	1402.9543	1442.456	1446.3728	1557.3041	1666.1019	1849.3324	2894.6974	3035.5448	3098.8442	3660.1721
O=CCNC1=NON=N1	O=CCNc1nonn1	
InChI=1S/C3H4N4O2/c8-2-1-4-3-5-7-9-6-3/h2H,1H2,(H,4,6)	InChI=1S/C3H4N4O2/c8-2-1-4-3-5-7-9-6-3/h2H,1H2,(H,4,6)
