15
gdb 47301	3.41173	1.33483	1.03593	3.043	64.02	-0.2429	-0.0124	0.2305	1093.0261	0.114517	-491.111757	-491.104045	-491.103101	-491.144738	28.338	
N	-0.0702878735	 1.3864610121	-0.3791593042	-0.542331
C	 0.0474252795	 0.195649597	 0.0389156385	 0.42288
N	-1.0615647659	-0.6188475182	 0.1454061741	-0.318834
C	-1.2613977303	-1.7764958406	 1.0017127058	-0.324613
C	-0.3023027331	-2.9310113249	 0.7134287593	 0.443194
O	-0.660074686	-4.0369318318	 0.4344311095	-0.301659
O	 1.0270564648	-2.6523138074	 0.8085431648	-0.20956
C	 1.4325127066	-1.3684905481	 1.2472068965	 0.008851
O	 1.2790504787	-0.3696953894	 0.2765049514	-0.234779
H	 0.8464300536	 1.8135888994	-0.4871329038	 0.228445
H	-1.8982259125	-0.0914860193	-0.053649125	 0.268351
H	-1.2232840898	-1.5388847129	 2.0780501524	 0.131789
H	-2.2565793989	-2.1684314973	 0.7954035208	 0.156829
H	 0.9222516606	-1.0969367536	 2.1785748398	 0.121152
H	 2.5044314063	-1.4529458349	 1.4207287601	 0.150284
62.7168	92.6188	157.5898	313.8773	359.3528	392.283	433.8719	508.692	544.7926	589.0791	689.4837	725.0149	748.8979	805.3837	816.1306	860.7195	996.4795	1012.6138	1065.1985	1129.4605	1139.4029	1189.8973	1233.9731	1280.8505	1317.3997	1359.034	1405.3148	1458.6682	1470.438	1502.753	1525.5856	1757.277	1872.4554	2960.7265	3040.8144	3139.6847	3149.3669	3533.6856	3625.6825
N=C1NCC(=O)OCO1	[NH][C]1NCC(=O)OCO1	
InChI=1S/C4H6N2O3/c5-4-6-1-3(7)8-2-9-4/h1-2H2,(H2,5,6)	InChI=1S/C4H6N2O3/c5-4-6-1-3(7)8-2-9-4/h1-2H2,(H2,5,6)
