15
gdb 5909	4.01498	1.29731	1.23789	0.6923	65.42	-0.2805	-0.0055	0.275	999.079	0.117983	-358.866376	-358.85767	-358.856725	-358.89938	31.139	
C	 0.0526811149	 1.5678127578	-0.0034332876	-0.400308
C	 0.0283950562	 0.0285695948	 0.0354849171	 0.05762
N	 0.7953972621	-0.4242174754	 1.1927971483	-0.51522
C	-1.4534544537	-0.5004777307	 0.0018391514	-0.354868
C	-2.1749099391	-0.108951043	 1.2078416678	 0.261873
N	-2.7063025015	 0.2127284621	 2.1824849638	-0.302673
C	 0.6810654739	-0.5014497541	-1.1790810153	 0.302939
N	 1.1561089191	-0.9292568241	-2.1409372767	-0.326389
H	 1.0858697963	 1.9176747279	 0.0066358217	 0.157163
H	-0.4464787246	 1.9468559691	-0.8981705907	 0.139157
H	-0.4625878386	 1.9627954768	 0.8770457483	 0.148045
H	 0.3732316165	-0.0617085015	 2.0432760318	 0.253668
H	 0.7991556547	-1.4376677776	 1.2585501222	 0.244842
H	-1.9779783633	-0.1192798791	-0.8806305124	 0.168971
H	-1.4474900729	-1.5929294331	-0.0712082898	 0.165179
81.9851	123.7966	188.0242	192.0985	247.5774	294.2408	344.795	374.1622	399.8693	404.8	519.362	578.7396	588.7544	752.5305	833.9293	878.3312	919.7367	963.5423	988.594	1057.3295	1154.092	1162.5312	1270.3267	1301.4647	1366.1588	1412.726	1460.6211	1488.5929	1497.4375	1657.5628	2359.8694	2364.444	3052.7374	3055.412	3097.55	3130.3638	3152.0101	3492.7597	3579.5455
CC(N)(CC#N)C#N	C[C@@](N)(CC#N)C#N	
InChI=1S/C5H7N3/c1-5(8,4-7)2-3-6/h2,8H2,1H3	InChI=1S/C5H7N3/c1-5(8,4-7)2-3-6/h2,8H2,1H3/t5-/m1/s1
