17
gdb 67600	2.77805	1.90313	1.8062	2.4075	68.9	-0.2154	0.074	0.2894	855.791	0.13841	-421.803242	-421.796901	-421.795957	-421.833486	27.165	
O	 0.1056349851	 1.3712877569	 0.1231678201	-0.477687
C	 0.0460183955	-0.0097897269	 0.0315211067	 0.365808
C	 1.0296872875	-0.8918630559	-0.7414070074	-0.19556
C	 0.2788982671	-2.0386180211	-1.403640006	-0.232242
C	-1.0543619116	-2.0814242821	-0.6624074126	-0.117625
C	-0.9577557393	-2.0207148229	 0.8407677665	 0.094628
O	 0.3299494441	-1.9584318316	 1.4084673266	-0.249669
C	 1.0007202871	-0.895962295	 0.778325836	 0.040322
C	-1.2750482065	-0.7606350835	 0.0719413977	-0.20184
H	-0.1259751652	 1.7395811692	-0.7366566	 0.284902
H	 1.8994898993	-0.4519894355	-1.2176260742	 0.088186
H	 0.1276567954	-1.8443075494	-2.4720493433	 0.098815
H	 0.8197100217	-2.9879796724	-1.3120522507	 0.112379
H	-1.8894739015	-2.6206568741	-1.0963779248	 0.085945
H	-1.6644335049	-2.5446485134	 1.4726238374	 0.102005
H	 1.8415776865	-0.5184690061	 1.346881629	 0.109615
H	-2.2117807804	-0.2231387962	 0.130729129	 0.092016
240.4858	270.6128	318.085	357.6594	501.252	527.2312	564.7277	660.0751	715.2901	735.3064	748.4505	774.7647	811.5462	862.4609	891.5393	920.9682	954.6162	972.1836	1005.246	1026.3364	1053.5426	1056.8155	1079.5017	1088.5067	1112.612	1143.5063	1197.5658	1206.9876	1220.9143	1273.3753	1287.8616	1302.369	1336.9391	1360.7347	1403.2536	1464.0636	1493.8044	3026.9564	3062.5726	3167.6843	3170.4507	3189.7701	3197.1462	3208.5434	3790.7515
OC12C3CC4C(OC13)C24	O[C@@]12[C@@H]3C[C@H]4[C@@H](O[C@H]13)[C@@H]24	
InChI=1S/C7H8O2/c8-7-3-1-2-4(7)5(2)9-6(3)7/h2-6,8H,1H2	InChI=1S/C7H8O2/c8-7-3-1-2-4(7)5(2)9-6(3)7/h2-6,8H,1H2/t2-,3-,4+,5-,6+,7-/m1/s1
