19
gdb 90947	2.92577	1.79346	1.62853	1.2299	73.09	-0.2177	0.0782	0.2959	925.9324	0.161704	-423.01911	-423.012123	-423.011178	-423.05026	28.791	
C	-0.3021446946	 1.5396622056	 0.0638214515	-0.402537
C	 0.0674073987	 0.0639000557	-0.0250210034	 0.156788
O	 0.8370579566	-0.1648813819	-1.2207149315	-0.293718
C	 2.1474761447	-0.6167097772	-1.0174435697	 0.086773
C	 2.4383096688	-1.7042698023	 0.0007582255	-0.157476
C	 1.2876097107	-1.8988663119	 0.9753894318	-0.235955
C	 0.8582139806	-0.4331980196	 1.1929749507	 0.020942
O	 2.0884507145	 0.3013350282	 1.2559203051	-0.259348
C	 2.8877128859	-0.2697968625	 0.2436689838	 0.048716
H	 0.5898080504	 2.1427115837	 0.2488516786	 0.135542
H	-0.7636076846	 1.8658988413	-0.8717340172	 0.121852
H	-1.0151167179	 1.7085513681	 0.8785430766	 0.106196
H	-0.8487475745	-0.5383248385	-0.1176023856	 0.074401
H	 2.6876547533	-0.6290098567	-1.9577027806	 0.103875
H	 3.1256618753	-2.5128071592	-0.2170161713	 0.088567
H	 0.4692312684	-2.5032842892	 0.5737613326	 0.110375
H	 1.6367185013	-2.3534531796	 1.9074334645	 0.107183
H	 0.3084061635	-0.2507727687	 2.1184766303	 0.085724
H	 3.913767689	 0.0760479046	 0.2692737583	 0.1021
107.7545	230.5676	261.8058	328.954	402.0067	447.2639	528.8908	612.1676	671.2228	711.8198	750.3151	775.2515	785.9974	842.8834	887.0169	935.0299	946.4011	975.3148	1003.4512	1022.7426	1042.6887	1058.22	1078.7908	1108.5527	1119.5167	1129.982	1138.0366	1179.135	1220.0273	1249.7131	1295.4173	1311.4042	1329.9863	1344.4359	1378.5482	1390.9839	1403.1758	1429.3529	1485.2087	1489.6821	1498.4872	2989.222	3040.053	3052.4701	3097.5428	3101.0448	3112.2933	3135.7555	3170.8627	3179.95	3192.56
CC1OC2C3CC1OC23	C[C@H]1O[C@@H]2[C@@H]3C[C@H]1O[C@H]23	
InChI=1S/C7H10O2/c1-3-5-2-4-6(8-3)7(4)9-5/h3-7H,2H2,1H3	InChI=1S/C7H10O2/c1-3-5-2-4-6(8-3)7(4)9-5/h3-7H,2H2,1H3/t3-,4+,5-,6-,7+/m1/s1
