22
gdb 120069	5.52334	0.84215	0.83478	0.9862	87.61	-0.2095	0.0876	0.2971	1508.5869	0.194251	-367.114907	-367.106449	-367.105505	-367.148462	32.826	
C	 0.0496315375	 1.6152536079	-0.204133974	-0.379839
C	-0.0020916329	 0.0922929718	-0.0602399555	-0.166188
C	 0.7373607983	-0.4115654392	 1.1806505606	-0.127663
N	 0.7218427985	-1.87228831	 1.2470522228	-0.122651
C	-0.4943247959	-2.50279614	 1.8535631042	-0.005751
C	 0.3208901138	-3.7461171741	 2.321290365	-0.053051
C	-0.2497124246	-3.6822954904	 3.7509481746	-0.276529
C	-0.1145645543	-2.199044221	 3.3534343774	-0.070026
C	 1.199585901	-2.4751982397	 2.5276380171	-0.002805
H	 1.0828799371	 1.9710282433	-0.2864354093	 0.113701
H	-0.487897432	 1.9489274714	-1.0969706922	 0.112
H	-0.4020726052	 2.1139082798	 0.6608516097	 0.1124
H	-1.0485753407	-0.2365781906	-0.0150855518	 0.092561
H	 0.4331055661	-0.3898587661	-0.9428154162	 0.106054
H	 1.7889216774	-0.0980786845	 1.1289334668	 0.092162
H	 0.3108785023	 0.0659748071	 2.0822650632	 0.072952
H	-1.4816347403	-2.4860192354	 1.3885609087	 0.078807
H	 0.5811565672	-4.6026732356	 1.7003145755	 0.079639
H	-1.2663327719	-4.0619817364	 3.8911542977	 0.095083
H	 0.4024436518	-4.0354723791	 4.5555034446	 0.095209
H	-0.3628661389	-1.316215004	 3.9418920596	 0.07739
H	 2.2365264057	-2.4189324854	 2.8657306915	 0.076545
71.3055	83.7095	128.2831	235.5437	270.0007	311.7347	346.1831	448.7368	582.9421	729.9079	747.092	764.1175	815.654	829.073	847.2652	878.4972	890.0428	907.0509	926.7942	938.0228	963.3238	1020.8024	1034.3442	1047.5227	1070.9458	1095.5733	1130.8048	1136.5054	1152.9382	1154.8113	1169.7505	1177.8107	1188.158	1199.0222	1249.8984	1274.4967	1293.8253	1317.4698	1325.7524	1333.2228	1405.257	1411.4538	1486.9911	1497.29	1499.5526	1512.4579	1515.2341	2931.5346	3018.6757	3027.6018	3031.3556	3043.7664	3065.3954	3091.1301	3095.2412	3097.0794	3098.4929	3102.3286	3118.4355	3128.1995
CCCN1C2C3CC2C13	CCCN1[C@H]2[C@@H]3C[C@H]2[C@H]13	
InChI=1S/C8H13N/c1-2-3-9-7-5-4-6(7)8(5)9/h5-8H,2-4H2,1H3	InChI=1S/C8H13N/c1-2-3-9-7-5-4-6(7)8(5)9/h5-8H,2-4H2,1H3/t5-,6+,7-,8+
