20
gdb 33147	4.61779	0.77973	0.71271	1.8399	83.35	-0.1976	0.0474	0.245	1623.2211	0.170887	-403.180369	-403.17067	-403.169725	-403.215883	34.782	
C	-0.0185448868	 1.5136530616	 0.0027715944	-0.49728
C	 0.0118594714	 0.0145885824	 0.0125314331	 0.266643
C	-0.0230389607	-0.8133542411	-1.0873628016	-0.195015
N	-0.0005297292	-2.1232174843	-0.6635567701	 0.02497
C	 0.0707666096	-3.2852159939	-1.5237223738	-0.169419
C	 1.5087422461	-3.6594518506	-1.890716489	-0.067412
O	 1.4320832632	-4.7955272457	-2.7331830225	-0.414904
C	 0.0593536303	-2.1378439926	 0.7085950867	-0.089474
C	 0.0656726545	-0.8380850171	 1.1557171857	-0.265822
H	 0.863445453	 1.9419040076	 0.4937979261	 0.120997
H	-0.0458338598	 1.9016596405	-1.0199618441	 0.114928
H	-0.8971877018	 1.9078063847	 0.5273545609	 0.122117
H	-0.0712524812	-0.5792711831	-2.1401115317	 0.109008
H	-0.4043803786	-4.1332863783	-1.0220900999	 0.125731
H	-0.4940671458	-3.0904598652	-2.440227692	 0.126365
H	 1.9893224062	-2.8056332825	-2.3921267118	 0.09825
H	 2.0763214354	-3.8662062056	-0.970581125	 0.098013
H	 2.3251069437	-5.0544828924	-2.9768079489	 0.292586
H	 0.0847541907	-3.0741856807	 1.2443363483	 0.111977
H	 0.0879939299	-0.5253153938	 2.1892986554	 0.08774
55.0367	83.2519	87.8172	101.1775	235.751	246.7954	263.3368	317.204	372.3407	399.1067	617.3982	636.0201	646.7669	681.3094	760.839	765.7063	803.7156	806.665	979.9083	1006.1644	1012.7141	1021.0199	1062.7695	1086.3651	1087.5182	1114.0365	1192.4183	1212.083	1244.7326	1272.6571	1304.3346	1363.3482	1373.3169	1408.19	1422.466	1430.4549	1460.8415	1483.6596	1488.358	1499.7528	1528.0377	1540.677	1609.7922	2980.4145	3013.407	3021.4434	3058.2215	3068.1986	3100.4278	3107.6182	3234.5291	3244.8048	3258.2396	3837.5346
CC1=CN(CCO)C=C1	Cc1cn(CCO)cc1	
InChI=1S/C7H11NO/c1-7-2-3-8(6-7)4-5-9/h2-3,6,9H,4-5H2,1H3	InChI=1S/C7H11NO/c1-7-2-3-8(6-7)4-5-9/h2-3,6,9H,4-5H2,1H3
