18
gdb 7188	4.53855	0.90188	0.79291	3.7885	67.14	-0.2705	0.008	0.2786	1422.6642	0.150631	-422.090822	-422.081125	-422.080181	-422.126687	32.392	
C	 0.9478341827	 1.3950989882	-0.1296298451	-0.228988
O	 1.0303164033	-0.0094813076	-0.0415392854	-0.234666
C	-0.075410146	-0.6631991387	-0.6156820848	-0.057684
C	 0.1191563004	-2.1670571962	-0.4251620117	 0.082152
C	 0.1521131262	-2.5878778581	 1.0359854698	-0.38897
O	-0.9904632044	-2.8126686711	-1.0772883508	-0.187822
C	-0.7406024255	-3.6410256962	-2.107496634	 0.167432
O	-1.6034270078	-4.2104666102	-2.704873235	-0.27609
H	 0.9042445264	 1.7346468018	-1.1759242057	 0.110292
H	 0.0618196524	 1.7835096776	 0.3957041104	 0.110851
H	 1.8459734694	 1.8040074009	 0.3385697461	 0.13207
H	-1.0192536458	-0.3495973574	-0.1393652391	 0.101959
H	-0.1577457623	-0.4369300002	-1.6915482445	 0.09536
H	 1.0532565244	-2.4599475133	-0.9229623702	 0.097536
H	 0.9395323818	-2.0375637897	 1.5556708578	 0.143332
H	-0.8064925353	-2.3667436315	 1.5150669816	 0.131623
H	 0.3448186799	-3.6601238332	 1.1279349654	 0.123588
H	 0.3408270501	-3.7326629151	-2.3313423847	 0.078025
31.7511	85.4903	89.5918	141.5135	186.1839	217.9524	228.9521	298.269	331.5501	368.2819	435.5328	524.9564	664.9172	890.93	938.5597	965.5198	996.8713	1046.339	1099.7247	1149.2404	1159.2901	1175.523	1188.4081	1209.6866	1234.3744	1264.5195	1344.0715	1375.6827	1404.9088	1419.1704	1440.8142	1481.7454	1486.0409	1488.6517	1496.5344	1505.0368	1528.0378	1865.4914	2941.8881	2961.4756	2979.5025	2994.6596	3024.5319	3026.5388	3048.8456	3120.459	3121.6518	3139.6868
COCC(C)OC=O	COC[C@@H](C)OC=O	
InChI=1S/C5H10O3/c1-5(3-7-2)8-4-6/h4-5H,3H2,1-2H3	InChI=1S/C5H10O3/c1-5(3-7-2)8-4-6/h4-5H,3H2,1-2H3/t5-/m1/s1
