17
gdb 73036	2.99591	1.18878	1.01975	3.1007	68.59	-0.2379	0.0639	0.3018	1188.7737	0.134503	-458.875014	-458.866825	-458.865881	-458.908263	30.656	
O	 0.2602234148	 1.3410630371	 0.341131674	-0.448068
C	 0.0368980236	-0.0032761432	 0.13598193	 0.284628
C	-0.8163503571	-0.5733802836	-0.997084105	-0.151128
O	-1.3530660876	-1.5923613365	-0.1070651471	-0.283244
C	-0.6689066356	-1.0095440026	 1.0071076778	 0.018681
C	 0.8289783736	-1.1068858812	 0.8234597452	-0.143318
C	 1.4948544372	-2.255180082	 0.1440499395	 0.069789
C	 2.9567082462	-2.3524826685	 0.0299282928	-0.189141
O	 2.2483097188	-3.1321683967	 0.9927574994	-0.236313
H	 1.1486431906	 1.5558786302	 0.0364828055	 0.292157
H	-1.6043843064	 0.1227667032	-1.304319805	 0.121417
H	-0.3214067071	-0.9981207295	-1.8775855667	 0.105775
H	-1.1851185798	-0.9526343435	 1.9575537524	 0.118721
H	 1.3721030526	-0.7191039941	 1.6831734989	 0.106326
H	 0.8836995164	-2.77431072	-0.5919598032	 0.112687
H	 3.4031833293	-2.9106389065	-0.7924537973	 0.114868
H	 3.5817814805	-1.5591581128	 0.4402322588	 0.106163
59.9349	134.5128	166.898	243.9785	285.8164	316.3011	375.4248	392.8429	487.4785	594.3131	643.0507	778.7666	833.322	854.9974	885.9619	923.3715	937.9961	979.3738	989.7308	1020.5063	1058.6959	1080.9971	1100.6684	1141.6831	1151.8078	1158.1911	1179.346	1214.7651	1246.7168	1274.0958	1294.6706	1316.1683	1327.6162	1427.4815	1495.8502	1515.3809	1532.6858	3030.3958	3074.5605	3085.6498	3131.5064	3144.3625	3160.2627	3195.3024	3796.3642
OC12COC1C2C1CO1	O[C@]12CO[C@H]1[C@H]2[C@H]1CO1	
InChI=1S/C6H8O3/c7-6-2-9-5(6)4(6)3-1-8-3/h3-5,7H,1-2H2	InChI=1S/C6H8O3/c7-6-2-9-5(6)4(6)3-1-8-3/h3-5,7H,1-2H2/t3-,4-,5+,6+/m1/s1
