17
gdb 8276	5.91545	0.98256	0.90514	4.8073	68.96	-0.2694	0.033	0.3024	1239.1982	0.142159	-363.866922	-363.858764	-363.85782	-363.900043	29.731	
O	-0.1915581289	 1.4719636385	-0.0327665477	-0.427433
C	-0.0114967785	 0.0779976947	 0.0042990136	 0.147167
C	 0.3057410664	-0.6039620643	 1.3674095737	-0.295203
C	-0.7316012524	-1.69856759	 0.9953964575	 0.036391
C	-1.6385440672	-2.2273547016	 2.1119172022	-0.358979
C	-2.6558930418	-3.1535294418	 1.6153374477	 0.261
N	-3.4497589501	-3.8838936901	 1.2006803779	-0.307903
C	-1.3287988745	-0.7211143553	-0.0541763188	-0.246023
H	 0.6737148868	 1.8932930603	-0.0439387596	 0.284434
H	 0.6900431215	-0.2568136924	-0.7728138654	 0.07241
H	 1.3323575036	-0.9143673554	 1.576580519	 0.099739
H	-0.0571026514	 0.0280599817	 2.1846090442	 0.108015
H	-0.2432971246	-2.5430454532	 0.5006633108	 0.094371
H	-1.0429943701	-2.7427200665	 2.8752163821	 0.150845
H	-2.1423797335	-1.3926846598	 2.6136841555	 0.14868
H	-2.1359098204	-0.1199633146	 0.3765285554	 0.117252
H	-1.6540075749	-1.1219564604	-1.0152677582	 0.115237
61.1733	90.4501	144.8701	266.5351	296.0631	377.6695	393.7782	398.3947	445.8532	498.7328	632.5286	792.3657	810.4229	875.1324	927.8743	938.8181	955.524	1027.3234	1047.9751	1073.8442	1110.9427	1151.0746	1187.0518	1220.9004	1251.8748	1253.6735	1268.692	1287.722	1314.7463	1335.4135	1382.0126	1435.9124	1464.3067	1470.5645	1501.2711	2360.689	2999.8082	3035.1288	3050.726	3059.7264	3064.3912	3079.4331	3112.6523	3128.685	3817.7178
OC1CC(CC#N)C1	O[C@H]1C[C@@H](CC#N)C1	
InChI=1S/C6H9NO/c7-2-1-5-3-6(8)4-5/h5-6,8H,1,3-4H2	InChI=1S/C6H9NO/c7-2-1-5-3-6(8)4-5/h5-6,8H,1,3-4H2/t5-,6+
