23
gdb 71391	3.06201	1.34847	1.28277	0.294	89.54	-0.2382	0.0926	0.3308	1158.8477	0.205057	-351.119725	-351.110829	-351.109885	-351.15227	36.097	
C	-0.0483441415	 1.4727633803	 0.0619068983	-0.504201
C	-0.0137725735	-0.0235429682	-0.0382445999	 0.330004
C	-0.6644878011	-0.8937645492	-1.1172920999	-0.302352
C	-0.4039683994	-2.090495241	-0.167386668	-0.092928
C	-0.3305491022	-1.0515884745	 1.0254026704	-0.128685
C	 1.107984332	-0.8624351758	 0.6079795623	-0.132212
C	 1.1562293288	-2.2369222439	-0.0733739308	 0.335243
C	 1.5279832989	-3.3429130151	 0.9194786659	-0.436861
C	 1.9710715342	-2.388204635	-1.357947639	-0.460272
H	 0.5510258328	 1.9405890861	-0.7284283307	 0.117613
H	-1.072180379	 1.8539423345	-0.0287680247	 0.115385
H	 0.3492350635	 1.8159794342	 1.0233367109	 0.116135
H	-1.7348464295	-0.6721472595	-1.1852182642	 0.090755
H	-0.2420030559	-0.9223012019	-2.1279076612	 0.083772
H	-1.0282842186	-2.9827056718	-0.2059529031	 0.059278
H	-0.8263541661	-0.9722882096	 1.9822880751	 0.082329
H	 1.8980691021	-0.3758315428	 1.1698739029	 0.070024
H	 0.9366932785	-3.2719192972	 1.8375308831	 0.113376
H	 1.3556791937	-4.3325129332	 0.4800634409	 0.106082
H	 2.5870204722	-3.2862024492	 1.1966644867	 0.1061
H	 3.043195373	-2.4001978032	-1.1287589325	 0.108742
H	 1.7362448526	-3.3312261381	-1.8662760933	 0.108436
H	 1.7978810045	-1.5714557259	-2.0619034192	 0.114236
153.92	182.3708	204.4296	226.1782	257.5766	281.5709	314.6582	355.4552	385.3237	469.5447	517.8227	585.3175	642.1024	758.9915	775.3661	824.2474	857.8689	874.0032	892.1271	918.6289	944.7258	948.9948	970.1895	1003.4435	1018.9179	1028.7074	1039.3446	1078.8023	1129.7743	1145.8548	1158.7263	1184.2515	1203.0806	1212.386	1241.4031	1255.6759	1297.227	1319.7734	1398.1457	1401.8399	1416.563	1428.7732	1481.1104	1484.3902	1487.5707	1498.7946	1501.6052	1503.5318	1520.5497	3018.6267	3020.4135	3025.8523	3032.9667	3076.8619	3078.4619	3079.2011	3084.1876	3089.5983	3101.7012	3116.9853	3119.8691	3168.5116	3214.9023
CC12CC3C1C2C3(C)C	C[C@]12C[C@@H]3[C@H]1[C@H]2C3(C)C	
InChI=1S/C9H14/c1-8(2)5-4-9(3)6(5)7(8)9/h5-7H,4H2,1-3H3	InChI=1S/C9H14/c1-8(2)5-4-9(3)6(5)7(8)9/h5-7H,4H2,1-3H3/t5-,6+,7+,9+/m1/s1
