16
gdb 47711	2.31498	1.66948	1.00546	5.6281	67.36	-0.2527	0.0132	0.2659	1116.3588	0.1282	-471.289932	-471.281905	-471.28096	-471.32363	29.419	
O	-0.0068446312	-0.0306890344	-0.5095607165	-0.395396
C	-0.0719160193	 1.1131529011	-0.1004995176	 0.452186
N	-1.263286001	 1.6800280592	 0.2622717701	-0.341151
C	-1.5648199414	 3.0797233848	 0.4854327339	-0.160614
C	-0.6601330419	 3.7051556021	 1.5424175887	-0.160527
N	 0.6706435451	 3.9756191045	 1.0366923449	-0.341169
C	 1.5594718327	 3.1037154414	 0.4691649138	 0.452213
O	 2.7327824525	 3.3909590084	 0.3249922177	-0.395413
N	 1.1104205601	 1.8549852609	 0.0199612824	-0.401294
H	-2.0316833713	 1.0631478509	 0.0509425932	 0.260063
H	-1.500531089	 3.6742091679	-0.4370802173	 0.124797
H	-2.598656057	 3.1263193176	 0.8383051668	 0.123312
H	-1.0847376424	 4.6675354004	 1.8408429915	 0.123297
H	-0.6470156387	 3.057073822	 2.4303352388	 0.124775
H	 1.1445773773	 4.7959910259	 1.3802260924	 0.260061
H	 1.8906047956	 1.3154331473	-0.3288811929	 0.274859
37.9349	95.7597	132.3615	281.3804	349.7492	376.4652	442.6671	517.907	524.4518	554.581	629.4633	679.6258	684.0007	767.4803	768.9965	830.4212	930.6919	952.8364	1026.0795	1091.1352	1161.8774	1173.4098	1272.8743	1303.1226	1323.8874	1398.2425	1424.7846	1433.2326	1448.8185	1465.4262	1486.285	1506.9184	1510.8227	1793.357	1802.1584	3000.5936	3012.2962	3089.4653	3095.3049	3616.0683	3640.0567	3640.42
O=C1NCCNC(=O)N1	O=C1NCCNC(=O)N1	
InChI=1S/C4H7N3O2/c8-3-5-1-2-6-4(9)7-3/h1-2H2,(H3,5,6,7,8,9)	InChI=1S/C4H7N3O2/c8-3-5-1-2-6-4(9)7-3/h1-2H2,(H3,5,6,7,8,9)
