25
gdb 112560	2.32411	1.18103	1.00289	1.5875	88.86	-0.2366	0.0768	0.3134	1395.7854	0.22659	-389.499426	-389.488583	-389.487639	-389.534978	40.758	
C	 0.3994542064	 1.4708543578	 0.2277400544	-0.381859
C	 0.1691416863	-0.0401908049	 0.1225201768	-0.189084
C	 0.4814416278	-0.5606910973	-1.2737115368	 0.154907
O	 1.8731826493	-0.377082512	-1.626034451	-0.347201
C	 2.0782283512	-1.8032511323	-1.8477735476	 0.430886
C	 2.4842025528	-2.0624136724	-3.2942466303	-0.427519
C	 3.1188143413	-2.3451336842	-0.8739545942	-0.427463
C	 0.5746276142	-2.0890359642	-1.532148101	-0.117097
C	 0.1894560888	-3.0754894591	-0.4372593125	-0.41726
H	 1.4319792111	 1.7148275548	-0.0372747055	 0.13685
H	-0.2605430634	 2.0206656889	-0.4526041027	 0.110993
H	 0.2099902056	 1.8321763863	 1.2429204646	 0.107549
H	 0.7957298979	-0.5576586157	 0.8578752106	 0.09478
H	-0.8742103736	-0.282997357	 0.3645785206	 0.091038
H	-0.1639359009	-0.0391524515	-1.9966293076	 0.063745
H	 3.4616301936	-1.6155917421	-3.5040341889	 0.119274
H	 2.5498310276	-3.1378194052	-3.4948039824	 0.110229
H	 1.7555712131	-1.6256259383	-3.9831472809	 0.115213
H	 2.8513030942	-2.1285522263	 0.162798202	 0.116006
H	 3.2391719876	-3.4283938536	-0.9833753111	 0.111213
H	 4.0866674373	-1.8741313298	-1.07438067	 0.121238
H	 0.0407472389	-2.3614554528	-2.4476256245	 0.071448
H	 0.6761952264	-2.8626132004	 0.5173863167	 0.119737
H	-0.8924444017	-3.0596768361	-0.2674550429	 0.117108
H	 0.4581192781	-4.0974585427	-0.7258971157	 0.11527
49.5695	104.247	161.6311	193.1168	203.1708	227.0642	235.7283	259.7213	275.6295	333.4903	350.7955	396.985	429.4116	498.6851	527.4388	663.2096	751.9992	774.7101	843.8507	872.5754	926.4427	943.7007	970.6415	978.6392	993.5342	1032.8443	1047.6733	1058.0782	1107.802	1143.5304	1172.7054	1187.6553	1221.2626	1264.467	1283.3703	1291.5325	1317.9639	1351.3063	1383.4589	1399.6885	1404.649	1410.6633	1414.9925	1421.7485	1470.259	1476.102	1481.5542	1491.4607	1497.1137	1498.781	1505.3069	1509.5229	1512.6318	2979.6129	3022.2226	3028.6302	3035.1868	3035.5703	3038.6605	3053.6282	3067.8318	3092.9924	3097.6861	3101.8167	3105.6002	3111.2689	3119.2155	3119.5386	3127.8914
CCC1OC(C)(C)C1C	CC[C@H]1OC(C)(C)[C@H]1C	
InChI=1S/C8H16O/c1-5-7-6(2)8(3,4)9-7/h6-7H,5H2,1-4H3	InChI=1S/C8H16O/c1-5-7-6(2)8(3,4)9-7/h6-7H,5H2,1-4H3/t6-,7+/m0/s1
