25
gdb 99766	1.71515	1.28981	1.02232	0.3634	85.39	-0.252	0.067	0.3189	1398.6319	0.22588	-426.628648	-426.61688	-426.615936	-426.665465	43.391	
C	-0.1609518042	 1.6348511389	-0.2938765777	-0.398153
C	-0.1635510823	 0.1021837228	-0.3198964082	-0.178776
C	-1.5056016596	-0.5657678546	 0.0551676414	 0.022797
C	-2.6396395498	-0.2033785074	-0.9290053764	 0.130172
C	-2.5412375066	-0.798423474	-2.3356282874	-0.399051
O	-3.8713411194	-0.5718578201	-0.2986337352	-0.444412
C	-1.2686022087	-2.0676290393	 0.3300745578	 0.122919
C	-2.4696289184	-2.8622425882	 0.8447417757	-0.403985
O	-0.7339512686	-2.6558023032	-0.8602140827	-0.435488
H	 0.8533372225	 2.0188043549	-0.4436085159	 0.110101
H	-0.7883208731	 2.0697325651	-1.0778454047	 0.11807
H	-0.5210455493	 2.0175145876	 0.6681277558	 0.112511
H	 0.1639766949	-0.2588142733	-1.3000765943	 0.115163
H	 0.5915798221	-0.2566316514	 0.3904483785	 0.09118
H	-1.8274358332	-0.1432049312	 1.0175220189	 0.077768
H	-2.621630667	 0.8928728203	-1.0292958993	 0.063032
H	-2.5470808122	-1.8879341554	-2.3088122426	 0.136509
H	-3.383440473	-0.4459581106	-2.9447376449	 0.088621
H	-1.6220015025	-0.4807209263	-2.8366611881	 0.118602
H	-4.5840504883	-0.365386015	-0.9114543162	 0.276406
H	-0.4936437165	-2.0976223728	 1.11646744	 0.058677
H	-3.2702166065	-2.9023100783	 0.1067548469	 0.133895
H	-2.1553250299	-3.8846327108	 1.0918364529	 0.08668
H	-2.8761754384	-2.4102275683	 1.7542440651	 0.117595
H	-0.5954250024	-3.5919172997	-0.6862375596	 0.279167
40.3422	75.3529	116.1163	188.5946	215.7483	224.4463	250.0239	266.6193	276.9306	287.1575	293.8092	317.2339	336.3682	395.3875	447.7653	477.1357	519.1141	701.2111	717.7919	803.7533	860.3747	900.4811	944.6645	962.8355	1031.6752	1034.1636	1050.6402	1063.1491	1075.8173	1111.9887	1157.9403	1164.0244	1180.6618	1245.5925	1269.5103	1279.2811	1320.6146	1358.9229	1382.1634	1389.5983	1398.7687	1404.8645	1411.6652	1417.578	1423.1356	1439.593	1482.8462	1488.727	1490.3272	1495.8984	1501.2172	1503.4143	1512.9079	2931.7741	2971.3086	3010.9957	3023.343	3026.0559	3030.4267	3031.6825	3075.5275	3096.0492	3097.5218	3098.7309	3105.4572	3153.5624	3156.1143	3815.5911	3819.6603
CCC(C(C)O)C(C)O	CC[C@@H]([C@@H](C)O)[C@@H](C)O	
InChI=1S/C7H16O2/c1-4-7(5(2)8)6(3)9/h5-9H,4H2,1-3H3	InChI=1S/C7H16O2/c1-4-7(5(2)8)6(3)9/h5-9H,4H2,1-3H3/t5-,6-/m1/s1
