25
gdb 88151	2.22516	1.40152	1.07174	0.1551	92.44	-0.2517	0.0856	0.3373	1296.0665	0.229927	-352.369769	-352.36028	-352.359336	-352.403981	37.403	
C	-0.0193442124	 1.6205444621	 0.0866049877	-0.411934
C	-0.0413161671	 0.1077787352	 0.1138602942	-0.038315
C	 1.1818376087	-0.6912676988	-0.2623043252	-0.345671
C	 0.7045042561	-0.6824814021	 1.1705564352	 0.362527
C	 1.5065534413	 0.044950075	 2.2651236094	-0.281161
C	 1.6069852828	-0.9666137441	 3.4228666848	-0.216656
C	 0.2964724669	-1.7560822766	 3.3138368533	-0.2064
C	 0.1295562522	-1.9772902564	 1.7976439797	-0.022511
C	-1.2890835321	-2.3672498778	 1.3855379395	-0.415286
H	 0.9604319232	 2.0162252601	 0.3707951356	 0.115705
H	-0.2460439067	 1.9948560865	-0.9179655505	 0.113493
H	-0.7598941129	 2.0477910773	 0.7730523638	 0.112486
H	-0.9872180742	-0.3173639495	-0.2108481871	 0.076751
H	 1.0458271928	-1.6006702722	-0.8414139786	 0.099343
H	 2.0920632193	-0.1470484458	-0.4998415668	 0.099337
H	 2.487222757	 0.3852097402	 1.9191049189	 0.092055
H	 0.9641549071	 0.9356391801	 2.6058522808	 0.097443
H	 2.4577040993	-1.6408233419	 3.2646228718	 0.096279
H	 1.7488029052	-0.4866479761	 4.3954037649	 0.089856
H	 0.3010683276	-2.6939114619	 3.8780144935	 0.088504
H	-0.5378960214	-1.1502272878	 3.6932785677	 0.090918
H	 0.7997997867	-2.8017214586	 1.5130093036	 0.069096
H	-2.0103017044	-1.5865602269	 1.6510653058	 0.113776
H	-1.3705467711	-2.5470594396	 0.3079777925	 0.11238
H	-1.5941591742	-3.2895989604	 1.8915076753	 0.107986
39.8772	159.3914	182.2024	211.885	225.1092	271.0875	275.6854	359.7058	419.5812	437.4837	493.0142	503.4936	558.4315	665.5849	780.2492	848.8287	857.8967	866.9325	899.8668	914.2084	923.0173	962.8216	985.7315	1003.9501	1010.7775	1040.3002	1060.6557	1098.9002	1120.6851	1130.0183	1146.7755	1186.5253	1191.2297	1212.1586	1229.5722	1263.0039	1291.0569	1319.5714	1334.3406	1339.4451	1350.1176	1378.0004	1406.3586	1412.0515	1424.7225	1486.0558	1487.944	1490.4313	1493.7484	1499.0614	1500.7319	1506.2323	1508.7615	2986.138	3016.521	3022.2321	3026.0327	3026.6921	3032.4138	3073.9669	3079.0488	3082.07	3090.0527	3090.7178	3096.8622	3100.1637	3106.918	3140.9162	3190.1662
CC1CC11CCCC1C	C[C@H]1C[C@]21CCC[C@H]2C	
InChI=1S/C9H16/c1-7-4-3-5-9(7)6-8(9)2/h7-8H,3-6H2,1-2H3	InChI=1S/C9H16/c1-7-4-3-5-9(7)6-8(9)2/h7-8H,3-6H2,1-2H3/t7-,8+,9-/m1/s1
