20
gdb 62796	2.23666	1.83746	1.55829	1.7633	78.11	-0.2154	-0.0106	0.2047	993.4329	0.171499	-403.132846	-403.124486	-403.123542	-403.165472	32.676	
C	-0.0500661494	 1.5236394055	-0.0009754222	-0.4433
C	 0.0080559153	-0.0086672223	-0.0251378793	 0.189178
C	-1.4295511747	-0.5399985057	-0.0789775627	-0.443298
N	 0.8541485063	-0.5312448933	-1.1630375598	-0.152837
C	 1.1252361505	-1.9578099325	-0.702055863	-0.196487
C	 1.9430459233	-1.3203416479	 0.4555606036	-0.148168
C	 2.2587671655	-0.2621400684	-0.6379564004	-0.196487
C	 0.8119627638	-0.591379517	 1.1738448015	 0.428628
O	 0.5864769004	-0.4851176388	 2.3496399653	-0.351172
H	 0.9322884209	 1.9976120839	 0.0380226283	 0.118958
H	-0.5669168247	 1.8880682338	-0.8937442753	 0.127155
H	-0.604803153	 1.8498193533	 0.88296485	 0.136524
H	-1.9327521191	-0.1550492263	-0.970931787	 0.127154
H	-1.4922826638	-1.6294247565	-0.0991498451	 0.118958
H	-1.9738916988	-0.1983675962	 0.8055894806	 0.136526
H	 0.2534947622	-2.5702470956	-0.4721189934	 0.114041
H	 1.7516998966	-2.4680439961	-1.4370599357	 0.118177
H	 2.6807113097	-1.8366152709	 1.0680826144	 0.084233
H	 2.9953018524	-0.6077181408	-1.3667356463	 0.118177
H	 2.4823126266	 0.7638822219	-0.3460852535	 0.11404
93.2048	150.3165	182.2446	194.9423	272.9555	337.0614	389.6528	480.6177	489.8891	533.2736	587.0804	681.3616	767.3091	786.6992	811.0982	835.883	861.4439	884.1053	957.88	973.7315	993.2664	1010.1433	1034.7411	1034.7682	1083.7714	1129.0706	1171.5781	1185.5097	1211.6033	1219.4152	1234.8827	1258.9153	1267.2894	1304.6108	1393.5969	1414.8347	1473.3888	1483.5274	1497.9777	1509.5487	1513.8178	1544.3576	1864.0865	3047.3836	3051.9285	3074.7678	3078.1735	3117.866	3123.3546	3127.2383	3130.2585	3132.3449	3145.3048	3145.379
CC1(C)N2CC(C2)C1=O	CC1(C)N2C[C@@H](C2)C1=O	
InChI=1S/C7H11NO/c1-7(2)6(9)5-3-8(7)4-5/h5H,3-4H2,1-2H3	InChI=1S/C7H11NO/c1-7(2)6(9)5-3-8(7)4-5/h5H,3-4H2,1-2H3
