20
gdb 62255	4.65931	0.54893	0.51	3.8219	79.94	-0.2549	-0.0278	0.2271	2097.952	0.167656	-440.290384	-440.27941	-440.278466	-440.329451	36.29	
C	 0.1113195618	 1.5607963394	-0.0438950013	-0.411467
C	 0.000944433	 0.025467739	 0.0166430338	-0.069022
C	-1.4560060954	-0.4772263515	 0.0857239327	-0.213048
C	-2.1679826842	-0.1029991583	 1.3790051596	-0.08194
O	-3.4725208601	-0.6827679148	 1.3258490039	-0.182689
C	-4.2469478198	-0.5089946132	 2.4142207122	 0.129371
N	-5.4229703391	-0.9655947171	 2.4317038903	-0.435602
C	 0.6541003412	-0.5582790615	-1.2238495364	 0.159798
O	 1.6180458737	-1.2773669263	-1.226583678	-0.243742
H	 1.1572688569	 1.8741801474	-0.1118983421	 0.135539
H	-0.4188707476	 1.9587339124	-0.91665478	 0.127074
H	-0.3158791478	 2.0280255157	 0.8471687892	 0.12872
H	 0.5659485141	-0.3554095877	 0.8748776358	 0.097315
H	-2.0317167121	-0.0832885026	-0.7605740644	 0.119567
H	-1.4747647537	-1.5694013022	-0.0011017108	 0.129819
H	-1.6171622555	-0.4925994806	 2.2466988883	 0.111935
H	-2.2523138462	 0.9854009164	 1.4903484948	 0.111591
H	-3.7490732403	 0.0413670874	 3.2254064063	 0.083437
H	-5.8645175028	-0.7542485418	 3.3240718564	 0.230104
H	 0.1589106637	-0.25664383	-2.1784876006	 0.07324
23.6619	43.19	59.9251	79.3856	104.9566	136.0844	211.3388	253.3876	269.5191	348.7251	368.9866	436.7776	567.4307	643.1721	789.1006	822.7811	880.0495	917.3794	959.5267	982.0191	1004.8174	1045.1175	1067.1216	1126.8672	1137.5405	1162.7082	1172.3988	1238.7695	1268.3767	1296.2416	1318.9883	1344.2183	1362.6244	1408.991	1412.0714	1428.0601	1435.7163	1489.5485	1498.6534	1505.9592	1520.7906	1750.957	1839.4066	2842.5622	2997.8782	3018.8674	3036.0274	3037.0939	3045.0729	3052.9225	3085.9793	3106.4854	3117.1792	3519.0875
CC(CCOC=N)C=O	C[C@@H](CCO[CH][NH])C=O	
InChI=1S/C6H11NO2/c1-6(4-8)2-3-9-5-7/h4-7H,2-3H2,1H3	InChI=1S/C6H11NO2/c1-6(4-8)2-3-9-5-7/h4-7H,2-3H2,1H3/t6-/m0/s1
