15
gdb 44530	4.61024	1.34483	1.20133	3.6692	71.94	-0.245	-0.0384	0.2067	998.9036	0.115111	-416.769893	-416.763413	-416.762469	-416.800679	26.079	
O	 0.0655010525	-0.0386087894	-0.0683163054	-0.362378
C	 0.0108467152	 1.1610516426	 0.0518573685	 0.409045
N	-1.1948332821	 1.901714029	 0.1783764528	-0.36301
C	-0.9010194628	 3.2981998275	 0.0001786503	-0.028094
C	-0.9177673746	 4.4912075889	 1.0055405243	-0.074624
C	 0.0030009758	 4.3636386543	 2.1507213609	-0.230691
N	 0.6111596308	 4.6587119188	 0.8163560055	-0.185106
C	 0.5695048658	 3.3521223387	 0.1889010845	 0.289021
C	 1.1396520022	 2.1469955486	 0.1993324792	-0.343257
H	-2.0231921856	 1.4746790571	-0.2111726504	 0.246404
H	-1.2388510229	 3.6874818474	-0.9682322259	 0.119147
H	-1.575582544	 5.3466225653	 0.8942793839	 0.111352
H	 0.0558952706	 5.2075464689	 2.831824953	 0.1383
H	 0.201845519	 3.3942243273	 2.5968292514	 0.144465
H	 2.1457356002	 1.839634305	 0.4414014173	 0.129424
133.6962	214.8979	294.4661	380.3565	509.4994	558.3553	562.5583	614.6241	700.5053	734.2496	740.8665	763.6177	833.8706	860.6221	881.3553	911.6091	943.8227	1006.3481	1057.4777	1077.9352	1112.411	1127.0003	1134.4993	1150.6306	1197.4962	1232.2079	1269.4187	1331.2958	1373.8681	1400.7339	1494.6228	1679.857	1829.8493	3033.3169	3125.2363	3175.1559	3217.8441	3253.4867	3608.1229
O=C1NC2C3CN3C2=C1	O=C1N[C@H]2[C@H]3CN3[C]2[CH]1	
InChI=1S/C6H6N2O/c9-5-1-3-6(7-5)4-2-8(3)4/h1,4,6H,2H2,(H,7,9)	InChI=1S/C6H6N2O/c9-5-1-3-6(7-5)4-2-8(3)4/h1,4,6H,2H2,(H,7,9)/t4-,6-,8?/m1/s1
