19
gdb 83449	2.90148	1.18746	1.05994	4.172	79.92	-0.2485	0.0317	0.2802	1211.5004	0.159161	-382.041502	-382.032705	-382.031761	-382.075414	32.703	
C	-0.1254613095	 1.5056498538	 0.0692392368	-0.326646
N	 0.0975347657	 0.0686516855	 0.1450140537	-0.108305
C	 1.362023234	-0.5630756002	-0.1762290329	-0.112197
C	 2.582390441	 0.2539802065	 0.2915668537	-0.240412
C	 2.0028955589	 0.2496756593	 1.741184204	-0.29441
C	 0.8016709116	-0.5735310948	 1.2284829569	 0.339386
C	 0.0999831911	-1.668534422	 1.9997915364	-0.432256
C	-0.6924056925	-1.1331800271	 3.1102209481	 0.257732
N	-1.3033219001	-0.688739328	 3.9846358995	-0.309886
H	 0.7282375336	 2.1275019673	 0.370096878	 0.110328
H	-0.386553313	 1.7620805371	-0.9617571863	 0.127284
H	-0.9750175994	 1.7603336735	 0.7092479308	 0.138706
H	 1.3683686861	-1.3420291921	-0.932334703	 0.095423
H	 3.5122349358	-0.3131208257	 0.2162108578	 0.111082
H	 2.7285469062	 1.2251777515	-0.1890655228	 0.108511
H	 2.6292319996	-0.3170902574	 2.4337543615	 0.111179
H	 1.7670528994	 1.213673215	 2.1993445976	 0.114351
H	-0.564008686	-2.2161470675	 1.3237898085	 0.161955
H	 0.8270214576	-2.3812220051	 2.4068509717	 0.148177
51.7398	96.8385	152.9569	235.2483	266.9882	278.3915	312.087	390.1322	445.517	458.5114	549.382	697.5742	759.8668	765.748	797.2669	898.1764	920.6659	928.423	948.6409	954.9394	1019.7744	1073.6683	1088.303	1119.0705	1160.4254	1179.6529	1196.304	1219.5649	1224.5962	1253.8093	1271.4449	1291.8949	1321.6731	1424.6148	1449.2909	1456.0496	1473.9329	1488.6863	1502.8876	1510.7108	2360.6824	3010.1139	3042.8152	3062.141	3068.4504	3082.7454	3094.5459	3107.5383	3114.311	3124.5186	3160.2356
CN1C2CCC12CC#N	CN1[C@H]2CC[C@@]12CC#N	
InChI=1S/C7H10N2/c1-9-6-2-3-7(6,9)4-5-8/h6H,2-4H2,1H3	InChI=1S/C7H10N2/c1-9-6-2-3-7(6,9)4-5-8/h6H,2-4H2,1H3/t6-,7-,9?/m0/s1
