12
gdb 53720	9.19742	0.44844	0.43515	4.1603	91.25	-0.2717	-0.0976	0.1741	2299.2679	0.075005	-435.467491	-435.45786	-435.456915	-435.504073	31.138	
N	-0.0024463336	 1.3288965269	-0.2252737035	-0.522211
C	 0.0312222116	 0.0459758137	 0.2265493033	 0.227218
O	 1.021317573	-0.4993452085	 0.6714975931	-0.318936
C	-1.247327298	-0.6500655016	 0.1431229487	 0.311909
C	-2.26594147	-1.3079508785	 0.1120734104	-0.200128
C	-3.4093905533	-2.0294129729	 0.0708820404	-0.151233
C	-4.4383224187	-2.6740924626	 0.0300972444	 0.234249
C	-5.6629926698	-3.4318470214	 0.0136828943	-0.029986
O	-6.0943704372	-4.0004782858	-0.9626033491	-0.214048
H	 0.8539555938	 1.8590338132	-0.220423404	 0.275689
H	-0.8329919532	 1.7300907506	-0.6249948387	 0.274409
H	-6.1922231245	-3.454225803	 0.9869172907	 0.113068
34.4431	59.1656	66.5025	150.7112	160.4765	167.5561	287.1569	308.4672	358.3209	524.2392	545.5883	577.2394	588.0007	627.8477	708.578	771.0668	889.8519	1015.3678	1088.8875	1217.9431	1368.319	1418.3837	1610.8684	1756.9387	1772.3208	2241.6569	2335.9245	2931.7247	3599.7222	3740.3091
NC(=O)C#CC#CC=O	NC(=O)C#CC#CC=O	
InChI=1S/C6H3NO2/c7-6(9)4-2-1-3-5-8/h5H,(H2,7,9)	InChI=1S/C6H3NO2/c7-6(9)4-2-1-3-5-8/h5H,(H2,7,9)
