18
gdb 73383	3.02571	1.65902	1.3847	4.2608	75.35	-0.2392	0.0036	0.2428	982.9289	0.149198	-401.948911	-401.941561	-401.940616	-401.980403	29.291	
C	 0.0051150839	 1.4470710788	-0.0365941706	-0.488586
C	-0.0042169212	-0.0604179179	 0.0395103611	 0.331237
C	-1.2627005867	-0.831895359	-0.3811978627	-0.3066
C	-1.1664250357	-2.1472173865	 0.4470277111	-0.182316
N	 0.2505143524	-2.2098499815	 0.8869990002	-0.170542
C	 0.6632397424	-0.8013341171	 1.1384404873	-0.080134
C	 1.3807256853	-0.7639172788	-0.2043440896	-0.271529
C	 1.103755676	-2.2238689763	-0.3013778915	 0.43049
O	 1.3933589766	-3.1322753647	-1.0211960055	-0.335381
H	 0.940403563	 1.8637387398	 0.3498789971	 0.124678
H	-0.1126150147	 1.7913627917	-1.0693628007	 0.132882
H	-0.8192663884	 1.8667017349	 0.5503339975	 0.127527
H	-2.1588383867	-0.2562744501	-0.1279931185	 0.105158
H	-1.2873156638	-1.0210734592	-1.4589337876	 0.119701
H	-1.8109018534	-2.1140721432	 1.3297755723	 0.112835
H	-1.4068897422	-3.0452836677	-0.1248406336	 0.133567
H	 0.9907466407	-0.4590460158	 2.110555922	 0.109214
H	 2.2413695125	-0.1954270975	-0.5346946484	 0.107799
137.3134	205.4623	215.9137	252.5454	307.9055	397.7337	495.5324	568.6135	614.9114	656.4762	750.2915	804.9804	822.9834	868.9916	876.4364	877.8235	903.2876	938.4815	967.7921	979.1285	1033.6194	1050.824	1093.4576	1097.5039	1138.6704	1157.4098	1221.8714	1235.2159	1253.9633	1267.391	1295.3903	1344.9025	1387.5456	1418.8723	1487.7336	1489.6332	1499.6709	1504.5434	1901.17	3031.2226	3047.8569	3065.0202	3088.5763	3095.7298	3105.2427	3128.9952	3192.2929	3213.5283
CC12CCN3C1C2C3=O	C[C@]12CCN3[C@H]1[C@H]2C3=O	
InChI=1S/C7H9NO/c1-7-2-3-8-5(7)4(7)6(8)9/h4-5H,2-3H2,1H3	InChI=1S/C7H9NO/c1-7-2-3-8-5(7)4(7)6(8)9/h4-5H,2-3H2,1H3/t4-,5-,7+/m0/s1
