18
gdb 19400	3.07245	2.13821	1.61539	1.7846	71.44	-0.248	0.0922	0.3402	865.174	0.153227	-347.749538	-347.742163	-347.741219	-347.780801	28.885	
C	-0.0590233058	 1.5638746703	-0.0718928056	-0.404862
C	 0.0194651176	 0.0473077581	 0.0161110722	-0.106918
C	 1.0643166687	-0.6592297343	-0.8784202514	 0.026324
O	 2.3623280668	-0.2104547177	-0.4738769765	-0.248126
C	 1.7342288427	-1.2586298229	 0.2858256235	-0.074107
C	 0.7527076002	-0.6004733708	 1.232063898	 0.36875
C	 1.0228301657	-0.0392321857	 2.5935547852	-0.319356
C	 0.1115693765	-1.2365294726	 2.4286359229	-0.336176
H	 0.9423310556	 1.997551652	-0.0085274595	 0.135813
H	-0.5148496766	 1.8807605608	-1.0163705036	 0.112358
H	-0.6646201732	 1.9779209051	 0.7417057744	 0.111189
H	-0.9670662566	-0.4112748741	-0.1158447892	 0.076777
H	 0.9567461187	-1.0183960492	-1.8957341227	 0.099851
H	 2.2788631487	-2.1900862256	 0.3939018856	 0.101575
H	 2.0050030799	-0.1919244514	 3.02858875	 0.116513
H	 0.5676031098	 0.9126627114	 2.8479019406	 0.115329
H	-0.9548863254	-1.0942503352	 2.5735285969	 0.112412
H	 0.4764633565	-2.2065846781	 2.7522306092	 0.112655
127.9518	202.3968	221.7652	237.0921	267.0014	370.5981	494.3692	567.0291	611.0004	737.7876	776.1814	834.9623	852.7815	856.48	878.163	921.0007	957.3777	974.2471	978.3208	1042.2702	1055.213	1061.1129	1076.5214	1093.216	1138.0965	1185.6324	1204.0371	1226.4401	1232.0542	1270.083	1347.0177	1373.8105	1397.8587	1408.8431	1465.6235	1492.4691	1500.1309	1507.6601	3031.6214	3046.2427	3091.4731	3120.524	3122.2215	3128.1114	3172.9567	3187.8792	3198.5295	3214.7469
CC1C2OC2C11CC1	C[C@H]1[C@H]2O[C@H]2C21CC2	
InChI=1S/C7H10O/c1-4-5-6(8-5)7(4)2-3-7/h4-6H,2-3H2,1H3	InChI=1S/C7H10O/c1-4-5-6(8-5)7(4)2-3-7/h4-6H,2-3H2,1H3/t4-,5+,6+/m0/s1
