14
gdb 26609	2.43054	1.9158	1.07575	3.5387	69.97	-0.206	-0.0394	0.1666	1025.0768	0.103123	-470.073185	-470.065448	-470.064504	-470.105233	29.305	
N	 0.0167041485	 1.3717778242	-0.1091786362	-0.565247
C	-0.0156281177	 0.0060856805	-0.0426570228	 0.332832
C	-1.2028647485	-0.680910341	 0.0460788044	 0.033242
N	-2.440788979	 0.0013142156	 0.1283290603	-0.612611
C	-1.1926242735	-2.1093001389	 0.1190953764	 0.392232
O	-2.1338116549	-2.852873649	 0.2388629464	-0.369329
O	 0.1047148604	-2.6863951277	 0.0658584566	-0.199381
C	 1.1815969623	-1.9106773519	-0.0602349188	 0.131229
N	 1.2061414124	-0.6318093391	-0.1177683061	-0.332648
H	 0.9150361831	 1.7874678672	 0.0849805042	 0.264422
H	-0.7848439815	 1.8391368438	 0.292118082	 0.267386
H	-2.6677065238	 0.4802745079	-0.7392390424	 0.247797
H	-3.176480438	-0.6729432907	 0.316343124	 0.261373
H	 2.0968931604	-2.4923057312	-0.1121079081	 0.148702
131.0591	174.3142	199.8209	272.5123	296.0529	347.7089	501.4646	505.1663	529.578	533.6052	567.6158	591.229	693.1664	712.9464	778.0747	862.7963	903.7004	937.7088	949.8449	1053.4696	1123.2083	1208.7515	1290.3851	1354.3849	1401.335	1450.9677	1606.8158	1631.0775	1644.6805	1694.5961	1828.7322	3192.9598	3482.9236	3557.2835	3572.782	3683.1402
NC1=C(N)C(=O)OC=N1	Nc1c(N)c(=O)ocn1	
InChI=1S/C4H5N3O2/c5-2-3(6)7-1-9-4(2)8/h1H,5-6H2	InChI=1S/C4H5N3O2/c5-2-3(6)7-1-9-4(2)8/h1H,5-6H2
