19
gdb 69345	2.62582	1.46917	1.15048	1.56	81.8	-0.2357	0.0318	0.2675	1141.7192	0.155821	-385.823503	-385.8143	-385.813356	-385.85675	35.614	
C	 0.1429059524	 1.491934561	-0.0236747898	-0.489876
C	 0.0595428671	 0.0047684612	 0.0717889528	 0.48062
C	-0.9397366401	-0.8111985503	 0.8295178198	-0.359746
C	 0.5449906477	-1.0214397688	 1.0691377339	-0.20693
C	 1.180614139	-1.72914831	-0.142154622	 0.182279
C	 0.7897404521	-3.1645744851	-0.4711828459	-0.446724
O	 0.5485268992	-0.7587736559	-1.0472187671	-0.353482
C	 2.6326297381	-1.5587242707	-0.1617086244	 0.343477
C	 3.8284587097	-1.4375261957	-0.1605404923	-0.456542
H	 1.1678320172	 1.8117881409	-0.2338353236	 0.134817
H	-0.5019787336	 1.8610373872	-0.8292415318	 0.132173
H	-0.1866040093	 1.9544457651	 0.9111784092	 0.12221
H	-1.4418658199	-0.2992569447	 1.6453485777	 0.114085
H	-1.5441450387	-1.5520128701	 0.3151188212	 0.113663
H	 1.0204427613	-0.9050425515	 2.0332777933	 0.105532
H	-0.2932684387	-3.2924478835	-0.4171917092	 0.121845
H	 1.1220613326	-3.4174121412	-1.4818711731	 0.137007
H	 1.2663024311	-3.8548859303	 0.2307781229	 0.128909
H	 4.8843872427	-1.3232048774	-0.1700527318	 0.196683
103.3707	150.4216	197.5451	208.7543	216.9981	238.8886	331.3527	356.8987	453.3364	471.343	492.3654	535.115	622.2498	627.8835	658.9062	685.3703	821.4145	823.3202	861.2409	914.9074	939.1464	969.7261	977.3556	1002.4072	1061.0583	1082.2652	1093.9777	1117.5559	1168.4902	1214.7166	1233.2044	1294.9861	1383.2144	1404.1728	1427.325	1473.8878	1478.8843	1484.7208	1492.2114	1503.0715	2233.8088	3034.2386	3048.5984	3099.3294	3117.0404	3119.0035	3122.9015	3134.2209	3203.3093	3210.8049	3500.1891
CC12CC1C(C)(O2)C#C	C[C@]12C[C@H]1[C@@](C)(O2)C#C	
InChI=1S/C8H10O/c1-4-7(2)6-5-8(6,3)9-7/h1,6H,5H2,2-3H3	InChI=1S/C8H10O/c1-4-7(2)6-5-8(6,3)9-7/h1,6H,5H2,2-3H3/t6-,7-,8-/m0/s1
