19
gdb 91375	3.33586	1.19127	1.02276	2.491	78.3	-0.2417	0.0053	0.247	1215.4835	0.158915	-422.993315	-422.984898	-422.983954	-423.026275	32.385	
C	 0.1069052184	 1.512104749	 0.1167118717	-0.40069
C	-0.0116005972	 0.0047283088	 0.0423755963	 0.082712
O	 0.9707159923	-0.6164225787	-0.8615510318	-0.331006
C	 1.2430192076	-1.6768414654	 0.1173435708	 0.105134
C	 2.6411055635	-1.919405137	 0.7044218246	-0.264017
C	 2.4019020404	-1.7835164982	 2.2402417057	 0.095427
O	 3.5768763178	-1.2503690058	 2.8353819116	-0.42521
C	 1.2091847426	-0.8167972059	 2.3136809583	-0.253498
C	 0.5697244504	-0.8412061153	 1.1517947692	 0.1679
H	 1.1118893841	 1.8013408655	 0.4333183004	 0.129643
H	-0.0953298571	 1.9548877544	-0.8633638247	 0.129851
H	-0.6209162321	 1.9140104532	 0.8296122992	 0.119561
H	-1.0241807199	-0.2932960448	-0.2657076144	 0.081366
H	 0.7445946218	-2.6009405494	-0.2035162814	 0.07747
H	 3.1018018922	-2.8694909292	 0.4228249146	 0.097185
H	 3.3067019652	-1.101625406	 0.4121843529	 0.132268
H	 2.1725897096	-2.7635877281	 2.6881634212	 0.073409
H	 3.5223554725	-1.3849896564	 3.7863962945	 0.284065
H	 1.0567771778	-0.1546972306	 3.1581699913	 0.09843
91.8386	124.6929	204.7044	222.3424	256.0922	322.3877	371.5613	403.3456	489.9317	501.3348	592.6552	641.8232	743.4178	821.4704	837.6886	869.5917	875.0449	899.9732	988.6496	1012.3943	1015.5625	1050.7903	1060.6532	1086.005	1104.6438	1151.624	1161.4149	1223.9649	1242.2035	1267.9101	1272.8216	1306.5281	1329.5775	1345.3483	1387.601	1402.8847	1420.8458	1477.239	1481.0616	1492.8749	1740.0952	2964.7024	2996.0663	3014.2264	3039.8499	3063.7322	3110.2207	3120.604	3129.5075	3199.4209	3824.7947
CC1OC2CC(O)C=C12	C[C@H]1O[C@H]2C[C@@H](O)[CH][C]12	
InChI=1S/C7H10O2/c1-4-6-2-5(8)3-7(6)9-4/h2,4-5,7-8H,3H2,1H3	InChI=1S/C7H10O2/c1-4-6-2-5(8)3-7(6)9-4/h2,4-5,7-8H,3H2,1H3/t4-,5+,7+/m1/s1
