16
gdb 126993	3.39936	1.07453	0.82552	4.2552	70.45	-0.2029	-0.0174	0.1855	1352.0168	0.122776	-471.173823	-471.164761	-471.163817	-471.208905	32.086	
C	-0.0447880706	 1.4906459949	 0.0114871892	-0.39225
C	 0.001055392	-0.0247879154	-0.0067695042	-0.048665
O	-1.3502553254	-0.5006485466	 0.0592023238	-0.295199
C	-1.5012493052	-1.8410288805	 0.0408131279	 0.27704
C	-2.6980375107	-2.5210180346	 0.0507879904	 0.348998
N	-3.9917527845	-2.0813121571	 0.1441777365	-0.592236
O	-2.4371912699	-3.8175740383	 0.0241898902	-0.212687
N	-0.9782537523	-3.9454100302	-0.0065604246	-0.062383
N	-0.5152021435	-2.7671031835	 0.0077680076	-0.191741
H	 0.9711510171	 1.8932076557	-0.0353536499	 0.125339
H	-0.6079945211	 1.8731995171	-0.8444448639	 0.1275
H	-0.51889158	 1.853689692	 0.927663353	 0.130643
H	 0.4754189647	-0.404203025	-0.9204073946	 0.118159
H	 0.566510671	-0.4217555199	 0.8450703839	 0.121294
H	-4.1153920052	-1.1173165529	-0.1302796979	 0.274017
H	-4.6837654463	-2.7023148657	-0.2500419474	 0.27217
28.163	72.2509	129.0786	242.8242	258.0643	271.131	298.4494	346.1148	361.5802	492.617	567.9016	640.21	659.852	677.8869	727.6001	804.1744	816.0134	926.2933	988.5491	1070.0985	1089.0326	1132.0222	1183.3426	1269.4628	1295.2604	1354.9841	1395.9326	1409.6339	1427.835	1484.0948	1498.2448	1499.9951	1526.5027	1630.6033	1699.1426	3023.7764	3047.0441	3060.7465	3123.0099	3124.394	3565.9617	3672.4065
CCOC1=C(N)ON=N1	CCOc1c(N)onn1	
InChI=1S/C4H7N3O2/c1-2-8-4-3(5)9-7-6-4/h2,5H2,1H3	InChI=1S/C4H7N3O2/c1-2-8-4-3(5)9-7-6-4/h2,5H2,1H3
