21
gdb 55815	3.44225	1.00492	0.9068	2.9596	82.8	-0.2342	-0.0063	0.2278	1360.9109	0.181989	-387.080625	-387.071525	-387.07058	-387.115544	33.885	
C	-0.105384223	 0.7060610092	 0.9997026149	-0.478662
C	 0.0058953324	-0.0951399226	-0.2846466436	 0.384607
O	 0.9872118354	-0.04425389	-0.9901274373	-0.304739
C	-1.170278354	-1.0056227341	-0.6296253876	-0.321049
C	-0.9969668506	-2.3615974324	 0.0471316568	 0.005849
C	-1.4502977761	-2.7286862136	 1.4367430736	-0.064221
C	-2.8069428776	-2.1013903783	 1.7893692228	-0.230995
C	-3.4352562316	-2.7769508819	 0.5283259549	-0.227496
C	-2.0728434333	-3.4017943853	 0.2015559787	-0.087547
H	 0.8341481468	 1.2212195498	 1.2033028562	 0.138567
H	-0.9129552227	 1.4423899411	 0.908679651	 0.137117
H	-0.3658899763	 0.0512640979	 1.8381938066	 0.146534
H	-2.1133402468	-0.5377862255	-0.3321074243	 0.10287
H	-1.1768191099	-1.1411797843	-1.7154159668	 0.12027
H	-0.0367990539	-2.8134675152	-0.1954150038	 0.102291
H	-0.7586952294	-3.1454158439	 2.1598899183	 0.085579
H	-3.2213815458	-2.5052699881	 2.7153028541	 0.107328
H	-2.8469746625	-1.0084082768	 1.8486784285	 0.092621
H	-4.1859156621	-3.5232482117	 0.7959576808	 0.105792
H	-3.8651019487	-2.1183102321	-0.2334453883	 0.098217
H	-1.9276994306	-4.4100330124	-0.1686922155	 0.087066
39.6126	65.0219	137.0557	149.1723	217.4225	241.9309	366.6881	413.4356	489.6509	554.0089	588.5613	710.7342	757.2212	787.2703	796.175	811.247	886.3752	909.6638	946.2287	953.0166	980.692	1003.6609	1020.8327	1046.8242	1056.2789	1084.5805	1123.5908	1138.3654	1173.6947	1203.8922	1224.9313	1246.8097	1262.718	1266.1043	1302.593	1308.7136	1352.1178	1379.6392	1438.7726	1462.1921	1471.0631	1477.9832	1490.5777	1507.5305	1812.3638	3034.2878	3042.6655	3050.3358	3054.3375	3096.2369	3097.2056	3103.9198	3115.2249	3130.4587	3151.2075	3169.5308	3181.7105
CC(=O)CC1C2CCC12	CC(=O)C[C@H]1[C@H]2CC[C@@H]12	
InChI=1S/C8H12O/c1-5(9)4-8-6-2-3-7(6)8/h6-8H,2-4H2,1H3	InChI=1S/C8H12O/c1-5(9)4-8-6-2-3-7(6)8/h6-8H,2-4H2,1H3/t6-,7+,8-
