21
gdb 68776	2.2988	1.44126	1.32428	2.0522	78.57	-0.2195	0.0634	0.2829	1123.6543	0.179235	-424.195433	-424.185446	-424.184502	-424.229424	38.337	
C	-0.117239702	 1.5683002788	 0.0625447333	-0.454259
C	-0.0045557064	 0.0446260951	 0.0094438459	 0.260812
C	-1.3668236259	-0.5980840458	-0.2589091431	-0.430146
C	 1.1083830723	-0.5493870455	-0.9415666312	-0.324769
C	 1.7343568002	-1.2680561476	 0.2457356895	 0.384335
O	 2.2499116845	-2.5402688132	 0.0800924536	-0.464399
C	 2.1779600276	-0.2670648115	 1.2806147767	-0.440424
C	 0.7072439607	-0.656064264	 1.1879360835	 0.281705
O	 0.0522614577	-1.2496174031	 2.2559171066	-0.463567
H	 0.8468385717	 2.0450472917	 0.2654120342	 0.110727
H	-0.4893175163	 1.9665416005	-0.8882503062	 0.115003
H	-0.8178669046	 1.883436011	 0.8449320563	 0.107219
H	-1.7745614585	-0.2519919278	-1.2150989221	 0.106511
H	-1.2908680993	-1.6891106959	-0.2918770087	 0.123816
H	-2.0829237502	-0.3428848274	 0.5290354912	 0.110073
H	 0.6946667799	-1.241999125	-1.6776944021	 0.109998
H	 1.7529519486	 0.1755089163	-1.4491426802	 0.092666
H	 2.508559766	-2.8823151775	 0.9423442789	 0.286519
H	 2.6615793766	-0.7150722752	 2.1462972146	 0.10099
H	 2.5560894744	 0.7204473032	 1.0199073936	 0.102298
H	-0.0336208169	-0.600010987	 2.9629022358	 0.284894
89.6712	129.7166	198.7264	210.5509	216.5401	241.3143	281.0395	308.1395	335.4861	402.276	404.2638	443.3254	484.9417	535.3371	603.1099	674.8197	748.7619	787.003	826.6384	908.4833	926.5801	959.1506	963.871	984.503	1031.1212	1035.9244	1097.0063	1110.5603	1143.4755	1187.6523	1217.7965	1237.7321	1266.2165	1289.4919	1323.9823	1398.1355	1401.5441	1415.1586	1420.585	1475.9765	1482.7897	1485.9094	1502.8772	1506.8198	1523.761	3022.674	3030.2957	3047.2588	3083.1762	3084.0695	3097.6769	3098.8064	3106.2415	3114.1157	3173.0867	3781.928	3816.9312
CC1(C)CC2(O)CC12O	CC1(C)C[C@@]2(O)C[C@@]12O	
InChI=1S/C7H12O2/c1-5(2)3-6(8)4-7(5,6)9/h8-9H,3-4H2,1-2H3	InChI=1S/C7H12O2/c1-5(2)3-6(8)4-7(5,6)9/h8-9H,3-4H2,1-2H3/t6-,7-/m1/s1
