17
gdb 105404	2.30578	1.23135	1.03115	4.2305	66.07	-0.265	0.0063	0.2713	1208.5113	0.132823	-496.08728	-496.077712	-496.076768	-496.121893	34.327	
O	 0.3623117758	 0.9681294769	 0.5899221932	-0.415081
C	-0.1909421934	 0.2815583745	-0.5207115177	-0.136142
C	-1.4178944502	-0.5223937093	-0.1338645255	 0.363994
C	-1.9678842289	-1.5492816927	-1.0861340971	-0.378538
C	-1.3231813382	-1.9837946336	 0.2129356373	 0.043066
O	-0.052936715	-2.5558808999	 0.2086371695	-0.4123
O	-2.3928719343	 0.2511832113	 0.5402829587	-0.23758
C	-2.2143829881	 0.4350169394	 1.8758535324	 0.137193
O	-2.9003110321	 1.1858147752	 2.501785591	-0.278435
H	-0.0902916503	 1.8126697871	 0.6759191909	 0.299556
H	-0.4542910082	 0.9772513505	-1.3286639807	 0.105943
H	 0.572899328	-0.4061132972	-0.8915596351	 0.133183
H	-3.0457961092	-1.6218378688	-1.1730143127	 0.136298
H	-1.4095944942	-1.7131988231	-2.002184295	 0.123802
H	-1.995410439	-2.3398582335	 0.9933684361	 0.106717
H	-0.1204187285	-3.435838412	-0.1771071275	 0.296103
H	-1.3994530941	-0.1801367848	 2.2886312422	 0.112221
79.3047	89.0366	138.1473	186.1491	212.3059	247.7819	297.6703	324.3983	332.9211	403.3634	446.6263	467.2683	523.2127	631.9106	803.7403	836.1597	910.5944	938.496	999.4426	1029.0734	1036.874	1042.2176	1075.9803	1099.9751	1149.673	1177.6116	1211.6142	1259.2761	1298.9235	1321.0816	1399.0081	1407.0295	1414.9515	1421.2011	1480.6854	1489.729	1858.7541	3017.0023	3022.4303	3106.4308	3110.7865	3135.2977	3231.4084	3805.7093	3831.4155
OCC1(CC1O)OC=O	OC[C@]1(C[C@H]1O)OC=O	
InChI=1S/C5H8O4/c6-2-5(9-3-7)1-4(5)8/h3-4,6,8H,1-2H2	InChI=1S/C5H8O4/c6-2-5(9-3-7)1-4(5)8/h3-4,6,8H,1-2H2/t4-,5+/m1/s1
