20
gdb 118731	3.00091	0.93335	0.83097	1.5159	76.84	-0.2603	0.0281	0.2883	1446.0493	0.169394	-440.289412	-440.279729	-440.278785	-440.324331	35.748	
C	-0.1239031651	 1.8190641499	-0.3498600457	-0.443287
C	-0.0163313479	 0.3130369523	-0.178620658	 0.399886
C	-1.3513350011	-0.4135395414	-0.0528720697	-0.250425
C	-2.2059905909	 0.0240401212	 1.1425091215	-0.071998
O	-3.3970823107	-0.7382473111	 1.2525136262	-0.41678
C	 1.028987035	-0.3884433081	-1.0853041714	-0.417398
C	 1.7722604208	-0.6327801491	 0.2083046592	 0.432999
N	 2.8492903714	-1.198823969	 0.5131394796	-0.543675
O	 0.8388032622	 0.0003616747	 0.9986716729	-0.289266
H	 0.8693184051	 2.2638558018	-0.4555788865	 0.128595
H	-0.7077774911	 2.0592440571	-1.2445467188	 0.126985
H	-0.611054417	 2.2828475787	 0.5119141967	 0.137317
H	-1.9240430625	-0.2768357018	-0.9780567735	 0.112904
H	-1.1478614008	-1.4885929297	 0.0392437607	 0.094579
H	-1.6040833072	-0.0251181654	 2.061351734	 0.110215
H	-2.535951128	 1.0602164315	 1.0218946924	 0.113936
H	-3.1506640548	-1.640211771	 1.4809341917	 0.283159
H	 0.6881059112	-1.2903739942	-1.5967453119	 0.133204
H	 1.549091864	 0.2581200671	-1.7944032037	 0.133673
H	 3.0155723774	-1.1558550935	 1.5202924943	 0.225375
61.6461	94.956	110.5035	169.0163	223.9763	293.757	324.7921	333.5301	346.3103	371.0943	464.0026	507.2207	516.7338	674.3356	780.6027	803.77	863.59	868.9828	911.2224	956.7403	972.6814	997.3685	1026.484	1044.7105	1075.914	1095.3089	1120.3566	1158.5447	1206.2733	1251.4411	1282.7712	1297.0398	1327.5623	1349.8212	1402.1624	1415.4621	1423.5236	1466.7264	1471.9051	1487.9603	1497.8882	1515.1659	1822.5894	3005.617	3020.3038	3042.5044	3063.9684	3083.9439	3088.6889	3114.9345	3122.9236	3138.0315	3472.5559	3815.5362
CC1(CCO)CC(=N)O1	C[C@@]1(CCO)C[C]([NH])O1	
InChI=1S/C6H11NO2/c1-6(2-3-8)4-5(7)9-6/h7-8H,2-4H2,1H3	InChI=1S/C6H11NO2/c1-6(2-3-8)4-5(7)9-6/h7-8H,2-4H2,1H3/t6-/m1/s1
