15
gdb 15305	4.52813	1.08866	0.94765	3.0324	69.29	-0.2434	-0.0234	0.2199	1177.1811	0.116623	-362.605057	-362.59678	-362.595835	-362.638743	29.23	
O	-0.5250479526	 0.2500318921	 0.0441304749	-0.240147
C	 0.0056135414	 1.3301201454	 0.0874902252	 0.158296
C	 1.4155389544	 1.6187161261	-0.3868186415	-0.290228
C	 1.4476963819	 2.7940820029	-1.3410147131	-0.024307
N	 1.2416839552	 4.1200819716	-0.7494131729	-0.319749
C	 2.5628371491	 3.7979071334	-1.3390215407	-0.24822
C	 3.6854613033	 3.7010380015	-0.4479553508	 0.378898
C	 4.6431112646	 3.6072837134	 0.2728877945	-0.439974
H	-0.5232362473	 2.2201581203	 0.4948468989	 0.090915
H	 2.0220424566	 1.8689454652	 0.4927768971	 0.141668
H	 1.8289957238	 0.7184448613	-0.8499802482	 0.123749
H	 1.0000696617	 2.6053973409	-2.3156084966	 0.104674
H	 0.7248757046	 4.7248977512	-1.3822556458	 0.2423
H	 2.7931282691	 4.2418417887	-2.3051710195	 0.11752
H	 5.4850986841	 3.5331463759	 0.9159866686	 0.204605
58.0328	71.0041	120.0328	190.0042	244.7741	325.3827	429.7638	493.2548	553.3066	596.6099	624.0418	664.9098	775.5945	816.0584	843.3974	896.5491	963.5475	998.6768	1031.2197	1080.1558	1123.7873	1179.1171	1211.2276	1243.2617	1270.2813	1294.7269	1400.3105	1419.2185	1448.4062	1451.1769	1832.8829	2240.7673	2892.1894	3039.1268	3104.8352	3121.0096	3131.8152	3502.2731	3508.8252
O=CCC1NC1C#C	O=CC[C@H]1N[C@H]1C#C	
InChI=1S/C6H7NO/c1-2-5-6(7-5)3-4-8/h1,4-7H,3H2	InChI=1S/C6H7NO/c1-2-5-6(7-5)3-4-8/h1,4-7H,3H2/t5-,6+/m0/s1
