16
gdb 12488	3.19068	2.04391	1.39812	3.9277	61.34	-0.2614	0.0052	0.2666	876.9499	0.131746	-420.894819	-420.887475	-420.886531	-420.927254	26.442	
O	-0.1290173417	-0.0893144165	 0.4271795416	-0.305652
C	-0.0780855221	 1.0439340004	 0.0342195666	 0.409632
C	-1.2900378918	 1.9665273798	 0.0318286018	-0.364841
C	-1.7977441243	 2.3928906813	-1.3527550589	-0.068812
O	-0.7895542382	 2.8637005459	-2.2317128307	-0.244916
C	 0.2583972474	 3.5715216731	-1.6073778343	-0.114334
C	 1.3985248991	 2.6382861059	-1.2119484014	-0.051164
O	 1.1313368333	 1.5579753293	-0.3078047585	-0.233411
H	-2.0892876412	 1.4245580955	 0.5412737749	 0.139713
H	-1.0527633436	 2.845300865	 0.6398256845	 0.128345
H	-2.2584700398	 1.5401755284	-1.8605778584	 0.130286
H	-2.5749315063	 3.1606824156	-1.2159171753	 0.101728
H	 0.6676762721	 4.2656470294	-2.3510622328	 0.120708
H	-0.0951221084	 4.1794604715	-0.76460166	 0.105075
H	 1.785406446	 2.1779317473	-2.1282841753	 0.129676
H	 2.2064555195	 3.221488108	-0.7562650638	 0.117967
66.4588	71.4885	186.579	279.8467	362.6449	404.9975	508.6648	529.1841	607.3188	689.473	778.7071	840.3164	893.2663	916.3119	946.6567	1029.7242	1073.5412	1110.9427	1112.5732	1162.6358	1217.4205	1252.7526	1271.1151	1296.4091	1320.1103	1358.6986	1395.9477	1424.1122	1435.6222	1470.4964	1499.5465	1507.4896	1517.6479	1836.2883	2986.3169	3017.7925	3034.65	3059.8215	3067.0044	3082.1417	3084.0732	3123.1104
O=C1CCOCCO1	O=C1CCOCCO1	
InChI=1S/C5H8O3/c6-5-1-2-7-3-4-8-5/h1-4H2	InChI=1S/C5H8O3/c6-5-1-2-7-3-4-8-5/h1-4H2
