18
gdb 10962	5.58587	1.29425	1.18203	2.7077	68.92	-0.2439	0.0817	0.3256	1069.0225	0.151746	-384.894283	-384.885999	-384.885055	-384.926937	30.347	
C	 0.0235998103	 1.309337528	-0.1633274101	-0.234521
O	-0.0228868859	-0.0010284268	 0.3546049011	-0.239654
C	-1.2598335337	-0.6221659494	 0.1760644123	 0.151571
C	-1.6721068137	-1.1614990101	-1.2504945026	-0.341464
C	-1.8124823363	-2.5532647551	-0.6064383899	 0.417841
C	-2.7391516562	-3.664114529	-0.9774356271	-0.499203
O	-0.5054165188	-2.8789346703	-0.1176887235	-0.276997
C	-1.3403857131	-2.052935559	 0.7026784603	-0.086121
H	 1.0189102115	 1.7067496161	 0.0483397754	 0.12994
H	-0.1409863789	 1.328192711	-1.2511451863	 0.108764
H	-0.7281836932	 1.9613841734	 0.3097077765	 0.101927
H	-2.0736368394	-0.007597718	 0.594424955	 0.066446
H	-2.6037101673	-0.7287915175	-1.6225808812	 0.10108
H	-0.8953066941	-1.1072631842	-2.0163512245	 0.112475
H	-2.4664256757	-4.087195694	-1.9509356551	 0.132121
H	-2.6936796859	-4.4641817921	-0.2338890721	 0.135107
H	-3.7707516699	-3.3039208125	-1.0462423993	 0.123282
H	-1.5316842396	-2.3924595006	 1.7147062609	 0.097404
90.2951	122.2184	171.2092	200.1649	228.3155	323.7756	326.0111	421.7485	455.5316	550.4201	673.025	730.2679	816.726	863.6671	906.8605	957.3661	965.4843	1014.3938	1027.159	1057.0221	1090.8397	1156.4352	1170.0558	1183.8039	1198.0306	1213.7272	1239.7659	1276.8841	1295.9343	1385.9585	1403.9845	1450.08	1472.6306	1482.205	1485.8057	1488.3755	1496.9452	1508.3659	2967.5435	2975.4917	3020.5103	3033.8858	3066.7616	3095.4662	3117.1985	3121.0337	3128.6678	3180.6901
COC1CC2(C)OC12	CO[C@H]1C[C@@]2(C)O[C@@H]12	
InChI=1S/C6H10O2/c1-6-3-4(7-2)5(6)8-6/h4-5H,3H2,1-2H3	InChI=1S/C6H10O2/c1-6-3-4(7-2)5(6)8-6/h4-5H,3H2,1-2H3/t4-,5-,6+/m0/s1
