18
gdb 43369	2.84747	1.66857	1.26526	4.4815	78.6	-0.2144	-0.0289	0.1855	1021.3101	0.149417	-401.975931	-401.968236	-401.967292	-402.008015	30.185	
O	 0.1105800591	-0.0135406873	-0.0691127126	-0.37411
C	-0.004256666	 1.1970283106	-0.0160615248	 0.369136
C	-1.1956360873	 2.0246519685	 0.0894924621	-0.280727
C	-0.7967567518	 3.3231678143	 0.0754722251	-0.006291
N	 0.5508068059	 3.4789497695	-0.1085080706	-0.362374
C	 1.1956314692	 2.1789242055	-0.0615357443	 0.22827
C	 2.2552830924	 1.8865696842	 1.046158461	-0.260357
C	 3.0702524003	 1.0901982034	-0.0066593881	-0.20258
C	 2.264214765	 1.8003832122	-1.1260936537	-0.253422
H	-2.2084379472	 1.6588641589	 0.1459807374	 0.110603
H	-1.4191457822	 4.2060127215	 0.1645050685	 0.1321
H	 1.0247937887	 4.2958447464	 0.2433850656	 0.246359
H	 2.7642170989	 2.8065664319	 1.3528782061	 0.090924
H	 1.9033157981	 1.3575888609	 1.9341104096	 0.116949
H	 4.1532835942	 1.2252138588	-0.0039812725	 0.09508
H	 2.8309682037	 0.0274371016	 0.0338063127	 0.13778
H	 1.9144981929	 1.1933192878	-1.9631129534	 0.117197
H	 2.7693596661	 2.6924612414	-1.5071696082	 0.095462
98.5737	145.9816	202.1077	276.9301	293.0004	436.1457	448.7602	516.1794	526.3458	675.0409	697.2647	733.9306	787.6795	800.1998	814.9341	856.9548	918.8387	940.642	958.7637	972.438	1037.2961	1059.3447	1092.3269	1111.984	1160.558	1181.8886	1209.9727	1214.5101	1252.6088	1271.0128	1284.3866	1292.8669	1373.8533	1451.2925	1467.1486	1476.0007	1494.8619	1607.2404	1780.016	3045.0704	3060.8713	3081.3702	3112.0746	3121.7396	3148.6887	3206.5441	3264.964	3625.1101
O=C1C=CNC11CCC1	O=C1C=CNC21CCC2	
InChI=1S/C7H9NO/c9-6-2-5-8-7(6)3-1-4-7/h2,5,8H,1,3-4H2	InChI=1S/C7H9NO/c9-6-2-5-8-7(6)3-1-4-7/h2,5,8H,1,3-4H2
