18
gdb 111342	2.44234	1.56111	1.13183	2.4597	72.55	-0.2405	0.0698	0.3102	1117.6449	0.146397	-438.991124	-438.982716	-438.981771	-439.024489	31.171	
C	-0.0108742194	 1.3458578491	-0.3066981157	-0.239618
O	-0.0343000094	 0.0691623071	 0.2966865094	-0.234504
C	-1.2517665761	-0.5937335871	 0.1511361439	 0.01865
C	-1.654177202	-1.2066672508	-1.2164803771	-0.018942
O	-0.7195116392	-2.2387297187	-1.5364933125	-0.234019
C	-1.7687388502	-2.5474030327	-0.6089919086	-0.067845
C	-1.2966071364	-2.0230319905	 0.7343505074	 0.321692
C	-0.4027723628	-2.6234863796	 1.737215807	-0.290118
N	-1.8413783466	-2.4145985757	 2.0253428469	-0.388337
H	 0.9682906625	 1.7830046681	-0.1001407452	 0.133188
H	-0.1490316323	 1.2853229532	-1.3957667161	 0.115805
H	-0.7911768083	 2.0040718891	 0.1070988117	 0.104176
H	-2.0891199642	 0.0136674045	 0.5398566897	 0.069157
H	-2.2111844104	-0.7589390653	-2.0311937396	 0.107035
H	-2.4361190035	-3.3694623861	-0.835327491	 0.116383
H	-0.1000835626	-3.6626564244	 1.6476246133	 0.124009
H	 0.3256400226	-1.9660562884	 2.2030430299	 0.129044
H	-1.9656530418	-1.5964588518	 2.6179866467	 0.234243
74.5276	119.9262	161.0813	189.408	253.4245	273.6879	305.7683	459.2586	507.9883	573.1841	675.6955	782.5588	850.408	853.959	886.9024	896.79	938.7636	963.1843	981.2717	993.2795	1034.0006	1038.5724	1074.913	1121.6556	1161.4185	1182.3325	1202.1895	1214.7258	1235.8708	1250.5959	1259.0615	1295.2478	1366.1493	1373.4633	1438.6039	1481.6606	1489.9204	1507.5232	1517.3451	2943.8556	2977.8693	3031.1388	3115.6139	3122.7373	3184.0776	3204.8706	3206.8616	3487.4574
COC1C2OC2C11CN1	CO[C@H]1[C@H]2O[C@H]2[C@]21CN2	
InChI=1S/C6H9NO2/c1-8-4-3-5(9-3)6(4)2-7-6/h3-5,7H,2H2,1H3	InChI=1S/C6H9NO2/c1-8-4-3-5(9-3)6(4)2-7-6/h3-5,7H,2H2,1H3/t3-,4+,5-,6-/m1/s1
