23
gdb 110930	2.50461	1.16096	0.97932	1.0962	86.32	-0.2428	0.0811	0.3239	1367.0117	0.205271	-388.254464	-388.24482	-388.243876	-388.289211	36.081	
C	-0.3462944926	 1.4174711781	 0.1513930308	-0.373167
C	 0.2737574494	 0.0432771731	-0.1266100267	-0.208937
C	 0.8258975327	-0.6012328084	 1.1319023137	 0.020399
C	 0.0239065096	-1.3058587184	 2.1901502373	-0.071805
C	-1.1053086671	-2.1446957209	 1.5788521494	-0.285398
C	-0.014325794	-2.9716020367	 0.8090560509	 0.150748
O	-0.0709953437	-3.0686897098	-0.5938126186	-0.23886
C	-1.0489897309	-3.9773443061	-1.0467181895	-0.237455
C	 1.0795617894	-2.0691155917	 1.3603222182	-0.141476
H	 0.3851047186	 2.101973475	 0.5962950011	 0.108754
H	-0.7168677572	 1.8802825258	-0.7687786547	 0.107755
H	-1.186353845	 1.3376643836	 0.8500215059	 0.114802
H	-0.4552755055	-0.6142295222	-0.6045226102	 0.112601
H	 1.092319452	 0.1470525005	-0.8502573277	 0.095001
H	 1.6234399648	-0.0089267247	 1.5821250202	 0.079947
H	 0.0804497354	-1.0274710338	 3.2353675375	 0.08275
H	-1.6523595462	-2.7455177198	 2.3084158522	 0.099427
H	-1.8257388054	-1.6032274928	 0.9585337214	 0.100708
H	 0.0617232542	-3.9800620664	 1.2437228301	 0.068568
H	-0.8688737831	-4.9927947487	-0.6588898144	 0.102531
H	-2.0650850606	-3.6741503586	-0.7518139062	 0.106817
H	-0.9930660313	-4.0016939723	-2.137694911	 0.125979
H	 2.0562917063	-2.4279034046	 1.6636962802	 0.08031
69.9367	90.9737	131.3216	165.6746	199.4471	219.275	272.8558	291.975	413.7156	443.8584	481.0719	581.2615	703.3593	744.4698	799.0123	813.6478	839.1505	889.2068	937.6448	973.5557	993.0625	1011.3149	1038.0077	1048.3313	1070.4068	1080.5759	1095.2219	1130.837	1140.6972	1175.072	1184.3264	1219.9978	1225.2189	1244.2033	1274.2502	1292.8057	1318.9222	1336.4245	1368.0779	1393.3487	1409.6358	1457.1396	1477.191	1482.7661	1487.9647	1497.2373	1499.8558	1508.7559	1511.6018	2969.9287	2981.7906	3018.4892	3027.3272	3031.4058	3054.8923	3085.096	3098.2018	3100.6306	3109.5044	3113.602	3119.2063	3172.0868	3186.7048
CCC1C2CC(OC)C12	CC[C@H]1[C@H]2C[C@@H](OC)[C@@H]12	
InChI=1S/C8H14O/c1-3-5-6-4-7(9-2)8(5)6/h5-8H,3-4H2,1-2H3	InChI=1S/C8H14O/c1-3-5-6-4-7(9-2)8(5)6/h5-8H,3-4H2,1-2H3/t5-,6+,7+,8-/m0/s1
