20
gdb 47651	2.19174	1.67495	1.14601	3.5827	80.55	-0.2348	0.0135	0.2483	1126.175	0.174107	-403.18479	-403.176455	-403.17551	-403.217883	32.133	
O	-0.0576731315	-0.0036173676	 0.047069726	-0.379718
C	-0.1441026011	 1.2122771221	 0.0988021391	 0.38024
C	-1.5019653041	 1.9013004347	 0.0770230148	-0.311344
C	-1.9745700231	 2.1315736809	-1.3775642306	-0.245841
C	-1.0633712058	 2.9099769048	-2.2974340397	-0.029547
C	-0.13731012	 3.8198232784	-1.9921010489	-0.050627
C	 0.2030833594	 4.3201193725	-0.6113080462	-0.274737
C	 1.1818415865	 3.4292395758	 0.1954342012	-0.148568
N	 0.9826491836	 1.9882804129	 0.1208284379	-0.282474
H	-2.197163772	 1.2083649923	 0.5562939161	 0.124436
H	-1.5067919627	 2.8240580079	 0.6576624574	 0.103145
H	-2.1309156625	 1.1428250823	-1.8245072612	 0.131184
H	-2.9676404753	 2.6029875573	-1.3580252762	 0.112554
H	-1.2007974544	 2.6753714518	-3.3516510688	 0.088894
H	 0.4387257572	 4.2480536343	-2.8095067658	 0.087103
H	 0.6782556787	 5.3044863168	-0.684335909	 0.105434
H	-0.7095726728	 4.4829983309	-0.0344590035	 0.12031
H	 2.1944884328	 3.6038568743	-0.1818114746	 0.116677
H	 1.1766829962	 3.7769554766	 1.2390983939	 0.109442
H	 1.819618691	 1.4249781608	 0.085116468	 0.243439
65.1553	129.6416	184.3838	223.3904	287.3141	314.4323	388.1737	484.607	514.3966	566.3991	638.4594	673.976	701.6417	739.4136	783.8902	825.1995	873.5476	906.0713	925.7199	993.8313	1009.471	1033.449	1044.0641	1108.5025	1134.9309	1180.4595	1217.4592	1250.7705	1275.9811	1292.923	1325.0978	1356.2145	1370.9889	1386.9135	1416.8786	1433.3932	1470.7914	1481.5761	1486.2857	1518.7525	1523.9795	1727.9324	1773.068	2991.4434	3008.0863	3052.1068	3055.5037	3063.8664	3082.6671	3098.1735	3131.2485	3135.1729	3156.7812	3609.7491
O=C1CCC=CCCN1	O=C1CCC=CCCN1	
InChI=1S/C7H11NO/c9-7-5-3-1-2-4-6-8-7/h1-2H,3-6H2,(H,8,9)/b2-1-	InChI=1S/C7H11NO/c9-7-5-3-1-2-4-6-8-7/h1-2H,3-6H2,(H,8,9)/b2-1-
