19
gdb 89771	1.97498	1.68883	1.02534	4.3302	81.33	-0.2358	0.0124	0.2482	1200.9151	0.158874	-382.04177	-382.032946	-382.032001	-382.075315	32.923	
C	-0.0306178677	 1.513441507	 0.0827162972	-0.332824
N	-0.0050584023	 0.0680895103	 0.1440849638	-0.067848
C	-1.2531718591	-0.6641039919	 0.4576849091	-0.245403
C	-0.4325601168	-1.6085746797	 1.3365866873	 0.334727
C	-0.8414701344	-2.4766295875	 2.4803365454	-0.327485
C	-0.2929092675	-3.0914645424	 1.2102792274	-0.317819
C	 0.7023931857	-0.5675950993	 1.2735954932	-0.194206
C	 2.0604924354	-1.0337529009	 0.9890443937	 0.308958
N	 3.1278238675	-1.4288470291	 0.7870788411	-0.336828
H	 0.9832270565	 1.8936149778	-0.0769732302	 0.1367
H	-0.6450383662	 1.8305550777	-0.7655141152	 0.130797
H	-0.4379747318	 1.9821831184	 0.9981965126	 0.096099
H	-1.9769653456	-0.0649198314	 1.0346595182	 0.092597
H	-1.7571713862	-1.0900511158	-0.416516697	 0.114903
H	-0.2126604021	-2.4879729802	 3.3649574517	 0.123996
H	-1.9023365876	-2.5771562314	 2.6865418121	 0.120311
H	-0.9811902718	-3.6076247252	 0.5489571315	 0.121086
H	 0.7078074717	-3.510469941	 1.2345361196	 0.140537
H	 0.7325794423	 0.0597631345	 2.1808697885	 0.101705
83.9558	114.549	159.9891	218.8597	236.8688	285.6545	315.642	370.9191	389.0447	503.3347	543.4473	556.0578	765.9168	780.7813	845.7873	878.5535	918.1438	967.2654	978.2815	996.3973	1045.592	1062.617	1079.4808	1086.807	1137.5193	1162.1498	1187.2444	1200.5603	1207.1331	1234.7485	1276.3437	1319.4263	1363.6424	1403.4036	1452.9247	1463.9252	1489.015	1497.7838	1509.9322	1521.0591	2354.9687	2933.0149	2953.0219	2968.0281	3058.3257	3067.2011	3109.8809	3125.8985	3130.5863	3205.3505	3220.6414
CN1CC2(CC2)C1C#N	CN1CC2(CC2)[C@H]1C#N	
InChI=1S/C7H10N2/c1-9-5-7(2-3-7)6(9)4-8/h6H,2-3,5H2,1H3	InChI=1S/C7H10N2/c1-9-5-7(2-3-7)6(9)4-8/h6H,2-3,5H2,1H3/t6-/m1/s1
