12
gdb 133331	2.44276	1.8736	1.06033	3.5212	65.87	-0.2339	-0.0788	0.155	995.1005	0.075656	-510.051564	-510.043706	-510.042762	-510.084028	28.728	
N	 0.060201912	 1.3449316307	-0.1559745971	-0.583227
C	 0.0012889284	 0.0115334702	-0.0388072276	 0.146343
C	-1.126318407	-0.7376501219	 0.0831801696	 0.27413
F	-2.3329871186	-0.1680036247	 0.0958075037	-0.073733
N	-1.1139805593	-2.0826520905	 0.1982147511	-0.128953
N	-0.1056739044	-2.7875681995	 0.2073098576	-0.00873
O	 1.2083070167	-2.0605631725	 0.0775102979	-0.294555
C	 1.2791956752	-0.7198765172	-0.041570649	 0.415623
N	 2.3625224242	-0.0596908529	-0.153856332	-0.55944
H	 0.977808944	 1.7556076393	-0.2399603247	 0.294838
H	-0.7713113003	 1.9077011926	-0.1638590283	 0.280686
H	 3.1770191291	-0.6719653636	-0.1429609512	 0.237017
96.1991	154.9174	194.2241	272.7515	304.5516	305.3206	431.9155	503.5157	517.6677	528.7334	588.4778	634.5441	638.0984	755.6819	758.7887	845.999	874.5051	958.3425	1087.2346	1235.1415	1296.314	1343.128	1452.5829	1570.4616	1599.8464	1701.298	1719.2367	3509.6566	3588.4021	3741.6006
NC1=C(F)N=NOC1=N	NC1=C(O[N]N=C1F)[NH]	
InChI=1S/C3H3FN4O/c4-2-1(5)3(6)9-8-7-2/h6H,5H2	InChI=1S/C3H3FN4O/c4-2-1(5)3(6)9-8-7-2/h6H,5H2
