15
gdb 10868	3.22139	2.01943	1.58864	1.5102	62.18	-0.2422	-0.0098	0.2325	828.1734	0.118443	-399.746404	-399.739107	-399.738163	-399.77771	27.605	
C	 0.0659302011	 1.4657529263	-0.0127876975	-0.52412
C	-0.0218196941	-0.0244410908	 0.066164323	 0.131125
N	 0.6233311368	-0.9649973978	-0.9794120622	-0.382691
C	 0.0137365677	-1.9451479153	 0.0296343311	-0.212447
C	 0.6235345608	-1.0030328906	 1.1183251589	 0.187575
O	 2.0040309488	-0.9683680488	 1.2544442077	-0.451057
C	-1.2063637971	-1.0082487581	 0.0095521459	 0.419776
O	-2.3865849626	-1.0225394751	-0.1665419302	-0.325681
H	 1.1070694802	 1.7936176776	 0.0660386674	 0.139778
H	-0.3494002703	 1.8414630913	-0.9530682909	 0.134458
H	-0.4989468198	 1.9170040011	 0.8086877409	 0.142042
H	 0.1012361446	-0.9603784594	-1.8593321429	 0.235147
H	 0.1090417562	-3.02221819	-0.0866281307	 0.1053
H	 0.1742314797	-1.0311762181	 2.1112554072	 0.105439
H	 2.3552360182	-0.9636842722	 0.3515710023	 0.295357
149.8237	169.3545	187.2458	256.634	323.8808	345.0867	546.5078	567.2604	571.2523	644.4438	732.6201	747.055	790.2884	806.7651	852.7874	926.2701	1012.3997	1054.2593	1092.61	1115.6602	1156.6067	1169.1093	1178.278	1222.5982	1251.5557	1326.3371	1352.3889	1414.7226	1458.1984	1480.812	1484.4281	1904.0456	3039.1045	3110.7335	3114.2566	3123.2908	3155.8463	3423.6437	3732.1623
CC12NC(C1O)C2=O	C[C@@]12N[C@@H]([C@H]1O)C2=O	
InChI=1S/C5H7NO2/c1-5-3(7)2(6-5)4(5)8/h2-3,6-7H,1H3	InChI=1S/C5H7NO2/c1-5-3(7)2(6-5)4(5)8/h2-3,6-7H,1H3/t2-,3+,5+/m0/s1
