20
gdb 86814	3.75683	0.89959	0.79779	5.959	76.17	-0.2495	0.0241	0.2736	1462.2327	0.17167	-440.312284	-440.303306	-440.302362	-440.346879	33.335	
C	 0.1072796274	 1.3919934729	 0.3880695036	-0.385754
C	 0.0192654392	-0.0390186881	-0.1104596727	 0.072332
C	 1.1190368786	-0.5635977658	-1.0715671519	-0.28357
C	 1.2949958585	-1.7661031607	-0.1072790339	 0.055691
C	 2.7091580589	-2.0612543108	 0.4044261122	-0.342462
C	 2.7540730001	-2.8087982324	 1.7390112015	 0.394735
O	 2.0265008701	-2.236706494	 2.7169354732	-0.374056
O	 3.4015625532	-3.8025291487	 1.9306201097	-0.325433
N	 0.4183113903	-1.0753485066	 0.8944923027	-0.357662
H	 1.4979955126	-1.5015785178	 2.3261266391	 0.296081
H	-0.3542393234	-1.6457919779	 1.2239033361	 0.236086
H	 1.1029925797	 1.5996736415	 0.7917826929	 0.121505
H	-0.0916805701	 2.0967364841	-0.4266476185	 0.120391
H	-0.6250930058	 1.5764551201	 1.1810055659	 0.122578
H	-0.9841975557	-0.2333379568	-0.5093349329	 0.080056
H	 0.8020100377	-0.798544243	-2.088043154	 0.115058
H	 1.9992955278	 0.0832062502	-1.1164321544	 0.111335
H	 0.8409329044	-2.6853002451	-0.4947373661	 0.090642
H	 3.26973477	-2.6451051018	-0.3282738279	 0.130963
H	 3.2350853367	-1.1090681792	 0.5513947954	 0.121483
46.5872	84.2545	111.8679	202.8776	240.4355	320.58	344.4394	379.6253	419.7874	479.4451	590.6397	642.5347	724.3723	777.5176	834.6009	881.9681	889.0674	911.8573	922.9402	948.6801	994.7368	1001.6782	1066.285	1095.616	1118.0871	1137.5327	1168.6391	1209.1558	1254.4504	1263.0491	1281.1315	1296.484	1348.9927	1351.5093	1386.183	1399.4771	1416.4904	1454.2834	1468.7493	1486.8619	1489.6492	1495.78	1865.4238	3019.7391	3027.9954	3032.8967	3040.5637	3070.148	3102.999	3111.4469	3120.4965	3132.4044	3373.5927	3517.7161
CC1CC(CC([O-])=O)[NH2+]1	C[C@H]1C[C@@H](CC(=O)O)N1	
InChI=1S/C6H11NO2/c1-4-2-5(7-4)3-6(8)9/h4-5,7H,2-3H2,1H3,(H,8,9)	InChI=1S/C6H11NO2/c1-4-2-5(7-4)3-6(8)9/h4-5,7H,2-3H2,1H3,(H,8,9)/t4-,5-/m0/s1
