20
gdb 78696	5.17597	1.11331	1.09921	1.5647	85.1	-0.2223	0.0878	0.3102	1199.9737	0.171008	-365.894369	-365.886693	-365.885749	-365.926138	31.121	
C	-0.190525428	 1.6034079025	 0.0364447134	-0.417799
C	-0.0405326399	 0.0979360894	-0.0496675393	 0.059551
C	 0.8750434156	-0.5594491306	-1.0819859837	-0.073785
C	 2.1205768118	-0.2230898444	-0.1989885308	-0.132262
N	 1.0161917293	-0.52978581	 0.8667284024	-0.174667
C	 1.0860042732	-1.7530297448	-0.0991699457	-0.120463
C	 2.595721239	-1.6608723761	-0.1646227671	 0.451097
C	 3.6277715128	-2.4086139294	-0.9400712648	-0.35933
C	 3.6842011222	-2.3479760919	 0.5827993104	-0.341863
H	 0.7611444556	 2.1211462737	-0.117418331	 0.115427
H	-0.895223012	 1.9639622623	-0.7208416702	 0.116371
H	-0.5768543956	 1.8916431874	 1.0196451575	 0.127542
H	-1.0125821606	-0.393748036	 0.088207492	 0.067201
H	 0.8193040776	-0.5946016189	-2.1759891857	 0.062533
H	 2.7006018372	 0.699409665	-0.1602505945	 0.082194
H	 0.433091354	-2.6143730164	 0.0550621399	 0.079003
H	 3.3496286003	-3.3514054833	-1.4006288152	 0.113736
H	 4.3681943389	-1.8441730949	-1.4981735313	 0.113464
H	 4.4616602312	-1.7429190746	 1.0379549502	 0.115826
H	 3.4420694475	-3.2498364789	 1.1356751635	 0.116224
137.3875	170.8573	208.8336	243.6359	314.5194	318.0203	468.9602	575.6826	586.2877	718.3003	761.7675	772.9898	813.4319	834.7208	841.8555	863.3476	888.9139	919.6393	959.8294	994.9558	1028.9792	1041.5408	1048.4741	1063.5796	1069.3478	1076.0312	1115.5435	1122.92	1148.6944	1163.9758	1181.679	1188.7316	1227.1664	1241.1864	1261.1813	1288.1098	1399.4603	1416.7619	1438.4721	1461.9296	1493.4289	1494.0878	1525.1297	3018.2551	3033.4298	3038.0907	3097.6026	3099.6348	3106.865	3114.3664	3122.6632	3127.478	3200.1849	3214.9561
CC1C2C3N1C2C31CC1	C[C@H]1[C@H]2[C@H]3N1[C@@H]2C13CC1	
InChI=1S/C8H11N/c1-4-5-6-8(2-3-8)7(5)9(4)6/h4-7H,2-3H2,1H3	InChI=1S/C8H11N/c1-4-5-6-8(2-3-8)7(5)9(4)6/h4-7H,2-3H2,1H3/t4-,5-,6+,7-/m0/s1
