22
gdb 15081	2.21123	1.61212	1.01664	1.7043	78.14	-0.2616	0.0843	0.3458	1231.1704	0.198781	-350.192238	-350.182558	-350.181613	-350.226978	34.91	
C	-0.1952916126	 0.5058879028	-0.6464168783	-0.386737
C	-0.0210144933	-0.8610248163	 0.0247645095	-0.182713
C	 0.9514979597	-0.8675629243	 1.2195186404	 0.008596
C	 0.9807962825	-2.2223979495	 1.9576842957	-0.179932
C	-0.3156289132	-2.5830054983	 2.6899372058	-0.393868
C	 2.3567037756	-0.5132853244	 0.7738201351	 0.09435
C	 2.935467374	 0.8293129497	 0.9117336338	-0.183008
O	 3.3016959589	-0.2207076391	 1.8075914288	-0.245871
H	 0.7437695158	 0.8746128908	-1.0699146375	 0.119588
H	-0.9263622722	 0.4519525219	-1.4590958479	 0.112796
H	-0.551595236	 1.2544899964	 0.0702542159	 0.113672
H	-1.000237294	-1.2167308695	 0.3623782214	 0.100044
H	 0.3249280786	-1.5940159158	-0.7176450863	 0.09372
H	 0.6322729819	-0.0980593159	 1.9374735601	 0.06893
H	 1.2330582472	-3.0160785665	 1.2405551486	 0.089265
H	 1.8025888968	-2.1892952665	 2.6814696913	 0.116374
H	-1.158762195	-2.7125285334	 2.0045020293	 0.116617
H	-0.1993323253	-3.5200862848	 3.2433204522	 0.113714
H	-0.5899848802	-1.8050285251	 3.4113870788	 0.114973
H	 2.76068845	-1.1538949797	-0.0151127432	 0.086653
H	 3.7193517126	 1.1602611395	 0.231226961	 0.111512
H	 2.3354959282	 1.6269875179	 1.3483094955	 0.111327
73.7231	86.7467	101.0024	173.9975	200.7899	212.3958	258.1917	291.0038	349.5574	413.3372	475.6884	503.0954	744.6455	773.2343	845.7063	861.1524	885.2191	926.0665	969.6168	1008.6459	1022.5545	1044.0421	1057.8878	1092.9782	1139.9327	1157.5404	1172.1814	1178.0688	1194.2553	1271.3443	1282.5546	1292.408	1328.5461	1342.5434	1378.0124	1383.077	1411.8391	1415.1008	1448.7062	1486.7895	1491.1524	1500.0596	1501.3788	1506.3353	1510.4547	1531.6354	2999.7287	3012.3317	3020.0387	3033.4325	3033.8233	3063.0748	3066.8715	3071.6824	3080.0636	3098.603	3099.2033	3106.5587	3109.9142	3164.2645
CCC(CC)C1CO1	CCC(CC)[C@H]1CO1	
InChI=1S/C7H14O/c1-3-6(4-2)7-5-8-7/h6-7H,3-5H2,1-2H3	InChI=1S/C7H14O/c1-3-6(4-2)7-5-8-7/h6-7H,3-5H2,1-2H3/t7-/m1/s1
