20
gdb 114013	3.23534	0.78235	0.67816	3.1216	78.22	-0.2402	0.0353	0.2756	1663.6342	0.169833	-440.280903	-440.270911	-440.269967	-440.317456	35.021	
C	-0.0616385706	 0.9719878791	-0.3021423895	-0.240171
O	-0.4004505974	-0.0589532571	 0.6077738134	-0.234474
C	 0.706328453	-0.5795193074	 1.2724763669	 0.125706
C	 0.5282779883	-1.9199909071	 1.906766901	-0.3401
C	 1.4461875693	-1.7704330284	 0.7002673906	-0.049272
C	 1.0318272299	-2.3692909703	-0.6251654354	-0.185899
N	 1.2667955358	-3.8066719946	-0.6779131812	-0.270247
C	 2.0747564821	-4.3978403369	-1.5964112842	 0.153124
O	 2.6559021056	-3.8270442314	-2.4959530044	-0.325132
H	 0.609223455	 0.6140557267	-1.0952997259	 0.116868
H	-0.9937048075	 1.3216969459	-0.7513548299	 0.130952
H	 0.4250954037	 1.8148282741	 0.2108039506	 0.110829
H	 1.2998750121	 0.1684000417	 1.8006925742	 0.088349
H	 0.9578904791	-2.1002662379	 2.8854305957	 0.117701
H	-0.4346774035	-2.392341206	 1.7381709915	 0.122224
H	 2.51350309	-1.8128525394	 0.8997841426	 0.095464
H	-0.0258423692	-2.1519310226	-0.8102006922	 0.120245
H	 1.610861348	-1.9464049275	-1.4495855158	 0.147001
H	 0.8682382878	-4.3826363393	 0.0468444764	 0.246051
H	 2.1447156784	-5.4921494115	-1.4330398844	 0.070781
31.4266	63.0411	92.9531	140.9299	177.1953	209.1847	258.3227	271.2658	353.8236	405.2877	482.8856	540.8065	604.6597	746.5293	782.5951	828.5486	879.144	908.9726	978.9949	1030.0848	1041.6198	1049.6592	1069.7392	1111.4543	1132.4195	1161.8241	1169.6285	1185.2246	1211.713	1224.414	1258.5255	1285.0106	1351.1594	1396.3747	1420.8167	1431.0512	1473.4648	1486.7374	1491.5329	1498.7231	1510.426	1531.5709	1804.7838	2929.8985	2988.4603	3042.1118	3048.015	3087.1981	3112.7807	3123.3348	3131.6329	3147.6815	3220.9194	3631.5138
COC1CC1CNC=O	CO[C@H]1C[C@H]1CNC=O	
InChI=1S/C6H11NO2/c1-9-6-2-5(6)3-7-4-8/h4-6H,2-3H2,1H3,(H,7,8)	InChI=1S/C6H11NO2/c1-9-6-2-5(6)3-7-4-8/h4-6H,2-3H2,1H3,(H,7,8)/t5-,6-/m0/s1
