19
gdb 76428	2.99968	1.04259	0.9595	4.7139	76.18	-0.2322	0.0275	0.2597	1301.0589	0.157781	-419.19722	-419.187027	-419.186082	-419.232399	36.764	
C	-0.038596891	 1.4543272934	-0.2909240216	-0.422579
C	 0.0540803665	-0.0273047238	 0.0052771515	-0.109785
C	 1.3916919916	-0.7646442027	-0.0289318601	 0.024976
O	 2.5687028515	-0.0233275663	-0.1685532063	-0.420537
C	 0.671890694	-0.5507276935	 1.2853775701	 0.299554
N	 1.1771169314	 0.3921870762	 2.2568547728	-0.574108
C	-0.0136661206	-1.7415892327	 1.9420610082	-0.39039
C	 0.9045015681	-2.5296812689	 2.7687619119	 0.263428
N	 1.6462287292	-3.128136941	 3.4225303794	-0.312228
H	 0.9158443941	 1.9612233742	-0.1300890339	 0.122315
H	-0.3284463629	 1.6195484719	-1.3340354165	 0.118139
H	-0.7847597761	 1.9388434333	 0.3458639493	 0.134511
H	-0.7910938696	-0.6054589815	-0.3623393517	 0.083589
H	 1.4264249287	-1.7634479683	-0.4647651484	 0.088236
H	 2.6436266753	 0.2594541984	-1.0861978406	 0.294805
H	 1.7466108998	-0.1120805117	 2.9346609695	 0.244462
H	 1.8215167372	 1.0261147553	 1.7931679901	 0.246221
H	-0.8335648828	-1.3852813555	 2.5767881725	 0.161707
H	-0.4484911143	-2.398551217	 1.1826588037	 0.147682
59.2004	102.6529	121.8842	175.798	206.4647	216.72	264.666	276.5667	327.7608	351.0124	390.0674	433.4095	538.0912	594.2242	614.8302	719.0023	830.6964	837.092	901.5288	935.783	974.0177	1007.4434	1034.2839	1061.9893	1082.2518	1133.22	1164.0236	1199.0253	1221.6961	1263.4025	1301.3462	1338.2309	1356.56	1381.1415	1417.6852	1453.3083	1474.9427	1500.3907	1505.3682	1672.764	2358.8558	3040.8199	3045.4898	3090.7601	3094.0609	3101.1887	3117.0329	3131.5125	3474.3309	3558.3628	3804.9705
CC1C(O)C1(N)CC#N	C[C@H]1[C@@H](O)[C@]1(N)CC#N	
InChI=1S/C6H10N2O/c1-4-5(9)6(4,8)2-3-7/h4-5,9H,2,8H2,1H3	InChI=1S/C6H10N2O/c1-4-5(9)6(4,8)2-3-7/h4-5,9H,2,8H2,1H3/t4-,5+,6-/m0/s1
