18
gdb 59227	2.46505	1.45971	1.02876	2.54	72.68	-0.2434	-0.0252	0.2182	1168.3339	0.145963	-439.047847	-439.038934	-439.037989	-439.081939	32.925	
C	 0.5322760608	 0.1061582219	-1.5381437384	-0.401067
C	 0.1040258226	 0.0910653187	-0.0705731695	 0.107693
O	 0.106572733	 1.3862709093	 0.510306247	-0.415367
C	-1.2752307005	-0.5515311029	 0.1010442845	-0.110288
N	-1.4473232769	-2.0140871216	-0.2525301971	-0.130679
C	-0.6981295631	-2.7727127116	 0.7465557068	-0.243058
C	-2.0505060407	-2.2753881926	 1.1289312635	-0.156721
C	-1.9463648131	-0.8154231747	 1.4731200194	 0.398213
O	-2.4082791955	-0.1228094691	 2.3307858298	-0.302946
H	 1.5233152324	 0.5569147946	-1.6363405828	 0.127321
H	 0.5594268197	-0.9075051581	-1.949461497	 0.135668
H	-0.1745618819	 0.6910244627	-2.1394592425	 0.110291
H	 0.8481028573	-0.4626616223	 0.5109457713	 0.093139
H	-0.5418761264	 1.9284152683	 0.0468625726	 0.283606
H	-2.0006112001	 0.014278661	-0.5010829775	 0.106174
H	-0.6230873745	-3.8311305191	 0.5167764038	 0.139065
H	 0.1851233831	-2.349685779	 1.2158199467	 0.133258
H	-2.894998936	-2.9336931954	 1.2956782294	 0.125699
42.5275	121.0674	164.0165	220.7737	249.9298	252.655	289.3712	376.055	443.325	499.6321	511.6243	618.1619	717.8098	739.1532	824.5458	849.4961	895.0425	944.1828	969.3411	1030.4493	1047.7452	1065.9666	1094.4717	1104.1495	1120.8131	1141.5567	1167.5995	1210.8345	1229.8173	1254.3184	1305.1762	1329.9863	1385.3825	1402.6896	1419.4447	1489.4768	1491.5712	1503.7902	1895.7707	3014.9579	3028.7363	3059.6717	3101.8753	3122.265	3124.6978	3191.2257	3208.855	3798.323
CC(O)C1N2CC2C1=O	C[C@@H](O)[C@H]1N2C[C@H]2C1=O	
InChI=1S/C6H9NO2/c1-3(8)5-6(9)4-2-7(4)5/h3-5,8H,2H2,1H3	InChI=1S/C6H9NO2/c1-3(8)5-6(9)4-2-7(4)5/h3-5,8H,2H2,1H3/t3-,4+,5-,7?/m1/s1
