15
gdb 101998	3.03556	0.72875	0.60578	3.8882	76.51	-0.2627	-0.0807	0.182	1745.5612	0.107492	-457.719963	-457.709627	-457.708682	-457.757728	32.977	
C	 0.208143761	 1.4228363038	-0.0119621408	-0.244224
O	 0.1727182711	 0.0371768132	 0.2991357044	-0.241383
C	-1.0965806316	-0.5478099214	 0.0846690332	-0.13222
C	-1.3137321522	-0.7648056224	-1.435331954	 0.145245
O	-2.2823069941	-0.3929216106	-2.0342194285	-0.21784
C	-1.1605678639	-1.8393300214	 0.749727551	 0.051126
C	-1.2507730731	-2.93816668	 1.2425691241	 0.096878
C	-1.3125477388	-4.239017209	 1.8639178296	 0.0222
O	-2.2908267932	-4.9483990409	 1.8598161704	-0.220562
H	 1.2240729686	 1.7609475304	 0.1983194302	 0.144191
H	-0.0228904556	 1.6197459292	-1.0678351021	 0.126638
H	-0.4983947235	 1.9888680452	 0.6114585954	 0.123613
H	-1.9123152262	 0.0990807375	 0.4430940791	 0.127525
H	-0.4532038479	-1.272390538	-1.9207767471	 0.109136
H	-0.3692720006	-4.5464541256	 2.3579114653	 0.109676
40.272	45.9566	77.8275	84.135	126.0696	178.7198	198.2706	251.9211	333.9048	338.2279	460.2702	489.8584	512.0244	648.6616	847.0507	969.0833	1015.3313	1018.529	1020.8214	1120.5697	1160.2551	1181.1602	1216.7324	1251.5182	1347.668	1392.8279	1419.7398	1477.9478	1489.011	1507.4841	1770.5168	1842.6021	2325.3171	2914.9478	2930.4584	2993.0265	2997.2192	3050.653	3136.9338
COC(C=O)C#CC=O	CO[C@@H](C=O)C#CC=O	
InChI=1S/C6H6O3/c1-9-6(5-8)3-2-4-7/h4-6H,1H3	InChI=1S/C6H6O3/c1-9-6(5-8)3-2-4-7/h4-6H,1H3/t6-/m1/s1
