22
gdb 102465	2.15827	1.06245	0.8366	1.7972	80.12	-0.2581	0.0296	0.2878	1491.4598	0.191998	-441.487468	-441.476281	-441.475337	-441.52479	39.159	
C	 0.7000567839	-0.2566500432	-1.3295804506	-0.38706
C	-0.0903311773	-0.1335825366	-0.0247461823	-0.175222
C	 0.6396045518	-0.6896125389	 1.218424829	-0.035141
C	-0.1025561891	-0.319836958	 2.5068106111	-0.095189
O	-0.0782077438	 1.0973449939	 2.6242167722	-0.425276
C	 0.8091320501	-2.1903280226	 1.1291173985	 0.388824
N	-0.1255814367	-2.9853469037	 1.4518107186	-0.530849
O	 2.047717465	-2.5036140374	 0.6542666905	-0.230724
C	 2.356221468	-3.8781584283	 0.4772469248	-0.268074
H	 0.914543961	-1.2999924926	-1.5810973409	 0.113826
H	 0.1401531659	 0.1781742918	-2.1635439794	 0.108978
H	 1.6594521719	 0.2678654122	-1.262368724	 0.115656
H	-0.3125119265	 0.9180625927	 0.1777994041	 0.116565
H	-1.0516140826	-0.6536142812	-0.1169918615	 0.10603
H	 1.6393028043	-0.2436795125	 1.2653837773	 0.095837
H	-1.127787201	-0.7094959213	 2.4611276401	 0.110677
H	 0.3919296253	-0.7963465531	 3.3665900178	 0.086721
H	-0.6600339602	 1.3458226503	 3.3476171156	 0.287339
H	 0.1158082555	-3.9664631985	 1.3257848495	 0.214261
H	 1.678733193	-4.3532794743	-0.2427677818	 0.130462
H	 3.375365259	-3.9126396777	 0.0906802468	 0.141975
H	 2.3104419426	-4.4238439712	 1.4276699047	 0.130383
28.2698	78.0065	109.3483	125.4054	185.9964	200.4557	215.5698	226.0158	250.1666	279.6467	338.4608	362.0165	386.8641	514.0352	660.4193	703.7029	782.3421	839.5942	860.6896	904.9161	981.8034	995.0182	1035.3088	1062.6339	1076.0388	1122.5237	1131.079	1159.5025	1174.7124	1217.1813	1222.6442	1256.524	1274.7711	1303.5486	1332.0471	1372.7751	1399.1804	1415.5369	1451.241	1472.3061	1491.0407	1491.7536	1500.1975	1503.4487	1505.9733	1519.3127	1725.6982	2987.2848	3013.8152	3034.0764	3035.7051	3036.8049	3061.0469	3076.0887	3086.2676	3101.6229	3110.6737	3143.4398	3505.1193	3839.5315
CCC(CO)C(=N)OC	CC[C@@H](CO)[C]([NH])OC	
InChI=1S/C6H13NO2/c1-3-5(4-8)6(7)9-2/h5,7-8H,3-4H2,1-2H3	InChI=1S/C6H13NO2/c1-3-5(4-8)6(7)9-2/h5,7-8H,3-4H2,1-2H3/t5-/m0/s1
