12
gdb 75678	3.11944	1.31663	1.10534	2.5662	61.45	-0.2653	-0.0686	0.1967	1043.3327	0.074905	-472.582978	-472.574915	-472.573971	-472.616105	28.234	
O	-0.0810924679	 1.4474028734	-0.1530965713	-0.413189
C	 0.029745268	 0.0719107147	 0.0083261313	-0.071862
C	 0.2509171696	-0.5721026332	 1.429580734	 0.400252
O	 1.1318226279	-0.5196649539	 2.2289642937	-0.281169
C	-1.0590569541	-1.3503892346	 1.298870573	-0.18438
O	-2.0427658311	-0.3140009474	 1.1311889056	-0.249676
C	-1.3024997736	-0.6920789242	-0.0240837093	 0.32768
C	-1.9917187142	-1.2124623971	-1.1636205279	 0.206212
N	-2.5159139352	-1.6213394809	-2.1090563749	-0.321864
H	 0.7681974925	 1.8503747428	 0.058983469	 0.308886
H	 0.7548354404	-0.3932620106	-0.6807813566	 0.121293
H	-1.3892800926	-2.3156174689	 1.6630412336	 0.157817
84.7309	115.3337	151.742	193.989	240.8794	276.094	431.7421	507.7784	533.3237	565.2905	609.1024	686.7157	727.7356	835.0122	867.118	948.3578	1005.2064	1027.8262	1141.1773	1165.063	1195.2328	1211.4298	1277.7665	1362.5096	1437.7043	1917.8127	2364.9655	2975.9473	3206.8059	3814.9614
OC1C(=O)C2OC12C#N	O[C@H]1C(=O)[C@H]2O[C@@]12C#N	
InChI=1S/C5H3NO3/c6-1-5-3(8)2(7)4(5)9-5/h3-4,8H	InChI=1S/C5H3NO3/c6-1-5-3(8)2(7)4(5)9-5/h3-4,8H/t3-,4+,5-/m0/s1
