17
gdb 73527	2.80553	1.83283	1.41115	1.2647	73.92	-0.2147	-0.0097	0.2051	945.0809	0.138242	-418.017049	-418.009661	-418.008717	-418.048395	29.677	
O	-0.0679559953	 1.420502532	 0.1491149061	-0.482378
C	-0.0516548021	-0.0145392933	 0.1122474407	 0.331813
C	 0.9048498998	-0.6013192642	 1.1636199435	-0.298761
C	 2.244658763	-0.6697744312	 0.3600942985	-0.180254
N	 1.8718361722	-0.8610173321	-1.0648901705	-0.312611
C	 0.644335291	-0.541752531	-1.1425039985	 0.360611
N	-0.3056504685	-0.7302600364	-2.1280311567	-0.382805
C	-1.5454161593	-0.8238125789	-1.442720461	-0.022361
C	-1.4658828415	-0.470887594	-0.1508043955	-0.218729
H	 0.845275074	 1.7297052396	 0.1236846888	 0.281331
H	 0.955470488	 0.0102669071	 2.0676618605	 0.104473
H	 0.5974640436	-1.613525281	 1.4424736058	 0.113057
H	 2.8471135062	 0.2414603757	 0.4808992331	 0.101533
H	 2.8794710944	-1.5026143299	 0.6758798913	 0.113718
H	-0.1014494847	-1.3331240387	-2.9112623944	 0.256497
H	-2.4166739174	-1.1356922299	-2.003030162	 0.126693
H	-2.2976822835	-0.368834014	 0.5293997003	 0.108173
160.9816	210.3928	237.094	281.8652	311.6316	367.1626	494.634	538.6416	590.8918	648.0291	686.993	702.0679	740.9092	764.7543	841.4784	852.1131	917.278	918.7776	974.178	988.8417	1036.4183	1056.0215	1099.2773	1107.5389	1157.1937	1190.3767	1233.532	1271.8795	1284.2914	1317.2828	1365.689	1384.292	1406.696	1476.8319	1507.1522	1645.8459	1759.2359	3010.881	3060.0236	3080.85	3116.488	3226.0425	3254.5648	3616.2735	3787.848
OC12CCN=C1NC=C2	O[C@]12CC[N][C]1NC=C2	
InChI=1S/C6H8N2O/c9-6-1-3-7-5(6)8-4-2-6/h1,3,9H,2,4H2,(H,7,8)	InChI=1S/C6H8N2O/c9-6-1-3-7-5(6)8-4-2-6/h1,3,9H,2,4H2,(H,7,8)/t6-/m1/s1
