19
gdb 36718	5.41479	0.75042	0.69968	1.3691	84.8	-0.247	0.0139	0.2609	1617.5463	0.158067	-385.851265	-385.842176	-385.841231	-385.886266	33.175	
C	 0.0151537413	-1.2041165822	 0.1259093921	-0.418639
C	 0.0330428372	-0.0097843222	 0.0030912419	 0.283997
C	 0.0203455798	 1.4392404729	-0.1551273976	-0.215911
O	 1.3162581404	 1.9574512788	 0.0692690891	-0.259374
C	 1.3767750042	 3.3825420379	 0.0377078324	 0.128428
C	 2.7326483629	 3.826409574	 0.6291739435	-0.246451
C	 3.2417021424	 4.9758943957	-0.2751161094	-0.257556
C	 2.3934018197	 4.8380846993	-1.5159803337	-0.060916
C	 1.3864081847	 3.9833256241	-1.3523119867	-0.087885
H	 0.0066477343	-2.2601620879	 0.2368104809	 0.199024
H	-0.342319213	 1.6896955935	-1.1656229899	 0.118603
H	-0.6997204844	 1.8821424699	 0.5550625063	 0.116143
H	 0.525689323	 3.7741410594	 0.6227152976	 0.065494
H	 2.6576547665	 4.1076071495	 1.6815726263	 0.100872
H	 3.4018071149	 2.9641950554	 0.5635071202	 0.127167
H	 3.0871343976	 5.9581800907	 0.1915639341	 0.109382
H	 4.3146557646	 4.9062125838	-0.4872812096	 0.107974
H	 2.5876277036	 5.4080119834	-2.4186843899	 0.095764
H	 0.6314120502	 3.7527182341	-2.0953799877	 0.093885
45.4539	65.4007	95.9279	141.7577	255.5181	296.4158	335.625	375.0476	467.8084	566.5471	607.6819	655.3113	673.0482	754.6223	778.334	845.9647	894.8703	924.8728	967.8735	980.6987	984.5649	1016.9031	1033.9902	1055.1	1090.5546	1112.1798	1146.9659	1187.835	1236.0625	1254.2351	1291.141	1307.7849	1333.0176	1349.2036	1388.3892	1427.0292	1481.6032	1499.1572	1501.8085	1686.9683	2247.8328	2936.7868	2952.6614	2977.3427	3017.6429	3053.8717	3072.1339	3118.6371	3179.331	3207.2096	3506.8266
C#CCOC1CCC=C1	C#CCO[C@H]1CCC=C1	
InChI=1S/C8H10O/c1-2-7-9-8-5-3-4-6-8/h1,3,5,8H,4,6-7H2	InChI=1S/C8H10O/c1-2-7-9-8-5-3-4-6-8/h1,3,5,8H,4,6-7H2/t8-/m1/s1
