20
gdb 62679	2.44007	1.70848	1.28705	1.0852	79.13	-0.2036	0.0688	0.2723	1063.8676	0.168764	-403.049378	-403.040373	-403.039429	-403.082199	35.497	
C	-0.1402708248	 1.6139112595	-0.0343064106	-0.468951
C	 0.0787927512	 0.107475517	 0.0264547507	 0.222175
C	-1.0847195565	-0.6293059991	-0.6420259684	-0.435157
C	 1.3818469767	-0.6686825511	-0.1947508915	-0.164483
C	 2.6620660459	-0.1634367143	 0.5269792226	-0.063635
N	 2.4049738662	 1.1054395811	 1.2593667279	-0.341612
C	 1.9797103836	-0.1951057227	 1.833669499	-0.12679
C	 0.6699086186	-0.71862499	 1.1516334081	 0.329796
O	 0.0375938774	-1.8170066678	 1.7178136912	-0.45232
H	-0.1944518604	 1.9323991896	-1.0827305848	 0.104818
H	-1.1054735209	 1.8619007444	 0.4255998085	 0.096783
H	 0.6450912529	 2.1731004105	 0.4612170478	 0.15742
H	-1.1852662748	-0.2992688859	-1.6815606602	 0.113951
H	-0.956001905	-1.7129811483	-0.6296392547	 0.127078
H	-2.0276060141	-0.3993283581	-0.1319380681	 0.105606
H	 1.4340771329	-1.4425501044	-0.9509651993	 0.090823
H	 3.6696278046	-0.4564692628	 0.2613424238	 0.094656
H	 3.2791161225	 1.3549250469	 1.7241245029	 0.228133
H	 2.3256566485	-0.5426065891	 2.799057334	 0.09504
H	-0.6850198745	-1.4957592455	 2.2694389612	 0.286666
129.4173	163.4759	190.712	228.8072	263.5077	287.7766	316.9776	354.6593	378.3061	408.7652	495.1986	596.53	617.6248	688.6936	718.6429	802.2549	832.76	900.5156	913.4632	922.3463	932.0633	961.9334	969.9239	1016.7199	1032.1772	1083.1544	1099.0512	1117.1865	1149.0405	1184.0508	1217.3058	1241.7016	1272.967	1303.7033	1331.086	1357.3226	1395.472	1412.9056	1443.3971	1480.6432	1489.9139	1509.11	1519.585	3018.005	3029.864	3067.3431	3086.3196	3132.3095	3182.3311	3189.6402	3200.898	3208.0545	3452.3586	3780.781
CC1(C)C2C3NC3C12O	CC1(C)[C@H]2[C@H]3N[C@H]3[C@@]12O	
InChI=1S/C7H11NO/c1-6(2)4-3-5(8-3)7(4,6)9/h3-5,8-9H,1-2H3	InChI=1S/C7H11NO/c1-6(2)4-3-5(8-3)7(4,6)9/h3-5,8-9H,1-2H3/t3-,4-,5-,7-/m1/s1
