20
gdb 88638	3.85531	0.9524	0.85846	2.6547	80.79	-0.2139	-0.0226	0.1913	1389.0484	0.16948	-403.116509	-403.107521	-403.106576	-403.150723	33.676	
C	 0.1308020303	 1.5207926397	-0.239816779	-0.409442
C	 0.0234374329	 0.0350920986	 0.0312432763	-0.014172
C	 1.2184693129	-0.8858025986	-0.1590927725	-0.333253
C	 0.6377613986	-0.6411877394	 1.2246750968	 0.055049
N	 1.2993226118	 0.0372223488	 2.3061321858	-0.098975
C	 2.4204558176	 0.9850469757	 2.1137806995	-0.293301
C	 3.1065049132	 0.3185974645	 3.3149408095	 0.388498
O	 4.0481777548	 0.5720556705	 4.0019522204	-0.279906
C	 2.0612716135	-0.8021783033	 3.2611048294	-0.286261
H	 1.1329002028	 1.9090108356	-0.0419906293	 0.119508
H	-0.0977298884	 1.7348396112	-1.2894459843	 0.118893
H	-0.5733645625	 2.0880536894	 0.3784047958	 0.12317
H	-0.9361735591	-0.3827305434	-0.2642177453	 0.087197
H	 1.0833609912	-1.8567423834	-0.6237490177	 0.110611
H	 2.1569800132	-0.4047723566	-0.4159254739	 0.111329
H	 0.0484863123	-1.4616706281	 1.6260267027	 0.096613
H	 3.01551417	 0.8370538429	 1.1986804671	 0.119513
H	 2.1636151161	 2.045259878	 2.2033806663	 0.134595
H	 1.536924069	-1.0532282522	 4.1896065594	 0.131193
H	 2.4865486998	-1.72217099	 2.8264065331	 0.119141
58.7984	83.3298	141.2192	201.5919	235.2021	256.6646	342.2183	440.6024	452.4839	486.4311	509.1925	645.4655	733.6441	755.5831	788.4892	839.7948	887.1616	928.2711	949.8074	986.2004	1024.2957	1040.3809	1063.0423	1083.4477	1099.3162	1107.2304	1129.5951	1154.4199	1171.7134	1194.29	1202.0383	1255.6448	1281.5134	1317.7955	1389.7549	1421.2863	1425.5309	1460.532	1486.2083	1490.5444	1497.3921	1506.2912	1922.7768	2971.618	2986.4732	3035.7821	3064.2431	3072.4726	3092.7166	3113.5025	3127.3997	3130.6019	3141.0828	3209.9055
CC1CC1N1CC(=O)C1	C[C@H]1C[C@H]1N1CC(=O)C1	
InChI=1S/C7H11NO/c1-5-2-7(5)8-3-6(9)4-8/h5,7H,2-4H2,1H3	InChI=1S/C7H11NO/c1-5-2-7(5)8-3-6(9)4-8/h5,7H,2-4H2,1H3/t5-,7+/m0/s1
