15
gdb 74831	4.12409	1.22843	1.06384	3.5085	68.97	-0.2354	-0.0303	0.2051	1095.8976	0.112772	-453.960828	-453.953167	-453.952223	-453.992839	29.354	
N	-0.045112534	 1.3001306182	-0.0724096869	-0.5771
C	-0.0678445052	-0.0602877916	-0.0028815494	 0.452719
N	-1.0985222027	-0.8187552025	 0.052583067	-0.331889
C	-0.6237137744	-2.1623296384	-0.0522080883	-0.038893
C	 0.1338314088	-2.5508685459	-1.2853720796	-0.34164
C	 0.9304561794	-2.0390127967	-0.1112803512	 0.274156
O	 1.1703369599	-0.6443939205	-0.0531746436	-0.277153
C	 1.8616008958	-2.872572941	 0.6611504752	 0.084539
O	 1.8656599711	-4.0812800679	 0.6294539076	-0.277078
H	 0.7877943612	 1.7439426058	 0.2828980511	 0.269334
H	-0.9135428707	 1.7434488463	 0.1831606449	 0.275662
H	-1.1131983547	-2.9214873755	 0.5465107538	 0.12229
H	 0.2655977844	-3.6124651193	-1.4643449816	 0.15013
H	 0.0638345616	-1.9144883415	-2.1612025383	 0.1317
H	 2.5566934195	-2.2906893096	 1.3044281993	 0.083225
118.1719	156.159	229.654	243.9699	353.776	395.7224	416.7764	475.2816	524.6588	539.2645	649.1954	720.904	738.6306	756.5599	795.953	907.8083	936.5404	971.6183	1004.2271	1057.9379	1068.1258	1076.3114	1107.6245	1201.9642	1222.7668	1291.9512	1352.2644	1402.0388	1432.5084	1450.7853	1613.8284	1733.6262	1803.2845	2902.1388	3133.2216	3186.829	3234.6232	3589.5785	3704.9189
NC1=NC2CC2(O1)C=O	NC1=N[C@H]2C[C@]2(O1)C=O	
InChI=1S/C5H6N2O2/c6-4-7-3-1-5(3,2-8)9-4/h2-3H,1H2,(H2,6,7)	InChI=1S/C5H6N2O2/c6-4-7-3-1-5(3,2-8)9-4/h2-3H,1H2,(H2,6,7)/t3-,5-/m0/s1
