17
gdb 30598	4.38696	1.03528	0.85402	4.4891	80.04	-0.2172	-0.0118	0.2054	1328.6968	0.137871	-418.0775	-418.068875	-418.067931	-418.11145	31.229	
C	 0.0306124476	 1.4079291311	-0.1417933827	-0.320838
N	-0.0319405418	-0.0439467862	-0.0986191968	-0.349309
C	-1.2520511665	-0.6676839126	 0.0951073214	 0.315789
O	-2.2725154905	-0.0447650499	 0.3353032123	-0.378562
C	-1.2190629544	-2.1370308854	 0.01972701	 0.226548
C	-2.2639598801	-3.01424744	-0.1949222823	-0.189681
C	-1.7318043565	-4.3262730726	-0.2020011294	-0.145792
C	-0.3747616031	-4.2207615845	 0.0212282051	-0.082861
N	-0.0668627421	-2.8930741229	 0.1332472178	-0.325344
H	 1.0573780636	 1.7343007927	 0.0422040067	 0.117859
H	-0.3078287871	 1.8175877374	-1.1024531154	 0.126865
H	-0.6214802745	 1.8037330044	 0.6372507113	 0.162926
H	 0.6375092875	-0.5374522656	-0.6691094785	 0.236839
H	-3.2887395913	-2.7156373991	-0.348113256	 0.119047
H	-2.2758344566	-5.2453744064	-0.3552473281	 0.102158
H	 0.3880750175	-4.9773951939	 0.115115815	 0.123717
H	 0.8158456782	-2.5332840864	 0.4539142797	 0.26064
72.0448	85.7519	121.2205	149.6576	236.7422	294.4539	386.1006	469.0881	511.9368	557.9525	626.7935	652.6175	737.1448	769.8361	807.9454	830.4356	890.0806	894.0528	946.3559	1035.2578	1052.8297	1116.9247	1141.8512	1147.2769	1166.6318	1195.3041	1275.5194	1310.1965	1438.9186	1443.4793	1452.8119	1469.1205	1484.1409	1501.6902	1536.0231	1604.3281	1761.5881	3020.2206	3095.7402	3153.899	3247.7481	3265.1801	3273.5134	3615.6147	3672.1887
CNC(=O)C1=CC=CN1	CNC(=O)c1ccc[nH]1	
InChI=1S/C6H8N2O/c1-7-6(9)5-3-2-4-8-5/h2-4,8H,1H3,(H,7,9)	InChI=1S/C6H8N2O/c1-7-6(9)5-3-2-4-8-5/h2-4,8H,1H3,(H,7,9)
