19
gdb 52425	2.51057	0.98625	0.78692	4.3914	73.23	-0.2618	0.014	0.2758	1474.1365	0.157242	-460.155459	-460.145946	-460.145002	-460.191692	33.317	
O	 0.7055208952	 0.5031706582	-1.2246218916	-0.280875
C	 0.7023313607	 1.6458941471	-0.8784938945	 0.178495
O	 1.0826873174	 2.0254059216	 0.3605420585	-0.180247
C	 1.1749783927	 3.4284701988	 0.6167673549	-0.104183
C	 2.5614344834	 3.947432546	 0.2835848599	-0.059806
O	 2.7207644143	 3.8704702415	-1.1189763885	-0.254243
C	 4.0239704657	 4.1225442284	-1.5544069201	 0.143179
C	 5.0416321815	 3.0123494503	-1.5057514466	-0.288978
C	 4.4386813496	 3.4573471119	-2.8243633728	-0.287136
H	 0.3791827093	 2.4941792215	-1.507923127	 0.08814
H	 0.4213399026	 3.9744284055	 0.0359539226	 0.122594
H	 0.9625190186	 3.562111427	 1.6800856258	 0.127661
H	 2.6582196279	 4.9871248456	 0.637284294	 0.095574
H	 3.3199716443	 3.3399509595	 0.797039581	 0.113272
H	 4.3649137994	 5.140565727	-1.3633177332	 0.086461
H	 6.0745491706	 3.2610270411	-1.2887768769	 0.116037
H	 4.7084060294	 2.0574975087	-1.1144078351	 0.132544
H	 3.7126756586	 2.7939629568	-3.2799401519	 0.133888
H	 5.0510917387	 4.0151023933	-3.5234250482	 0.117625
31.0452	59.6199	87.028	153.159	178.4801	192.7395	301.8616	380.4334	394.351	442.0966	524.8894	636.0284	755.5142	815.2669	822.927	891.5892	931.5327	978.9993	999.8557	1037.2728	1053.7231	1060.6263	1076.7244	1112.802	1125.8834	1130.7512	1178.865	1194.7974	1208.4325	1244.9994	1263.6417	1319.4385	1373.8487	1401.327	1429.4293	1433.9152	1454.9505	1492.6174	1496.3919	1509.5395	1865.6615	2975.5833	2982.155	3026.637	3044.0888	3095.7958	3113.4466	3136.6435	3144.3626	3222.1692	3237.1341
O=COCCOC1CC1	O=COCCOC1CC1	
InChI=1S/C6H10O3/c7-5-8-3-4-9-6-1-2-6/h5-6H,1-4H2	InChI=1S/C6H10O3/c7-5-8-3-4-9-6-1-2-6/h5-6H,1-4H2
