17
gdb 109527	1.91975	1.50375	1.15861	1.6067	81.75	-0.2334	0.0279	0.2614	1163.5831	0.132068	-384.589212	-384.579578	-384.578633	-384.623638	35.187	
C	-0.4571474472	 1.1097296157	 0.1794973204	-0.240059
O	 0.4555428288	 0.0626036639	-0.1131426523	-0.223543
C	 0.913046283	-0.5856759833	 1.0101448789	 0.110724
C	 0.0956457767	-1.7174240231	 1.6255034233	-0.288186
C	-1.1761739548	-2.0819869667	 1.0855871878	 0.364006
C	-2.2586003961	-2.3911696782	 0.6621342155	-0.453767
C	 1.3998575748	-1.9986884855	 0.8327130502	-0.29131
C	 1.3574072628	-2.6417746979	-0.44417311	 0.372265
C	 1.354417592	-3.2084178023	-1.503846739	-0.452499
H	 0.0085255853	 1.8776994664	 0.8149466667	 0.106519
H	-0.7354445139	 1.5589601114	-0.7756608187	 0.134037
H	-1.3555750449	 0.7269016436	 0.6779983122	 0.129178
H	 1.4634814931	 0.0414037576	 1.7150291063	 0.095211
H	 0.1933590924	-1.8399116934	 2.7006452564	 0.119946
H	-3.2073420242	-2.6703791329	 0.2762361796	 0.196925
H	 2.2430886644	-2.2801353057	 1.4570779594	 0.124512
H	 1.3405533477	-3.6976093296	-2.4458337465	 0.196043
93.5252	102.3785	109.0511	149.8493	207.5838	231.9967	269.6091	361.4162	390.6073	424.9233	585.3948	599.2665	640.1327	647.714	653.6468	654.859	672.4583	750.9433	782.0491	858.5195	970.4883	1034.6594	1068.3593	1091.7831	1124.1244	1153.7697	1182.1358	1218.7043	1272.0309	1356.6356	1367.136	1413.0636	1485.9156	1488.4727	1504.9282	2237.7531	2245.5799	2993.0078	3065.3424	3076.0959	3132.0248	3140.6078	3150.1566	3505.4234	3507.0642
COC1C(C#C)C1C#C	CO[C@H]1[C@@H](C#C)[C@H]1C#C	
InChI=1S/C8H8O/c1-4-6-7(5-2)8(6)9-3/h1-2,6-8H,3H3	InChI=1S/C8H8O/c1-4-6-7(5-2)8(6)9-3/h1-2,6-8H,3H3/t6-,7+,8-
