16
gdb 11722	5.26925	1.39532	1.2353	2.7448	67.13	-0.2589	-0.0383	0.2205	985.6476	0.128766	-383.716191	-383.708563	-383.707619	-383.748134	28.068	
C	-0.0542665442	 1.5857260418	 0.1326829583	-0.406093
C	 0.0448448152	 0.0727237955	 0.0041800987	 0.004924
C	 1.0871373424	-0.5301052165	-1.0112376149	-0.325996
C	 1.7505369474	-1.2588866952	 0.156300793	 0.323098
O	 2.1383242793	-0.2784431474	 1.1348432253	-0.268775
C	 0.7800450799	-0.6774613281	 1.1334437542	-0.042473
C	 2.3947504721	-2.5814648138	 0.2176053726	 0.061706
O	 2.4523904024	-3.3437439874	-0.7166929481	-0.259757
H	 0.9276279921	 2.0150581866	 0.3505857347	 0.135735
H	-0.4240356671	 2.0312310602	-0.7964899917	 0.121562
H	-0.7399442275	 1.872329806	 0.9373200021	 0.118331
H	-0.9397893113	-0.3747374232	-0.161058611	 0.088524
H	 0.6409920861	-1.2144912299	-1.7338280657	 0.132418
H	 1.7339608791	 0.1835377944	-1.52611001	 0.116588
H	 0.3859084875	-1.0974153133	 2.0533770754	 0.113351
H	 2.8130588264	-2.8253884297	 1.2183862469	 0.086857
97.3719	154.7957	173.5303	232.0064	282.9865	332.8126	412.1155	490.3383	589.6859	672.4932	746.7221	799.5011	851.3049	880.36	919.1041	934.66	1002.1539	1036.8741	1047.9131	1094.6907	1114.6475	1178.5813	1215.544	1226.071	1260.9513	1305.8538	1352.4624	1376.2776	1404.9672	1438.1847	1476.222	1492.3189	1502.288	1807.4916	2901.1664	3035.2651	3065.9472	3079.2032	3100.1319	3119.0667	3143.1449	3174.3433
CC1CC2(OC12)C=O	C[C@H]1C[C@]2(O[C@@H]12)C=O	
InChI=1S/C6H8O2/c1-4-2-6(3-7)5(4)8-6/h3-5H,2H2,1H3	InChI=1S/C6H8O2/c1-4-2-6(3-7)5(4)8-6/h3-5H,2H2,1H3/t4-,5-,6-/m0/s1
