17
gdb 96776	2.54745	1.56144	1.10181	2.9039	77.1	-0.2402	-0.0069	0.2332	1120.7946	0.13493	-417.928983	-417.920777	-417.919833	-417.961868	30.474	
C	-0.0235393605	 1.4147058742	 0.0238120431	-0.343186
N	-0.0136082288	-0.0320488823	-0.1375522891	-0.315138
C	-1.095354994	-0.6579803944	-0.1011647561	 0.31214
N	-2.4844701397	-0.2277464957	 0.1343030561	-0.185378
C	-3.267741806	-0.7392378696	-1.0254376174	-0.252268
C	-2.9017005638	-1.6960570473	 0.0335765891	-0.134275
C	-1.4551320244	-2.1223671102	-0.13790888	 0.394615
C	-0.828444506	-3.2917229416	-0.7586714418	-0.262883
O	-0.8252131113	-3.0972666654	 0.6624092226	-0.264088
H	 0.6612394874	 1.6813019975	 0.8357112974	 0.134789
H	 0.3726187241	 1.8736653633	-0.8888642196	 0.130471
H	-1.0147839541	 1.8313198969	 0.2356059692	 0.134461
H	-4.2827698524	-0.3546818544	-1.0454151004	 0.137259
H	-2.7820470582	-0.7992094213	-1.9964572444	 0.129458
H	-3.5995261444	-2.1263150041	 0.7410228991	 0.126398
H	-1.4539316329	-4.1074545917	-1.1181846735	 0.121636
H	 0.139390715	-3.1788789739	-1.2432506243	 0.135989
117.3823	138.4529	147.3462	174.6265	282.3679	288.5589	315.5483	471.8624	520.226	622.4336	674.1943	728.2749	754.9817	823.4537	880.4113	918.0197	967.0328	984.6403	1027.5193	1037.4345	1061.5557	1117.2735	1124.3378	1127.7963	1143.2668	1156.0019	1160.1637	1214.2784	1229.1769	1309.8224	1432.5534	1444.4784	1487.7654	1494.6398	1499.9068	1528.4991	1831.6926	3019.6858	3087.7081	3087.8692	3095.8014	3110.562	3182.7445	3197.8681	3207.0406
CN=C1N2CC2C11CO1	CN=C1N2C[C@H]2[C@]21CO2	
InChI=1S/C6H8N2O/c1-7-5-6(3-9-6)4-2-8(4)5/h4H,2-3H2,1H3	InChI=1S/C6H8N2O/c1-7-5-6(3-9-6)4-2-8(4)5/h4H,2-3H2,1H3/t4-,6-,8?/m0/s1
