21
gdb 115378	2.86424	1.138	1.02302	1.275	74.4	-0.2576	0.0706	0.3282	1274.7745	0.182802	-461.366886	-461.357668	-461.356723	-461.400963	34.629	
C	-0.0042208534	 1.5045640216	 0.0557770546	-0.409667
C	 0.0476116147	-0.0068170432	 0.0312446558	 0.230104
O	 0.687699576	-0.4104702341	-1.1584682431	-0.253618
C	 0.7841213135	-1.8274577121	-1.2575517125	-0.105545
C	 1.5236292847	-2.4077336349	-0.0439379584	-0.022015
C	 3.0169461462	-2.041943507	-0.0913908713	-0.070635
O	 3.7313797295	-2.4884594729	 1.0531735273	-0.427752
C	 0.8319377683	-1.8695764961	 1.213835922	-0.105068
O	 0.7460409739	-0.4493638347	 1.1742685612	-0.257852
H	 1.0124915373	 1.9047200544	 0.0355070089	 0.132818
H	-0.5488199131	 1.8734245284	-0.8161181409	 0.126948
H	-0.5035441437	 1.8461452408	 0.9651471746	 0.1262
H	-0.9694963058	-0.4481191867	 0.0505450564	 0.052725
H	-0.2242004502	-2.2676075788	-1.331152492	 0.089858
H	 1.311503365	-2.0338155382	-2.1940007066	 0.109394
H	 1.4309070997	-3.5009619404	-0.0499546317	 0.079536
H	 3.4763020703	-2.5349343341	-0.9561830854	 0.104265
H	 3.1236901706	-0.960630031	-0.2345429566	 0.113605
H	 3.6835032601	-1.7975540608	 1.7193421256	 0.291261
H	-0.1774896992	-2.3040342751	 1.3038753015	 0.088848
H	 1.3908233856	-2.1299816953	 2.1160680609	 0.106592
59.4037	126.1615	173.8981	211.7326	240.2934	253.1805	311.0675	316.5577	366.6871	443.2808	515.361	546.0694	583.1093	750.8659	807.4498	843.2651	871.2072	930.019	956.3105	975.0715	1013.3159	1063.1954	1080.5025	1097.8158	1117.8732	1133.1295	1174.0496	1180.6284	1220.8616	1265.5653	1282.3775	1313.2772	1366.0341	1375.3732	1389.9441	1396.6584	1401.3441	1410.2072	1424.7893	1435.8607	1481.7699	1486.8573	1496.455	1502.9713	1508.8839	2898.7676	2966.4931	2974.5543	3030.2127	3037.4711	3058.3785	3076.3978	3079.7333	3095.5428	3139.0929	3142.1918	3841.2475
CC1OCC(CO)CO1	C[C@H]1OC[C@@H](CO)CO1	
InChI=1S/C6H12O3/c1-5-8-3-6(2-7)4-9-5/h5-7H,2-4H2,1H3	InChI=1S/C6H12O3/c1-5-8-3-6(2-7)4-9-5/h5-7H,2-4H2,1H3/t5-,6+
