19
gdb 14735	3.8965	0.97234	0.88677	1.6472	72.31	-0.2449	0.028	0.2729	1377.2647	0.163776	-402.187147	-402.177619	-402.176675	-402.222505	33.244	
C	-0.2235702909	 1.2777446276	 0.9150487556	-0.397671
C	 0.604303601	 0.1259210052	 0.3352231009	-0.111533
N	 0.6994575718	-1.1184701537	 1.0820281029	-0.230356
C	 0.0835056435	-1.2621576185	 2.167209968	 0.109921
O	 0.1298334776	-2.4528538491	 2.8151504915	-0.212324
C	-0.2491597064	-2.4493506297	 4.1889456847	-0.092096
C	 0.9858131663	-2.2818737531	 5.0695136913	-0.06275
O	 1.6478317406	-1.0564276208	 4.8155083559	-0.418657
H	 0.1567748656	 1.6046724686	 1.8887916905	 0.123421
H	-0.1799491797	 2.1355789269	 0.2372716692	 0.115795
H	-1.2774231861	 1.0045080278	 1.0350730386	 0.119308
H	 0.2198575414	-0.1295081127	-0.6614043223	 0.113957
H	 1.632083449	 0.4721890806	 0.1626504994	 0.111181
H	-0.5371465555	-0.5126294262	 2.6725177119	 0.086591
H	-0.9643998827	-1.6399167297	 4.3861863213	 0.110544
H	-0.7392489059	-3.407905631	 4.3874531798	 0.114611
H	 0.680200152	-2.2683893661	 6.1218531791	 0.112553
H	 1.6559436957	-3.1411947081	 4.9248356536	 0.106579
H	 2.0944317227	-1.1394961878	 3.9662514782	 0.300926
41.084	56.8331	117.4114	171.5176	189.7505	232.6257	299.5279	334.6402	374.1807	407.3654	471.7874	529.6961	583.9559	783.1251	865.0706	887.6934	919.3226	981.7858	1039.2433	1061.1738	1081.2575	1099.0323	1130.3144	1148.6172	1212.8414	1235.4694	1314.5127	1317.1005	1377.776	1388.0445	1401.6518	1403.9141	1413.5781	1423.0814	1484.0104	1489.6129	1494.6884	1496.6757	1509.164	1772.3777	3006.7417	3014.9221	3020.0515	3031.8325	3034.2972	3047.7528	3075.4079	3089.0237	3101.4068	3107.7403	3818.598
CCN=COCCO	CCN=COCCO	
InChI=1S/C5H11NO2/c1-2-6-5-8-4-3-7/h5,7H,2-4H2,1H3	InChI=1S/C5H11NO2/c1-2-6-5-8-4-3-7/h5,7H,2-4H2,1H3
