19
gdb 22252	1.7156	1.59287	1.00856	3.2577	76.34	-0.2484	-0.0378	0.2106	1251.2244	0.157028	-456.347492	-456.336926	-456.335982	-456.383697	38.015	
C	 0.0893016693	 1.6313985417	-0.1084557984	-0.403418
C	 0.0319367521	 0.0936459678	-0.0184443425	-0.062917
C	 0.7423495656	-0.4290424089	 1.2458225877	-0.403404
C	-1.3930730551	-0.4121277885	-0.1004598577	 0.259566
N	-1.8746673376	-1.1676849005	-1.0164030331	-0.197743
O	-0.961752955	-1.5262157968	-2.0008982015	-0.379668
C	-2.3933747389	-0.0227514386	 0.973335502	 0.384482
N	-3.6433773858	-0.5237851208	 0.8123714473	-0.526335
O	-2.077513556	 0.6929734077	 1.9102155012	-0.367757
H	 1.1340597458	 1.9587579005	-0.1204640258	 0.110255
H	-0.3847066812	 1.9923727854	-1.0268988419	 0.111775
H	-0.412024259	 2.088540214	 0.7458879758	 0.152846
H	 0.5497588481	-0.3143954944	-0.8889050313	 0.108313
H	 0.2633715878	-0.0432090958	 2.14688885	 0.152845
H	 0.7297136743	-1.5230845647	 1.2835278224	 0.111786
H	 1.7887467	-0.1068281688	 1.2375385651	 0.110252
H	-1.4920133475	-2.0791114214	-2.5855466082	 0.310832
H	-3.8575192379	-1.1104589219	 0.0246092542	 0.267344
H	-4.3417764989	-0.2950418059	 1.4982415048	 0.260945
21.8844	81.2432	182.796	211.3071	222.167	232.8479	232.9959	244.3972	276.7003	313.6763	423.7272	430.6382	443.4036	524.2689	569.6519	651.9583	658.9177	700.2056	805.2144	902.175	937.669	970.8761	1003.7621	1042.6731	1096.2275	1119.8852	1194.1805	1232.3896	1343.8882	1354.473	1368.468	1388.8191	1411.3175	1428.4214	1485.1185	1499.3899	1501.7741	1522.1398	1586.5455	1700.6336	1775.2048	3037.6635	3039.9944	3090.2327	3099.2627	3101.5871	3145.5952	3150.2789	3607.0123	3750.77	3810.927
CC(C)C(=NO)C(N)=O	CC(C)C(=NO)C(=O)N	
InChI=1S/C5H10N2O2/c1-3(2)4(7-9)5(6)8/h3,9H,1-2H3,(H2,6,8)	InChI=1S/C5H10N2O2/c1-3(2)4(7-9)5(6)8/h3,9H,1-2H3,(H2,6,8)
