18
gdb 55385	2.28388	1.65373	1.06384	2.7332	74.52	-0.2235	0.0116	0.2351	1136.8265	0.147379	-439.132854	-439.123877	-439.122933	-439.166887	33.042	
C	 0.4411474805	 1.3686124279	-0.6760439114	-0.492281
C	 0.1697872553	-0.0239896139	-0.2118321666	 0.309397
C	 0.1778181548	-1.1608756146	-0.9037608213	-0.203581
C	-0.1975594968	-2.3213217844	-0.033360584	-0.124261
O	-0.4274806495	-1.7501806806	 1.2613266291	-0.289668
C	-0.208005242	-0.3402912894	 1.2226009095	-0.055598
C	 0.8736197343	 0.1038817672	 2.2278666912	 0.364683
N	 1.4642974697	-0.9165229433	 2.8931597524	-0.511556
O	 1.1493718886	 1.2811546414	 2.3724534999	-0.375038
H	 1.2107179039	 1.8398066267	-0.0581942277	 0.164536
H	 0.7526543357	 1.3818878465	-1.7235311715	 0.117543
H	-0.4559731228	 1.9923310625	-0.5757888156	 0.130927
H	 0.4034710314	-1.2642425479	-1.957812293	 0.103223
H	-1.1121124165	-2.8312353417	-0.3724061627	 0.111461
H	 0.5929366506	-3.0844677852	 0.0352398458	 0.105763
H	-1.1272716688	 0.1882719549	 1.5197634576	 0.11222
H	 1.0996196811	-1.8473813403	 2.7788719933	 0.271721
H	 2.1347284803	-0.7068818857	 3.6134708651	 0.260507
58.4558	87.2269	170.3406	192.5492	241.223	300.2682	319.5502	348.9811	426.9196	484.4138	533.0112	618.8987	655.2981	713.5032	775.9851	800.7144	903.9573	942.5041	964.7733	969.4912	1040.1606	1045.8088	1073.105	1092.2256	1105.4011	1194.524	1205.066	1266.6792	1311.3761	1328.708	1363.8287	1380.3043	1418.0538	1472.6878	1489.0829	1522.277	1583.9983	1732.2558	1794.1261	2979.7485	2986.3725	2999.2326	3030.4782	3091.777	3127.8957	3213.8564	3596.7031	3738.321
CC1=CCOC1C(N)=O	CC1=CCO[C@H]1C(=O)N	
InChI=1S/C6H9NO2/c1-4-2-3-9-5(4)6(7)8/h2,5H,3H2,1H3,(H2,7,8)	InChI=1S/C6H9NO2/c1-4-2-3-9-5(4)6(7)8/h2,5H,3H2,1H3,(H2,7,8)/t5-/m1/s1
