25
gdb 90404	2.12689	1.4655	1.25899	0.217	93.39	-0.237	0.0833	0.3203	1227.4028	0.227558	-352.340261	-352.329986	-352.329041	-352.374304	40.012	
C	-0.2775806237	 1.4312649925	-0.1998181486	-0.423353
C	 0.1567594325	-0.0312827328	-0.1501765655	-0.002044
C	 1.2868317469	-0.5984335318	-1.0727367099	-0.284374
C	 1.9205063203	-1.2670508493	 0.1505661784	-0.14061
C	 2.3340412915	-0.2603717037	 1.1998523126	 0.285996
C	 3.0630905076	-0.8869622138	 2.3837231768	-0.453839
C	 2.9182490751	 1.1039871707	 0.8623285934	-0.465511
C	 0.8634764861	-0.6346984537	 1.0855351695	 0.287239
C	 0.0382401394	-1.1998055446	 2.2134182092	-0.497241
H	 0.546869862	 2.1299973209	-0.0449065665	 0.117305
H	-0.7336201852	 1.6637591442	-1.1691285406	 0.110621
H	-1.0299861987	 1.6354949999	 0.570827612	 0.111939
H	-0.737236463	-0.6432976415	-0.3222551986	 0.070679
H	 0.9083093037	-1.3065662769	-1.8133720281	 0.095921
H	 1.9127134293	 0.1324064703	-1.5952993079	 0.093534
H	 2.3216768993	-2.2754556302	 0.1630548204	 0.073192
H	 4.1422455813	-0.899697308	 2.1931073159	 0.111582
H	 2.8990962544	-0.3162225856	 3.3055586134	 0.111831
H	 2.7534956752	-1.9186498331	 2.5684323877	 0.114774
H	 2.5455386586	 1.5199329821	-0.0734217951	 0.119517
H	 2.70561214	 1.829081674	 1.6569656275	 0.110675
H	 4.0089074714	 1.0312996148	 0.7715838395	 0.107075
H	-0.4824454179	-0.3954690163	 2.7494373356	 0.115893
H	-0.7302148199	-1.8824647175	 1.83106288	 0.111867
H	 0.6299900238	-1.7468759405	 2.9503085288	 0.117333
140.5106	143.604	164.9066	183.399	198.037	219.5545	264.4076	304.0778	321.39	362.646	381.9333	405.2537	492.6563	542.9367	629.7771	640.5843	689.932	811.2825	862.6475	882.4582	938.706	942.6546	966.5124	983.2876	1013.7574	1027.4656	1048.4751	1081.2476	1119.8653	1130.6879	1144.878	1164.8366	1196.004	1201.8961	1248.2401	1262.1229	1281.6509	1308.0537	1382.6524	1402.398	1407.773	1412.6644	1426.609	1436.7197	1481.1938	1486.4314	1489.0626	1492.1935	1499.9488	1502.9806	1506.895	1514.3275	1518.8866	3015.516	3018.4812	3022.4023	3027.446	3031.2724	3048.059	3066.1705	3073.8719	3081.7539	3084.352	3099.0949	3107.9332	3121.7764	3123.4786	3144.6876	3157.1953
CC1CC2C(C)(C)C12C	C[C@H]1C[C@H]2C(C)(C)[C@@]12C	
InChI=1S/C9H16/c1-6-5-7-8(2,3)9(6,7)4/h6-7H,5H2,1-4H3	InChI=1S/C9H16/c1-6-5-7-8(2,3)9(6,7)4/h6-7H,5H2,1-4H3/t6-,7-,9-/m0/s1
