18
gdb 49426	3.44875	1.49533	1.43668	2.3994	73.56	-0.2514	-0.0267	0.2247	965.8306	0.15016	-401.952099	-401.945254	-401.94431	-401.983632	27.332	
O	-0.5623049504	 0.6777783491	-0.6155954032	-0.24977
C	 0.1315124021	 1.0351320946	 0.3025803862	 0.143579
C	 1.3088646339	 1.9790306567	 0.1722092798	-0.043432
C	 1.3331174861	 2.9341397623	-1.0352560098	-0.060293
C	 0.1810666256	 3.892332419	-0.6562993952	-0.24181
C	 0.6511308337	 4.1626402631	 0.7686853448	-0.034756
C	 2.1394418496	 4.0928315492	 0.7662252853	-0.029269
C	 2.5753595453	 3.774124637	-0.6622618969	-0.245907
N	 1.343159802	 2.9518916017	 1.2964652626	-0.142308
H	-0.0358642695	 0.6667793984	 1.3389237417	 0.09279
H	 2.2130581522	 1.3540799342	 0.2284323741	 0.100573
H	 1.3016100213	 2.4856937739	-2.024689637	 0.087025
H	 0.1712959484	 4.7997963968	-1.2678760425	 0.102735
H	-0.8025059	 3.4207555978	-0.7104303117	 0.12369
H	 0.0810398685	 4.7449775745	 1.4816007833	 0.094272
H	 2.7676282417	 4.6214461635	 1.4726649687	 0.09511
H	 3.5091959597	 3.2049539449	-0.7083767929	 0.103297
H	 2.68426212	 4.6737383131	-1.2761213274	 0.104473
71.8022	184.0245	211.8661	399.742	426.8728	467.8465	654.7297	671.3208	709.2569	759.3039	812.4408	845.0482	856.2523	910.5578	922.8585	935.6712	941.9292	960.7504	988.6253	1029.07	1037.5274	1079.0707	1091.1008	1093.6678	1146.7232	1155.3213	1198.5187	1214.7911	1249.0116	1257.2576	1277.2869	1294.4006	1328.3568	1354.5356	1376.8801	1411.3043	1487.291	1507.8637	1826.4481	2893.9248	3001.0752	3049.7352	3062.6166	3095.0495	3117.6577	3160.3029	3186.9585	3197.925
O=CC1C2CC3C(C2)N13	O=C[C@H]1[C@H]2C[C@@H]3[C@H](C2)N13	
InChI=1S/C7H9NO/c9-3-7-4-1-5-6(2-4)8(5)7/h3-7H,1-2H2	InChI=1S/C7H9NO/c9-3-7-4-1-5-6(2-4)8(5)7/h3-7H,1-2H2/t4-,5+,6-,7-,8?/m0/s1
