18
gdb 13662	3.96692	1.22628	1.12091	0.8988	73.48	-0.2465	0.0326	0.2791	1131.4956	0.151247	-347.74075	-347.731861	-347.730917	-347.774687	32.329	
C	-0.5017057261	 1.4092539908	 0.1197232968	-0.396377
C	 0.3514365097	 0.1623131221	 0.0397584595	-0.034346
C	 1.7807465796	 0.1764952448	 0.5483043524	-0.313793
C	 0.7136431448	-0.6020807199	 1.2785027249	 0.126645
O	 0.1997085549	-0.1226269433	 2.48746236	-0.233498
C	 0.8985779575	-0.5686839754	 3.6372734673	-0.223656
C	 2.1976886044	 0.0740985679	 3.8547005515	 0.327216
C	 3.2563982116	 0.6026895453	 4.0649620205	-0.469235
H	-0.311730311	 1.9532129098	 1.0476013687	 0.130294
H	-0.2919302673	 2.0784205657	-0.721529738	 0.112621
H	-1.5682384372	 1.160780329	 0.0941304243	 0.116247
H	 0.1685156212	-0.4548285922	-0.836167743	 0.084181
H	 2.548401509	-0.3668162183	 0.0078417097	 0.1073
H	 2.1194472335	 1.0875045776	 1.0277654095	 0.125978
H	 0.7438113474	-1.691541706	 1.2238059558	 0.080693
H	 0.2396964785	-0.350466418	 4.4846988389	 0.138701
H	 1.0341770773	-1.6614183744	 3.6031040205	 0.119569
H	 4.1946127122	 1.0668748843	 4.2443830008	 0.201459
41.4868	91.7993	165.072	191.6254	219.6767	285.4635	332.5233	347.7597	448.6739	507.3633	614.4819	628.6469	677.122	748.566	823.7555	858.8264	916.4102	932.8995	973.0096	1018.8041	1045.198	1056.7596	1092.8894	1111.7635	1148.0037	1177.8847	1195.6255	1243.5755	1302.7242	1367.531	1393.8207	1418.4867	1422.6214	1473.9637	1485.8883	1495.259	1505.3699	2233.5591	2981.4225	3035.3031	3066.8838	3083.8091	3092.4767	3122.6256	3136.7154	3143.126	3228.7617	3503.6482
CC1CC1OCC#C	C[C@H]1C[C@H]1OCC#C	
InChI=1S/C7H10O/c1-3-4-8-7-5-6(7)2/h1,6-7H,4-5H2,2H3	InChI=1S/C7H10O/c1-3-4-8-7-5-6(7)2/h1,6-7H,4-5H2,2H3/t6-,7+/m0/s1
