20
gdb 15669	3.23231	1.72882	1.25902	0.9802	76.4	-0.2379	0.0256	0.2635	1025.2707	0.176994	-349.008241	-348.999754	-348.998809	-349.041212	31.49	
C	 0.1931972404	 1.6147687547	-0.3443314992	-0.233918
O	-0.3056736486	 0.3054937677	-0.4808072765	-0.241072
C	 0.5922712621	-0.5875369695	-1.1016583817	 0.136537
C	 1.8309035619	-0.9825135711	-0.2485906205	-0.283035
C	 2.0550994339	-2.4189276276	-0.653126404	-0.068339
C	 1.0137533022	-2.9196119988	-1.3163736897	-0.066191
C	-0.1190496886	-1.9269256467	-1.4520300926	-0.074957
C	-1.3024019226	-2.2674449047	-0.5292559609	-0.376249
H	 1.0669279328	 1.6618901406	 0.3225674334	 0.106588
H	 0.4819910839	 2.0425945271	-1.3179446881	 0.102049
H	-0.6062926511	 2.2240043249	 0.0848334543	 0.124829
H	 0.9572814553	-0.1374049477	-2.0398012774	 0.065105
H	 2.699103497	-0.3421288908	-0.4399171961	 0.098691
H	 1.601735002	-0.8949839431	 0.8229926377	 0.11197
H	 2.9592318909	-2.9630606173	-0.4021389574	 0.090088
H	 0.934645376	-3.9381852101	-1.6817164499	 0.089393
H	-0.4970763818	-1.8878696624	-2.4812209327	 0.072988
H	-0.9868905402	-2.3218949678	 0.5169279562	 0.116214
H	-2.0844438234	-1.5089610204	-0.6072698687	 0.126051
H	-1.727987142	-3.238276047	-0.8036922364	 0.103257
76.6406	106.8528	192.9614	203.4848	234.3864	262.8637	324.533	423.5956	483.3987	497.5488	671.5341	733.4547	764.3564	798.6832	881.131	963.6202	977.4454	977.7226	997.3898	1026.0889	1075.6849	1097.1801	1124.3566	1141.662	1163.4049	1178.1496	1188.2846	1234.6267	1282.0974	1311.8562	1324.1277	1357.0325	1374.8747	1391.0405	1406.0579	1480.0399	1483.4703	1490.8896	1493.0498	1497.1597	1511.4621	1686.2582	2955.1603	2972.2998	3010.0979	3021.054	3022.665	3039.6616	3058.2521	3106.6551	3110.4433	3127.9842	3175.5181	3200.9874
COC1CC=CC1C	CO[C@H]1CC=C[C@H]1C	
InChI=1S/C7H12O/c1-6-4-3-5-7(6)8-2/h3-4,6-7H,5H2,1-2H3	InChI=1S/C7H12O/c1-6-4-3-5-7(6)8-2/h3-4,6-7H,5H2,1-2H3/t6-,7+/m1/s1
