18
gdb 68744	2.55542	1.73735	1.23341	3.0715	77.64	-0.2411	-0.064	0.1771	1045.3651	0.147089	-401.963452	-401.954876	-401.953932	-401.996234	32.569	
C	-0.0141125066	 1.5506132628	-0.0686271299	-0.478146
C	-0.0451304677	 0.0524889687	 0.0921516321	 0.248525
N	 1.210711655	-0.6880923083	-0.1805999213	-0.395719
C	 0.612245384	-0.7279470662	 1.1801986935	 0.155546
C	 1.434822791	-0.2026154973	 2.3247684339	-0.476423
C	-0.3047003353	-1.922717447	 1.4409252119	 0.339012
O	-0.1471390309	-2.7557753777	 2.301931448	-0.322501
C	-1.4273896298	-1.8304269937	 0.4607052999	-0.209063
C	-1.2946258272	-0.7115915658	-0.2630348092	-0.121009
H	 0.9575289504	 1.9490020815	 0.2292456072	 0.139073
H	-0.1838592899	 1.8287186887	-1.114972581	 0.124774
H	-0.7906411908	 2.0283155712	 0.5377545917	 0.125391
H	 1.0098401928	-1.5453237783	-0.693198894	 0.229661
H	 2.1187130641	 0.577162985	 1.9846425856	 0.128613
H	 0.7949631217	 0.2029513986	 3.1149569355	 0.123878
H	 2.0219518749	-1.016830545	 2.7599657134	 0.143376
H	-2.1939876762	-2.5890626847	 0.3741361714	 0.123801
H	-1.9653665094	-0.3764465124	-1.0474671185	 0.121213
118.3165	142.4946	174.7486	216.7698	258.6465	263.7577	325.6798	402.6693	481.0396	502.6874	558.4108	667.6176	684.1154	724.5762	763.8375	813.8939	854.4265	873.9072	962.1139	980.6814	1046.3734	1068.789	1090.0405	1096.1294	1130.0696	1152.6763	1170.2533	1242.7386	1325.1565	1358.3065	1408.3362	1415.2215	1435.2591	1478.8887	1488.1333	1491.8843	1499.1549	1634.6979	1815.5724	3035.4979	3045.1179	3095.6306	3109.5407	3132.4365	3137.6852	3187.8165	3230.5121	3472.3494
CC12NC1(C)C(=O)C=C2	C[C@@]12N[C@]1(C)C(=O)C=C2	
InChI=1S/C7H9NO/c1-6-4-3-5(9)7(6,2)8-6/h3-4,8H,1-2H3	InChI=1S/C7H9NO/c1-6-4-3-5(9)7(6,2)8-6/h3-4,8H,1-2H3/t6-,7+/m0/s1
