14
gdb 52371	5.94922	0.59452	0.55012	2.2697	65.88	-0.2763	-0.0787	0.1976	1835.6611	0.097935	-473.855599	-473.846173	-473.845229	-473.892212	30.515	
O	-0.0447689362	-0.0463606386	-0.008151183	-0.218892
C	 0.0514482326	 1.1504200119	-0.0497562607	 0.153095
C	 1.360317942	 1.9001690478	-0.2178215247	-0.292483
C	 1.2950488366	 2.8858961249	-1.376392179	-0.08429
O	 2.4893739402	 3.7013274464	-1.3100040967	-0.22477
C	 2.5980436629	 4.6331792384	-2.2579244157	 0.363352
O	 1.8148208225	 4.8575446077	-3.1386455091	-0.324025
C	 3.8468627049	 5.3838677715	-2.0812989023	 0.256904
N	 4.8146182424	 6.0066053016	-1.9872884294	-0.299483
H	-0.8454743353	 1.8048387089	 0.0503544713	 0.085124
H	 1.5379105552	 2.4657968586	 0.7072378231	 0.145071
H	 2.1721831883	 1.1811807878	-0.3461903304	 0.145047
H	 1.2671107836	 2.382617395	-2.3468399468	 0.152957
H	 0.4204325605	 3.5414199181	-1.3118960365	 0.142392
38.735	54.9483	63.8053	106.1274	156.711	204.2786	299.3981	339.7427	343.8145	511.6398	557.0122	614.1552	770.0661	780.3546	860.451	916.353	984.3697	1028.5736	1109.6469	1131.9843	1230.1694	1263.7801	1280.174	1307.1686	1415.3135	1430.9291	1467.8711	1510.3499	1821.1329	1844.0385	2362.8725	2865.7288	3030.2432	3056.3342	3103.2935	3126.7583
O=CCCOC(=O)C#N	O=CCCOC(=O)C#N	
InChI=1S/C5H5NO3/c6-4-5(8)9-3-1-2-7/h2H,1,3H2	InChI=1S/C5H5NO3/c6-4-5(8)9-3-1-2-7/h2H,1,3H2
