19
gdb 84312	3.1473	1.40559	1.08315	3.9302	82.41	-0.2335	-0.0439	0.1896	1137.6378	0.160685	-385.921095	-385.913174	-385.91223	-385.953384	31.23	
C	 0.2866650185	 1.6223836187	-0.0194290338	-0.391611
C	-0.0097146264	 0.1113868926	 0.0115622868	-0.067169
C	 0.3804566643	-0.5546986935	-1.2827330524	-0.032241
C	 0.9084062068	-1.779801365	-1.3846827238	-0.194832
C	 1.1660339928	-2.6422395778	-0.2080250848	 0.402979
O	 1.3523510721	-3.8396599429	-0.3232418694	-0.352772
C	 1.1691145804	-1.966237777	 1.120965082	-0.159925
C	 2.0937919091	-0.7686558575	 1.3091822527	-0.294173
C	 0.614698897	-0.5549306353	 1.2290803458	-0.033745
H	 1.3611939619	 1.8087372659	-0.1100320658	 0.125246
H	-0.2157802121	 2.1043101605	-0.864316618	 0.116541
H	-0.0622663339	 2.103042019	 0.8994736902	 0.119614
H	-1.1028117503	 0.0013462607	 0.0952943378	 0.100981
H	 0.1709627459	 0.0134226797	-2.1879477279	 0.103391
H	 1.1156898591	-2.231797105	-2.3496168328	 0.108536
H	 1.0597221404	-2.6449305657	 1.9588050312	 0.105053
H	 2.5795944713	-0.6731477487	 2.2732666389	 0.123479
H	 2.7071352385	-0.4795770385	 0.4627560408	 0.126394
H	 0.1182058245	-0.3192083901	 2.1657857325	 0.094254
82.875	192.8587	225.6273	255.6524	286.5701	351.6359	420.7097	444.724	521.7774	565.0236	694.882	721.1522	750.6879	792.3723	835.2091	854.645	901.7142	947.3629	967.101	1004.8354	1024.7282	1054.44	1067.2938	1080.4705	1108.2976	1128.8914	1153.7245	1182.8034	1217.3743	1264.527	1312.0526	1350.9398	1368.314	1393.7745	1403.3513	1423.1621	1482.4202	1496.7658	1500.0269	1683.7627	1766.7028	2974.8736	3036.2416	3106.896	3112.4967	3137.9351	3138.406	3147.3973	3183.132	3187.4074	3226.7464
CC1C=CC(=O)C2CC12	C[C@H]1C=CC(=O)[C@H]2C[C@@H]12	
InChI=1S/C8H10O/c1-5-2-3-8(9)7-4-6(5)7/h2-3,5-7H,4H2,1H3	InChI=1S/C8H10O/c1-5-2-3-8(9)7-4-6(5)7/h2-3,5-7H,4H2,1H3/t5-,6-,7-/m0/s1
