16
gdb 51695	3.28298	1.0685	0.91757	3.732	67.36	-0.277	-0.0004	0.2766	1267.5437	0.12452	-475.072235	-475.064015	-475.063071	-475.106336	29.193	
N	-0.3316471906	 1.1286979034	-0.6275345918	-0.429857
C	-0.1671837569	-0.0563310909	-0.2374062647	 0.128304
O	-1.2367590905	-0.8925794608	-0.1805277574	-0.193688
C	-0.9714724288	-2.2285617698	 0.1866702489	 0.196343
C	-2.3101942978	-2.9590992749	 0.3255381231	-0.257395
C	-2.5377230406	-3.4856909991	-1.0943226235	-0.362516
C	-1.1304540052	-3.593783842	-1.6680977547	 0.435956
O	-0.7509770431	-4.1673077085	-2.6410032118	-0.317457
O	-0.2653990019	-2.8951293643	-0.8524134655	-0.221812
H	 0.55279698	 1.6320545188	-0.5992317198	 0.236546
H	 0.7712256533	-0.523486074	 0.0848132646	 0.105825
H	-0.3331544954	-2.2603115164	 1.0748687313	 0.104641
H	-2.2007571808	-3.7824568003	 1.0359511402	 0.126763
H	-3.0844565715	-2.2829476044	 0.6868583091	 0.140066
H	-3.041556674	-4.4507015906	-1.153354254	 0.145815
H	-3.0981544864	-2.775978316	-1.711017294	 0.162468
55.1041	96.3208	112.0493	133.4598	229.2104	386.9524	448.4949	503.2872	553.2817	618.34	674.5926	782.373	804.7265	829.2393	862.9416	939.2732	974.8344	1009.6102	1042.5404	1047.5041	1072.0778	1122.913	1144.2718	1190.1276	1230.1004	1276.7013	1299.5676	1337.9235	1373.2128	1392.9258	1430.657	1461.0524	1486.6491	1754.9473	1905.3475	3049.0297	3067.3668	3073.6195	3082.347	3136.2311	3147.5599	3519.3495
N=COC1CCC(=O)O1	[NH][CH]O[C@H]1CCC(=O)O1	
InChI=1S/C5H7NO3/c6-3-8-5-2-1-4(7)9-5/h3,5-6H,1-2H2	InChI=1S/C5H7NO3/c6-3-8-5-2-1-4(7)9-5/h3,5-6H,1-2H2/t5-/m1/s1
