13
gdb 129216	2.85752	1.56686	1.01197	4.3787	71.68	-0.2436	-0.1133	0.1303	1064.3149	0.090465	-448.924818	-448.917373	-448.916429	-448.957613	26.68	
N	-0.1703820436	 1.3073411389	 0.0685779748	-0.546365
C	-0.063822616	 0.032627666	 0.0361908381	 0.349899
N	 1.1217046322	-0.7007398072	-0.0727829791	-0.28569
N	 1.235201039	-2.0348901628	-0.1060752906	-0.158131
C	 0.1203786932	-2.6977312666	-0.0282232379	 0.067222
N	-1.1347681636	-2.1527670773	 0.0822957799	-0.273324
C	-1.233140374	-0.8623158216	 0.1138162037	 0.198577
C	-2.6062716526	-0.2408696714	 0.2347247299	 0.110957
O	-3.6106020161	-0.9011525792	 0.3008199741	-0.231478
H	 0.7331244123	 1.7785561212	 0.0048097242	 0.212032
H	 2.0014635986	-0.2064435467	-0.1350162858	 0.274081
H	 0.1935822873	-3.7774240779	-0.0540064948	 0.147597
H	-2.6067158969	 0.8619368746	 0.2565537935	 0.134625
69.1507	78.5041	216.9617	239.1948	357.9195	423.236	497.9331	533.9029	579.6399	629.9791	666.2567	778.4967	804.8129	821.8193	900.8456	917.7449	1039.6134	1070.1185	1116.6393	1175.3197	1222.1595	1333.553	1400.0897	1412.6635	1446.0784	1541.2295	1631.0523	1708.012	1812.7557	3004.5297	3223.9367	3463.6422	3591.9335
N=C1NN=CN=C1C=O	[NH]c1[nH]ncnc1C=O	
InChI=1S/C4H4N4O/c5-4-3(1-9)6-2-7-8-4/h1-2H,(H2,5,8)	InChI=1S/C4H9N4O/c5-4-3(1-9)6-2-7-8-4/h1,3-8H,2H2
