18
gdb 79016	3.83212	1.76784	1.61171	1.6657	72.66	-0.2236	0.0892	0.3127	879.8199	0.150814	-401.904718	-401.898571	-401.897627	-401.934871	26.422	
C	-0.2780497886	 1.4966190092	-0.0170060915	-0.322418
N	 0.0350770516	 0.078495825	 0.0195399396	-0.068828
C	 1.1656473486	-0.4324566067	-0.7954755757	-0.071938
C	 2.4606796711	 0.2502084322	-0.2912019011	-0.122682
C	 3.1431006193	-0.7579161903	 0.6032624906	 0.066469
O	 2.5382018829	-2.0201679479	 0.4658758379	-0.235605
C	 1.2232621937	-1.6317553086	 0.2194913455	 0.076856
C	 0.7859960047	-0.465400558	 1.1787672991	-0.071938
C	 2.1714431974	 0.2251107489	 1.2128691296	-0.122682
H	 0.5892303702	 2.1533104796	 0.1607094142	 0.101054
H	-0.7024754258	 1.7462918981	-0.9951323188	 0.118723
H	-1.0363971078	 1.7173128671	 0.7415505559	 0.118723
H	 1.0161288743	-0.5382984139	-1.8695966709	 0.070311
H	 2.9823127235	 1.0420330854	-0.8096125922	 0.093065
H	 4.205346878	-0.7891174501	 0.8070141834	 0.107112
H	 0.5558978619	-2.4746499486	 0.0770902641	 0.100401
H	 0.2495207724	-0.6048194848	 2.1168778033	 0.070311
H	 2.4587617224	 0.9966038833	 1.9129287369	 0.093065
223.38	229.0702	272.6472	538.1842	538.3382	586.392	672.8922	732.5903	766.3337	775.3956	798.9952	802.5619	838.5233	856.7949	893.6679	928.1859	950.7061	978.4177	988.7982	1001.6683	1057.0413	1061.2453	1076.8979	1108.5423	1120.9188	1161.2823	1173.6386	1182.3887	1221.7566	1226.3345	1235.8239	1251.863	1267.6468	1296.6331	1344.9612	1386.3917	1447.5526	1487.983	1505.4877	2974.0699	3062.6431	3098.2663	3121.3241	3123.2256	3192.4255	3204.454	3212.4128	3223.1388
CN1C2C3C4OC2C1C34	CN1[C@H]2[C@@H]3[C@@H]4O[C@H]2[C@H]1[C@H]34	
InChI=1S/C7H9NO/c1-8-4-2-3-5(8)7(4)9-6(2)3/h2-7H,1H3	InChI=1S/C7H9NO/c1-8-4-2-3-5(8)7(4)9-6(2)3/h2-7H,1H3/t2-,3+,4+,5-,6+,7-
