21
gdb 73702	2.59495	2.00724	1.35719	1.1255	82.08	-0.2347	0.0977	0.3324	1007.7231	0.184873	-387.053436	-387.046052	-387.045108	-387.084714	30.897	
C	-0.017943546	 1.5349897338	-0.174424301	-0.467505
C	-0.0416599101	 0.0284739447	 0.024074925	 0.474992
O	 0.0827012733	-0.5018485195	-1.2862008285	-0.323695
C	-0.426572991	-1.8130256124	-1.4514645526	-0.070295
C	 0.0084848149	-2.7102349182	-0.2964446717	-0.266278
C	-0.0978247003	-1.8996916031	 0.9883121043	 0.013201
C	 0.8275499527	-0.6488208997	 1.1398996348	-0.103526
C	-0.1967130237	-0.1286152822	 2.1835837243	-0.251216
C	-1.0626138575	-0.6577898672	 1.0096403962	-0.136042
H	 0.0045469753	 2.0972617948	 0.7593275321	 0.115394
H	 0.8674155318	 1.8030384682	-0.7588484294	 0.126787
H	-0.8958503254	 1.8472611024	-0.7482422076	 0.120337
H	-1.5272109377	-1.7807416366	-1.493160734	 0.088835
H	-0.0681231804	-2.1674942826	-2.4221321405	 0.102126
H	-0.6282499672	-3.6013874012	-0.2563198035	 0.096025
H	 1.0408061364	-3.0558348181	-0.4327590399	 0.102188
H	-0.1490717321	-2.5260899293	 1.8839054056	 0.062115
H	 1.9171466879	-0.6496341401	 1.2147835408	 0.064192
H	-0.2603532644	-0.7142524084	 3.1042422274	 0.091853
H	-0.2200265401	 0.9383198951	 2.4023336868	 0.093405
H	-2.1530781664	-0.6602323205	 0.9497572912	 0.067105
169.8996	189.4708	226.2706	326.6245	369.8786	433.3394	452.5312	504.0862	547.6536	643.4949	695.2187	773.3864	790.6128	826.7476	881.5792	885.5463	907.2728	939.353	952.4972	1011.6416	1035.9391	1040.828	1071.4055	1091.1477	1104.2235	1117.1538	1126.0385	1158.5438	1178.3218	1188.8284	1210.3843	1230.9143	1244.8594	1264.8488	1269.7598	1313.5054	1350.2856	1389.429	1413.7548	1421.5248	1482.7243	1484.5275	1493.4655	1512.093	1531.164	2973.2352	3025.0237	3049.437	3056.0516	3066.5719	3068.6071	3082.7735	3086.3445	3094.5626	3108.6838	3134.5974	3151.3704
CC12OCCC3C1CC23	C[C@@]12OCC[C@H]3[C@@H]1C[C@@H]23	
InChI=1S/C8H12O/c1-8-6-4-7(8)5(6)2-3-9-8/h5-7H,2-4H2,1H3	InChI=1S/C8H12O/c1-8-6-4-7(8)5(6)2-3-9-8/h5-7H,2-4H2,1H3/t5-,6-,7+,8+
