18
gdb 90359	2.31779	1.56925	1.32863	4.3503	72.17	-0.2381	0.0295	0.2675	1050.5586	0.147012	-439.094659	-439.086066	-439.085121	-439.127706	32.747	
C	-0.0575990831	 1.5574389633	-0.0632209439	-0.485936
C	 0.0452648759	 0.0551597982	 0.0504367234	 0.353436
N	-1.1947105933	-0.6425808363	 0.4156987199	-0.353775
C	-0.6268479308	-1.407811826	 1.4224723961	 0.43315
O	-1.0635996061	-2.2904367467	 2.1101689008	-0.364248
C	 0.74465234	-0.7426313126	 1.2125770209	-0.259274
C	 1.5624655926	-1.5543976847	 0.1588426904	-0.276521
C	 0.9020558608	-0.7284091099	-0.98783101	 0.083267
O	 0.1021157145	-1.4011612478	-1.9311269741	-0.438189
H	 0.9332985593	 2.0109875502	-0.1658136699	 0.119562
H	-0.6457984893	 1.8388745549	-0.9445939978	 0.128331
H	-0.5454609402	 1.9811137187	 0.8192449536	 0.129268
H	-1.9489385938	-0.9148075403	-0.2016497825	 0.250143
H	 1.2617210969	-0.2878794576	 2.0546373389	 0.094405
H	 2.6424717057	-1.4119754739	 0.2332009373	 0.107733
H	 1.3443372741	-2.6246591168	 0.1448717332	 0.120286
H	 1.6288622322	-0.0667676979	-1.4801958653	 0.068838
H	 0.6721465047	-1.936018655	-2.4925748912	 0.289523
71.3228	172.9188	209.0125	231.7213	246.2066	270.5526	309.2607	420.8328	459.3781	499.8151	544.3894	641.5223	652.0673	733.9054	791.5586	820.4289	879.2105	919.5292	938.8177	990.6654	1045.1915	1076.6564	1098.6593	1117.9619	1148.015	1174.9425	1187.7055	1222.0038	1241.0589	1273.1535	1292.5964	1330.1911	1366.4971	1412.3094	1420.3461	1475.63	1486.7495	1492.4733	1889.1038	2995.6147	3031.2806	3068.1858	3096.1824	3115.3824	3123.5477	3145.1581	3581.5771	3819.3552
CC12NC(=O)C1CC2O	C[C@]12NC(=O)[C@H]1C[C@H]2O	
InChI=1S/C6H9NO2/c1-6-3(2-4(6)8)5(9)7-6/h3-4,8H,2H2,1H3,(H,7,9)	InChI=1S/C6H9NO2/c1-6-3(2-4(6)8)5(9)7-6/h3-4,8H,2H2,1H3,(H,7,9)/t3-,4-,6+/m1/s1
