14
gdb 99438	3.329	0.74108	0.62311	4.4954	81.06	-0.2764	-0.0661	0.2103	1683.8538	0.100206	-395.702815	-395.693428	-395.692484	-395.737994	31.827	
C	-0.1848372844	 1.469929979	 0.0988869037	-0.3339
N	 0.2044325623	 0.068200164	-0.0593868844	-0.265211
C	 0.7630113033	-0.5305931627	 1.1461205749	-0.324819
C	-0.1784743661	-0.5578246661	 2.3016834901	 0.28538
N	-0.9545267009	-0.5266558543	 3.157164941	-0.311503
C	 1.2548073629	-1.8828683525	 0.8729262662	 0.049904
C	 1.6614759803	-2.9935972205	 0.6396906753	 0.17912
C	 2.1224562812	-4.2513863195	 0.370512873	 0.209732
N	 2.5145433604	-5.3195360965	 0.1399088367	-0.321937
H	 0.7063012091	 2.0689503795	 0.3145505243	 0.136709
H	-0.60290984	 1.8203644238	-0.8471528895	 0.141548
H	-0.9217177915	 1.6454349257	 0.8969599316	 0.135194
H	-0.5809466812	-0.4891674337	-0.3791267302	 0.2451
H	 1.6192146946	 0.0881019937	 1.4529336273	 0.174683
65.9203	78.5113	111.7874	162.9498	201.818	224.4565	260.335	339.8649	360.9176	445.8666	518.5429	575.1838	581.8948	601.0488	740.5573	812.5798	908.5945	983.2671	1122.5422	1154.0834	1172.3488	1188.4331	1309.9785	1324.0683	1458.8765	1486.8335	1492.3454	1519.0372	2275.7573	2350.3038	2413.0236	2995.1578	3010.8493	3076.8937	3127.8686	3532.6821
CNC(C#N)C#CC#N	CN[C@@H](C#N)C#CC#N	
InChI=1S/C6H5N3/c1-9-6(5-8)3-2-4-7/h6,9H,1H3	InChI=1S/C6H5N3/c1-9-6(5-8)3-2-4-7/h6,9H,1H3/t6-/m1/s1
