14
gdb 129864	5.42112	1.28499	1.0399	3.9544	71.98	-0.1857	0.0168	0.2024	1061.1866	0.104688	-432.882796	-432.875877	-432.874933	-432.91385	27.091	
N	 0.0894003608	 1.3541739307	 0.1686754979	-0.591854
C	-0.0717551583	-0.0125211037	 0.0581974423	 0.401485
C	-1.1887577407	-0.8100221027	 0.0252744476	-0.46869
C	-0.6539672523	-2.1401851575	 0.0019367807	 0.385094
C	 0.7221416488	-2.0364098728	 0.0164020684	 0.236368
O	 1.1013306733	-0.7160827529	 0.0529939367	-0.237218
C	 1.2449997709	-3.3339889464	-0.0198395686	-0.146637
N	 0.23641816	-4.2116661021	-0.0524376368	-0.236044
N	-0.9100533919	-3.4690832044	-0.0402389426	-0.357063
H	 0.9510112878	 1.6867648432	-0.2438492778	 0.262433
H	-0.7075054948	 1.8843399472	-0.1529127153	 0.260627
H	-2.2115362422	-0.4723059531	 0.0208517053	 0.106783
H	 2.2645413178	-3.6852197092	-0.0220753646	 0.115816
H	-1.7908724592	-3.9508013064	-0.0556865832	 0.268901
153.6108	203.7716	302.1874	319.2001	347.8076	425.1581	524.111	566.9922	631.3122	659.0932	685.6264	714.2126	737.4629	772.2293	837.9116	855.8202	966.0143	978.2429	1068.4418	1089.4885	1166.2591	1201.8313	1239.1182	1340.7454	1395.9026	1406.7777	1492.3336	1561.9394	1597.9169	1609.9976	1660.5805	3261.9846	3268.0601	3556.4466	3660.83	3693.4967
NC1=CC2=C(O1)C=NN2	Nc1cc2c(o1)cn[nH]2	
InChI=1S/C5H5N3O/c6-5-1-3-4(9-5)2-7-8-3/h1-2H,6H2,(H,7,8)	InChI=1S/C5H5N3O/c6-5-1-3-4(9-5)2-7-8-3/h1-2H,6H2,(H,7,8)
