13
gdb 50806	4.56839	0.8794	0.73744	1.4843	71.9	-0.2651	-0.1322	0.1329	1407.0501	0.089023	-448.947963	-448.939214	-448.93827	-448.982281	29.963	
N	 0.9789933336	-0.0823196691	-0.4085154608	-0.45502
C	-0.1004980325	 0.466310523	-0.028256118	 0.105469
N	-1.3029744822	-0.2045991452	-0.1896848667	-0.313119
C	-2.5286581019	 0.2784774107	 0.1779462881	 0.315496
N	-2.7132650285	 1.4201032115	 0.7196447518	-0.5179
C	-3.6348244642	-0.7073778975	-0.1377837132	 0.26481
O	-3.4479373371	-1.7815641705	-0.6497403535	-0.271904
C	-4.9903000274	-0.2604508642	 0.2293076628	 0.245464
N	-6.0640180498	 0.0661751853	 0.5075962591	-0.295631
H	 1.7716557927	 0.529599201	-0.2246596016	 0.238657
H	-0.2259437134	 1.4469325513	 0.4341562494	 0.148085
H	-1.2711983932	-1.1236469633	-0.6122855776	 0.281706
H	-3.6989068663	 1.589679147	 0.9153792903	 0.253886
52.8618	119.3566	123.1488	163.0216	191.6177	272.4451	314.5636	424.3464	454.8511	483.0497	540.9059	666.6019	678.8365	797.7893	828.5491	838.0997	863.4827	1036.0767	1086.4575	1143.513	1164.3512	1279.0288	1322.2872	1400.8739	1538.2135	1700.4833	1730.5947	1784.7033	2341.1032	3126.2191	3502.8005	3513.4275	3592.9917
N=CNC(=N)C(=O)C#N	N=CNC(=N)C(=O)C#N	
InChI=1S/C4H4N4O/c5-1-3(9)4(7)8-2-6/h2H,(H3,6,7,8)	InChI=1S/C4H4N4O/c5-1-3(9)4(7)8-2-6/h2H,(H3,6,7,8)
