15
gdb 14502	3.76771	2.03608	1.57063	3.2552	65.68	-0.2891	0.0167	0.3058	810.5929	0.119553	-362.6188	-362.612016	-362.611071	-362.649443	26.537	
O	-0.0106444874	 1.3983239928	-0.0801200475	-0.476124
C	 0.0126237018	-0.0035006741	 0.0034639331	 0.350161
C	 0.9869653269	-0.5397909572	-0.9580853279	 0.208967
N	 1.789745671	-0.9067886472	-1.7049494312	-0.345067
C	-0.0524904603	-0.698026422	 1.4135678141	-0.105043
C	-1.4923003837	-0.1128904677	 1.530647727	-0.247184
C	-1.3908358543	-0.6729033885	 0.0772600357	-0.07654
C	-0.6896474376	-1.9193329618	 0.691841367	-0.248278
H	 0.8901012598	 1.7296239217	 0.0062643722	 0.296555
H	 0.7377412362	-0.703001212	 2.164725686	 0.087625
H	-2.1659178594	-0.6561984431	 2.1957842469	 0.101175
H	-1.5837762598	 0.9655085207	 1.6400712288	 0.123495
H	-2.1440796918	-0.6457154341	-0.709458655	 0.094406
H	-0.0493455317	-2.513862008	 0.0374959343	 0.12836
H	-1.3243929997	-2.5508290296	 1.3146844465	 0.107491
157.7458	171.541	286.7122	338.4756	348.4543	508.0702	518.3405	540.6427	593.3038	680.6916	787.4514	810.7915	900.5974	906.6008	918.421	989.0508	1022.1967	1025.1814	1064.0822	1089.0416	1107.1603	1147.6943	1179.083	1192.3256	1199.3783	1234.2376	1250.9047	1253.9046	1356.5594	1495.7592	1533.1082	2346.538	3075.6125	3084.623	3115.2252	3126.3902	3143.114	3169.2019	3809.4474
OC1(C#N)C2CC1C2	O[C@@]1(C#N)[C@H]2C[C@@H]1C2	
InChI=1S/C6H7NO/c7-3-6(8)4-1-5(6)2-4/h4-5,8H,1-2H2	InChI=1S/C6H7NO/c7-3-6(8)4-1-5(6)2-4/h4-5,8H,1-2H2/t4-,5+,6-
