18
gdb 92827	2.55612	1.70645	1.2845	3.2318	71.62	-0.2468	0.0146	0.2614	1016.1271	0.147929	-439.055935	-439.047771	-439.046827	-439.088172	31.516	
C	-0.1340233127	 1.5580199067	-0.0846842754	-0.449075
C	-0.079917108	 0.0312191146	-0.1020240626	 0.156416
C	 1.121308934	-0.5379749174	-0.9235036118	-0.163624
O	 1.8359990202	-0.8671263299	 0.3409403659	-0.276261
C	 0.6565671128	-0.6573581042	 0.9982298439	 0.409101
N	 0.0712889282	-1.1942080204	 1.9809534992	-0.313986
C	-1.3577669984	-0.8536782374	 1.7069862441	-0.205609
C	-1.4419148664	-0.6519773481	 0.140183522	 0.035525
O	-2.5232470043	 0.1250640741	-0.3199965735	-0.432402
H	 0.8700685539	 1.9795529851	 0.0186483614	 0.123371
H	-0.5774444439	 1.9293636716	-1.0129886906	 0.134647
H	-0.7478204937	 1.9250630923	 0.7408066085	 0.136451
H	 0.930257492	-1.4583889598	-1.4811360297	 0.128029
H	 1.6930785625	 0.1780675482	-1.5156437926	 0.126089
H	-1.9914967387	-1.6765414363	 2.0512180719	 0.106884
H	-1.678650616	 0.0573335671	 2.2281298142	 0.113314
H	-1.4418630677	-1.6505046252	-0.3246567576	 0.079862
H	-3.3399831337	-0.345653741	-0.1270316273	 0.29127
134.2595	210.2151	222.5079	246.6935	260.3902	288.1651	295.6298	370.9976	485.8554	557.3177	613.2218	669.9513	708.8548	784.0148	861.7769	881.6618	921.4096	952.5364	972.8056	996.9286	1033.525	1109.2818	1122.899	1141.5258	1176.3965	1193.254	1214.2613	1238.5887	1284.4424	1290.2059	1326.1613	1365.8002	1410.6628	1433.5422	1488.2715	1493.0488	1498.8353	1504.5247	1762.1709	2978.12	3027.6251	3046.191	3064.4412	3084.9291	3116.2207	3128.4097	3139.7645	3824.8496
CC12COC1=NCC2O	C[C@@]12CO[C]1[N]C[C@H]2O	
InChI=1S/C6H9NO2/c1-6-3-9-5(6)7-2-4(6)8/h4,8H,2-3H2,1H3	InChI=1S/C6H9NO2/c1-6-3-9-5(6)7-2-4(6)8/h4,8H,2-3H2,1H3/t4-,6+/m1/s1
