17
gdb 80140	2.43513	1.90244	1.49047	1.8287	75.96	-0.2051	-0.0044	0.2007	940.0446	0.139884	-414.171039	-414.163507	-414.162563	-414.202788	29.565	
N	-0.3143616078	 1.4823051199	 0.0523831144	-0.496929
C	-0.0819824991	 0.0682024551	 0.0087417659	-0.053749
C	-0.4278446454	-0.7088616171	 1.2806616419	-0.030057
N	-0.6574631764	-0.0106470454	 2.4905535674	-0.242126
C	-1.754878976	 0.549891165	 2.7805912822	 0.10323
N	-2.955063602	 0.6367468923	 2.0812195269	-0.312514
C	-3.2563140975	 0.365494823	 0.7497449249	 0.103224
N	-2.6062769894	-0.2500244804	-0.1453610271	-0.242092
C	-1.3272131199	-0.8193167889	 0.0642018337	-0.030033
H	 0.4891255895	 1.9659457881	 0.4383783701	 0.23591
H	-0.4833571343	 1.8467998593	-0.8787810498	 0.235897
H	 0.758978843	-0.3073903823	-0.5789506886	 0.074381
H	 0.2015584261	-1.5814365856	 1.4407317126	 0.096439
H	-1.8281386727	 1.0602927399	 3.7426040431	 0.107158
H	-3.6664631513	 1.170491284	 2.5587040708	 0.247668
H	-4.2370018692	 0.764464875	 0.4843807651	 0.107157
H	-1.2171940276	-1.7556977617	-0.4782436335	 0.096437
115.8472	155.4186	246.1753	252.6246	371.6609	395.5753	460.1716	495.8271	578.5013	580.9554	668.5475	737.7809	772.0288	836.8643	843.9647	859.0234	922.7643	942.9277	946.9244	972.0957	984.3026	1088.6513	1094.4184	1128.2023	1169.1903	1242.392	1259.1622	1260.6822	1371.3311	1372.3033	1423.3759	1436.1127	1471.3177	1531.1194	1650.2025	1747.6144	1779.2805	3057.9395	3111.8073	3112.4854	3122.5141	3134.1531	3507.895	3587.652	3602.2467
NC1C2N=CNC=NC12	N[C@H]1[C@H]2N=CNC=N[C@@H]12	
InChI=1S/C5H8N4/c6-3-4-5(3)9-2-7-1-8-4/h1-5H,6H2,(H,7,8,9)	InChI=1S/C5H8N4/c6-3-4-5(3)9-2-7-1-8-4/h1-5H,6H2,(H,7,8,9)/t3-,4+,5-
