19
gdb 116623	4.5056	0.94831	0.8432	3.3392	80.53	-0.2366	0.0191	0.2557	1418.3536	0.160248	-419.195375	-419.18686	-419.185916	-419.22979	31.464	
C	-0.4848254018	 1.4776513587	-0.1548390957	-0.367072
C	 0.2840408411	 0.1761534554	 0.0629055417	-0.127667
N	 1.0050912648	-0.1955624631	-1.1498303976	-0.354927
C	 2.0448818043	-0.8985509068	-1.0553146373	 0.513449
O	 2.5677414701	-1.3917738074	 0.1168642329	-0.263921
C	 3.9022518647	-1.8939780047	-0.0756685529	-0.082463
C	 4.1160489284	-1.9455424255	-1.5748197791	-0.059883
N	 3.1058425452	-2.7882504305	-2.2304146701	-0.330032
C	 2.9235894166	-1.3095973509	-2.1829777877	-0.174157
H	 0.2011242301	 2.3015801711	-0.3757305488	 0.11304
H	-1.1731014189	 1.3802587344	-0.999427827	 0.120785
H	-1.0617844053	 1.7422326324	 0.7372076541	 0.10332
H	 0.9594405905	 0.2654079354	 0.9249386518	 0.101425
H	-0.4221096391	-0.6295923935	 0.3081929731	 0.108284
H	 4.6136904464	-1.2121601706	 0.4054689464	 0.112767
H	 3.96380201	-2.8779507728	 0.3979524424	 0.126885
H	 5.1134902656	-1.8483042291	-1.9876393884	 0.105512
H	 3.4310171719	-3.034029093	-3.1634174792	 0.239601
H	 2.9287612253	-0.7271654597	-3.0942662585	 0.115054
23.8553	116.9032	143.2059	194.3073	247.5522	302.2627	380.232	425.9501	443.8853	664.2011	722.2916	759.1367	793.7257	820.4529	836.9123	869.7796	892.9206	921.5329	963.1406	1018.2989	1043.9989	1069.3906	1090.6552	1112.7663	1121.5645	1148.4692	1160.3581	1206.6563	1231.6808	1258.4799	1296.6898	1366.0277	1381.282	1398.4807	1408.9851	1413.9562	1482.0574	1489.0002	1505.0578	1505.9816	1799.7384	3000.0181	3030.8894	3034.3633	3037.3006	3092.6104	3107.0244	3115.4692	3182.0037	3216.7911	3492.6393
CCN=C1OCC2NC12	CCN=C1OC[C@H]2N[C@@H]12	
InChI=1S/C6H10N2O/c1-2-7-6-5-4(8-5)3-9-6/h4-5,8H,2-3H2,1H3	InChI=1S/C6H10N2O/c1-2-7-6-5-4(8-5)3-9-6/h4-5,8H,2-3H2,1H3/t4-,5-/m1/s1
