21
gdb 90968	3.65253	1.38184	1.29866	1.3715	82.78	-0.2479	0.0893	0.3372	1080.8734	0.184482	-387.0289	-387.021449	-387.020505	-387.060664	30.878	
C	 0.0057495256	 1.5487631585	 0.0909125369	-0.397999
C	 0.0336980398	 0.0350212069	-0.0325611462	 0.156595
C	 0.8382642	-0.5148513344	-1.2879217825	-0.418439
C	 1.9063523359	-1.3145532168	-0.5803110893	 0.331396
C	 2.7014379207	-2.653948839	-0.5031150932	-0.316936
C	 2.8299556332	-1.9860949444	 0.9222781253	-0.105263
C	 3.1018804985	-0.6535748255	 0.1905288792	-0.251637
C	 1.3042926072	-1.6838784581	 0.7701592346	 0.136963
O	 0.6358950823	-0.5134004592	 1.1769678859	-0.30257
H	 1.0202948517	 1.9592900852	 0.0947673582	 0.122275
H	-0.5420086432	 1.9893441109	-0.7484263708	 0.114298
H	-0.4896629741	 1.8464720405	 1.0192942373	 0.127491
H	-0.9968568345	-0.3434948337	-0.0890541741	 0.076878
H	 0.189330398	-1.1343916199	-1.9139350636	 0.106419
H	 1.2267405164	 0.3023503344	-1.9020955302	 0.105419
H	 2.1203408221	-3.5785539683	-0.5672821491	 0.095011
H	 3.6284794179	-2.7214095844	-1.0764239258	 0.098483
H	 3.3590978735	-2.3989778546	 1.7820859483	 0.073112
H	 4.043977307	-0.5818597094	-0.3596883306	 0.082902
H	 2.8822549403	 0.2579075036	 0.744685634	 0.10911
H	 0.6438304019	-2.5612334323	 0.8135573057	 0.056492
71.1479	236.1551	248.9844	338.1989	345.9434	426.2768	439.2076	517.7867	572.0131	694.9065	731.6771	769.6011	789.8347	838.5106	865.7278	888.2122	904.7954	947.4483	950.3833	984.7931	1022.386	1029.7882	1059.7866	1072.3009	1090.333	1101.4022	1129.6729	1144.4864	1167.8171	1179.4493	1204.1411	1219.3288	1226.1639	1257.9677	1272.1629	1304.4619	1349.1896	1369.1554	1400.4528	1412.3166	1484.9331	1487.9218	1492.1434	1497.1744	1530.2299	2992.9032	3003.16	3038.8537	3052.2651	3053.9775	3064.261	3099.1447	3104.4256	3110.6763	3118.6467	3122.7742	3150.481
CC1CC23CC(C2)C3O1	C[C@H]1C[C@@]23C[C@@H](C2)[C@H]3O1	
InChI=1S/C8H12O/c1-5-2-8-3-6(4-8)7(8)9-5/h5-7H,2-4H2,1H3	InChI=1S/C8H12O/c1-5-2-8-3-6(4-8)7(8)9-5/h5-7H,2-4H2,1H3/t5-,6-,7+,8+/m0/s1
