16
gdb 66816	3.7302	1.8285	1.81782	0.2784	68.97	-0.2263	0.066	0.2923	811.4248	0.126624	-400.661877	-400.656095	-400.655151	-400.691595	25.325	
O	-0.0680289426	 1.4157842229	 0.0237884554	-0.460958
C	 0.0393503808	 0.0445141267	 0.0022981958	 0.37121
C	-1.1477408358	-0.8778927455	 0.1290955108	-0.12929
C	-0.818431864	-2.0152613653	 1.0813251195	-0.078343
C	 0.6028254338	-1.8441389431	 1.6045592771	-0.105764
C	 0.3199052774	-2.7994886928	 0.4730452797	-0.037621
N	 0.8902028126	-1.8653853161	-0.5526629209	-0.148996
C	-0.2084416088	-0.9973516189	-1.0689966239	-0.139348
C	 1.1603320038	-0.8583042088	 0.5633933227	-0.103596
H	 0.6172821088	 1.7843642271	-0.5450021719	 0.289591
H	-2.144155169	-0.4756164114	 0.0033803363	 0.096296
H	-1.5681845754	-2.5032096522	 1.6895288249	 0.09108
H	 0.9306119906	-2.0226029633	 2.6202393033	 0.091589
H	 0.3921536392	-3.8762311757	 0.3862416484	 0.092445
H	-0.4927061514	-0.9533805351	-2.1135391312	 0.094523
H	 2.18249812	-0.4862904285	 0.6391904439	 0.077183
246.0056	321.9649	348.6473	565.6653	569.9906	618.7835	706.1152	752.5542	782.6093	791.387	798.8211	829.4946	863.8212	874.0109	911.4326	918.2507	942.9695	956.407	980.8053	1006.7606	1026.6312	1032.8492	1051.2494	1067.6061	1086.402	1135.4874	1169.4239	1194.1442	1215.6249	1249.5131	1260.6696	1276.5653	1320.3663	1346.1306	1460.9994	3109.1602	3182.9381	3187.8154	3198.9169	3209.6354	3219.9903	3792.9066
OC12C3C4C5C4N(C13)C25	O[C@@]12[C@@H]3[C@@H]4[C@H]5[C@@H]4N([C@H]13)[C@@H]25	
InChI=1S/C7H7NO/c9-7-3-1-2-4(1)8(5(2)7)6(3)7/h1-6,9H	InChI=1S/C7H7NO/c9-7-3-1-2-4(1)8(5(2)7)6(3)7/h1-6,9H/t1-,2-,3+,4+,5+,6-,7+/m0/s1
