16
gdb 64058	2.3445	1.84185	1.34406	1.4328	64.77	-0.2733	-0.0379	0.2354	969.9777	0.12369	-475.06711	-475.058916	-475.057972	-475.099583	30.908	
C	 0.7734335081	 1.2814287974	-0.1230318943	-0.420787
C	-0.1150517108	 0.026323078	-0.0039646554	 0.200168
O	-1.4746777837	 0.390776015	 0.0562669181	-0.467552
C	 0.0936988201	-0.9286411418	-1.1926366026	-0.197182
N	 1.376301966	-1.6193531241	-1.155872856	-0.232322
C	 1.8958140506	-1.8224996571	-0.0317352163	 0.129865
O	 1.3815648955	-1.4918797577	 1.2160666172	-0.213578
C	 0.2586282953	-0.7128385698	 1.2770243009	 0.41186
O	-0.3486435906	-0.6121088261	 2.3051527021	-0.33164
H	 1.829478895	 1.0306075407	-0.2556553405	 0.132067
H	 0.4368107141	 1.8538546735	-0.9914006702	 0.138874
H	 0.6669288026	 1.907229747	 0.7671135196	 0.133814
H	-1.7148726268	 0.4014287137	 0.993774107	 0.297444
H	-0.7124472382	-1.6730544756	-1.1999093285	 0.139083
H	 0.0172612052	-0.3709892814	-2.1306365938	 0.130392
H	 2.8428676578	-2.3372954919	 0.0973359327	 0.149495
105.027	156.0969	212.9488	233.5522	307.9096	328.428	364.9707	407.9077	474.5766	486.0661	522.2564	589.1401	687.3846	751.3389	873.8145	888.9203	945.6047	971.5461	988.7934	1005.4418	1087.8833	1100.3918	1148.0134	1159.6056	1221.1146	1251.3012	1360.1627	1400.9768	1403.2478	1417.2581	1479.7044	1490.1234	1495.2014	1752.1351	1858.3535	3037.5925	3046.6358	3086.4268	3127.2304	3128.7595	3196.4571	3743.2274
CC1(O)CN=COC1=O	C[C@@]1(O)CN=COC1=O	
InChI=1S/C5H7NO3/c1-5(8)2-6-3-9-4(5)7/h3,8H,2H2,1H3	InChI=1S/C5H7NO3/c1-5(8)2-6-3-9-4(5)7/h3,8H,2H2,1H3/t5-/m1/s1
