20
gdb 116401	2.61558	1.3677	0.98904	3.489	76.24	-0.2332	0.0293	0.2625	1235.5786	0.172156	-440.321537	-440.312582	-440.311638	-440.355965	32.781	
C	-0.1507509312	 1.5620182498	 0.0287259397	-0.377795
C	 0.0205752759	 0.0417627533	-0.0150973243	-0.153171
N	 0.7284804171	-0.4190594546	-1.2084183933	-0.096509
C	-0.055266333	-0.6770200119	-2.4113334963	-0.158245
C	 0.8456548837	-0.7670637663	-3.634505416	-0.097533
O	 1.8889718367	-1.6882001179	-3.39850001	-0.23844
C	 2.7499499465	-1.2151062432	-2.3822553574	-0.189911
C	 2.0678246972	-0.6695808998	-1.1263346235	 0.380809
O	 2.7309313258	-0.4563109672	-0.1241725436	-0.395133
H	 0.8264865296	 2.0507250041	 0.0625256752	 0.141933
H	-0.6949243305	 1.9351659366	-0.8454748994	 0.112633
H	-0.7124463463	 1.8544044145	 0.9215151135	 0.119642
H	 0.5978509713	-0.2918435829	 0.8488479288	 0.144814
H	-0.955600933	-0.4574097265	 0.010278608	 0.100796
H	-0.6239988393	-1.6117718962	-2.2995620984	 0.115965
H	-0.7808879477	 0.134450348	-2.5489998831	 0.110946
H	 0.2792497431	-1.1305276402	-4.4959706163	 0.118176
H	 1.2529881591	 0.2276244	-3.8813118297	 0.097754
H	 3.3846735222	-2.0483411182	-2.073412717	 0.144128
H	 3.4094736031	-0.4171131116	-2.7622183369	 0.119139
45.1855	93.4305	123.4098	184.2147	224.2335	340.1942	350.6784	359.0071	457.4341	490.2278	517.1078	587.2957	687.8798	707.2546	784.7031	888.5223	930.5633	962.632	1005.9637	1026.0885	1082.0676	1098.1065	1128.9783	1138.4692	1174.8578	1238.1031	1248.6199	1273.3782	1309.2617	1331.7381	1366.354	1372.9149	1395.2009	1409.3736	1416.6135	1461.1462	1471.2942	1485.4057	1492.4641	1497.9428	1501.9886	1522.6468	1761.2985	2969.7382	2977.4517	2997.1392	3034.3495	3036.8001	3047.0019	3097.3581	3099.0811	3113.9878	3120.0301	3130.5054
CCN1CCOCC1=O	CCN1CCOCC1=O	
InChI=1S/C6H11NO2/c1-2-7-3-4-9-5-6(7)8/h2-5H2,1H3	InChI=1S/C6H11NO2/c1-2-7-3-4-9-5-6(7)8/h2-5H2,1H3
