18
gdb 42976	2.77766	1.68821	1.28289	2.9596	76.24	-0.2466	-0.0213	0.2253	1012.6181	0.149945	-401.947297	-401.939954	-401.93901	-401.978992	29.272	
O	 0.1197463937	 0.0985078707	 0.2928344655	-0.361405
C	 0.0205391879	 1.2928801969	 0.1189048179	 0.37518
C	-1.2157625146	 2.0797161204	-0.1358646896	-0.152184
C	-1.3847912132	 3.3123242499	 0.7517112035	-0.285498
C	-0.7730063015	 3.4662566778	-0.5993401325	-0.046294
C	 0.7558322988	 3.5053677205	-0.6674425995	-0.319033
C	 1.2022614079	 2.2359527741	 0.0441304084	 0.229998
C	 2.2225900453	 2.133867576	 1.1326495575	-0.276832
N	 2.5169134195	 1.6426474467	-0.2104813973	-0.356521
H	-2.0969680811	 1.569814058	-0.5023060823	 0.110517
H	-2.4067621716	 3.6459552473	 0.8912660631	 0.126979
H	-0.7589527557	 3.4049704927	 1.6335514875	 0.127367
H	-1.3373001092	 3.9788840142	-1.3693065464	 0.099272
H	 1.0900458713	 3.4715372541	-1.7096618026	 0.123415
H	 1.1666668719	 4.4154524271	-0.2188632658	 0.109857
H	 2.7608250389	 3.0314419338	 1.4265326603	 0.122183
H	 2.0427602511	 1.4117894926	 1.9251242614	 0.127981
H	 2.3876706004	 0.6287235472	-0.2230541791	 0.245017
95.0121	198.585	256.131	275.8115	358.2553	370.3847	450.6301	561.8055	601.3658	690.8195	773.7865	793.7344	829.6496	842.9094	889.5123	907.9531	939.9234	967.0449	976.4941	1006.5836	1029.7861	1068.2491	1088.2887	1104.4886	1112.9793	1129.8548	1182.1919	1194.3794	1209.2943	1273.5513	1304.5909	1323.4251	1332.9748	1368.5594	1403.6226	1485.9645	1497.9086	1498.5276	1812.5017	3046.1099	3085.7322	3102.3613	3132.5004	3181.1704	3194.5372	3205.1107	3221.7189	3441.5553
O=C1C2CC2CC11CN1	O=C1[C@H]2C[C@H]2C[C@]21CN2	
InChI=1S/C7H9NO/c9-6-5-1-4(5)2-7(6)3-8-7/h4-5,8H,1-3H2	InChI=1S/C7H9NO/c9-6-5-1-4(5)2-7(6)3-8-7/h4-5,8H,1-3H2/t4-,5-,7+/m0/s1
