15
gdb 124391	3.28653	1.13707	1.04144	3.8332	73.09	-0.274	-0.041	0.2331	1175.4374	0.110798	-416.752464	-416.74403	-416.743086	-416.786286	30.42	
C	 0.0059502267	 1.5710429681	 0.0127479621	-0.390503
C	 0.0384624561	 0.0238610501	-0.0098683021	-0.276415
C	 0.7001161504	-0.4817412769	-1.2147065557	 0.334413
C	 1.2400388371	-0.8802106396	-2.2104670003	-0.459294
C	 0.6845656546	-0.5248259193	 1.2315617187	 0.445512
C	 0.238491567	-1.3476841872	 2.219101323	-0.222565
N	 1.2663380059	-1.4861243412	 3.1208240941	-0.106349
N	 2.2694465426	-0.8252366401	 2.760097234	-0.006409
O	 1.9348182892	-0.1713978506	 1.5180150263	-0.219132
H	 1.0213562351	 1.9713258602	 0.0360202474	 0.1531
H	-0.4970768105	 1.9427568565	-0.8823982616	 0.13627
H	-0.5324560181	 1.9245429669	 0.8962351831	 0.129674
H	-0.9950191454	-0.3441897654	-0.0053483793	 0.131034
H	 1.7207423493	-1.2390393373	-3.0870696861	 0.208003
H	-0.70994638	-1.8399020341	 2.3475853064	 0.14266
43.7516	100.7439	171.855	192.718	230.8799	308.3168	376.3435	448.0457	533.8367	609.4225	641.432	658.2419	697.3701	712.018	760.2966	825.9428	866.0096	987.3707	999.2151	1045.3247	1078.228	1113.4646	1120.746	1248.0195	1293.1457	1314.2132	1391.5199	1407.6742	1461.7313	1490.6619	1497.5613	1602.1845	2243.473	3034.8178	3054.1458	3133.0412	3146.12	3291.8873	3502.9569
CC(C#C)C1=CN=NO1	C[C@@H](C#C)c1cnno1	
InChI=1S/C6H6N2O/c1-3-5(2)6-4-7-8-9-6/h1,4-5H,2H3	InChI=1S/C6H6N2O/c1-3-5(2)6-4-7-8-9-6/h1,4-5H,2H3/t5-/m0/s1
