21
gdb 38626	3.28839	1.91464	1.6141	0.0796	85.19	-0.2518	0.0983	0.3501	920.4326	0.187615	-349.925133	-349.919017	-349.918073	-349.955056	27.657	
C	-0.0382544725	 1.5594805467	 0.0974118135	-0.348911
C	 1.5145921963	 1.3583516475	-0.0290117178	-0.065669
C	 1.8882817597	 0.6925245263	 1.3046459248	-0.231624
C	 1.0032802581	-0.5416917706	 1.0878506743	-0.040361
C	 1.5396112956	-1.2813277062	-0.1611099037	-0.050286
C	 0.3274469157	-2.1669816902	-0.5740161258	-0.218539
C	-0.8827348395	-1.1692557508	-0.3788891475	-0.337428
C	-0.0490226914	 0.0265645956	 0.0331475468	 0.36016
C	 1.2234531266	 0.0513633128	-0.8706069664	-0.028193
H	-0.4215799732	 2.0721046655	 0.9863092818	 0.087295
H	-0.4687323088	 2.0085046656	-0.8028699244	 0.097066
H	 2.1523131183	 2.1547476835	-0.4117734429	 0.058637
H	 2.9522257381	 0.4485823061	 1.3897348878	 0.09068
H	 1.5980891875	 1.2894172994	 2.1751194856	 0.089727
H	 0.6636152328	-1.1069160151	 1.9584375084	 0.051842
H	 2.5175296313	-1.7710968639	-0.1728407813	 0.048326
H	 0.4052789163	-2.5140762965	-1.6089635427	 0.095287
H	 0.2427895157	-3.0509261772	 0.0655110392	 0.09484
H	-1.4427427248	-1.0083058178	-1.3048923908	 0.094972
H	-1.585714866	-1.5141998416	 0.3859487056	 0.093727
H	 1.1332592244	 0.1420595209	-1.9545295445	 0.058451
256.0666	319.4187	376.2451	426.5145	441.3328	601.4873	648.1667	707.0131	739.1721	807.7903	836.8525	840.7577	876.2918	883.6437	904.9106	909.9029	943.4015	954.207	973.7858	987.3836	1004.186	1017.8434	1047.0422	1067.7381	1074.2223	1102.955	1144.3014	1160.6127	1182.7818	1190.2557	1211.8821	1231.3946	1236.1377	1247.3291	1249.5952	1265.9455	1285.0674	1298.3348	1307.0215	1332.8246	1361.0179	1487.5908	1490.6216	1508.345	1512.1362	3035.9848	3041.7023	3043.0723	3050.6275	3067.1425	3078.4818	3084.5737	3090.1948	3095.6231	3097.6702	3098.8788	3117.8218
C1C2CC3C4CCC13C24	C1[C@H]2C[C@@H]3[C@H]4CC[C@@]13[C@@H]24	
InChI=1S/C9H12/c1-2-9-4-5-3-7(9)6(1)8(5)9/h5-8H,1-4H2	InChI=1S/C9H12/c1-2-9-4-5-3-7(9)6(1)8(5)9/h5-8H,1-4H2/t5-,6-,7-,8+,9-/m1/s1
