16
gdb 9051	4.47909	1.00243	0.85981	1.4959	74.05	-0.2576	0.017	0.2746	1306.3828	0.125776	-346.515693	-346.506262	-346.505318	-346.550927	33.114	
C	-0.0821133101	 1.5193852821	 0.0163472552	-0.397459
C	 0.0294042318	-0.0135664381	-0.0056563334	-0.028028
O	 0.7026299292	-0.4833925297	-1.1736137391	-0.254476
C	-0.1269770154	-0.5446100789	-2.3212277572	-0.21351
C	 0.6147493925	-1.1345244825	-3.4270999798	 0.289757
C	 1.2014285461	-1.6147826616	-4.3580031675	-0.415802
C	 0.7647790085	-0.5057389346	 1.1584889776	 0.32108
C	 1.3532542214	-0.8800163653	 2.136106458	-0.43376
H	 0.9154565046	 1.9627478038	-0.0255132203	 0.141115
H	-0.6670836106	 1.8805526981	-0.8340704311	 0.119181
H	-0.576078684	 1.8486224483	 0.934493375	 0.130981
H	-0.9857313807	-0.4454224429	 0.0199795591	 0.096349
H	-1.0251531415	-1.1505865868	-2.1118457557	 0.121044
H	-0.4811969406	 0.4559144824	-2.6163497921	 0.121933
H	 1.7274402432	-2.042344679	-5.1754818984	 0.201742
H	 1.8772236657	-1.2240083152	 2.9934589195	 0.199855
23.6597	79.2057	111.7058	189.9287	206.8537	240.5307	319.9273	340.7711	400.2969	455.0043	542.9197	601.8617	609.7793	626.0123	671.9556	676.9938	833.0466	917.8293	975.8578	1029.6483	1050.6104	1094.3055	1108.3867	1140.4811	1251.5092	1340.0444	1352.7087	1399.9434	1425.6823	1487.0198	1489.856	1502.9715	2244.8461	2249.1335	2954.506	2959.2204	2985.864	3049.2187	3121.997	3136.9348	3503.7369	3506.5908
CC(OCC#C)C#C	C[C@@H](OCC#C)C#C	
InChI=1S/C7H8O/c1-4-6-8-7(3)5-2/h1-2,7H,6H2,3H3	InChI=1S/C7H8O/c1-4-6-8-7(3)5-2/h1-2,7H,6H2,3H3/t7-/m1/s1
