16
gdb 87314	1.97923	1.40702	0.97293	4.5482	75.65	-0.2587	0.026	0.2846	1218.2443	0.121681	-400.70824	-400.698918	-400.697974	-400.742689	34.024	
O	-0.2590460791	 1.3660547874	 0.0522440858	-0.416725
C	-0.1294730278	-0.0212175294	 0.1117767493	 0.049641
C	-0.7886428769	-0.7853522921	 1.2209515786	-0.352666
C	-1.3833399173	-0.8331139485	-0.1872088774	 0.105339
C	-2.6756013595	-0.0529172522	-0.4440417017	-0.426248
C	-3.846922581	-0.6808215565	 0.1662443939	 0.279047
N	-4.769320533	-1.1701326057	 0.6608183354	-0.310528
C	-1.2295451108	-2.0439323734	-0.9451279266	 0.283944
C	-1.1090658964	-3.0518936208	-1.5895394596	-0.426251
H	 0.2159429354	 1.7459648489	 0.7990088571	 0.298585
H	 0.795558004	-0.4166137967	-0.3035650061	 0.115343
H	-0.3153236275	-1.6837588723	 1.5976101311	 0.137855
H	-1.3486229671	-0.2129093072	 1.9533011232	 0.133159
H	-2.5639708744	 0.9610544768	-0.050811575	 0.16822
H	-2.842982381	 0.0374854999	-1.5221550623	 0.160361
H	-1.0076120077	-3.9462312982	-2.1530536057	 0.200922
47.4834	120.2043	147.2989	163.4744	236.5763	274.3201	303.2245	388.5866	418.5962	459.9998	487.9808	538.7058	586.6225	604.5723	662.545	713.0484	826.5206	902.3136	921.2175	946.6239	953.4628	1021.8115	1059.8534	1095.9432	1161.4566	1207.198	1262.5649	1302.8717	1319.966	1334.2558	1416.145	1462.5379	1476.4608	2239.0725	2364.2957	3061.7738	3109.7359	3125.5598	3139.655	3236.4812	3502.8841	3807.7068
OC1CC1(CC#N)C#C	O[C@H]1C[C@]1(CC#N)C#C	
InChI=1S/C7H7NO/c1-2-7(3-4-8)5-6(7)9/h1,6,9H,3,5H2	InChI=1S/C7H7NO/c1-2-7(3-4-8)5-6(7)9/h1,6,9H,3,5H2/t6-,7+/m0/s1
