20
gdb 9399	4.71628	0.75254	0.68231	2.8374	72.82	-0.246	-0.0191	0.2269	1622.4382	0.174089	-386.148748	-386.138482	-386.137538	-386.185307	34.845	
C	-0.079666123	 1.5723111181	 0.1244215462	-0.410053
C	-0.0134947333	 0.039267954	 0.0178669244	-0.059629
C	 0.686173748	-0.4503007577	-1.2708264383	-0.202381
C	-0.0399848141	-0.0652517613	-2.5640921059	-0.175395
C	 0.6181828389	-0.6656104962	-3.8006259461	-0.073981
O	-0.1104883117	-0.2255803828	-4.9358148782	-0.420791
C	 0.7456782704	-0.5089652438	 1.2103548654	 0.159785
O	 0.3252069432	-1.319620338	 1.9942903623	-0.249638
H	 0.9245619807	 2.011665815	 0.1077089218	 0.119896
H	-0.6464340897	 2.0017334653	-0.7050146402	 0.133473
H	-0.5666034271	 1.8804647122	 1.0547334023	 0.128909
H	-1.0231342519	-0.3838352714	 0.063325729	 0.095392
H	 1.7132964392	-0.0593408542	-1.2934574553	 0.098694
H	 0.7745046953	-1.5435722811	-1.2223139662	 0.109478
H	-1.0825913561	-0.4033057665	-2.5262547152	 0.110381
H	-0.0658525179	 1.022268576	-2.6903317461	 0.112392
H	 1.6720398515	-0.3450343708	-3.8534931634	 0.084421
H	 0.6172855397	-1.7654888615	-3.7259634076	 0.087152
H	 0.2915347302	-0.6098466715	-5.7201836853	 0.286713
H	 1.7788445377	-0.0946987536	 1.3146658868	 0.065182
46.3963	52.9112	82.8017	128.7785	136.8636	206.341	260.4155	277.6204	290.8485	351.0022	375.8673	480.3949	569.3366	757.4573	843.9532	885.0361	913.2022	962.9608	1006.7831	1012.43	1057.0462	1077.3532	1121.1772	1156.9913	1179.242	1219.9319	1231.8354	1279.8074	1306.899	1319.4692	1327.2275	1361.107	1390.5678	1407.2216	1429.0697	1464.0878	1483.7493	1497.2931	1500.2011	1504.5908	1529.0236	1836.5441	2829.9036	2957.4461	2983.4715	3006.9429	3034.8049	3038.8897	3040.4174	3058.3653	3087.4128	3102.2722	3123.2171	3831.2555
CC(CCCO)C=O	C[C@@H](CCCO)C=O	
InChI=1S/C6H12O2/c1-6(5-8)3-2-4-7/h5-7H,2-4H2,1H3	InChI=1S/C6H12O2/c1-6(5-8)3-2-4-7/h5-7H,2-4H2,1H3/t6-/m0/s1
