18
gdb 67938	2.51983	1.75873	1.30221	3.5165	77.33	-0.2182	-0.0007	0.2175	1018.2765	0.148193	-401.979074	-401.97131	-401.970365	-402.011214	30.47	
C	 0.0662653357	 1.4955841027	-0.0706511983	-0.446545
C	-0.0552088857	-0.0204697416	-0.0300903103	 0.353668
C	-1.1930400059	-0.5813194523	 0.8750261745	-0.455629
C	-0.0727111373	-1.2561052183	 1.6910640862	 0.411221
O	-0.0081937854	-2.0278425259	 2.6021314062	-0.328135
N	 0.9395727612	-0.6583229933	 0.8983667394	-0.131878
C	 1.8931943148	-1.3728379727	 0.1273187594	-0.068103
C	 1.5658980011	-1.3792609821	-1.1668905705	-0.091542
C	 0.237353381	-0.6818917993	-1.4073202722	-0.345187
H	 1.0272323587	 1.7932578099	-0.502537927	 0.128103
H	-0.7312956952	 1.9258891679	-0.6862481278	 0.1205
H	-0.0024394894	 1.9214790635	 0.9345769713	 0.122754
H	-1.7952356772	 0.1570947955	 1.409716913	 0.130385
H	-1.8545991247	-1.3111732075	 0.4030597514	 0.136124
H	 2.7451993842	-1.8270588335	 0.6136899957	 0.132061
H	 2.1511063397	-1.840173246	-1.9514865956	 0.105299
H	-0.5354484784	-1.3991846437	-1.7157335404	 0.11316
H	 0.293864853	 0.0729433466	-2.198951035	 0.113745
90.8741	140.8723	241.0479	295.798	325.3388	345.3613	420.8826	497.4009	557.4428	590.2196	639.2336	727.3721	757.5811	811.8335	853.0447	908.205	929.4579	939.0514	944.0253	965.2445	994.9777	1056.0865	1082.4404	1119.566	1134.0627	1163.7144	1201.6692	1232.8455	1253.7517	1289.495	1314.1171	1353.4171	1410.8312	1449.7773	1484.7269	1488.4238	1497.2176	1661.1355	1890.5811	3013.3775	3032.4404	3061.6355	3073.6496	3102.886	3112.6953	3130.2659	3218.4108	3244.9147
CC12CC(=O)N1C=CC2	C[C@]12CC(=O)N1C=CC2	
InChI=1S/C7H9NO/c1-7-3-2-4-8(7)6(9)5-7/h2,4H,3,5H2,1H3	InChI=1S/C7H9NO/c1-7-3-2-4-8(7)6(9)5-7/h2,4H,3,5H2,1H3/t7-/m0/s1
