22
gdb 95687	2.84655	1.17949	0.91859	3.881	82.72	-0.234	0.0365	0.2705	1330.0723	0.196503	-404.406809	-404.397835	-404.396891	-404.440414	34.752	
C	-0.0403886169	 1.5939783807	 0.0175443252	-0.39904
C	-0.0076448033	 0.0599039552	-0.0023589125	 0.037275
C	 0.5821906195	-0.4435136707	-1.3300596799	-0.173601
C	 0.5669360406	-1.9680971387	-1.5134200776	-0.185797
N	 1.5810016287	-2.682511775	-0.7536562357	-0.28207
C	 1.70965226	-2.7668621499	 0.6053301487	 0.371554
O	 2.6113718775	-3.4078884051	 1.116128178	-0.370982
C	 0.6803631998	-2.0069673712	 1.4331640459	-0.315505
C	 0.7149573754	-0.4764279647	 1.2456746614	-0.189632
H	 0.9738398669	 2.0085634732	-0.0232018011	 0.116811
H	-0.5956252519	 1.9918416231	-0.8383565633	 0.110396
H	-0.5150528651	 1.9698426068	 0.9297685603	 0.112858
H	-1.0475654951	-0.2993785322	 0.0463120814	 0.06988
H	 0.0051717617	-0.0005900587	-2.1518945529	 0.094686
H	 1.6145048603	-0.0864760824	-1.4416922216	 0.100007
H	-0.4351200751	-2.357047599	-1.2810587184	 0.110457
H	 0.7481357771	-2.2041416909	-2.5655316158	 0.111578
H	 2.2915058374	-3.1893605666	-1.2592927757	 0.244114
H	-0.3278644204	-2.3830979611	 1.2127638336	 0.10657
H	 0.9036320947	-2.2621238735	 2.4703739703	 0.124971
H	 1.7586549764	-0.1345877985	 1.2454354155	 0.105731
H	 0.247736192	-0.0196414009	 2.125849504	 0.099739
66.2108	127.6098	204.6694	225.9425	274.3904	294.9973	321.2385	369.0962	413.5762	484.399	501.1539	534.005	596.6854	717.4079	729.8668	799.5026	873.8548	890.5612	937.8112	947.2553	985.6624	1010.3521	1045.5419	1084.2541	1099.9839	1134.3764	1179.0529	1187.9761	1233.3964	1283.591	1292.9529	1326.7427	1337.0325	1341.7731	1380.911	1389.0422	1398.902	1412.9253	1418.0809	1462.4631	1474.6557	1478.1498	1490.8593	1498.1394	1501.7339	1503.8257	1784.6909	2979.4074	3000.5764	3015.5998	3018.5124	3024.4331	3028.3145	3058.3522	3062.4185	3086.8722	3092.8505	3100.1347	3117.7285	3622.2995
CC1CCNC(=O)CC1	C[C@H]1CCNC(=O)CC1	
InChI=1S/C7H13NO/c1-6-2-3-7(9)8-5-4-6/h6H,2-5H2,1H3,(H,8,9)	InChI=1S/C7H13NO/c1-6-2-3-7(9)8-5-4-6/h6H,2-5H2,1H3,(H,8,9)/t6-/m1/s1
