20
gdb 56817	2.33494	1.27216	0.95352	2.3693	80.42	-0.2301	0.023	0.253	1286.6482	0.170012	-399.299258	-399.288981	-399.288037	-399.334725	36.838	
C	 0.0936413838	 1.5991039245	 0.7496423009	-0.424301
C	 0.0847813261	 0.1476110406	 0.315657536	-0.001806
C	 0.36068768	-0.2994496258	-1.0867889562	 0.009139
C	 0.7057518676	 0.677221333	-2.2050652663	-0.158141
N	 1.5406908791	 0.0051084665	-3.2054496029	-0.501466
C	-0.546532306	 1.2388422522	-2.7626610775	 0.262257
N	-1.5166172558	 1.6586033265	-3.2322169471	-0.323456
N	 1.2872843345	-0.6214869963	-0.0125367967	-0.106648
C	 2.6159951938	-0.0300822413	 0.0418740996	-0.317258
H	 0.8003980457	 2.2226031786	 0.1988452651	 0.120331
H	-0.9030944426	 2.0308059955	 0.6142988195	 0.141652
H	 0.3464400854	 1.6748462362	 1.8125601915	 0.129149
H	-0.6447437439	-0.4449249055	 0.8677199209	 0.096973
H	-0.1885824386	-1.1619804323	-1.4686145437	 0.097119
H	 1.2831209925	 1.5172482787	-1.8103309499	 0.12591
H	 1.0403754359	-0.7927658436	-3.5883516147	 0.241761
H	 1.7272401521	 0.630714436	-3.9840356761	 0.244321
H	 2.6676720639	 1.0521787574	-0.1454102594	 0.097362
H	 3.0343086776	-0.2125818321	 1.0365161554	 0.124045
H	 3.2478235189	-0.5283506191	-0.6977742283	 0.143058
46.9551	100.6078	148.8401	159.1229	194.8729	200.5002	252.3541	261.2878	298.2897	316.4204	461.2641	497.9846	513.4402	551.2716	612.8802	738.6055	782.1965	856.4641	905.995	963.3313	983.2846	1046.9783	1052.9067	1106.5379	1138.3359	1154.2634	1163.2103	1170.3583	1191.3705	1220.3672	1304.6298	1355.062	1377.4821	1399.9456	1414.3548	1434.5904	1460.6309	1483.9679	1498.5923	1505.3328	1510.7863	1660.8231	2341.1712	2996.0708	3043.1406	3073.7794	3075.0233	3089.3302	3098.801	3102.3168	3119.3951	3132.0265	3489.2675	3569.8975
CC1C(C(N)C#N)N1C	C[C@H]1[C@@H]([C@@H](N)C#N)N1C	
InChI=1S/C6H11N3/c1-4-6(9(4)2)5(8)3-7/h4-6H,8H2,1-2H3	InChI=1S/C6H11N3/c1-4-6(9(4)2)5(8)3-7/h4-6H,8H2,1-2H3/t4-,5-,6-,9?/m0/s1
