18
gdb 126695	3.14287	1.19521	0.9586	4.8766	74.8	-0.2224	-0.0281	0.1943	1246.0905	0.14728	-435.220296	-435.21136	-435.210415	-435.254674	31.908	
C	-0.1306210678	 1.5384322264	-0.019107764	-0.38218
C	-0.0046424556	 0.0096328016	-0.0045133289	-0.17066
N	-1.2723733724	-0.7097330193	 0.0456758778	-0.145362
C	-2.0663138226	-0.7851294234	-1.1718191104	-0.339111
C	-1.940004892	-0.8119659621	 1.2338779629	 0.421787
N	-3.2224044104	-1.1004322503	 1.3181376102	-0.209874
O	-3.4909748842	-1.1854800703	 2.6721308885	-0.162467
N	-2.3858278138	-0.926712253	 3.4145872207	-0.064331
C	-1.4255446857	-0.6930385444	 2.5684276242	-0.116354
H	 0.860405533	 2.0009946536	-0.0643755883	 0.123297
H	-0.7015449657	 1.8800233023	-0.8876481734	 0.12943
H	-0.6350053732	 1.9014885854	 0.8817439762	 0.131775
H	 0.5220484647	-0.3298218961	-0.9028755365	 0.115642
H	 0.6085983959	-0.3094959483	 0.84454645	 0.118089
H	-1.3939974463	-0.9172806545	-2.0232506933	 0.122603
H	-2.7400400415	-1.6425965672	-1.1122855542	 0.159191
H	-2.6805649022	 0.1109536733	-1.3387361298	 0.128149
H	-0.4323222202	-0.4580009837	 2.9147819482	 0.140375
67.0585	71.397	141.3394	161.8337	211.6108	258.0074	309.2466	384.4875	438.2136	505.0223	612.2756	618.8082	726.9022	794.3547	858.4897	890.8014	912.1339	930.7066	989.8328	1033.8676	1060.858	1083.9351	1108.4797	1152.4781	1191.8199	1253.797	1288.4914	1345.4597	1388.8427	1410.629	1439.5185	1455.4128	1480.4742	1488.3501	1492.6279	1505.6893	1511.1728	1536.6475	1639.8031	3006.3357	3039.7326	3044.6995	3079.2223	3088.7117	3112.3484	3118.3888	3133.8817	3274.1377
CCN(C)C1=NON=C1	CCN(C)c1nonc1	
InChI=1S/C5H9N3O/c1-3-8(2)5-4-6-9-7-5/h4H,3H2,1-2H3	InChI=1S/C5H9N3O/c1-3-8(2)5-4-6-9-7-5/h4H,3H2,1-2H3
