15
gdb 33435	2.1822	1.98313	1.17444	3.5834	76.55	-0.2626	-0.0055	0.2571	1015.5041	0.112551	-379.568238	-379.560585	-379.559641	-379.600258	29.522	
C	-0.0756845951	-1.2419944071	-0.0946715925	-0.384513
C	-0.0499748966	-0.0414347753	-0.0488175581	 0.203196
C	-0.018139706	 1.4089120362	 0.0079700854	 0.053474
C	-0.9935779145	 1.9919368746	-0.912619996	 0.219623
N	-1.759640126	 2.4692147029	-1.6352611572	-0.337476
C	 0.1114670168	 2.1558319937	 1.4075351832	-0.056093
C	 1.5581591423	 1.6181109978	 1.5165804064	-0.226127
C	 1.3721430791	 2.1798515352	 0.0869656636	-0.056096
N	 0.7001832924	 3.3691141106	 0.729364816	-0.330459
H	-0.1013827776	-2.3033000237	-0.137648991	 0.206103
H	-0.6678931169	 2.2209540069	 2.166437048	 0.110622
H	 2.2110110636	 2.2149080754	 2.1506779823	 0.12556
H	 1.6948011097	 0.5445465819	 1.6274972179	 0.127311
H	 2.0926356406	 2.2735480412	-0.7252452452	 0.110622
H	 0.0208854982	 3.7902588997	 0.0885357671	 0.234254
136.6272	143.8625	184.3218	186.4475	411.1017	457.4721	508.9814	526.3628	529.3262	587.8848	640.137	641.1229	665.1083	768.521	816.2191	885.4667	908.6052	914.7176	1012.8946	1042.1672	1057.6908	1089.998	1158.2974	1165.6723	1179.1432	1186.3073	1212.172	1237.9054	1302.3712	1311.6674	1494.1081	2235.2123	2350.5799	3108.5579	3124.6581	3130.194	3191.1972	3402.904	3498.309
C#CC1(C#N)C2CC1N2	C#C[C@@]1(C#N)[C@H]2C[C@@H]1N2	
InChI=1S/C7H6N2/c1-2-7(4-8)5-3-6(7)9-5/h1,5-6,9H,3H2	InChI=1S/C7H6N2/c1-2-7(4-8)5-3-6(7)9-5/h1,5-6,9H,3H2/t5-,6+,7-
