19
gdb 22058	4.28855	0.63371	0.61234	3.3065	76.68	-0.2377	0.0146	0.2522	1820.7043	0.156301	-456.347165	-456.336171	-456.335227	-456.385138	37.757	
C	-0.2871213844	 1.4454383222	 0.0142772106	-0.470591
C	 0.0038202014	-0.0310612711	-0.0520182664	 0.352039
C	 0.1103156088	-0.8351716554	 1.2154709535	-0.264263
C	 1.3494434083	-0.47045111	 2.0502773343	-0.311334
C	 1.2880742176	-1.0946274686	 3.4445224041	 0.411891
N	 2.4972909077	-1.4302984243	 3.9795859294	-0.522447
O	 0.2433902495	-1.2515953956	 4.0465605337	-0.358876
N	 0.168579923	-0.6726721156	-1.1460230989	-0.168098
O	 0.0527391483	 0.1747775355	-2.2635750566	-0.402284
H	 0.5406838395	 2.0251303014	-0.4076971976	 0.143791
H	-1.1673820784	 1.6811599264	-0.5917992189	 0.150078
H	-0.463318418	 1.7735956889	 1.0406667499	 0.121523
H	-0.7719126621	-0.6695416494	 1.8436946752	 0.136067
H	 0.1368830593	-1.8969074346	 0.9573926196	 0.118935
H	 2.2658641391	-0.7604255735	 1.5246479251	 0.10673
H	 1.4018434666	 0.616793017	 2.19375008	 0.132784
H	 3.355250257	-1.3584379117	 3.4626760734	 0.258461
H	 2.5155594675	-1.8398888246	 4.8992177656	 0.261037
H	 0.1693560495	-0.4411030972	-2.9942472658	 0.304557
34.8009	54.0841	68.3887	86.5381	130.6389	147.3272	218.8313	293.1875	332.775	373.5269	398.8994	451.1463	524.3366	561.7323	580.8635	654.1268	688.9688	784.9379	823.2992	876.6606	974.7917	985.2823	1028.3256	1051.5505	1064.8864	1099.7637	1176.484	1257.8982	1271.2848	1304.6882	1344.6885	1397.2117	1400.601	1402.3547	1463.7381	1475.0726	1483.4559	1486.0873	1617.8021	1728.6392	1796.2467	3030.3168	3042.7518	3053.1605	3071.3738	3100.5655	3111.2735	3132.1533	3604.1017	3742.6395	3823.8755
CC(CCC(N)=O)=NO	CC(=NO)CCC(=O)N	
InChI=1S/C5H10N2O2/c1-4(7-9)2-3-5(6)8/h9H,2-3H2,1H3,(H2,6,8)	InChI=1S/C5H10N2O2/c1-4(7-9)2-3-5(6)8/h9H,2-3H2,1H3,(H2,6,8)
