20
gdb 94633	3.53856	0.78737	0.69749	4.8871	79.85	-0.2593	0.0389	0.2981	1622.732	0.170532	-403.152388	-403.142788	-403.141844	-403.18815	34.	
C	-0.2943863007	 1.5286713204	-0.1909271452	-0.414662
C	 0.0429788341	 0.0467942107	-0.1033880617	-0.053328
C	 1.4304320539	-0.4121880553	-0.6051795004	-0.077082
O	 1.7420633906	-1.0276887497	 0.6632194686	-0.296047
C	 0.4973708537	-0.577104666	 1.2488076692	 0.128999
C	 0.7369377062	 0.3267206334	 2.4495434686	-0.203457
C	 1.5188843186	-0.4329296921	 3.5405509749	-0.339695
C	 1.8169088872	 0.4009226622	 4.7014077775	 0.255105
N	 2.0419185318	 1.0757281127	 5.6122600098	-0.307627
H	 0.506899572	 2.1573867164	 0.2089894119	 0.125263
H	-0.4498035068	 1.8202192094	-1.2350444813	 0.123381
H	-1.2134715298	 1.7643643843	 0.355623852	 0.12411
H	-0.7655774048	-0.538643916	-0.5487288541	 0.087221
H	 1.43737204	-1.1396031336	-1.4249408948	 0.106329
H	 2.1283953898	 0.4007524595	-0.8461192869	 0.101964
H	-0.1103690743	-1.4394342898	 1.5604728838	 0.075171
H	 1.3098946016	 1.2098010327	 2.1527315858	 0.122392
H	-0.221838489	 0.6753249288	 2.8494625852	 0.11907
H	 0.9528582315	-1.309878627	 3.8765759915	 0.148501
H	 2.4567996446	-0.8036097511	 3.1140897759	 0.174394
44.2896	78.8566	95.7036	108.4932	209.9207	232.4065	258.5095	357.4604	398.7933	447.7951	465.3839	568.7023	719.8419	776.5746	845.1599	887.4934	919.9682	924.48	965.8115	1002.1278	1020.4853	1045.145	1068.8367	1131.2507	1142.3676	1160.4939	1186.2041	1206.7089	1252.7772	1281.2134	1296.2885	1314.6291	1351.023	1369.	1386.6846	1407.0505	1419.4668	1468.9703	1483.8182	1498.1409	1503.5672	1529.5412	2362.1542	2988.8256	3010.534	3034.9717	3042.7476	3051.619	3054.6238	3073.7434	3086.6344	3099.4862	3104.8557	3113.1631
CC1COC1CCC#N	C[C@H]1CO[C@H]1CCC#N	
InChI=1S/C7H11NO/c1-6-5-9-7(6)3-2-4-8/h6-7H,2-3,5H2,1H3	InChI=1S/C7H11NO/c1-6-5-9-7(6)3-2-4-8/h6-7H,2-3,5H2,1H3/t6-,7-/m0/s1
