19
gdb 50081	3.10416	1.04878	0.93062	3.0341	77.52	-0.2585	-0.0421	0.2163	1321.9884	0.158183	-422.997936	-422.989228	-422.988283	-423.03226	31.663	
O	-0.1640207166	 0.2388511547	-0.7651600583	-0.248369
C	 0.198096227	 0.9336156652	 0.1501489699	 0.142643
C	 1.3075636624	 1.934789224	 0.0887025511	-0.05006
O	 2.2455297279	 1.8335333382	-0.9760200996	-0.229466
C	 1.3785730574	 2.9576432914	-0.9985694901	 0.035764
C	 0.390205341	 3.0674716402	-2.1192872214	 0.019149
C	-0.7368587481	 4.1343110757	-1.9963934109	-0.240266
C	-0.5425716773	 4.4560718284	-3.5025147922	-0.209077
C	 0.851225619	 3.7764050641	-3.4287767144	-0.232524
H	-0.2982635639	 0.8881782373	 1.1461329585	 0.080717
H	 1.7303312864	 2.1997029045	 1.059522004	 0.103023
H	 1.8650563157	 3.8957117946	-0.7155789428	 0.095426
H	-0.0190262598	 2.0798283866	-2.3372735304	 0.113706
H	-1.7188805966	 3.7917555319	-1.6621363546	 0.104375
H	-0.4272334656	 4.9732140374	-1.3633819927	 0.097597
H	-1.2362524692	 3.8884346287	-4.1287427613	 0.109494
H	-0.5806140368	 5.5046481801	-3.8054085348	 0.098897
H	 1.6453851684	 4.5041051522	-3.2308356026	 0.099386
H	 1.1623358789	 3.1397222148	-4.2592236874	 0.109584
52.6633	100.6181	127.9114	146.3575	221.1214	259.866	347.2688	396.9754	474.683	642.286	746.7085	771.3788	786.6133	816.5363	894.929	912.0028	925.6485	939.0176	960.5144	969.1738	999.3626	1041.7431	1091.6315	1099.191	1141.2668	1193.6472	1207.1206	1241.3275	1258.4393	1261.139	1270.1576	1283.1191	1295.9734	1329.0352	1392.3087	1424.7337	1464.3008	1479.0342	1488.5465	1511.8865	1824.4015	2875.2831	3044.4461	3050.8912	3062.8345	3066.8503	3096.6035	3100.4189	3108.8231	3111.8127	3125.8855
O=CC1OC1C1CCC1	O=C[C@H]1O[C@H]1C1CCC1	
InChI=1S/C7H10O2/c8-4-6-7(9-6)5-2-1-3-5/h4-7H,1-3H2	InChI=1S/C7H10O2/c8-4-6-7(9-6)5-2-1-3-5/h4-7H,1-3H2/t6-,7+/m1/s1
