22
gdb 19193	2.99214	1.93955	1.60832	0.123	81.41	-0.279	0.0931	0.372	949.3058	0.202579	-313.068756	-313.061051	-313.060107	-313.100048	31.266	
C	-0.2283572994	 1.6195381044	 0.8078475506	-0.438592
C	-0.0619974465	 0.134760537	 0.5141573703	 0.055135
C	 0.9523173854	-0.3937319754	-0.550858745	-0.036106
C	 2.2968271814	 0.1737625739	-0.0533419383	-0.217843
C	 2.1485354681	-0.1450890496	 1.4747922225	-0.217842
C	 0.7582066414	-0.8111420792	 1.4495343028	-0.03611
C	 0.9083208982	-1.7595007462	 0.2130465486	 0.062687
C	-0.2196068429	-2.735687508	-0.1000995681	-0.439372
H	 0.7187683093	 2.1284366106	 1.0058882221	 0.116144
H	-0.704441831	 2.1290919575	-0.037821567	 0.112228
H	-0.8712947593	 1.7700650067	 1.6827372074	 0.112229
H	-1.0495524364	-0.292940635	 0.3290802419	 0.066546
H	 0.7451590148	-0.3282381246	-1.6212417098	 0.047482
H	 3.1490263564	-0.3399671138	-0.5077556764	 0.091623
H	 2.4106291597	 1.2422608554	-0.255679624	 0.092643
H	 2.9215010111	-0.829191659	 1.8369809306	 0.091622
H	 2.1818963156	 0.7504857399	 2.1012215	 0.092644
H	 0.3549491735	-1.1673306521	 2.4000270054	 0.047483
H	 1.8580571451	-2.3086796494	 0.1906077053	 0.053523
H	-1.2105702814	-2.2738450051	-0.0996187601	 0.117677
H	-0.0705247465	-3.1896280938	-1.0863262659	 0.113099
H	-0.2371710866	-3.5489706442	 0.6341963371	 0.113098
182.186	192.7611	238.7546	251.6909	290.2594	296.6343	358.5325	484.6787	573.9073	677.156	719.7297	783.6313	793.7028	847.2102	861.0492	903.6513	938.2816	959.203	989.2596	993.9941	1032.5345	1058.4471	1060.5822	1072.1674	1086.1242	1146.5326	1162.6905	1171.5851	1193.1999	1227.7835	1234.2471	1259.4408	1278.3495	1282.3585	1313.9356	1326.2865	1396.3712	1408.2259	1411.2532	1426.7627	1484.293	1494.9962	1498.7284	1503.4751	1510.3392	1516.7287	3016.4724	3029.8356	3031.4494	3049.1603	3057.3294	3077.7127	3083.2025	3084.9874	3085.7072	3087.6787	3094.313	3100.4665	3111.811	3118.1561
CC1C2CCC1C2C	C[C@H]1[C@H]2CC[C@@H]1[C@H]2C	
InChI=1S/C8H14/c1-5-7-3-4-8(5)6(7)2/h5-8H,3-4H2,1-2H3	InChI=1S/C8H14/c1-5-7-3-4-8(5)6(7)2/h5-8H,3-4H2,1-2H3/t5-,6-,7-,8+
