17
gdb 22297	3.06323	1.17146	0.92202	2.0377	73.38	-0.2207	-0.0263	0.1945	1234.2094	0.136641	-455.118545	-455.110206	-455.109262	-455.151929	31.343	
O	-0.0469342537	 1.3954522766	-0.0482784698	-0.396407
N	 0.0652189491	-0.0003641449	 0.0595411897	-0.182709
C	-1.0686294628	-0.5871352715	 0.0285317277	 0.348076
C	-2.4342422191	 0.064828997	-0.0031232987	-0.265325
N	-3.2870704656	-0.4208486998	 1.0893652091	-0.284946
C	-3.4294733946	-1.8781068543	 1.1069442714	-0.26294
C	-2.0908569145	-2.620700406	 1.1290563749	 0.374787
O	-1.860649812	-3.5460021814	 1.8676936878	-0.294941
C	-1.0599502557	-2.0937434527	 0.125511941	-0.37468
H	 0.8710411094	 1.6758019671	 0.0278354238	 0.309636
H	-2.3414240309	 1.1478848854	 0.0682577034	 0.145497
H	-2.9356101238	-0.1658695839	-0.9534604703	 0.119377
H	-2.9006930459	-0.1100479298	 1.9759914255	 0.232437
H	-4.0183054794	-2.1888072752	 1.9730584692	 0.13161
H	-3.9779082894	-2.1811237854	 0.2023809361	 0.123425
H	-1.3523860028	-2.5123518743	-0.8512219532	 0.134978
H	-0.0676223883	-2.4743365069	 0.3715986524	 0.142123
67.6093	83.4998	212.3087	293.3455	298.8987	347.9253	391.4273	405.502	450.4834	467.2355	578.4118	602.7002	698.8039	764.782	807.8145	843.2788	882.2692	927.769	977.3432	981.38	1091.8007	1117.7298	1137.7496	1210.0392	1226.0063	1265.2134	1275.0544	1327.4698	1330.0547	1353.8196	1412.5752	1445.397	1456.2795	1472.184	1491.3495	1729.5703	1826.476	2989.2625	3004.4201	3017.1024	3110.5681	3127.7655	3143.3368	3511.1877	3823.3628
ON=C1CNCC(=O)C1	ON=C1CNCC(=O)C1	
InChI=1S/C5H8N2O2/c8-5-1-4(7-9)2-6-3-5/h6,9H,1-3H2	InChI=1S/C5H8N2O2/c8-5-1-4(7-9)2-6-3-5/h6,9H,1-3H2
