19
gdb 32839	5.5212	0.74188	0.69022	1.982	79.62	-0.198	0.0255	0.2235	1659.5691	0.158586	-423.058948	-423.049608	-423.048664	-423.093821	34.036	
C	-0.1580213585	 1.558796587	 0.0614889907	-0.382335
C	-0.0716547511	 0.0319239885	 0.0163422399	-0.157371
C	 0.8319202355	-0.5433429277	 1.1247374779	-0.300848
C	 0.9148758964	-2.0303983807	 1.1155479285	 0.409269
C	 1.9290755496	-2.9066640421	 0.8664408808	-0.439391
C	 1.3660836926	-4.2197793484	 0.9978970944	 0.310186
O	 1.9886022372	-5.4202759627	 0.8452737109	-0.440999
C	 0.05447914	-4.0515540353	 1.31494196	-0.123266
O	-0.2273032149	-2.7120117169	 1.3888611428	-0.187472
H	 0.8298666746	 2.0171656642	-0.0613373743	 0.112977
H	-0.8039641161	 1.9430852015	-0.7337845456	 0.114444
H	-0.5655055557	 1.9051157231	 1.0179056109	 0.115929
H	-1.071864265	-0.4038414999	 0.1159956747	 0.114559
H	 0.3110021246	-0.2941443083	-0.9582564744	 0.10078
H	 1.8471762061	-0.1447816545	 1.02072127	 0.108007
H	 0.4598128987	-0.2026223588	 2.100656201	 0.114414
H	 2.9501887215	-2.6532648088	 0.6225612074	 0.100437
H	 2.9091654871	-5.2620127865	 0.6188759216	 0.299965
H	-0.7558331828	-4.7308791536	 1.5104453829	 0.130716
47.7584	86.0981	101.5163	199.7536	242.77	260.236	294.3909	313.6736	387.9491	450.2664	616.9483	635.4017	690.0273	698.4406	745.4794	761.5304	777.9895	869.0385	893.8917	961.2771	1007.2628	1042.7732	1086.6528	1109.943	1154.2057	1173.3599	1180.8301	1249.4591	1292.67	1307.6705	1319.7252	1343.5368	1382.4344	1412.7417	1447.9222	1472.895	1493.237	1499.1723	1509.9946	1590.069	1691.1271	3014.0664	3028.8152	3037.0737	3061.1191	3079.07	3099.8352	3104.0078	3239.814	3296.5167	3848.9561
CCCC1=CC(O)=CO1	CCCc1cc(O)co1	
InChI=1S/C7H10O2/c1-2-3-7-4-6(8)5-9-7/h4-5,8H,2-3H2,1H3	InChI=1S/C7H10O2/c1-2-3-7-4-6(8)5-9-7/h4-5,8H,2-3H2,1H3
