19
gdb 92774	3.56373	1.09727	0.98949	1.6594	78.27	-0.2371	0.0152	0.2524	1254.3764	0.160297	-419.191114	-419.182732	-419.181787	-419.22452	31.706	
O	-0.2821547423	 1.4280030797	 0.0470897401	-0.438469
C	-0.0757142361	 0.0222202975	 0.0926121622	 0.126546
C	 0.4296031303	-0.4499546255	 1.4795405237	-0.189985
N	-0.7572836341	-0.8584576406	 2.2437426582	-0.26573
C	-1.7156898731	-1.0373632868	 1.4154435076	 0.34374
C	-1.394869392	-0.7647893879	-0.0416910577	-0.336359
N	-2.9552369378	-1.5560801054	 1.7690382734	-0.127353
C	-4.136305039	-0.6978341412	 1.8341909024	-0.239018
C	-3.5219114586	-1.2689467642	 3.0721620946	-0.213272
H	-0.7928055605	 1.6738627999	 0.8267517949	 0.280233
H	 0.6290608598	-0.1891815684	-0.7143778755	 0.086911
H	 1.1171461555	-1.3023265496	 1.3930246802	 0.108186
H	 0.9716747354	 0.3504799875	 1.9940522246	 0.108642
H	-2.163756303	-0.196080181	-0.5717628395	 0.117553
H	-1.2603378608	-1.7149573637	-0.5728278013	 0.126004
H	-3.9989940014	 0.3663383535	 1.6559030031	 0.121237
H	-5.0490730095	-1.1196638208	 1.4240716099	 0.126657
H	-3.9955338681	-2.1091384732	 3.5705668359	 0.125139
H	-2.9550222047	-0.6018133996	 3.7145616831	 0.139337
69.276	94.0155	172.2081	205.2659	294.0299	329.2936	375.3373	411.4045	491.8844	564.8326	592.0577	782.6238	809.4128	834.3334	854.8382	885.8486	924.4477	931.3839	957.5508	1016.6269	1042.5101	1052.6214	1079.035	1118.8989	1131.744	1153.8503	1172.2829	1179.2104	1183.3455	1210.2173	1251.5307	1299.9479	1318.1593	1321.8171	1413.4015	1431.999	1461.7554	1487.6771	1493.0798	1519.0444	1683.0193	3016.7249	3042.0161	3072.6676	3094.9684	3099.3432	3105.9813	3122.9359	3193.8815	3215.136	3796.6218
OC1CN=C(C1)N1CC1	O[C@H]1C[N][C](C1)N1CC1	
InChI=1S/C6H10N2O/c9-5-3-6(7-4-5)8-1-2-8/h5,9H,1-4H2	InChI=1S/C6H10N2O/c9-5-3-6(7-4-5)8-1-2-8/h5,9H,1-4H2/t5-/m1/s1
