17
gdb 77355	2.29493	1.35769	1.17309	2.1375	68.27	-0.2512	-0.0461	0.2051	1128.1282	0.133721	-458.990264	-458.981392	-458.980448	-459.024928	31.389	
C	-0.3254971021	 1.421822836	 0.1311954278	-0.414312
C	 0.0036161133	-0.0719019203	-0.0018511629	-0.126421
C	 0.806576559	-0.4518928162	-1.2507261277	-0.011557
O	 2.179693228	-0.6013711891	-0.8617997613	-0.262942
C	 2.2239941779	-1.0268181546	 0.4895585691	-0.193859
C	 0.9286044727	-0.5298429901	 1.1338824054	 0.37718
O	 0.6905630389	-0.4887842425	 2.3104806403	-0.302315
C	 0.3326370724	-1.7418877884	-1.9232962345	 0.130087
O	-0.7908436726	-2.1678079398	-1.8674644898	-0.228083
H	 0.5741173102	 2.0369247251	 0.0255679682	 0.128526
H	-1.0427045113	 1.7289298484	-0.6350659615	 0.128241
H	-0.7602316727	 1.6185666922	 1.1144528813	 0.145627
H	-0.9195496206	-0.6586032302	 0.0425760145	 0.137537
H	 0.7846985568	 0.3312232047	-2.0203292197	 0.118582
H	 2.2762802806	-2.1242732405	 0.5799724787	 0.128312
H	 3.1055960482	-0.6012324177	 0.976288965	 0.146591
H	 1.1385247614	-2.2614002269	-2.487458463	 0.098805
40.0612	78.1699	133.8998	178.558	234.1684	241.2459	283.6857	421.8273	469.1489	543.3346	624.1316	627.8428	689.3126	764.898	809.5719	940.8238	952.5142	989.7707	1024.2246	1057.6385	1070.4848	1117.3701	1135.4485	1175.53	1213.7626	1265.2912	1281.7885	1310.6849	1342.605	1358.7031	1393.2401	1406.3464	1481.5469	1497.6505	1499.9217	1833.2891	1859.3728	2898.2609	2978.7957	3025.9895	3040.0941	3069.5871	3096.6256	3112.5576	3127.1502
CC1C(OCC1=O)C=O	C[C@H]1[C@@H](OCC1=O)C=O	
InChI=1S/C6H8O3/c1-4-5(8)3-9-6(4)2-7/h2,4,6H,3H2,1H3	InChI=1S/C6H8O3/c1-4-5(8)3-9-6(4)2-7/h2,4,6H,3H2,1H3/t4-,6+/m1/s1
