16
gdb 7122	4.99159	1.07237	0.89739	4.9761	64.72	-0.2511	-0.0217	0.2295	1245.6273	0.129936	-417.077292	-417.068522	-417.067577	-417.111495	29.744	
C	-0.2409273946	 1.2358798217	 0.7601249085	-0.233054
O	 0.2472203454	-0.0529368439	 1.0654541087	-0.251877
C	 0.5695373529	-0.8123347953	-0.0825009605	-0.11628
C	 0.9766848137	-2.2186061855	 0.3251542861	 0.334907
N	 1.6894943597	-2.9135357529	-0.4578327035	-0.504757
N	 0.44021376	-2.5976919836	 1.5679106991	-0.327537
C	 0.5784555004	-3.8153184362	 2.1805023635	 0.162939
O	 1.1551437215	-4.7768747387	 1.7226829544	-0.300039
H	 0.5074345086	 1.8296728407	 0.2158406959	 0.120148
H	-1.1559616727	 1.1868066327	 0.1507213756	 0.114781
H	-0.4673922381	 1.7308065003	 1.7068778108	 0.134761
H	-0.3021104301	-0.876576401	-0.7553673782	 0.117763
H	 1.3954500091	-0.3661727638	-0.6504333836	 0.133471
H	 1.8336884464	-3.8495029234	-0.0777618628	 0.253352
H	-0.0289180023	-1.8556514448	 2.0701673455	 0.268377
H	 0.0853219801	-3.8281592963	 3.1715046005	 0.093044
69.3702	75.2355	108.994	168.7461	225.4083	252.8784	262.2318	336.9772	456.2578	523.0631	593.485	692.3162	787.5279	920.818	959.9774	1008.3361	1027.3508	1042.9037	1091.2034	1159.0263	1184.632	1197.9956	1226.8464	1245.6123	1339.3937	1395.7591	1438.1553	1476.9695	1485.9145	1497.2324	1513.8104	1523.9427	1738.8033	1811.9525	2950.0133	2969.9966	2986.1727	3037.3518	3050.3245	3124.4455	3490.0461	3588.0496
COCC(=N)NC=O	COCC(=N)NC=O	
InChI=1S/C4H8N2O2/c1-8-2-4(5)6-3-7/h3H,2H2,1H3,(H2,5,6,7)	InChI=1S/C4H8N2O2/c1-8-2-4(5)6-3-7/h3H,2H2,1H3,(H2,5,6,7)
