17
gdb 32618	4.61451	0.90275	0.80626	6.8992	83.73	-0.2305	-0.0036	0.2269	1415.202	0.137665	-380.932929	-380.924505	-380.923561	-380.966722	30.832	
C	-0.0036082185	 1.5553688022	-0.0234438434	-0.371634
C	-0.0023830086	 0.0258933774	 0.0213394727	-0.162379
N	 0.6950537735	-0.5109976039	 1.183865232	 0.023473
C	 2.0547274951	-0.7158345549	 1.2715798389	-0.07141
C	 2.3519467573	-1.1512085542	 2.5363685689	-0.284859
C	 1.1169199936	-1.2115961059	 3.2540451229	 0.155028
C	 0.1190104966	-0.8050492495	 2.3819399621	-0.185552
C	 0.9278346714	-1.6187521259	 4.5966113685	 0.19518
N	 0.7793718424	-1.9515524203	 5.696813402	-0.354105
H	 1.0169587178	 1.9466499388	-0.0596249651	 0.135093
H	-0.5370384702	 1.9038112385	-0.9128654624	 0.128059
H	-0.4970765083	 1.9707949551	 0.8596395483	 0.137081
H	-1.0258875582	-0.3591149682	 0.0426896209	 0.13014
H	 0.4759006413	-0.3845647487	-0.8731596237	 0.12884
H	 2.6905716896	-0.5373324281	 0.4191602225	 0.130515
H	 3.3248480229	-1.4139451652	 2.9188964151	 0.122586
H	-0.9439603876	-0.7130959373	 2.5351347597	 0.143942
48.7663	105.8156	147.3496	184.8976	226.936	361.454	380.6891	517.4533	535.7902	575.4678	640.0397	664.2295	682.575	704.487	796.6003	797.9987	834.8845	952.3131	989.3064	1025.6695	1096.865	1106.3552	1124.8475	1183.6457	1253.6073	1285.2051	1366.4863	1389.7518	1397.5841	1415.6244	1436.3828	1485.1111	1491.081	1506.539	1545.2561	1573.6923	2342.0656	3045.5806	3057.9727	3097.3224	3121.4848	3128.8493	3257.2815	3269.37	3277.2569
CCN1C=CC(=C1)C#N	CCn1ccc(c1)C#N	
InChI=1S/C7H8N2/c1-2-9-4-3-7(5-8)6-9/h3-4,6H,2H2,1H3	InChI=1S/C7H8N2/c1-2-9-4-3-7(5-8)6-9/h3-4,6H,2H2,1H3
