15
gdb 46280	3.21999	1.53814	1.26765	4.4732	64.51	-0.2601	-0.0138	0.2464	981.776	0.112487	-457.732514	-457.72541	-457.724466	-457.764316	26.989	
O	-0.0900407633	 0.0762308818	-0.3266038036	-0.324418
C	-0.0119520771	 1.2272898864	-0.0475974863	 0.424482
O	-0.9911162658	 2.0505057687	 0.4571574181	-0.246405
C	-0.0760340645	 3.1892627505	 0.5650002763	-0.145434
C	 1.0407272366	 2.3555989218	-0.0864806642	 0.23481
O	 2.2779563466	 2.1913972828	 0.6156630347	-0.314855
C	 3.011314834	 2.6380151892	-0.5400014463	 0.096426
C	 2.794029339	 1.7079585839	-1.6858162997	-0.298174
C	 1.7541507359	 2.7685713716	-1.3665133055	-0.203069
H	-0.4503754949	 4.0455733123	 0.0004964409	 0.127753
H	 0.1114818366	 3.4489732358	 1.6083483991	 0.139484
H	 3.8636418312	 3.2845805641	-0.3756424722	 0.11744
H	 3.3796525522	 1.9165106311	-2.575835961	 0.124802
H	 2.5815922608	 0.6607176673	-1.4962532468	 0.151557
H	 1.4230513928	 3.5265341828	-2.0621595636	 0.115602
120.1647	126.0314	179.929	314.5525	346.0414	451.9143	477.1021	643.8582	712.3655	760.7659	782.3065	814.2712	874.8567	911.9627	945.3269	963.9446	973.8043	990.4123	1045.714	1049.6719	1065.2433	1087.8738	1123.847	1141.8962	1162.1158	1170.2893	1243.1047	1297.221	1343.6386	1357.5101	1470.8267	1504.7975	1939.9852	3074.2685	3128.3008	3142.0029	3199.2015	3214.5509	3224.2741
O=C1OCC11OC2CC12	O=C1OC[C@]21O[C@H]1C[C@@H]21	
InChI=1S/C6H6O3/c7-5-6(2-8-5)3-1-4(3)9-6/h3-4H,1-2H2	InChI=1S/C6H6O3/c7-5-6(2-8-5)3-1-4(3)9-6/h3-4H,1-2H2/t3-,4+,6+/m1/s1
