16
gdb 31996	6.13732	0.82163	0.73651	2.3213	68.15	-0.2419	-0.0057	0.2362	1470.1564	0.123927	-475.041692	-475.032717	-475.031773	-475.076652	31.017	
O	 0.2587530982	 0.9117247346	-0.9025132607	-0.399921
C	-0.1052667192	 0.2779770123	 0.30734603	-0.17198
C	-1.4096841163	-0.4388480814	 0.1769961493	 0.27215
C	-2.1632954044	-0.8480902885	-0.8705032781	-0.19316
N	-3.3152204862	-1.4672799964	-0.3890039457	-0.325916
C	-3.2026068347	-1.4061102438	 0.8970707617	 0.358175
C	-4.1871134004	-1.9423207846	 1.8864747299	-0.140125
O	-5.2838297595	-2.5254569242	 1.2310090656	-0.419975
O	-2.0759048329	-0.7926253424	 1.3280992679	-0.208621
H	-0.4254133412	 1.5569918254	-1.1119147901	 0.289872
H	 0.7056674832	-0.4255309836	 0.5315693246	 0.139836
H	-0.1577768497	 0.9792251639	 1.1551526838	 0.115582
H	-1.9619318254	-0.750644489	-1.9243138636	 0.138062
H	-3.6848271761	-2.6786681417	 2.5337128172	 0.12189
H	-4.5208080707	-1.1252480338	 2.5454256411	 0.121277
H	-5.1162822748	-2.4444977969	 0.2818473471	 0.302854
40.0802	62.4839	138.0813	165.5487	228.1475	255.0839	283.3089	346.4833	370.8244	542.0497	639.0301	682.8987	702.3744	751.3686	857.9777	976.0175	991.2367	1019.7422	1043.7142	1087.7665	1109.6398	1151.9605	1190.3858	1228.8163	1238.2684	1240.1051	1301.6381	1346.2517	1391.675	1422.4594	1480.229	1500.4162	1512.9546	1614.3397	1643.5921	2980.673	2984.2038	2994.8247	3051.4066	3279.8239	3742.6952	3807.1037
OCC1=CN=C(CO)O1	OCc1cnc(CO)o1	
InChI=1S/C5H7NO3/c7-2-4-1-6-5(3-8)9-4/h1,7-8H,2-3H2	InChI=1S/C5H7NO3/c7-2-4-1-6-5(3-8)9-4/h1,7-8H,2-3H2
