21
gdb 78027	2.39038	1.47604	1.2683	1.3721	78.21	-0.2463	0.0754	0.3217	1126.1849	0.182048	-424.220272	-424.211192	-424.210248	-424.253222	35.382	
C	-0.1932070087	 1.5302225843	 0.1831876564	-0.427888
C	 0.0334469459	 0.0387450731	 0.0294729739	-0.08183
C	 0.6743544554	-0.6650765776	-1.1640891904	-0.141787
C	 1.5746744922	 0.1068420467	-2.1158025024	 0.133038
C	 0.9075261484	 1.0325183656	-3.1220947041	-0.404342
O	 2.431086555	 0.886420866	-1.2669847081	-0.268178
C	 2.6252266216	 0.183217082	-0.0469966037	-0.151814
C	 1.3671551686	-0.6514797356	 0.1710885825	 0.342803
O	 1.4987112776	-1.820734626	 0.9218765175	-0.466633
H	 0.6469575372	 2.1107455023	-0.1997648994	 0.145566
H	-1.0955857584	 1.8442981517	-0.3529562645	 0.116469
H	-0.3370610746	 1.7886608833	 1.2387862451	 0.107308
H	-0.7690232086	-0.5687784934	 0.4444065874	 0.0876
H	 0.2082157593	-1.5749090944	-1.5245589333	 0.093892
H	 2.1852871979	-0.6311491237	-2.6655577246	 0.070663
H	 0.2531103034	 1.7529538177	-2.6263900668	 0.124203
H	 1.6652006903	 1.5831041111	-3.6872939159	 0.124165
H	 0.3093874001	 0.4495241578	-3.8293547286	 0.114338
H	 3.4841765001	-0.5042941966	-0.1002512746	 0.100557
H	 2.8240698365	 0.928203043	 0.7323449032	 0.097841
H	 1.3918622506	-1.5928863571	 1.8514377604	 0.284029
147.5832	204.456	210.8953	212.9775	239.3636	245.547	275.8456	294.9802	385.1936	427.8418	471.6881	548.6374	596.5828	665.6227	729.3872	790.5105	848.7997	890.5487	947.2756	971.1678	1003.3095	1033.5548	1067.03	1073.9786	1080.8716	1118.6988	1137.697	1154.7201	1165.4253	1214.476	1249.3215	1277.4615	1327.5821	1342.3565	1346.7932	1368.909	1391.1266	1411.3191	1416.2461	1471.155	1487.3152	1497.1662	1504.5505	1511.5587	1518.6988	2942.1399	2983.6948	3029.6669	3046.7799	3053.6196	3081.3532	3114.0725	3120.5023	3134.4518	3144.7279	3180.3075	3802.2289
CC1C2C(C)OCC12O	C[C@H]1[C@H]2[C@@H](C)OC[C@@]12O	
InChI=1S/C7H12O2/c1-4-6-5(2)9-3-7(4,6)8/h4-6,8H,3H2,1-2H3	InChI=1S/C7H12O2/c1-4-6-5(2)9-3-7(4,6)8/h4-6,8H,3H2,1-2H3/t4-,5+,6-,7+/m0/s1
