15
gdb 97761	4.44544	0.65056	0.62765	2.9405	71.9	-0.2726	0.0028	0.2753	1740.2976	0.111151	-457.746969	-457.738037	-457.737093	-457.782674	30.811	
O	 0.2502217637	 1.1718055679	-0.6530828925	-0.396327
C	-0.1247359127	 0.4829259824	 0.5282901739	-0.199387
C	-1.3565491973	-0.2942865408	 0.3882491951	 0.071808
C	-2.3542408078	-0.9509608491	 0.2299078184	 0.090839
C	-3.5675188116	-1.7149093892	 0.0559125704	-0.063325
C	-4.4688703444	-1.3837211769	-1.1597946138	-0.420844
C	-4.1379835767	-2.811938096	-1.5888207865	 0.451122
O	-4.4064802355	-3.5494256453	-2.4791127274	-0.307249
O	-3.3319556113	-3.0647231973	-0.5058291496	-0.237075
H	 0.3408793019	 0.5194073718	-1.3557389375	 0.291933
H	 0.6781149903	-0.181308684	 0.8852331019	 0.129806
H	-0.25969424	 1.2535704447	 1.2951825722	 0.149044
H	-4.1109381509	-1.8182566335	 0.9987797678	 0.130277
H	-5.5221518443	-1.2047448796	-0.9410892457	 0.151735
H	-4.0870868833	-0.611903065	-1.8282127266	 0.157642
29.147	57.3033	99.6739	141.6092	246.2942	281.0743	353.9422	399.3794	458.5262	520.0942	557.2377	593.8278	713.802	779.5783	883.6102	904.5152	969.2122	982.2459	1022.4947	1056.8579	1109.8947	1130.393	1183.1734	1215.6249	1222.6983	1276.0442	1364.9174	1369.1823	1415.8464	1453.4573	1483.6865	1946.9219	2358.9191	2984.2162	3067.9743	3078.8837	3099.8449	3162.0612	3815.5908
OCC#CC1CC(=O)O1	OCC#C[C@H]1CC(=O)O1	
InChI=1S/C6H6O3/c7-3-1-2-5-4-6(8)9-5/h5,7H,3-4H2	InChI=1S/C6H6O3/c7-3-1-2-5-4-6(8)9-5/h5,7H,3-4H2/t5-/m0/s1
