17
gdb 101558	2.50475	1.06505	0.7839	0.8657	66.85	-0.2654	-0.1095	0.1559	1392.3961	0.132558	-496.105514	-496.095641	-496.094697	-496.141406	34.482	
O	-0.1180660097	 0.8633283656	 0.6591636139	-0.409523
C	-0.2274653275	 0.1045337275	-0.5300108756	-0.071512
C	-1.4556743919	-0.817543729	-0.5460511535	 0.083375
O	-1.4567608942	-1.4369691589	-1.8081896501	-0.439915
C	-1.3778942594	-1.8162372869	 0.6399398169	-0.327401
C	-2.7095273599	-2.3760568079	 1.0749028989	 0.283904
O	-3.2737468968	-2.0866056643	 2.1059715175	-0.268086
C	-3.4535854391	-3.358677462	 0.1572220182	 0.084675
O	-3.1939349171	-3.5391447925	-1.0077239069	-0.22522
H	-0.8227766342	 1.5191455334	 0.6642391784	 0.288902
H	-0.2651450684	 0.7361781706	-1.4279056125	 0.108067
H	 0.6774171172	-0.5082769524	-0.5943501403	 0.120698
H	-2.3538291995	-0.1852273851	-0.4095478326	 0.062123
H	-2.0502454482	-2.201222543	-1.7772871649	 0.303947
H	-0.7094411366	-2.6316583908	 0.3382334714	 0.128377
H	-0.9556769619	-1.293777915	 1.5016942677	 0.14897
H	-4.3005345128	-3.8620621393	 0.6639697936	 0.128621
34.7977	91.4576	112.0444	142.2946	183.8227	212.9537	276.5421	307.8277	405.601	425.5124	480.6514	492.6602	530.6085	541.1822	615.3282	812.8548	866.4509	920.5966	983.3175	1027.5061	1067.609	1100.1758	1104.34	1170.0514	1189.0928	1278.327	1294.9577	1311.7519	1360.8054	1366.7748	1387.5345	1403.7933	1458.3977	1462.0586	1502.6849	1790.6941	1806.7093	2915.0341	2956.3207	3017.3097	3042.2535	3088.275	3122.1065	3709.995	3815.1916
OCC(O)CC(=O)C=O	OC[C@@H](O)CC(=O)C=O	
InChI=1S/C5H8O4/c6-2-4(8)1-5(9)3-7/h2,5,7,9H,1,3H2	InChI=1S/C5H8O4/c6-2-4(8)1-5(9)3-7/h2,5,7,9H,1,3H2/t5-/m0/s1
