15
gdb 5128	3.53309	2.04377	1.31444	1.7885	63.76	-0.1902	0.0471	0.2373	894.3026	0.120312	-396.009657	-396.001617	-396.000673	-396.042375	28.725	
C	 0.0257289558	 1.4639257314	-0.0024862955	-0.335156
N	-0.0236752185	 0.0174319739	 0.0158408815	-0.054552
C	-0.2591193273	-0.8376620905	-1.0389130867	-0.023792
N	-0.2351015988	-2.0959237547	-0.6762564786	-0.307548
C	 0.0276160178	-2.0830512795	 0.6790877001	 0.094096
N	 0.1531589609	-3.2021898487	 1.5406760851	-0.616762
C	 0.157941373	-0.7891758669	 1.1073476462	 0.34346
O	 0.412768884	-0.2603959846	 2.3234813922	-0.446686
H	 1.0061299722	 1.8258048766	 0.3212034835	 0.148018
H	-0.1585495173	 1.8060134978	-1.0224807662	 0.1414
H	-0.7360569003	 1.8896668838	 0.6573410284	 0.147995
H	-0.437783275	-0.458565679	-2.0342597996	 0.120386
H	 0.8978484817	-3.8192429748	 1.2272560856	 0.240618
H	-0.6963780465	-3.7605938162	 1.5356996012	 0.240617
H	 0.4990989583	-1.0206812487	 2.9160651927	 0.307905
47.8943	139.8352	201.6759	240.6404	267.5493	290.4139	318.1288	472.0591	534.909	595.1373	663.633	693.7608	753.4922	756.2813	786.5528	887.0862	1043.9294	1073.2748	1154.4417	1197.1962	1218.6777	1259.7897	1308.479	1326.7139	1408.0818	1454.9082	1479.0467	1498.3065	1519.3082	1572.2301	1643.3967	1695.359	3043.461	3104.9055	3139.2442	3243.7543	3479.1908	3537.7169	3760.3653
CN1C=NC(N)=C1O	Cn1cnc(N)c1O	
InChI=1S/C4H7N3O/c1-7-2-6-3(5)4(7)8/h2,8H,5H2,1H3	InChI=1S/C4H7N3O/c1-7-2-6-3(5)4(7)8/h2,8H,5H2,1H3
