16
gdb 85481	3.19485	1.22116	0.97839	1.4694	68.95	-0.2846	-0.0086	0.276	1166.7318	0.124681	-437.952011	-437.943788	-437.942844	-437.98516	30.068	
C	 0.165364846	 1.6326959681	-0.1035129981	-0.4067
C	 0.0673881137	 0.1202951714	 0.0321292836	 0.106151
O	 0.6399250534	-0.518909805	-1.1233841632	-0.219851
C	 1.885917812	-1.0134607629	-0.8786588047	 0.427974
O	 2.555184621	-1.5219846588	-1.7257188176	-0.321607
C	 2.2293814625	-0.8009345829	 0.5929782548	-0.375605
C	 0.8605445886	-0.5012296819	 1.2276199807	-0.188136
C	 0.9039956416	 0.3336636691	 2.4204063333	 0.28163
N	 0.9385904379	 0.9952294512	 3.3673297824	-0.319244
H	 1.2070457582	 1.9680326454	-0.1166210301	 0.132926
H	-0.306346783	 1.9444704972	-1.038319759	 0.144202
H	-0.3432413491	 2.1256513531	 0.7289064251	 0.150257
H	-0.9797298262	-0.1889372012	 0.0699149283	 0.117969
H	 2.7295585671	-1.6779005174	 1.0029345503	 0.16065
H	 2.9160858257	 0.0466743196	 0.6769212305	 0.16334
H	 0.3803310106	-1.4476571449	 1.4981354537	 0.146047
90.8649	113.2578	145.1808	219.6491	238.4738	344.0824	411.7102	462.7332	492.6591	544.1899	588.5978	659.4947	692.4215	786.9657	833.4772	935.6557	982.4257	987.9023	1057.5298	1081.5326	1114.4713	1139.6119	1168.319	1179.7382	1265.8647	1292.2866	1349.4069	1359.8486	1388.8865	1418.076	1468.8522	1485.3022	1494.4418	1894.4538	2361.5172	3049.4932	3055.4496	3079.5341	3085.4232	3125.9576	3136.7201	3146.1589
CC1OC(=O)CC1C#N	C[C@H]1OC(=O)C[C@H]1C#N	
InChI=1S/C6H7NO2/c1-4-5(3-7)2-6(8)9-4/h4-5H,2H2,1H3	InChI=1S/C6H7NO2/c1-4-5(3-7)2-6(8)9-4/h4-5H,2H2,1H3/t4-,5+/m1/s1
