17
gdb 36097	3.64182	1.15628	1.04466	1.9529	76.75	-0.2332	0.0433	0.2766	1169.9451	0.133984	-384.57143	-384.563459	-384.562515	-384.60427	31.137	
C	-0.0830642521	-1.2006511495	 0.1909849856	-0.452063
C	-0.0652812932	-0.0054789056	 0.0666335904	 0.311282
C	-0.0093683556	 1.446091451	-0.0994196233	-0.471159
C	 1.4019202256	 1.9816435088	-0.07602436	 0.331375
C	 2.1438338578	 2.4201486253	 1.1541135166	-0.321554
C	 1.8875111514	 3.4204287416	 0.05065785	-0.177555
C	 2.837162833	 3.1752869701	-1.1649291108	 0.02332
O	 3.7277610444	 2.0909432799	-0.8646405174	-0.236627
C	 2.3892879929	 1.7927679575	-1.2804075561	-0.034558
H	-0.1067856502	-2.2556563726	 0.3080309536	 0.197618
H	-0.498068554	 1.7189212709	-1.045500653	 0.130614
H	-0.5932260166	 1.932427631	 0.6922694073	 0.133483
H	 1.5210132229	 2.5532224671	 2.0335742497	 0.112385
H	 3.1489947355	 2.0683534928	 1.3477128129	 0.138737
H	 1.3002718594	 4.3193194535	 0.1859441411	 0.094524
H	 3.1567846742	 3.897959614	-1.9054937868	 0.109509
H	 2.2560175348	 1.1332434942	-2.1296644896	 0.110668
57.1241	100.3476	239.0414	274.3922	344.0275	413.5835	422.3669	436.4799	580.4098	622.1719	641.9624	691.7601	754.5148	802.4721	810.6365	861.7161	873.3192	902.4811	917.8796	953.9368	976.8923	989.6111	1015.6241	1033.1353	1070.9803	1100.3237	1156.2697	1198.4199	1235.3383	1256.3921	1300.4649	1325.7817	1360.9088	1400.8319	1460.564	1477.1903	2238.4603	3006.2064	3044.6108	3138.01	3184.8323	3197.0714	3204.5479	3232.3572	3506.6582
C#CCC12CC1C1OC21	C#CC[C@]12C[C@H]1[C@H]1O[C@@H]21	
InChI=1S/C8H8O/c1-2-3-8-4-5(8)6-7(8)9-6/h1,5-7H,3-4H2	InChI=1S/C8H8O/c1-2-3-8-4-5(8)6-7(8)9-6/h1,5-7H,3-4H2/t5-,6+,7+,8-/m0/s1
