21
gdb 115056	2.29582	1.30162	0.90992	1.163	80.63	-0.2408	0.0216	0.2624	1329.9231	0.182103	-424.217027	-424.207428	-424.206484	-424.25187	35.076	
C	-0.1229240997	 1.40583599	 0.0608113861	-0.235678
O	 0.1335404049	 0.0295330838	-0.0802008382	-0.244169
C	 0.7053573772	-0.5759916473	 1.0724084808	 0.08362
C	-0.2759297813	-0.86416233	 2.1900627518	-0.09413
C	-0.1134571114	-2.0905570284	 2.6804337934	-0.063611
C	 0.9881177118	-2.8461259408	 1.9798688198	-0.265796
C	 1.2804922308	-1.9785152629	 0.7243222481	-0.040466
C	 0.617708628	-2.57672889	-0.517951096	-0.077995
O	 1.2130511987	-3.8525732174	-0.7364723953	-0.428012
H	 0.7894614399	 1.963171959	 0.3270578607	 0.103784
H	-0.4881832807	 1.7681470586	-0.903589042	 0.125649
H	-0.8868881025	 1.6172971515	 0.8239620267	 0.105845
H	 1.510161171	 0.0861413258	 1.4396331051	 0.067254
H	-0.9807130878	-0.1249645674	 2.5530825234	 0.092158
H	-0.674033117	-2.5110781633	 3.5089580855	 0.092199
H	 1.8730124175	-2.9297781024	 2.6249638362	 0.103559
H	 0.7128372513	-3.8690820529	 1.7051788085	 0.120916
H	 2.3538206025	-1.9223341397	 0.5230155541	 0.078433
H	-0.4671800221	-2.6655263966	-0.3555531025	 0.0905
H	 0.7711305137	-1.9121900125	-1.3759331378	 0.101546
H	 0.7929270951	-4.2457514369	-1.5063946386	 0.284393
67.882	85.0111	134.4558	167.8961	195.016	246.3939	271.7675	299.2864	355.8722	405.7911	498.7916	520.6274	704.6861	747.7917	819.4915	835.4643	896.64	935.0552	960.8473	977.6442	1015.0217	1049.9679	1063.7834	1078.9134	1107.7665	1123.2672	1156.3402	1182.5148	1196.2767	1209.8046	1230.9028	1265.4468	1274.3171	1312.6675	1326.9097	1357.1644	1366.5643	1393.2482	1451.1481	1478.0802	1490.6405	1495.9323	1509.3552	1521.3728	1686.4509	2928.6545	2972.7467	2990.4415	3018.8447	3019.8978	3050.6323	3073.6929	3079.0394	3109.2488	3178.4147	3207.2221	3834.7324
COC1C=CCC1CO	CO[C@H]1C=CC[C@H]1CO	
InChI=1S/C7H12O2/c1-9-7-4-2-3-6(7)5-8/h2,4,6-8H,3,5H2,1H3	InChI=1S/C7H12O2/c1-9-7-4-2-3-6(7)5-8/h2,4,6-8H,3,5H2,1H3/t6-,7-/m0/s1
