14
gdb 50201	3.65418	1.18637	1.07711	4.6151	61.84	-0.2568	-0.0473	0.2094	1090.4875	0.100414	-473.80832	-473.800821	-473.799877	-473.841258	27.1	
O	-0.6757260264	 0.6473477451	 0.2387357918	-0.239614
C	 0.3610092822	 0.6921221797	-0.3693612406	 0.166675
C	 1.4467117743	 1.7163961256	-0.0844191488	-0.095833
N	 2.8130086506	 1.3268963938	-0.5175941419	-0.331459
C	 2.9995126356	 2.6065201945	-1.2512717909	-0.205781
C	 1.5116966336	 2.9478372163	-1.0324639529	 0.085471
O	 1.2287714458	 2.6424429561	-2.4275783907	-0.258626
C	 2.5697339626	 2.4135700969	-2.7174942739	 0.491685
O	 3.0461670222	 2.1535071903	-3.7690177501	-0.30757
H	 0.6033948182	-0.0073118492	-1.1963366438	 0.104166
H	 1.3650518822	 2.0454991028	 0.9578344124	 0.107879
H	 3.4716329692	 1.171724835	 0.2344023403	 0.243409
H	 3.8628909092	 3.2271561632	-1.0172106336	 0.117963
H	 1.0763385306	 3.89614399	-0.7292482472	 0.121634
58.4482	88.2229	202.5	227.8624	323.2335	423.1948	482.9203	507.0822	630.2832	693.7852	774.8155	822.853	831.8461	898.8323	927.239	966.9156	1011.7045	1033.6509	1050.2308	1098.0252	1109.4749	1170.2379	1196.5802	1218.5493	1265.4747	1319.4611	1324.9828	1382.4424	1405.7802	1831.8253	1956.5884	2924.8461	3049.7034	3134.3647	3159.6676	3573.2038
O=CC1NC2C1OC2=O	O=C[C@H]1N[C@@H]2[C@H]1OC2=O	
InChI=1S/C5H5NO3/c7-1-2-4-3(6-2)5(8)9-4/h1-4,6H	InChI=1S/C5H5NO3/c7-1-2-4-3(6-2)5(8)9-4/h1-4,6H/t2-,3-,4+/m1/s1
