20
gdb 85279	2.43455	1.56355	1.15515	4.2426	78.6	-0.2459	-0.0055	0.2404	1132.4051	0.170501	-403.171391	-403.162645	-403.161701	-403.204583	33.675	
C	-0.2524436403	 1.5153394297	 0.0364559767	-0.406278
C	 0.060628565	 0.0174470283	-0.0090817711	-0.035042
C	 0.9658881114	-0.4223078259	-1.1720805374	-0.368587
C	 1.9209292076	-1.473590786	-0.5878055893	 0.388599
O	 2.6524131189	-2.1901189427	-1.2091216769	-0.308506
N	 1.8236795085	-1.4963469677	 0.8477381155	-0.172395
C	 2.202373927	-0.1675695222	 1.4180727217	-0.300297
C	 0.7772853728	-0.5198722315	 1.240972231	 0.327145
C	-0.0711308606	-0.8922051874	 2.4323224546	-0.475962
H	 0.6658374829	 2.1084909366	 0.1045487802	 0.117844
H	-0.788899691	 1.8311033527	-0.8638583153	 0.121712
H	-0.8775478744	 1.766224932	 0.8994603473	 0.120744
H	-0.8878369182	-0.5294914539	-0.0808689781	 0.084328
H	 0.4261939025	-0.8389328724	-2.0247876042	 0.138887
H	 1.574208864	 0.4024721888	-1.5628009924	 0.133223
H	 2.662442166	-0.2271153258	 2.3995497372	 0.130499
H	 2.6639601776	 0.5544077343	 0.7487282182	 0.122952
H	-0.5796874701	-0.0104321306	 2.8375029157	 0.122726
H	-0.8357170201	-1.6239042803	 2.1502589864	 0.126071
H	 0.5398464605	-1.328866536	 3.2260798201	 0.132337
75.1391	139.4476	198.2812	237.1179	243.0876	289.1317	315.8158	391.7397	475.7237	517.2616	553.304	576.9791	657.0161	673.0455	780.2628	808.9887	893.1159	917.7807	928.0456	947.2349	1020.971	1027.1771	1078.2674	1086.4477	1105.3377	1121.311	1150.6403	1155.8458	1211.6567	1263.8683	1272.7751	1330.8127	1364.5875	1397.2192	1412.7073	1421.9014	1460.2083	1486.92	1492.9596	1497.532	1501.2712	1512.4645	1865.2509	3022.6233	3032.8741	3034.5297	3047.4043	3096.7302	3102.5821	3104.2783	3110.2754	3113.9253	3121.9384	3197.5316
CC1CC(=O)N2CC12C	C[C@H]1CC(=O)N2C[C@@]12C	
InChI=1S/C7H11NO/c1-5-3-6(9)8-4-7(5,8)2/h5H,3-4H2,1-2H3	InChI=1S/C7H11NO/c1-5-3-6(9)8-4-7(5,8)2/h5H,3-4H2,1-2H3/t5-,7-,8?/m0/s1
