18
gdb 80588	3.70581	1.09365	0.98964	5.3306	71.92	-0.2449	0.0202	0.2651	1230.0749	0.148431	-439.081515	-439.07333	-439.072386	-439.114662	30.849	
C	-0.0709695481	 1.576339637	-0.0075041223	-0.425421
C	 0.0658850953	 0.0702082402	-0.0043766538	-0.014763
C	 1.3425384211	-0.6907319063	-0.2472567507	-0.028914
N	 2.5316670887	-0.0605954793	 0.3500872644	-0.354867
H	 3.7845711269	-1.1904905833	 1.2207147091	 0.306316
H	 2.761588776	 0.8606674183	-0.0147164721	 0.23051
C	 1.8939053492	-0.0767075847	 1.703094611	-0.13968
C	 0.6522844006	-0.7580963892	 1.114368813	-0.090611
C	 2.6708304567	-0.9668520696	 2.6795321965	 0.425973
O	 3.7688775813	-1.5151651168	 2.1498923853	-0.364505
O	 2.303064415	-1.155710538	 3.8079566036	-0.348327
H	 0.8162157476	 2.0791180407	 0.3887607617	 0.113085
H	-0.2311110512	 1.9478212598	-1.0250120503	 0.124968
H	-0.9233838402	 1.8916812841	 0.6026344453	 0.132909
H	-0.7815001646	-0.4432258694	-0.456750898	 0.09992
H	 1.459827304	-1.4422659648	-1.0193524662	 0.104716
H	 1.7328974507	 0.8956437694	 2.1790523779	 0.109912
H	 0.1301093211	-1.5786441878	 1.5869353456	 0.11878
81.5885	120.4044	162.6058	180.0319	240.572	327.2951	436.7239	476.683	576.0118	636.3593	692.4556	726.9301	785.3222	832.0172	872.3785	877.189	888.1328	943.9794	981.9898	999.1339	1020.407	1051.2929	1060.5021	1083.5509	1117.8815	1128.2346	1203.609	1215.5424	1235.679	1280.0484	1298.5204	1337.0524	1365.8842	1415.871	1433.682	1439.9936	1492.8699	1502.9969	1871.5682	3037.942	3063.2207	3100.561	3104.2305	3128.4013	3178.1943	3214.3097	3446.6075	3487.1311
CC1C2[NH2+]C(C12)C([O-])=O	C[C@H]1[C@H]2N[C@@H]([C@@H]12)C(=O)O	
InChI=1S/C6H9NO2/c1-2-3-4(2)7-5(3)6(8)9/h2-5,7H,1H3,(H,8,9)	InChI=1S/C6H9NO2/c1-2-3-4(2)7-5(3)6(8)9/h2-5,7H,1H3,(H,8,9)/t2-,3+,4-,5+/m1/s1
