22
gdb 80471	2.55095	1.38159	1.17584	0.7721	81.28	-0.2218	0.0656	0.2875	1173.5084	0.194544	-404.325364	-404.316148	-404.315204	-404.35906	35.533	
C	 1.2574486188	 0.98988775	 0.7521273992	-0.416218
C	 0.5073689193	-0.3077446763	 0.423547695	-0.042413
C	 0.7967383816	-0.7317872382	-1.014637786	-0.02914
C	 1.598909949	-2.0024379608	-1.0137952645	-0.036131
C	 1.8281115092	-2.43284362	 0.4251253363	-0.26943
C	 0.9499441982	-1.5187328206	 1.3225544527	 0.122014
O	 1.57366285	-1.1604892055	 2.5446908038	-0.435087
N	 0.2590529731	-1.959745443	-1.5747517027	-0.097125
C	-0.878114533	-2.6761359626	-1.0279670367	-0.325427
H	 2.334567473	 0.8932541984	 0.5650980133	 0.105923
H	 0.8961856536	 1.8106963561	 0.1252249793	 0.118538
H	 1.1161472931	 1.2696922462	 1.798540879	 0.129864
H	-0.5638569297	-0.1241713317	 0.5711470511	 0.078181
H	 0.9632839374	 0.0645442932	-1.7380129996	 0.081928
H	 2.3914635593	-2.1975016136	-1.732920394	 0.085009
H	 1.6219120826	-3.4938375953	 0.6013135398	 0.108488
H	 2.8857429993	-2.2785332454	 0.6755360012	 0.094886
H	 0.0601489116	-2.0634707037	 1.647520541	 0.092865
H	 2.4080533046	-0.7256203115	 2.3402579622	 0.276651
H	-0.9453845504	-2.7223494539	 0.0685167111	 0.107145
H	-1.7960355743	-2.2076271857	-1.3976939311	 0.125178
H	-0.8563534063	-3.7042801062	-1.4036851505	 0.1243
71.5293	124.0282	164.8543	230.5376	251.2501	292.1057	295.3866	333.7424	401.5178	435.07	466.24	576.1469	675.9737	698.3012	732.0252	761.3968	835.6644	865.6673	944.5642	983.222	1000.0781	1029.8929	1046.5682	1069.5356	1103.6544	1112.2028	1118.4157	1149.5329	1159.3694	1186.3008	1195.0486	1257.2619	1295.5763	1308.5286	1316.1349	1333.4125	1344.5586	1360.5015	1403.8077	1409.0039	1447.0458	1462.321	1482.826	1498.7668	1499.0317	1501.2588	1507.7691	3000.8392	3021.4522	3026.9832	3028.9917	3061.4666	3067.6643	3080.4722	3092.5925	3098.0411	3114.286	3125.0428	3128.599	3811.0129
CC1C2C(CC1O)N2C	C[C@H]1[C@H]2[C@@H](C[C@H]1O)N2C	
InChI=1S/C7H13NO/c1-4-6(9)3-5-7(4)8(5)2/h4-7,9H,3H2,1-2H3	InChI=1S/C7H13NO/c1-4-6(9)3-5-7(4)8(5)2/h4-7,9H,3H2,1-2H3/t4-,5-,6-,7+,8?/m1/s1
