14
gdb 17153	4.29262	1.97276	1.61127	2.3837	66.49	-0.263	0.0092	0.2722	785.4155	0.108671	-341.49653	-341.490477	-341.489533	-341.526671	23.532	
N	 0.0234089372	-1.1469314301	-0.0114261144	-0.337961
C	-0.0088096514	 0.0090157868	 0.0166626748	 0.144202
C	-0.0491112614	 1.4523718406	 0.0514303941	 0.208998
C	-0.7307930433	 2.407453127	 1.0296633159	-0.226217
N	-0.0866982206	 3.4023555967	 0.0738313889	-0.163843
C	 1.142415385	 2.4654625327	-0.0737243601	-0.032429
C	 1.0712543529	 2.5347204875	-1.6004239528	-0.259582
C	-0.3773101743	 2.4481394433	-1.1158242558	-0.032423
H	-1.8237625466	 2.4397270511	 1.0285191041	 0.120631
H	-0.3365089579	 2.4566776995	 2.0483595572	 0.12063
H	 1.9912553715	 2.5482953771	 0.6057986201	 0.105019
H	 1.3656915235	 3.4874003617	-2.0456463746	 0.123652
H	 1.4618528251	 1.6800131073	-2.1558368212	 0.124302
H	-1.3181886697	 2.5105734287	-1.6635393862	 0.105021
142.1028	176.7301	394.436	412.4999	525.3816	528.9605	545.592	717.0682	781.1292	865.0329	876.3625	898.7187	918.8355	933.6899	1013.3476	1017.138	1052.6719	1082.8741	1125.2008	1128.1325	1144.1038	1183.6565	1201.1063	1227.57	1239.8251	1276.0962	1316.7894	1488.0534	1517.8249	2344.2094	3054.5058	3072.5877	3116.1181	3120.0355	3120.4361	3142.4007
N#CC12CN3C1CC23	N#C[C@@]12CN3[C@@H]1C[C@@H]23	
InChI=1S/C6H6N2/c7-2-6-3-8-4(6)1-5(6)8/h4-5H,1,3H2	InChI=1S/C6H6N2/c7-2-6-3-8-4(6)1-5(6)8/h4-5H,1,3H2/t4-,5+,6-
