19
gdb 30191	4.01149	1.16966	0.98757	2.1081	84.96	-0.1687	0.0538	0.2225	1236.7476	0.16089	-382.072252	-382.063754	-382.062809	-382.105444	32.686	
C	-0.1641934594	 1.5755368177	-0.3067630776	-0.391196
C	-0.0435869059	 0.0861872498	-0.0283139999	 0.045184
C	 1.0498313415	-0.6943152484	-0.8596371663	-0.390478
C	 1.7618665314	-0.8469466831	 0.4717107528	 0.334113
C	 2.8691206341	-0.9654684094	 1.2807471473	-0.402886
C	 2.4676771052	-0.4104120474	 2.5441419245	 0.277256
N	 3.2435595726	-0.4632969506	 3.7202240383	-0.597594
C	 1.1661855799	 0.0690448098	 2.4419571741	-0.251025
N	 0.7489895222	-0.2720204341	 1.1721139547	 0.021463
H	 0.822647463	 2.0474474179	-0.3365985132	 0.131295
H	-0.6608388785	 1.7418064665	-1.2683402128	 0.122232
H	-0.7571043337	 2.0706781537	 0.4688966154	 0.124988
H	-1.033091899	-0.3851015687	-0.0227029669	 0.087935
H	 0.7027167924	-1.6134633142	-1.3406497039	 0.114523
H	 1.5566922435	-0.0740543144	-1.6047166977	 0.115967
H	 3.8322759739	-1.3946819372	 1.0510043393	 0.084738
H	 4.2326361847	-0.3698346398	 3.5248861717	 0.237044
H	 2.9785379066	 0.2501940019	 4.3877766075	 0.235171
H	 0.5146155657	 0.48701106	 3.1921270126	 0.101268
49.9633	166.1859	191.9289	229.943	264.5067	291.577	357.7429	422.0487	517.7735	576.4939	618.0532	641.1865	672.7362	738.6132	743.276	774.1698	815.5147	870.374	916.2632	973.9145	1016.533	1064.7471	1079.9486	1095.6673	1104.87	1156.1024	1179.8424	1214.4941	1240.5419	1270.4082	1362.5461	1376.1487	1408.5589	1428.4399	1441.2398	1488.1587	1489.1059	1496.4979	1528.4866	1610.2314	1654.3299	3034.7134	3036.1093	3050.9461	3095.2055	3106.1581	3115.3911	3245.8107	3257.7294	3526.467	3614.7589
CC1CC2=CC(N)=CN12	C[C@H]1Cc2cc(N)cn12	
InChI=1S/C7H10N2/c1-5-2-7-3-6(8)4-9(5)7/h3-5H,2,8H2,1H3	InChI=1S/C7H10N2/c1-5-2-7-3-6(8)4-9(5)7/h3-5H,2,8H2,1H3/t5-/m0/s1
