19
gdb 80719	2.88684	1.16117	1.03697	5.3732	79.38	-0.2386	0.0331	0.2717	1225.3507	0.159851	-382.035796	-382.027229	-382.026285	-382.069423	32.298	
C	 0.1511628574	 1.7944653052	-0.5758132969	-0.437867
C	 0.0850558254	 0.282435933	-0.5470184888	 0.035164
C	 0.6153359666	-0.637394037	-1.5700510909	-0.040941
C	 1.9618826824	-0.1747474584	-2.1302696939	-0.30996
C	 2.4867239256	-0.283985077	-0.6760758098	 0.083926
C	 3.2435629754	 0.880652951	-0.021391813	-0.368204
C	 3.532624913	 0.6354227473	 1.390774733	 0.26936
N	 3.7686097036	 0.4430244028	 2.5052767075	-0.304683
N	 1.1396727076	-0.675521893	-0.12903227	-0.164561
H	 0.9247682177	 2.1892541854	-1.2378125367	 0.121626
H	-0.8075717883	 2.1812651685	-0.9371495271	 0.128465
H	 0.3111493528	 2.2026901505	 0.4276924124	 0.139261
H	-0.8465586751	-0.0693453167	-0.1063837002	 0.106725
H	 0.0364789049	-1.4598025595	-1.978167348	 0.100945
H	 2.4316831359	-0.8867371196	-2.8098807731	 0.11905
H	 1.9711403186	 0.8125106536	-2.6027801791	 0.107504
H	 3.1109499627	-1.1758318854	-0.5740872823	 0.110815
H	 4.1957754173	 1.0173568011	-0.5490165519	 0.152987
H	 2.6986390262	 1.8228848382	-0.1053235912	 0.150389
46.8482	116.8915	192.0949	239.7187	262.4077	302.8242	348.5498	392.0491	434.1027	510.2175	618.9062	675.1942	718.7178	766.4269	828.613	900.4094	908.2108	947.2805	976.9121	978.3207	1029.7777	1073.7164	1086.816	1103.2	1112.4603	1151.8669	1168.6618	1237.4497	1255.6348	1278.038	1290.8592	1326.0097	1358.1233	1401.3292	1410.63	1443.2194	1465.6173	1492.2473	1501.0533	1507.8682	2364.0694	3038.2407	3044.3195	3052.2375	3064.6787	3097.1038	3111.3095	3118.2377	3123.232	3130.6282	3163.1137
CC1C2CC(CC#N)N12	C[C@H]1[C@H]2C[C@@H](CC#N)N12	
InChI=1S/C7H10N2/c1-5-7-4-6(2-3-8)9(5)7/h5-7H,2,4H2,1H3	InChI=1S/C7H10N2/c1-5-7-4-6(2-3-8)9(5)7/h5-7H,2,4H2,1H3/t5-,6+,7+,9?/m0/s1
