20
gdb 46999	2.58189	1.7422	1.39473	3.8639	77.73	-0.2329	0.0377	0.2706	1004.9702	0.176048	-403.214988	-403.207658	-403.206714	-403.246782	29.502	
O	-0.0159016023	-0.0715398426	 0.0399120694	-0.385387
C	-0.0277774308	 1.1453442895	 0.0258402487	 0.382308
N	-1.1982650086	 1.8591912846	-0.0056060539	-0.297374
C	-1.3399161904	 3.3059443222	 0.121926605	-0.165975
C	 0.0129395663	 4.0074381178	-0.0552577986	-0.003225
C	 0.573008416	 3.8431051145	-1.4921142755	-0.208286
C	 1.4412894863	 2.5511303733	-1.4507459382	-0.217067
C	 1.2416148388	 1.993922955	-0.0167474832	-0.092921
C	 1.0516527269	 3.2746543053	 0.8134624059	-0.241445
H	-2.0301067625	 1.2885001062	 0.0412890573	 0.242373
H	-2.0509309989	 3.6695412732	-0.6310790347	 0.106327
H	-1.7567614541	 3.5585527027	 1.1085069052	 0.102912
H	-0.1137150332	 5.058260935	 0.2180469761	 0.07036
H	-0.2309383541	 3.7780464047	-2.2309567239	 0.101803
H	 1.1814847124	 4.7108969837	-1.7618319145	 0.101112
H	 1.1599703468	 1.8232437143	-2.2156303935	 0.116256
H	 2.4986507558	 2.787182423	-1.6047875675	 0.101214
H	 2.0633258449	 1.3545053654	 0.3064903944	 0.08732
H	 1.9893049327	 3.8378549579	 0.8738121494	 0.09724
H	 0.704065498	 3.0864846042	 1.8343599323	 0.102455
92.1071	147.9604	226.0302	348.1451	391.5047	424.9056	463.3126	579.4013	611.4687	687.2449	738.5974	788.8793	798.8782	819.8657	878.9068	892.3086	928.8523	961.7557	972.8698	984.4468	1022.651	1063.9388	1086.1075	1118.8533	1149.8142	1183.0626	1195.0541	1220.9604	1250.2097	1279.9822	1308.6029	1314.0839	1329.7999	1344.1575	1350.8309	1368.9873	1400.9698	1480.1735	1490.0538	1496.2965	1516.7941	1530.4577	1792.3439	2985.5012	3030.1318	3040.5004	3049.2846	3058.2225	3076.0995	3086.9358	3088.5288	3108.3363	3115.0161	3605.8191
O=C1NCC2CCC1C2	O=C1NC[C@@H]2CC[C@H]1C2	
InChI=1S/C7H11NO/c9-7-6-2-1-5(3-6)4-8-7/h5-6H,1-4H2,(H,8,9)	InChI=1S/C7H11NO/c9-7-6-2-1-5(3-6)4-8-7/h5-6H,1-4H2,(H,8,9)/t5-,6+/m1/s1
