17
gdb 86098	2.61952	1.40475	1.0551	2.0782	75.37	-0.2295	0.0412	0.2707	1156.9962	0.135695	-418.000065	-417.991221	-417.990276	-418.033625	33.355	
C	-0.4861402236	 1.5091015923	-0.0278420713	-0.40751
C	 0.1015450398	 0.1159372386	-0.1128159414	 0.101594
O	 1.235485266	 0.1180559262	-1.0163362961	-0.258991
C	 2.1598668423	-0.6918934773	-0.4391013956	 0.474627
N	 3.2739901897	-0.8922194162	-1.2020065583	-0.577429
N	 1.9556530012	-1.1491497939	 0.736769638	-0.342987
C	 0.7039856333	-0.5168538946	 1.193366591	-0.198186
C	 0.9496014223	 0.4386288331	 2.2763648155	 0.384494
C	 1.1455398623	 1.2166292811	 3.1715381238	-0.496069
H	 0.2458715791	 2.2141980003	 0.3714322277	 0.142109
H	-0.8059036086	 1.8464877492	-1.0176374456	 0.12297
H	-1.3570139121	 1.5079302581	 0.6341888698	 0.127291
H	-0.6335884704	-0.5828386168	-0.5307327065	 0.090968
H	 3.1360661513	-0.8566159996	-2.1997134573	 0.263062
H	 3.8733665297	-1.6325463682	-0.8733792485	 0.270055
H	 0.0208238176	-1.2865777648	 1.571172451	 0.106921
H	 1.32899244	 1.8973055724	 3.9657300637	 0.197082
57.6965	136.6339	155.1205	225.6742	273.7384	294.7693	371.937	419.2888	466.3246	488.8174	530.7327	559.4977	621.4036	648.6642	689.831	733.1343	747.0823	840.0137	896.5636	964.4029	985.6527	1015.7408	1078.7577	1119.383	1151.5728	1181.4657	1254.41	1320.9639	1345.5243	1379.6912	1416.4291	1447.3366	1482.6281	1493.8258	1616.9044	1744.5903	2231.9631	3019.8221	3037.6295	3050.561	3120.2762	3139.3028	3503.1718	3594.3261	3710.0842
CC1OC(N)=NC1C#C	C[C@H]1O[C](N)[N][C@H]1C#C	
InChI=1S/C6H8N2O/c1-3-5-4(2)9-6(7)8-5/h1,4-5H,2H3,(H2,7,8)	InChI=1S/C6H8N2O/c1-3-5-4(2)9-6(7)8-5/h1,4-5H,2H3,(H2,7,8)/t4-,5+/m1/s1
