19
gdb 106385	3.43597	1.4272	1.25633	2.9577	73.71	-0.2433	0.0754	0.3187	1063.5794	0.159283	-422.968575	-422.960978	-422.960034	-423.000567	30.421	
C	 0.0600302621	 1.5462916854	-0.1328386744	-0.388901
C	-0.0462474867	 0.0252255335	 0.0106044146	-0.301906
C	-1.4585344891	-0.4934029491	 0.086380339	 0.388834
C	-2.6033132704	 0.0552710587	 1.0032350835	-0.279974
C	-3.4010994929	-0.5419480617	-0.1868976405	 0.014802
O	-2.3060641375	-0.1706904428	-1.0581589445	-0.293836
C	-3.154055706	-2.0659531007	 0.0219831877	 0.021939
O	-2.2638291405	-2.6322828753	-0.9412915096	-0.227658
C	-1.7091616381	-2.0313427667	 0.2311501419	-0.025275
H	 1.1022639605	 1.850789656	-0.2640867795	 0.113328
H	-0.5103888599	 1.8905027929	-0.9994475184	 0.140124
H	-0.3276480308	 2.060449139	 0.7524696959	 0.114656
H	 0.4366919369	-0.4652093977	-0.8440752237	 0.122052
H	 0.4917832098	-0.314414437	 0.9052578264	 0.101345
H	-2.7341216589	-0.3794758673	 1.9990305304	 0.095054
H	-2.6411044062	 1.1452375919	 1.0315541194	 0.112849
H	-4.378627021	-0.1874035316	-0.5101772046	 0.087156
H	-3.8600257959	-2.7286186452	 0.5098965063	 0.104011
H	-1.1370124353	-2.6655034123	 0.89989813	 0.101403
88.3159	175.6987	201.4888	284.7843	344.8498	399.5121	448.0366	509.8569	613.4927	694.0147	733.6131	759.0172	799.5872	825.2954	873.4945	890.1652	898.415	915.3901	951.599	975.54	994.2652	1005.7819	1051.3216	1060.3034	1088.6311	1140.7188	1160.6793	1208.619	1217.9974	1244.9927	1261.7096	1282.3376	1291.0074	1322.7412	1388.9209	1399.0621	1412.0775	1469.5378	1485.4758	1498.9173	1508.905	3023.7305	3043.024	3055.0299	3058.781	3108.7871	3125.1786	3132.3674	3138.2413	3170.526	3185.356
CCC12CC(O1)C1OC21	CC[C@@]12C[C@@H](O1)[C@H]1O[C@@H]21	
InChI=1S/C7H10O2/c1-2-7-3-4(9-7)5-6(7)8-5/h4-6H,2-3H2,1H3	InChI=1S/C7H10O2/c1-2-7-3-4(9-7)5-6(7)8-5/h4-6H,2-3H2,1H3/t4-,5-,6-,7+/m1/s1
