18
gdb 22893	2.12909	1.66081	0.97174	2.6832	77.21	-0.2306	-0.0649	0.1656	1197.6371	0.146854	-439.076391	-439.067615	-439.066671	-439.109965	32.875	
C	-0.3696555288	 1.4504982933	 0.0776646223	-0.399047
C	 0.066624621	-0.0110833196	 0.0166191501	-0.05582
C	 0.9681633683	-0.3752524608	-1.1887503691	-0.230276
C	 1.6630592114	-1.682406862	-0.7781077118	-0.328933
C	 1.8453443128	-1.5654550021	 0.7377455976	 0.338528
O	 2.6103593263	-2.2044691212	 1.414785366	-0.299368
C	 0.8821271024	-0.495197439	 1.2006724131	 0.284457
N	 0.715009245	 0.010825527	 2.3636421155	-0.216278
O	 1.5314043616	-0.5229388812	 3.3395700106	-0.345725
H	 0.5005544568	 2.1124326534	 0.1360570601	 0.119627
H	-0.9442696878	 1.7179313532	-0.8148555872	 0.11131
H	-0.9894840213	 1.638100426	 0.9575899618	 0.133356
H	-0.8334854316	-0.6432937168	-0.0412512613	 0.096143
H	 0.3990633073	-0.4604293416	-2.1176083843	 0.106486
H	 1.7148473524	 0.4151878133	-1.3323225344	 0.110671
H	 1.0153109973	-2.5492684093	-0.9678333204	 0.131111
H	 2.6176601094	-1.8787275433	-1.2705461999	 0.129957
H	 1.2750677878	-0.0169008892	 4.1195799816	 0.313803
58.1381	158.0081	189.5628	212.0292	239.9839	276.4158	309.4595	434.5861	459.4401	499.6772	505.5516	570.4687	601.9172	696.4407	706.1425	826.8437	896.0817	959.5979	986.0703	1007.5457	1034.5438	1071.5082	1085.4543	1131.7077	1179.3541	1217.5388	1225.6622	1297.8531	1312.9123	1324.6933	1363.29	1408.6601	1422.6662	1454.2159	1490.7101	1499.1498	1500.6635	1694.867	1827.4325	2979.1961	3026.9608	3037.1718	3040.6089	3098.7585	3106.5373	3113.1977	3124.5442	3797.6168
CC1CCC(=O)C1=NO	C[C@H]1CCC(=O)C1=NO	
InChI=1S/C6H9NO2/c1-4-2-3-5(8)6(4)7-9/h4,9H,2-3H2,1H3	InChI=1S/C6H9NO2/c1-4-2-3-5(8)6(4)7-9/h4,9H,2-3H2,1H3/t4-/m0/s1
