17
gdb 123452	4.93737	1.00302	0.86983	4.0115	74.54	-0.2325	0.024	0.2565	1297.7467	0.138346	-418.006486	-417.998769	-417.997825	-418.039592	28.606	
C	-0.018670592	 1.4232431276	 0.5901178539	-0.355343
C	-0.133852698	-0.0317087825	 0.1816607157	 0.09548
C	-1.2918282928	-0.5442705008	-0.5593426058	-0.181704
O	-0.0543369094	-0.2814539843	-1.2290833764	-0.240655
C	 1.354485602	 1.9716699802	 0.3439282572	 0.377996
C	 2.2352382862	 2.6823847941	 1.1367243386	-0.317511
C	 3.3542837263	 2.9184293593	 0.3097236147	-0.003894
N	 3.1941350701	 2.3973028794	-0.903320488	-0.227348
N	 1.9721585938	 1.8341165713	-0.8587622429	-0.234069
H	-0.7668916129	 2.0031039703	 0.0346172763	 0.120737
H	-0.260618645	 1.5254392815	 1.6528283993	 0.124014
H	 0.4474309815	-0.7333063628	 0.7804054019	 0.10809
H	-1.5630897727	-1.5957823768	-0.4862203676	 0.123941
H	-2.1093435906	 0.1311651666	-0.8073315965	 0.120443
H	 2.0839468535	 2.9853672765	 2.1605081219	 0.097675
H	 4.266927405	 3.4445038264	 0.5489877555	 0.108067
H	 1.6170414351	 1.3263882143	-1.6536623679	 0.284084
66.7495	85.862	130.7204	288.979	297.6338	364.2171	459.7469	592.2553	661.1488	707.027	747.8489	791.1338	802.4784	863.6086	889.6819	928.2332	940.6353	953.8429	1038.9609	1062.1827	1094.3984	1096.5224	1135.6472	1158.5754	1169.6683	1235.3387	1239.8824	1291.8475	1308.3634	1314.4156	1378.5581	1439.1732	1445.1249	1465.089	1493.3687	1527.5854	1607.133	3025.041	3083.9716	3088.943	3115.0802	3177.8975	3242.4038	3264.9638	3654.911
C(C1CO1)C1=CC=NN1	C([C@H]1CO1)c1ccn[nH]1	
InChI=1S/C6H8N2O/c1-2-7-8-5(1)3-6-4-9-6/h1-2,6H,3-4H2,(H,7,8)	InChI=1S/C6H8N2O/c1-2-7-8-5(1)3-6-4-9-6/h1-2,6H,3-4H2,(H,7,8)/t6-/m0/s1
