22
gdb 111689	2.35545	1.36555	1.14926	2.4392	82.23	-0.2157	0.0666	0.2824	1213.4683	0.194881	-404.326623	-404.317444	-404.316499	-404.3612	34.898	
C	 0.3532383873	 1.7098262288	 0.1625624452	-0.368416
C	 0.0732739142	 0.2089642478	 0.2411238781	-0.116696
N	 0.6510006946	-0.4572295409	-0.9225622731	-0.084753
C	 1.8771091998	-1.2352064037	-0.9097707745	-0.038631
C	 2.4028449866	-1.8101743612	 0.4031942216	-0.235677
C	 1.2430075662	-2.6405261501	 1.0044088214	-0.275165
C	 0.2310548621	-2.8900535509	-0.146732668	 0.12475
O	-1.1329119276	-2.760558113	 0.2418052647	-0.436554
C	 0.557137446	-1.8726192351	-1.225949164	-0.044728
H	 1.4302472941	 1.9081391743	 0.1775581818	 0.11233
H	-0.0510259166	 2.1287730214	-0.7630505056	 0.122195
H	-0.0984485398	 2.2325942191	 1.012220568	 0.104158
H	 0.4456335372	-0.1739562569	 1.2014459662	 0.083234
H	-1.0037640035	 0.0183221126	 0.2264146825	 0.119841
H	 2.6031960365	-0.9807508363	-1.6791019888	 0.083101
H	 3.2670956732	-2.4453663913	 0.1806850459	 0.103512
H	 2.7566241848	-1.0331046135	 1.0905256861	 0.105519
H	 1.6001472798	-3.5796146473	 1.4376280423	 0.094769
H	 0.7283413554	-2.0974246734	 1.8013291719	 0.114277
H	 0.3972443193	-3.8898359419	-0.5800864872	 0.065541
H	-1.3248075531	-3.4452334774	 0.8903787484	 0.282191
H	 0.2354446436	-2.1076164308	-2.2382224627	 0.0852
29.5511	100.7036	186.3069	194.9098	245.8721	267.4739	281.28	377.908	430.5747	452.8326	543.6335	683.3642	711.3935	713.8214	794.5291	812.1836	827.3983	879.1285	919.9543	968.8718	974.7113	1023.2326	1036.1993	1078.0921	1089.8313	1104.6675	1126.9052	1137.7181	1170.5204	1199.4652	1234.2399	1238.0669	1289.8268	1309.5835	1316.5673	1330.9049	1343.5329	1355.9048	1380.965	1405.3412	1423.856	1439.4425	1480.9619	1488.0678	1494.2592	1502.9903	1511.5453	2961.0157	3002.9556	3034.6014	3036.2668	3056.2647	3067.6194	3080.8755	3101.7278	3104.5167	3118.6068	3121.2679	3131.6761	3816.4035
CCN1C2CCC(O)C12	CCN1[C@H]2CC[C@@H](O)[C@@H]12	
InChI=1S/C7H13NO/c1-2-8-5-3-4-6(9)7(5)8/h5-7,9H,2-4H2,1H3	InChI=1S/C7H13NO/c1-2-8-5-3-4-6(9)7(5)8/h5-7,9H,2-4H2,1H3/t5-,6+,7-,8?/m0/s1
