25
gdb 118959	2.35032	0.99044	0.91761	1.7939	88.89	-0.2389	0.0771	0.316	1507.7472	0.227044	-389.487771	-389.476939	-389.475995	-389.523817	39.911	
C	 0.0123536693	 1.6185405243	-0.077799505	-0.379613
C	 0.0033288294	 0.086856116	-0.0788322839	-0.181967
C	 0.547125565	-0.5043654985	 1.2297990744	-0.223942
C	 0.7007560218	-2.0321523641	 1.2386345677	 0.263466
C	-0.6110984332	-2.7602142487	 0.9565579533	-0.470006
C	 1.9390214238	-2.5140306443	 0.4373942399	-0.107855
O	 2.6946826666	-2.7377884959	 1.642031348	-0.296143
C	 1.510500515	-2.5859096495	 2.4586820489	 0.124429
C	 1.7616687229	-1.7704955689	 3.7108456437	-0.413089
H	 1.0286010251	 2.0090255656	 0.0453703269	 0.11541
H	-0.3884982043	 2.0208600384	-1.0133757617	 0.111378
H	-0.5947201255	 2.0166622254	 0.7429669351	 0.114162
H	-1.0195370614	-0.2664536508	-0.2525986273	 0.100096
H	 0.600197201	-0.2796256084	-0.9245502517	 0.097272
H	 1.5254465436	-0.0514016449	 1.4335892838	 0.101839
H	-0.1084767532	-0.2011143296	 2.0579046071	 0.090782
H	-0.9886159361	-2.5422860777	-0.0472829523	 0.120113
H	-0.481567584	-3.8447810555	 1.0307121453	 0.114459
H	-1.3880813318	-2.4663391758	 1.6724460008	 0.11353
H	 1.7785160833	-3.4448516175	-0.1254459536	 0.088145
H	 2.4252678547	-1.782403999	-0.2190638653	 0.09605
H	 1.1283243591	-3.5777168754	 2.7504712505	 0.05966
H	 2.1458857144	-0.7739378782	 3.4818607881	 0.121447
H	 0.8408420937	-1.6684602497	 4.2954425792	 0.114365
H	 2.5010051109	-2.2822490674	 4.335528488	 0.126012
60.2618	87.5153	106.4497	134.598	199.1166	215.37	247.6953	269.0712	286.0205	317.0661	352.1718	399.0426	463.1843	518.4245	671.3949	750.7482	765.6573	856.2533	877.8994	880.5228	912.872	960.6882	980.7358	1021.5063	1037.567	1050.0103	1056.853	1099.8037	1109.6399	1134.5657	1169.8261	1188.1318	1227.9955	1256.3918	1287.0511	1304.5153	1324.5638	1338.8002	1369.7985	1390.8843	1397.5594	1410.1469	1412.177	1417.7069	1478.4931	1482.8106	1492.3664	1495.3362	1499.1304	1499.269	1502.5439	1510.8988	1524.7774	2961.4301	2994.021	3007.2286	3020.9066	3026.7189	3029.5012	3038.8466	3042.4908	3047.6888	3064.7076	3091.0164	3096.9112	3101.6791	3103.3052	3103.518	3127.0625
CCCC1(C)COC1C	CCC[C@@]1(C)CO[C@H]1C	
InChI=1S/C8H16O/c1-4-5-8(3)6-9-7(8)2/h7H,4-6H2,1-3H3	InChI=1S/C8H16O/c1-4-5-8(3)6-9-7(8)2/h7H,4-6H2,1-3H3/t7-,8-/m0/s1
