23
gdb 64486	2.49974	1.38916	1.14156	1.9302	81.1	-0.2484	0.0689	0.3173	1203.4486	0.206959	-425.436283	-425.427091	-425.426147	-425.469813	36.242	
C	 0.3548069078	 1.6393980582	 0.0007863697	-0.415025
C	-0.0437223618	 0.1635013602	-0.0121415757	 0.357438
O	-1.4719131448	 0.1290914793	 0.0341504401	-0.472327
C	 0.4670489692	-0.5153545787	-1.3121421268	-0.219441
C	-0.1562030489	-1.8872054997	-1.6145392011	-0.210471
C	 0.3647905892	-3.095837991	-0.8043789357	-0.202661
C	 0.8863290625	-2.7858861614	 0.6051651826	-0.069111
O	 0.0775589768	-1.8795313523	 1.3460609682	-0.262272
C	 0.4870080816	-0.5244244965	 1.2533871999	-0.119099
H	 1.4366056456	 1.757180567	-0.117340867	 0.109604
H	-0.1411236595	 2.163221521	-0.8211347508	 0.126335
H	 0.0495724664	 2.1160750532	 0.9369505597	 0.117424
H	-1.7089286655	-0.7333032417	 0.3974934889	 0.285249
H	 0.2167343937	 0.1564129552	-2.1410784887	 0.098094
H	 1.5631971082	-0.5758468021	-1.2858632687	 0.085375
H	-1.2369458296	-1.7879255213	-1.4756897817	 0.106281
H	-0.0199218711	-2.1060854265	-2.6790552071	 0.094742
H	-0.4357507051	-3.8411914502	-0.7376813994	 0.102887
H	 1.1878052943	-3.5852445323	-1.3412949568	 0.09669
H	 0.9336250964	-3.7127972303	 1.1882211375	 0.103512
H	 1.9099597389	-2.3877066561	 0.5495783913	 0.091076
H	 1.583620369	-0.4482642606	 1.3083496938	 0.08804
H	 0.0613716467	-0.0192224935	 2.1269988678	 0.107658
69.1744	131.4734	212.5748	249.0015	266.6214	279.6873	314.5186	386.2766	405.2062	462.2324	473.4472	494.8537	577.0484	591.5863	720.445	790.6239	810.2234	879.6677	893.5792	918.851	959.5034	994.993	1007.6245	1026.2013	1063.949	1091.24	1123.2196	1141.6037	1180.7719	1214.8612	1241.4528	1273.5265	1291.0621	1304.3193	1335.6718	1359.5051	1364.7236	1380.8869	1391.3186	1410.6202	1422.9984	1427.8466	1472.6682	1482.2523	1485.1635	1488.314	1499.3593	1507.6798	1510.8177	2988.3271	2994.9983	3020.5207	3022.6061	3040.1341	3046.0123	3050.6386	3064.3359	3066.3691	3074.804	3087.1153	3113.648	3117.2209	3776.6667
CC1(O)CCCCOC1	C[C@@]1(O)CCCCOC1	
InChI=1S/C7H14O2/c1-7(8)4-2-3-5-9-6-7/h8H,2-6H2,1H3	InChI=1S/C7H14O2/c1-7(8)4-2-3-5-9-6-7/h8H,2-6H2,1H3/t7-/m1/s1
