18
gdb 72711	2.7157	2.06993	1.61102	1.1091	76.62	-0.2247	-0.0014	0.2233	893.6079	0.147073	-401.784772	-401.777571	-401.776627	-401.815626	30.358	
C	-0.0117783309	 1.5195016843	 0.0037589906	-0.455119
C	-0.018728404	-0.0011226736	 0.0324741788	 0.438787
O	-1.3476557734	-0.3904317968	 0.6195308194	-0.352233
C	-0.639674109	-0.5906256897	 1.9070730765	-0.20821
C	 0.6255925347	-0.8657710027	 1.0578143255	 0.159075
N	 2.0273243269	-0.4796753331	 0.4675864394	-0.403081
C	 1.1885296524	-0.6389487285	-0.8491621118	-0.176864
C	 0.9109010488	-2.120493608	-0.8038640407	-0.046096
C	 0.5252253647	-2.2771567915	 0.4595903702	-0.068754
H	 0.9129787797	 1.9401327589	-0.4012384687	 0.114443
H	-0.8298655738	 1.8294058507	-0.6560201698	 0.141546
H	-0.2038729443	 1.9673151127	 0.9834514165	 0.123293
H	-0.6531860888	 0.3227096979	 2.5096915809	 0.111725
H	-1.0540309052	-1.4323087747	 2.4678556145	 0.11859
H	 2.176945328	 0.5218043947	 0.6222557122	 0.215707
H	 1.596044588	-0.1640881482	-1.7431009028	 0.074589
H	 1.0131424305	-2.824438649	-1.615486776	 0.110811
H	 0.2097900656	-3.1533466934	 1.0076556251	 0.10179
191.2803	240.1684	279.6058	318.9834	374.8773	419.6383	507.8169	523.9633	564.841	602.0212	687.1066	716.9832	730.774	808.1674	827.341	860.8208	871.2787	906.8543	907.8576	961.7587	982.0069	1049.4784	1061.3112	1082.2812	1098.8377	1123.9999	1141.6872	1148.5515	1176.8997	1241.6193	1268.4381	1276.4635	1304.405	1344.8262	1411.7889	1483.2989	1489.9752	1510.8583	1638.3441	3035.1032	3048.995	3098.6568	3108.9129	3112.8684	3113.3185	3228.0599	3258.8228	3415.5317
CC12OCC11NC2C=C1	C[C@]12OC[C@@]31N[C@H]2C=C3	
InChI=1S/C7H9NO/c1-6-5-2-3-7(6,8-5)4-9-6/h2-3,5,8H,4H2,1H3	InChI=1S/C7H9NO/c1-6-5-2-3-7(6,8-5)4-9-6/h2-3,5,8H,4H2,1H3/t5-,6+,7-/m0/s1
