23
gdb 99707	1.81336	1.06482	0.70886	0.2539	95.21	-0.2396	0.0605	0.3001	1691.3125	0.203626	-351.127401	-351.116326	-351.115381	-351.165196	39.123	
C	 0.0170642132	 1.4819425271	-0.0606509325	-0.388717
C	 0.094742275	-0.0413091226	 0.0517868425	-0.166759
C	 0.7161297951	-0.5388955336	 1.379305416	-0.18579
C	-0.0742329274	-0.1166896687	 2.5389947526	 0.107264
C	-0.7429303083	 0.212435336	 3.485710731	 0.044451
C	-1.539308994	 0.6109776046	 4.6383539646	-0.49803
C	 0.9000355562	-2.0533577484	 1.3678877954	 0.043163
C	 2.1141014449	-2.6606629909	 0.7127879333	-0.278865
C	 1.9602748827	-2.7011486442	 2.2149025085	-0.269259
H	 1.0139315454	 1.9341722333	-0.004483004	 0.109684
H	-0.4308900296	 1.7829572968	-1.0127080785	 0.109099
H	-0.5861582635	 1.9045348438	 0.7481260525	 0.12828
H	-0.9079949619	-0.4744861083	-0.0466918432	 0.099072
H	 0.6956393215	-0.4485186029	-0.7697538921	 0.096395
H	 1.7166089736	-0.0868453065	 1.464565599	 0.088601
H	-1.5795385716	-0.1856794471	 5.389733069	 0.145652
H	-1.1224175633	 1.5007890804	 5.1234688684	 0.145106
H	-2.5704938793	 0.8451291264	 4.3510140368	 0.144682
H	-0.0319844685	-2.6024980859	 1.2634509308	 0.085719
H	 1.9956084114	-3.5822610598	 0.1536531337	 0.109436
H	 2.8577033751	-1.9861785554	 0.2995959416	 0.108455
H	 2.5979489987	-2.0525900793	 2.8067940184	 0.112525
H	 1.7364254047	-3.6512981047	 2.6869095563	 0.109835
27.043	65.773	82.6027	105.2354	134.6273	162.9128	233.9676	260.4675	286.426	339.0078	381.1371	413.9577	480.6182	548.3877	709.6128	776.0483	818.8149	838.1344	859.5842	899.1948	956.7702	976.3156	1033.0433	1053.2945	1053.5311	1057.6661	1075.992	1080.4453	1109.1958	1137.3953	1164.3753	1193.3902	1198.4321	1225.9796	1273.933	1286.3044	1346.5537	1365.2403	1409.1022	1410.2482	1415.7028	1470.6606	1479.6637	1479.9378	1485.2779	1496.827	1506.1286	1507.6681	2365.7322	2981.6766	3024.5338	3029.0592	3032.5071	3066.6197	3083.8967	3084.1584	3098.3138	3114.2771	3126.8092	3132.919	3142.5395	3204.9741	3220.779
CCC(C#CC)C1CC1	CC[C@@H](C#CC)C1CC1	
InChI=1S/C9H14/c1-3-5-8(4-2)9-6-7-9/h8-9H,4,6-7H2,1-2H3	InChI=1S/C9H14/c1-3-5-8(4-2)9-6-7-9/h8-9H,4,6-7H2,1-2H3/t8-/m0/s1
