17
gdb 16486	2.86415	2.6084	1.77314	1.5536	67.48	-0.2421	0.0653	0.3074	796.7818	0.142748	-363.808458	-363.801303	-363.800359	-363.839344	27.878	
C	-0.0671356196	 1.4610929787	-0.0159451714	-0.512035
C	 0.0840791684	-0.0251462995	 0.0750369231	 0.328066
C	 0.8378612764	-0.8438231443	-0.9238579384	-0.074704
C	 1.0886885479	-2.2310549377	-0.3604084839	-0.23588
C	-0.3097411926	-2.0512560555	 0.2518285039	-0.063079
C	-0.1765159549	-0.9039903062	 1.2780127183	 0.078079
O	 0.829651622	-0.9358883312	 2.2637091453	-0.439607
N	-0.6615815621	-0.983360983	-0.8329511329	-0.206818
H	 0.7486211944	 1.9644980272	 0.5140594895	 0.131306
H	-0.0503633095	 1.7900319666	-1.0593209241	 0.128631
H	-1.0145286034	 1.787963521	 0.4254976257	 0.122382
H	 1.3005584928	-0.3787638775	-1.787759821	 0.091343
H	 1.0846628243	-2.9839928159	-1.1523543886	 0.106514
H	 1.9298320081	-2.38847344	 0.319862636	 0.109104
H	-0.9837273636	-2.8903926274	 0.4152895817	 0.075358
H	-1.1586088491	-0.6597101115	 1.7055837389	 0.076043
H	 0.4892946004	-1.3959805938	 3.0373090679	 0.285296
170.9192	203.5666	231.4369	261.0017	284.8713	337.6969	498.6571	593.8214	616.4069	731.5749	752.9679	798.9999	855.2522	873.15	935.1967	982.6915	997.3004	1000.9093	1028.1007	1046.4587	1086.4313	1128.5512	1139.3253	1179.3813	1203.5006	1244.2273	1250.7901	1283.2079	1292.6757	1346.7451	1396.8966	1417.0524	1465.7001	1483.8305	1487.6965	1494.556	3014.9126	3032.9368	3059.1853	3098.2509	3109.8361	3116.3769	3132.2514	3173.7734	3820.2224
CC12C3CC(C1O)N23	C[C@@]12[C@H]3C[C@@H]([C@H]1O)N23	
InChI=1S/C6H9NO/c1-6-4-2-3(5(6)8)7(4)6/h3-5,8H,2H2,1H3	InChI=1S/C6H9NO/c1-6-4-2-3(5(6)8)7(4)6/h3-5,8H,2H2,1H3/t3-,4+,5+,6+,7?/m0/s1
