15
gdb 43325	2.94898	1.89708	1.52042	3.4022	69.87	-0.2308	-0.0672	0.1637	875.5111	0.114655	-420.639598	-420.633202	-420.632258	-420.67023	25.959	
O	 0.00681128	-0.0248860592	 0.0945902653	-0.3227
C	-0.0155066835	 1.1809844267	-0.0084377592	 0.38966
C	-1.2728588162	 1.9777736799	-0.0607452409	-0.160089
C	-1.2161820491	 3.3168387945	-0.0549456637	-0.041447
C	 0.1529608252	 3.9781224132	-0.0892974333	-0.032459
O	 1.0062571289	 3.1591189629	-0.89089648	-0.244799
C	 1.2658941177	 2.0472138625	-0.0343814514	-0.094624
C	 1.4590277042	 2.7105902901	 1.3293021341	-0.087589
C	 0.8093105703	 3.8683270049	 1.2990111778	-0.084724
H	-2.2036076174	 1.4203323292	-0.0313941172	 0.114454
H	-2.1094686791	 3.9329641533	 0.0006287854	 0.115144
H	 0.1238406103	 4.9844336347	-0.5131251471	 0.096108
H	 2.1127544317	 1.4718096205	-0.4113588315	 0.106287
H	 1.9792945284	 2.2500487726	 2.1571135199	 0.126507
H	 0.6761833488	 4.5889311143	 2.0937169518	 0.120271
120.0849	287.4246	336.9169	410.1851	443.9963	469.2814	557.5741	659.2068	691.7485	745.7741	766.2727	797.1197	844.8244	889.3886	920.0078	926.2274	946.2116	961.1608	996.3574	1005.1481	1072.5357	1119.3422	1145.5455	1221.3362	1242.6738	1261.0417	1294.1743	1310.3847	1352.8583	1380.0739	1653.1098	1662.5926	1797.0263	3091.4008	3113.0742	3165.1547	3192.638	3226.1157	3251.5711
O=C1C=CC2OC1C=C2	O=C1C=C[C@@H]2O[C@H]1C=C2	
InChI=1S/C7H6O2/c8-6-3-1-5-2-4-7(6)9-5/h1-5,7H	InChI=1S/C7H6O2/c8-6-3-1-5-2-4-7(6)9-5/h1-5,7H/t5-,7-/m0/s1
