18
gdb 84759	2.96235	1.30719	0.99522	3.4126	83.06	-0.2168	-0.0418	0.175	1204.0301	0.149821	-401.993907	-401.985673	-401.984729	-402.02743	31.267	
C	-0.8781404136	 1.2968402728	 0.0079323671	-0.378743
C	 0.0156440401	 0.0286425139	-0.0139378275	-0.117019
C	 0.7683724046	-0.0652191434	-1.3124629054	-0.088812
C	 2.0648509629	 0.0904680306	-1.5835374751	 6.*^-6
N	 3.1460012634	 0.3379034506	-0.7430649903	-0.363402
C	 3.2769302385	 0.3434752303	 0.63267576	 0.377674
O	 4.3778415017	 0.5489434736	 1.1187148045	-0.366349
C	 2.1144097112	 0.0914795115	 1.5133595257	-0.135624
C	 0.8103558554	-0.0424725262	 1.2591460503	-0.062019
H	-0.2605746434	 2.1991737531	-0.0114597362	 0.12941
H	-1.5371462348	 1.3127875963	-0.8656202302	 0.118285
H	-1.5031768184	 1.3241853188	 0.9067419079	 0.115582
H	-0.6784076972	-0.8261775773	 0.0196781066	 0.096144
H	 0.1383652547	-0.2538844143	-2.1773076471	 0.091244
H	 2.3824867934	 0.0197605778	-2.619112729	 0.109868
H	 4.037792711	 0.4947133373	-1.1895238156	 0.252537
H	 2.444924114	 0.0358262343	 2.5458538162	 0.114981
H	 0.1785912863	-0.2013352096	 2.133254648	 0.106238
33.2957	119.0061	229.0714	245.0492	289.2276	377.6953	380.0425	431.3743	510.1634	561.1751	623.5763	692.694	717.8767	756.6227	785.3374	852.7097	864.5869	878.2362	939.1963	969.7964	1006.0733	1040.1102	1078.8614	1085.626	1180.2179	1247.9367	1289.4723	1307.8638	1361.1545	1396.5471	1406.3273	1437.5378	1459.2902	1491.6474	1494.8659	1499.3615	1708.8015	1756.8697	1764.9447	2970.8455	3033.2177	3104.487	3118.8835	3125.2314	3157.5073	3183.5147	3185.1598	3614.7613
CC1C=CNC(=O)C=C1	C[C@H]1C=CNC(=O)C=C1	
InChI=1S/C7H9NO/c1-6-2-3-7(9)8-5-4-6/h2-6H,1H3,(H,8,9)	InChI=1S/C7H9NO/c1-6-2-3-7(9)8-5-4-6/h2-6H,1H3,(H,8,9)/t6-/m1/s1
