16
gdb 124979	3.04757	1.21103	0.93739	1.8956	72.11	-0.2483	-0.0347	0.2135	1208.2647	0.122907	-437.897579	-437.888873	-437.887929	-437.932314	30.116	
C	-0.1518911205	 1.4803342972	-0.1986941929	-0.504749
C	-0.0930567802	-0.0037639335	-0.1100478249	 0.366084
C	-1.0509794597	-0.9721753569	 0.0258575076	 0.043952
C	-2.5433390202	-0.7970231093	 0.099147261	-0.395518
C	-3.0661991611	-0.3196209482	-1.2472871242	 0.161359
O	-3.4760398	 0.7929313202	-1.4570221393	-0.237763
C	-0.2894057141	-2.1737862216	 0.0553280833	-0.043577
N	 0.9970706756	-1.9586307421	-0.0441834861	-0.139431
O	 1.1230300018	-0.574248792	-0.1495287442	-0.205631
H	 0.2286594085	 1.9431974279	 0.7186910631	 0.152069
H	 0.4626498656	 1.8408416102	-1.0289087756	 0.156203
H	-1.1802712261	 1.8101044888	-0.356853052	 0.163672
H	-3.0122007719	-1.75717341	 0.3426914745	 0.127327
H	-2.8347153189	-0.0671135499	 0.859666197	 0.134123
H	-3.0021418379	-1.0755575806	-2.0614190907	 0.089926
H	-0.646650671	-3.1903475002	 0.1521008435	 0.131953
54.3374	62.6998	93.5432	161.7503	232.0406	245.5095	365.038	386.8222	482.9868	642.2997	646.2944	692.4654	705.9132	861.4745	911.9194	912.7128	956.8596	1002.8306	1015.4169	1054.6358	1069.2295	1153.4027	1201.7062	1237.7196	1270.5613	1293.3496	1405.381	1420.1228	1422.8998	1466.3295	1481.8466	1484.0422	1516.2124	1655.3283	1826.3035	2887.6469	3041.819	3044.9749	3102.1672	3103.0138	3143.8656	3234.4726
CC1=C(CC=O)C=NO1	Cc1c(CC=O)cno1	
InChI=1S/C6H7NO2/c1-5-6(2-3-8)4-7-9-5/h3-4H,2H2,1H3	InChI=1S/C6H7NO2/c1-5-6(2-3-8)4-7-9-5/h3-4H,2H2,1H3
