20
gdb 22378	2.64446	1.199	0.99617	1.4407	84.88	-0.2249	0.0179	0.2428	1281.1379	0.169053	-403.088301	-403.078911	-403.077967	-403.122069	35.691	
C	-0.0024264047	 1.5844591099	 0.0320710515	-0.421829
C	 0.1064795949	 0.0748795815	 0.0931469677	-0.051785
C	 1.3679695737	-0.7150475244	-0.2332815197	-0.215496
C	 2.5575336492	-0.0467698239	 0.3512445191	 0.455052
C	 1.9756356377	-0.0107687785	 1.7583510764	-0.391614
C	 0.7309105973	-0.7327550836	 1.1914026644	 0.329946
C	 0.0332062167	-1.8573204205	 1.8999240965	-0.49481
N	 3.6879957863	 0.2035848947	-0.1654492103	-0.275261
O	 4.5598577889	 0.7643246385	 0.7948153598	-0.397946
H	 0.9067585399	 2.0803135579	 0.3800848793	 0.131687
H	-0.1790486473	 1.9130116008	-0.9975429836	 0.122421
H	-0.8381013596	 1.9419141472	 0.6440329285	 0.116272
H	-0.768420141	-0.4303755383	-0.3153216513	 0.087293
H	 1.3841779263	-1.4754375409	-1.0047271901	 0.096115
H	 2.5623380274	-0.640815359	 2.4343499827	 0.126417
H	 1.8299835307	 0.9645944592	 2.2311664147	 0.115136
H	-0.5333987187	-1.488206077	 2.7638107025	 0.123309
H	-0.6735194634	-2.3663828564	 1.2364855976	 0.119931
H	 0.7472441337	-2.6026777414	 2.2681669177	 0.121194
H	 5.3677848419	 0.8819761642	 0.2846117266	 0.303967
83.0369	166.6358	183.118	199.0464	215.0193	239.3692	292.8714	338.4861	358.1471	442.7776	484.5711	495.3676	582.7481	634.6927	707.9383	734.188	844.8881	897.6118	929.7051	945.8559	958.0394	982.7236	1033.7677	1045.0421	1085.384	1113.7535	1128.9501	1150.9984	1179.4581	1217.8745	1255.0801	1285.8582	1333.6301	1408.5947	1415.523	1415.8606	1456.5687	1477.5261	1485.8546	1494.0912	1499.1363	1504.1228	1782.124	3019.8038	3034.4571	3053.7963	3077.9903	3093.0896	3096.3266	3098.973	3108.0427	3126.0186	3188.9763	3822.1033
CC1C2C(CC12C)=NO	C[C@H]1[C@H]2C(=NO)C[C@@]12C	
InChI=1S/C7H11NO/c1-4-6-5(8-9)3-7(4,6)2/h4,6,9H,3H2,1-2H3	InChI=1S/C7H11NO/c1-4-6-5(8-9)3-7(4,6)2/h4,6,9H,3H2,1-2H3/t4-,6-,7-/m0/s1
