17
gdb 112492	2.76168	1.04986	0.88103	5.3993	74.96	-0.2689	-0.0511	0.2178	1352.0026	0.134836	-418.012828	-418.003713	-418.002769	-418.047617	32.367	
C	 0.0409179793	 1.4341064155	-0.3094123632	-0.391526
C	 0.0270670395	-0.0741609449	-0.04838034	-0.171529
C	-1.3850336233	-0.6167030778	 0.1475174247	-0.086027
N	-2.252588123	-0.6160112503	-1.0680844097	-0.319805
C	-2.6700340807	-2.0275115494	-0.8950711875	-0.253103
C	-2.5580456663	-2.8751476759	-2.0750686677	 0.314508
N	-2.4560308655	-3.5612784037	-2.9994121006	-0.315064
C	-1.5602953359	-2.1394313027	 0.2085420559	 0.389863
O	-1.062589087	-3.0383036559	 0.8028296691	-0.26134
H	 1.0622607457	 1.793463538	-0.462801019	 0.12596
H	-0.5375895088	 1.677151246	-1.2060941364	 0.132116
H	-0.3865356003	 1.9894539811	 0.5331121922	 0.114553
H	 0.4895624592	-0.603818445	-0.8882836197	 0.117861
H	 0.6100874269	-0.3172970906	 0.847666852	 0.117992
H	-1.8541302119	-0.1472761922	 1.0272140864	 0.10434
H	-3.0211211073	 0.0430469922	-1.052918974	 0.238224
H	-3.6596797206	-2.1748104844	-0.4384135625	 0.142977
48.8856	86.0674	126.3828	155.9403	222.8179	246.2406	293.872	373.8002	434.9881	522.1409	534.7015	619.7707	636.0456	758.1262	797.9955	855.2963	914.0493	969.2114	981.7745	1022.9218	1062.6251	1079.3215	1095.5041	1138.2152	1154.5619	1252.8089	1269.6047	1310.1152	1352.9396	1375.0852	1391.8277	1407.5641	1476.8407	1497.159	1508.05	1932.8433	2357.6468	2980.369	3005.9203	3033.6195	3040.5588	3079.296	3105.972	3115.567	3560.9264
CCC1NC(C#N)C1=O	CC[C@H]1N[C@@H](C#N)C1=O	
InChI=1S/C6H8N2O/c1-2-4-6(9)5(3-7)8-4/h4-5,8H,2H2,1H3	InChI=1S/C6H8N2O/c1-2-4-6(9)5(3-7)8-4/h4-5,8H,2H2,1H3/t4-,5+/m1/s1
