16
gdb 45170	3.05091	1.8579	1.61789	4.3398	67.49	-0.2554	0.0006	0.256	864.2076	0.128217	-437.918683	-437.912632	-437.911688	-437.948983	25.087	
O	-0.0017072464	 0.01022214	-0.3270369873	-0.347259
C	 0.0059067569	 1.1714769752	-0.0229350899	 0.440019
O	-1.1575031374	 1.8438072831	 0.196381021	-0.240971
C	-0.9958149251	 3.2279218552	 0.5619889974	 0.07206
C	-0.1218386737	 3.3162377655	 1.8220229	-0.254467
C	 1.2455341501	 3.0442122992	 1.2191889645	-0.039077
C	 1.2470503702	 1.987609195	 0.1536792828	-0.175948
N	 1.2511118253	 3.431809995	-0.1998334466	-0.116817
C	-0.1145624162	 3.9054927228	-0.495887513	-0.179221
H	-2.0013072825	 3.6328606551	 0.6667571439	 0.103201
H	-0.1651517665	 4.3199088019	 2.2570774197	 0.120664
H	-0.4231159569	 2.5912805206	 2.5820489321	 0.131628
H	 2.1513223531	 3.2251428958	 1.7873309095	 0.110393
H	 2.1588162928	 1.4547917265	-0.0884044683	 0.122407
H	-0.4085482243	 3.6402858791	-1.5142849522	 0.132324
H	-0.1321028593	 4.9946778999	-0.3908033837	 0.121064
142.3422	358.6226	372.321	447.3057	459.3453	490.5055	612.9803	663.9609	756.4274	789.2299	810.1059	851.6711	873.8936	893.9642	919.6847	946.0776	988.6967	1014.4374	1047.6978	1067.3571	1091.3043	1124.5443	1182.0149	1210.9983	1234.3428	1246.4302	1254.6741	1313.3106	1319.7635	1342.4915	1387.8376	1392.5491	1477.0193	1493.2646	1851.3644	3057.5889	3062.3552	3114.1226	3117.837	3131.4945	3176.2855	3192.683
O=C1OC2CC3C1N3C2	O=C1O[C@H]2C[C@H]3[C@@H]1N3C2	
InChI=1S/C6H7NO2/c8-6-5-4-1-3(9-6)2-7(4)5/h3-5H,1-2H2	InChI=1S/C6H7NO2/c8-6-5-4-1-3(9-6)2-7(4)5/h3-5H,1-2H2/t3-,4-,5-,7?/m0/s1
