15
gdb 29408	6.82434	0.87384	0.78245	4.0984	72.34	-0.2329	-0.0115	0.2214	1410.4474	0.112203	-453.974223	-453.96585	-453.964906	-454.008251	29.323	
C	-0.0739937999	 1.4594349606	 0.0439951618	-0.488634
C	 0.0303176083	-0.0250496847	-0.0220145369	 0.259917
C	 0.0653632785	-0.8415343766	-1.0985047057	-0.12599
O	 0.1752044622	-2.1466690056	-0.6441125198	-0.194234
C	 0.1877478469	-2.0077211112	 0.6972047083	 0.499637
O	 0.3249699978	-3.102934077	 1.4535791683	-0.207555
C	-0.0082261364	-4.3310997742	 0.9363020446	 0.112376
N	 0.2713363535	-5.3491838616	 1.6151002757	-0.411777
N	 0.1074432638	-0.8027301457	 1.1406825673	-0.385382
H	 0.7930079153	 1.8857925985	 0.5590563696	 0.145185
H	-0.1313193197	 1.894424461	-0.9568430106	 0.125856
H	-0.9640982323	 1.7607405096	 0.605826802	 0.144062
H	 0.0280876583	-0.7124020127	-2.1655394227	 0.148126
H	-0.503970598	-4.2726706317	-0.0338851001	 0.134746
H	-0.0487245481	-6.1877949287	 1.1344851783	 0.243667
47.5228	80.5987	146.2054	165.685	225.1097	305.1252	365.0297	460.1196	522.2476	640.119	675.4461	701.5802	743.2373	811.6686	838.2149	962.3921	987.0653	1025.6243	1047.9901	1067.6323	1081.438	1104.4049	1233.9577	1260.6458	1307.2434	1380.4437	1417.6071	1422.2673	1473.7743	1488.9264	1644.199	1649.3388	1758.3024	3040.8809	3098.6213	3121.0855	3125.4587	3301.944	3522.2837
CC1=COC(OC=N)=N1	Cc1coc(O[CH][NH])n1	
InChI=1S/C5H6N2O2/c1-4-2-8-5(7-4)9-3-6/h2-3,6H,1H3	InChI=1S/C5H6N2O2/c1-4-2-8-5(7-4)9-3-6/h2-3,6H,1H3
