14
gdb 33291	6.45538	0.72094	0.7189	5.2505	83.91	-0.2625	-0.0628	0.1997	1523.0536	0.100802	-399.4603	-399.452792	-399.451848	-399.492991	27.899	
N	 0.0390169236	-3.6533955348	-0.0421439772	-0.326792
C	 0.0270360891	-2.4918473263	-0.0260704879	 0.135405
C	 0.0160538803	-1.1277205041	-0.0040437126	 0.560749
C	 0.0070005862	 0.0807114695	 0.0166380325	-0.441729
C	 0.0164714263	 1.509241019	 0.0761088573	 0.287407
C	-0.6766953494	 2.4562701549	 1.1019788664	-0.249234
C	-0.0885007183	 3.2960120176	-0.0549628511	 0.013795
C	 1.2277203371	 2.4887305667	 0.0192875168	-0.249246
O	-0.6179693621	 2.2932894588	-1.0163560753	-0.327841
H	-1.7635688187	 2.3824563175	 1.1201627256	 0.128217
H	-0.2263696474	 2.5442008328	 2.0927823803	 0.11246
H	-0.2430772629	 4.3454415184	-0.2953930653	 0.116127
H	 1.846482454	 2.5795335028	 0.9143320668	 0.11246
H	 1.8007913123	 2.4432134272	-0.9062346362	 0.128221
81.5354	82.0545	227.196	237.5238	410.0061	465.4684	466.0171	530.8378	578.1157	593.4628	605.9587	729.5232	793.9529	872.5341	915.664	940.2964	941.3868	985.4962	1050.9822	1077.0219	1089.5162	1112.2425	1168.4338	1219.8029	1233.5712	1234.4388	1334.3581	1466.2312	1506.4964	2264.6621	2394.6717	3073.1792	3080.4972	3151.5736	3163.9813	3168.1262
N#CC#CC12CC(C1)O2	N#CC#C[C@@]12C[C@@H](C1)O2	
InChI=1S/C7H5NO/c8-3-1-2-7-4-6(5-7)9-7/h6H,4-5H2	InChI=1S/C7H5NO/c8-3-1-2-7-4-6(5-7)9-7/h6H,4-5H2/t6-,7+
