15
gdb 133837	3.70512	1.39074	1.07965	3.4981	83.64	-0.2225	-0.1124	0.1101	1062.7157	0.108719	-379.539084	-379.530886	-379.529941	-379.571964	30.537	
C	 1.0900336028	-1.9165219897	 0.2132151412	-0.479457
C	 1.8677846334	-3.2080968459	 0.3131014839	 0.178151
C	 1.1816213612	-4.490079747	 0.4727068713	-0.103867
C	 4.1680925497	-4.3429562479	-0.108542754	-0.114228
N	 5.4012862113	-3.9968746328	-0.5525211074	-0.18651
C	 5.2201265944	-2.7039313014	-0.542729838	 0.064716
C	 3.9557141582	-2.1570620462	-0.7856795759	-0.297555
C	 3.239583923	-3.2322936572	-0.2167855161	 0.291584
N	 1.6042025266	-4.095703211	 1.5816767483	-0.184867
H	 1.6056065876	-1.1089754413	 0.74383003	 0.137795
H	 0.0960664453	-2.0313981513	 0.6502517426	 0.129995
H	 0.9724969473	-1.6102314446	-0.8324961243	 0.130487
H	 0.6601460293	-5.3363664207	 0.0397293423	 0.167436
H	 3.9944884913	-5.2896080074	 0.3868343249	 0.131545
H	 3.6554997087	-1.1329408857	-0.9176626989	 0.134775
56.5305	164.2066	178.3118	185.5205	324.9819	366.1313	406.8508	438.9321	479.3554	537.8371	600.5271	637.5523	697.3235	747.3326	773.1548	800.9201	885.2058	929.9042	984.2642	1064.6114	1078.6536	1090.9298	1170.2539	1226.3016	1255.7765	1281.9148	1350.5459	1396.5761	1414.4287	1485.515	1491.897	1504.5833	1747.405	3033.7496	3093.9908	3129.9358	3194.4329	3216.9144	3298.7282
CC12C3C4N=C(C=C14)N23	C[C@@]1([CH][N]1)C1=C[N][C][CH]1	
InChI=1S/C7H6N2/c1-7-3-2-4-8-5(3)6(7)9(4)7/h2,5-6H,1H3	InChI=1S/C7H6N2/c1-7(5-9-7)6-2-3-8-4-6/h2,4-5H,1H3/t7-/m1/s1
