16
gdb 30602	4.50954	1.07113	0.8703	1.0758	75.76	-0.2329	-0.0204	0.2126	1287.3504	0.12688	-434.148908	-434.140606	-434.139661	-434.182495	29.614	
C	 0.0076741636	 1.4275079969	 0.0576523604	-0.335084
N	 0.1071978929	-0.0128069655	-0.0305751282	-0.318534
C	 0.55168562	-0.6534566426	-1.1376740654	 0.346739
O	 0.9160993965	-0.1144437818	-2.1765963397	-0.417945
C	 0.5696186901	-2.1268175684	-1.003796438	 0.279821
N	 0.2140907924	-2.8600352682	 0.0355142791	-0.327405
C	 0.4193657677	-4.1574902837	-0.3522454719	-0.09478
C	 0.9042093787	-4.2037472539	-1.6405049837	-0.09767
N	 0.9931337269	-2.8981561606	-2.0389180934	-0.263822
H	 0.6396255373	 1.8222507496	 0.8611616911	 0.128607
H	 0.3447538026	 1.8393120781	-0.8946066045	 0.168263
H	-1.0252995635	 1.7454219932	 0.2385484517	 0.128607
H	-0.1573232873	-0.5979467119	 0.7484631513	 0.26672
H	 0.2105355187	-4.9859371374	 0.3073049569	 0.114655
H	 1.1825978195	-5.022649126	-2.2824391132	 0.138013
H	 1.3049849639	-2.5164051976	-2.9182844825	 0.283816
87.5861	98.3378	119.4985	146.4493	224.9325	307.6051	394.6289	509.9903	578.1309	616.008	679.7875	683.1242	757.2557	801.3784	816.6737	861.8536	932.5043	977.9663	1047.2977	1094.6593	1134.9515	1153.8338	1177.8278	1186.9431	1229.6291	1310.9321	1408.8976	1441.9556	1458.7522	1488.5608	1498.1347	1499.0117	1558.4359	1597.6935	1759.105	3026.5387	3077.5274	3149.6575	3250.0983	3282.8595	3613.9539	3653.0312
CNC(=O)C1=NC=CN1	CNC(=O)c1ncc[nH]1	
InChI=1S/C5H7N3O/c1-6-5(9)4-7-2-3-8-4/h2-3H,1H3,(H,6,9)(H,7,8)	InChI=1S/C5H7N3O/c1-6-5(9)4-7-2-3-8-4/h2-3H,1H3,(H,6,9)(H,7,8)
