19
gdb 39280	2.39279	2.18154	1.53346	1.3538	73.15	-0.2498	0.0739	0.3237	918.4649	0.162383	-422.995478	-422.988843	-422.987899	-423.026025	28.352	
C	-0.1026783353	 1.510876044	 0.0807117489	-0.143923
O	 1.2725109872	 1.9161602368	-0.1171628973	-0.29789
C	 2.1621108822	 0.7636175216	 0.040400956	 0.122592
C	 1.3018464237	-0.2378227974	 0.8079301229	-0.298444
C	 0.0782598649	 0.0147900479	-0.0638000485	 0.352535
O	-0.7546842547	-1.0345852711	-0.5092222091	-0.316707
C	 0.1964600508	-0.4565499899	-1.442245036	 0.03208
C	 1.5739849087	-0.9895216395	-1.7851438087	-0.283348
C	 2.5703159933	 0.1275633747	-1.3228535484	-0.209707
H	-0.4552098398	 1.8361544443	 1.0685015716	 0.095931
H	-0.7281403869	 1.9622126191	-0.6939316809	 0.111271
H	 3.0423593245	 1.1365998955	 0.5686525279	 0.078511
H	 1.665752065	-1.2632834798	 0.7861611849	 0.112924
H	 1.1347927156	 0.0631701485	 1.8457842128	 0.103724
H	-0.2965971321	 0.1284506909	-2.2169333892	 0.099435
H	 1.77284858	-1.9301562493	-1.2654584564	 0.120188
H	 1.684364704	-1.1886279778	-2.8544141506	 0.103953
H	 2.6066808273	 0.9286240732	-2.0681188538	 0.116866
H	 3.5834224516	-0.2831765117	-1.245963456	 0.100007
196.0727	276.0744	350.5886	384.0853	411.8044	485.0886	500.9492	537.3012	567.595	721.5585	770.4153	796.5655	835.37	855.0139	902.7798	924.0461	934.4737	986.4533	988.838	1000.1338	1032.7648	1053.4268	1088.7825	1111.5539	1130.4703	1174.1155	1180.1239	1218.3221	1230.1532	1263.5769	1299.5491	1323.9335	1339.7649	1351.2562	1361.9024	1368.9449	1472.3679	1483.3832	1494.3848	1511.8868	1530.3449	3012.4897	3040.5428	3065.13	3069.5243	3082.7153	3088.1444	3090.3015	3105.3243	3125.6749	3151.7717
C1OC2CC11OC1CC2	C1O[C@H]2C[C@]31O[C@@H]3CC2	
InChI=1S/C7H10O2/c1-2-6-7(9-6)3-5(1)8-4-7/h5-6H,1-4H2	InChI=1S/C7H10O2/c1-2-6-7(9-6)3-5(1)8-4-7/h5-6H,1-4H2/t5-,6-,7-/m1/s1
