16
gdb 8814	2.95439	1.52344	1.04436	2.601	66.87	-0.2607	-0.0318	0.2289	1092.2019	0.126759	-383.721045	-383.711874	-383.71093	-383.755643	32.451	
C	-0.3023875741	 1.6029442467	 1.1866177554	-0.384861
C	-0.2432654133	 0.4001446573	 0.2249294995	-0.266574
C	 0.6443949198	-0.655611404	 0.7040933841	 0.321404
C	 1.3864973359	-1.5047570028	 1.1198464389	-0.462234
C	-1.6543076504	-0.1067337606	-0.126164249	 0.363458
O	-2.6059274534	 0.6424354212	-0.127717301	-0.321353
C	-1.8451528502	-1.5579138659	-0.5307263602	-0.137521
O	-3.1528905758	-1.79922614	-0.9550949924	-0.422133
H	 0.6917829911	 2.0387303651	 1.304479238	 0.129105
H	-0.987490203	 2.354868947	 0.7926742429	 0.144594
H	-0.6607206913	 1.2884538912	 2.1699996556	 0.135401
H	 0.1504354981	 0.7556767064	-0.7416472649	 0.145413
H	 2.0398090152	-2.2604897302	 1.4809514166	 0.20633
H	-1.1142777844	-1.8027553149	-1.3183093752	 0.122836
H	-1.5716402107	-2.1834823333	 0.3343036249	 0.131861
H	-3.6260560135	-0.9637618633	-0.816130043	 0.294275
25.382	116.299	134.3212	203.4552	221.0512	236.0243	326.9488	380.152	391.7478	465.0614	507.0507	544.404	631.1624	656.7602	666.9184	800.0019	884.0711	946.8314	1010.6097	1072.2511	1125.9302	1130.3405	1167.3942	1237.1791	1280.4484	1300.7457	1314.3413	1404.1002	1449.0306	1480.7867	1490.3821	1498.0479	1794.9199	2236.2024	2980.4175	2985.2532	3000.8017	3060.1925	3135.2885	3152.6336	3501.6512	3693.9667
CC(C#C)C(=O)CO	C[C@@H](C#C)C(=O)CO	
InChI=1S/C6H8O2/c1-3-5(2)6(8)4-7/h1,5,7H,4H2,2H3	InChI=1S/C6H8O2/c1-3-5(2)6(8)4-7/h1,5,7H,4H2,2H3/t5-/m0/s1
