15
gdb 22792	2.85655	1.51383	1.04728	2.9068	72.93	-0.2217	-0.0461	0.1756	1087.2216	0.113553	-453.940463	-453.932634	-453.93169	-453.973074	29.603	
O	-0.002832557	 1.3435917101	 0.0395177629	-0.35314
N	 0.0280448983	-0.0350623362	-0.0171780246	-0.179022
C	-1.1145806551	-0.611646531	 0.0138588691	 0.246057
C	-1.1020857441	-2.1253311705	-0.0374556289	-0.342175
C	-2.2197613481	-2.6574831603	-0.8951914275	-0.128151
C	-3.3172059362	-1.9268220546	-1.0865694148	 0.029391
N	-3.4608957962	-0.6493013858	-0.5360208532	-0.356295
C	-2.4524785511	 0.0870379614	 0.0615992961	 0.366467
O	-2.6645878849	 1.1795212915	 0.5417031787	-0.342122
H	 0.931868776	 1.5678309494	-0.0372724496	 0.312082
H	-0.1192434501	-2.4503370208	-0.3887959662	 0.135066
H	-1.2064172204	-2.5236999441	 0.9860898048	 0.132009
H	-2.1396359182	-3.6459665358	-1.3283985187	 0.104197
H	-4.1654685612	-2.2659780252	-1.6688105409	 0.118254
H	-4.3529884818	-0.1794423082	-0.575874277	 0.257381
64.4067	135.201	232.8771	295.8857	311.6494	438.3436	441.2447	460.7057	505.0653	529.9764	582.216	634.3393	706.5253	728.1945	775.7123	905.5	935.0487	952.9964	976.4413	1040.2318	1076.906	1177.4124	1180.6959	1216.3286	1310.1146	1338.8098	1414.0194	1423.6877	1462.0145	1465.0045	1701.7602	1729.9635	1793.7093	2963.7994	3089.9987	3200.5352	3222.7142	3624.7986	3799.1002
ON=C1CC=CNC1=O	ON=C1CC=CNC1=O	
InChI=1S/C5H6N2O2/c8-5-4(7-9)2-1-3-6-5/h1,3,9H,2H2,(H,6,8)	InChI=1S/C5H6N2O2/c8-5-4(7-9)2-1-3-6-5/h1,3,9H,2H2,(H,6,8)
