17
gdb 96731	2.48004	1.3691	0.93371	1.6335	74.86	-0.2505	-0.0224	0.2281	1228.4827	0.134433	-455.13916	-455.129736	-455.128792	-455.174599	32.45	
C	-0.6838584899	 1.8259183055	-1.0248552036	-0.31777
N	-0.9292672972	 0.4336495742	-0.6956232566	-0.29091
C	-0.0543963522	-0.4746342443	-0.8177406519	 0.34073
N	-0.4624628223	-1.7552461296	-0.3787046899	-0.32146
C	 0.2315637318	-2.9347446387	-0.3387386431	 0.158495
O	 1.3787693014	-3.1088013265	-0.6840640795	-0.311572
C	 1.346427848	-0.4024420085	-1.3613270853	-0.007055
C	 1.6090423973	-0.6612635872	-2.7832203661	-0.152777
O	 1.6473085037	 0.6649503105	-2.2541338896	-0.228931
H	 0.3627006472	 2.1344800171	-0.9719864202	 0.139331
H	-1.0455176772	 2.0390791705	-2.0380054651	 0.130908
H	-1.2743408303	 2.441020522	-0.338259348	 0.120108
H	-1.4104157675	-1.7526825365	-0.0250993991	 0.258255
H	-0.4034435714	-3.7460828686	 0.0665870382	 0.092621
H	 2.1330058231	-0.658019004	-0.6549620075	 0.134399
H	 2.5677626223	-1.0855754167	-3.0716478704	 0.132232
H	 0.7769083033	-0.8697988194	-3.4530994221	 0.123398
48.9758	69.4449	78.102	178.3336	204.5791	245.619	257.1357	320.4728	345.055	393.1816	565.9944	653.4684	704.2979	752.4267	827.3772	898.1175	929.329	1013.8779	1029.9516	1033.8267	1082.1951	1112.096	1143.558	1154.2929	1160.4681	1172.5178	1269.5027	1290.8152	1420.126	1442.0931	1449.9422	1477.684	1496.006	1509.9503	1527.0118	1751.1072	1807.4041	2949.4476	3026.9488	3081.3128	3097.1435	3115.7094	3140.9312	3191.263	3589.971
CN=C(NC=O)C1CO1	CN=C(NC=O)[C@H]1CO1	
InChI=1S/C5H8N2O2/c1-6-5(7-3-8)4-2-9-4/h3-4H,2H2,1H3,(H,6,7,8)	InChI=1S/C5H8N2O2/c1-6-5(7-3-8)4-2-9-4/h3-4H,2H2,1H3,(H,6,7,8)/t4-/m1/s1
