17
gdb 84602	2.62173	1.5908	1.22141	1.8108	79.62	-0.2462	-0.0079	0.2384	1057.984	0.134565	-384.645037	-384.636876	-384.635931	-384.677426	31.781	
C	-0.1023681138	 1.5329471048	 0.0983933727	-0.399312
C	 0.0157320121	 0.0076776891	-0.0254861901	-0.120673
C	 0.8520969481	-0.4597321866	-1.2022639232	-0.08677
C	 1.8516192645	-1.2684524086	-0.8439071663	-0.092475
C	 1.87884361	-1.4239658613	 0.6400416744	-0.076137
O	 2.0892554618	-0.1809464763	 1.3422513014	-0.29507
C	 0.7359639868	-0.6409118597	 1.1712191867	 0.227888
C	 0.0025582394	-0.9609869943	 2.3605827986	 0.223688
C	-0.6538700112	-1.2033706017	 3.3383919738	-0.370286
H	 0.8867863137	 1.9762708952	 0.2370490311	 0.139148
H	-0.5550215148	 1.9630864789	-0.8001343958	 0.114063
H	-0.7273317965	 1.8020893823	 0.955196048	 0.127401
H	-0.9933939122	-0.4208775506	-0.0938102498	 0.094347
H	 0.6468514005	-0.123413683	-2.2129810401	 0.105466
H	 2.572947415	-1.7323811045	-1.5047008901	 0.108016
H	 2.2756377361	-2.3041790849	 1.1363364968	 0.108764
H	-1.2197378796	-1.4256802487	 4.2091667118	 0.19194
109.1376	149.1701	191.2196	233.947	257.2887	386.1904	410.3513	506.3949	529.8272	572.5106	607.2987	619.1991	668.7043	700.6219	757.693	798.0899	868.4419	888.5864	915.2532	960.7106	978.4729	1027.6274	1060.0317	1096.168	1115.7333	1144.5599	1171.6494	1262.4977	1303.1335	1320.8456	1364.9889	1402.8513	1409.6626	1493.9079	1505.0668	1662.286	2239.7099	3018.3176	3042.1362	3110.1748	3129.0679	3167.8636	3187.9552	3220.07	3501.7188
CC1C=CC2OC12C#C	C[C@H]1C=C[C@H]2O[C@@]12C#C	
InChI=1S/C8H8O/c1-3-8-6(2)4-5-7(8)9-8/h1,4-7H,2H3	InChI=1S/C8H8O/c1-3-8-6(2)4-5-7(8)9-8/h1,4-7H,2H3/t6-,7+,8-/m0/s1
