17
gdb 91487	2.59461	1.70148	1.29528	4.1122	68.27	-0.2513	-0.0329	0.2184	995.9838	0.135674	-458.942537	-458.934803	-458.933859	-458.974946	29.777	
O	 0.0619236749	 1.3354659958	-0.0975888416	-0.437523
C	 0.0403089321	-0.0674956706	-0.0364301462	 0.121795
C	 0.4991791056	-0.6652746406	 1.336931306	-0.264778
C	-0.8517840962	-1.2751000033	 1.7465195426	 0.077546
C	-1.2781085416	-2.0695473239	 0.4921659237	-0.29172
C	-1.4263136167	-0.6069456232	 0.0058912162	 0.278927
O	-1.7999342266	-0.2186831281	 1.3602340942	-0.325322
C	-2.3418495037	-0.1873577951	-1.0974494303	 0.058124
O	-3.2943321439	 0.5339687185	-0.9634728403	-0.239101
H	-0.5554793151	 1.643558833	 0.5801179248	 0.290989
H	 0.6153701664	-0.4309002946	-0.8911648757	 0.094815
H	 1.2990528015	-1.4051603535	 1.2525513104	 0.108022
H	 0.822748462	 0.1328776998	 2.008118467	 0.118454
H	-0.9977894392	-1.6424323882	 2.761126166	 0.094151
H	-0.5509889592	-2.722013097	 0.0032640523	 0.107178
H	-2.2461440241	-2.5570011641	 0.6114679555	 0.129628
H	-2.0534725064	-0.607740395	-2.0889794746	 0.078815
76.354	141.2776	206.403	226.9345	363.5637	421.3813	436.1325	486.2522	513.1677	606.2082	700.4033	742.4747	816.2946	838.1923	863.6717	881.1343	933.4827	973.3512	982.7182	1002.8582	1045.9572	1069.1197	1114.0385	1143.2231	1159.4569	1174.8466	1222.8696	1272.9508	1282.6527	1286.1908	1301.576	1333.195	1422.8614	1437.4951	1477.0744	1494.545	1834.4873	2863.181	3069.5743	3073.8552	3092.602	3126.9133	3136.3429	3149.4907	3757.3981
OC1CC2CC1(O2)C=O	O[C@H]1C[C@@H]2C[C@]1(O2)C=O	
InChI=1S/C6H8O3/c7-3-6-2-4(9-6)1-5(6)8/h3-5,8H,1-2H2	InChI=1S/C6H8O3/c7-3-6-2-4(9-6)1-5(6)8/h3-5,8H,1-2H2/t4-,5+,6+/m1/s1
