14
gdb 127654	3.70329	1.30429	0.9705	2.0776	66.48	-0.2452	-0.0525	0.1927	1130.8486	0.101562	-470.06582	-470.057746	-470.056802	-470.098976	28.002	
C	 0.1214010937	 1.4226897671	-0.0578301198	-0.332324
N	 0.102431394	-0.0203520573	-0.003642136	-0.091814
N	 0.1613326018	-0.7826210545	-1.1525780151	-0.238696
C	 0.1246714486	-2.0088377449	-0.7530213568	 0.062793
N	 0.0430651113	-2.0996337494	 0.6263254587	-0.184624
C	-0.0152133774	-3.2571622058	 1.4038126206	 0.181494
O	 0.0001630107	-4.3632929485	 0.9336895451	-0.288607
C	 0.0271928708	-0.7737809371	 1.1431077552	 0.5125
O	-0.0369092581	-0.4309757504	 2.3018962727	-0.419197
H	 1.0452079004	 1.7776887282	-0.5226433311	 0.14993
H	-0.7342103805	 1.7972235484	-0.6263033839	 0.149924
H	 0.0653907691	 1.7816249329	 0.9709003581	 0.172223
H	 0.1525024825	-2.8773042877	-1.3897449296	 0.185524
H	-0.0753290669	-3.0130189511	 2.4754392319	 0.140875
90.1111	106.6719	182.3564	191.7239	226.1923	291.317	298.9778	408.423	563.1249	645.0439	719.4619	747.9535	785.7872	855.1181	864.3954	996.4726	1052.5632	1059.3988	1159.6413	1209.2554	1233.1806	1285.7209	1386.6556	1414.985	1424.2143	1449.7114	1482.1692	1514.6933	1617.4081	1821.7268	1843.1586	3038.6334	3049.5441	3116.0123	3156.8806	3292.0317
CN1N=CN(C=O)C1=O	Cn1ncn(C=O)c1=O	
InChI=1S/C4H5N3O2/c1-6-4(9)7(3-8)2-5-6/h2-3H,1H3	InChI=1S/C4H5N3O2/c1-6-4(9)7(3-8)2-5-6/h2-3H,1H3
