18
gdb 31283	2.43449	1.23284	0.86649	2.9651	76.88	-0.1946	0.0396	0.2342	1318.2296	0.147955	-439.10466	-439.095373	-439.094429	-439.139648	33.571	
O	-0.1045026934	 1.2885769442	 0.6970614382	-0.425888
C	-0.0022760044	 0.0624178984	-0.0279254496	-0.205
C	-1.3528785167	-0.5717950887	-0.0494156819	 0.221723
C	-1.765290599	-1.8895761574	-0.0956416181	 0.207826
C	-0.9012675819	-3.1082080679	-0.1101127727	-0.210524
O	-1.4027984621	-4.0410030992	 0.8453080275	-0.414285
C	-3.1913513198	-1.8782045324	-0.1578130416	-0.227423
C	-3.5972234349	-0.5666039945	-0.1438797104	-0.089015
N	-2.473217812	 0.2176835912	-0.0996562823	-0.279387
H	 0.7079647989	 1.7840465641	 0.5582466586	 0.290596
H	 0.3576823148	 0.2633463482	-1.0514436084	 0.098669
H	 0.7198650936	-0.6250154327	 0.4370226626	 0.107152
H	-0.8976612529	-3.5641296011	-1.1146255635	 0.089022
H	 0.1429441334	-2.8334614583	 0.1134698914	 0.078438
H	-0.9429681842	-4.874972257	 0.7076103438	 0.281862
H	-3.8299269456	-2.7470252084	-0.1859324185	 0.098242
H	-4.5819269259	-0.1273964451	-0.1466546333	 0.113475
H	-2.4378038779	 1.2150508766	 0.0233323382	 0.264518
39.7081	72.4117	162.4178	174.0247	231.6201	266.8957	291.1132	299.6819	399.859	517.777	533.9192	614.592	645.2344	702.439	730.3494	760.5752	830.9011	922.3871	1000.1908	1013.9185	1037.7195	1052.2095	1082.8972	1105.9412	1173.2461	1210.7997	1231.9484	1239.9794	1254.7913	1284.6211	1329.2427	1425.1797	1456.3968	1457.6679	1490.6267	1511.8954	1517.0407	1520.095	1632.7325	2946.794	2950.1416	2969.9921	2999.6335	3251.9095	3271.6661	3680.5981	3818.2714	3830.5742
OCC1=C(CO)C=CN1	OCc1c(CO)cc[nH]1	
InChI=1S/C6H9NO2/c8-3-5-1-2-7-6(5)4-9/h1-2,7-9H,3-4H2	InChI=1S/C6H9NO2/c8-3-5-1-2-7-6(5)4-9/h1-2,7-9H,3-4H2
