12
gdb 5429	3.67744	1.88895	1.24903	6.1718	61.03	-0.2277	-0.0342	0.1935	875.5928	0.084435	-414.697346	-414.690484	-414.68954	-414.728446	24.874	
N	 0.0935686091	 1.3552812679	 0.182426747	-0.59098
C	-0.0417874738	 0.0048328086	 0.0607541472	 0.339687
C	-1.1102461933	-0.8694277269	 0.0165077748	 0.097442
C	-2.5182152777	-0.5308155331	 0.0084027372	 0.074802
O	-3.4456364523	-1.3070473326	-0.0322186157	-0.277518
N	-0.5941017806	-2.1725744006	-0.0324345428	-0.273672
C	 0.6744036988	-2.0285115526	-0.0196382696	 0.062377
O	 1.101429916	-0.7125757419	 0.0380471617	-0.177637
H	 0.9637559379	 1.7405127222	-0.1536800494	 0.275547
H	-0.7191626464	 1.903978318	-0.0505756334	 0.277879
H	-2.7022127443	 0.5726658918	 0.0425218195	 0.032404
H	 1.4548821467	-2.7712723007	-0.0484050865	 0.159669
144.405	182.5465	213.364	302.398	342.847	363.8726	509.2318	546.9126	660.0383	679.6048	736.0757	806.8707	827.3813	935.9408	1016.357	1016.8985	1062.5273	1167.6003	1281.6575	1323.1906	1430.0893	1480.8535	1593.1019	1610.0132	1670.1615	1796.3584	2800.3366	3286.7838	3582.6739	3692.8039
NC1=C(C=O)N=CO1	Nc1c(C=O)nco1	
InChI=1S/C4H4N2O2/c5-4-3(1-7)6-2-8-4/h1-2H,5H2	InChI=1S/C4H4N2O2/c5-4-3(1-7)6-2-8-4/h1-2H,5H2
