15
gdb 8250	6.46377	1.03041	0.92867	2.9306	65.88	-0.2566	-0.0347	0.2219	1167.7189	0.117818	-362.687434	-362.679662	-362.678718	-362.720683	27.672	
O	 0.1041078937	 0.0624974927	 0.3388456022	-0.278173
C	 0.0254455307	 1.2153815524	 0.0363891759	 0.409509
C	-1.151149941	 2.1973822825	-0.1164507	-0.376542
C	-0.1568521919	 3.2021263803	-0.7791989264	 0.022929
C	-0.146847819	 4.6196896586	-0.1943871653	-0.361444
C	 0.9196573309	 5.4478238649	-0.7561439672	 0.263129
N	 1.7705225258	 6.0826603058	-1.2123679103	-0.300475
C	 1.04503088	 2.2732959587	-0.4175209192	-0.355658
H	-1.9935314152	 1.8456486577	-0.7169385362	 0.139849
H	-1.5346566394	 2.5291027049	 0.85545897	 0.133674
H	-0.3037041845	 3.2570641431	-1.8599071545	 0.107891
H	-1.1073836342	 5.1144970265	-0.3794228116	 0.158143
H	-0.0178186933	 4.5787181139	 0.8943350995	 0.15087
H	 1.6549662565	 2.64131911	 0.4155474742	 0.140273
H	 1.7170145409	 1.9757032581	-1.225631231	 0.146026
41.1398	72.0289	139.865	293.327	347.7242	397.0664	413.6635	474.4919	514.0292	648.0479	677.9815	770.1864	868.7818	906.0504	939.1434	952.268	1015.9881	1053.2189	1100.8306	1114.8458	1171.1682	1197.5142	1240.5073	1249.5741	1274.5723	1324.897	1378.4523	1426.1535	1445.5042	1467.092	1901.5818	2363.094	3034.6912	3048.5584	3054.5787	3071.0106	3090.4751	3115.7255	3120.139
O=C1CC(CC#N)C1	O=C1CC(CC#N)C1	
InChI=1S/C6H7NO/c7-2-1-5-3-6(8)4-5/h5H,1,3-4H2	InChI=1S/C6H7NO/c7-2-1-5-3-6(8)4-5/h5H,1,3-4H2
