21
gdb 38768	3.01356	1.54921	1.15713	0.3704	87.98	-0.2313	0.021	0.2523	1110.2454	0.185828	-349.940561	-349.933197	-349.932253	-349.971897	31.017	
C	 0.0001578854	 1.5452034593	-0.0322266376	-0.310257
C	 1.3014694141	 0.78099563	-0.0027691273	 0.004524
C	 2.1572914904	 0.7811976207	 1.2511473968	-0.259668
C	 2.6966172176	-0.6022855357	 1.567121204	 0.004524
C	 2.6830910266	-1.1149085556	 2.9867434051	-0.310256
C	 1.7241166004	-1.6884575223	 1.9589907816	-0.050113
C	 0.2574645845	-1.4444233441	 2.0490409735	-0.076402
C	-0.484056023	-0.7092107093	 1.2146437535	-0.076405
C	-0.0067289692	 0.0276657218	 0.011355232	-0.050114
H	-0.2834932229	 2.0742418252	 0.8725491122	 0.109933
H	-0.3057299997	 2.0352244347	-0.9503714355	 0.106373
H	 1.8578462352	 0.7388628776	-0.9358926221	 0.077065
H	 2.9828465954	 1.4964246481	 1.1476930747	 0.094437
H	 1.5559757506	 1.1328619018	 2.0953944511	 0.099618
H	 3.5311169925	-0.9201773784	 0.9469562075	 0.077065
H	 3.5004684515	-1.738596615	 3.3325540519	 0.106373
H	 2.2702346581	-0.457762904	 3.7461299479	 0.109933
H	 1.9783665706	-2.6945325828	 1.6280537144	 0.089367
H	-0.2496105695	-1.9466128333	 2.8732432651	 0.082318
H	-1.5563555583	-0.6509836137	 1.4028266445	 0.082319
H	-0.2937613402	-0.4417289049	-0.9286611536	 0.089367
144.8063	212.0836	282.5944	325.4347	339.9956	400.5217	408.3852	545.1902	590.3858	724.4732	756.4673	779.2505	805.3983	821.8752	823.1521	852.1431	878.1978	910.0029	995.5837	1002.4043	1007.9232	1023.2139	1038.1917	1054.4316	1063.9419	1087.5662	1113.5398	1125.9058	1133.0957	1135.3562	1191.4117	1214.6739	1224.5045	1257.5221	1278.4652	1315.3073	1373.9081	1380.5495	1414.5463	1425.0177	1437.4356	1483.2196	1489.2704	1496.1997	1712.1151	3029.6636	3073.1978	3104.5742	3105.3816	3109.3238	3123.9461	3124.2883	3132.1545	3132.6268	3137.5357	3210.3899	3210.4586
C1C2CC3CC3C=CC12	C1[C@H]2C[C@H]3C[C@H]3C=C[C@@H]12	
InChI=1S/C9H12/c1-2-7-4-9(7)5-8-3-6(1)8/h1-2,6-9H,3-5H2	InChI=1S/C9H12/c1-2-7-4-9(7)5-8-3-6(1)8/h1-2,6-9H,3-5H2/t6-,7+,8-,9+
