14
gdb 56481	2.87381	1.09639	0.82326	4.7171	66.43	-0.2672	-0.0503	0.2169	1302.5735	0.097939	-473.824272	-473.815069	-473.814125	-473.85915	32.133	
O	 0.1038419571	 1.5185104259	-0.1932405549	-0.41203
C	 0.0516085055	 0.1276666413	-0.0659776126	-0.123389
C	 0.6575987852	-0.5618577849	-1.2072654811	 0.298188
C	 1.1408872721	-1.1654977459	-2.1275940324	-0.449462
C	 0.7234839569	-0.2784281293	 1.2783453673	 0.420466
O	 0.975260124	 0.5736553877	 2.093809262	-0.323282
N	 0.9368216897	-1.6355492513	 1.432647018	-0.353312
C	 1.4149565586	-2.2993471459	 2.5669438708	 0.16839
O	 1.6618946348	-1.7979806451	 3.625542943	-0.240819
H	 0.431920152	 1.8347653731	 0.6667602099	 0.304454
H	-0.9979206919	-0.2117649374	 0.0173893682	 0.129951
H	 1.5706065401	-1.6759551067	-2.9547683795	 0.214214
H	 0.7925682338	-2.198835208	 0.6043100195	 0.267708
H	 1.5300502021	-3.3802045633	 2.3531383217	 0.098922
57.122	66.9287	123.7098	180.9814	211.5539	247.4928	308.4626	377.4549	440.2296	466.1173	549.1887	584.3431	632.0645	644.0061	667.3982	693.3299	858.2552	933.5182	981.6695	1028.9486	1078.5653	1149.0623	1203.2506	1241.9929	1346.1097	1432.0475	1444.9487	1524.2436	1805.1532	1874.2755	2232.7756	2930.7756	2943.6933	3497.6981	3581.291	3651.6942
OC(C#C)C(=O)NC=O	O[C@@H](C#C)C(=O)NC=O	
InChI=1S/C5H5NO3/c1-2-4(8)5(9)6-3-7/h1,3-4,8H,(H,6,7,9)	InChI=1S/C5H5NO3/c1-2-4(8)5(9)6-3-7/h1,3-4,8H,(H,6,7,9)/t4-/m0/s1
