19
gdb 81267	2.60223	1.48047	1.29242	2.4273	75.33	-0.2345	-0.015	0.2195	1073.4954	0.160078	-423.030398	-423.022314	-423.02137	-423.062715	31.782	
C	-0.1673900481	 1.5016621011	 0.0658593038	-0.439045
C	 0.0127303135	-0.0089052594	 0.0080899414	 0.040859
C	 0.7608239954	-0.6129528841	-1.2230998647	-0.05592
C	 2.0929998439	-0.2915131594	-0.487209895	-0.261089
C	 1.2560780445	-0.605218583	 0.7959766647	-0.146763
C	 0.9523066295	-2.067805908	 0.5720272653	 0.394493
O	 0.8216319291	-2.9810792137	 1.3459025233	-0.353913
C	 0.6552290396	-2.1219098298	-0.9524200918	 0.050457
O	-0.6231620767	-2.6620510728	-1.2030109029	-0.448874
H	 0.755017553	 2.0558814736	-0.1271072481	 0.119857
H	-0.9062781834	 1.8185651753	-0.6782140521	 0.125881
H	-0.5383246303	 1.8068697935	 1.0497317704	 0.124284
H	-0.9421232584	-0.4955740836	 0.2267914467	 0.092194
H	 0.564823446	-0.2762002803	-2.2408233569	 0.075585
H	 2.9628272175	-0.9220939067	-0.6945666459	 0.104842
H	 2.3808858226	 0.7564879566	-0.5532275665	 0.117318
H	 1.5318194145	-0.2868397991	 1.7995236301	 0.08239
H	 1.4363552579	-2.683069096	-1.4895018817	 0.083974
H	-0.7364756099	-3.3981392242	-0.5879810303	 0.293473
109.5655	189.9238	205.2876	236.7331	263.0089	352.9913	376.3479	460.8386	474.4647	540.1139	613.7231	705.5172	762.549	786.6614	838.6549	882.258	903.1739	928.1121	961.7057	1003.8594	1054.18	1061.0477	1083.6016	1090.6859	1107.2928	1142.54	1174.1439	1198.3896	1217.4802	1248.3492	1256.1249	1270.463	1301.4665	1350.0218	1399.5635	1403.5646	1415.0226	1493.8061	1497.0364	1517.1676	1859.9081	2977.2102	3036.4838	3062.854	3064.6454	3097.5353	3114.3251	3118.6718	3139.8533	3146.542	3770.7724
CC1C2CC1C(=O)C2O	C[C@H]1[C@H]2C[C@@H]1C(=O)[C@H]2O	
InChI=1S/C7H10O2/c1-3-4-2-5(3)7(9)6(4)8/h3-6,8H,2H2,1H3	InChI=1S/C7H10O2/c1-3-4-2-5(3)7(9)6(4)8/h3-6,8H,2H2,1H3/t3-,4+,5-,6-/m0/s1
