18
gdb 101314	2.91755	1.04752	0.93123	5.0316	70.19	-0.2432	0.0183	0.2615	1295.0173	0.145906	-476.200516	-476.191027	-476.190083	-476.23525	33.988	
O	-0.1164286958	 1.2478552189	-0.4322344471	-0.429609
C	-0.0221596733	-0.1297133585	-0.0864284244	-0.106074
C	-1.4641556035	-0.6338703545	 0.0086842977	 0.112537
O	-2.151967275	-0.3674204926	-1.1929797928	-0.430966
C	-1.5357213851	-2.1172118235	 0.3115922928	-0.033755
C	-2.7466517888	-2.9198166192	-0.0758994477	-0.249328
N	-1.4771157944	-3.1212050912	-0.7331482124	-0.066315
C	-1.2581679237	-2.9533009447	-2.0907045765	 0.160764
O	-1.9995126816	-3.341198395	-2.9577731807	-0.29626
H	 0.7417876511	 1.5522202735	-0.7396412544	 0.299816
H	 0.5181807306	-0.6959412916	-0.8580801896	 0.104155
H	 0.4943759244	-0.2706941295	 0.8744139593	 0.099145
H	-1.9423514485	-0.1043746089	 0.851802593	 0.08909
H	-1.8581451517	 0.5078777048	-1.4768086774	 0.29839
H	-1.014083834	-2.3929871071	 1.2277996147	 0.100115
H	-3.0891739588	-3.7232116496	 0.5703735538	 0.123194
H	-3.5119858928	-2.4119908909	-0.6547296847	 0.155629
H	-0.2637402993	-2.5126051506	-2.2952469538	 0.06947
67.9911	89.0608	138.309	170.4207	201.8386	260.9799	282.9942	296.5392	363.8951	419.5756	463.3522	520.3056	577.8384	714.5272	799.0421	862.5628	927.2814	967.8835	1018.4522	1031.6096	1062.7708	1079.9322	1100.7951	1112.0583	1142.3367	1160.545	1181.1994	1228.6159	1253.819	1274.3488	1349.3917	1385.8511	1405.5026	1418.8776	1443.7409	1461.8933	1507.92	1509.1551	1807.1405	2944.8012	2950.8415	2990.1015	3035.1279	3111.8045	3118.3494	3214.7115	3774.7392	3844.3781
OCC(O)C1CN1C=O	OC[C@@H](O)[C@H]1CN1C=O	
InChI=1S/C5H9NO3/c7-2-5(9)4-1-6(4)3-8/h3-5,7,9H,1-2H2	InChI=1S/C5H9NO3/c7-2-5(9)4-1-6(4)3-8/h3-5,7,9H,1-2H2/t4-,5-,6?/m1/s1
