22
gdb 81040	2.33613	1.82001	1.30835	0.2146	81.44	-0.207	0.0793	0.2863	1079.2804	0.195023	-404.320149	-404.311609	-404.310665	-404.352492	34.254	
C	-0.1164066905	 1.5054673901	-0.1220683028	-0.420394
C	 0.0371867833	 0.000435767	 0.024435375	 0.026345
N	 1.1531354024	-0.5541358076	-0.8461287969	-0.130654
C	 2.0560199259	-0.4465966489	 0.3606990899	-0.251872
C	 0.8005249417	-0.5686811137	 1.2554149694	 0.418088
C	 0.7181452239	 0.0547218681	 2.6286246394	-0.473858
O	 0.421458563	-1.9447484356	 1.3862531509	-0.309041
C	 0.7998705755	-2.7682797065	 0.2837622444	-0.085873
C	 0.8633884634	-1.984687126	-1.0564803603	-0.185734
H	 0.8209309255	 2.0402424338	 0.0576308536	 0.117505
H	-0.4441439269	 1.7474680807	-1.1376566371	 0.124588
H	-0.8647863993	 1.8877261707	 0.5801672364	 0.115387
H	-0.9249444337	-0.4941291017	-0.1477425052	 0.068255
H	 2.8373454549	-1.2057955569	 0.4443534937	 0.104815
H	 2.5194291203	 0.5415325439	 0.3998739766	 0.106153
H	 0.9360932287	 1.1255054371	 2.5856212175	 0.114966
H	-0.2839407367	-0.0816514995	 3.0474102932	 0.12621
H	 1.433565992	-0.4199346897	 3.3072755634	 0.122886
H	 1.7781649832	-3.2243521779	 0.4921889686	 0.096008
H	 0.071635448	-3.5837443104	 0.2344547694	 0.107077
H	-0.0834893514	-2.0520339295	-1.602135282	 0.107984
H	 1.6394126169	-2.4233936676	-1.6948995973	 0.101159
166.8363	197.0303	209.572	214.1657	244.5549	288.7452	332.8034	409.4712	458.5876	484.4737	492.0011	610.2572	690.9595	798.1802	811.6543	825.534	852.5113	868.6166	910.2477	927.6005	980.7671	1031.6919	1040.5264	1065.0947	1085.9632	1114.7921	1157.1144	1184.2359	1198.0086	1203.1288	1237.0195	1260.0229	1271.2566	1286.9272	1335.3813	1358.6091	1377.1183	1397.9879	1407.8531	1411.5548	1478.9546	1487.7093	1492.2599	1494.8117	1496.586	1504.3433	1528.9299	2991.8169	3030.1122	3036.028	3039.6291	3045.0539	3065.7069	3067.9196	3083.2863	3105.4357	3109.34	3109.9256	3117.365	3120.9341
CC1N2CC1(C)OCC2	C[C@H]1N2C[C@]1(C)OCC2	
InChI=1S/C7H13NO/c1-6-7(2)5-8(6)3-4-9-7/h6H,3-5H2,1-2H3	InChI=1S/C7H13NO/c1-6-7(2)5-8(6)3-4-9-7/h6H,3-5H2,1-2H3/t6-,7+/m1/s1
