13
gdb 23886	2.66969	1.78761	1.365	1.186	43.07	-0.274	0.0573	0.3313	880.3893	0.090655	-567.234782	-567.226629	-567.225685	-567.267724	28.989	
O	 0.3282469507	 0.749973995	 0.8126356905	-0.415165
C	-0.1343875048	 0.3144193601	-0.446165639	-0.098904
C	-1.4915076019	-0.4119767071	-0.3900268087	-0.035884
O	-2.0907088472	-0.509449162	-1.6631106747	-0.416718
C	-1.3730362333	-1.8148854821	 0.2100474522	 0.263988
F	-0.7066146998	-1.8065640791	 1.3851003563	-0.08871
F	-2.5600015953	-2.3761409001	 0.4267842571	-0.057221
F	-0.6868494168	-2.619179111	-0.6270289058	-0.094105
H	 0.4872972214	-0.0279447605	 1.3562243029	 0.291819
H	-0.2836480728	 1.2081784828	-1.0574922719	 0.130832
H	 0.6000685971	-0.3245972206	-0.9634315008	 0.095191
H	-2.1734228123	 0.1623284436	 0.2437521195	 0.130364
H	-1.5424117249	-1.0888978288	-2.2057079176	 0.294512
57.9158	150.491	212.4673	245.1776	253.1743	329.0837	374.1119	393.5339	442.0821	495.1984	532.7284	587.5144	666.5385	793.3027	979.4499	1049.1595	1087.8985	1115.4698	1161.6728	1164.2389	1243.9555	1262.7025	1275.2936	1362.775	1398.287	1419.679	1439.1533	1503.5641	2977.1074	3089.5189	3102.14	3795.9297	3831.699
OCC(O)C(F)(F)F	OC[C@@H](O)C(F)(F)F	
InChI=1S/C3H5F3O2/c4-3(5,6)2(8)1-7/h2,7-8H,1H2	InChI=1S/C3H5F3O2/c4-3(5,6)2(8)1-7/h2,7-8H,1H2/t2-/m1/s1
