17
gdb 91395	3.0675	1.40414	1.40352	1.6783	68.69	-0.243	-0.0367	0.2063	1012.8568	0.135669	-458.952717	-458.945135	-458.944191	-458.984575	29.586	
C	-0.5899386854	 1.3386744399	 0.0377510255	-0.411594
C	 0.2658829256	 0.0965269255	-0.0120500879	 0.228118
O	 0.99658175	 0.0849981368	-1.2301395695	-0.28635
C	 2.0463346129	-0.8745737124	-1.1906832355	 0.009121
C	 3.1224485744	-0.3825966994	-0.1718199468	-0.261906
C	 2.165899489	-0.8783578882	 0.9583922623	 0.009121
O	 1.1271892056	 0.080864571	 1.1174194776	-0.28635
C	 1.7567870713	-1.9517905965	-0.0986037302	 0.347439
O	 1.6371022479	-3.1389133733	-0.0940352582	-0.300954
H	 0.0463617032	 2.2259933593	 0.0039111714	 0.136675
H	-1.2712257143	 1.3531294597	-0.8158069277	 0.134378
H	-1.1723333867	 1.3500011487	 0.9616613367	 0.134378
H	-0.3484109368	-0.8215589827	 0.0205097365	 0.090244
H	 2.3106230796	-1.1608241047	-2.2078505262	 0.103948
H	 4.0529399236	-0.9530860816	-0.2245928779	 0.122683
H	 3.3044181256	 0.6920863099	-0.1800515031	 0.127099
H	 2.5413321944	-1.168125532	 1.9389543228	 0.103948
124.3818	179.2399	201.1914	273.8222	320.9444	434.533	443.7664	473.5153	480.391	576.4725	628.963	812.4876	822.2356	827.8782	865.2417	876.395	957.5446	984.4569	1008.8249	1027.0534	1093.2882	1098.5745	1121.0292	1146.2245	1152.9628	1179.9996	1225.2544	1236.8046	1326.9985	1342.8318	1386.7522	1394.8653	1436.4861	1454.3679	1483.1419	1486.5074	1890.6878	2938.8777	3060.4177	3074.3371	3129.9569	3132.3695	3143.3669	3143.5638	3152.9894
CC1OC2CC(O1)C2=O	C[C@H]1O[C@H]2C[C@@H](O1)C2=O	
InChI=1S/C6H8O3/c1-3-8-4-2-5(9-3)6(4)7/h3-5H,2H2,1H3	InChI=1S/C6H8O3/c1-3-8-4-2-5(9-3)6(4)7/h3-5H,2H2,1H3/t3-,4-,5+
