15
gdb 11645	3.2599	1.88205	1.48591	3.6301	67.4	-0.2481	0.0067	0.2548	862.7458	0.120992	-358.775623	-358.76868	-358.767735	-358.80663	26.799	
N	 0.2798958367	 1.4805380502	-0.0575540184	-0.533073
C	 0.0450197985	 0.0741220937	 0.0115220794	 0.031454
C	-0.1148975906	-0.6538595103	 1.375910837	-0.053
C	-1.5671396447	-0.1174041293	 1.4937987133	-0.246223
C	-1.3862153297	-0.6491118029	 0.0464088376	 0.203505
N	-0.7211223716	-1.8585248566	 0.6705474621	-0.328164
C	-2.3620912246	-0.7418656382	-1.0080506307	 0.144836
N	-3.1168144149	-0.7704473941	-1.8844150655	-0.346603
H	 0.2290005544	 1.8208049747	-1.0112285519	 0.245972
H	-0.3610524372	 2.0257380876	 0.5065497764	 0.238581
H	 0.7278707866	-0.4372092824	-0.6755571546	 0.090091
H	 0.62194633	-0.7706440139	 2.1691905902	 0.1003
H	-2.2355052752	-0.7130591015	 2.1143181598	 0.130887
H	-1.7196878941	 0.9538408324	 1.6244563085	 0.103789
H	-0.0389014735	-2.2480710194	 0.0101451368	 0.217649
126.4623	172.9485	254.0443	326.657	339.9473	511.5203	527.3137	553.3194	587.5712	622.8856	756.5523	790.6132	829.7	868.466	928.1632	947.4318	959.2318	1031.3473	1081.7608	1105.7676	1164.0958	1189.7038	1201.1772	1221.1337	1241.8493	1265.7221	1287.8237	1299.3899	1447.071	1506.3644	1660.1427	2344.7225	3059.3304	3094.5813	3134.6328	3168.9691	3374.5635	3521.3441	3605.202
NC1C2CC1(N2)C#N	N[C@H]1[C@H]2C[C@@]1(N2)C#N	
InChI=1S/C5H7N3/c6-2-5-1-3(8-5)4(5)7/h3-4,8H,1,7H2	InChI=1S/C5H7N3/c6-2-5-1-3(8-5)4(5)7/h3-4,8H,1,7H2/t3-,4+,5-/m1/s1
