19
gdb 39370	2.32193	2.15758	1.5954	1.4226	79.78	-0.2397	0.0057	0.2454	924.0447	0.162803	-385.892812	-385.885981	-385.885036	-385.923558	28.684	
C	 0.0034094259	 1.5046924051	 0.08383973	-0.228387
C	 1.4918845869	 1.8887693959	-0.0282242401	 0.091876
O	 2.1325098102	 1.9111540996	 1.2528212425	-0.271575
C	 2.4639345206	 0.6686591064	 1.8558531983	-0.118833
C	 1.3630059545	-0.3361634389	 2.1284734093	-0.057209
C	 0.3384836937	-0.6754923319	 1.3419499297	-0.074541
C	 0.0352643917	-0.0384487706	-0.0037055938	-0.099664
C	 1.2199597343	-0.251664218	-0.9415914179	-0.055419
C	 2.0266169368	 0.8100637448	-0.9521259827	-0.118491
H	-0.4456859636	 1.8825301058	 1.0038631792	 0.103837
H	-0.5417442849	 1.9113599573	-0.7747576709	 0.095478
H	 1.6356212378	 2.9033371211	-0.4102857414	 0.078493
H	 3.2451112469	 0.1583015002	 1.2664268645	 0.10436
H	 2.923615211	 0.9525647192	 2.8074329296	 0.109765
H	 1.4854106178	-0.875222093	 3.0662248874	 0.089572
H	-0.3303939526	-1.4654487421	 1.6752027554	 0.086672
H	-0.8946790936	-0.4510817798	-0.4043905353	 0.067485
H	 1.3947922237	-1.1919651535	-1.4525151396	 0.100791
H	 2.9740757129	 0.8874566825	-1.4725803244	 0.09579
192.1047	211.3569	309.0396	328.4705	388.012	466.0157	521.3124	568.8188	682.3181	720.9653	759.3726	786.8928	816.946	844.841	871.3727	889.6893	935.2091	973.3628	983.4275	991.7079	1000.5951	1036.6238	1039.3987	1064.1299	1121.1261	1128.2302	1193.2854	1225.408	1253.3834	1296.4045	1303.7668	1308.0099	1345.7235	1359.0834	1377.1245	1405.0067	1411.6888	1474.9296	1478.2458	1661.4655	1706.5733	2956.9076	3046.4829	3065.8719	3072.432	3075.2732	3122.509	3134.3546	3160.2512	3185.3963	3211.2721
C1C2OCC=CC1C=C2	C1[C@H]2OCC=C[C@@H]1C=C2	
InChI=1S/C8H10O/c1-2-7-3-4-8(6-7)9-5-1/h1-4,7-8H,5-6H2	InChI=1S/C8H10O/c1-2-7-3-4-8(6-7)9-5-1/h1-4,7-8H,5-6H2/t7-,8+/m1/s1
