14
gdb 62350	4.04484	1.14944	1.10563	2.1375	68.16	-0.2646	-0.0275	0.2371	1080.8388	0.101671	-432.858203	-432.85042	-432.849476	-432.890438	29.277	
N	-0.2075694712	 1.4039776712	 0.0770818268	-0.555592
C	-0.0826632845	-0.0246811284	 0.0418694041	 0.127898
C	 1.0229252759	-0.5787109843	-0.7190099935	 0.240028
N	 1.9287364582	-0.9786126677	-1.3181474073	-0.327615
C	-0.4910533399	-0.860742554	 1.2538272534	-0.029748
N	-1.5682742705	-0.2308945833	 2.002152244	-0.337403
C	-2.3950265256	-0.1574175337	 0.8598591511	 0.435192
O	-3.4797135512	 0.3049042655	 0.6806964091	-0.320977
C	-1.3513821785	-0.8950743791	 0.011048816	-0.275708
H	 0.6762385083	 1.841753212	 0.3170529754	 0.250477
H	-0.5026114479	 1.7674623118	-0.8234946734	 0.257349
H	 0.1350087173	-1.631504837	 1.6814464105	 0.138854
H	-1.4215310745	 0.5792066627	 2.5941946092	 0.254093
H	-1.4993436158	-1.6692958657	-0.7274849153	 0.143152
122.4097	132.944	180.4748	270.1537	292.5215	362.3651	447.8514	467.8751	556.9605	592.0386	613.3939	686.3276	739.8783	777.2947	820.1569	867.1548	882.3862	947.323	1015.9684	1037.7786	1083.9551	1110.5693	1131.7193	1228.5548	1266.0576	1286.1883	1331.4865	1356.7934	1659.4338	1918.8973	2339.0368	3219.9589	3236.9679	3504.8485	3555.085	3585.6287
NC1(C#N)C2NC(=O)C12	N[C@@]1(C#N)[C@H]2NC(=O)[C@@H]12	
InChI=1S/C5H5N3O/c6-1-5(7)2-3(5)8-4(2)9/h2-3H,7H2,(H,8,9)	InChI=1S/C5H5N3O/c6-1-5(7)2-3(5)8-4(2)9/h2-3H,7H2,(H,8,9)/t2-,3-,5+/m0/s1
