17
gdb 23162	1.97376	1.35764	0.84706	2.9995	75.05	-0.2341	-0.0354	0.1987	1327.0371	0.132833	-455.073302	-455.063887	-455.062943	-455.108252	33.174	
C	-0.1640093522	 1.5378898696	 0.1148845721	-0.329716
N	-0.0198824336	 0.0966995822	 0.1131690467	-0.092604
C	-1.22799454	-0.7322427968	 0.3571766441	-0.262661
C	-0.3855630757	-1.563520398	 1.295728861	 0.390403
N	-0.4458522072	-2.6766621886	 1.8885131542	-0.220855
O	-1.6705327421	-3.3123085432	 1.6445588684	-0.384999
C	 0.7289588751	-0.5312601763	 1.2304403788	-0.150388
C	 2.1065584616	-1.048045912	 0.8454176761	 0.172688
O	 3.0508900134	-1.0737932284	 1.5879368316	-0.239292
H	 0.8192264202	 2.0079958822	 0.0151987332	 0.132693
H	-0.7708032144	 1.8455583113	-0.7425047695	 0.13045
H	-0.6415508573	 1.927613679	 1.032664945	 0.101594
H	-2.0442695268	-0.2049315987	 0.8773639955	 0.116667
H	-1.6372645816	-1.2303973595	-0.5278823048	 0.135186
H	-1.5786612493	-4.1331198683	 2.1411518623	 0.313884
H	 0.8088708362	 0.0758902459	 2.1448977954	 0.100307
H	 2.1570203437	-1.4115839404	-0.2041859802	 0.086644
55.972	82.3639	148.1481	172.6708	198.1345	232.862	293.3387	342.0453	367.605	441.6621	474.855	499.5153	539.9174	687.6848	793.8275	950.547	964.7796	983.1227	1000.2327	1034.0208	1092.0179	1116.4207	1155.8798	1159.3614	1189.6212	1211.406	1262.983	1283.0952	1320.0691	1401.0992	1410.9816	1453.868	1483.4278	1498.5661	1499.5176	1801.3441	1835.8361	2900.03	2940.1524	2976.2888	2997.9862	3066.0928	3066.815	3108.6167	3812.0463
CN1CC(=NO)C1C=O	CN1CC(=NO)[C@H]1C=O	
InChI=1S/C5H8N2O2/c1-7-2-4(6-9)5(7)3-8/h3,5,9H,2H2,1H3	InChI=1S/C5H8N2O2/c1-7-2-4(6-9)5(7)3-8/h3,5,9H,2H2,1H3/t5-/m1/s1
