20
gdb 116584	3.11075	1.06762	0.81081	1.3806	85.22	-0.2144	0.	0.2144	1441.1262	0.170862	-399.356654	-399.34699	-399.346045	-399.392486	33.96	
C	-0.3960191628	 1.543092672	-0.1979116133	-0.373376
C	 0.5353467173	 0.3739349506	 0.1103058127	-0.111909
N	 1.1492342386	-0.1285429334	-1.1129053555	-0.348601
C	 1.9511208342	-1.1058115524	-1.003790439	 0.385242
C	 2.4549450689	-1.929562736	 0.1802139013	-0.277481
N	 3.3789023879	-2.9275710035	-0.3750340914	-0.269967
C	 3.3927697857	-2.7072325946	-1.6349362757	 0.060294
N	 2.5992954711	-1.6733503777	-2.098481037	-0.094969
C	 2.4342101671	-1.2204337463	-3.4598427379	-0.33223
H	 0.1573347416	 2.35813323	-0.673831141	 0.11903
H	-1.1875221096	 1.2309444686	-0.8857172285	 0.119029
H	-0.8608572942	 1.9258466137	 0.7162775864	 0.103914
H	 1.3069796674	 0.698288613	 0.827818408	 0.093831
H	-0.0321366577	-0.4240956266	 0.6168242839	 0.09383
H	 2.9638029104	-1.2977887191	 0.9194875103	 0.139262
H	 1.6265831841	-2.4185373324	 0.7087288957	 0.139263
H	 3.9822005229	-3.2765692275	-2.3472985775	 0.131339
H	 3.0521493896	-1.8337070182	-4.1190549279	 0.130231
H	 1.3866970339	-1.2992881982	-3.767440731	 0.146633
H	 2.7321624337	-0.171523882	-3.5553860228	 0.146635
30.9461	74.4192	126.8938	127.9475	172.5541	218.4713	280.218	311.9102	343.8292	461.429	524.3314	588.3978	640.9072	729.1628	792.9462	866.9233	932.8162	943.5363	981.0462	996.9185	1046.5023	1090.2501	1101.9605	1134.1702	1148.3278	1157.082	1190.2006	1272.7032	1304.2503	1306.5545	1333.1106	1394.0473	1410.4683	1419.325	1447.8975	1467.2364	1469.2432	1477.2064	1487.4416	1505.1331	1521.1472	1673.5709	1752.8326	2956.8526	2983.1413	3027.3772	3037.8808	3039.0707	3053.3535	3095.7931	3111.5958	3114.8214	3133.9013	3189.7408
CCN=C1CN=CN1C	CCN=C1CN=CN1C	
InChI=1S/C6H11N3/c1-3-8-6-4-7-5-9(6)2/h5H,3-4H2,1-2H3	InChI=1S/C6H11N3/c1-3-8-6-4-7-5-9(6)2/h5H,3-4H2,1-2H3
