21
gdb 120663	4.431	0.75999	0.71316	1.5037	80.45	-0.2427	0.0694	0.3121	1643.067	0.181134	-424.170483	-424.160906	-424.159962	-424.205881	34.159	
C	-0.0236193105	 1.3684916629	 0.2848753463	-0.225917
O	-0.0614680657	-0.0364845391	 0.3460741121	-0.228184
C	-1.2189196052	-0.5788428176	-0.2544222215	-0.073282
C	-1.1446406352	-2.0800697925	-0.1912391637	-0.085989
C	-1.5505588915	-2.8024916136	 1.0748648864	-0.342451
C	-2.4006050999	-2.8989421016	-0.1527254651	 0.278118
C	-3.8529264097	-2.4706872397	-0.3578760303	-0.137736
O	-4.1157883458	-3.6624553613	-1.1296915229	-0.276312
C	-2.7577269436	-4.1315230732	-0.9769707754	-0.136339
H	 0.9010511663	 1.6928538842	 0.7683537498	 0.127673
H	-0.0286367405	 1.7347451631	-0.7545097075	 0.102901
H	-0.877814967	 1.8255413154	 0.8104211636	 0.101831
H	-2.1253760818	-0.219942879	 0.2653569489	 0.080134
H	-1.2973753563	-0.2390577293	-1.3021644102	 0.087314
H	-0.3106258138	-2.5061693772	-0.7438247725	 0.09254
H	-0.9791082259	-3.6745395094	 1.376516463	 0.115168
H	-1.9160181894	-2.199981484	 1.9015005557	 0.116365
H	-4.4703076895	-2.4237807934	 0.5490152883	 0.101681
H	-4.0158701979	-1.558696249	-0.9478901884	 0.100148
H	-2.2458098975	-4.2289878548	-1.9438959447	 0.100536
H	-2.7122994996	-5.0929793408	-0.4480383521	 0.101803
59.9726	84.9896	96.9322	116.1479	193.8009	237.6119	271.413	304.3351	369.497	439.8306	476.4611	598.2981	843.7671	863.0906	878.909	892.4732	919.9023	967.7636	987.3748	1007.9892	1031.279	1053.6733	1077.3535	1107.8785	1132.4464	1148.1399	1152.8843	1163.3346	1175.2005	1191.8165	1218.2192	1234.6672	1277.2286	1308.6578	1316.2391	1369.6313	1412.1917	1450.6482	1481.4023	1485.7253	1502.6728	1505.4889	1509.6987	1525.6727	1535.0521	2937.7711	2964.1175	2966.7793	2993.3656	3004.6937	3007.4868	3037.9819	3039.3801	3113.7997	3121.1938	3138.3931	3206.1125
COCC1CC11COC1	COC[C@H]1CC21COC2	
InChI=1S/C7H12O2/c1-8-3-6-2-7(6)4-9-5-7/h6H,2-5H2,1H3	InChI=1S/C7H12O2/c1-8-3-6-2-7(6)4-9-5-7/h6H,2-5H2,1H3/t6-/m1/s1
