19
gdb 72158	2.72878	1.99082	1.82618	1.9083	72.9	-0.2504	0.0931	0.3436	879.8497	0.162266	-423.030035	-423.023523	-423.022579	-423.060483	28.054	
C	-0.0569307257	 1.4695653774	-0.0672585279	-0.504254
C	-0.0025178241	-0.0274862129	-0.0085281633	 0.484015
O	 0.5992176089	-0.6141416469	-1.1589473531	-0.270424
C	 0.5951430261	-1.9515069563	-0.6452328349	 0.037859
C	 1.6496712886	-1.7652339102	 0.4599797919	-0.207501
C	 0.7328136446	-0.7874441291	 1.2322602293	-0.137236
C	-0.3703182522	-1.7922043336	 1.6405326613	-0.207493
C	-0.8120495476	-1.970324263	 0.1771892722	 0.037853
O	-1.288208718	-0.6393870893	-0.0558937865	-0.270385
H	 0.9545503052	 1.8819087448	-0.0927841084	 0.130968
H	-0.5911182751	 1.7848588802	-0.9672039224	 0.14215
H	-0.5775799269	 1.8618377128	 0.8095687232	 0.13088
H	 0.7396979218	-2.6823883347	-1.4377575494	 0.081627
H	 1.9053370154	-2.651935277	 1.0444563576	 0.094105
H	 2.555442034	-1.3278561814	 0.0383270693	 0.106162
H	 1.1695622331	-0.1447527838	 1.9942361656	 0.069766
H	 0.0310656964	-2.6769352049	 2.1398912798	 0.094109
H	-1.1907439489	-1.3778630477	 2.2276754403	 0.106166
H	-1.5588264855	-2.7131203441	-0.0943943547	 0.081631
180.2967	258.1284	274.7837	415.5208	536.0215	541.0981	615.8789	616.8464	637.2675	696.5914	760.2637	821.6228	840.7841	875.8228	888.501	906.9969	921.0006	946.0405	957.7781	965.3503	992.2726	1035.0059	1050.4289	1099.8134	1107.992	1130.8877	1151.6803	1172.7662	1203.8625	1246.7309	1256.0644	1293.3671	1293.7221	1304.8341	1318.7606	1349.4557	1427.2505	1479.4883	1483.31	1486.8214	1513.2522	3055.4652	3068.2227	3078.6703	3128.3728	3132.7003	3134.2769	3135.4442	3139.2191	3145.7518	3154.1882
CC12OC3CC1CC3O2	C[C@@]12O[C@H]3C[C@@H]1C[C@H]3O2	
InChI=1S/C7H10O2/c1-7-4-2-5(8-7)6(3-4)9-7/h4-6H,2-3H2,1H3	InChI=1S/C7H10O2/c1-7-4-2-5(8-7)6(3-4)9-7/h4-6H,2-3H2,1H3/t4-,5+,6-,7+
