20
gdb 40497	3.9786	1.30232	1.22636	1.0266	82.98	-0.215	0.0955	0.3106	1098.0355	0.172312	-365.921363	-365.914009	-365.913064	-365.953316	30.045	
C	-0.2555335326	 1.0575928986	-0.437794733	-0.235708
C	 1.096398078	 1.2039702225	 0.1656425518	-0.229476
N	 0.3950906585	-0.0819255079	 0.2021965599	-0.170229
C	-0.0809425901	-0.5475534889	 1.4610905687	 0.395842
C	 0.6123793376	-1.6463437229	 2.2605061479	-0.281181
C	-0.7219655561	-1.7683049175	 3.0461156746	-0.060742
C	-0.8245959365	-0.430069178	 3.8289355	-0.232249
C	-0.9784966184	 0.2318462441	 2.461528493	-0.122566
C	-1.4474684512	-1.0653509387	 1.8242547127	-0.137485
H	-1.0849311027	 1.5437314122	 0.0692771967	 0.117399
H	-0.3716329653	 0.9745130894	-1.5147835143	 0.117102
H	 1.9806087028	 1.2384831012	-0.4639863256	 0.116643
H	 1.1648591096	 1.7660041262	 1.0944843273	 0.114934
H	 0.7964063153	-2.5166827294	 1.6252007827	 0.103558
H	 1.5164896917	-1.4024184206	 2.8315412445	 0.08301
H	-1.009846837	-2.71151219	 3.5048203851	 0.070378
H	-1.751604045	-0.3647072234	 4.4069475101	 0.095953
H	 0.0246667613	-0.1533177709	 4.4653669909	 0.085383
H	-1.3322349991	 1.2323087505	 2.2471983004	 0.080213
H	-2.3169727408	-1.3047273065	 1.2291492666	 0.089218
62.5045	169.8741	211.9132	354.809	398.2757	436.2538	483.4063	559.0048	695.9322	739.7596	785.594	803.1391	828.5285	855.7361	884.8706	921.6895	926.5365	936.7927	962.9676	991.8874	1004.462	1012.5276	1040.41	1078.7146	1097.0653	1110.3787	1119.285	1127.9779	1143.238	1166.2962	1169.6265	1182.4806	1201.0491	1215.0509	1245.9326	1280.1384	1301.1392	1320.2973	1424.1758	1488.9559	1492.8032	1509.1543	1516.1684	3022.6584	3030.0286	3083.8289	3101.0403	3103.8598	3109.2247	3138.5128	3183.2623	3187.7994	3199.7437	3219.5668
C1CN1C12CC3CC1C23	C1CN1[C@@]12C[C@H]3C[C@@H]1[C@@H]23	
InChI=1S/C8H11N/c1-2-9(1)8-4-5-3-6(8)7(5)8/h5-7H,1-4H2	InChI=1S/C8H11N/c1-2-9(1)8-4-5-3-6(8)7(5)8/h5-7H,1-4H2/t5-,6-,7+,8+/m1/s1
