19
gdb 116976	4.3197	0.4884	0.46349	4.3881	83.26	-0.2649	0.0025	0.2675	2372.4221	0.156351	-423.023656	-423.012931	-423.011987	-423.063109	35.633	
C	-0.3553319948	 1.4084815979	-0.1100047248	-0.38292
C	-0.2714621165	-0.1000107583	-0.3491347063	-0.157367
C	-1.1194860846	-0.8991654696	 0.661821777	-0.337094
C	-1.0609827966	-2.3408454276	 0.455254723	 0.010596
C	-0.9937834534	-3.5275802124	 0.2605678722	 0.148115
C	-0.9362728106	-4.9629368819	 0.0296269088	-0.250679
O	-1.9101340286	-5.4123697085	-0.935905486	-0.167034
C	-3.1633443229	-5.6029544393	-0.4772293101	 0.182469
O	-4.0627628659	-5.9377262489	-1.1866397735	-0.270326
H	 0.2521554379	 1.9560727027	-0.8363717281	 0.118843
H	-1.386251983	 1.7685823574	-0.1992716604	 0.11894
H	 0.0027753153	 1.6735571417	 0.8910622779	 0.117064
H	-0.6096519682	-0.3420396462	-1.3625510017	 0.115574
H	 0.7690907833	-0.4363646057	-0.2818344521	 0.110537
H	-0.7889873572	-0.6657394849	 1.682938814	 0.131459
H	-2.165428528	-0.569391749	 0.6030233379	 0.134885
H	 0.0283725245	-5.2581525111	-0.3913230935	 0.155917
H	-1.0682896218	-5.5153014633	 0.9694771973	 0.139461
H	-3.2566348289	-5.4278060628	 0.6122733483	 0.08156
9.5229	36.2479	73.233	92.5167	119.1557	180.2949	241.4436	264.691	306.818	342.1467	364.6069	466.8276	532.0485	681.8663	741.758	792.0079	870.6985	895.4531	986.4215	1024.4321	1041.8599	1044.7987	1108.4595	1121.1435	1149.1034	1169.0207	1258.6907	1296.0209	1306.5452	1322.6871	1381.5059	1390.6437	1414.0627	1433.8436	1468.0197	1485.7559	1491.7066	1499.2607	1508.4957	1870.1786	2366.3617	2950.1854	3013.2277	3021.7111	3030.7607	3040.8861	3043.4874	3075.6901	3093.7068	3101.8137	3108.3608
CCCC#CCOC=O	CCCC#CCOC=O	
InChI=1S/C7H10O2/c1-2-3-4-5-6-9-7-8/h7H,2-3,6H2,1H3	InChI=1S/C7H10O2/c1-2-3-4-5-6-9-7-8/h7H,2-3,6H2,1H3
