17
gdb 48250	2.42193	1.10149	0.81405	1.1903	74.61	-0.253	-0.0323	0.2207	1376.9879	0.132319	-421.772133	-421.76259	-421.761646	-421.807646	33.399	
O	-1.1022124093	 1.0474639007	 0.6215968574	-0.244069
C	-0.2143981084	 1.0882157287	-0.1928451329	 0.147331
C	 1.0861447428	 1.8466819002	 0.0052618034	-0.133477
C	 1.3562241684	 2.8162923521	-1.182527608	-0.369944
C	 1.5133412177	 2.1394362087	-2.4632970975	 0.288635
C	 1.6508732738	 1.5607650081	-3.5078498436	-0.433071
C	 1.0997189987	 2.5922314353	 1.3202398846	 0.096219
C	 1.8033586056	 2.083079812	 2.5001042437	-0.180161
O	 2.3652445556	 3.1338720663	 1.7076059462	-0.249938
H	-0.2981648433	 0.5637589399	-1.1680125212	 0.104811
H	 1.8956035263	 1.103528618	-0.0019981867	 0.116128
H	 0.5448247051	 3.5528710187	-1.2443908325	 0.14072
H	 2.2675054238	 3.3751765373	-0.9425646353	 0.164677
H	 1.7726054452	 1.0641713606	-4.4386464726	 0.202093
H	 0.2552134051	 3.2619189079	 1.4804654445	 0.109385
H	 1.4688985966	 2.3734949903	 3.4942405849	 0.124451
H	 2.3239879665	 1.1279816253	 2.4452107858	 0.116209
58.5574	67.5406	98.7169	124.6063	170.9497	252.6691	278.9973	346.1567	384.6409	448.2675	538.0624	625.3971	647.905	655.6308	792.7116	874.089	880.8857	895.8516	948.3723	979.0265	1036.8238	1088.6994	1099.8373	1148.5618	1162.5167	1175.8902	1203.479	1258.2927	1293.2895	1320.4645	1352.1787	1414.5317	1456.9135	1477.3741	1531.2898	1821.8079	2238.4878	2917.6102	3020.446	3030.8818	3073.3344	3087.9723	3120.2104	3176.6986	3504.8644
O=CC(CC#C)C1CO1	O=C[C@@H](CC#C)[C@H]1CO1	
InChI=1S/C7H8O2/c1-2-3-6(4-8)7-5-9-7/h1,4,6-7H,3,5H2	InChI=1S/C7H8O2/c1-2-3-6(4-8)7-5-9-7/h1,4,6-7H,3,5H2/t6-,7-/m1/s1
