17
gdb 84298	2.25963	1.90219	1.17955	2.0651	74.99	-0.2433	-0.0533	0.1901	1035.4371	0.136491	-421.846797	-421.8389	-421.837956	-421.879211	30.539	
O	 0.1863259696	 1.3934950133	-0.1944695431	-0.420142
C	 0.0518039044	-0.0145050753	-0.0514212755	-0.017394
C	 0.6362996826	-0.5280051297	 1.2517227136	-0.105746
C	-0.2241745716	-1.2672545037	 1.9598844597	-0.180884
C	-1.52565052	-1.3625061981	 1.2462475509	 0.333319
O	-2.5137739906	-1.9699534947	 1.5963002159	-0.349816
C	-1.3808733004	-0.5476405057	-0.0092780089	 0.180796
C	-2.5703047818	 0.2685188187	-0.4799868979	-0.296971
C	-2.1733075346	-0.9578501553	-1.2321531557	-0.302485
H	-0.2897952352	 1.8052814137	 0.5361298884	 0.282372
H	 0.6073225634	-0.4249548549	-0.9032756002	 0.108858
H	 1.6524562804	-0.2762482264	 1.5354495272	 0.123085
H	-0.0503509012	-1.7444723876	 2.9161314702	 0.124426
H	-3.458928538	 0.2187727129	 0.1399195726	 0.135174
H	-2.3436076764	 1.2354262221	-0.9150459308	 0.127585
H	-1.6893947682	-0.8385323412	-2.1957027279	 0.121454
H	-2.7910496725	-1.842648788	-1.1216086686	 0.136369
70.5532	209.9574	231.8418	241.5484	260.7252	350.4081	371.0691	497.3897	515.1854	600.4309	686.8758	710.4788	771.1227	799.0445	835.3943	868.7086	930.7494	965.5633	975.6393	1000.5538	1025.7799	1051.8757	1074.6315	1095.1818	1102.9609	1146.7428	1207.6763	1255.7252	1268.7747	1285.1784	1347.5649	1371.5686	1424.5336	1449.0932	1483.8439	1646.1716	1806.1418	3040.317	3131.3175	3135.0936	3194.8134	3219.7822	3225.6838	3235.0543	3793.769
OC1C=CC(=O)C11CC1	O[C@H]1C=CC(=O)C21CC2	
InChI=1S/C7H8O2/c8-5-1-2-6(9)7(5)3-4-7/h1-2,5,8H,3-4H2	InChI=1S/C7H8O2/c8-5-1-2-6(9)7(5)3-4-7/h1-2,5,8H,3-4H2/t5-/m0/s1
