18
gdb 67849	2.47125	1.64934	1.34095	1.2603	83.53	-0.2169	0.0076	0.2245	1039.0998	0.146576	-364.762369	-364.754043	-364.753099	-364.794754	32.604	
C	-0.0178553272	 1.5055176811	 0.0516573006	-0.481322
C	 0.0093605279	-0.0017717908	-0.0298762439	 0.293602
C	-0.5255003892	-0.6917946144	-1.2416586442	-0.134568
C	-1.2059400992	-1.7813784969	-0.8915586496	-0.073268
C	-1.2057417202	-1.9424418066	 0.6110736977	-0.220718
N	-0.4351180614	-0.7926752867	 1.1391832167	-0.15946
C	 1.0121379938	-0.788598247	 0.7833341186	-0.267967
C	 1.6852461994	-1.9553921121	 0.2958225967	 0.37659
C	 2.2706175978	-2.9461821076	-0.0563129981	-0.465849
H	 0.6461682772	 1.9467274808	-0.6996277013	 0.121752
H	-1.0304732429	 1.8829690561	-0.1258360079	 0.126411
H	 0.3039930294	 1.8462020702	 1.0388211865	 0.13072
H	-0.3587103235	-0.3270770351	-2.2474182988	 0.100989
H	-1.6732639894	-2.4893204051	-1.5658483972	 0.10305
H	-2.2172997818	-1.9100231671	 1.0355331296	 0.114999
H	-0.7506948958	-2.8886519621	 0.9294505421	 0.127145
H	 1.5928858569	-0.2206402009	 1.5085430451	 0.110972
H	 2.7927591381	-3.8106313961	-0.3842162526	 0.196921
130.2746	142.0551	182.2546	235.1215	262.2273	334.4522	379.0293	430.5002	556.2386	587.3965	609.9924	622.0925	655.725	737.4569	745.7539	776.2778	788.6387	893.195	922.4364	952.0613	957.4985	1016.8382	1036.6317	1070.276	1072.7539	1108.8224	1139.5077	1212.8305	1249.4481	1302.9907	1340.4782	1358.322	1391.2509	1412.2263	1481.1763	1483.92	1493.6975	1673.763	2229.2278	3019.5865	3034.2889	3052.5922	3098.5592	3113.8014	3122.0031	3197.5787	3223.0218	3503.1641
CC12C=CCN1C2C#C	C[C@]12C=CCN1[C@H]2C#C	
InChI=1S/C8H9N/c1-3-7-8(2)5-4-6-9(7)8/h1,4-5,7H,6H2,2H3	InChI=1S/C8H9N/c1-3-7-8(2)5-4-6-9(7)8/h1,4-5,7H,6H2,2H3/t7-,8+,9?/m0/s1
