17
gdb 105565	1.95992	1.57669	1.32066	3.4351	75.71	-0.2341	0.014	0.2482	1086.1243	0.134783	-417.97436	-417.965026	-417.964082	-418.008337	33.996	
C	 0.0798535514	 1.4603728463	-0.1252079404	-0.337406
N	-0.0440685643	 0.0087593358	 0.0538094058	-0.331646
C	 0.6466220119	-0.5062940169	 1.2315832351	-0.02604
C	 0.8183235292	-2.0652244751	 1.1861898952	-0.20353
N	 2.2563663221	-1.8439934304	 1.0317408449	-0.32057
C	 2.2124094117	-0.479846019	 1.0206255294	 0.428317
O	 3.0400125103	 0.3765540253	 0.8759943744	-0.358127
C	 0.1876381601	 0.0232879514	 2.5106918555	 0.324595
C	-0.2187717632	 0.4811838683	 3.546419133	-0.491096
H	 1.1345909804	 1.716304554	-0.2444033682	 0.161373
H	-0.4524019857	 1.7431123933	-1.0373429076	 0.117164
H	-0.3225596385	 2.0456665725	 0.7153334012	 0.112312
H	-1.0280583207	-0.2339222531	 0.1312817361	 0.223013
H	 0.539711121	-2.590074331	 2.1031565889	 0.123115
H	 0.3355518563	-2.5140234264	 0.3136335715	 0.12097
H	 3.0142357501	-2.4781925445	 0.8274889297	 0.256007
H	-0.5643283521	 0.8882793295	 4.4646481954	 0.201549
107.4439	112.7455	124.314	169.2956	187.1742	251.2589	268.7347	367.9259	406.5619	463.8823	531.3282	584.8658	627.7502	651.4248	673.0509	733.8966	780.0798	810.2246	908.3161	958.4125	1009.6509	1059.3147	1142.3193	1162.185	1172.0188	1180.7693	1211.7848	1237.3093	1296.4031	1396.3708	1457.3034	1472.6457	1494.813	1512.6295	1524.0138	1898.2548	2221.0792	2992.7796	3053.2892	3089.1763	3113.3025	3138.1983	3495.8437	3498.9013	3613.8038
CNC1(CNC1=O)C#C	CN[C@]1(CNC1=O)C#C	
InChI=1S/C6H8N2O/c1-3-6(7-2)4-8-5(6)9/h1,7H,4H2,2H3,(H,8,9)	InChI=1S/C6H8N2O/c1-3-6(7-2)4-8-5(6)9/h1,7H,4H2,2H3,(H,8,9)/t6-/m0/s1
