23
gdb 86046	3.55682	0.84405	0.79434	2.9287	86.66	-0.2435	-0.0192	0.2243	1551.0734	0.203122	-388.301215	-388.290957	-388.290013	-388.336969	37.898	
C	 0.182276127	 1.6019977	 0.1721455526	-0.408665
C	 0.0778565441	 0.0890326545	 0.0558298726	 0.056308
C	 1.0373339265	-0.6496611084	-0.9195808472	-0.28055
C	 1.2389095018	-1.770120619	 0.1479853409	 0.329366
C	 0.3286189997	-2.9759675095	-0.1065809402	-0.445694
C	 2.6938942219	-2.219955338	 0.3648330559	-0.339795
C	 2.8692301068	-3.0893249255	 1.5893815129	 0.162122
O	 3.3796359612	-4.1807064525	 1.5989750233	-0.245616
C	 0.6422440706	-0.7869644263	 1.2093854109	-0.274835
H	 1.2130215658	 1.9102938742	 0.3828332243	 0.109368
H	-0.1289894691	 2.0949293957	-0.7557509779	 0.115729
H	-0.451279029	 1.9844786627	 0.980337907	 0.115414
H	-0.9604374893	-0.1887353226	-0.1537010784	 0.074373
H	 0.6403857523	-0.9584772657	-1.8908925966	 0.095821
H	 1.9560246728	-0.0774061956	-1.0868553554	 0.09193
H	 0.6628556093	-3.5380782624	-0.9858964924	 0.120026
H	 0.3254511936	-3.6651647256	 0.7453819875	 0.123131
H	-0.7053974347	-2.6633578613	-0.2830292926	 0.115803
H	 3.0750924398	-2.7658540567	-0.504767765	 0.115522
H	 3.3226368657	-1.3291579155	 0.5088208425	 0.108921
H	 2.4806363162	-2.6373206239	 2.5323793653	 0.073553
H	 1.4249999134	-0.2573914434	 1.7638092964	 0.090863
H	-0.0696450866	-1.2007903651	 1.9292104335	 0.096905
50.6	66.1828	88.2918	188.4172	235.4576	242.8261	271.3823	315.4392	323.7097	339.7934	417.0046	448.0413	480.3589	611.0963	728.5583	823.2298	831.5462	867.2519	900.3799	907.6255	939.9855	956.6987	962.1145	1022.2592	1027.1115	1085.0209	1100.4422	1132.4445	1169.3426	1183.1019	1221.6058	1235.555	1239.6658	1286.3477	1298.0514	1308.5834	1317.6928	1371.8112	1410.449	1416.0462	1431.396	1457.4052	1472.0216	1489.618	1494.4689	1496.0944	1497.809	1500.6611	1830.3215	2853.7623	3006.1718	3021.4141	3024.9064	3036.0527	3039.8305	3044.323	3081.3484	3087.5543	3089.6974	3090.8661	3093.5942	3097.4829	3101.8948
CC1CC(C)(CC=O)C1	C[C@H]1C[C@@](C)(CC=O)C1	
InChI=1S/C8H14O/c1-7-5-8(2,6-7)3-4-9/h4,7H,3,5-6H2,1-2H3	InChI=1S/C8H14O/c1-7-5-8(2,6-7)3-4-9/h4,7H,3,5-6H2,1-2H3/t7-,8+
