16
gdb 19920	4.52887	1.55314	1.40092	2.8199	63.15	-0.2316	0.0521	0.2837	904.3773	0.129869	-383.639283	-383.632166	-383.631222	-383.671355	27.224	
O	 0.0697074411	 1.4298143397	 0.3270582173	-0.423469
C	 0.1563473941	 0.0622835214	-0.0666263702	-0.10074
C	-1.2370707084	-0.5730036677	-0.1192809924	-0.035989
C	-1.8992216356	-1.328166246	-1.2442966026	-0.135425
C	-0.9690519297	-2.4016835761	-1.8929855586	 0.019481
O	 0.3230566511	-2.3648715212	-1.2632664872	-0.239185
C	-0.7536964912	-3.0478674889	-0.6052772398	 0.022215
C	-1.6600151918	-2.0055783276	 0.1117286053	-0.124768
H	-0.2958288296	 1.9229244863	-0.4138526518	 0.279285
H	 0.6799387879	-0.0433759319	-1.0201032284	 0.109393
H	 0.7664475573	-0.4272327438	 0.697109895	 0.118618
H	-1.9503954887	 0.0930102033	 0.3660370467	 0.101519
H	-2.8439091994	-1.0361987562	-1.685440313	 0.093326
H	-1.0246883332	-2.7937151324	-2.9010253286	 0.110241
H	-0.5998356485	-4.0838462346	-0.3296302746	 0.110594
H	-2.3950376954	-2.2811158045	 0.8571348827	 0.094904
32.4889	198.2835	215.5054	321.1333	363.4983	423.0915	498.0488	671.1953	726.6567	732.8271	759.6884	812.8983	864.1404	897.2702	914.5923	952.9678	978.3939	998.6755	1002.4654	1038.5095	1046.8457	1056.4996	1092.5795	1177.1177	1219.9763	1233.8418	1239.7707	1278.9945	1308.6332	1342.4985	1394.8146	1409.3493	1430.7706	1491.374	3059.8666	3106.1652	3118.4132	3182.8908	3192.2372	3195.4011	3205.8432	3819.7572
OCC1C2C3OC3C12	OC[C@H]1[C@H]2[C@H]3O[C@H]3[C@@H]12	
InChI=1S/C6H8O2/c7-1-2-3-4(2)6-5(3)8-6/h2-7H,1H2	InChI=1S/C6H8O2/c7-1-2-3-4(2)6-5(3)8-6/h2-7H,1H2/t2-,3+,4-,5+,6-
