22
gdb 60144	3.49125	0.93237	0.85754	1.9139	82.1	-0.2213	0.0682	0.2895	1453.8463	0.193844	-404.29894	-404.289546	-404.288602	-404.333563	35.607	
C	-0.73410129	 1.7130477509	 1.0606387288	-0.401615
C	-0.7523676248	 0.1845188253	 1.0370927423	 0.139573
O	-1.0557720963	-0.3044789318	-0.2691374595	-0.434033
C	 0.603334672	-0.4208456164	 1.4146488517	-0.230998
C	 0.5539350459	-1.9306278027	 1.4998773799	 0.023799
C	 1.4676958619	-2.793848972	 2.2726431895	-0.054428
C	 1.9037636114	-2.1700358861	 3.5979392944	-0.250186
C	 0.3959164865	-2.0170422787	 3.912014165	-0.153297
N	-0.0162140269	-2.7024288539	 2.6334040703	-0.160253
H	 0.021294167	 2.0968597073	 0.3673409405	 0.123421
H	-1.7070743902	 2.1182408131	 0.7603619658	 0.104303
H	-0.5125060929	 2.091345311	 2.0643216798	 0.112591
H	-1.5056367272	-0.1789577493	 1.7548716995	 0.077399
H	-1.9567676881	-0.0450014256	-0.4840633015	 0.282342
H	 1.326402907	-0.139480539	 0.6380757957	 0.107986
H	 0.950737843	 0.0325664939	 2.3465861785	 0.096695
H	 0.2103949188	-2.375458637	 0.5692793092	 0.110684
H	 1.8919275165	-3.7009790331	 1.8515088207	 0.089079
H	 2.3985818471	-2.8825086289	 4.260157621	 0.109561
H	 2.5191653957	-1.2667519241	 3.5387549172	 0.100322
H	 0.0656510708	-2.6197553195	 4.7603150016	 0.109824
H	-0.0002506072	-1.0037675835	 4.0339241195	 0.097231
56.107	76.8961	131.0533	223.3381	237.0957	261.2309	303.6046	335.9915	394.0392	468.5541	493.1308	561.1091	705.3596	772.4414	784.0498	786.4	856.6021	882.1376	927.7388	951.3426	965.1235	997.6904	1000.3866	1044.5277	1080.9803	1084.3499	1116.8698	1133.455	1149.5883	1173.6238	1215.1274	1219.8549	1253.5791	1271.8965	1295.7117	1303.1155	1316.3176	1360.0052	1383.8296	1404.9521	1424.6513	1452.2778	1466.4694	1490.9611	1492.3325	1498.0256	1512.334	2970.3755	3026.7865	3034.0605	3045.6673	3053.3712	3092.7612	3097.0404	3099.9405	3109.7693	3119.2693	3142.8268	3154.5617	3825.1451
CC(O)CC1C2CCN12	C[C@@H](O)C[C@H]1[C@H]2CCN12	
InChI=1S/C7H13NO/c1-5(9)4-7-6-2-3-8(6)7/h5-7,9H,2-4H2,1H3	InChI=1S/C7H13NO/c1-5(9)4-7-6-2-3-8(6)7/h5-7,9H,2-4H2,1H3/t5-,6-,7+,8?/m1/s1
