16
gdb 48390	2.31654	1.70421	1.23363	1.3947	75.89	-0.251	-0.0446	0.2064	1033.8191	0.122075	-400.665164	-400.656835	-400.655891	-400.698208	31.2	
O	-0.1935568311	 0.0536876075	-0.1510814561	-0.250646
C	-0.0300105332	 1.2178516395	 0.1052636437	 0.127834
C	 1.3150269119	 1.934231798	 0.0167539512	 0.03272
C	 2.526729964	 1.1165117565	-0.5157643672	-0.314671
C	 2.5138023104	 2.0416010056	-1.7282520783	 0.00229
C	 1.2087889118	 2.030771782	-2.4043034289	-0.251069
N	 1.3607301525	 2.8861066909	-1.196414573	-0.171226
C	 1.5399333899	 2.6612120222	 1.2502808707	 0.259347
C	 1.6885185205	 3.2297258021	 2.2990177041	-0.381065
H	-0.8687547055	 1.8828684788	 0.3994748475	 0.105756
H	 3.4046531245	 1.228313242	 0.1189573938	 0.129817
H	 2.3308967562	 0.0586163453	-0.7016534804	 0.134232
H	 3.3897885921	 2.5161043296	-2.1565291638	 0.104275
H	 1.0990120043	 2.6335357184	-3.2999040143	 0.130951
H	 0.5823544776	 1.1438646764	-2.3712905017	 0.139146
H	 1.834917774	 3.7428944051	 3.2175288127	 0.20231
70.9861	135.6117	158.7463	201.67	239.1651	346.7853	454.9506	477.6595	497.3744	531.3853	637.9703	650.7564	658.6914	757.7494	776.0477	841.2334	889.6227	905.7661	952.8248	997.3583	1040.0622	1059.7954	1110.8017	1133.25	1143.9577	1175.7501	1230.8953	1246.894	1272.9562	1367.3505	1410.2519	1483.8803	1504.1106	1821.2238	2234.2489	2919.5322	3085.7038	3122.6877	3151.1581	3175.0214	3213.1988	3499.8602
O=CC1(CC2CN12)C#C	O=C[C@]1(C[C@H]2CN12)C#C	
InChI=1S/C7H7NO/c1-2-7(5-9)3-6-4-8(6)7/h1,5-6H,3-4H2	InChI=1S/C7H7NO/c1-2-7(5-9)3-6-4-8(6)7/h1,5-6H,3-4H2/t6-,7+,8?/m0/s1
