19
gdb 40083	3.95803	1.2812	1.094	1.376	83.61	-0.2217	0.0057	0.2274	1152.1963	0.160007	-385.841966	-385.834452	-385.833508	-385.873799	30.264	
C	-0.1466926887	 1.4248827891	-0.0612995991	-0.335991
C	 1.2655043642	 0.8645300481	 0.0165441426	-0.336206
C	 0.0788446109	-0.048491888	-0.0646500267	 0.387816
O	-0.2936189012	-0.9019289587	 1.0445359626	-0.344761
C	-0.3224502555	-2.0670522978	 0.1402785495	 0.108523
C	-1.5852636523	-2.8993944864	-0.1161950068	-0.255385
C	-1.6826695684	-2.8589240274	-1.6825386649	-0.242149
C	-1.0757668363	-1.4952999125	-2.0241444942	-0.229417
C	-0.2900491903	-1.1250335253	-1.0196579742	 0.135617
H	-0.5666816109	 1.8470702172	 0.8451975711	 0.130167
H	-0.4757592651	 1.8981157707	-0.9804006242	 0.119425
H	 1.9116550901	 0.9529222723	-0.8500507037	 0.120062
H	 1.7699966696	 0.9180234735	 0.9751106664	 0.127827
H	 0.5710091408	-2.6780297206	 0.3220333013	 0.082204
H	-1.5501100325	-3.9136175783	 0.2913032022	 0.095124
H	-2.447479655	-2.3802105848	 0.3139388685	 0.11978
H	-1.1348014821	-3.6954944712	-2.1376228862	 0.110056
H	-2.7163400023	-2.9392973531	-2.0343496295	 0.108582
H	-1.3690100551	-0.9140949668	-2.8899557346	 0.098725
114.5313	151.3995	219.1503	270.0174	360.6011	389.139	500.5122	516.0204	606.6995	705.0537	762.7986	802.5566	821.5221	839.8005	867.1585	878.2618	902.1572	911.6208	942.6872	964.774	971.3307	1032.1278	1045.2545	1049.8222	1065.3998	1085.548	1155.7045	1187.5484	1192.1955	1206.7888	1236.7552	1272.2446	1303.7026	1330.3538	1338.7655	1390.0007	1446.9598	1478.9967	1492.2426	1494.37	1747.4962	3014.2058	3018.8712	3054.7344	3072.5809	3109.1806	3131.7026	3133.9337	3203.5091	3215.963	3230.3292
C1CC11OC2CCC=C12	C1CC21O[C@H]1CC[CH][C]21	
InChI=1S/C8H10O/c1-2-6-7(3-1)9-8(6)4-5-8/h2,7H,1,3-5H2	InChI=1S/C8H10O/c1-2-6-7(3-1)9-8(6)4-5-8/h2,7H,1,3-5H2/t7-/m0/s1
