18
gdb 68059	1.99216	1.82656	1.14328	4.9684	77.11	-0.277	0.0272	0.3041	1102.0695	0.146887	-401.924284	-401.915663	-401.914719	-401.957148	33.009	
C	-0.027152189	 1.4524090783	 0.0336982051	-0.510347
C	 0.0362169073	-0.0478422939	 0.0093162112	 0.324331
C	 0.6227109668	-0.9652466643	-1.107486354	-0.334524
C	 0.0733908173	-1.926421237	-0.007650393	 0.40096
O	-0.0107632014	-3.2989983994	-0.0201558736	-0.463006
C	 0.7219268406	-0.9870567448	 1.0527905644	-0.348638
C	-1.1982686041	-1.0304699077	 0.0312466742	-0.212632
C	-2.0497837149	-1.0479996408	 1.2085398294	 0.268558
N	-2.7364138439	-1.0397268921	 2.1391994242	-0.341156
H	 0.9803568363	 1.8810767164	 0.025607818	 0.127687
H	-0.5653514899	 1.8399625732	-0.8374703557	 0.126765
H	-0.5384096606	 1.8069820273	 0.9343506767	 0.140896
H	 0.1057397792	-0.9668580451	-2.0708511984	 0.100264
H	 1.7086080873	-0.9342228707	-1.2268963158	 0.095151
H	 0.8746857505	-3.6664855447	 0.074297905	 0.290826
H	 1.8148423748	-0.9576727514	 1.0720404516	 0.09281
H	 0.2969483942	-1.0044682658	 2.0582029282	 0.128564
H	-1.8041417505	-1.0407572174	-0.8786312473	 0.11349
114.9242	164.1847	186.4169	215.4515	234.7561	252.1828	378.7198	405.0884	462.5297	512.4243	549.8326	593.6165	617.5365	682.2719	745.405	812.9812	896.6148	948.126	969.4415	1014.5249	1028.5344	1051.8827	1086.8848	1108.2537	1120.2875	1130.6647	1144.0085	1189.959	1195.8654	1286.6463	1325.4685	1350.2559	1399.532	1418.7206	1487.5427	1491.545	1496.4496	1547.9834	2350.5312	3033.8493	3053.1885	3060.5608	3081.5581	3102.6999	3106.1965	3123.4149	3132.5295	3813.8274
CC12CC(O)(C1)C2C#N	C[C@@]12C[C@@](O)(C1)[C@H]2C#N	
InChI=1S/C7H9NO/c1-6-3-7(9,4-6)5(6)2-8/h5,9H,3-4H2,1H3	InChI=1S/C7H9NO/c1-6-3-7(9,4-6)5(6)2-8/h5,9H,3-4H2,1H3/t5-,6-,7-/m0/s1
