17
gdb 86719	3.49337	1.12392	0.95635	3.1136	68.64	-0.2478	-0.0277	0.2201	1206.8523	0.135217	-458.954367	-458.946116	-458.945172	-458.987792	30.476	
O	-0.0817150966	 1.4628258013	 0.0880896196	-0.43397
C	-0.0065780762	 0.0536334713	 0.0124681951	 0.118244
C	 0.6941222745	-0.6186575141	 1.2193471097	-0.302901
C	 0.0454603033	-2.0232486883	 1.3548286879	-0.100814
C	 0.0322673121	-2.5085011866	 2.7891025675	 0.15396
O	 0.5766221754	-3.5081475641	 3.1814453577	-0.249133
C	-1.3600476639	-1.8002018332	 0.7957770714	 0.01092
O	-1.9905155279	-0.6266133128	 1.3217423379	-0.249505
C	-1.3930483505	-0.5552577849	 0.0216658152	 0.039708
H	 0.810990273	 1.8171780453	 0.0290911913	 0.288635
H	 0.4799643027	-0.260419169	-0.926686041	 0.074346
H	 1.778851696	-0.6777907394	 1.1062103918	 0.110433
H	 0.4731205253	-0.0151284111	 2.1043354144	 0.132337
H	 0.5666614769	-2.7717670773	 0.7492775612	 0.096816
H	-0.5339814964	-1.845012395	 3.4809803697	 0.094115
H	-2.0170188849	-2.6428568707	 0.5981911078	 0.109543
H	-2.0794881927	-0.3809771814	-0.8018661572	 0.107267
66.8876	90.9953	171.7374	244.7682	257.0026	343.2515	388.0191	404.7842	465.4948	562.2678	640.1456	704.7296	830.6516	852.0943	898.3034	913.1883	943.74	992.5651	1001.2944	1046.1055	1096.4569	1104.3321	1111.6386	1140.7255	1187.7034	1235.1591	1252.3285	1262.633	1296.3923	1313.3879	1335.3506	1351.9514	1420.2857	1432.8582	1441.0847	1485.3281	1830.3486	2884.7122	2959.3463	3066.2286	3066.6146	3119.124	3152.3796	3166.4392	3822.5376
OC1CC(C=O)C2OC12	O[C@H]1C[C@@H](C=O)[C@H]2O[C@@H]12	
InChI=1S/C6H8O3/c7-2-3-1-4(8)6-5(3)9-6/h2-6,8H,1H2	InChI=1S/C6H8O3/c7-2-3-1-4(8)6-5(3)9-6/h2-6,8H,1H2/t3-,4-,5+,6-/m0/s1
