21
gdb 96851	2.41037	1.26633	1.02359	2.1623	82.43	-0.2265	0.0288	0.2553	1294.4583	0.179758	-420.404715	-420.393949	-420.393004	-420.440869	38.634	
C	 0.3882880691	 1.401149745	-0.2902728563	-0.339313
N	 0.4030283294	-0.0551708314	-0.2409663312	-0.344093
C	 0.4419042184	-0.6008745185	 0.8970198056	 0.378532
N	 0.4599236262	-0.1866853827	 2.2234833638	-0.374714
C	 0.8600145647	-1.5228247107	 2.7364104298	 0.040054
C	 0.0618923206	-2.0272752561	 3.9243500936	-0.408863
C	 0.5997796544	-2.0720467904	 1.2830338418	 0.262825
C	-0.6142577238	-2.9616159307	 1.0640131458	-0.440035
O	 1.7666966423	-2.6503308676	 0.7272163364	-0.479501
H	 1.381630739	 1.822122396	-0.0747101955	 0.111971
H	 0.1067419534	 1.7296085553	-1.2941587069	 0.124438
H	-0.322931984	 1.8449611737	 0.4224445086	 0.10839
H	 0.8168306765	 0.6980032312	 2.5575251464	 0.240576
H	 1.9355649365	-1.5870313498	 2.9350513115	 0.092172
H	-1.013960863	-1.9593817665	 3.7435190436	 0.12347
H	 0.3164652998	-3.0696762205	 4.1422764909	 0.126493
H	 0.2900394183	-1.4370674308	 4.8184937188	 0.116702
H	-1.5167955497	-2.5372499539	 1.5124975126	 0.119655
H	-0.7917575832	-3.0726670483	-0.0099316631	 0.128528
H	-0.4379465256	-3.9544155943	 1.4888291239	 0.122084
H	 1.8306487206	-2.3131088989	-0.1750292199	 0.290629
33.8228	86.3974	127.4524	162.3837	205.5672	210.984	222.7167	270.5415	302.182	318.4119	352.0904	388.4961	466.2343	512.3917	596.7472	680.2602	734.0778	768.9454	832.1736	897.9324	976.3964	1016.057	1018.2506	1077.4223	1093.6689	1111.032	1151.4942	1166.7042	1169.9949	1208.7879	1241.7348	1304.8974	1351.222	1373.2581	1385.6442	1406.0977	1414.2875	1438.2126	1478.5905	1486.1478	1490.7753	1494.8373	1502.3561	1506.7662	1815.3307	2979.7395	3028.1871	3036.1701	3040.9643	3046.9072	3097.8108	3100.4097	3114.6663	3117.3921	3125.0925	3585.0993	3782.6036
CN=C1NC(C)C1(C)O	CN=C1N[C@@H](C)[C@]1(C)O	
InChI=1S/C6H12N2O/c1-4-6(2,9)5(7-3)8-4/h4,9H,1-3H3,(H,7,8)	InChI=1S/C6H12N2O/c1-4-6(2,9)5(7-3)8-4/h4,9H,1-3H3,(H,7,8)/t4-,6-/m0/s1
