22
gdb 12562	3.19786	1.6661	1.22116	1.2271	78.08	-0.2412	0.083	0.3243	1067.2697	0.202304	-350.217462	-350.209271	-350.208327	-350.249645	31.916	
C	 0.4628353854	 1.6696247563	-0.0260697122	-0.400135
C	 0.0030089743	 0.2057144354	-0.0055384004	 0.045024
C	 0.4627050002	-0.5314766073	-1.2806827807	-0.174174
C	-0.2092954198	-1.9005863905	-1.4812261098	-0.236619
C	 0.4493926869	-3.0600237506	-0.713906883	-0.060073
O	 1.0003422357	-2.7195594159	 0.5440873218	-0.241649
C	 0.1665974949	-1.9701682435	 1.4125357538	-0.093266
C	 0.4534065694	-0.4712275731	 1.3010553817	-0.174339
H	 1.557205861	 1.7361560725	-0.0455129897	 0.114131
H	 0.0824218194	 2.194228871	-0.9089009575	 0.107792
H	 0.1151658377	 2.2097974599	 0.8609575848	 0.108156
H	-1.0980726761	 0.2019639882	-0.0178364898	 0.065395
H	 0.2220497329	 0.1043267851	-2.1411386472	 0.087876
H	 1.5549535998	-0.6422459425	-1.2741325474	 0.099365
H	-1.2674665614	-1.8156751464	-1.2041329501	 0.096643
H	-0.2037670236	-2.1726437948	-2.5435817924	 0.095143
H	-0.2752502564	-3.8847778755	-0.6064125457	 0.083301
H	 1.2987834329	-3.4486408626	-1.2864378735	 0.10496
H	-0.8970752388	-2.1897709018	 1.2340489494	 0.085584
H	 0.3978470177	-2.3077741741	 2.4298597448	 0.10011
H	 1.537204277	-0.3419005405	 1.422670579	 0.101149
H	-0.019462699	 0.0418644907	 2.1493607942	 0.085624
113.0035	150.0904	228.5225	255.0593	278.5137	317.01	343.764	387.3336	432.3543	534.9447	572.2446	739.6653	828.571	838.4492	877.7184	886.044	940.3099	970.9838	984.7299	1029.0507	1035.0092	1079.1426	1086.8455	1140.2633	1171.2003	1178.2122	1223.2238	1262.2295	1267.5305	1304.2131	1322.8631	1331.9228	1350.7208	1382.2098	1385.8514	1395.6588	1403.2932	1413.3353	1423.9991	1467.3097	1485.406	1488.2945	1498.2155	1499.8751	1501.0189	1510.9549	2960.931	2980.3726	2988.9387	3010.4086	3018.9474	3024.1956	3026.2078	3048.8944	3050.7612	3054.7666	3060.8941	3071.631	3090.5632	3096.5777
CC1CCCOCC1	C[C@H]1CCCOCC1	
InChI=1S/C7H14O/c1-7-3-2-5-8-6-4-7/h7H,2-6H2,1H3	InChI=1S/C7H14O/c1-7-3-2-5-8-6-4-7/h7H,2-6H2,1H3/t7-/m0/s1
