17
gdb 37376	3.02478	2.08554	1.88606	1.4361	68.51	-0.2274	0.0832	0.3106	811.7267	0.1397	-421.799195	-421.793458	-421.792514	-421.828912	25.243	
C	-0.0221993265	 1.5422131254	 0.1056460997	-0.309257
C	 1.2883032314	 0.8010052083	-0.0421226928	-0.034403
C	-0.0216794079	 0.0426691434	-0.0291986997	-0.043343
C	-0.2647447837	-0.5993147909	-1.3865320469	 0.147004
O	-0.2359421031	 0.3765386266	-2.4193906861	-0.257018
C	 1.1423351274	 0.6054032749	-2.6305116486	 0.020406
C	 1.8444031203	-0.6163706223	-2.129237882	 0.045773
O	 0.8324869796	-1.4769959608	-1.6580076895	-0.259293
C	 1.9864075935	 0.7064835284	-1.368491609	-0.140283
H	-0.2495319885	 1.9466319664	 1.0856198467	 0.110241
H	-0.3842358589	 2.1280952513	-0.7298110516	 0.130221
H	 1.9290876624	 0.7371403415	 0.8315857259	 0.088623
H	-0.2793278923	-0.5720381027	 0.8262019637	 0.09132
H	-1.1934621122	-1.1674386727	-1.460105929	 0.096418
H	 1.3493702227	 1.1482794119	-3.5428113419	 0.111659
H	 2.6647526624	-1.1369947065	-2.6038198325	 0.110775
H	 2.9379348232	 1.2176411378	-1.4776720264	 0.091155
274.7473	296.5491	421.2589	507.9526	566.4862	607.8944	690.2605	735.0272	737.8961	775.4303	794.5004	823.7548	871.684	898.5085	901.0892	961.0241	979.5445	998.3327	1024.9046	1049.7537	1068.1099	1074.0895	1080.1537	1108.905	1114.6778	1124.2194	1132.9026	1165.4247	1209.0428	1265.1566	1306.6134	1349.0496	1354.7291	1374.1897	1396.1793	1413.4308	1482.9609	3106.7995	3143.9575	3148.3957	3158.588	3170.7166	3204.4454	3214.3857	3237.4861
C1C2C1C1OC3C(O1)C23	C1[C@H]2[C@@H]1[C@H]1O[C@@H]3[C@H](O1)[C@H]23	
InChI=1S/C7H8O2/c1-2-3(1)7-8-5-4(2)6(5)9-7/h2-7H,1H2	InChI=1S/C7H8O2/c1-2-3(1)7-8-5-4(2)6(5)9-7/h2-7H,1H2/t2-,3+,4-,5+,6-,7+/m0/s1
