21
gdb 67698	2.24688	1.9667	1.69521	0.3271	85.56	-0.2181	0.0205	0.2387	971.0094	0.185522	-349.969389	-349.962058	-349.961113	-350.000518	30.863	
C	 0.0044390109	 1.4917317562	-0.0076461309	-0.506722
C	-0.0069861438	-0.0127684071	 0.0058441912	 0.34916
C	 0.5877503491	-0.895512667	-1.0606554931	-0.089964
C	 1.4559077678	-1.9773556564	-0.4155210832	-0.232334
C	 1.5359952987	-1.5577319905	 1.0749391669	-0.191661
C	 0.1936753677	-0.8195068596	 1.3217191153	-0.146609
C	-0.9391713762	-1.8330979248	 1.3059755997	-0.08591
C	-1.5189848879	-1.8902197018	 0.1043066658	-0.07696
C	-0.935783009	-0.87594772	-0.8190673666	-0.13324
H	 0.9468161157	 1.8882610504	 0.3902690638	 0.113582
H	-0.109180972	 1.8753532779	-1.0270943917	 0.113725
H	-0.8110067349	 1.9071793168	 0.5961944643	 0.117609
H	 0.9156633151	-0.4562729163	-1.997787846	 0.075979
H	 1.0094431038	-2.9720977062	-0.5149821294	 0.10325
H	 2.4439145136	-2.02051076	-0.8823039304	 0.093296
H	 1.6947225464	-2.4037293973	 1.7521087814	 0.0888
H	 2.3651945226	-0.8549309039	 1.2225354437	 0.092203
H	 0.2189653362	-0.1994544802	 2.2235061486	 0.062777
H	-1.1378296208	-2.4991014136	 2.1386170167	 0.088678
H	-2.2952848501	-2.5864175455	-0.1926573141	 0.089569
H	-1.5439112429	-0.442992121	-1.6076855521	 0.074772
187.8885	206.8906	245.6401	274.052	310.9556	408.1208	548.1801	559.7606	625.6688	667.509	717.7833	773.7583	778.0671	827.6421	872.8289	878.6791	899.6791	927.7299	932.8739	945.346	977.9184	998.5409	1025.906	1054.4258	1075.2993	1081.6645	1124.1235	1125.3221	1157.0834	1175.5848	1228.9792	1248.0839	1264.5361	1291.8964	1304.8981	1329.4634	1348.8655	1369.5317	1414.516	1443.9603	1484.8137	1488.1859	1497.8641	1500.6977	1660.1892	3016.291	3026.3774	3049.0685	3056.6138	3073.5832	3075.2027	3092.0697	3092.5005	3147.2321	3157.8311	3180.5398	3206.1815
CC12C3CCC1C=CC23	C[C@@]12[C@H]3CC[C@@H]1C=C[C@@H]23	
InChI=1S/C9H12/c1-9-6-2-4-7(9)8(9)5-3-6/h2,4,6-8H,3,5H2,1H3	InChI=1S/C9H12/c1-9-6-2-4-7(9)8(9)5-3-6/h2,4,6-8H,3,5H2,1H3/t6-,7+,8-,9+/m0/s1
