15
gdb 24700	3.75655	1.66752	1.17236	1.9531	74.36	-0.2328	-0.0443	0.1885	985.0589	0.116597	-416.869667	-416.863164	-416.86222	-416.901332	24.751	
C	 0.0394020548	 1.3748446411	-0.1317844311	-0.095509
C	 1.5083814589	 1.8327881061	 0.0810757275	-0.354575
C	 2.1225072058	 0.5885847441	 0.6655086295	 0.246725
N	 3.3437281301	 0.3962661241	 1.114602328	-0.320154
C	 3.5927657254	-0.8542220221	 1.5599146994	-0.050322
C	 2.6309650925	-1.8535551585	 1.5354508284	-0.025387
N	 1.3781478702	-1.6607334552	 1.075766565	-0.33479
C	 1.1597973529	-0.4357482507	 0.6545632555	 0.427757
O	-0.0308050372	-0.0487802876	 0.1584385452	-0.257815
H	-0.6537926528	 1.8807214525	 0.5463907765	 0.128523
H	-0.3100992796	 1.5144259788	-1.1566417914	 0.130669
H	 1.993456725	 2.1132456833	-0.8595235048	 0.137718
H	 1.5815269606	 2.6915342704	 0.7536551353	 0.137978
H	 4.5896635466	-1.0500124953	 1.9408764515	 0.111635
H	 2.8629501768	-2.8514691009	 1.8965139357	 0.117546
44.7298	187.1297	276.7207	446.5558	449.9595	561.7303	576.8741	634.2233	697.4409	775.4925	803.452	842.8754	868.5965	899.8109	960.4242	972.3671	1009.3934	1067.7888	1089.0845	1165.4563	1205.0318	1225.2107	1247.2709	1261.3694	1302.749	1357.7993	1383.5346	1457.0146	1481.8251	1487.3683	1525.157	1611.304	1627.6039	3051.868	3061.1684	3091.3212	3116.4243	3166.7696	3189.2112
C1CC2=NC=CN=C2O1	C1Cc2nccnc2O1	
InChI=1S/C6H6N2O/c1-4-9-6-5(1)7-2-3-8-6/h2-3H,1,4H2	InChI=1S/C6H6N2O/c1-4-9-6-5(1)7-2-3-8-6/h2-3H,1,4H2
