19
gdb 61073	3.10128	1.10698	0.86472	3.6894	72.74	-0.2459	-0.0194	0.2265	1335.4854	0.157626	-460.172241	-460.16277	-460.161826	-460.208219	32.685	
C	-0.2413709211	 1.523612095	-0.0284249309	-0.419721
C	-0.1982421742	-0.0161549763	-0.048170787	-0.096707
C	-1.6138230762	-0.5512125555	-0.1693773251	 0.172172
O	-2.2610600602	-0.9831971731	 0.7473910151	-0.251113
C	 0.6541046003	-0.5235366853	-1.2055710452	 0.224407
O	 1.9891276938	-0.1120717519	-1.0509350127	-0.253235
C	 2.7521170972	-1.0612331567	-1.7816806684	-0.113028
C	 1.9797312655	-2.3745333167	-1.5587907545	-0.090428
O	 0.662424185	-1.9416467879	-1.2245770985	-0.27301
H	 0.7734521955	 1.924032847	 0.0237580309	 0.146974
H	-0.7175947204	 1.9203553855	-0.932320757	 0.12092
H	-0.8070008884	 1.8784387646	 0.8366817694	 0.135587
H	 0.2279714516	-0.397471207	 0.8838407379	 0.107158
H	-2.0504139371	-0.4725878358	-1.1934673141	 0.072161
H	 0.2584545951	-0.1536016482	-2.1728251469	 0.062728
H	 2.7863071983	-0.7947532815	-2.8484573844	 0.104022
H	 3.7682492845	-1.0705853724	-1.3831606616	 0.124645
H	 1.9574682626	-3.0050549933	-2.4544341117	 0.110774
H	 2.3873760383	-2.9580812704	-0.7253876752	 0.115695
39.3513	58.0575	73.4625	150.3034	186.8425	214.8958	279.7957	307.8102	392.4528	437.7718	574.3625	686.6328	741.1783	879.7898	895.3064	915.7087	945.5896	951.6342	987.5404	1028.8422	1067.1284	1104.016	1128.6669	1153.0352	1158.7056	1183.3264	1224.6725	1244.2184	1275.2011	1309.1816	1340.2034	1378.8525	1392.0787	1398.0831	1431.0536	1438.5869	1497.4526	1501.3898	1514.49	1532.0594	1839.7292	2847.286	2900.0487	2996.5795	3030.444	3038.636	3071.1625	3083.8211	3111.7149	3115.8978	3134.8942	39.352	58.0581	73.4636	150.3036	186.8426	214.895	279.7957	307.8103	392.4527	437.7717	574.3626	686.6328	741.1782	879.7899	895.3065	915.7088	945.5897	951.6342	987.5406	1028.8421	1067.1285	1104.0161	1128.667	1153.0353	1158.7057	1183.3264	1224.6728	1244.2181	1275.201	1309.1816	1340.2034	1378.8525	1392.0787	1398.0833	1431.0536	1438.5869	1497.4529	1501.3902	1514.4895	1532.0599	1839.7298	2847.2862	2900.0487	2996.5794	3030.4442	3038.636	3071.1625	3083.8211	3111.7149	3115.8978	3134.8942
CC(C=O)C1OCCO1	C[C@@H](C=O)C1OCCO1	
InChI=1S/C6H10O3/c1-5(4-7)6-8-2-3-9-6/h4-6H,2-3H2,1H3	InChI=1S/C6H10O3/c1-5(4-7)6-8-2-3-9-6/h4-6H,2-3H2,1H3/t5-/m0/s1
