17
gdb 37114	3.12518	1.82386	1.78469	2.1412	75.38	-0.2304	0.0183	0.2487	859.9087	0.139027	-380.780452	-380.774133	-380.773189	-380.810707	26.865	
C	-0.0515978311	 1.5796183118	 0.0185412539	-0.323833
C	 1.4137995894	 2.0039114318	 0.0875096297	-0.051663
C	 2.2724897551	 0.9839785977	-0.0321828109	-0.119575
C	 1.5302955608	-0.3015307808	-0.1370814768	 0.17961
N	 0.6908961729	-0.6248467935	 1.0292014041	-0.375066
C	 0.0537079913	 0.0674648008	-0.0893613144	 0.213603
C	-0.1976947615	-0.8575117509	-1.2677579465	-0.140159
N	 0.6528641526	-0.3883469393	-2.3895663472	-0.316681
C	 1.2548564793	-1.2200852373	-1.3163624886	-0.133023
H	-0.6132291412	 1.9057221289	 0.9012215828	 0.116829
H	-0.5468153973	 2.0047298432	-0.8623280961	 0.120457
H	 1.7021625541	 3.0375461227	 0.2536397118	 0.093698
H	 3.3523463413	 1.06791369	-0.0188224694	 0.09753
H	 0.4368644566	-1.6107365478	 1.0340794786	 0.22703
H	-1.0658147208	-1.4794557382	-1.457622156	 0.093068
H	 0.4732102108	-1.0045754715	-3.1855614978	 0.224815
H	 1.7160787076	-2.1725443078	-1.5520562172	 0.093359
193.491	227.2988	355.3265	419.4194	491.9988	559.6449	599.1081	664.821	687.613	750.8445	794.8792	802.536	840.267	844.4629	875.3836	922.8383	930.3701	945.2726	960.7541	1024.1267	1047.8616	1077.2797	1084.9286	1119.0555	1124.6967	1137.9797	1164.2883	1209.1485	1250.3656	1276.4415	1303.7265	1335.4845	1348.2795	1388.2563	1405.5488	1461.3539	1647.4653	3035.9965	3072.0063	3165.4331	3175.7184	3179.3345	3209.7721	3437.7143	3477.3588
C1C=CC23NC12C1NC31	C1C=C[C@@]23N[C@@]12[C@H]1N[C@@H]31	
InChI=1S/C7H8N2/c1-2-6-4-5(8-4)7(6,3-1)9-6/h1-2,4-5,8-9H,3H2	InChI=1S/C7H8N2/c1-2-6-4-5(8-4)7(6,3-1)9-6/h1-2,4-5,8-9H,3H2/t4-,5+,6+,7-/m1/s1
