23
gdb 86431	1.81845	1.60617	0.91096	1.1472	89.76	-0.2323	0.0278	0.2601	1374.7093	0.204771	-388.321134	-388.311385	-388.310441	-388.355221	37.304	
C	 0.0391797888	 1.5184073891	 0.078112059	-0.402328
C	 0.050907616	-0.0003328505	-0.009185828	 0.135802
C	 0.7838681752	-0.531424849	-1.2463852554	-0.294612
C	 1.0361749002	-2.0173428425	-1.1369852282	 0.287622
C	 1.4074375384	-2.7427765725	-2.3998866198	-0.476174
C	 0.9217237536	-2.6232006044	 0.0452329009	-0.155804
C	 0.5989437187	-1.8926688663	 1.3241186759	 0.097769
C	 1.5495823987	-2.267996554	 2.4595910251	-0.394722
O	 0.6777257589	-0.4830097459	 1.1716639276	-0.277049
H	 1.0622586697	 1.9013296344	 0.1477262902	 0.122355
H	-0.4351179555	 1.9525532166	-0.8074611515	 0.111035
H	-0.5096550799	 1.8467070317	 0.9647904083	 0.120323
H	-0.9888744763	-0.3714321127	-0.0399713158	 0.061539
H	 0.1898979281	-0.3180723648	-2.1456722	 0.09626
H	 1.7351026597	 0.0055361774	-1.3755407588	 0.105921
H	 2.3142607379	-2.3151889144	-2.8475920989	 0.123078
H	 1.5880416841	-3.8058958014	-2.2188595975	 0.118994
H	 0.6171043092	-2.652426855	-3.1564905565	 0.120616
H	 1.0697325524	-3.6977262021	 0.1319186036	 0.077737
H	-0.4305283818	-2.1610242922	 1.6334375456	 0.066756
H	 2.5814333865	-2.0343113612	 2.1821676025	 0.1229
H	 1.2949494846	-1.7061368312	 3.3623196092	 0.121398
H	 1.4796506927	-3.3370708293	 2.6819132725	 0.110585
100.9134	140.8455	157.0693	204.1011	228.3577	238.0312	253.6926	287.0673	408.3342	431.9918	445.0518	459.7922	480.947	542.4181	664.9528	831.4386	842.917	864.7867	882.9909	930.3381	945.631	977.1552	1021.5123	1044.7474	1072.3059	1099.2302	1111.393	1129.007	1166.8742	1186.2488	1201.2337	1242.6404	1302.0958	1341.7548	1347.2031	1360.3853	1395.4172	1399.6836	1402.3466	1411.4658	1418.4828	1467.5898	1478.8919	1483.5347	1484.0092	1491.2911	1497.3473	1500.452	1743.8308	2901.2412	2943.6189	2999.9042	3013.1146	3035.2212	3040.4386	3042.2154	3058.2439	3108.8405	3113.2786	3117.9046	3120.1546	3123.044	3146.8708
CC1CC(C)=CC(C)O1	C[C@H]1CC(=C[C@@H](C)O1)C	
InChI=1S/C8H14O/c1-6-4-7(2)9-8(3)5-6/h4,7-8H,5H2,1-3H3	InChI=1S/C8H14O/c1-6-4-7(2)9-8(3)5-6/h4,7-8H,5H2,1-3H3/t7-,8+/m1/s1
