15
gdb 28060	5.65663	0.96362	0.8276	2.616	70.85	-0.2196	-0.0057	0.2139	1323.802	0.113128	-454.014983	-454.00678	-454.005836	-454.04841	29.171	
C	-0.0305505668	 1.4798948839	-0.017769493	-0.489447
C	-0.0486368975	-0.005056427	 0.0103739304	 0.399836
N	-1.0643326912	-0.798289941	-0.1576958883	-0.374667
C	-0.5297678932	-2.0692911456	-0.0336421218	 0.328291
N	-1.370429661	-3.1694893347	-0.1633860313	-0.39769
C	-0.9642047158	-4.468076303	-0.0620720668	 0.14014
O	 0.1771883758	-4.8145453887	 0.1529092474	-0.309667
C	 0.8028079779	-1.9913060451	 0.2071532136	-0.110883
O	 1.1152292311	-0.6510517602	 0.235752644	-0.172359
H	 0.6381974675	 1.8493431422	-0.8018909158	 0.149884
H	-1.0398079241	 1.8449387693	-0.2084574988	 0.156415
H	 0.3233516083	 1.8861745355	 0.9352478625	 0.149879
H	-2.3405986047	-2.9602977877	-0.3443124847	 0.267193
H	-1.8039605988	-5.1739428335	-0.1999621554	 0.088807
H	 1.5899328924	-2.7013785043	 0.3653413682	 0.174269
71.1279	90.1304	156.6048	199.6909	263.6338	275.2189	409.0638	423.4847	570.4655	590.5849	657.8247	713.2877	728.2537	746.6699	876.3121	948.453	1014.7134	1017.6982	1045.1894	1065.9222	1124.2252	1150.9353	1227.1629	1287.4066	1353.3813	1413.1612	1427.6463	1475.2798	1480.7439	1531.7616	1624.3301	1654.0276	1797.0031	2965.1262	3045.6068	3100.497	3158.2146	3346.1801	3630.5451
CC1=NC(NC=O)=CO1	Cc1nc(NC=O)co1	
InChI=1S/C5H6N2O2/c1-4-7-5(2-9-4)6-3-8/h2-3H,1H3,(H,6,8)	InChI=1S/C5H6N2O2/c1-4-7-5(2-9-4)6-3-8/h2-3H,1H3,(H,6,8)
