20
gdb 11392	4.97375	1.15641	1.02477	1.2975	77.1	-0.2338	0.0286	0.2624	1195.307	0.177324	-349.016199	-349.00766	-349.006716	-349.049354	31.899	
C	-0.0301277044	 1.5944483599	-0.0004469971	-0.394838
C	 0.0296135401	 0.0631361294	 0.0284579018	-0.006627
C	 0.7901120061	-0.5613664251	-1.173548421	-0.250971
C	 1.5513491699	-1.7906698405	-0.6147872524	-0.012047
C	 2.9264768562	-1.9876260682	-1.2469729635	-0.085336
O	 3.5001274467	-3.1638536332	-0.6937783071	-0.423817
C	 1.5897663248	-1.5090781553	 0.8711626488	-0.071827
C	 0.7742332497	-0.5146181046	 1.2138718681	-0.076213
H	 0.9781327103	 2.0234873312	-0.0010509739	 0.113199
H	-0.5496943673	 1.952296682	-0.8958877277	 0.11113
H	-0.5619559863	 1.9886297728	 0.8722591969	 0.110508
H	-1.0062527525	-0.3105639225	 0.0440824347	 0.076535
H	 0.1302780825	-0.8133396073	-2.0081379737	 0.095025
H	 1.517175069	 0.1711378194	-1.5489150834	 0.093247
H	 0.9871554886	-2.7173114315	-0.7977889194	 0.084425
H	 2.82172655	-2.0722306353	-2.3412240403	 0.082399
H	 3.5512243666	-1.1031382733	-1.0410905211	 0.082758
H	 4.3883876648	-3.2624474205	-1.0481468921	 0.286183
H	 2.2015144295	-2.0957152137	 1.5462983454	 0.101309
H	 0.6122070556	-0.1559696737	 2.225765897	 0.084959
57.5118	119.2632	205.0244	225.1789	244.7577	267.024	312.0841	380.4629	443.661	558.9968	604.1429	736.5873	775.9741	847.2721	856.5667	898.9132	927.3082	980.1373	989.1357	1040.4652	1051.6762	1078.436	1109.4551	1122.9562	1130.142	1151.4642	1205.48	1241.3783	1248.7512	1291.2677	1314.261	1324.7186	1334.3895	1354.6034	1390.6048	1409.9312	1453.3628	1487.113	1497.2709	1499.7425	1520.5196	1684.8018	2957.4564	2974.5838	2982.0858	3001.3363	3022.2104	3026.3663	3088.7653	3095.3201	3096.5137	3174.2539	3212.3713	3832.0499
CC1CC(CO)C=C1	C[C@H]1C[C@@H](CO)C=C1	
InChI=1S/C7H12O/c1-6-2-3-7(4-6)5-8/h2-3,6-8H,4-5H2,1H3	InChI=1S/C7H12O/c1-6-2-3-7(4-6)5-8/h2-3,6-8H,4-5H2,1H3/t6-,7+/m1/s1
