17
gdb 125539	4.79747	1.09153	0.93495	0.932	77.45	-0.2344	0.0189	0.2533	1247.165	0.137061	-417.992962	-417.984752	-417.983808	-418.026272	30.146	
C	-0.2093027983	 1.485187899	 0.0660308647	-0.486663
C	 0.0515352996	 0.0103517834	 0.0747311114	 0.364294
N	 0.1418171328	-0.6620263846	-1.092627997	-0.354644
N	 0.4298925793	-1.8995804944	-0.6808619778	 0.087784
C	 0.5008259016	-3.3159032954	-1.0609188471	-0.207323
C	 0.5977348761	-3.5889956908	 0.5100602188	-0.009344
O	 1.7349015196	-4.2398049318	 0.9973328077	-0.413535
C	 0.4782025952	-2.0688785354	 0.6508968812	 0.333644
C	 0.2393970883	-0.8285542395	 1.2136843952	-0.486067
H	 0.6600754154	 2.0508229277	 0.4201919006	 0.128859
H	-0.43882011	 1.8151679873	-0.9492553548	 0.140444
H	-1.0519188481	 1.7447077108	 0.7154866615	 0.126701
H	-0.3991490771	-3.6929458408	-1.5544448676	 0.134683
H	 1.3923131125	-3.5896335293	-1.6319959022	 0.126375
H	-0.2603683288	-4.1498332047	 0.8879403636	 0.120073
H	 2.4977670766	-3.6722035392	 0.8391799021	 0.288872
H	 0.2019918352	-0.5377045722	 2.2504412599	 0.105847
68.7287	89.164	145.6354	233.2857	261.2131	336.5466	388.7603	454.7439	519.0727	603.7557	677.3145	699.985	770.7372	796.3977	834.3871	859.039	974.6231	1001.529	1020.4044	1062.3708	1065.3499	1130.2019	1146.9236	1163.2569	1199.6924	1256.1504	1287.9795	1329.6953	1369.796	1401.6437	1432.8062	1452.3239	1482.4635	1484.1519	1490.0622	1519.1664	1565.4669	3034.3713	3054.6795	3086.3522	3092.2489	3115.9011	3132.6309	3270.3259	3801.3438
CC1=NN2CC(O)C2=C1	Cc1nn2C[C@@H](O)c2c1	
InChI=1S/C6H8N2O/c1-4-2-5-6(9)3-8(5)7-4/h2,6,9H,3H2,1H3	InChI=1S/C6H8N2O/c1-4-2-5-6(9)3-8(5)7-4/h2,6,9H,3H2,1H3/t6-/m1/s1
