17
gdb 51186	4.3984	1.00767	0.92606	3.4228	68.68	-0.2455	-0.0004	0.2451	1251.2498	0.135609	-458.96433	-458.956335	-458.955391	-458.997354	29.663	
O	-0.0690489724	 0.0381112651	-0.4858165634	-0.268983
C	 0.0268709784	 1.2254731537	-0.4237002087	 0.154814
O	 1.0437112403	 1.8369907233	 0.2281913725	-0.233728
C	 1.0133069575	 3.2457338169	 0.2694697723	 0.381318
C	 1.2346422739	 4.0568368842	-0.9927305582	-0.386443
C	 2.2732161762	 4.033467195	 0.113776455	 0.058381
O	 2.317186097	 5.0761057865	 1.0436936586	-0.254619
C	 0.9969448428	 5.253174231	 1.5686746004	-0.094348
C	 0.27211988	 3.897674433	 1.4250528142	-0.305804
H	-0.6778001619	 1.9425216045	-0.8835154388	 0.086045
H	 1.494303474	 3.4976538601	-1.8852468613	 0.133316
H	 0.636402569	 4.9441048984	-1.1706172439	 0.127738
H	 3.238203651	 3.5746805704	-0.0615308254	 0.127074
H	 1.0904749784	 5.5865327566	 2.6047283028	 0.124076
H	 0.4725243933	 6.0371576738	 1.0057647291	 0.10674
H	-0.801812671	 4.0237081648	 1.2595147108	 0.112889
H	 0.4137791535	 3.2690325628	 2.3098041339	 0.131534
72.8356	137.2434	145.5128	223.6053	281.4475	359.2655	375.1291	447.2011	509.7055	669.5894	699.7996	755.9328	845.5705	874.1467	928.571	943.1651	973.0906	1007.6356	1009.2359	1031.842	1052.0696	1072.4216	1104.7782	1168.5972	1171.3367	1217.5606	1230.0503	1251.0362	1280.7465	1315.0424	1373.7336	1408.6831	1420.7853	1471.5053	1495.1781	1528.6378	1870.5465	2972.8709	3012.0335	3054.1307	3095.5324	3107.5064	3134.4985	3200.7063	3224.9694
O=COC12CC1OCC2	O=CO[C@]12C[C@H]1OCC2	
InChI=1S/C6H8O3/c7-4-9-6-1-2-8-5(6)3-6/h4-5H,1-3H2	InChI=1S/C6H8O3/c7-4-9-6-1-2-8-5(6)3-6/h4-5H,1-3H2/t5-,6-/m1/s1
