19
gdb 100899	2.49306	1.03673	0.8502	3.2918	74.2	-0.2517	0.024	0.2756	1407.6794	0.155887	-460.103911	-460.093415	-460.092471	-460.139613	37.599	
C	 0.1147973597	 1.2901814388	-0.3761148837	-0.240696
O	 0.0318962475	-0.0363591903	 0.1108195658	-0.249681
C	-1.2763475707	-0.5975595981	 0.101101373	-0.127609
C	-1.8183306788	-0.7215228083	-1.2560456165	 0.350253
C	-2.2689010642	-0.8174738067	-2.3659744939	-0.446783
C	-1.1373197464	-1.9663495151	 0.7980078024	 0.10098
O	-0.0964436607	-2.7253460537	 0.1984951288	-0.445878
C	-0.8687373811	-1.8297588898	 2.3026883071	-0.075464
O	-0.6304182193	-3.0995101002	 2.8692299563	-0.427503
H	 1.1617405893	 1.589975653	-0.2969079294	 0.134235
H	-0.2055594669	 1.3558663668	-1.4231741771	 0.129828
H	-0.5008063182	 1.9733668101	 0.2270429691	 0.112894
H	-1.9547968284	 0.0363077055	 0.6968128668	 0.100913
H	-2.6683254527	-0.9136659184	-3.3456526287	 0.203795
H	-2.059086426	-2.5375228016	 0.6500458826	 0.105616
H	 0.6231209953	-2.1015854982	 0.0306767046	 0.295406
H	-0.0196404714	-1.1451410794	 2.457058802	 0.09202
H	-1.7428715582	-1.4027042346	 2.8080226851	 0.100988
H	-0.0471777988	-3.5485527297	 2.2428445459	 0.286687
75.5599	95.3808	103.7568	132.6001	176.9565	213.0004	243.6517	269.7818	345.014	353.1143	424.5555	430.4497	524.7938	540.1112	592.8328	631.2434	681.8695	725.8359	872.9865	892.3442	981.3739	1021.9473	1087.5519	1095.0106	1110.859	1143.2236	1183.6498	1198.4068	1215.3131	1283.793	1297.6745	1341.2195	1355.5248	1392.7185	1434.2048	1443.3566	1480.0802	1485.3885	1510.1939	1512.7362	2233.248	2964.5405	2982.7818	2996.7505	3057.4569	3062.9923	3077.5768	3128.3745	3500.3245	3758.5782	3763.9032
COC(C#C)C(O)CO	CO[C@@H](C#C)[C@@H](O)CO	
InChI=1S/C6H10O3/c1-3-6(9-2)5(8)4-7/h1,5-8H,4H2,2H3	InChI=1S/C6H10O3/c1-3-6(9-2)5(8)4-7/h1,5-8H,4H2,2H3/t5-,6-/m0/s1
