15
gdb 57141	3.65092	0.74643	0.63856	1.5077	84.27	-0.2521	-0.0305	0.2216	1665.6671	0.10918	-420.532756	-420.523311	-420.522367	-420.567936	33.365	
O	 0.1164347704	 1.6248259132	-0.0109396559	-0.407442
C	 0.1192645832	 0.2011069713	 0.04317647	-0.131834
C	 0.6980599743	-0.3919049333	-1.1613768247	 0.402918
C	 1.2233402646	-0.8486114176	-2.1518276375	-0.260097
C	 1.80540325	-1.3670310403	-3.2666974116	 0.28537
C	 2.3236575659	-1.8248577464	-4.2563630688	-0.538064
C	 0.8346931816	-0.290635903	 1.2975309384	 0.083741
C	 0.1054368439	-0.4334850743	 2.5594585623	-0.176005
O	 0.457561785	-1.5769630326	 1.773258356	-0.224819
H	 0.9684927612	 1.9088332484	-0.360060665	 0.291777
H	-0.9324281444	-0.0988854209	 0.1252126778	 0.131914
H	 2.7772035337	-2.2310102387	-5.1263225149	 0.197077
H	 1.905959462	-0.0852087491	 1.3231341885	 0.100395
H	 0.6372841322	-0.3331141076	 3.5037353959	 0.121829
H	-0.9571732837	-0.1977242192	 2.5936535095	 0.12324
49.2852	78.6513	109.9047	186.1678	231.0948	255.5267	270.0944	339.8547	431.7688	459.6277	518.2341	536.6106	579.8612	597.7117	615.9948	767.5355	855.9245	879.8498	959.2565	1027.4423	1090.0843	1116.6865	1156.4685	1167.2712	1180.4318	1243.6535	1287.5558	1295.2444	1397.8182	1440.3906	1528.3201	2181.4057	2359.3032	3044.3028	3088.7985	3103.4045	3178.1772	3504.4932	3810.1971
OC(C#CC#C)C1CO1	O[C@@H](C#CC#C)[C@H]1CO1	
InChI=1S/C7H6O2/c1-2-3-4-6(8)7-5-9-7/h1,6-8H,5H2	InChI=1S/C7H6O2/c1-2-3-4-6(8)7-5-9-7/h1,6-8H,5H2/t6-,7+/m0/s1
