19
gdb 83286	2.72448	1.46811	1.29215	2.2068	70.88	-0.2171	0.0632	0.2803	1068.8099	0.159306	-460.127276	-460.118985	-460.118041	-460.159878	32.185	
C	 0.0534141789	 1.5102138586	 0.0059007695	-0.406371
C	 0.0634856692	-0.0071262711	-0.0525036596	 0.107188
C	 0.6187641772	-0.5427198965	-1.3674659266	-0.07325
O	 0.6445463444	-1.9647436564	-1.406885842	-0.26279
C	 0.9572195873	-2.6166754314	-0.215148953	 0.053561
C	 2.2649076294	-2.430651527	 0.5327282035	 0.0572
O	 3.2059906432	-1.5091901093	 0.0815762848	-0.425957
C	 0.9668089895	-1.8701006187	 1.0987459135	-0.041776
O	 0.8876377705	-0.4709324282	 1.0310991862	-0.280255
H	 1.0580021144	 1.9118185116	-0.1601316847	 0.12524
H	-0.6142340503	 1.9194172142	-0.7578740568	 0.123967
H	-0.2919561672	 1.8471181063	 0.9864859105	 0.132607
H	-0.9536183767	-0.4018247641	 0.0914891576	 0.08422
H	-0.0179637334	-0.2312618971	-2.2015955824	 0.109822
H	 1.6279341823	-0.1398095311	-1.5264478981	 0.108551
H	 0.5347108744	-3.6170227239	-0.2173731916	 0.107607
H	 2.7010208808	-3.3076580057	 1.0061410167	 0.095491
H	 2.9550329554	-0.6588565237	 0.4704118857	 0.288629
H	 0.5063771107	-2.2880753165	 1.9912265966	 0.096316
104.6774	158.2084	209.1337	219.8423	265.9977	298.3654	395.9868	450.6631	479.9673	503.8793	577.2932	668.2215	740.3698	742.1175	770.4819	868.3127	909.2583	922.6334	957.1999	1028.9343	1059.5542	1092.3127	1110.4871	1118.3934	1154.8074	1166.1606	1167.669	1183.6391	1257.9719	1278.3679	1326.3073	1341.7304	1350.5866	1376.6726	1396.7654	1412.5738	1416.4948	1443.0102	1484.653	1499.2642	1502.5397	2994.24	3020.9475	3044.8644	3082.8927	3117.1045	3119.1165	3126.8537	3128.183	3155.2442	3726.4916
CC1COC2C(O)C2O1	C[C@H]1CO[C@H]2[C@@H](O)[C@H]2O1	
InChI=1S/C6H10O3/c1-3-2-8-5-4(7)6(5)9-3/h3-7H,2H2,1H3	InChI=1S/C6H10O3/c1-3-2-8-5-4(7)6(5)9-3/h3-7H,2H2,1H3/t3-,4+,5-,6+/m0/s1
