20
gdb 124442	3.11973	1.2169	1.08498	3.874	80.31	-0.2493	0.0021	0.2514	1206.9919	0.170981	-399.343755	-399.334677	-399.333733	-399.377422	34.551	
C	-0.2684684645	 1.5119190003	-0.1116776273	-0.401258
C	 0.0179148197	 0.0003624693	 0.0204086005	 0.150554
C	 0.846105652	-0.2613538675	 1.2894425351	-0.41617
C	-1.3188816567	-0.7679092017	 0.1036069794	-0.401288
C	 0.7741148705	-0.463361219	-1.2020310329	 0.343818
C	 2.0154799146	-1.0450714113	-1.3276262979	-0.20427
N	 2.1589398329	-1.2381821035	-2.6613576208	-0.16307
N	 1.0813482494	-0.8083452241	-3.3398002266	-0.110981
N	 0.2465374398	-0.3402247327	-2.4595156713	-0.261902
H	 0.6627396869	 2.0868204511	-0.1465310655	 0.10864
H	-0.8270482152	 1.7187218371	-1.0278171628	 0.138378
H	-0.8558033803	 1.8656950804	 0.7425197855	 0.104833
H	 0.2974350166	 0.0749412515	 2.1747571015	 0.113973
H	 1.059118196	-1.3283665511	 1.4163154311	 0.110108
H	 1.7991388661	 0.278199303	 1.2647524554	 0.110081
H	-1.9045106172	-0.6201095827	-0.8070350046	 0.13842
H	-1.1477393308	-1.8425854595	 0.2246665836	 0.108653
H	-1.9081430218	-0.4181244503	 0.9581185545	 0.104821
H	 2.7736434778	-1.3256207493	-0.6174935455	 0.146113
H	 2.9319532042	-1.6413947498	-3.1659055713	 0.280546
51.0944	155.2663	195.3182	228.6838	281.7966	285.1349	325.3266	333.6436	338.7874	446.6403	475.0296	565.8335	589.8326	701.0212	755.9297	801.6731	832.1985	932.5511	941.1786	961.8638	989.4883	1017.9037	1040.9106	1051.7508	1057.5035	1133.6091	1202.126	1229.7906	1229.8352	1283.1672	1328.6786	1345.1279	1393.7588	1394.1163	1426.6658	1476.0125	1484.5678	1488.91	1490.129	1500.9717	1503.0585	1521.0213	1581.5102	3025.5487	3030.005	3035.9207	3093.0896	3098.1004	3098.1266	3104.213	3121.8999	3125.8611	3290.64	3659.2845
CC(C)(C)C1=CNN=N1	CC(C)(C)c1c[nH]nn1	
InChI=1S/C6H11N3/c1-6(2,3)5-4-7-9-8-5/h4H,1-3H3,(H,7,8,9)	InChI=1S/C6H11N3/c1-6(2,3)5-4-7-9-8-5/h4H,1-3H3,(H,7,8,9)
