20
gdb 121322	3.2585	1.02248	0.82458	2.1207	76.09	-0.2137	-0.0263	0.1874	1430.9099	0.170563	-440.291088	-440.281704	-440.28076	-440.326231	33.852	
C	-0.103778616	 1.5023051523	-0.0049161615	-0.385506
C	 0.1171030372	 0.0017958313	 0.0644380399	-0.049186
O	 0.5829036723	-0.43268693	-1.2116034954	-0.253104
C	 0.7909302279	-1.8133006786	-1.3260062736	 0.027024
C	 0.9169040479	-2.2517657946	-2.7942236358	-0.220668
N	 1.7492260674	-3.4679527532	-2.7963516682	-0.29595
C	 2.7501847996	-3.2695650439	-1.7399365231	-0.280637
C	 2.133230379	-2.2979445603	-0.7263904482	 0.370729
O	 2.6146112951	-1.9437811035	 0.3188631692	-0.308234
H	 0.8339617232	 2.0174797567	-0.2313482482	 0.12956
H	-0.8294842074	 1.7515776499	-0.7845232423	 0.122632
H	-0.4797560838	 1.8736906899	 0.9530875069	 0.116042
H	 0.8480261284	-0.2544474517	 0.8391884021	 0.126549
H	-0.8250982626	-0.5197711034	 0.3046144483	 0.081564
H	-0.0205933197	-2.3808940056	-0.8335755904	 0.080488
H	-0.0435549333	-2.4404835194	-3.2762521762	 0.113568
H	 1.4238253281	-1.4544321275	-3.3516703269	 0.12612
H	 1.1682143659	-4.2650208655	-2.5583718568	 0.224708
H	 3.0570657146	-4.2069292666	-1.2691463341	 0.133391
H	 3.6578050561	-2.8036495763	-2.1502268958	 0.140909
52.7467	67.1244	109.8722	156.4254	225.2765	249.7911	269.9664	360.7737	386.0365	473.4011	563.1754	619.9507	660.2138	724.8026	808.3195	824.6122	894.0873	911.1833	975.3098	988.4136	1051.4077	1070.5454	1101.7404	1109.9339	1147.7106	1177.5902	1187.6562	1195.0606	1267.5168	1282.9009	1296.0958	1304.4513	1326.6145	1368.8547	1402.1375	1435.8712	1457.3971	1463.9607	1483.3424	1499.2008	1501.597	1529.6891	1846.3848	2931.2352	2962.2131	3010.874	3040.6576	3044.5816	3065.35	3101.8405	3119.3061	3120.2736	3122.189	3520.9686
CCOC1CNCC1=O	CCO[C@H]1CNCC1=O	
InChI=1S/C6H11NO2/c1-2-9-6-4-7-3-5(6)8/h6-7H,2-4H2,1H3	InChI=1S/C6H11NO2/c1-2-9-6-4-7-3-5(6)8/h6-7H,2-4H2,1H3/t6-/m0/s1
