22
gdb 13623	3.44569	1.19023	1.04045	1.4038	78.54	-0.2525	0.0793	0.3318	1246.0092	0.198671	-350.194828	-350.185109	-350.184165	-350.229255	35.973	
C	 0.0089025584	 1.5490767968	 0.1764455531	-0.389994
C	-0.1000262712	 0.0218843795	 0.1222083291	-0.166323
C	-1.5069994714	-0.5110974843	-0.2099683136	 0.038303
C	-1.9757872198	-0.1207724669	-1.6204514653	-0.401018
C	-1.5516714329	-2.021786087	-0.0453569293	-0.003132
C	-1.7473354111	-2.648020044	 1.3227866318	-0.344814
C	-2.834626611	-2.7291642822	 0.2785364341	 0.084166
O	-3.9798525897	-1.9335073792	 0.4075250997	-0.417729
H	 1.0129058684	 1.8588337262	 0.4838819131	 0.108637
H	-0.1918860996	 2.0107180038	-0.7951857573	 0.117346
H	-0.7026762256	 1.9697344615	 0.8962534405	 0.111319
H	 0.6150620011	-0.3707818686	-0.6144728925	 0.086676
H	 0.2062079502	-0.3927143962	 1.090654207	 0.092587
H	-2.2147567041	-0.0789892864	 0.5082283914	 0.076712
H	-2.9849143809	-0.4995191219	-1.8036019475	 0.130039
H	-1.9949659492	 0.964437425	-1.7570273341	 0.108434
H	-1.3104298649	-0.5406467303	-2.3851527157	 0.10296
H	-0.8879789325	-2.5582592176	-0.721185468	 0.079391
H	-1.1999108827	-3.5467387662	 1.586426831	 0.106733
H	-1.9229016164	-1.9641100487	 2.1478157612	 0.1104
H	-3.0102830556	-3.696633465	-0.1924611894	 0.081878
H	-4.5093173293	-2.2889775385	 1.1285639708	 0.287428
62.6075	89.0957	133.5582	201.6909	218.4887	246.9538	282.3812	297.1793	355.5412	397.8995	408.0732	492.355	588.988	759.3431	783.639	832.063	844.6653	872.1073	958.8824	976.9772	985.2164	1010.2214	1035.201	1047.2587	1066.5527	1132.635	1154.1599	1176.1901	1182.9374	1203.643	1237.1549	1276.3651	1298.9211	1310.2538	1350.72	1374.2155	1404.6926	1407.1133	1414.9318	1427.8646	1484.1732	1486.8633	1497.4573	1499.1547	1507.2043	1512.808	3007.3956	3025.4385	3031.7984	3033.5823	3049.4558	3091.2819	3095.1223	3095.6877	3105.8281	3117.7064	3121.4294	3125.0363	3211.8038	3808.7128
CCC(C)C1CC1O	CC[C@@H](C)[C@H]1C[C@H]1O	
InChI=1S/C7H14O/c1-3-5(2)6-4-7(6)8/h5-8H,3-4H2,1-2H3	InChI=1S/C7H14O/c1-3-5(2)6-4-7(6)8/h5-8H,3-4H2,1-2H3/t5-,6-,7-/m1/s1
