22
gdb 103971	2.56057	1.3383	1.08399	2.5506	81.62	-0.222	0.0615	0.2835	1231.276	0.192712	-404.300069	-404.290413	-404.289469	-404.334094	37.065	
C	 0.2258913573	 1.3154940959	-0.743240462	-0.404593
C	 0.1669974049	-0.2075393129	-0.5715189351	-0.236978
C	 0.7858108013	-0.6956668722	 0.7388835163	 0.408821
O	 2.1787647294	-0.3923808579	 0.7690827602	-0.480266
C	 0.1215178323	-0.3901671353	 2.1149804676	-0.236318
N	 0.2060799796	-1.833777267	 2.5461459914	-0.15282
C	-0.6370571367	-2.6244249564	 1.6250150676	 0.019806
C	-2.0273271727	-2.247847161	 1.1629344295	-0.42921
C	 0.681196235	-2.1696689751	 1.1298272672	-0.097923
H	 1.2588883699	 1.6779568629	-0.778944204	 0.113547
H	-0.252435109	 1.6222346898	-1.6776702334	 0.121484
H	-0.2871977261	 1.8328997067	 0.0755792139	 0.118671
H	-0.8723353532	-0.540442954	-0.6403038668	 0.099269
H	 0.7075716554	-0.6930224967	-1.3929302114	 0.105874
H	 2.2746942157	 0.5634314402	 0.8330181007	 0.278817
H	 0.7645974658	 0.2162490422	 2.7557998899	 0.107043
H	-0.8893607602	 0.0293045782	 2.1198983063	 0.095045
H	-0.5978444232	-3.6668096092	 1.942509371	 0.098069
H	-2.1423096187	-1.1949273742	 0.9053044776	 0.123469
H	-2.3026870519	-2.8384159459	 0.2825912984	 0.125377
H	-2.7504537761	-2.4750086813	 1.9538514799	 0.125065
H	 1.5045912614	-2.8572029365	 0.9592127151	 0.097751
80.0189	126.5936	154.3607	212.8972	239.6827	250.1945	280.6246	307.4936	369.5712	408.6066	441.9842	487.4863	596.8932	647.9033	695.7178	778.9343	781.0959	848.1886	896.9539	913.582	954.1725	982.021	993.1139	1026.4924	1037.4938	1073.4292	1103.7386	1113.4031	1128.6995	1176.0392	1197.1688	1237.7268	1254.5371	1280.2017	1310.1061	1316.7821	1365.0308	1399.212	1408.1178	1413.964	1443.3803	1474.4311	1484.98	1498.3039	1504.4249	1506.0341	1511.6563	3029.6706	3038.985	3041.4803	3049.4074	3083.1846	3094.6479	3101.8516	3103.4316	3108.2328	3111.9179	3143.8795	3156.2915	3814.3239
CCC1(O)CN2C(C)C12	CC[C@@]1(O)CN2[C@@H](C)[C@@H]12	
InChI=1S/C7H13NO/c1-3-7(9)4-8-5(2)6(7)8/h5-6,9H,3-4H2,1-2H3	InChI=1S/C7H13NO/c1-3-7(9)4-8-5(2)6(7)8/h5-6,9H,3-4H2,1-2H3/t5-,6-,7+,8?/m0/s1
