17
gdb 30403	2.54344	1.5462	0.96743	5.7724	84.98	-0.1759	-0.0002	0.1757	1182.938	0.136985	-418.029948	-418.02148	-418.020536	-418.06272	32.237	
C	-0.0579107789	 1.3870271969	 0.0870132083	-0.315998
N	-0.0223202317	-0.0608649413	 0.0443669319	-0.319265
C	 0.5542368462	-0.6179071372	-0.9651125567	 0.251763
C	 1.1947809034	 0.0327890628	-2.1035892549	-0.231082
C	 1.7711512217	-0.6667780344	-3.110995966	 0.012761
N	 1.7812045838	-2.0283541144	-3.110137045	-0.331871
C	 1.1958397601	-2.7294761418	-2.0685050767	-0.129813
C	 0.6035993264	-2.086453953	-1.0323182363	 0.279418
O	 0.021379981	-2.7401845198	 0.0037231523	-0.410457
H	 0.9470214528	 1.840770934	 0.1055489456	 0.099286
H	-0.5923982275	 1.8290604881	-0.7703334733	 0.099238
H	-0.5770076981	 1.7074661608	 0.9951351894	 0.110382
H	 1.21360094	 1.1126802141	-2.1507598028	 0.10131
H	 2.2490323368	-0.1929514409	-3.9602307481	 0.123836
H	 2.2111686039	-2.533166647	-3.8641983174	 0.262889
H	 1.2438510455	-3.8097004329	-2.1385667466	 0.106548
H	 0.1058213544	-3.690359174	-0.1323793839	 0.291055
104.1137	160.6692	208.0694	221.4477	299.1091	316.6613	343.0621	381.3367	473.2398	495.472	548.3488	556.1689	591.7087	730.8865	756.8192	790.9181	815.5901	879.038	931.6597	1044.5866	1053.0159	1097.9064	1125.9375	1166.717	1197.3974	1256.4458	1269.6299	1310.9905	1421.375	1434.7608	1465.179	1492.8204	1504.4397	1547.9128	1633.8209	1664.1408	1693.8731	2951.0192	2992.6393	3082.7377	3195.1999	3200.1243	3230.0904	3684.8655	3807.4787
CN=C1C=CNC=C1O	CN=c1cc[nH]cc1O	
InChI=1S/C6H8N2O/c1-7-5-2-3-8-4-6(5)9/h2-4,9H,1H3,(H,7,8)	InChI=1S/C6H8N2O/c1-7-5-2-3-8-4-6(5)9/h2-4,9H,1H3,(H,7,8)
