15
gdb 53769	3.42603	0.66263	0.57968	5.4863	75.37	-0.2446	-0.0418	0.2028	1814.9764	0.111064	-453.94247	-453.932686	-453.931741	-453.979801	33.324	
O	-0.128423663	 0.5909064613	-0.9088310646	-0.291232
C	-0.3057704852	 1.6481392012	-0.3718454772	 0.346063
O	 0.734939709	 2.4705357787	-0.0835662213	-0.359106
C	-1.6002773139	 2.167180101	 0.022850386	-0.105004
C	-2.6939519713	 2.560190723	 0.3507267805	 0.084961
C	-4.0194001654	 3.0485235562	 0.7442544158	-0.271249
N	-4.3211107581	 4.4548780314	 0.5318834908	-0.240176
C	-3.5082422484	 5.1909800599	-0.1114222999	 0.121258
N	-3.7958570887	 6.4936465236	-0.4181512987	-0.501696
H	-3.0288853486	 7.1145178411	-0.6142856377	 0.257936
H	-4.5822016752	 6.902800781	 0.0641114974	 0.260495
H	-4.7786634338	 2.4453641999	 0.2264946006	 0.151355
H	-4.1557848789	 2.8253512551	 1.8118599038	 0.147847
H	 0.4026224701	 3.2557637718	 0.3696380331	 0.306265
H	-2.5449984686	 4.8495878349	-0.5086515687	 0.092283
12.1362	56.9678	91.834	140.0889	180.0006	248.6041	291.5291	347.5627	390.6103	410.182	511.1202	517.3866	581.9722	597.271	679.1261	765.7414	778.0882	933.8554	959.2563	1029.5778	1041.8208	1155.6606	1186.9713	1260.309	1299.2998	1313.0347	1342.9574	1411.9389	1465.5004	1629.5177	1766.5044	1849.7267	2329.1399	3007.0331	3024.524	3054.8945	3585.6865	3711.3391	3792.5393
[O-]C(=O)C#CCNC=[NH2+]	O=C(O)C#CCN=CN	
InChI=1S/C5H6N2O2/c6-4-7-3-1-2-5(8)9/h4H,3H2,(H2,6,7)(H,8,9)	InChI=1S/C5H6N2O2/c6-4-7-3-1-2-5(8)9/h4H,3H2,(H2,6,7)(H,8,9)
