22
gdb 110319	2.01587	1.50029	1.01542	2.0253	83.06	-0.1958	0.0727	0.2685	1273.0244	0.192578	-404.293441	-404.283608	-404.282663	-404.327705	37.095	
C	-0.0328056884	 1.3141286454	-0.2622192837	-0.368176
C	 0.4104069537	-0.151386414	-0.3456981916	-0.222222
C	 0.877705266	-0.705653152	 0.9865856381	-0.071503
C	 0.0344652743	-1.171703237	 2.1758501386	-0.095951
N	-1.1591773566	-1.9453360641	 1.8622646849	-0.057971
C	-2.3706636253	-1.3221507877	 1.3700173202	-0.328278
C	-0.3839010877	-2.8929293994	 1.0241126974	-0.251578
C	 0.9066390528	-2.1509458055	 1.411167439	 0.318136
O	 2.0442683134	-2.7989817907	 1.8600021377	-0.458706
H	 0.7772613088	 1.950823721	 0.1101876308	 0.113276
H	-0.331688737	 1.6950162312	-1.2439455032	 0.109457
H	-0.8819914891	 1.4308971616	 0.4187019331	 0.120256
H	-0.4039492765	-0.7588497609	-0.7515337965	 0.101972
H	 1.2340493322	-0.2387183688	-1.0679558742	 0.090917
H	 1.7665060895	-0.2016658395	 1.3711948654	 0.085429
H	 0.1665263609	-0.7423988018	 3.1641819378	 0.09506
H	-2.2727955388	-0.7968236986	 0.4053130542	 0.097649
H	-3.1502046549	-2.0842010191	 1.2587948479	 0.118013
H	-2.7236103009	-0.5971489018	 2.1111989682	 0.120572
H	-0.4178281468	-3.9157392546	 1.4154670092	 0.109955
H	-0.6423064201	-2.9078695157	-0.0438157565	 0.088387
H	 2.6683773404	-2.8535578582	 1.1285300033	 0.285307
81.1649	155.3146	178.3684	185.6299	203.496	229.7404	253.8744	286.4639	312.5211	364.8283	423.7795	491.83	604.6613	620.774	682.1784	752.3216	828.9246	866.0654	915.7187	952.2397	970.4739	984.2128	1021.3685	1058.8841	1081.8858	1112.8999	1118.7129	1143.021	1164.1037	1209.547	1231.6245	1237.4943	1268.5796	1293.2762	1295.0125	1335.2179	1346.6309	1377.6741	1409.7545	1450.5804	1476.5637	1480.8045	1493.6327	1497.3981	1504.2901	1509.3288	1514.7448	2965.4478	3001.6624	3011.8627	3032.1924	3052.7356	3060.2431	3073.1443	3092.8733	3096.1766	3103.9029	3106.4431	3157.5187	3800.3422
CCC1C2N(C)CC12O	CC[C@H]1[C@H]2N(C)C[C@@]12O	
InChI=1S/C7H13NO/c1-3-5-6-7(5,9)4-8(6)2/h5-6,9H,3-4H2,1-2H3	InChI=1S/C7H13NO/c1-3-5-6-7(5,9)4-8(6)2/h5-6,9H,3-4H2,1-2H3/t5-,6+,7+/m0/s1
