14
gdb 24878	3.37845	1.31714	0.94767	3.2369	87.37	-0.2148	-0.068	0.1468	1157.3329	0.101147	-399.5495	-399.541988	-399.541044	-399.581591	28.747	
N	 0.0343432564	 1.3084716494	 0.0093750261	-0.544973
C	-0.0113213884	 0.0400310721	 0.0031690041	 0.37966
O	 1.1740452462	-0.7056977939	-0.0072769019	-0.273577
C	 1.1701073025	-2.0677769819	-0.0141605862	 0.228687
C	 0.0197979371	-2.7820434824	-0.011356447	-0.246295
C	-1.2280378562	-2.0753116417	-0.0008111541	-0.073441
C	-1.2427733099	-0.7249229835	 0.0061314909	-0.142357
C	 2.4684160539	-2.6350254817	-0.0242797386	 0.239894
C	 3.5687532851	-3.1229792114	-0.032890409	-0.373491
H	 0.9997759958	 1.6380100232	 0.0056658865	 0.223993
H	 0.0652664235	-3.8617120598	-0.0170784893	 0.123236
H	-2.1555525302	-2.6374817313	 0.0015022056	 0.118774
H	-2.1563108532	-0.1452158721	 0.0141699622	 0.131192
H	 4.5402811075	-3.5526126949	-0.040488085	 0.208699
121.2054	139.1318	145.3606	330.8298	403.9489	436.1069	477.9096	529.2871	556.6929	606.0123	661.9845	683.9736	712.712	723.8207	813.5237	850.0881	879.1289	881.574	973.6546	1005.8923	1038.2995	1102.3017	1157.3898	1220.7465	1271.3418	1370.0123	1429.7734	1590.5576	1663.3545	1737.2818	2230.4336	3191.8747	3230.0653	3238.4498	3493.2454	3500.2507
N=C1OC(=CC=C1)C#C	[NH]C1=CC=C[C@@H](O1)C#C	
InChI=1S/C7H5NO/c1-2-6-4-3-5-7(8)9-6/h1,3-5,8H	InChI=1S/C7H6NO/c1-2-6-4-3-5-7(8)9-6/h1,3-6,8H/t6-/m0/s1
