20
gdb 60189	2.90296	0.89531	0.78253	3.1684	80.19	-0.2685	0.0317	0.3002	1511.5333	0.169665	-403.155601	-403.145737	-403.144792	-403.191091	36.048	
C	 0.0944479905	 1.5147565805	 0.0924413817	-0.40937
C	-0.0161888924	-0.0069523263	 0.1849002108	 0.139357
O	 0.3389558394	-0.4738968932	 1.484073634	-0.426634
C	-1.4077520653	-0.5085546779	-0.2375243265	-0.231897
C	-1.4972630425	-2.0170317007	-0.3057667685	 0.010246
C	-1.740859767	-2.841699158	 0.9167047325	-0.259978
C	-2.832081388	-2.744648869	-0.1413400675	-0.199066
C	-4.0274081679	-2.0022015084	 0.140689957	 0.286513
N	-4.9878544733	-1.3968799409	 0.3670647295	-0.347512
H	 1.0840290018	 1.842041067	 0.422115262	 0.126794
H	-0.0656592453	 1.8659263241	-0.9318239045	 0.120436
H	-0.6576044617	 1.997595988	 0.7294982868	 0.112831
H	 0.7347224217	-0.4584969867	-0.4764690082	 0.089005
H	-0.1999455338	 0.0059508975	 2.1231992395	 0.277776
H	-2.1566715724	-0.1181424319	 0.4641186416	 0.109242
H	-1.6576661031	-0.0832353038	-1.2177245009	 0.108211
H	-0.8559756373	-2.468983378	-1.0583903849	 0.100815
H	-1.2418915057	-3.7979012848	 1.0205194158	 0.129195
H	-1.9138896766	-2.3193134102	 1.8492512302	 0.132527
H	-2.9951847412	-3.6156506372	-0.7666843102	 0.131512
38.6081	86.2041	115.3038	183.3141	213.4401	246.3896	294.3672	313.0472	334.4738	402.5399	469.8297	482.5142	555.4981	624.2148	771.1517	813.502	843.3707	871.2289	882.4954	940.2813	960.421	990.2731	1046.099	1069.8518	1093.8533	1113.1521	1120.2174	1145.5569	1171.4922	1227.3827	1242.4589	1309.5712	1335.3961	1370.6236	1383.0821	1406.8343	1419.4072	1428.0828	1472.3643	1489.9901	1494.4138	1497.9073	2348.3563	3019.0792	3023.7347	3032.0139	3061.8772	3096.1086	3120.882	3140.7993	3151.9341	3171.448	3242.2252	3795.5793
CC(O)CC1CC1C#N	C[C@@H](O)C[C@H]1C[C@H]1C#N	
InChI=1S/C7H11NO/c1-5(9)2-6-3-7(6)4-8/h5-7,9H,2-3H2,1H3	InChI=1S/C7H11NO/c1-5(9)2-6-3-7(6)4-8/h5-7,9H,2-3H2,1H3/t5-,6+,7+/m1/s1
