18
gdb 105038	3.22131	1.10237	0.91513	2.8382	68.2	-0.2506	-0.0353	0.2153	1262.4982	0.145533	-476.190334	-476.180722	-476.179778	-476.225147	34.55	
O	 0.5916724814	 0.0594123766	 1.2155651978	-0.427652
C	-0.1672082917	 0.3746956748	 0.0575132227	-0.16292
C	-1.5538219007	-0.2236363013	 0.2172676041	 0.28453
C	-1.6993680946	-1.5255065786	 0.9098721576	-0.271577
N	-2.1500487925	-0.2722556297	 1.5568067331	-0.365628
C	-2.5060147771	 0.1949338183	-0.8999487548	-0.012338
O	-1.9758456747	-0.1293244389	-2.1588305441	-0.435338
C	-3.8915598226	-0.4077838432	-0.7424735256	 0.123262
O	-4.4032798554	-1.0220535387	-1.6493339688	-0.272174
H	 1.487994463	 0.3814151051	 1.0895180031	 0.298024
H	-0.2607570554	 1.4664878467	-0.066028849	 0.093478
H	 0.2903057764	-0.026491807	-0.8558382944	 0.125209
H	-2.4923423687	-2.2135816756	 0.6275679711	 0.120588
H	-0.7962876588	-1.9916573657	 1.2886908888	 0.132783
H	-1.4442261704	 0.0138184191	 2.2323016185	 0.247793
H	-2.6487270749	 1.2907647434	-0.8169079552	 0.092188
H	-2.6680623047	-0.648431356	-2.6007106297	 0.295283
H	-4.3947903385	-0.2412901692	 0.2249814347	 0.13449
59.7101	92.7423	123.9877	181.3207	204.8804	274.3834	280.4665	321.9717	357.1852	369.0297	442.5813	471.5068	604.4673	695.6807	770.6716	848.4009	870.5633	942.9579	957.6544	992.2209	1024.1486	1043.9316	1084.4386	1122.35	1144.8929	1157.3888	1210.3512	1245.2257	1256.7812	1288.142	1300.5213	1352.6211	1379.2972	1401.7497	1441.9158	1458.5144	1509.4027	1521.6301	1805.0028	2914.4501	2967.156	3004.5648	3041.6313	3114.0874	3210.5299	3498.4149	3669.8569	3850.219
OCC1(CN1)C(O)C=O	OC[C@]1(CN1)[C@@H](O)C=O	
InChI=1S/C5H9NO3/c7-1-4(9)5(3-8)2-6-5/h1,4,6,8-9H,2-3H2	InChI=1S/C5H9NO3/c7-1-4(9)5(3-8)2-6-5/h1,4,6,8-9H,2-3H2/t4-,5+/m0/s1
