14
gdb 99444	3.37473	0.72705	0.61433	4.9057	80.72	-0.2737	-0.0607	0.213	1690.6941	0.100813	-395.713656	-395.704294	-395.70335	-395.748769	31.976	
N	-0.0387834947	 1.4751588987	 0.0354805273	-0.512254
C	 0.0254285591	 0.0246918606	-0.0184333781	-0.157333
C	-1.4251895104	-0.5531457524	-0.0143242698	-0.3358
C	-2.1564859365	-0.0899903376	-1.2042433812	 0.297381
N	-2.6962124252	 0.3081231419	-2.1444084906	-0.312729
C	-1.4288908251	-2.0095045779	 0.0727957932	 0.098674
C	-1.3959514294	-3.2113454861	 0.1720089298	 0.096618
C	-1.3593021098	-4.5723976462	 0.2834880197	 0.212876
N	-1.3243199138	-5.7288917502	 0.3813026505	-0.324575
H	 0.865400404	 1.8586181038	 0.2860057925	 0.245409
H	-0.285758354	 1.859108996	-0.8715099656	 0.252315
H	 0.5582011414	-0.3979928988	-0.8831528195	 0.122926
H	 0.517093768	-0.3446486431	 0.8856615281	 0.135153
H	-1.9307329037	-0.1337123588	 0.8653885836	 0.181338
66.8582	78.8575	114.2102	165.7436	206.8633	229.1772	251.8516	359.4456	372.7828	449.0019	525.2155	561.5099	580.5013	593.2728	776.0608	830.4937	842.383	992.0841	1033.6546	1102.1772	1152.4349	1194.6472	1244.6743	1327.4699	1342.9404	1411.3295	1504.4314	1661.7783	2273.0838	2365.7649	2409.2177	2993.4975	3038.0491	3095.77	3510.9791	3593.5833
NCC(C#N)C#CC#N	NC[C@@H](C#N)C#CC#N	
InChI=1S/C6H5N3/c7-3-1-2-6(4-8)5-9/h6H,4,8H2	InChI=1S/C6H5N3/c7-3-1-2-6(4-8)5-9/h6H,4,8H2/t6-/m0/s1
