23
gdb 94834	3.41731	1.12423	0.98392	1.7337	85.63	-0.2555	0.079	0.3345	1312.2815	0.207069	-388.304155	-388.295458	-388.294514	-388.337116	34.722	
C	 0.0840494392	 1.5702660369	 0.0093389475	-0.403495
C	 0.0192572913	 0.0400912707	 0.0019559284	 0.051691
C	 0.6563743529	-0.546274195	-1.270060777	-0.190366
C	 0.60293705	-2.0829254553	-1.2890515501	-0.284968
C	 1.2189435555	-2.6555993548	-0.0274299012	 0.45309
C	 1.8943720053	-3.9572872801	-0.0428191168	-0.25284
O	 2.6574610672	-2.7465242229	-0.0458594106	-0.284185
C	 0.6346758457	-2.0965366249	 1.2552195268	-0.284968
C	 0.6878356654	-0.5597637255	 1.2513355404	-0.190364
H	 1.1242415967	 1.9167427713	-0.0017351964	 0.114521
H	-0.4164435671	 1.9951100012	-0.8674372866	 0.108494
H	-0.3944424675	 1.9856346871	 0.9027792733	 0.108494
H	-1.0413202394	-0.2572089859	 0.013600102	 0.063799
H	 0.1600468627	-0.1437919112	-2.1607369083	 0.087775
H	 1.7061511445	-0.227581391	-1.3230904998	 0.106851
H	-0.4422753362	-2.4151748487	-1.355338333	 0.095092
H	 1.1268914811	-2.4784626396	-2.1647283911	 0.0993
H	 1.9565681995	-4.5463859134	 0.8721784558	 0.106531
H	 1.9336491495	-4.5365553349	-0.9653330143	 0.106531
H	-0.4086029307	-2.4296126165	 1.3440011738	 0.095092
H	 1.1802570365	-2.5013493883	 2.1132729857	 0.0993
H	 1.7386539936	-0.2415244288	 1.2815541453	 0.106851
H	 0.2139483844	-0.1668908506	 2.158374046	 0.087775
82.6841	176.4435	203.575	236.5348	281.3986	322.9699	347.6849	408.6567	410.9991	455.5183	486.5508	592.0989	699.2707	782.2549	784.0175	843.1692	871.9622	934.7894	944.0244	952.0788	966.6736	982.5073	1023.5177	1026.6479	1100.4219	1100.6316	1127.4566	1137.4719	1164.368	1172.5752	1220.6526	1241.2152	1279.0381	1295.8304	1328.7003	1333.2984	1354.3049	1367.0936	1379.8082	1390.7502	1413.2405	1439.6472	1465.3713	1478.5681	1481.284	1496.2132	1500.1976	1500.8648	1532.4917	2978.2277	3012.5522	3018.2953	3018.4038	3020.8832	3026.4418	3060.9756	3064.556	3072.407	3078.6978	3081.6103	3091.3433	3095.1496	3155.6926
CC1CCC2(CO2)CC1	C[C@H]1CC[C@]2(CO2)CC1	
InChI=1S/C8H14O/c1-7-2-4-8(5-3-7)6-9-8/h7H,2-6H2,1H3	InChI=1S/C8H14O/c1-7-2-4-8(5-3-7)6-9-8/h7H,2-6H2,1H3/t7-,8+
