20
gdb 103684	3.69538	0.88192	0.84072	5.2277	78.11	-0.2395	0.0272	0.2667	1449.3811	0.169012	-440.297129	-440.287164	-440.28622	-440.333629	35.499	
C	 0.1788079294	 1.3947833548	 0.3069393812	-0.412499
C	 0.0984147494	-0.0862003318	-0.0789211334	-0.229204
C	 0.6016332233	-0.3909386245	-1.4896149947	 0.391851
O	-0.1330708704	 0.2783600743	-2.4883844636	-0.475198
C	 2.1663192352	-0.3240747048	-1.6619156486	-0.240233
N	 2.1487513419	-1.7724115919	-1.8556364225	-0.040679
C	 0.6947915695	-1.9062768277	-1.8276162552	-0.210685
C	 3.1093709828	-2.7127216494	-1.9722515491	 0.13323
O	 2.8975443192	-3.9016712389	-2.1019600853	-0.332979
H	 1.2005511042	 1.78182831	 0.223196191	 0.123664
H	-0.4714591039	 2.0158565244	-0.3200270464	 0.11572
H	-0.1458369245	 1.5445440771	 1.3401742309	 0.130488
H	 0.681210791	-0.6840292424	 0.6317003175	 0.109448
H	-0.9394945107	-0.4329248214	-0.0077283839	 0.113309
H	-0.1414014716	 1.2198020237	-2.2856599384	 0.282725
H	 2.4706684131	 0.2414496661	-2.5497501285	 0.113841
H	 2.7397808708	 0.0146051632	-0.7917082857	 0.109554
H	 0.3220629466	-2.5990124058	-1.066928083	 0.121957
H	 0.2555687565	-2.1549182933	-2.798392636	 0.130555
H	 4.1270229482	-2.2710594915	-1.9296906862	 0.065135
13.4824	88.3143	108.5843	170.6703	200.6899	242.246	270.5527	302.3269	353.1512	363.3559	422.2469	485.2002	547.1033	690.2649	786.9233	798.8215	883.2341	933.4601	949.0302	968.1269	1002.3844	1032.1696	1033.9402	1099.0653	1138.2555	1156.3159	1172.2761	1207.817	1267.5057	1279.6885	1290.5986	1314.1795	1354.5102	1389.0804	1407.4219	1415.9364	1457.715	1478.0174	1496.9407	1499.2044	1509.1588	1514.573	1791.3783	2915.0958	3022.0021	3027.6889	3032.9055	3048.1445	3067.0939	3074.014	3093.8737	3099.4922	3111.0719	3810.6002
CCC1(O)CN(C1)C=O	CCC1(O)CN(C1)C=O	
InChI=1S/C6H11NO2/c1-2-6(9)3-7(4-6)5-8/h5,9H,2-4H2,1H3	InChI=1S/C6H11NO2/c1-2-6(9)3-7(4-6)5-8/h5,9H,2-4H2,1H3
