19
gdb 63517	3.12929	1.27915	1.27516	2.5299	76.42	-0.2283	0.0693	0.2976	1098.8791	0.157114	-422.927324	-422.918899	-422.917955	-422.959918	33.165	
C	-0.0612191948	 1.5595247233	-0.0746368291	-0.452077
C	-0.0122062094	 0.0495211744	-0.0044502023	 0.282231
O	-1.1789008839	-0.5928975548	-0.4555051484	-0.468014
C	 1.3184595195	-0.6777719158	-0.2267006551	-0.455361
C	 0.6652560669	-0.6483772216	 1.1156746399	 0.446169
C	 1.1417785233	-0.2758996577	 2.52763096	-0.059545
C	-0.2453412158	-0.6977321717	 3.0780755848	-0.220389
C	 0.2500186982	-1.7691766024	 2.0744401939	-0.03405
O	 1.5971261826	-1.677811657	 2.7019658164	-0.312366
H	 0.8475832997	 2.0064262799	 0.3386926341	 0.120026
H	-0.1536141563	 1.8976143789	-1.114437259	 0.110725
H	-0.9217542884	 1.9442683552	 0.4823408249	 0.126801
H	-1.2582896461	-0.4298782268	-1.4025068111	 0.280775
H	 1.2774491762	-1.611837147	-0.7780081232	 0.117357
H	 2.2128731595	-0.0849762013	-0.3938696629	 0.112016
H	 1.813794349	 0.5177256669	 2.8543574142	 0.093974
H	-0.2430329585	-1.0137086639	 4.1219896008	 0.104835
H	-1.1173554913	-0.1008645376	 2.8012464193	 0.106149
H	-0.1440508705	-2.7600580909	 1.8546807028	 0.100742
135.1748	145.3283	149.203	234.275	299.9607	327.679	379.9408	417.5632	436.4236	497.0526	604.3042	652.033	726.972	780.8225	810.1847	867.2765	877.4163	901.4821	920.3276	968.0622	982.494	1012.6064	1030.4891	1055.667	1078.9047	1106.8993	1114.3563	1146.3785	1169.3507	1187.0833	1207.6411	1244.5729	1262.0487	1265.119	1333.0508	1408.998	1430.1516	1476.7177	1483.4737	1492.0918	1534.159	3022.8367	3067.527	3086.2153	3112.2099	3119.3085	3120.126	3136.8063	3151.6185	3209.5828	3785.0249
CC1(O)CC11C2CC1O2	C[C@@]1(O)C[C@]21[C@H]1C[C@@H]2O1	
InChI=1S/C7H10O2/c1-6(8)3-7(6)4-2-5(7)9-4/h4-5,8H,2-3H2,1H3	InChI=1S/C7H10O2/c1-6(8)3-7(6)4-2-5(7)9-4/h4-5,8H,2-3H2,1H3/t4-,5+,6-,7+/m1/s1
