20
gdb 126220	2.94628	1.1926	0.91686	1.8407	83.16	-0.1984	0.0328	0.2312	1335.8654	0.171348	-399.361117	-399.350895	-399.349951	-399.397147	36.111	
C	 0.1357146855	 1.5347981038	 0.2521479898	-0.365996
C	 0.0139201541	 0.0174975626	 0.0171825122	-0.307427
C	-1.3936601641	-0.4723073937	-0.0835508658	 0.363451
C	-2.1804706431	-0.7391476466	-1.1914130413	-0.011016
N	-1.762826356	-0.630669533	-2.5433327015	-0.617131
C	-3.4268743474	-1.1795867046	-0.6727544088	 0.314976
C	-4.6358029382	-1.6188974629	-1.4358516348	-0.506185
N	-3.4159148788	-1.1838583461	 0.6596754921	-0.299214
N	-2.1867695259	-0.7398467848	 0.9897630417	-0.275373
H	 1.1861797052	 1.8373273362	 0.307300281	 0.115024
H	-0.3375792921	 2.0960395608	-0.5593781673	 0.119058
H	-0.3515135035	 1.8326731767	 1.1861519602	 0.115238
H	 0.5194576669	-0.2506744493	-0.9167489675	 0.129679
H	 0.5358545966	-0.517151285	 0.8213031448	 0.103355
H	-1.7397132978	 0.3323317079	-2.8627416092	 0.238809
H	-2.3903939637	-1.1343821244	-3.1589553904	 0.237017
H	-4.4562488884	-2.5475631408	-1.991983173	 0.123026
H	-5.4634163808	-1.7969839148	-0.746081629	 0.14179
H	-4.9505616838	-0.861483086	-2.1636859783	 0.116921
H	-1.9448883346	-0.6599186761	 1.9623870851	 0.263998
41.9079	75.3309	97.2386	109.736	185.3156	225.319	251.5953	277.4803	321.4533	396.4778	467.607	498.64	577.1945	695.2083	711.7893	725.5309	752.149	791.2656	835.0424	959.11	997.41	1031.6685	1060.3528	1065.1838	1081.0207	1187.5157	1223.0323	1247.6529	1263.6128	1342.1105	1357.4391	1405.8903	1409.0682	1432.947	1476.8126	1481.3008	1487.6827	1496.2558	1502.3583	1510.8036	1532.2366	1631.2239	1663.1294	3021.0633	3023.0516	3035.0707	3066.99	3073.3483	3106.9821	3110.412	3129.201	3503.1854	3587.6512	3674.1494
CCC1=C(N)C(C)=NN1	CCc1c(N)c(C)n[nH]1	
InChI=1S/C6H11N3/c1-3-5-6(7)4(2)8-9-5/h3,7H2,1-2H3,(H,8,9)	InChI=1S/C6H11N3/c1-3-5-6(7)4(2)8-9-5/h3,7H2,1-2H3,(H,8,9)
