20
gdb 78560	2.75336	1.45969	1.16206	1.8579	80.3	-0.2314	0.0846	0.316	1136.3351	0.169278	-403.082314	-403.073535	-403.072591	-403.115256	33.898	
C	-0.0411516424	 1.5361977334	 0.0107004847	-0.325367
N	 0.1304638613	 0.0905267999	 0.1084420543	-0.120517
C	 1.3912862367	-0.5686911149	-0.1775102638	-0.199548
C	 2.5746310453	 0.2079502012	 0.365579151	 0.45719
C	 3.9819169313	 0.1223807326	-0.0188610492	-0.267478
O	 3.2058674845	 1.2966574313	-0.296745094	-0.276138
C	 1.9648427151	 0.247945145	 1.7778855003	-0.399648
C	 0.7768299773	-0.5743478663	 1.217266739	 0.32996
C	 0.0583646293	-1.6584285893	 1.9643552641	-0.484126
H	 0.8227024459	 2.1331420514	 0.3272412701	 0.129137
H	-0.2556116089	 1.785611708	-1.0326690259	 0.127267
H	-0.908339003	 1.8256673412	 0.6127514123	 0.118134
H	 1.4215049782	-1.3354073204	-0.9456150667	 0.089601
H	 4.7564362379	 0.2412939758	 0.7382178715	 0.114167
H	 4.2735662268	-0.4601690092	-0.8926125729	 0.115402
H	 2.5595674916	-0.3092043718	 2.5066256469	 0.110288
H	 1.7317226606	 1.2343281234	 2.1880815	 0.110192
H	-0.5566216155	-1.236876053	 2.7685459392	 0.122364
H	-0.6020792797	-2.2100452352	 1.2907223033	 0.132786
H	 0.7656700677	-2.3592572831	 2.4207096061	 0.116332
105.8894	167.172	198.3061	213.0331	240.0349	270.9065	323.7888	369.1237	406.6275	479.9397	500.2813	613.1571	690.2744	716.8872	814.9985	850.0956	897.6148	917.8557	937.4426	963.1397	982.0033	1015.5733	1103.628	1117.4866	1122.8948	1145.455	1153.6023	1165.2318	1183.3901	1189.8188	1214.7333	1238.4172	1258.9523	1398.9595	1431.1378	1433.427	1457.2467	1479.7789	1484.468	1493.038	1495.2986	1508.3056	1536.2503	3024.1497	3028.193	3058.1594	3075.2131	3086.5283	3089.0494	3107.1847	3108.7015	3122.1865	3158.252	3161.0401
CN1C2C3(CO3)CC12C	CN1[C@H]2[C@]3(CO3)C[C@@]12C	
InChI=1S/C7H11NO/c1-6-3-7(4-9-7)5(6)8(6)2/h5H,3-4H2,1-2H3	InChI=1S/C7H11NO/c1-6-3-7(4-9-7)5(6)8(6)2/h5H,3-4H2,1-2H3/t5-,6-,7-,8?/m1/s1
