16
gdb 64853	2.71951	1.26464	1.00008	4.4329	75.34	-0.28	-0.0112	0.2688	1192.3754	0.12182	-400.707617	-400.698663	-400.697719	-400.741828	32.759	
C	-0.3664749763	 1.6358353595	 0.0054896761	-0.438181
C	 0.0784908268	 0.1812913037	-0.0818250393	 0.211659
C	 0.9131252879	-0.210973092	-1.338941172	-0.345742
C	 2.0659922666	-0.4514346876	-0.3357970624	-0.007063
O	 1.2485940381	-0.0524475251	 0.7770905946	-0.300132
C	 2.5478249325	-1.8323678212	-0.2260483991	 0.284315
N	 2.939331559	-2.91748737	-0.1599661417	-0.314126
C	-1.006420265	-0.7377122609	 0.2371875508	 0.343272
C	-1.9091602393	-1.49015498	 0.487405084	-0.455106
H	 0.4678020109	 2.2998562767	-0.236837617	 0.122507
H	-1.1887928285	 1.8240879695	-0.691200437	 0.135239
H	-0.712288471	 1.859957364	 1.0177929167	 0.146516
H	 0.5651284587	-1.0939664798	-1.8707585018	 0.149419
H	 1.0880292769	 0.6071882307	-2.0376631703	 0.128906
H	 2.9329734088	 0.2086286928	-0.4542188845	 0.129207
H	-2.6989307959	-2.1633471503	 0.7150546227	 0.20931
33.4532	145.4736	173.2956	190.653	229.6624	237.9273	335.1199	381.3999	485.6953	527.4288	544.8936	575.3522	636.0913	655.0612	679.1863	774.3985	862.7101	890.5129	935.2378	964.9748	1008.1749	1044.0125	1103.0302	1129.0303	1194.8705	1259.372	1266.8294	1275.3305	1369.2152	1405.2233	1477.5474	1484.1848	1489.8559	2236.673	2357.6512	3042.9409	3044.4476	3101.4738	3122.5934	3130.1264	3172.0305	3499.4824
CC1(CC(O1)C#N)C#C	C[C@]1(C[C@@H](O1)C#N)C#C	
InChI=1S/C7H7NO/c1-3-7(2)4-6(5-8)9-7/h1,6H,4H2,2H3	InChI=1S/C7H7NO/c1-3-7(2)4-6(5-8)9-7/h1,6H,4H2,2H3/t6-,7-/m1/s1
