18
gdb 128478	3.14546	1.25998	0.91505	2.1467	76.63	-0.2155	0.0186	0.2341	1281.8457	0.145712	-439.090096	-439.080409	-439.079465	-439.12515	33.619	
C	-0.0960874118	 1.4222947236	-0.0246536294	-0.250512
O	-0.0153113761	-0.0064911372	-0.0006916053	-0.269242
C	-1.1629510154	-0.6798946429	 0.0061978439	 0.498944
C	-1.3723088526	-2.0286780783	 0.0266056057	-0.09093
C	-0.3558240958	-3.1251651506	 0.046723566	-0.517153
C	-2.7961955811	-2.109877651	 0.0236268755	 0.356575
C	-3.6390399339	-3.344144661	 0.0403768504	-0.493021
N	-3.3779371542	-0.9308571114	 0.0033811073	-0.240552
O	-2.3134310405	 0.0016076274	-0.0079009746	-0.238363
H	 0.9357588802	 1.7731916909	-0.0267149305	 0.141222
H	-0.6133898674	 1.769626109	-0.9238047702	 0.144965
H	-0.6198857585	 1.7991745432	 0.8586858219	 0.145003
H	-0.4514643144	-3.7563673416	 0.9380511897	 0.128224
H	-0.4452443427	-3.7830208148	-0.8257836726	 0.128228
H	 0.6539315832	-2.7069330155	 0.0439597539	 0.137753
H	-3.4346446805	-3.9459080401	 0.9325095454	 0.134959
H	-4.6970720991	-3.0755007066	 0.0333667362	 0.148933
H	-3.4298783096	-3.9730972029	-0.8316731834	 0.134967
61.0391	92.3004	138.3708	147.7738	187.7679	190.079	222.5499	282.8025	343.7241	380.7005	542.6692	580.587	650.2659	714.9599	723.8004	757.0227	906.3977	959.1311	1023.6431	1040.4255	1054.8891	1077.817	1162.9228	1177.3451	1201.4814	1232.3033	1346.1399	1406.7147	1421.8623	1451.2036	1472.6204	1479.3053	1485.5006	1489.3253	1495.0989	1500.694	1506.8853	1557.3429	1700.2555	3024.0826	3038.4529	3041.948	3070.1682	3092.9552	3114.0584	3117.0904	3138.5618	3157.0269
COC1=C(C)C(C)=NO1	COc1c(C)c(C)no1	
InChI=1S/C6H9NO2/c1-4-5(2)7-9-6(4)8-3/h1-3H3	InChI=1S/C6H9NO2/c1-4-5(2)7-9-6(4)8-3/h1-3H3
