13
gdb 25104	3.10064	1.56481	1.19289	4.7205	69.14	-0.2632	-0.0826	0.1806	982.4026	0.091772	-448.958868	-448.951821	-448.950876	-448.990738	26.137	
N	 0.0855328448	 1.3333746945	 0.0385061654	-0.503685
C	 0.061175044	 0.0651099182	 0.1621344198	 0.345345
N	-1.1620254276	-0.5275375565	 0.4960200124	-0.317833
C	-1.462433525	-1.851872781	 0.7131939895	 0.101514
N	-0.683969918	-2.8057399258	 1.0453353929	-0.261654
C	 0.6568731864	-2.5344933881	 1.3546751848	 0.370257
O	 1.1524396759	-2.8133326947	 2.411615357	-0.289131
N	 1.4538356311	-1.997723131	 0.3073317848	-0.199389
C	 1.2022996769	-0.8455212303	-0.1593090804	-0.044817
H	 1.0028300265	 1.654301841	-0.2678635638	 0.239103
H	-1.933366307	 0.1271986703	 0.4635462457	 0.273444
H	-2.5252287146	-2.0639081282	 0.5944941919	 0.144767
H	 1.8885351168	-0.4317084686	-0.9028342201	 0.142078
83.8511	128.7652	269.8836	327.4289	360.6212	436.8709	494.4483	580.5587	628.1832	659.9112	717.6425	756.908	822.787	843.9477	898.3206	915.3205	963.1209	985.8297	1066.0728	1125.8919	1221.5754	1383.3944	1411.886	1447.4338	1486.4308	1686.6381	1703.3338	1729.5579	1827.674	3098.4808	3135.441	3502.9492	3582.0499
N=C1NC=NC(=O)N=C1	[NH][C]1NC=NC(=O)N=C1	
InChI=1S/C4H4N4O/c5-3-1-6-4(9)8-2-7-3/h1-2H,(H2,5,7,8,9)	InChI=1S/C4H4N4O/c5-3-1-6-4(9)8-2-7-3/h1-2H,(H2,5,7,8,9)
