18
gdb 68430	2.67443	1.61711	1.25064	4.6122	75.57	-0.2389	0.0278	0.2666	1029.0104	0.150609	-398.102466	-398.094796	-398.093852	-398.134379	30.484	
N	-0.0696953288	 1.4409466257	 0.1383338542	-0.607422
C	 0.0380697116	 0.0206361024	 0.0374160682	 0.319152
C	 0.8809801267	-0.826320857	-0.9787010907	-0.235602
N	 0.7861929383	-1.9337172007	 0.0444629087	-0.114672
C	 0.8081881088	-0.8304020662	 1.0817685197	-0.211371
C	-0.6709715493	-2.2125317133	-0.0100890757	-0.187681
C	-1.3021933415	-0.7609712393	-0.0366304837	-0.201947
C	-2.2207449159	-0.489975997	 1.0603324393	 0.287587
N	-2.9566287303	-0.3048322381	 1.9328981343	-0.33416
H	 0.8424011852	 1.8837474969	 0.1071983915	 0.235761
H	-0.6307476975	 1.8354623094	-0.6097394306	 0.234939
H	 0.4702354204	-1.0655691878	-1.9650477345	 0.098907
H	 1.9126900216	-0.4782882942	-1.069796115	 0.108546
H	 1.8329238725	-0.4890792015	 1.2452073156	 0.110697
H	 0.327767788	-1.0662232257	 2.034729872	 0.12716
H	-0.915797874	-2.7812730394	-0.909349829	 0.11917
H	-0.9837702522	-2.7813981671	 0.866722578	 0.135381
H	-1.8228078137	-0.559718407	-0.9788675321	 0.115557
118.9818	144.5378	239.0414	291.8582	336.4853	392.2908	457.4365	483.2047	526.9038	585.5304	636.8482	696.49	785.1292	814.6056	847.3033	867.4997	888.7447	959.8371	967.6153	1001.4312	1011.3094	1040.9919	1053.9514	1098.2239	1122.3144	1194.3409	1213.9777	1219.3323	1250.462	1253.9253	1311.9389	1331.2264	1351.1714	1363.1562	1494.6693	1500.5498	1533.8655	1656.1972	2352.6966	3045.1898	3053.0804	3064.995	3080.4756	3114.9449	3127.7887	3136.873	3504.3345	3585.7826
NC12CN(C1)CC2C#N	N[C@@]12CN(C1)C[C@H]2C#N	
InChI=1S/C6H9N3/c7-1-5-2-9-3-6(5,8)4-9/h5H,2-4,8H2	InChI=1S/C6H9N3/c7-1-5-2-9-3-6(5,8)4-9/h5H,2-4,8H2/t5-/m1/s1
