12
gdb 5360	5.65032	1.62069	1.25944	2.7979	65.01	-0.2559	-0.0904	0.1655	873.3946	0.085654	-377.569821	-377.563655	-377.56271	-377.600466	22.098	
O	-0.0869870852	-0.0189289212	-0.0011750589	-0.238096
C	 0.000425005	 1.1807156888	 0.0077364208	 0.106236
C	 1.2842080172	 1.9448991083	-0.0000344581	 0.209858
C	 1.2559591045	 3.3405849194	 0.012097487	-0.036376
N	 2.3678096132	 4.0805561583	 0.0061757139	-0.234747
C	 3.5120576122	 3.3998973605	-0.0121979428	 0.003558
C	 3.5467163069	 2.0000510117	-0.0245235963	-0.013326
N	 2.4412753341	 1.2667666586	-0.0185584338	-0.265965
H	-0.9026619478	 1.8316247543	 0.0224809414	 0.080291
H	 0.3089821703	 3.8759699966	 0.0269478772	 0.128559
H	 4.4322514157	 3.9785520402	-0.0172704284	 0.130737
H	 4.495392654	 1.4691660745	-0.0395022819	 0.129273
99.0349	217.1969	219.353	397.1923	441.2399	477.7089	628.952	714.2222	779.3064	865.1607	870.6306	974.2194	1007.6416	1032.0094	1036.1792	1072.5394	1197.4874	1236.8124	1247.838	1330.8143	1418.6737	1445.4213	1504.2668	1578.9854	1610.7673	1824.4646	2880.2406	3155.759	3157.5407	3175.9674
O=CC1=CN=CC=N1	O=Cc1cnccn1	
InChI=1S/C5H4N2O/c8-4-5-3-6-1-2-7-5/h1-4H	InChI=1S/C5H4N2O/c8-4-5-3-6-1-2-7-5/h1-4H
