19
gdb 69942	3.83796	1.35865	1.17991	1.6038	81.5	-0.2211	0.0155	0.2366	1083.2282	0.16027	-385.851884	-385.844341	-385.843396	-385.883388	30.999	
O	 0.080172087	 1.4121731252	 0.0957298589	-0.469726
C	 0.0494476022	 0.0178839006	 0.059303271	 0.392377
C	-0.4328761933	-0.6948041143	-1.18697573	-0.347565
C	-1.288504241	-0.7347252999	 0.0645265058	-0.124056
C	-1.136882808	-1.8564419273	 1.0691474937	-0.040515
C	-0.8713241451	-3.3883095964	 0.8026551558	-0.247623
C	 0.4074451626	-3.2986327923	 1.7167016185	-0.307158
C	 0.3222958136	-1.8103504789	 1.4592832988	 0.274416
C	 0.9940218467	-0.8084875011	 0.8900281919	-0.318999
H	 0.7247379586	 1.7149222127	-0.5524904366	 0.280953
H	-0.8214478119	-0.0635481519	-1.9804763346	 0.109381
H	 0.0918249966	-1.5833949354	-1.5231677879	 0.107291
H	-2.202348147	-0.1539029653	 0.0373759584	 0.091789
H	-1.8306655611	-1.7460413743	 1.9104312017	 0.078037
H	-1.6548100305	-4.0808937905	 1.117887696	 0.102382
H	-0.6054241912	-3.5832474829	-0.2385244297	 0.111539
H	 0.1752789659	-3.5774699623	 2.7499295385	 0.111593
H	 1.3093610839	-3.8257446304	 1.398361143	 0.108357
H	 2.0702744518	-0.6801999151	 0.8477020967	 0.087527
159.9586	182.2309	223.7617	292.9877	323.9981	401.4366	465.5513	492.91	578.1644	650.5491	682.2426	738.424	790.0068	809.2156	846.1932	874.5896	890.1632	906.1767	934.0861	950.3949	978.9925	1026.5174	1060.3807	1062.6119	1082.6576	1100.3463	1114.5072	1177.7806	1204.0284	1223.6484	1227.8686	1248.1339	1255.7351	1297.2411	1335.9612	1348.7132	1387.6595	1468.3929	1475.8391	1486.2713	1705.665	3035.218	3048.7895	3065.2132	3107.5071	3118.4361	3129.5129	3186.2444	3187.2184	3209.3029	3800.8427
OC12CC1C1CCC1=C2	O[C@]12C[C@H]1[C@H]1CC[C]1[CH]2	
InChI=1S/C8H10O/c9-8-3-5-1-2-6(5)7(8)4-8/h3,6-7,9H,1-2,4H2	InChI=1S/C8H10O/c9-8-3-5-1-2-6(5)7(8)4-8/h3,6-7,9H,1-2,4H2/t6-,7-,8+/m0/s1
