16
gdb 128611	2.75936	1.3242	0.90507	2.2819	68.45	-0.2259	0.0066	0.2326	1254.3947	0.123379	-474.987192	-474.978535	-474.977591	-475.020961	30.62	
C	-0.0542061014	 1.3386098513	-0.0527217227	-0.255049
O	-0.0052546492	-0.0780872217	-0.020748802	-0.25274
C	 0.6303210188	-0.5971767663	 1.04715075	 0.127827
C	 1.2463188035	-0.0352031288	 2.1197187599	-0.048455
O	 1.7397790925	-1.0006239818	 2.9291465115	-0.192653
N	 1.4463446107	-2.2492764519	 2.3835101053	-0.2452
C	 0.7924398304	-2.0031726409	 1.2746348148	 0.405941
O	 0.3296227346	-2.9434334698	 0.4505376453	-0.259952
C	 0.5896391762	-4.2928522578	 0.8468842787	-0.243165
H	 0.9567962101	 1.7670916489	-0.0802995962	 0.125771
H	-0.5915792133	 1.6134596364	-0.960922554	 0.143545
H	-0.5864892129	 1.7341294928	 0.8229032317	 0.125777
H	 1.4117171797	 0.9801289793	 2.4380918947	 0.147605
H	 1.6665014068	-4.4737171006	 0.9194590395	 0.142872
H	 0.1311328903	-4.5058037297	 1.8174729258	 0.142859
H	 0.1491492732	-4.9196681093	 0.0713914477	 0.135019
80.2869	123.6897	157.3104	175.9007	213.7768	259.068	294.3734	355.2118	430.0949	575.5326	589.8968	648.9398	732.8021	768.2779	777.7477	907.7169	969.556	1041.2585	1078.4983	1146.6689	1180.1814	1181.6604	1217.1064	1218.9714	1286.415	1305.3031	1452.7995	1472.5718	1477.2444	1480.1597	1486.6444	1500.6833	1506.0995	1595.0009	1684.8144	2999.964	3039.1059	3057.3898	3109.2378	3144.2774	3154.7085	3280.1419
COC1=CON=C1OC	COc1conc1OC	
InChI=1S/C5H7NO3/c1-7-4-3-9-6-5(4)8-2/h3H,1-2H3	InChI=1S/C5H7NO3/c1-7-4-3-9-6-5(4)8-2/h3H,1-2H3
