22
gdb 8951	3.83256	1.06166	0.88244	0.2161	74.73	-0.2571	0.073	0.3301	1357.6007	0.197659	-387.341586	-387.331016	-387.330072	-387.376954	37.99	
C	 0.078459943	 1.5883715073	 0.0759391875	-0.378375
C	-0.0271101718	 0.0638448591	-0.0199395843	-0.197663
C	 0.6952031337	-0.5111887128	-1.2458841177	 0.128896
O	 2.0604375729	-0.0825648452	-1.2726799533	-0.432054
C	 0.594879141	-2.0459725126	-1.3632770618	 0.018122
C	-0.8526287575	-2.5580756961	-1.395793075	-0.4087
C	 1.3602449968	-2.5345601038	-2.596992557	-0.083203
O	 1.3981508901	-3.9567767488	-2.5602654471	-0.426564
H	 1.1237522991	 1.9063168198	 0.0867751544	 0.125329
H	-0.4032199308	 2.0691767013	-0.7828215974	 0.113358
H	-0.4076901489	 1.9607822171	 0.9826585838	 0.107523
H	 0.395751871	-0.3995347096	 0.8843967626	 0.083642
H	-1.0810194202	-0.2311840566	-0.048563725	 0.104027
H	 0.2592340006	-0.0633072694	-2.1504972933	 0.082252
H	 2.4891508839	-0.4405840728	-0.486499102	 0.275408
H	 1.0980469421	-2.4822877571	-0.4862212798	 0.067685
H	-0.8584633144	-3.6238403695	-1.6337945579	 0.137378
H	-1.3629006807	-2.4207697445	-0.4393133405	 0.112654
H	-1.4341792465	-2.0370569678	-2.1666158413	 0.107468
H	 0.8486780292	-2.1757196186	-3.5066947629	 0.078149
H	 2.3700792981	-2.1072926305	-2.5944566108	 0.099025
H	 1.8769936994	-4.2618848289	-3.335795741	 0.285642
64.2153	86.3221	117.1543	162.9289	210.6983	232.907	245.0434	285.5082	292.4135	312.7734	345.713	381.3631	435.5082	511.4297	561.2972	782.1742	849.8862	876.0596	933.5047	954.1898	986.0158	1039.63	1062.6576	1074.1681	1102.3378	1131.576	1141.9345	1169.6883	1225.8155	1260.5883	1261.8361	1293.4614	1331.7216	1350.8884	1370.5093	1388.3201	1400.6933	1407.6086	1417.4619	1453.4317	1482.0033	1495.1593	1496.0106	1509.329	1510.046	1527.3173	2955.2442	2987.2394	2995.7977	3016.6981	3031.2874	3037.9448	3046.3328	3073.8833	3100.9393	3103.7322	3125.7732	3131.2152	3788.7969	3836.1765
CCC(O)C(C)CO	CC[C@@H](O)[C@@H](C)CO	
InChI=1S/C6H14O2/c1-3-6(8)5(2)4-7/h5-8H,3-4H2,1-2H3	InChI=1S/C6H14O2/c1-3-6(8)5(2)4-7/h5-8H,3-4H2,1-2H3/t5-,6+/m0/s1
