20
gdb 105895	2.29708	1.74534	1.21252	2.9142	79.38	-0.2229	0.0644	0.2873	1090.7268	0.170397	-403.046072	-403.037528	-403.036583	-403.07913	32.82	
C	-0.1523558917	 1.5643016067	-0.0253148992	-0.412703
C	-0.0199290747	 0.0578234899	 0.0619377464	 0.016739
N	 1.1815646347	-0.5643421223	-0.6582073468	-0.177676
C	 2.0789952553	-0.2774401972	 0.5808666549	-0.043708
C	 2.5764481683	-1.7250861491	 0.6054631121	-0.27013
C	 1.0819239244	-1.7942039701	 0.28401661	-0.0561
C	 0.6972571152	-0.617488932	 1.2344420208	 0.344264
C	 0.3358138868	-0.6634681243	 2.692798408	-0.236851
O	 0.3500015521	 0.6725175805	 3.1818503704	-0.419057
H	 0.7653688108	 2.0733570744	 0.2815845865	 0.120369
H	-0.3863031966	 1.8673267263	-1.0513363942	 0.118178
H	-0.9568311132	 1.912999833	 0.6294687942	 0.121869
H	-0.9527725009	-0.4320316461	-0.2508167801	 0.060593
H	 2.648039371	 0.6484481053	 0.6595545338	 0.087114
H	 3.2536601922	-2.0123778605	-0.2030276609	 0.107807
H	 2.9024837357	-2.1267125075	 1.5681463085	 0.096578
H	 0.458392957	-2.6464583177	 0.0041733258	 0.077467
H	-0.6600254711	-1.1221538499	 2.8089913558	 0.088337
H	 1.0537664045	-1.2995182343	 3.2369397796	 0.087152
H	 0.0707608703	 0.659580525	 4.1020310545	 0.289757
78.8793	139.9296	198.7207	231.0317	242.3538	280.6762	289.0146	386.8686	483.5622	545.0101	632.0859	731.7868	752.689	845.3091	855.3038	876.9738	885.7258	925.4245	956.0257	1015.5131	1018.8388	1047.7217	1066.0906	1077.5123	1083.5569	1127.1478	1140.606	1164.7753	1194.1619	1197.5059	1223.5255	1241.7935	1246.1585	1276.3487	1301.884	1332.6462	1405.6256	1421.4848	1463.6954	1489.7959	1491.1776	1491.9675	1511.1259	2956.7576	2984.6903	3007.6858	3039.2871	3056.7614	3089.0508	3106.9343	3114.2533	3120.9702	3122.394	3828.9665
CC1N2C3CC2C13CO	C[C@H]1N2[C@@H]3C[C@H]2[C@]13CO	
InChI=1S/C7H11NO/c1-4-7(3-9)5-2-6(7)8(4)5/h4-6,9H,2-3H2,1H3	InChI=1S/C7H11NO/c1-4-7(3-9)5-2-6(7)8(4)5/h4-6,9H,2-3H2,1H3/t4-,5-,6+,7-/m1/s1
