17
gdb 69978	2.56613	1.88012	1.3873	2.4112	67.4	-0.2435	0.0506	0.2941	958.7906	0.133936	-458.887894	-458.87995	-458.879006	-458.919824	31.05	
C	-0.0529472195	 1.545301895	 0.0679308286	-0.510108
C	 0.1458857984	 0.0677621542	 0.0090942608	 0.373249
O	-0.7694074096	-0.7997621473	 0.6778035733	-0.267482
C	 0.6240493038	-0.9436911698	 0.9823310752	-0.068025
C	 1.2637383845	-1.7937090058	-0.1523580338	-0.006786
O	 0.4319318138	-2.822529149	-0.7117969395	-0.279954
C	-0.1058275617	-1.9278528509	-1.7184831775	-0.140878
C	 0.7434809745	-0.7487302277	-1.1782841667	 0.279782
O	 1.517870527	 0.039429155	-2.0187112612	-0.475379
H	 0.8379505361	 2.0614885515	-0.2988659369	 0.143006
H	-0.9000783501	 1.8475807631	-0.5577537358	 0.133851
H	-0.2560462831	 1.8598741773	 1.0949394113	 0.133369
H	 0.9103381355	-0.857174542	 2.0253305384	 0.105749
H	 2.3133145382	-2.071957037	-0.0264622789	 0.081408
H	 0.1853528242	-2.244215854	-2.7302446603	 0.087479
H	-1.1927510948	-1.8329763277	-1.6513997936	 0.12132
H	 2.0178749029	-0.5328651449	-2.6108807833	 0.289399
154.213	185.2555	220.9532	259.3135	272.8706	320.9265	373.3017	401.762	490.9924	560.231	604.0341	703.8256	781.2885	801.3246	833.4866	876.4448	899.6691	989.8495	999.3058	1014.8992	1025.073	1050.9246	1069.1404	1105.752	1141.6519	1152.2796	1204.8092	1253.8771	1270.8999	1282.4191	1342.4404	1379.3491	1403.9666	1463.8045	1478.157	1491.2372	1496.7086	3001.1397	3040.3563	3083.0638	3095.5203	3106.9149	3131.6124	3170.7715	3805.2719
CC12OC1C1OCC21O	C[C@]12O[C@H]1[C@H]1OC[C@@]21O	
InChI=1S/C6H8O3/c1-5-3(9-5)4-6(5,7)2-8-4/h3-4,7H,2H2,1H3	InChI=1S/C6H8O3/c1-5-3(9-5)4-6(5,7)2-8-4/h3-4,7H,2H2,1H3/t3-,4+,5-,6-/m0/s1
