20
gdb 95134	2.12705	1.86307	1.46074	3.3539	77.24	-0.2376	-0.0149	0.2228	1016.2065	0.173151	-403.151366	-403.143408	-403.142464	-403.183636	31.462	
C	-0.2956165478	 1.5361230857	 0.1313800539	-0.39779
C	 0.0216190629	 0.0406359433	-0.0007133757	 0.001713
C	 0.866795192	-0.3083498188	-1.2627934096	-0.226232
C	 2.3930878839	-0.4063386549	-1.0022096402	-0.234336
C	 2.6531891252	-0.9034305405	 0.4435243317	-0.114456
N	 1.5392566804	-1.7483783255	 0.9794627994	-0.327867
C	 0.7481544144	-0.5080885662	 1.2604160287	-0.127452
C	 2.1107601103	 0.1903243187	 1.3696762666	 0.468397
O	 2.5529079571	 1.1514682822	 1.924026123	-0.324064
H	 0.6149961672	 2.1415213056	 0.1728781798	 0.135223
H	-0.8943130494	 1.8793839297	-0.7180729359	 0.11338
H	-0.8639614829	 1.7395757021	 1.0453175646	 0.120758
H	-0.932905515	-0.4952996211	-0.0803253244	 0.077982
H	 0.5245661261	-1.2721942343	-1.652696238	 0.103259
H	 0.6665192514	 0.4160408396	-2.0581322708	 0.106535
H	 2.8493274034	-1.0894356763	-1.7266479939	 0.105794
H	 2.887772084	 0.5626068535	-1.1360363999	 0.121779
H	 3.6633365651	-1.2901995278	 0.5965565214	 0.092525
H	 1.1123701289	-2.3555629788	 0.2837986661	 0.21454
H	 0.0970759028	-0.545516366	 2.1379736433	 0.090313
101.2229	142.7878	208.0311	238.1514	325.5865	372.0184	432.133	460.9759	503.0979	549.0508	685.8272	735.0012	769.106	777.6491	850.7534	888.8404	928.511	944.7846	977.1718	996.6101	1005.7344	1038.414	1072.8517	1106.0192	1110.5696	1127.5227	1143.1573	1200.3735	1221.8971	1261.9649	1277.2282	1290.0524	1332.1971	1343.4105	1359.9832	1370.0549	1376.4904	1416.0235	1490.901	1496.7703	1500.1374	1506.7713	1914.5157	3011.0568	3034.6053	3035.0527	3048.3123	3069.1288	3076.0896	3086.6159	3088.5937	3101.3017	3112.3456	3490.948
CC1CCC2NC1C2=O	C[C@H]1CC[C@@H]2N[C@H]1C2=O	
InChI=1S/C7H11NO/c1-4-2-3-5-7(9)6(4)8-5/h4-6,8H,2-3H2,1H3	InChI=1S/C7H11NO/c1-4-2-3-5-7(9)6(4)8-5/h4-6,8H,2-3H2,1H3/t4-,5-,6+/m0/s1
