22
gdb 102616	1.63284	1.40954	0.90488	2.3219	78.96	-0.2653	0.0602	0.3255	1415.774	0.19214	-441.549104	-441.537951	-441.537007	-441.587647	39.407	
C	-0.1812897667	 1.5167566364	 0.3263737268	-0.392615
C	-0.0563752116	 0.0028699183	 0.1378745486	-0.177013
C	 0.6816735565	-0.4004787239	-1.1389247136	 0.124352
C	 0.827640925	-1.9149843386	-1.2905515438	-0.177435
C	 1.5901538189	-2.3413084197	-2.5474990358	-0.390187
O	-0.0743293417	 0.0994893614	-2.2705516528	-0.283247
C	 0.5473483632	 0.9685387948	-3.1065413874	 0.504908
N	-0.3339828268	 1.3825570438	-4.0677327298	-0.564968
O	 1.6910843068	 1.3491370472	-3.010299345	-0.40109
H	 0.8026540178	 1.9967799921	 0.3477435156	 0.124396
H	-0.7542818369	 1.967128213	-0.4890361445	 0.127295
H	-0.6919323572	 1.7526668709	 1.264843829	 0.109889
H	 0.4840509925	-0.4352746398	 0.985925899	 0.097957
H	-1.0521665002	-0.458451773	 0.1310044146	 0.098792
H	 1.665409751	 0.076984288	-1.1739255988	 0.11629
H	 1.3443806819	-2.2883154673	-0.3979140949	 0.098758
H	-0.1714397901	-2.369275387	-1.2846093997	 0.098326
H	 1.0623206587	-2.0271409962	-3.4525542589	 0.119874
H	 2.5906298876	-1.8976861986	-2.5750360484	 0.127072
H	 1.7008053717	-3.4291386319	-2.5867652265	 0.109835
H	-1.1797348011	 0.8558156896	-4.2051726938	 0.261688
H	 0.0658953907	 1.8517781105	-4.86186141	 0.267125
8.4294	64.2699	86.3518	112.2359	154.9835	199.2359	244.0645	251.9424	299.4755	346.9695	363.5654	442.7919	478.1281	502.9193	525.2449	652.3734	769.6832	773.104	781.0292	878.0522	904.9711	939.4573	1021.6797	1038.5869	1045.4264	1073.7045	1112.3067	1133.467	1144.8223	1193.8582	1281.6602	1314.421	1317.2335	1339.5776	1378.1461	1399.5865	1406.5874	1411.744	1416.2075	1471.8196	1482.8958	1496.4664	1497.1277	1508.1514	1509.7872	1609.533	1827.9886	3020.3886	3026.7916	3039.0667	3039.9069	3055.904	3058.7725	3085.2503	3106.6383	3108.0865	3113.6736	3116.0903	3613.2366	3743.7374
CCC(CC)OC(N)=O	CCC(CC)OC(=O)N	
InChI=1S/C6H13NO2/c1-3-5(4-2)9-6(7)8/h5H,3-4H2,1-2H3,(H2,7,8)	InChI=1S/C6H13NO2/c1-3-5(4-2)9-6(7)8/h5H,3-4H2,1-2H3,(H2,7,8)
