20
gdb 57208	2.4259	1.29045	1.11692	3.3753	74.66	-0.2491	0.0253	0.2744	1197.4658	0.1685	-440.306732	-440.296364	-440.29542	-440.342933	37.399	
C	-1.3144682841	 1.2055736569	-1.2894188677	-0.413194
C	-0.3362480873	 0.4135819093	-0.41106693	-0.166926
C	-1.1148639255	-0.6243157137	 0.4117790737	 0.412166
N	-0.9421823717	-0.5553832482	 1.7639568831	-0.520448
O	-1.8261655802	-1.4601115396	-0.1118029895	-0.373231
C	 0.7620850917	-0.3129355698	-1.2010957892	 0.442058
C	 1.9154512286	-0.8260319949	-0.3658959407	-0.464919
C	 0.4578253188	-0.9540337364	-2.4850579698	-0.218066
O	 1.1536856998	 0.3001787834	-2.4356592148	-0.291683
H	-0.7651944369	 1.813238384	-2.0103066219	 0.137985
H	-1.9817119068	 0.5264410785	-1.8246189658	 0.14365
H	-1.934624184	 1.8610402962	-0.6709738883	 0.111567
H	 0.1714112215	 1.1120383231	 0.267874656	 0.065722
H	-0.4155413051	 0.1792661696	 2.2015995341	 0.25969
H	-1.4704329156	-1.1867418881	 2.3447119008	 0.261395
H	 2.4132826586	 0.0021327773	 0.1517616209	 0.117912
H	 1.5683391224	-1.5366366137	 0.3910653265	 0.131469
H	 2.6548792451	-1.3230368234	-0.9978001438	 0.128472
H	 1.056490775	-1.8037946199	-2.8099554981	 0.110123
H	-0.5492118044	-0.9167402408	-2.8906405956	 0.126256
27.5659	49.3706	154.3049	185.9943	200.0717	220.0029	257.5067	277.3165	352.9658	365.9394	378.1002	424.4389	522.5484	589.6709	626.1002	699.5443	788.8673	807.8244	846.6591	906.0059	925.7168	1008.4689	1025.7647	1070.3212	1102.7089	1110.5001	1125.249	1133.5569	1166.554	1230.2438	1276.7838	1336.8746	1385.2089	1395.7685	1410.0267	1423.4373	1484.0489	1489.9259	1495.6877	1511.119	1543.3098	1615.3269	1793.3986	3010.0666	3033.7371	3053.9959	3096.5733	3097.8688	3123.2483	3127.5946	3148.6604	3190.965	3599.7526	3739.8501
CC(C(N)=O)C1(C)CO1	C[C@@H](C(=O)N)[C@@]1(C)CO1	
InChI=1S/C6H11NO2/c1-4(5(7)8)6(2)3-9-6/h4H,3H2,1-2H3,(H2,7,8)	InChI=1S/C6H11NO2/c1-4(5(7)8)6(2)3-9-6/h4H,3H2,1-2H3,(H2,7,8)/t4-,6+/m0/s1
