17
gdb 51761	2.59197	1.16222	0.9164	2.5696	74.66	-0.2639	0.012	0.2759	1272.7651	0.136846	-418.039857	-418.031192	-418.030248	-418.074296	31.018	
O	 0.1720685153	-0.4080540937	 0.1882112215	-0.315693
C	-0.0004362609	 0.7908466902	 0.1858116055	 0.152589
N	 0.9683752983	 1.722355125	-0.0610735485	-0.294143
C	 2.3400490769	 1.3761024979	-0.2830522649	 0.070316
C	 3.0984649584	 1.9520610079	-1.5065241792	-0.246831
C	 4.3618042974	 2.0877064621	-0.6170312545	-0.228244
C	 3.4523320102	 1.9934408973	 0.6532984085	-0.199892
C	 3.0591426442	 3.2894155993	 1.1807381337	 0.276592
N	 2.6961529725	 4.3192147387	 1.5637248464	-0.330769
H	-0.9827602145	 1.263288357	 0.3769677014	 0.087151
H	 0.7256188123	 2.6989599443	 0.0215599266	 0.262186
H	 2.3985445759	 0.2879385663	-0.2442440152	 0.138866
H	 3.1578573665	 1.3231479186	-2.3961631757	 0.120754
H	 2.7042196226	 2.9321860307	-1.7903408518	 0.120362
H	 5.0139002293	 1.2144474807	-0.6801050956	 0.125181
H	 4.9605921859	 2.991956417	-0.7211870497	 0.131066
H	 3.7996929298	 1.3567227005	 1.4698152014	 0.130508
42.7778	93.6445	121.483	191.0061	224.3419	251.7935	389.4506	410.6684	500.5329	561.4595	612.5869	666.5405	739.2936	802.6819	848.6102	899.0409	930.3132	964.3591	1015.8253	1034.8551	1080.1799	1095.981	1118.2136	1187.1041	1219.9282	1240.3307	1262.1922	1268.009	1278.4638	1343.4431	1362.1152	1431.1526	1483.2034	1497.461	1535.5686	1807.1028	2345.8367	2955.4503	3066.1857	3084.5728	3093.2573	3119.3017	3131.6782	3150.1317	3610.5133
O=CNC1CCC1C#N	O=CN[C@H]1CC[C@H]1C#N	
InChI=1S/C6H8N2O/c7-3-5-1-2-6(5)8-4-9/h4-6H,1-2H2,(H,8,9)	InChI=1S/C6H8N2O/c7-3-5-1-2-6(5)8-4-9/h4-6H,1-2H2,(H,8,9)/t5-,6-/m0/s1
