18
gdb 61033	2.74021	1.19232	0.86853	5.009	72.99	-0.245	-0.022	0.223	1295.1525	0.146039	-439.117966	-439.108548	-439.107604	-439.152978	33.105	
C	-0.180910029	 1.4702344106	 0.1718160227	-0.39911
C	 0.0243273845	-0.0415701481	 0.065994306	-0.099207
C	-1.2938988322	-0.8044844272	 0.1740842453	 0.138497
O	-2.355394791	-0.2788240985	 0.3965042498	-0.247855
C	 0.7540165047	-0.4613134273	-1.2182052841	-0.154419
C	 2.2606851977	-0.0776442641	-1.3664265724	-0.185562
N	 2.5466373807	-1.5107718385	-1.4660671577	-0.320338
C	 1.2545498776	-1.9327151038	-1.2895376283	 0.425437
O	 0.7496672037	-3.0214446751	-1.2031671605	-0.361991
H	 0.7768978242	 1.9986562218	 0.1702797671	 0.110533
H	-0.7802352579	 1.8390401068	-0.666087931	 0.12934
H	-0.7165812445	 1.7226644036	 1.0895194534	 0.137365
H	 0.6315311481	-0.3953281901	 0.9159204756	 0.101413
H	-1.2050822133	-1.9006119758	 0.0307229718	 0.120878
H	 0.1652131372	-0.1893249228	-2.0998712357	 0.112733
H	 2.516222923	 0.4968867374	-2.2615386879	 0.119728
H	 2.696079046	 0.403468605	-0.484273518	 0.117239
H	 3.4117216906	-2.0250200038	-1.5404972861	 0.25532
61.0837	89.2015	112.5824	140.6351	181.6801	242.3991	273.2386	318.5189	353.4305	449.9903	530.0781	634.4955	709.9049	752.1505	807.5514	878.4489	906.532	941.7213	987.3287	993.1813	1057.1257	1112.0068	1126.4725	1153.0143	1174.6924	1184.7148	1209.1157	1259.0314	1298.9019	1329.3787	1359.6181	1397.6066	1407.8916	1432.4423	1488.4881	1492.5909	1527.5312	1823.6915	1883.2571	2939.546	2978.4037	3040.6028	3046.1422	3068.605	3091.4229	3113.7065	3130.0417	3613.6221
CC(C=O)C1CNC1=O	C[C@@H](C=O)[C@H]1CNC1=O	
InChI=1S/C6H9NO2/c1-4(3-8)5-2-7-6(5)9/h3-5H,2H2,1H3,(H,7,9)	InChI=1S/C6H9NO2/c1-4(3-8)5-2-7-6(5)9/h3-5H,2H2,1H3,(H,7,9)/t4-,5+/m0/s1
