19
gdb 34619	3.15517	1.20092	0.94062	0.7213	91.86	-0.2228	-0.0172	0.2057	1265.7122	0.159632	-348.735508	-348.726919	-348.725975	-348.768953	33.052	
C	 0.0616816602	-1.2606251905	-0.1356667468	-0.442882
C	-0.0033954662	-0.0580808511	-0.0775258007	 0.245253
C	-0.0187226139	 1.3637135251	-0.0068537368	 0.130164
C	-1.178194391	 2.0398048047	-0.0062748319	-0.123535
C	-1.3108116162	 3.540435123	 0.0622514818	-0.315935
C	-0.5188056392	 4.2702510853	 1.1276139111	-0.049274
C	 0.6408545028	 3.9476397465	 1.7005222029	-0.037235
C	 1.5483260472	 2.7777008453	 1.4235751607	-0.23921
C	 1.324515321	 2.0696546458	 0.078540788	-0.309637
H	 0.0998509189	-2.3202001501	-0.188331191	 0.192415
H	-2.1028180671	 1.4745496438	-0.0769551973	 0.095449
H	-1.0691230365	 3.9733755565	-0.9243138927	 0.128677
H	-2.3683504764	 3.783316198	 0.2116301162	 0.111918
H	-0.9898647544	 5.1948811062	 1.4563593811	 0.086177
H	 1.0092125318	 4.6226729753	 2.4717750942	 0.082913
H	 2.5851197159	 3.1383358983	 1.45960917	 0.102178
H	 1.4686573397	 2.0451755144	 2.2397862332	 0.117854
H	 2.1251200997	 1.3445691022	-0.0858147208	 0.111134
H	 1.3963023938	 2.8105825214	-0.728011741	 0.113574
50.0541	132.4586	155.823	226.1824	307.2045	328.6493	398.3615	410.0358	540.1664	560.825	580.9251	628.3317	633.1114	645.5971	736.3854	783.8951	827.0572	881.3538	904.2477	959.4739	973.2453	1003.4761	1015.3313	1070.3684	1088.6136	1141.1843	1206.05	1221.9594	1270.8986	1285.2347	1336.0593	1364.7396	1377.7491	1396.2797	1429.0444	1466.1632	1474.2068	1488.144	1694.5406	1738.792	2214.3811	2957.6558	3004.3366	3021.7965	3037.4135	3056.7414	3098.3295	3123.3376	3148.7011	3171.2256	3504.219
C#CC1=CCC=CCC1	C#CC1=CCC=CCC1	
InChI=1S/C9H10/c1-2-9-7-5-3-4-6-8-9/h1,3-4,7H,5-6,8H2	InChI=1S/C9H10/c1-2-9-7-5-3-4-6-8-9/h1,3-4,7H,5-6,8H2
