15
gdb 20934	7.61783	1.11483	0.98989	5.4863	66.61	-0.2197	-0.0103	0.2094	1145.2703	0.11818	-395.960915	-395.95292	-395.951975	-395.993986	28.086	
C	 0.0292529757	 1.4934561564	 0.1292079395	-0.401534
C	-0.0064791052	-0.00075351	-0.1705103164	-0.12411
N	-1.3646618403	-0.5181797041	-0.0236742998	-0.39371
C	-1.6369304512	-1.844024505	 0.0217162937	 0.515772
C	-2.8393579663	-2.5288636667	-0.060622837	-0.247806
N	-2.5399606761	-3.8443692942	 0.0990733356	-0.073571
N	-1.3300278786	-4.0684407436	 0.2628989453	-0.048723
O	-0.6520127675	-2.6948524285	 0.2121497783	-0.250772
H	 1.047698862	 1.875037668	 0.020081004	 0.133706
H	-0.6087985368	 2.0539492203	-0.5639156162	 0.119945
H	-0.3107777808	 1.6972117131	 1.1485287557	 0.135499
H	 0.3827575424	-0.1969186922	-1.1802639878	 0.116274
H	 0.6322518055	-0.5483153001	 0.5271393306	 0.144973
H	-2.1097359272	 0.0671708604	-0.3679887886	 0.253835
H	-3.8419914858	-2.1696898637	-0.210525277	 0.120223
50.2406	93.4416	138.2667	254.5703	293.6335	312.5031	369.5321	433.9207	525.0623	660.0819	712.0474	744.8293	767.1862	812.9915	924.2307	953.2325	1040.1436	1086.5127	1143.4651	1152.2259	1170.935	1292.4052	1326.0855	1350.6908	1403.4747	1420.7015	1488.7688	1497.5848	1499.8834	1509.7926	1525.9648	1637.071	3000.2411	3036.7549	3090.1841	3111.6476	3127.4691	3290.8357	3626.5779
CCNC1=CN=NO1	CCNc1cnno1	
InChI=1S/C4H7N3O/c1-2-5-4-3-6-7-8-4/h3,5H,2H2,1H3	InChI=1S/C4H7N3O/c1-2-5-4-3-6-7-8-4/h3,5H,2H2,1H3
