15
gdb 35107	2.34853	1.82029	1.18775	4.2393	69.4	-0.2658	-0.0076	0.2582	1013.1091	0.113417	-416.811566	-416.804052	-416.803108	-416.844182	27.962	
N	-0.0877618666	-1.1926325268	 0.2349706542	-0.328049
C	-0.0615584614	-0.0417247934	 0.1403979873	 0.312273
C	 0.0147487128	 1.4163674379	-0.0213657444	-0.230737
N	-0.6559629447	 2.1182276303	 1.094833265	-0.260696
C	 0.2356187355	 2.8651382941	 1.6047006616	 0.12089
O	 1.4843916732	 2.8813407097	 1.0986818604	-0.234114
C	 1.4624462867	 1.958770394	 0.0005325555	 0.41122
C	 2.7079171328	 1.1868678684	-0.2704310254	-0.327865
C	 2.2732824981	 2.3061417085	-1.2032490612	-0.324158
H	-0.4921154544	 1.6700630595	-0.960340849	 0.143749
H	 0.0812773341	 3.5268400396	 2.4492371229	 0.158054
H	 3.5527499393	 1.3789594197	 0.3809346382	 0.140105
H	 2.6039420549	 0.1579406229	-0.5973379293	 0.150316
H	 1.8720751081	 2.0461580157	-2.1777054227	 0.13139
H	 2.8330055316	 3.2339147401	-1.1701248632	 0.137623
49.8473	142.1905	197.2681	285.6427	308.6946	414.5336	483.0648	519.828	543.5492	613.2576	761.3201	803.6174	850.6205	895.9827	930.1248	952.8673	974.3077	986.3894	1014.5425	1041.7645	1060.4258	1085.6221	1169.1675	1186.9057	1226.2463	1250.1098	1330.5321	1339.9788	1365.1008	1453.8307	1497.9739	1693.8358	2363.6624	3034.4629	3133.5738	3140.6559	3221.8373	3224.7902	3236.0685
N#CC1N=COC11CC1	N#C[C@H]1N=COC21CC2	
InChI=1S/C6H6N2O/c7-3-5-6(1-2-6)9-4-8-5/h4-5H,1-2H2	InChI=1S/C6H6N2O/c7-3-5-6(1-2-6)9-4-8-5/h4-5H,1-2H2/t5-/m1/s1
