15
gdb 98395	2.96216	1.01616	0.84611	3.7269	66.02	-0.2672	-0.0517	0.2156	1321.417	0.109405	-491.095187	-491.085547	-491.084602	-491.130778	32.36	
O	 0.0392990879	 1.3947628546	 0.0312901866	-0.383991
C	-0.143339369	 0.0551741833	-0.3266082749	-0.118056
C	-1.417424503	-0.4797693968	 0.2888195481	 0.278294
N	-2.2637246731	 0.2722699972	 0.8455886928	-0.419296
N	-1.6084774306	-1.8965126193	 0.0741002466	-0.150574
C	-2.7794836709	-2.294143941	-0.6180377225	 0.147475
O	-3.124742244	-3.4200080347	-0.8239683822	-0.246033
C	-0.6698070938	-2.811842128	 0.5994035703	 0.15132
O	-0.6862599609	-3.998310484	 0.4454673023	-0.247526
H	 0.8212117958	 1.7218021821	-0.4235212013	 0.299382
H	-0.2387787861	-0.0896582578	-1.4178536311	 0.123523
H	 0.6993998336	-0.5837784463	-0.012132606	 0.111192
H	-3.0625318376	-0.2571185511	 1.1999818096	 0.237216
H	-3.3414762811	-1.4027450045	-0.9534705753	 0.110405
H	 0.0919473629	-2.2873137636	 1.2055795769	 0.106669
47.9392	76.4767	109.2615	159.5716	203.221	228.5579	239.4166	272.7006	309.1698	390.178	485.4884	530.4703	554.7722	742.8322	902.5781	934.128	938.9644	1018.7358	1038.0233	1045.1647	1137.9485	1157.654	1230.9343	1240.0802	1272.5305	1306.5293	1436.3499	1462.8905	1474.5036	1493.8488	1750.5166	1803.8543	1879.9701	2950.3616	2954.8392	2964.2396	2976.2294	3467.6202	3834.8384
OCC(=N)N(C=O)C=O	OCC(=N)N(C=O)C=O	
InChI=1S/C4H6N2O3/c5-4(1-7)6(2-8)3-9/h2-3,5,7H,1H2	InChI=1S/C4H6N2O3/c5-4(1-7)6(2-8)3-9/h2-3,5,7H,1H2
