20
gdb 39443	2.43548	1.91544	1.32872	1.112	78.13	-0.2432	0.0752	0.3183	1013.0106	0.174207	-403.11352	-403.106309	-403.105365	-403.144873	29.683	
C	 0.0264804324	 1.5523453844	-0.0821211428	-0.230889
C	 1.580972778	 1.504326582	 0.0312094627	-0.301694
C	 1.4043544015	 0.1213082641	 0.6489863793	 0.36901
N	 2.3901230049	-0.8987534827	 0.9422966819	-0.412693
C	 1.6413837644	-0.269313632	 2.0582689291	-0.105587
C	 0.4741102638	-0.9644880082	 2.7476697344	-0.10427
O	-0.7830750218	-0.4301936181	 2.3532417916	-0.235812
C	-1.044579978	-0.6642756832	 0.981193978	-0.112735
C	-0.0115884755	-0.0001890532	 0.0701313192	-0.07125
H	-0.4258765184	 2.0396703888	 0.7853554511	 0.115565
H	-0.3986062568	 1.970470274	-0.9961670838	 0.098042
H	 2.0601548023	 1.4531811836	-0.9516237983	 0.106404
H	 2.0777934622	 2.2702948303	 0.6310336321	 0.102943
H	 2.0229297024	-1.82806182	 0.7408001996	 0.221224
H	 2.2653328818	 0.3606665057	 2.687235578	 0.096736
H	 0.4957849924	-2.0502537966	 2.5450313854	 0.085157
H	 0.529523752	-0.8269466948	 3.8303418505	 0.114322
H	-1.0680647265	-1.7525378343	 0.7916339116	 0.080975
H	-2.047544757	-0.2709836251	 0.7868491953	 0.111071
H	-0.0109444843	-0.4832616447	-0.913997125	 0.073483
137.143	196.6713	239.0053	336.6453	390.1003	438.3273	461.7949	522.7404	557.3483	683.8418	737.4977	780.951	827.0152	844.64	885.7962	920.5761	934.1803	971.343	997.3507	1021.7292	1038.5654	1066.4332	1084.0176	1109.4578	1140.1523	1148.8648	1179.2555	1203.9721	1240.3441	1243.7767	1251.2607	1281.6815	1289.6178	1335.8653	1338.1122	1352.2715	1385.7735	1417.0261	1458.5668	1480.7317	1483.3064	1492.1847	1501.9107	2941.7474	2947.4774	3039.1323	3053.8258	3068.5192	3075.2849	3094.6995	3106.8942	3129.0503	3137.9865	3465.5301
C1CC23NC2COCC13	C1C[C@@]23N[C@@H]2COC[C@@H]13	
InChI=1S/C7H11NO/c1-2-7-5(1)3-9-4-6(7)8-7/h5-6,8H,1-4H2	InChI=1S/C7H11NO/c1-2-7-5(1)3-9-4-6(7)8-7/h5-6,8H,1-4H2/t5-,6-,7+/m1/s1
