19
gdb 106151	2.41702	1.63129	1.27354	1.9405	75.77	-0.2229	0.0778	0.3007	1072.8965	0.158429	-422.95138	-422.942971	-422.942027	-422.984205	32.464	
C	 0.1255989949	 1.2433971753	 0.3087795637	-0.255641
O	-0.0215569249	-0.0688655202	-0.215380772	-0.275186
C	-1.2874467633	-0.5548584429	-0.1370733474	 0.388681
C	-2.205570382	-0.934430964	 1.0169150752	-0.22721
C	-3.3680518798	-0.1309100319	 0.445790423	-0.224892
C	-2.6487439353	-0.2462599098	-0.92742838	-0.141855
C	-2.7193423886	-1.7648914584	-1.2739904497	-0.292214
C	-1.7776122747	-1.9623917806	-0.0907753235	 0.314738
O	-1.0230650652	-3.0713548134	 0.2209797556	-0.465804
H	 1.1816819809	 1.5047585483	 0.2166258497	 0.130468
H	-0.4749990603	 1.9703077071	-0.2551612349	 0.113942
H	-0.1708388648	 1.2825829309	 1.3651786663	 0.116221
H	-1.9352390662	-1.1392437512	 2.0455994455	 0.085155
H	-4.3773648592	-0.5548903506	 0.5053071856	 0.086908
H	-3.3827869065	 0.8960172873	 0.8232410082	 0.09583
H	-2.7892602561	 0.4987210139	-1.7071831507	 0.074794
H	-3.7110554086	-2.2327244143	-1.2539389934	 0.082621
H	-2.2153027085	-1.9939636818	-2.2168617854	 0.108204
H	-1.5735499718	-3.6837339838	 0.7215769941	 0.285238
91.6411	140.6695	169.4038	235.4356	292.5608	309.7367	381.0132	391.5802	437.0548	574.4012	599.494	655.831	665.3228	779.6176	866.0484	898.1041	927.1823	956.5211	979.1414	991.2879	1001.1957	1047.2812	1059.7371	1104.7999	1113.0442	1148.0701	1170.4606	1178.3874	1198.609	1218.1197	1233.6677	1255.878	1282.4918	1297.291	1361.3172	1458.012	1485.815	1488.7082	1501.0178	1503.5913	1540.3423	2998.2485	3025.2804	3032.5358	3056.0608	3085.4091	3101.0916	3127.8665	3141.987	3193.2011	3790.7823
COC12C3CC1CC23O	CO[C@@]12[C@H]3C[C@@H]1C[C@@]23O	
InChI=1S/C7H10O2/c1-9-7-4-2-5(7)6(7,8)3-4/h4-5,8H,2-3H2,1H3	InChI=1S/C7H10O2/c1-9-7-4-2-5(7)6(7,8)3-4/h4-5,8H,2-3H2,1H3/t4-,5+,6+,7-/m1/s1
