16
gdb 12204	2.91872	1.79547	1.58461	0.6886	65.97	-0.2607	0.0129	0.2737	889.9116	0.128269	-383.684653	-383.676337	-383.675393	-383.717466	30.571	
C	 0.6027210472	 1.4214639509	-0.1457204956	-0.39591
C	 0.0279632325	 0.0396773155	 0.0943680921	 0.103866
O	 0.5940017273	-0.9702436926	-0.7896575465	-0.294295
C	 1.2504261322	-1.6590688369	 0.2957377703	-0.106819
C	 2.7001155883	-1.5247370437	 0.2806326355	 0.312485
C	 3.8917891735	-1.3611477469	 0.3274765436	-0.433045
C	 0.5361005989	-0.7382640093	 1.3426670043	 0.070555
O	 1.3023963824	-0.0897485165	 2.3073904279	-0.420967
H	 1.692207632	 1.4231705156	-0.0529029524	 0.117007
H	 0.3470330631	 1.7615998252	-1.1535159128	 0.12811
H	 0.1916471169	 2.1332773202	 0.5770669586	 0.126536
H	-1.0641097043	 0.0550662138	-0.007033499	 0.081072
H	 0.9662042012	-2.7172545053	 0.3281017342	 0.108803
H	 4.9486138684	-1.2504066543	 0.3375617137	 0.209539
H	-0.2668806772	-1.2597564243	 1.8677904635	 0.104713
H	 2.1888163275	 0.0476076085	 1.9480289727	 0.28835
54.5062	137.4797	195.3066	211.2026	244.2493	334.3909	381.5047	392.0376	513.4596	555.9265	593.1486	649.4333	672.5253	779.7691	806.0646	868.5427	887.8624	985.0088	1037.8097	1043.1506	1083.0202	1137.1859	1177.993	1200.6634	1256.8192	1303.0373	1328.7281	1341.7319	1386.3729	1408.7114	1443.2987	1482.4059	1495.0309	2221.0768	3028.1359	3038.0093	3042.7924	3092.7331	3116.9062	3121.5847	3497.9588	3755.8767
CC1OC(C#C)C1O	C[C@H]1O[C@@H](C#C)[C@H]1O	
InChI=1S/C6H8O2/c1-3-5-6(7)4(2)8-5/h1,4-7H,2H3	InChI=1S/C6H8O2/c1-3-5-6(7)4(2)8-5/h1,4-7H,2H3/t4-,5+,6+/m1/s1
