16
gdb 49857	3.62993	1.17065	0.97617	1.6319	69.78	-0.2607	-0.0401	0.2206	1161.396	0.124073	-437.89654	-437.88875	-437.887806	-437.929719	28.701	
O	 0.1870892014	-0.1820385191	 0.0565011674	-0.24108
C	 0.0940701728	 1.0108685422	-0.0578456558	 0.161575
C	 1.2635974153	 1.9749799886	-0.0421409302	-0.088238
C	 1.2218528804	 3.0217205783	-1.1674556522	-0.388285
C	 1.57779429	 4.3682445282	-0.5082616205	 0.3967
O	 1.8007473565	 5.3940192453	-1.0796408133	-0.295596
N	 1.6077639999	 4.2305080562	 0.9262826606	-0.130693
C	 0.2604477951	 3.8709132078	 1.450531424	-0.256773
C	 1.2879025571	 2.8271772203	 1.2381155394	-0.047708
H	-0.8998812569	 1.5043805576	-0.17393686	 0.074997
H	 2.1796722506	 1.3809276817	-0.0821578282	 0.112825
H	 1.9093162832	 2.8072121915	-1.9870043274	 0.157498
H	 0.2249606865	 3.123418977	-1.6143026577	 0.14313
H	 0.0595023701	 4.2430507676	 2.449362961	 0.146138
H	-0.5808029453	 3.9380661964	 0.7656086607	 0.132947
H	 1.8016506933	 2.4098862204	 2.0974018123	 0.122563
61.844	74.9014	181.3398	260.7042	310.8087	398.3092	434.3825	495.8008	561.1662	655.8527	689.3595	740.8911	816.6944	851.9761	905.8774	951.5766	975.4617	1007.691	1060.7628	1082.7237	1104.57	1110.2581	1133.5797	1171.4354	1185.8598	1247.7342	1274.1361	1302.9948	1315.7807	1381.4365	1427.4242	1457.337	1508.1873	1836.019	1874.652	2852.3957	3045.0668	3087.1864	3119.8124	3125.3513	3172.0405	3210.4596
O=CC1CC(=O)N2CC12	O=C[C@H]1CC(=O)N2C[C@@H]12	
InChI=1S/C6H7NO2/c8-3-4-1-6(9)7-2-5(4)7/h3-5H,1-2H2	InChI=1S/C6H7NO2/c8-3-4-1-6(9)7-2-5(4)7/h3-5H,1-2H2/t4-,5+,7?/m1/s1
