17
gdb 44857	3.33944	1.65425	1.47736	2.6457	70.51	-0.2329	-0.0163	0.2166	922.3925	0.138522	-421.838109	-421.831694	-421.830749	-421.868765	26.775	
O	 0.0123777937	 0.0278159694	 0.0963130398	-0.318383
C	-0.0146594117	 1.2257574809	 0.0344471023	 0.434881
C	-1.2514287388	 2.1533892588	 0.0054061594	-0.336928
C	-0.5544905802	 3.5266759181	 0.0527615979	 0.047386
O	 0.6097768603	 3.286639101	-0.7675852962	-0.265018
C	 1.1722624523	 2.2118228055	-0.0074936598	-0.064662
C	 1.2494741207	 2.7841415752	 1.4140952411	-0.049522
C	 1.431271972	 4.2785434088	 1.5185913761	-0.315285
C	 0.0417300624	 3.7084222666	 1.4525368187	-0.042855
H	-1.7979749791	 2.0113799492	-0.9318736837	 0.135385
H	-1.9243600482	 1.9368826183	 0.8386716989	 0.12741
H	-1.1113436509	 4.3663816246	-0.3631978581	 0.08999
H	 2.0857080205	 1.840738606	-0.4686744124	 0.100918
H	 1.5099272389	 2.1280079729	 2.2348011312	 0.109169
H	 1.7578934182	 4.6497825405	 2.4835782162	 0.117254
H	 1.8168023348	 4.8185241542	 0.6618142154	 0.132864
H	-0.6230199049	 3.75340432	 2.3065690231	 0.097395
122.0281	275.2737	319.8594	434.0874	452.7703	551.018	592.8999	608.5586	713.2318	756.0603	775.4075	825.6591	845.5498	875.378	925.1835	937.6639	956.4032	978.4386	1006.3489	1010.1143	1062.9203	1078.9296	1096.5819	1102.5081	1138.663	1144.4591	1189.5568	1214.3356	1243.9911	1261.856	1293.8437	1318.2497	1332.4859	1369.2505	1450.1317	1470.7206	1867.472	3065.015	3116.2933	3119.6547	3142.1239	3144.0684	3187.85	3199.5687	3231.8351
O=C1CC2OC1C1CC21	O=C1C[C@@H]2O[C@H]1[C@H]1C[C@@H]21	
InChI=1S/C7H8O2/c8-5-2-6-3-1-4(3)7(5)9-6/h3-4,6-7H,1-2H2	InChI=1S/C7H8O2/c8-5-2-6-3-1-4(3)7(5)9-6/h3-4,6-7H,1-2H2/t3-,4+,6+,7+/m1/s1
