18
gdb 71685	2.89806	2.20122	1.69335	1.2145	72.99	-0.2265	0.0638	0.2903	854.7893	0.149703	-401.875054	-401.868672	-401.867728	-401.9054	27.059	
C	-0.0098183818	 1.448361246	-0.0256888162	-0.507873
C	-0.0329853335	-0.0502822054	 0.0456015647	 0.449395
O	 0.2962598268	-0.7159293457	-1.2124342733	-0.338179
C	-0.4358315506	-1.8315676457	-0.6982960454	 0.078575
C	 0.196141091	-2.2047693221	 0.6801533318	-0.032233
C	 0.7665118849	-0.8149051905	 1.1269198162	-0.112882
C	-0.2185792808	-0.9176746351	 2.3113114366	-0.186183
N	-1.0719457447	-1.7983542466	 1.4382694029	-0.158362
C	-1.3245167953	-0.9650367214	 0.2132929386	-0.114797
H	 0.9856912569	 1.7997456675	-0.3176126858	 0.133323
H	-0.7292843011	 1.8157334626	-0.7628502086	 0.130809
H	-0.2562955926	 1.8866040834	 0.9463446396	 0.12474
H	-0.7302398523	-2.5799148505	-1.4305339885	 0.090806
H	 0.685793344	-3.1425237906	 0.9356675949	 0.079859
H	 1.8270536165	-0.5823172766	 1.2258779236	 0.07198
H	 0.1617447651	-1.4950925485	 3.1583454927	 0.111916
H	-0.701898948	-0.0053631707	 2.6788240234	 0.100866
H	-2.3244642843	-0.5846822201	 0.0119509128	 0.07824
186.5133	253.149	260.172	415.1263	491.8909	536.5531	600.1014	704.1066	759.7858	793.1562	808.395	823.5847	858.3863	874.1491	894.6963	902.3375	913.224	958.9683	992.2442	1011.9651	1014.776	1042.8308	1118.9642	1132.8014	1142.9016	1155.943	1171.9324	1193.7858	1212.1548	1217.6589	1228.5652	1268.4022	1294.4373	1300.1652	1355.095	1415.3183	1478.0658	1492.6841	1507.43	3036.5656	3039.2309	3099.7836	3106.2304	3113.3524	3115.6169	3130.7524	3135.6092	3152.6091
CC12OC3C4C1CN4C23	C[C@@]12O[C@H]3[C@H]4[C@@H]1CN4[C@@H]23	
InChI=1S/C7H9NO/c1-7-3-2-8-4(3)5(9-7)6(7)8/h3-6H,2H2,1H3	InChI=1S/C7H9NO/c1-7-3-2-8-4(3)5(9-7)6(7)8/h3-6H,2H2,1H3/t3-,4+,5-,6+,7+/m0/s1
