16
gdb 17502	3.06335	2.43814	1.67029	1.1105	63.8	-0.2267	0.0639	0.2905	801.9208	0.128448	-383.660301	-383.652932	-383.651988	-383.691287	28.976	
C	-0.0501704912	 1.4966160991	-0.0135351716	-0.509704
C	 0.1424591502	 0.018228484	-0.0096849431	 0.347053
O	-0.814810366	-0.8351477693	 0.6395491859	-0.28573
C	 0.579529388	-0.9530821682	 0.9886351756	-0.053778
C	 1.3191244666	-1.8071480503	-0.0864297461	-0.153738
C	 0.3723123732	-2.2405490984	-1.1925860279	-0.351093
C	 0.8646219844	-0.8218608712	-1.1393600268	 0.31823
O	 1.6425148363	-0.2203169411	-2.1105220448	-0.452052
H	 0.8700888907	 1.9948965461	-0.3323746456	 0.139057
H	-0.8475845517	 1.7861964054	-0.7079456749	 0.126278
H	-0.3218010826	 1.8503590294	 0.9844248496	 0.133904
H	 0.8406433024	-0.8461023351	 2.0349893584	 0.10455
H	 2.2966320413	-2.2473403395	 0.0544795957	 0.101083
H	 0.8566731962	-2.8356778534	-1.9609889027	 0.112618
H	-0.6571295896	-2.4947422495	-0.9732169346	 0.133933
H	 1.1027161817	-0.1037660882	-2.9005584673	 0.289391
167.8824	196.7687	215.0066	288.8653	340.4213	411.2177	427.8984	459.645	543.7471	609.0188	653.2774	763.8315	793.1423	858.0957	876.4688	921.8041	927.4789	976.5794	996.52	1018.4761	1052.3514	1090.4759	1099.3834	1153.595	1215.0891	1245.6447	1260.4284	1298.4504	1390.1036	1400.9844	1461.7516	1475.3894	1485.3096	1503.0509	3033.1673	3097.8408	3125.3167	3134.7322	3183.708	3213.3061	3230.9534	3785.1529
CC12OC1C1CC21O	C[C@]12O[C@H]1[C@H]1C[C@@]21O	
InChI=1S/C6H8O2/c1-5-4(8-5)3-2-6(3,5)7/h3-4,7H,2H2,1H3	InChI=1S/C6H8O2/c1-5-4(8-5)3-2-6(3,5)7/h3-4,7H,2H2,1H3/t3-,4+,5+,6+/m1/s1
