14
gdb 133124	2.59412	1.64254	1.01215	1.7008	67.53	-0.2542	-0.0321	0.222	1085.1795	0.10173	-478.016719	-478.009233	-478.008289	-478.049034	27.073	
C	-0.0312395881	 1.3964801734	-0.0114082766	-0.237638
O	 0.0141910499	-0.0353440434	 0.018841764	-0.252399
C	 0.634554707	-0.5987117383	 1.0559759955	 0.348414
N	 1.1837202748	 0.1312692735	 2.0135568097	-0.347716
C	 1.7839736953	-0.527851922	 3.013374952	 0.064
N	 1.8922548896	-1.8402040537	 3.1554221662	-0.259319
C	 1.3327809219	-2.578114459	 2.1799573079	-0.084354
C	 0.6917513752	-2.0039721243	 1.1079872946	 0.138552
F	 0.1400558215	-2.7373610678	 0.1459061966	-0.05302
H	 0.977233041	 1.816692201	-0.0379831627	 0.143935
H	-0.5742028839	 1.6453131062	-0.9229734451	 0.139199
H	-0.5529757225	 1.7873235093	 0.8656602304	 0.144033
H	 2.2286191292	 0.0892255079	 3.7897672565	 0.12344
H	 1.3978718591	-3.6603245428	 2.255855661	 0.132872
116.8769	147.2693	188.901	208.0359	322.357	327.1757	471.7036	526.1222	548.6619	619.9454	632.552	790.37	798.4259	891.5836	951.1967	995.9633	1043.5546	1159.5366	1176.9671	1199.8872	1233.8584	1289.6953	1330.888	1345.2324	1445.185	1455.153	1480.4376	1495.0273	1534.1369	1616.4747	1626.2428	3051.8701	3127.5816	3161.4514	3170.2237	3173.8742
COC1=NC=NC=C1F	COc1ncncc1F	
InChI=1S/C5H5FN2O/c1-9-5-4(6)2-7-3-8-5/h2-3H,1H3	InChI=1S/C5H5FN2O/c1-9-5-4(6)2-7-3-8-5/h2-3H,1H3
