17
gdb 73234	2.22763	1.93541	1.46091	4.7357	67.55	-0.2441	0.0077	0.2519	955.9936	0.138439	-455.154249	-455.1466	-455.145656	-455.18625	29.615	
N	 0.0154487543	 1.4501454403	 0.1082869277	-0.592696
C	-0.0304621115	 0.0198445072	-0.0410666334	 0.155476
C	 0.2328071394	-0.6992487598	-1.3995119295	-0.224813
N	-0.8593917262	-1.6448224361	-1.0686238493	-0.31843
C	-1.3680479719	-0.759683411	 0.0073833947	-0.046176
C	-1.3927533577	-1.4298779028	 1.3773187222	-0.078287
O	-0.0219167137	-1.4525597136	 1.826906773	-0.222451
C	 0.7580772264	-0.6126077468	 1.1121660342	 0.450586
O	 1.9048162903	-0.3915659918	 1.3834388691	-0.36377
H	 0.9616331704	 1.7306520285	 0.3525758097	 0.248797
H	-0.2356110639	 1.9186879942	-0.7557592324	 0.229964
H	 0.0157852212	-0.0213472044	-2.238244257	 0.088414
H	 1.2134064718	-1.1595657414	-1.5577337111	 0.122831
H	-1.513035365	-1.8350613978	-1.8182212953	 0.225091
H	-2.2750790962	-0.1909499166	-0.2186666238	 0.07819
H	-1.9831465688	-0.866836103	 2.1081303218	 0.119658
H	-1.7449504189	-2.4625577352	 1.3315076995	 0.127617
100.4616	189.0447	228.4653	254.9551	297.9728	326.7851	409.4314	512.549	596.1736	632.6518	687.1299	744.1909	756.4504	816.6026	846.2811	878.8863	948.5741	1002.1636	1022.8207	1046.7098	1054.2817	1068.3945	1082.6588	1143.2037	1163.6339	1189.3433	1243.5469	1250.7566	1327.9311	1349.4935	1356.3884	1380.9953	1407.9284	1500.7884	1517.1429	1650.6373	1869.7651	2990.1616	3047.1893	3065.5661	3072.3272	3117.1219	3492.3479	3550.642	3577.1311
NC12CNC1COC2=O	N[C@]12CN[C@H]1COC2=O	
InChI=1S/C5H8N2O2/c6-5-2-7-3(5)1-9-4(5)8/h3,7H,1-2,6H2	InChI=1S/C5H8N2O2/c6-5-2-7-3(5)1-9-4(5)8/h3,7H,1-2,6H2/t3-,5+/m0/s1
