19
gdb 118712	3.21537	1.19656	0.97525	2.0053	72.43	-0.2526	0.0684	0.321	1242.9434	0.15764	-460.070997	-460.062293	-460.061349	-460.105397	32.635	
C	-2.4814815545	 1.3386415408	-0.6434925745	-0.227644
O	-2.3845195667	 0.0244686906	-0.1450827663	-0.234322
C	-1.1892264228	-0.6101813048	-0.5318957984	-0.135795
C	-1.0481412977	-2.0344372666	-0.0105369903	 0.428112
O	 0.1875692335	-2.4530054864	-0.5103057167	-0.487181
C	-1.3633767895	-2.4998868008	 1.4552637732	-0.024605
C	-2.8779772587	-2.4755494395	 1.1753298865	-0.230351
C	-2.1772250018	-3.1249132514	-0.0331726007	-0.024598
O	-1.3325822791	-3.8992519639	 0.9281868896	-0.345898
H	-3.4322431009	 1.7497700397	-0.2968502872	 0.129884
H	-1.6611227865	 1.9740479153	-0.2753592169	 0.109696
H	-2.4631315478	 1.3578216669	-1.7441928274	 0.109691
H	-1.1099112069	-0.6553895172	-1.6302695118	 0.106005
H	-0.3138098825	-0.0436228036	-0.1750029311	 0.106009
H	 0.2794618937	-3.3599259225	-0.179350703	 0.288529
H	-0.8137587028	-2.3095421684	 2.3781078006	 0.094665
H	-3.4402477135	-3.1861373133	 1.781142924	 0.106104
H	-3.3675994752	-1.5157072254	 1.0401397008	 0.137014
H	-2.5938207004	-3.6765609194	-0.8770181904	 0.094686
28.8806	83.2959	174.2994	224.1916	255.2972	328.7251	362.203	408.2709	420.2599	554.1795	618.2756	689.1588	709.3057	738.1781	777.6008	869.8513	873.5959	909.9614	1010.6698	1020.6509	1031.6673	1085.2589	1101.7989	1132.58	1134.6046	1169.7564	1170.7145	1186.01	1187.9895	1210.9478	1236.2203	1272.0913	1280.7927	1281.8027	1410.8343	1441.7909	1478.448	1485.4398	1487.1079	1500.599	1523.6366	2966.8712	2979.0287	2999.1503	3022.8458	3100.3059	3110.9913	3119.6603	3120.1711	3200.1449	3710.0196
COCC1(O)C2CC1O2	COC[C@@]1(O)[C@H]2C[C@@H]1O2	
InChI=1S/C6H10O3/c1-8-3-6(7)4-2-5(6)9-4/h4-5,7H,2-3H2,1H3	InChI=1S/C6H10O3/c1-8-3-6(7)4-2-5(6)9-4/h4-5,7H,2-3H2,1H3/t4-,5+,6-
