18
gdb 38625	2.7778	2.22384	1.66582	2.367	74.2	-0.231	0.0837	0.3147	859.9465	0.150893	-401.893353	-401.887114	-401.88617	-401.923561	26.655	
C	-0.0950875513	 1.4305401971	-0.0943197989	-0.322597
N	 1.2311331473	 0.826833022	 0.0372453379	-0.097784
C	 2.0521668994	 0.505105567	-1.1447652695	-0.190168
C	 1.4651671791	-0.7805629198	-1.7110950007	-0.082725
C	 0.9775853208	-1.938459812	-0.8186431131	 0.102812
O	 1.1068229912	-1.9613311496	 0.5894767234	-0.270695
C	 0.112387402	-1.0652080473	 1.1335509596	-0.134745
C	 0.0383845341	-0.0399533922	 0.0237183742	 0.247652
C	 0.0276090385	-0.8776867974	-1.2540370868	-0.184844
H	-0.3937730862	 2.0516756763	 0.7467888827	 0.120501
H	-0.425164779	 1.8007524317	-1.0661484339	 0.109465
H	 2.0222763789	 1.3013909132	-1.9016931727	 0.098988
H	 3.0919029172	 0.3982215681	-0.81769924	 0.117047
H	 1.7405601217	-1.0727999248	-2.7205972032	 0.085649
H	 0.9974847997	-2.9296592449	-1.2594621016	 0.099915
H	-0.8288794233	-1.6056092358	 1.3056883745	 0.089724
H	 0.4933082508	-0.6587843704	 2.0714151406	 0.122033
H	-0.851864411	-0.9973928214	-1.8749275624	 0.089771
206.9007	241.1364	360.7641	405.3723	470.9181	545.3419	613.8333	714.854	734.6624	761.5379	796.6246	808.3977	817.003	874.6459	918.3239	936.9135	972.1313	1002.1994	1011.2227	1038.7873	1045.9049	1080.4506	1089.9053	1111.6692	1135.9733	1148.3341	1170.2853	1202.2543	1224.9152	1235.5192	1283.3446	1311.7585	1337.1359	1359.1135	1390.0673	1415.4897	1497.9072	1502.3257	1512.9708	3007.3359	3008.5022	3064.7875	3076.3252	3127.2072	3152.0497	3164.6381	3165.7417	3181.0443
C1N2CC3C4OCC12C34	C1N2C[C@H]3[C@H]4OC[C@@]12[C@@H]34	
InChI=1S/C7H9NO/c1-4-5-6(4)9-3-7(5)2-8(1)7/h4-6H,1-3H2	InChI=1S/C7H9NO/c1-4-5-6(4)9-3-7(5)2-8(1)7/h4-6H,1-3H2/t4-,5+,6-,7-,8?/m1/s1
