23
gdb 101227	3.56071	0.7694	0.68474	2.6731	82.55	-0.2537	0.0751	0.3288	1686.9739	0.204174	-425.411366	-425.400897	-425.399953	-425.447019	38.757	
C	 0.1037153204	 1.4782356955	 0.1342817922	-0.396968
C	-0.0709848583	-0.0409888282	 0.0120009852	 0.017973
C	-1.5509396597	-0.4245199509	-0.0302725594	-0.077653
O	-2.1605622637	-0.0023819777	 1.1824060614	-0.423721
C	 0.6648290459	-0.5979006664	-1.2050661767	 0.042825
C	 2.2173144886	-0.4944134404	-1.2502295892	-0.26163
C	 2.2526462135	-1.8877284042	-1.9048397904	 0.14064
O	 3.306762858	-2.7066338124	-1.4544660739	-0.431793
C	 0.8143167428	-2.1393626419	-1.3743691172	-0.290716
H	 1.1580747773	 1.7476143674	 0.2487388785	 0.112411
H	-0.2759470935	 1.9868152416	-0.76073386	 0.103246
H	-0.447092362	 1.8586035849	 0.9971190577	 0.132187
H	 0.3516563071	-0.5120061492	 0.9110701226	 0.076459
H	-2.0284841547	 0.054844798	-0.9021473541	 0.078379
H	-1.6492433576	-1.5137517002	-0.1596861587	 0.085896
H	-3.0964168063	-0.2176564671	 1.139918702	 0.285246
H	 0.2384582217	-0.1619943747	-2.1178769585	 0.063183
H	 2.6769610565	 0.3394680965	-1.7846867454	 0.09717
H	 2.6442329623	-0.5558005741	-0.243785132	 0.111149
H	 2.2538457952	-1.8068530508	-3.001849552	 0.063316
H	 3.2564931315	-3.5484736189	-1.9183501192	 0.280066
H	 0.8633795575	-2.6388957825	-0.4009274663	 0.104613
H	 0.1066662073	-2.6686121344	-2.0180778266	 0.087725
66.3103	81.2232	122.211	147.1283	229.7228	246.0899	256.2368	266.3411	316.9452	347.2888	374.5711	448.0118	460.8445	500.676	626.3132	787.1588	812.6189	875.7926	924.9216	933.5289	943.3515	984.9867	1014.1582	1026.0743	1056.171	1078.404	1104.5825	1126.7035	1166.7295	1184.8191	1199.3313	1217.9677	1250.5248	1257.8195	1265.4515	1271.6895	1281.2158	1314.6917	1330.9909	1361.9746	1393.4366	1401.7407	1431.9683	1457.8087	1469.9774	1493.5144	1501.2127	1505.6714	1520.2192	2952.991	2987.5766	2988.8014	3007.3487	3023.1717	3030.9795	3045.2741	3055.9766	3094.7999	3104.352	3115.7012	3129.4531	3814.5617	3834.0131
CC(CO)C1CC(O)C1	C[C@@H](CO)[C@H]1C[C@@H](O)C1	
InChI=1S/C7H14O2/c1-5(4-8)6-2-7(9)3-6/h5-9H,2-4H2,1H3	InChI=1S/C7H14O2/c1-5(4-8)6-2-7(9)3-6/h5-9H,2-4H2,1H3/t5-,6-,7+/m0/s1
