19
gdb 41930	3.39147	1.50308	1.09296	1.4431	87.18	-0.215	-0.0204	0.1945	1105.8286	0.162333	-385.918985	-385.911788	-385.910844	-385.9505	28.951	
C	-0.0139685721	 1.5224866103	-0.1170932205	-0.115212
O	 1.3384762298	 1.9064573315	 0.1365147365	-0.285773
C	 2.0321577628	 0.8003161041	 0.7011043263	 0.058262
C	 3.4386880145	 0.6133211501	 0.1403670498	-0.235879
C	 4.0455985919	-0.6730217208	 0.7374152426	-0.273226
C	 3.0888611092	-1.8418206075	 0.7282867617	-0.062351
C	 1.7637846998	-1.7165638781	 0.5521903758	-0.157667
C	 1.1735020421	-0.4037600995	 0.3905776676	 0.34466
C	-0.0149553683	 0.0176880143	-0.0489180312	-0.27177
H	-0.6933365476	 1.974688768	 0.6272104182	 0.098762
H	-0.3128621235	 1.9088753229	-1.1015475305	 0.110061
H	 2.1079805612	 0.9280987915	 1.7977974494	 0.071766
H	 3.3685842648	 0.5233193839	-0.9495077066	 0.106805
H	 4.0694824515	 1.4795923709	 0.3618309691	 0.10178
H	 4.9557926883	-0.9437476083	 0.1890488253	 0.110785
H	 4.3773991165	-0.4894947283	 1.7708459626	 0.116122
H	 3.5215454298	-2.8302891901	 0.8601499283	 0.09395
H	 1.1237619039	-2.5933926273	 0.5099815733	 0.089144
H	-0.8596252446	-0.5929011876	-0.3427038777	 0.099781
117.7169	192.0294	221.9153	333.2419	359.1285	421.9457	479.1591	545.0187	634.4186	717.1607	758.9515	767.9227	823.0547	844.0664	876.7718	892.6902	941.1051	999.0632	1000.7983	1021.2126	1035.4106	1061.7323	1092.8163	1122.5215	1153.4738	1189.4333	1198.3989	1221.6871	1238.3461	1291.4866	1324.0576	1355.1986	1371.3069	1378.5432	1393.0352	1418.7789	1471.8055	1496.7606	1517.7527	1661.2589	1719.0199	2914.9897	2944.136	2995.5037	3013.8672	3040.0855	3052.793	3092.2501	3153.948	3175.8614	3212.3911
C1OC2CCC=CC2=C1	C1O[C@@H]2CCC=CC2=C1	
InChI=1S/C8H10O/c1-2-4-8-7(3-1)5-6-9-8/h1,3,5,8H,2,4,6H2	InChI=1S/C8H10O/c1-2-4-8-7(3-1)5-6-9-8/h1,3,5,8H,2,4,6H2/t8-/m1/s1
