18
gdb 69483	4.89257	0.83813	0.78672	2.9319	73.36	-0.2213	-0.0254	0.1958	1431.9822	0.145175	-439.030193	-439.021313	-439.020369	-439.064493	32.66	
O	-0.1355702656	 1.4557260769	 0.079240258	-0.45877
C	-0.039127839	 0.0821534636	 0.0053305931	 0.377876
C	-0.3136315976	-0.7149328919	-1.2447114125	-0.360094
C	-1.1661032413	-0.9232349968	-0.002970134	-0.065285
N	-0.5056410659	-1.7279582537	 1.0236399867	-0.090081
C	-0.2721436845	-3.1357984676	 0.7721740172	-0.241836
C	 0.1885366491	-3.8391993406	 2.0390759701	 0.159518
O	 0.9691323808	-4.7542139954	 2.0655171271	-0.237841
C	 0.6644318408	-0.7944169914	 1.0491521828	-0.253356
H	 0.5553003548	 1.8395313093	-0.4716515069	 0.29003
H	-0.813124722	-0.1482118639	-2.0246929295	 0.119553
H	 0.3753579958	-1.4767924828	-1.6003311959	 0.110244
H	-2.2416705956	-0.7860098139	-0.000066117	 0.105926
H	-1.2343315516	-3.592880868	 0.4968257771	 0.131234
H	 0.4412497632	-3.364890756	-0.0365920586	 0.106312
H	-0.2791753545	-3.4324630106	 2.9638793751	 0.085324
H	 1.6227167148	-1.2389094775	 0.7486245458	 0.101434
H	 0.7747089081	-0.3080011896	 2.0229822512	 0.119811
54.5838	78.1602	123.7755	200.2502	266.3538	312.3033	351.8071	404.2522	419.1746	474.5297	519.8959	627.4998	703.0466	770.0441	853.0667	856.5002	926.6706	967.1435	976.6057	1002.6084	1041.982	1063.1797	1070.282	1083.8506	1135.3723	1145.3986	1202.8363	1226.4561	1251.489	1278.5977	1293.3033	1329.6815	1338.8794	1403.7735	1419.1864	1455.8995	1485.6906	1509.3744	1837.9123	2886.432	2968.0926	3011.8222	3027.3746	3081.9537	3110.8967	3173.5819	3204.8027	3798.1238
OC12CC1N(CC=O)C2	O[C@]12C[C@H]1N(CC=O)C2	
InChI=1S/C6H9NO2/c8-2-1-7-4-6(9)3-5(6)7/h2,5,9H,1,3-4H2	InChI=1S/C6H9NO2/c8-2-1-7-4-6(9)3-5(6)7/h2,5,9H,1,3-4H2/t5-,6+/m1/s1
