21
gdb 116372	3.04161	1.14153	0.88218	0.2732	81.46	-0.2391	0.0214	0.2605	1353.6572	0.182816	-424.210797	-424.201672	-424.200728	-424.245096	33.766	
C	 0.0642902247	 1.4204964354	-0.1782681791	-0.2397
O	 0.0163686951	 0.0387112659	 0.0959835232	-0.243892
C	-1.2923041587	-0.5207477799	 0.091140134	 0.107433
C	-1.7014863277	-0.9206208756	-1.3332380753	-0.103412
O	-3.1030622601	-1.0634904898	-1.444144507	-0.235299
C	-3.6144017592	-2.3390528367	-1.1314189658	-0.127944
C	-3.4128990619	-2.8543902767	 0.2712929832	-0.058633
C	-2.4585732379	-2.5862764365	 1.1630675116	-0.069988
C	-1.2511983764	-1.69149983	 1.0702869094	-0.266171
H	 1.1147369798	 1.7199446012	-0.1380678885	 0.12701
H	-0.3297585789	 1.6718292525	-1.1740892148	 0.107434
H	-0.4991771801	 2.0010293934	 0.568388205	 0.107425
H	-2.0265349268	 0.222862885	 0.4373578189	 0.076062
H	-1.4159485644	-0.1235287026	-2.0274205848	 0.105298
H	-1.1762032237	-1.8374341273	-1.6440825938	 0.091929
H	-4.6896283989	-2.2717350896	-1.3322897731	 0.114825
H	-3.2135759267	-3.0901066764	-1.8393142083	 0.099012
H	-4.1581653986	-3.5979084116	 0.5521749335	 0.087637
H	-2.5161004341	-3.1297703295	 2.1046245889	 0.089214
H	-0.3775948743	-2.3065021168	 0.8036685501	 0.122914
H	-1.0232596911	-1.2903517445	 2.0644444327	 0.108847
70.6338	96.0966	110.7664	173.6178	254.4461	284.9418	342.9781	383.1567	404.8307	436.6304	476.3158	548.0127	681.6659	777.4559	832.1778	898.3924	906.4816	952.9489	1001.3125	1007.9758	1030.5471	1038.6756	1091.8491	1133.2149	1148.2155	1176.8933	1183.6379	1213.1355	1235.167	1268.1993	1290.1011	1321.0752	1333.1185	1357.6679	1394.2716	1405.8699	1420.3211	1430.4723	1472.0194	1478.6557	1481.9254	1486.9672	1499.5163	1509.9851	1738.6518	2920.882	2976.1822	2984.2643	2990.8121	3002.5695	3025.4618	3056.4454	3057.0963	3072.2717	3110.9165	3122.208	3146.9881
COC1COCC=CC1	CO[C@H]1COCC=CC1	
InChI=1S/C7H12O2/c1-8-7-4-2-3-5-9-6-7/h2-3,7H,4-6H2,1H3	InChI=1S/C7H12O2/c1-8-7-4-2-3-5-9-6-7/h2-3,7H,4-6H2,1H3/t7-/m1/s1
