16
gdb 27947	3.73421	1.13846	0.87721	5.4303	81.88	-0.2498	-0.068	0.1819	1271.1227	0.124868	-400.823269	-400.81516	-400.814216	-400.857011	29.065	
C	-0.0089140883	 1.5226129339	-0.0047722314	-0.494893
C	-0.0059334671	 0.0167592353	 0.0127251576	 0.313677
C	 0.0302921391	-0.7265160063	-1.1715303691	-0.233757
C	 0.0409500153	-2.1181229426	-1.1181153987	 0.224689
C	 0.0794781715	-2.8825693922	-2.4024538526	 0.111792
O	 0.0933104765	-4.0814673486	-2.5005884834	-0.244912
N	 0.0172508471	-2.8145446293	 0.0297037687	-0.301685
C	-0.0183976027	-2.1091478387	 1.1533079126	 0.004081
C	-0.0317910261	-0.7114645141	 1.1986103199	-0.193336
H	 0.9398660235	 1.9108621469	-0.3919968	 0.145533
H	-0.802094281	 1.9079138845	-0.65373049	 0.142229
H	-0.1565487452	 1.9339337883	 0.9965553768	 0.132825
H	 0.0492830387	-0.2260237994	-2.1359860751	 0.104962
H	 0.0952745936	-2.2263417083	-3.3038561363	 0.066584
H	-0.0389047827	-2.6800138636	 2.0792298129	 0.116911
H	-0.0631289221	-0.2036370057	 2.1573726183	 0.105299
38.9727	88.9683	196.8594	216.3647	229.9412	332.7052	438.4894	448.3392	519.6843	550.2432	699.6604	761.3053	809.0226	854.7845	921.6203	925.3432	996.583	1005.9047	1020.4028	1034.8724	1065.8113	1133.663	1169.6703	1273.9038	1308.2918	1333.9163	1407.8406	1413.794	1449.2195	1483.9394	1489.8087	1510.1827	1602.7233	1636.7307	1825.5465	2859.0675	3037.2803	3094.3775	3123.9192	3151.0758	3165.3824	3184.7065
CC1=CC(C=O)=NC=C1	Cc1cc(C=O)ncc1	
InChI=1S/C7H7NO/c1-6-2-3-8-7(4-6)5-9/h2-5H,1H3	InChI=1S/C7H7NO/c1-6-2-3-8-7(4-6)5-9/h2-5H,1H3
