21
gdb 100078	3.21563	0.93345	0.86525	3.3165	75.45	-0.2462	0.0529	0.2991	1418.3683	0.180818	-457.584841	-457.574045	-457.573101	-457.620145	40.189	
C	-0.0645488281	 1.5511354119	 0.1239315292	-0.423523
C	 0.0271653496	 0.0171055017	 0.0821747855	 0.259072
C	 0.72456697	-0.5246894814	 1.3408379448	-0.404704
C	-1.3934270855	-0.585272288	-0.0372894422	-0.09706
O	-2.2309386682	-0.2891468221	 1.0607071643	-0.415217
N	 0.7154321108	-0.4090813448	-1.1502928286	-0.377634
C	 2.0287809387	-0.0991148248	-1.4317620328	 0.455377
N	 2.5340170411	-0.7898499627	-2.5329299098	-0.562005
O	 2.7104679244	 0.6806971097	-0.7903394084	-0.394378
H	 0.9338295028	 1.9875029652	 0.1354850538	 0.163235
H	-0.6004802996	 1.9317931287	-0.7524502694	 0.104157
H	-0.590987654	 1.8727979208	 1.0283693914	 0.103619
H	 0.1317658383	-0.2878248966	 2.2279385967	 0.121988
H	 0.8258366789	-1.614028727	 1.2829688133	 0.10041
H	 1.7200789589	-0.0893084759	 1.439255839	 0.146071
H	-1.8388330012	-0.2564006478	-0.9895366426	 0.089907
H	-1.3202572298	-1.6803548078	-0.0650028657	 0.102256
H	-2.4650375322	 0.6427325006	 1.0139336984	 0.289899
H	 0.3924344028	-1.2849628655	-1.5357417218	 0.23332
H	 1.8896578524	-1.0032512865	-3.2802056873	 0.245992
H	 3.4065254299	-0.3970465777	-2.8537616279	 0.259218
81.2871	94.0767	133.9279	154.6104	224.8691	257.8001	269.6507	328.752	339.6469	346.5716	350.3194	384.1678	421.479	455.2017	461.0526	561.8904	587.8369	680.6016	777.1621	787.5871	895.6582	907.4391	955.8933	1013.1702	1034.241	1041.1301	1105.8232	1112.8508	1154.5629	1217.5403	1261.6606	1281.1891	1337.5612	1380.0288	1388.347	1410.7193	1426.4091	1480.349	1492.8832	1500.8243	1502.8594	1523.8636	1539.0184	1625.2318	1794.5991	2978.5258	3034.1873	3040.8251	3045.1811	3099.559	3112.6318	3147.9533	3157.2214	3568.5173	3591.4811	3681.7204	3829.6946
CC(C)(CO)NC(N)=O	CC(C)(CO)NC(=O)N	
InChI=1S/C5H12N2O2/c1-5(2,3-8)7-4(6)9/h8H,3H2,1-2H3,(H3,6,7,9)	InChI=1S/C5H12N2O2/c1-5(2,3-8)7-4(6)9/h8H,3H2,1-2H3,(H3,6,7,9)
