19
gdb 71356	2.88546	1.94789	1.55258	1.6871	77.72	-0.2492	0.0773	0.3265	920.4594	0.160685	-385.825596	-385.818752	-385.817808	-385.856342	28.854	
C	 0.0219425959	 1.527337803	-0.0605849823	-0.519674
C	 0.0099234294	 0.0211129191	-0.0184784237	 0.359751
C	 0.6015746628	-0.9270222413	-1.0970155275	-0.291802
C	 0.0276949552	-1.8701620153	-0.0261982989	-0.066764
C	 0.5986295007	-0.9240202843	 1.0954067125	-0.097522
C	-0.3862133919	-0.9650526508	 2.2585649876	 0.016865
O	-1.26824501	 0.172812995	 2.3366678662	-0.259899
C	-1.6712988436	-0.9742821847	 1.56172615	 0.016869
C	-1.2342028996	-0.9371850468	 0.1015499182	-0.097529
H	 1.0516293875	 1.9004224333	-0.109307522	 0.111776
H	-0.5014627725	 1.8892136032	-0.9532842839	 0.111762
H	-0.460702569	 1.9484683572	 0.8220802502	 0.146838
H	 0.1050782837	-0.9253340163	-2.0722956525	 0.087768
H	 1.6897161765	-0.9139693944	-1.2130307015	 0.087769
H	 0.0316769399	-2.9616719584	-0.0190826642	 0.070653
H	 1.6716544303	-0.9111205215	 1.292537718	 0.063707
H	-0.1796707933	-1.4716009044	 3.1958201139	 0.097862
H	-2.5638031961	-1.4887270304	 1.9030191423	 0.097861
H	-1.984880526	-0.9374002624	-0.6902149125	 0.063708
178.4059	236.333	243.9696	354.0748	413.0121	433.8143	518.5459	634.2207	728.869	739.5468	754.9367	809.2214	821.05	872.7352	900.7583	902.9309	931.4053	952.3531	959.6712	1003.0268	1012.617	1016.2171	1046.413	1057.62	1100.6164	1123.8528	1139.2092	1182.0999	1201.5742	1208.6841	1217.9865	1257.5354	1267.5759	1298.1255	1308.1311	1342.2314	1403.1696	1415.8252	1484.1095	1501.584	1518.0737	3028.3844	3039.8103	3083.9718	3093.2467	3097.9138	3105.3811	3109.8575	3145.0462	3162.3009	3174.5842
CC12CC3C1C1OC1C23	C[C@@]12C[C@H]3[C@@H]1[C@H]1O[C@H]1[C@@H]23	
InChI=1S/C8H10O/c1-8-2-3-4(8)6-7(9-6)5(3)8/h3-7H,2H2,1H3	InChI=1S/C8H10O/c1-8-2-3-4(8)6-7(9-6)5(3)8/h3-7H,2H2,1H3/t3-,4+,5-,6+,7-,8+
