21
gdb 98783	3.97089	0.93039	0.83702	2.417	83.98	-0.2374	-0.0067	0.2306	1456.9191	0.182044	-387.129852	-387.120383	-387.119439	-387.165644	34.252	
C	-0.3779096336	 1.4345202254	 0.1961307518	-0.377649
C	-0.102555504	-0.0386308044	-0.0925845265	-0.280342
C	 0.789602909	-0.2726412211	-1.3052460891	 0.366442
O	 1.3231164077	 0.6440784962	-1.8893774981	-0.3082
C	 0.9435420498	-1.7233014	-1.7534206585	-0.076273
C	-0.2875752372	-2.1731997004	-2.6179607412	-0.267995
C	 0.3441709933	-2.9717267393	-3.7314547092	-0.060257
C	 1.6710102717	-2.8743334887	-3.7378105517	-0.058313
C	 2.190544918	-1.9880134791	-2.6343423593	-0.277881
H	 0.5561425967	 1.9814701742	 0.3446516869	 0.13412
H	-0.8988256112	 1.9062476678	-0.641478253	 0.127815
H	-0.994300412	 1.5460839721	 1.0925865239	 0.108406
H	 0.3892094185	-0.5231197405	 0.7637475413	 0.123026
H	-1.0341734839	-0.6027734336	-0.23573615	 0.121231
H	 0.9732482485	-2.358189379	-0.8617780898	 0.080806
H	-1.0097044275	-2.7514191638	-2.030657403	 0.107017
H	-0.8379153451	-1.3120870541	-3.0234833645	 0.115784
H	-0.2512713514	-3.5181494648	-4.4546672217	 0.092384
H	 2.3272920305	-3.3373430925	-4.466641437	 0.093457
H	 2.5783888212	-1.0414034954	-3.0301675133	 0.135543
H	 3.003685411	-2.4504090888	-2.063232008	 0.100879
37.2223	54.5456	68.9909	167.8409	195.487	239.7746	322.3999	350.4275	384.9579	549.2325	589.0424	673.6976	719.3987	778.4691	797.1594	815.5466	901.7947	922.3073	950.5704	975.0672	982.6303	1005.5636	1017.6172	1029.1419	1075.2567	1106.9297	1128.9676	1136.4442	1161.2423	1206.1793	1274.8803	1296.5634	1298.6141	1321.1898	1351.2781	1364.0762	1384.5217	1413.4589	1450.6726	1484.7445	1489.4613	1492.4003	1497.8957	1694.6581	1802.827	3005.7676	3012.0046	3031.7098	3039.6461	3043.5666	3050.9945	3057.456	3069.2763	3120.0178	3129.1241	3180.9836	3206.586
CCC(=O)C1CC=CC1	CCC(=O)[C@H]1CC=CC1	
InChI=1S/C8H12O/c1-2-8(9)7-5-3-4-6-7/h3-4,7H,2,5-6H2,1H3	InChI=1S/C8H12O/c1-2-8(9)7-5-3-4-6-7/h3-4,7H,2,5-6H2,1H3
