21
gdb 7137	5.28513	0.80557	0.77327	3.299	77.33	-0.24	0.0375	0.2775	1592.3245	0.187352	-366.311995	-366.301716	-366.300772	-366.349263	35.395	
C	 0.248417569	 1.4840199667	-0.0497570249	-0.38539
C	 0.5486688098	-0.0143402725	 0.0199982064	-0.148651
C	 0.2225523012	-0.6247563513	 1.3874612406	-0.299543
C	 0.3695297943	-2.1451576571	 1.3883871768	 0.414805
O	 0.0444545451	-2.8291054806	 0.4323456491	-0.379896
N	 0.863440873	-2.6770473569	 2.545832224	-0.317264
C	 1.0632489603	-4.1040720839	 2.7404869402	-0.143291
C	 2.5412454971	-4.4968946947	 2.7953382086	-0.371605
H	 0.8288411258	 2.0464389211	 0.6907415846	 0.109166
H	 0.4907009265	 1.8893038891	-1.0370087495	 0.114681
H	-0.8118006284	 1.6854953569	 0.141232332	 0.113946
H	-0.0232521063	-0.5590578262	-0.7366557413	 0.128805
H	 1.6061885538	-0.1927266108	-0.2110687014	 0.098069
H	 0.8378575287	-0.1696639028	 2.173794874	 0.087343
H	-0.8224714785	-0.4035959179	 1.6450302506	 0.125432
H	 1.1461477195	-2.0491576771	 3.2803803663	 0.239049
H	 0.553921077	-4.4193478236	 3.6598758177	 0.10307
H	 0.5666610109	-4.5922700845	 1.8994846221	 0.15072
H	 3.0453879562	-4.2344707817	 1.8608354738	 0.132529
H	 3.0599603309	-3.9894921904	 3.6165028981	 0.108677
H	 2.6445090343	-5.5753963219	 2.9519219322	 0.119348
23.6669	34.1989	73.2109	111.0019	164.8517	227.7078	246.996	314.4704	323.7445	381.7027	439.3672	467.932	623.3412	713.5375	752.5516	795.8238	872.4013	897.7183	909.704	949.3378	1052.7043	1068.3251	1102.3146	1112.3917	1136.687	1174.3108	1223.5429	1257.7052	1303.7339	1320.0635	1344.7214	1388.2124	1398.3834	1410.5399	1413.5471	1465.4072	1483.6626	1492.2598	1492.7395	1499.9113	1502.2199	1509.5943	1541.6423	1772.2202	3013.6458	3025.5435	3026.2595	3032.6284	3033.7183	3052.1155	3079.3567	3094.8978	3101.2292	3104.6836	3115.8459	3126.8436	3641.1287
CCCC(=O)NCC	CCCC(=O)NCC	
InChI=1S/C6H13NO/c1-3-5-6(8)7-4-2/h3-5H2,1-2H3,(H,7,8)	InChI=1S/C6H13NO/c1-3-5-6(8)7-4-2/h3-5H2,1-2H3,(H,7,8)
