15
gdb 86777	2.85192	1.07242	0.92942	3.7301	67.72	-0.2618	-0.0049	0.2569	1254.7989	0.111918	-453.961982	-453.953018	-453.952074	-453.997013	30.591	
O	 0.0503227255	 1.4653144904	 0.0285044063	-0.421788
C	-0.0314426259	 0.0668180413	 0.0407088788	-0.010867
C	-1.4743764016	-0.469179707	-0.1777060882	-0.191083
N	-0.9601922793	-1.1622620608	-1.3705322781	-0.091514
C	-1.5975738322	-1.9261506803	-2.4123564611	-0.301757
C	-2.6753288033	-1.1831402509	-3.083952646	 0.265519
N	-3.5349458889	-0.594658769	-3.5825876848	-0.294982
C	 0.3113666122	-0.6407173764	-1.3007135953	 0.385865
O	 1.2596735961	-0.7125802494	-2.0355975935	-0.366235
H	 0.9459557331	 1.7054540395	-0.2353559135	 0.303928
H	 0.4769176799	-0.3811884527	 0.9052403002	 0.101503
H	-1.8678898509	-1.1370889095	 0.5936547771	 0.120664
H	-2.1901554879	 0.3257778559	-0.4035674311	 0.146953
H	-0.8203831157	-2.1807886977	-3.1410857014	 0.19022
H	-2.0130894113	-2.8651076131	-2.0247537695	 0.163574
47.1694	60.4093	125.2343	160.2433	211.01	248.5345	302.2501	374.3749	402.7313	473.8728	557.6909	696.1588	765.6675	811.6952	874.9114	916.0941	950.1495	997.5232	1058.2709	1142.5968	1155.144	1176.303	1201.8896	1267.7663	1299.7475	1323.0947	1370.498	1408.5112	1413.2013	1456.881	1516.8215	1883.3488	2364.3027	3016.9505	3029.2164	3055.6708	3089.2532	3115.0637	3806.0745
OC1CN(CC#N)C1=O	O[C@H]1CN(CC#N)C1=O	
InChI=1S/C5H6N2O2/c6-1-2-7-3-4(8)5(7)9/h4,8H,2-3H2	InChI=1S/C5H6N2O2/c6-1-2-7-3-4(8)5(7)9/h4,8H,2-3H2/t4-/m0/s1
