17
gdb 95398	2.31687	1.73311	1.03064	1.1483	71.81	-0.2407	-0.0678	0.1729	1113.5708	0.137175	-455.182247	-455.173993	-455.173049	-455.214784	31.962	
N	 0.049280898	 1.3227025807	 0.1393312131	-0.542372
C	-0.0469125873	-0.0396817175	 0.049424499	 0.281533
N	-1.1714294629	-0.6490196475	-0.0006094087	-0.288725
C	-1.2042947335	-2.1044230947	-0.025692589	-0.165976
C	 0.0662780004	-2.7878762666	-0.5481021127	-0.249133
C	 1.2756988966	-2.2337347491	 0.206761591	 0.067196
O	 2.4838785488	-2.813821092	-0.1963159195	-0.446488
C	 1.2963132625	-0.7323969649	 0.0187040125	 0.314766
O	 2.3317921117	-0.1271001773	-0.1753078539	-0.350004
H	 0.9370486303	 1.7206342408	-0.1244062928	 0.269346
H	-0.7810994423	 1.8493217353	-0.079728155	 0.26008
H	-1.4173270939	-2.4595152128	 0.9952416013	 0.113711
H	-2.0674004273	-2.4068305485	-0.6280986999	 0.114826
H	 0.0114293027	-3.8731594035	-0.4184601653	 0.115845
H	 0.1934592045	-2.5904923192	-1.6195202051	 0.113066
H	 1.1041325398	-2.3991366188	 1.2902717979	 0.098768
H	 3.1182527619	-2.0855931843	-0.2734783727	 0.293562
88.6755	178.1381	266.2056	268.0329	314.8069	336.1611	405.4407	425.9328	439.9151	481.1103	498.8476	526.8539	604.5616	650.4817	729.5015	818.4376	893.2659	900.0408	976.1452	1041.9116	1089.241	1105.502	1165.2798	1175.9112	1205.37	1261.4832	1286.1411	1327.8578	1359.4196	1376.2674	1404.0125	1436.3181	1487.8362	1495.5903	1601.8774	1715.5268	1782.1426	2899.738	2984.2679	3037.5451	3060.7606	3091.1093	3586.8295	3711.442	3720.944
NC1=NCCC(O)C1=O	NC1=NCC[C@@H](O)C1=O	
InChI=1S/C5H8N2O2/c6-5-4(9)3(8)1-2-7-5/h3,8H,1-2H2,(H2,6,7)	InChI=1S/C5H8N2O2/c6-5-4(9)3(8)1-2-7-5/h3,8H,1-2H2,(H2,6,7)/t3-/m1/s1
