17
gdb 28701	5.81706	0.83899	0.75169	2.6201	81.06	-0.1958	0.0122	0.208	1491.4432	0.136108	-418.042778	-418.033945	-418.033001	-418.076999	31.887	
C	 0.1681784402	 1.5889043164	-0.3316045607	-0.503139
C	 0.0092575562	 0.1295106935	-0.065591573	 0.303512
C	-0.5906820536	-0.8672137087	-0.7974809924	-0.208397
C	-0.4439833165	-2.1022986875	-0.0927026983	-0.271096
C	 0.238288254	-1.8021103006	 1.0582955303	 0.367969
N	 0.5106089339	-0.4613851249	 1.0796975367	-0.354216
O	 0.6939807058	-2.5596548002	 2.097825775	-0.21323
C	-0.1578359959	-3.4886416785	 2.6146527284	 0.109028
N	 0.2790958332	-4.3246539665	 3.4476652745	-0.430046
H	-0.311947349	 2.2082999147	 0.436699821	 0.126576
H	 1.2224155073	 1.8894961999	-0.3809039253	 0.128395
H	-0.2909094587	 1.8394874228	-1.2906159326	 0.139192
H	-1.0780375943	-0.7315511475	-1.7511240688	 0.094139
H	-0.770036411	-3.0811633411	-0.405236951	 0.102243
H	 1.0085301307	-0.001049419	 1.8225728974	 0.265655
H	-1.1766946073	-3.3848966036	 2.2250405643	 0.107738
H	-0.4772379749	-4.9304640693	 3.7593084344	 0.235676
51.6065	110.8099	115.7018	155.6611	221.5506	282.7602	364.4891	440.4808	453.4667	491.4037	634.9122	650.8514	676.1861	770.3547	790.4477	813.6121	829.5432	983.3653	996.8715	1011.2312	1052.1512	1060.5412	1063.9325	1070.2788	1212.574	1258.0343	1274.1915	1301.5659	1399.6746	1418.8412	1425.392	1475.0367	1479.3634	1500.092	1557.6368	1638.6964	1746.1209	3015.0572	3058.3734	3064.4596	3122.9781	3244.6914	3263.8095	3521.4234	3674.4561
CC1=CC=C(N1)OC=N	Cc1ccc([nH]1)O[CH][NH]	
InChI=1S/C6H8N2O/c1-5-2-3-6(8-5)9-4-7/h2-4,7-8H,1H3	InChI=1S/C6H8N2O/c1-5-2-3-6(8-5)9-4-7/h2-4,7-8H,1H3
