20
gdb 6861	3.25319	1.7789	1.59889	1.8714	70.35	-0.2579	0.0785	0.3364	922.7884	0.177503	-386.153098	-386.145112	-386.144168	-386.184711	31.394	
C	 0.0469904684	 1.4956729153	 0.0613661572	-0.414631
C	-0.0671290133	-0.02560617	-0.0211776245	 0.360986
C	-1.5478125372	-0.4413499113	 0.0067948852	-0.423915
C	 0.6683097348	-0.5615098258	-1.2704876714	-0.219457
C	 0.9754313089	-2.0549133913	-1.139583066	-0.101023
O	 1.6488034213	-2.3126709504	 0.0842066133	-0.231553
C	 0.8716395894	-1.8831738849	 1.1702088791	 0.010917
O	 0.6183000357	-0.5045000196	 1.1555902886	-0.279665
H	 1.097530092	 1.79134798	 0.125113642	 0.122917
H	-0.398176604	 1.9647208095	-0.8214912108	 0.11006
H	-0.4684138702	 1.8687680685	 0.9512847291	 0.119482
H	-2.0918248626	 0.049584283	-0.8062878823	 0.11564
H	-1.6904769812	-1.5188357937	-0.1071192072	 0.115277
H	-1.9987540781	-0.1377867174	 0.9558260816	 0.123775
H	 0.0763965715	-0.3704762043	-2.1727531373	 0.094303
H	 1.6166142413	-0.0232384131	-1.3725792442	 0.107371
H	 0.052852109	-2.65691456	-1.1929624182	 0.089808
H	 1.6384965399	-2.3929144934	-1.9404741013	 0.110891
H	-0.0731191338	-2.4570902708	 1.1976642017	 0.073695
H	 1.4489106282	-2.0820674703	 2.0760022154	 0.115123
150.6493	199.0764	230.2383	242.8123	315.8477	330.5841	380.7778	400.2736	467.0446	482.1098	515.5615	680.6029	717.0811	841.5589	868.0826	924.5609	935.2549	985.2242	992.056	1012.3275	1047.3913	1076.3403	1115.7422	1162.4751	1199.2921	1237.0308	1256.0276	1272.3853	1285.5433	1328.3874	1373.9172	1397.4143	1399.0556	1415.3402	1445.9171	1466.6846	1479.6468	1486.0564	1495.0104	1497.9613	1512.2588	1520.6963	2931.2106	2968.0841	3037.0978	3039.6944	3046.518	3083.9307	3090.8952	3104.2296	3110.6521	3116.7371	3121.5449	3121.9958
CC1(C)CCOCO1	CC1(C)CCOCO1	
InChI=1S/C6H12O2/c1-6(2)3-4-7-5-8-6/h3-5H2,1-2H3	InChI=1S/C6H12O2/c1-6(2)3-4-7-5-8-6/h3-5H2,1-2H3
