20
gdb 15267	3.59943	1.29926	1.17738	1.8016	71.85	-0.2269	0.0666	0.2935	1136.2697	0.175259	-386.108266	-386.098843	-386.097899	-386.142594	33.886	
C	 0.4278444655	 1.4598048614	 0.2843101181	-0.373992
C	-0.2205806558	 0.1539803177	-0.1893946319	-0.188944
C	 0.5316394914	-0.4659276414	-1.3506047857	-0.106666
C	 1.7936446047	-1.2829819781	-1.1235853393	 0.091116
O	 2.2105186247	-1.5692216223	 0.1793213379	-0.43249
C	 0.5297469184	-1.9532095051	-1.6144154656	 0.034306
O	-0.1240931522	-2.7599086382	-0.6734059683	-0.25362
C	 0.2158201894	-4.1319120716	-0.8112559058	-0.243898
H	 1.4458414987	 1.2731961826	 0.6384824026	 0.133365
H	 0.4822419429	 2.1942576634	-0.527049716	 0.1079
H	-0.1426583108	 1.9097970403	 1.1030188713	 0.106844
H	-0.2706591812	-0.5542011455	 0.6416847481	 0.101253
H	-1.2591290472	 0.3358171733	-0.4922193091	 0.096569
H	 0.5377100384	 0.1422533807	-2.253201974	 0.084398
H	 2.6397659004	-1.153445441	-1.7910584237	 0.096681
H	 1.5110828076	-2.1058709056	 0.5753612046	 0.292394
H	 0.4513350404	-2.3150784868	-2.6397091528	 0.085085
H	-0.089298334	-4.5172560713	-1.7946368963	 0.115824
H	 1.2947195148	-4.2976301814	-0.6900530348	 0.122677
H	-0.325504396	-4.6752974409	-0.0334612293	 0.131197
61.0496	99.3249	113.1739	174.7709	204.7226	256.5562	281.9821	296.2642	324.8666	432.8897	572.4654	605.1348	662.2707	737.5558	793.9606	798.0563	871.992	971.4535	1006.9151	1036.6844	1078.4048	1095.037	1106.7979	1138.2337	1150.7311	1166.1301	1183.2979	1223.9549	1250.2144	1288.5459	1313.7704	1339.1891	1372.6686	1397.4463	1408.9639	1460.8154	1481.3385	1487.5145	1490.6938	1499.7611	1509.2012	1510.0632	2994.1659	3032.863	3034.2891	3051.0651	3084.8891	3094.9012	3102.8617	3115.8494	3122.3294	3125.69	3158.8488	3756.9871
CCC1C(O)C1OC	CC[C@H]1[C@@H](O)[C@H]1OC	
InChI=1S/C6H12O2/c1-3-4-5(7)6(4)8-2/h4-7H,3H2,1-2H3	InChI=1S/C6H12O2/c1-3-4-5(7)6(4)8-2/h4-7H,3H2,1-2H3/t4-,5+,6-/m0/s1
