17
gdb 62827	2.29505	1.54122	1.3661	2.2796	69.92	-0.2534	-0.0452	0.2082	1032.1735	0.132999	-458.900878	-458.892342	-458.891398	-458.934219	32.11	
C	-0.0983138693	 1.6666616181	 0.0487494123	-0.465831
C	 0.0018517526	 0.1579788962	 0.0431351987	 0.434809
O	-1.2817282561	-0.3558484062	-0.0689710823	-0.475686
C	 1.1055096338	-0.6292388868	-0.74253085	-0.029404
C	 2.1917562807	-0.1764496101	 0.2504671086	-0.271875
C	 0.961544441	-0.6306300515	 1.0610072278	 0.249836
O	 0.826846677	-1.7984527331	 0.146649096	-0.370229
C	 0.7899844169	-0.8455515171	 2.5240342821	 0.032614
O	 1.1581037878	-0.0494262961	 3.3512603781	-0.250397
H	 0.8660344531	 2.1627552815	 0.1515740373	 0.128377
H	-0.5671522016	 1.9986824198	-0.882395051	 0.137622
H	-0.741551462	 1.9812742659	 0.8750166258	 0.146812
H	-1.1679173784	-1.3183635918	-0.0921603041	 0.289305
H	 1.1801054169	-0.8400349223	-1.8099399332	 0.104037
H	 3.0364478676	-0.8605307994	 0.32377614	 0.124036
H	 2.4904226984	 0.8694574925	 0.2837968439	 0.120274
H	 0.2661559916	-1.7885527496	 2.7941457001	 0.095699
63.6	133.8178	154.7901	189.188	263.4678	334.3887	399.2977	422.7809	488.6093	530.3286	621.0686	638.5102	672.8911	721.0955	732.1287	786.2732	896.0868	916.7242	982.1934	995.2297	1023.4912	1037.1625	1093.1416	1106.0376	1120.294	1184.6985	1210.2685	1220.3663	1263.9714	1309.2398	1392.9066	1406.7171	1438.2041	1478.0547	1488.3639	1505.0828	1813.5411	2895.6996	3056.5875	3101.7119	3119.5277	3119.8332	3156.17	3180.0619	3716.2879
CC1(O)C2CC1(O2)C=O	C[C@@]1(O)[C@H]2C[C@@]1(O2)C=O	
InChI=1S/C6H8O3/c1-5(8)4-2-6(5,3-7)9-4/h3-4,8H,2H2,1H3	InChI=1S/C6H8O3/c1-5(8)4-2-6(5,3-7)9-4/h3-4,8H,2H2,1H3/t4-,5-,6-/m1/s1
