23
gdb 68586	2.03699	1.84605	1.52252	1.572	84.43	-0.2393	0.0805	0.3198	1066.209	0.205315	-388.290316	-388.281278	-388.280334	-388.322942	36.489	
C	 0.0678160983	 1.5211670808	 0.099583305	-0.503489
C	-0.0016412808	 0.0225373852	 0.0019710203	 0.390502
C	 0.8749080548	-0.6981657637	-1.052610672	-0.259951
C	 0.6363353683	-2.1624126538	-0.5682278906	-0.232922
C	-0.3030391278	-1.8206607782	 0.6043671852	 0.044251
O	 0.4023337996	-0.6986565054	 1.2177261589	-0.339515
C	-1.3372058719	-0.8082294867	 0.0271819603	 0.298358
C	-2.3159625528	-0.3178872434	 1.0972795741	-0.455454
C	-2.0879829852	-1.1096274207	-1.2677305845	-0.481024
H	 1.0947628116	 1.8397474854	 0.3072277297	 0.128103
H	-0.2423002408	 1.9794616813	-0.8456003786	 0.119736
H	-0.5758520568	 1.9021468574	 0.8965974731	 0.127031
H	 0.5599399065	-0.512788807	-2.082684366	 0.094979
H	 1.9176643861	-0.3882724111	-0.9518881519	 0.101875
H	 0.1817202523	-2.81270013	-1.3198932211	 0.095952
H	 1.549965856	-2.6386791615	-0.2069143122	 0.10503
H	-0.5813218352	-2.6066893576	 1.3084126813	 0.068077
H	-1.8040443769	-0.107103738	 2.0373537292	 0.135071
H	-2.8315628219	 0.5922247738	 0.7698192574	 0.107805
H	-3.0854056528	-1.0752018976	 1.2858795756	 0.106635
H	-2.8621188208	-1.8654407073	-1.0922745861	 0.116168
H	-2.5960322648	-0.2090352707	-1.6315580034	 0.115999
H	-1.4479009649	-1.4750802612	-2.0726660538	 0.116786
159.1914	184.2339	199.4026	231.8437	255.5152	283.3775	308.9708	338.6438	375.0854	441.8379	477.0438	587.0947	624.4703	639.1274	719.6321	796.9428	837.8741	865.5981	886.2112	923.7732	941.4498	954.8517	962.2828	984.931	995.977	1022.9862	1079.0292	1128.0932	1167.0402	1186.996	1202.849	1226.0477	1238.4616	1245.5972	1284.902	1296.7705	1315.4599	1355.4629	1398.0253	1411.6845	1418.6778	1472.76	1480.0067	1483.0796	1493.0758	1496.3456	1502.891	1507.7146	1517.2967	3027.4857	3033.0795	3037.2801	3062.9921	3070.7192	3081.3995	3087.0966	3101.975	3104.8861	3107.1877	3117.6943	3119.6316	3127.8102	3137.103
CC12CCC(O1)C2(C)C	C[C@@]12CC[C@@H](O1)C2(C)C	
InChI=1S/C8H14O/c1-7(2)6-4-5-8(7,3)9-6/h6H,4-5H2,1-3H3	InChI=1S/C8H14O/c1-7(2)6-4-5-8(7,3)9-6/h6H,4-5H2,1-3H3/t6-,8+/m1/s1
