21
gdb 59724	2.25079	1.48941	0.95673	0.8751	81.51	-0.223	0.0242	0.2471	1269.2432	0.180921	-424.237764	-424.227991	-424.227047	-424.272362	36.217	
C	 0.1513059364	 1.5399863855	 0.1005006219	-0.405101
C	 0.0618440478	 0.0171908466	 0.0756630209	 0.114165
O	-1.2620325656	-0.4350593968	 0.3520589308	-0.427747
C	 0.5641931558	-0.5701001746	-1.2635791791	 0.015489
O	 1.8601510309	-0.0441797583	-1.5532041577	-0.279261
C	 2.7971623852	-1.1030472985	-1.7474724337	-0.117179
C	 2.0049954811	-2.3588995697	-1.5471355977	-0.208893
C	 0.7312458023	-2.0761341371	-1.2827838125	 0.32081
C	-0.4010139465	-3.0291962178	-1.0701540386	-0.49529
H	 1.1786450297	 1.8676344069	-0.069550859	 0.140651
H	-0.4737726104	 1.9752349117	-0.6907282181	 0.101547
H	-0.1988274188	 1.9221440233	 1.0632995413	 0.118038
H	 0.678552691	-0.4014676344	 0.8795716383	 0.09065
H	-1.8573500207	 0.0188670973	-0.2550578175	 0.278304
H	-0.1439402361	-0.2433165627	-2.0501874611	 0.060459
H	 3.2309702259	-1.0347684071	-2.7581530984	 0.102513
H	 3.6287542421	-0.996677041	-1.0332992036	 0.103596
H	 2.4353322545	-3.3495075913	-1.6317139948	 0.097141
H	-0.0606554546	-4.0659412336	-1.1379701793	 0.116175
H	-0.8787704164	-2.8679003472	-0.100147422	 0.153879
H	-1.1836840735	-2.8786634013	-1.8250125601	 0.120056
65.3828	91.8614	167.252	198.4667	237.5807	247.3533	281.7087	290.2941	318.3557	359.8793	435.8347	466.3891	564.2615	615.5643	778.528	804.4024	865.1485	905.6109	944.0173	965.1673	986.745	1040.0622	1043.7614	1056.7798	1075.5236	1103.1853	1116.812	1156.0104	1194.4427	1207.7634	1254.4526	1280.9576	1327.857	1344.808	1380.1148	1385.0636	1396.7702	1414.948	1419.0942	1476.5489	1489.2655	1491.0614	1496.3889	1525.1161	1729.5897	2906.2406	2970.7111	2987.4452	3021.6142	3025.856	3048.8537	3088.1744	3100.3205	3124.7918	3141.1366	3206.9953	3796.8563
CC(O)C1OCC=C1C	C[C@@H](O)[C@H]1OCC=C1C	
InChI=1S/C7H12O2/c1-5-3-4-9-7(5)6(2)8/h3,6-8H,4H2,1-2H3	InChI=1S/C7H12O2/c1-5-3-4-9-7(5)6(2)8/h3,6-8H,4H2,1-2H3/t6-,7+/m1/s1
