23
gdb 56146	3.07203	0.88033	0.82324	3.4517	82.92	-0.2434	0.0546	0.2979	1537.7503	0.204114	-421.663739	-421.652571	-421.651627	-421.70029	41.446	
C	-0.0395354602	 1.5482350203	 0.2999664126	-0.406962
C	 0.0066299522	 0.0500507887	-0.0462073373	 0.267505
C	 0.8976528299	-0.692350651	 0.9635025714	-0.397407
C	-1.4169615369	-0.5317637158	-0.0094449922	-0.404331
C	 0.5534622407	-0.1480493451	-1.4807737446	-0.171274
N	 1.9046539117	 0.3488618973	-1.690123971	-0.341807
C	 2.9517217454	-0.5115954505	-1.9320176808	 0.452397
N	 4.1372820201	 0.1317944577	-2.2824168248	-0.566649
O	 2.8587897475	-1.7240247254	-1.8759363527	-0.391799
H	 0.9607386194	 1.993145027	 0.2677240673	 0.101582
H	-0.6802660951	 2.0997550781	-0.3985143495	 0.102337
H	-0.4372351521	 1.7056661518	 1.3081701397	 0.112669
H	 0.5036177263	-0.5849885199	 1.9800106171	 0.101692
H	 0.9550703176	-1.7600339881	 0.7303498453	 0.124749
H	 1.9175289127	-0.2968829849	 0.9548556251	 0.112313
H	-2.0737897005	-0.0274535045	-0.7276589963	 0.105659
H	-1.4145248586	-1.600366592	-0.250694639	 0.115582
H	-1.860679302	-0.4151976455	 0.984826374	 0.110153
H	 0.5760402204	-1.2139957306	-1.7214270213	 0.140714
H	-0.1217922527	 0.3429843975	-2.1938537934	 0.090649
H	 2.0106635474	 1.30487573	-1.9863551646	 0.23938
H	 4.3104711591	 1.038404541	-1.8734810548	 0.243455
H	 4.9307207777	-0.4895690059	-2.2318062203	 0.259392
38.3904	63.6986	85.2343	206.5818	246.8054	249.2146	262.6436	272.9768	313.845	347.1354	359.4715	385.025	413.924	438.3883	469.2221	554.7743	580.1483	660.3024	746.0183	779.4202	872.8394	911.507	938.9871	940.8741	958.607	977.3686	1050.6392	1074.5512	1102.02	1152.253	1234.1421	1239.1642	1275.4932	1314.2407	1343.6781	1392.9336	1398.3295	1399.993	1433.5514	1471.856	1479.0436	1485.0882	1488.6277	1506.0617	1507.3721	1518.9243	1541.7222	1628.8556	1801.5238	3016.1193	3020.5423	3025.369	3035.1826	3086.7094	3091.0095	3095.1495	3096.4537	3102.3451	3107.4476	3112.1133	3569.6504	3641.536	3682.4009
CC(C)(C)CNC(N)=O	CC(C)(C)CNC(=O)N	
InChI=1S/C6H14N2O/c1-6(2,3)4-8-5(7)9/h4H2,1-3H3,(H3,7,8,9)	InChI=1S/C6H14N2O/c1-6(2,3)4-8-5(7)9/h4H2,1-3H3,(H3,7,8,9)
