20
gdb 73700	2.71153	1.96211	1.35564	2.3754	78.7	-0.2263	0.0855	0.3118	988.6721	0.172967	-403.071938	-403.064495	-403.063551	-403.103475	30.115	
C	 0.0058512835	 1.5211615961	-0.0906713262	-0.493896
C	 0.0356183704	 0.0042859888	 0.0530080086	 0.343564
C	 0.2250226385	-0.6038145936	-1.3412523884	-0.138596
O	-0.24406221	-1.9254350712	-1.4633572865	-0.241417
C	-0.0124854656	-2.6956257379	-0.3045873824	-0.112333
C	-0.1525719334	-1.872370917	 0.9584053302	 0.021783
C	 0.7838902563	-0.6741778634	 1.2376230803	-0.124145
C	-0.3792784318	-0.1778309179	 2.1143126858	-0.181646
N	-1.127302147	-0.6671196575	 0.8631375404	-0.18758
H	 0.7865970588	 1.8356005238	-0.792730864	 0.122107
H	-0.9573953024	 1.8367901916	-0.5051471853	 0.137406
H	 0.1723264515	 2.0646073941	 0.8399221081	 0.121801
H	-0.3311670218	-0.0194112498	-2.0815752548	 0.110821
H	 1.2975744158	-0.5309014588	-1.6017065043	 0.086555
H	-0.7540957745	-3.5011750008	-0.3189448179	 0.115367
H	 0.9888883751	-3.1634701654	-0.3226705398	 0.087173
H	-0.3714111528	-2.5123573435	 1.8190221515	 0.073845
H	 1.8610064684	-0.6826477628	 1.4478170045	 0.058241
H	-0.6196147688	-0.7648174434	 3.0053028824	 0.098861
H	-0.4889781903	 0.8864002584	 2.3171487777	 0.102086
150.291	164.9555	194.4767	319.2504	364.3931	377.8652	474.5601	492.0562	583.9777	641.483	741.2553	748.909	786.2031	838.6753	889.0646	906.9696	936.8606	971.4779	992.6192	1014.8141	1044.398	1075.1231	1101.8258	1115.1379	1125.5303	1162.0607	1188.4167	1215.8451	1220.7478	1238.2472	1239.4185	1273.7341	1287.6434	1318.3393	1384.6551	1403.3269	1409.435	1435.2866	1487.9687	1494.8397	1499.3331	1505.8435	1545.3125	2930.9629	2942.8389	3018.4374	3037.3204	3053.3983	3065.4262	3066.0744	3072.5989	3096.0558	3129.4527	3148.6009
CC12COCC3C1CN23	C[C@@]12COC[C@H]3[C@@H]1CN23	
InChI=1S/C7H11NO/c1-7-4-9-3-6-5(7)2-8(6)7/h5-6H,2-4H2,1H3	InChI=1S/C7H11NO/c1-7-4-9-3-6-5(7)2-8(6)7/h5-6H,2-4H2,1H3/t5-,6-,7+/m0/s1
