16
gdb 33838	4.37684	1.09093	1.00731	2.8161	75.22	-0.2786	0.0105	0.2891	1168.2193	0.124409	-400.712348	-400.704776	-400.703832	-400.744515	29.107	
N	 0.0872059393	-1.1433420776	-0.0711032231	-0.346716
C	 0.0579931194	 0.012771437	-0.0166734584	 0.189538
C	 0.0130054312	 1.4339614876	 0.0661511331	 0.203577
C	 0.2792690662	 2.3359221372	-1.1157066668	-0.318574
C	 1.2047593962	 2.4305651643	 0.0607656168	-0.183575
C	 0.5336938666	 3.1834976015	 1.1848880432	 0.46834
C	 1.143794436	 3.8869538805	 2.3093903109	-0.270197
O	 0.4610223761	 4.5931768389	 1.2594569587	-0.268019
C	-0.6807331944	 2.2330661752	 1.1905718901	-0.387268
H	 0.6922252646	 1.8450796986	-1.989813285	 0.144647
H	-0.4214990806	 3.137824444	-1.3298223658	 0.137507
H	 2.2597111348	 2.200457818	-0.0177971568	 0.12015
H	 0.6450487677	 3.8909086935	 3.2775900687	 0.12441
H	 2.2230824691	 4.0305537449	 2.3401444178	 0.124362
H	-1.6440509685	 2.6749026455	 0.922764385	 0.126259
H	-0.7798599038	 1.6723805408	 2.1216964314	 0.135562
83.0792	155.0331	216.1621	279.1596	345.2916	393.2362	453.1549	502.8353	554.0465	577.5425	637.7577	791.4704	812.9152	844.0119	878.9521	934.3635	952.5406	985.3303	993.0649	1017.0143	1089.9182	1098.3541	1120.5909	1141.7769	1162.8804	1172.5634	1232.8042	1238.7896	1261.4239	1371.9956	1447.0519	1477.8554	1494.6677	1540.4269	2347.6746	3068.1105	3082.8571	3126.9854	3129.9383	3170.8981	3201.0074	3223.6077
N#CC12CC1C1(CO1)C2	N#C[C@]12C[C@H]1[C@]1(CO1)C2	
InChI=1S/C7H7NO/c8-3-6-1-5(6)7(2-6)4-9-7/h5H,1-2,4H2	InChI=1S/C7H7NO/c8-3-6-1-5(6)7(2-6)4-9-7/h5H,1-2,4H2/t5-,6-,7-/m1/s1
