23
gdb 86398	2.61048	1.30117	0.97809	1.8167	85.29	-0.2547	0.0745	0.3293	1307.7633	0.205551	-388.298262	-388.288971	-388.288027	-388.332339	36.023	
C	-0.0750978152	 1.5909213583	 0.0538073611	-0.406455
C	 0.0394935856	 0.0720448649	-0.0535194841	 0.036274
C	 1.0805557239	-0.4284387388	-1.0723699933	-0.221472
C	 1.2694843832	-1.9154256662	-0.7196488802	-0.059723
C	 2.5416780262	-2.5582247975	-1.2664529347	-0.403844
C	 1.157205412	-1.9235774683	 0.8156205494	 0.438674
C	 1.1476918769	-3.1573048837	 1.6071685199	-0.256914
O	 2.3099153487	-2.3240821126	 1.5714256288	-0.26793
C	 0.471830162	-0.6266213886	 1.2546157281	-0.305071
H	 0.8846910675	 2.034695155	 0.3431482038	 0.114421
H	-0.3746122233	 2.0361131446	-0.9010453548	 0.111673
H	-0.816940392	 1.8844783183	 0.8042985076	 0.112301
H	-0.9387192965	-0.3311817827	-0.3516124456	 0.069826
H	 0.7733312951	-0.2709113325	-2.1109517452	 0.091195
H	 2.0280197976	 0.109490485	-0.9261685947	 0.095592
H	 0.398734009	-2.4629591312	-1.1091412625	 0.075182
H	 3.4308873927	-2.0435586825	-0.892519139	 0.127586
H	 2.6231892204	-3.609095422	-0.9715983012	 0.115065
H	 2.5523393297	-2.5168280982	-2.3603781042	 0.107081
H	 0.6203623857	-3.1844100643	 2.5608313011	 0.107647
H	 1.2509591123	-4.1242448606	 1.1134810082	 0.10587
H	 1.2126495591	-0.0154333508	 1.7842558851	 0.114123
H	-0.3606929904	-0.7949561959	 1.9439453766	 0.098899
43.7236	131.1268	219.4795	229.7705	246.0368	253.9945	287.6589	374.7065	404.504	428.8838	478.2964	510.644	553.7666	695.5385	814.5646	849.6856	873.1588	893.5601	915.6395	937.2156	946.0299	977.0453	1005.211	1049.4569	1081.2618	1106.8909	1132.047	1140.5067	1167.0039	1177.1178	1194.1286	1219.783	1250.4896	1276.1382	1292.9731	1330.2898	1349.939	1369.7832	1382.1799	1405.0153	1412.2149	1422.2109	1480.7637	1491.3171	1494.9852	1496.7888	1498.2782	1501.5593	1530.044	2993.7143	2998.5908	3015.9949	3024.9805	3038.0739	3039.4011	3067.4095	3079.3764	3085.3564	3093.4554	3095.3105	3102.5398	3118.7296	3150.3323
CC1CC(C)C2(CO2)C1	C[C@H]1C[C@@H](C)[C@]2(CO2)C1	
InChI=1S/C8H14O/c1-6-3-7(2)8(4-6)5-9-8/h6-7H,3-5H2,1-2H3	InChI=1S/C8H14O/c1-6-3-7(2)8(4-6)5-9-8/h6-7H,3-5H2,1-2H3/t6-,7+,8+/m0/s1
