17
gdb 102262	2.78101	0.91971	0.80832	4.9205	69.19	-0.2659	0.0094	0.2753	1436.0308	0.13468	-455.189148	-455.178994	-455.178049	-455.225853	35.098	
N	 0.2072623831	 1.0883087919	-0.5063080131	-0.521924
C	 0.1577830783	-0.1169425049	 0.1251673147	 0.421387
O	 1.0831948777	-0.56450342	 0.7726366701	-0.352325
C	-1.1804825272	-0.8551733244	 0.0174349044	-0.333411
C	-0.9719452431	-2.3793694247	-0.0436891269	-0.133663
C	-2.2634249117	-3.16477329	 0.2884801112	-0.078443
O	-2.073113872	-4.5579821893	 0.2654760343	-0.413285
C	-0.4890710574	-2.7946335581	-1.3640118789	 0.260304
N	-0.1658728973	-3.1503119421	-2.415855424	-0.329948
H	 1.0845911436	 1.5840421585	-0.5015451298	 0.268489
H	-0.4989297169	 1.3770338963	-1.160311346	 0.263934
H	-1.7469036498	-0.6215966635	 0.9272510942	 0.14306
H	-1.7755399255	-0.5059617591	-0.8318156334	 0.115674
H	-0.2014594942	-2.6392924088	 0.6897491972	 0.165219
H	-2.5631129574	-2.9088160402	 1.3095618559	 0.123731
H	-3.070377052	-2.8456311352	-0.3891664439	 0.101711
H	-1.8786057682	-4.8222172767	-0.6412723857	 0.299491
29.6212	50.2387	93.1054	145.6238	169.3484	236.2926	265.2857	299.2802	357.072	376.7052	449.412	517.528	561.3734	579.6532	634.4301	691.2859	803.9055	854.2693	912.8499	1038.19	1061.2666	1079.2739	1089.3385	1110.4431	1190.0044	1221.1087	1255.6741	1308.5152	1371.3168	1389.7079	1406.531	1421.2186	1463.0357	1503.8025	1621.766	1801.9948	2350.274	2986.8638	3040.2123	3072.3005	3084.2042	3094.0988	3598.6749	3733.4043	3797.0131
NC(=O)CC(CO)C#N	NC(=O)C[C@@H](CO)C#N	
InChI=1S/C5H8N2O2/c6-2-4(3-8)1-5(7)9/h4,8H,1,3H2,(H2,7,9)	InChI=1S/C5H8N2O2/c6-2-4(3-8)1-5(7)9/h4,8H,1,3H2,(H2,7,9)/t4-/m1/s1
