16
gdb 10423	2.46884	2.11415	1.44493	2.6069	66.54	-0.2551	0.0187	0.2738	910.9227	0.128783	-383.67698	-383.668752	-383.667808	-383.709851	30.062	
O	 0.0157744112	 1.2881404188	 0.3637543557	-0.415632
C	-0.0431017006	-0.0573407013	-0.0407559991	-0.085837
C	-1.5005353719	-0.5195913224	-0.1779425712	 0.174499
C	-1.7295915432	-2.0507570562	-0.0345790477	-0.338742
C	-2.3353892188	-1.6990378301	 1.3362872303	-0.065368
O	-2.1671491856	-0.2800437505	 1.1043876484	-0.319633
C	-2.1886457304	 0.1351719621	-1.2805312719	 0.341118
C	-2.7534462362	 0.6439573497	-2.2113599274	-0.455459
H	-0.5721164924	 1.3592194819	 1.1271688142	 0.294587
H	 0.4758441551	-0.1394367634	-1.0010232373	 0.117034
H	 0.458198928	-0.7237773648	 0.6807605121	 0.080533
H	-2.4316333718	-2.4641785039	-0.7571181922	 0.128862
H	-0.8171492397	-2.6496399238	-0.0226862027	 0.117624
H	-3.3899031729	-1.9591978828	 1.4752306621	 0.116373
H	-1.7654409439	-2.0391348853	 2.2084754107	 0.109103
H	-3.2503741169	 1.1087027421	-3.0270105541	 0.200936
69.8144	107.2085	167.4727	181.8456	240.6529	368.5517	423.203	473.9223	527.5093	543.4352	624.8319	668.2905	689.521	781.3446	853.8416	893.2382	949.2707	987.8261	1010.9349	1037.4928	1089.368	1152.1779	1162.7061	1197.211	1219.9456	1255.2288	1281.9559	1345.7732	1382.5078	1431.0638	1487.8647	1495.224	1528.6367	2234.9017	2965.3798	3030.1979	3074.6853	3082.9712	3087.4463	3153.0091	3500.4589	3770.1937
OCC1(CCO1)C#C	OC[C@]1(CCO1)C#C	
InChI=1S/C6H8O2/c1-2-6(5-7)3-4-8-6/h1,7H,3-5H2	InChI=1S/C6H8O2/c1-2-6(5-7)3-4-8-6/h1,7H,3-5H2/t6-/m1/s1
