15
gdb 84204	3.57605	1.07513	0.85778	1.9196	70.26	-0.2658	-0.0768	0.189	1261.0624	0.110898	-457.797766	-457.789497	-457.788553	-457.831097	29.962	
O	 0.4927172055	 1.3471498458	-0.2335418777	-0.436833
C	 0.2378412827	-0.0019910873	 0.0495280703	 0.030532
C	 0.7370341136	-0.4896379238	 1.3823937244	-0.188118
C	-0.1607749393	-1.2815124719	 1.9936709423	 0.217796
C	-1.4555173162	-1.3996908924	 1.2201271605	-0.426329
C	-1.2702985175	-0.3136302091	 0.1621409401	 0.351003
O	-2.110627777	 0.3104835692	-0.4291701908	-0.304971
C	 0.0628739763	-1.94533508	 3.2832836385	 0.08398
O	-0.7522764036	-2.6576214476	 3.8243071032	-0.262946
H	-0.3109686198	 1.6847562827	-0.6553306894	 0.299257
H	 0.6522638166	-0.6527822262	-0.746745899	 0.110686
H	 1.7215346618	-0.2451761846	 1.7655670217	 0.13252
H	-1.568344401	-2.3810146856	 0.7407640507	 0.1542
H	-2.352634747	-1.2407531593	 1.8244792416	 0.159852
H	 1.054720555	-1.7412543698	 3.7429228834	 0.079373
88.5455	92.1587	168.9591	222.3124	249.1445	351.3691	387.9002	427.0333	443.0901	523.092	593.0572	679.3041	737.7203	760.1056	857.8286	878.5279	965.0462	1024.0931	1037.8324	1090.582	1129.6304	1147.4132	1185.2059	1225.019	1264.3241	1334.2114	1356.1719	1410.8013	1417.5787	1446.6595	1667.2216	1788.3944	1857.1065	2893.9183	2901.2934	3036.6667	3101.8994	3203.8373	3733.3908
OC1C=C(CC1=O)C=O	O[C@H]1C=C(CC1=O)C=O	
InChI=1S/C6H6O3/c7-3-4-1-5(8)6(9)2-4/h1,3,5,8H,2H2	InChI=1S/C6H6O3/c7-3-4-1-5(8)6(9)2-4/h1,3,5,8H,2H2/t5-/m0/s1
