20
gdb 71666	2.69002	2.08947	1.81159	1.551	80.64	-0.2308	0.0964	0.3272	888.599	0.174343	-365.998052	-365.991459	-365.990514	-366.028461	28.543	
C	-0.050420686	 1.5326902768	-0.0191195804	-0.496503
C	 0.0693320845	 0.0310606002	 0.0167881832	 0.348481
C	 0.9961030102	-0.7916426287	-0.9166570622	-0.263206
C	 0.7154893436	-1.9087597994	 0.1301498809	-0.076175
C	-0.7993360736	-2.0864538466	-0.0118525815	-0.038897
C	-1.5011050274	-1.4369326111	 1.1287957172	-0.044358
C	-0.4801552628	-1.0554327529	 2.1812843302	-0.260768
C	 0.6616755878	-0.7796362177	 1.2185812607	-0.071758
N	-1.2577320898	-0.6743707885	-0.1304865251	-0.156644
H	 0.9312465381	 2.0087956084	 0.0691701459	 0.109901
H	-0.5106878655	 1.8573808198	-0.9578550588	 0.127557
H	-0.6809143687	 1.8956666198	 0.7998034761	 0.118588
H	 0.6665197817	-0.9509179765	-1.9468912029	 0.097998
H	 2.0303137467	-0.4372604467	-0.8959862692	 0.093408
H	 1.3367007063	-2.7981095049	 0.2305508486	 0.063502
H	-1.2488295272	-2.8275300202	-0.6632831477	 0.087287
H	-2.538835192	-1.6415923303	 1.3681177182	 0.087415
H	-0.7727782105	-0.1721195405	 2.7598410366	 0.103152
H	-0.2750595824	-1.8751103081	 2.8784946491	 0.102168
H	 1.619856207	-0.4429058728	 1.6096854612	 0.068851
199.6578	231.7013	284.7231	398.7705	435.0702	510.3558	599.7986	674.9179	703.0235	740.7869	784.4256	814.6779	844.0907	870.4295	879.4095	908.9342	919.7003	938.9082	964.0502	992.8386	1004.0196	1019.1982	1052.2117	1058.246	1080.4003	1105.1372	1139.5895	1174.0866	1187.2679	1204.885	1208.0059	1233.9555	1252.5896	1270.0733	1288.5258	1316.1946	1350.7108	1372.5012	1413.6092	1483.9672	1486.5284	1491.9905	1496.6986	3032.0425	3041.3038	3055.422	3083.8612	3098.8193	3106.3999	3115.3525	3119.5048	3139.8594	3168.2232	3180.1166
CC12CC3C4C(CC13)N24	C[C@@]12C[C@@H]3[C@H]4[C@@H](C[C@H]13)N24	
InChI=1S/C8H11N/c1-8-3-4-5(8)2-6-7(4)9(6)8/h4-7H,2-3H2,1H3	InChI=1S/C8H11N/c1-8-3-4-5(8)2-6-7(4)9(6)8/h4-7H,2-3H2,1H3/t4-,5-,6+,7-,8+,9?/m0/s1
