20
gdb 96909	2.88426	1.20864	0.95169	2.0821	83.36	-0.2373	0.0326	0.2699	1310.2584	0.169169	-403.134077	-403.124564	-403.12362	-403.168631	34.741	
C	 0.2121165233	 1.4114902826	 0.0068468253	-0.340064
N	 0.3089866131	-0.0405526998	-0.0475526128	-0.336966
C	 0.5386660658	-0.6782119472	 1.0020424874	 0.466726
O	 0.7302651157	-0.2351630073	 2.3081512699	-0.2936
C	 0.8612100501	-1.5992373468	 2.7705365794	 0.463377
C	 1.7956414337	-1.9522781326	 3.8706810605	-0.337187
C	 0.2842826798	-2.0281380417	 4.0730867492	-0.333568
C	 0.686166998	-2.1481890952	 1.3515358601	-0.257183
C	-0.5056257385	-3.048864514	 1.050802339	-0.403631
H	 1.0023970772	 1.847917335	-0.6143978345	 0.126671
H	-0.7435134601	 1.7221039004	-0.4293485981	 0.125571
H	 0.2907947198	 1.8288658681	 1.0175858132	 0.125163
H	 2.3588087728	-2.8769216853	 3.7954246551	 0.120885
H	 2.3217327722	-1.1372153251	 4.3555286767	 0.130975
H	-0.1744900619	-1.2631788094	 4.6899100064	 0.131191
H	-0.1845245837	-3.0047834198	 4.1346786427	 0.121832
H	 1.6088507055	-2.5746547054	 0.9454890298	 0.106369
H	-1.4274223587	-2.6366504265	 1.4711800837	 0.126887
H	-0.6384973017	-3.1449239913	-0.0301740189	 0.140216
H	-0.3557792625	-4.0505089387	 1.4667158658	 0.116338
81.4717	84.5466	143.4231	174.6942	185.3652	209.6533	254.5509	320.0503	369.0636	489.6071	500.474	573.6196	682.6432	750.4836	767.1261	830.9518	877.0348	886.7286	961.1654	969.6471	1030.7076	1051.067	1055.4362	1075.0832	1089.4977	1104.449	1130.3686	1140.9048	1173.6688	1185.5498	1236.8424	1272.5722	1342.2255	1391.7298	1409.3435	1439.9861	1450.7762	1493.1965	1493.8905	1495.1906	1497.8704	1506.8842	1852.3845	3016.1863	3040.0184	3062.3106	3081.015	3086.5351	3109.9785	3123.1386	3130.8265	3133.1038	3214.0515	3227.387
CN=C1OC2(CC2)C1C	CN=C1OC2(CC2)[C@H]1C	
InChI=1S/C7H11NO/c1-5-6(8-2)9-7(5)3-4-7/h5H,3-4H2,1-2H3	InChI=1S/C7H11NO/c1-5-6(8-2)9-7(5)3-4-7/h5H,3-4H2,1-2H3/t5-/m0/s1
