22
gdb 100823	2.24638	0.94218	0.83327	3.7972	79.72	-0.2473	0.0328	0.2802	1511.4803	0.191976	-441.511255	-441.500036	-441.499092	-441.548906	39.531	
C	-0.2239332585	 1.4758313663	-0.0063999768	-0.406626
C	 0.1811350952	 0.0022102944	 0.1198232274	 0.043824
C	 0.75888153	-0.5296891765	-1.1935954892	-0.088462
O	-0.2685356836	-0.4693701083	-2.1731991756	-0.422732
C	 1.1260974118	-0.2935533802	 1.3129519699	 0.02969
C	 2.4699682962	 0.4408511911	 1.2762928505	-0.417979
N	 0.4622723113	-0.0214304506	 2.5874681905	-0.281453
C	-0.2595950458	-0.9551205321	 3.2600792368	 0.154718
O	-0.4252296303	-2.102439904	 2.9005903588	-0.329557
H	 0.6373123023	 2.1184752529	-0.2222966077	 0.10761
H	-0.9365301971	 1.5941241882	-0.8251456309	 0.140787
H	-0.6982554131	 1.8382652359	 0.9110458288	 0.100102
H	-0.724534876	-0.5869435784	 0.3085671065	 0.108005
H	 1.6275686229	 0.0738059888	-1.5034430677	 0.081276
H	 1.1081913594	-1.5652610364	-1.0514141072	 0.089992
H	 0.095003141	-0.7705630711	-3.0106449742	 0.286957
H	 1.3105122311	-1.3725428059	 1.3168111147	 0.115062
H	 2.3412612224	 1.5277861883	 1.3258987444	 0.118126
H	 3.0910425872	 0.1349172802	 2.1228162363	 0.126012
H	 3.0172424688	 0.2156005052	 0.357242169	 0.128115
H	 0.5077238926	 0.9101879343	 2.9692749185	 0.244252
H	-0.6837125678	-0.549534612	 4.2008820173	 0.072279
20.9895	54.5204	108.3959	164.9459	184.9718	225.8136	234.6088	245.9107	254.1795	280.0547	315.4256	374.5301	428.0142	479.0203	514.8158	600.7487	764.3065	825.853	884.2206	922.6698	931.797	1003.5662	1026.7258	1031.0126	1063.8257	1123.2339	1134.7172	1161.8355	1188.3675	1220.2829	1249.798	1275.6313	1319.2099	1348.5905	1364.6623	1389.0053	1413.9764	1417.9674	1429.1642	1461.3677	1492.0452	1495.6269	1499.5593	1512.4279	1521.2309	1526.2001	1800.6178	2928.0247	2960.1145	2989.4549	3032.0771	3040.5573	3043.0852	3065.8029	3096.8421	3108.0031	3122.0047	3130.4914	3630.7994	3833.9548
CC(CO)C(C)NC=O	C[C@@H](CO)[C@@H](C)NC=O	
InChI=1S/C6H13NO2/c1-5(3-8)6(2)7-4-9/h4-6,8H,3H2,1-2H3,(H,7,9)	InChI=1S/C6H13NO2/c1-5(3-8)6(2)7-4-9/h4-6,8H,3H2,1-2H3,(H,7,9)/t5-,6+/m0/s1
