18
gdb 42897	2.70504	1.57223	1.23411	3.5794	76.63	-0.2331	-0.0184	0.2147	1056.5465	0.148173	-401.903132	-401.895368	-401.894424	-401.935614	29.9	
O	-0.4316249971	 0.0606195527	-0.2285972042	-0.323332
C	-0.2603427648	 1.2312134845	-0.0439977772	 0.394177
C	-1.1522058222	 2.4533602572	-0.0693390036	-0.191306
N	-0.7608684722	 3.2483360528	 1.1502555323	-0.335667
C	 0.0804958113	 3.3199496994	-0.0475169068	-0.148579
C	 1.0179508417	 2.1055040265	 0.0337384628	 0.267606
C	 2.1209224208	 2.0026005106	 1.1129234179	-0.279795
C	 3.1936922226	 2.2038896666	 0.0072052171	-0.211582
C	 2.1059923906	 1.9024002436	-1.0602413169	-0.29574
H	-2.1188657607	 2.5996871738	-0.5344135228	 0.114149
H	-1.377975661	 4.0615505233	 1.1538626175	 0.239183
H	 0.2450294058	 4.243527828	-0.5884217715	 0.108366
H	 2.0681065913	 2.7337076581	 1.92184219	 0.112454
H	 2.1539515537	 0.9993951489	 1.5471840944	 0.118123
H	 3.5465118759	 3.2374801966	-0.0437829683	 0.102581
H	 4.0631762291	 1.5433505766	 0.0269072571	 0.103665
H	 2.1237120302	 0.8621092615	-1.3961434232	 0.124669
H	 2.0525707354	 2.5542696595	-1.9363872744	 0.101028
95.8051	118.3173	173.101	232.5961	259.1155	368.9917	516.4234	593.1872	622.6736	698.3832	740.9968	797.4665	819.7472	828.3456	846.3411	871.4716	906.2267	941.4708	951.196	970.7131	1042.4351	1048.1173	1061.2142	1099.5113	1121.0867	1166.019	1186.9564	1208.9681	1241.6295	1256.6753	1273.7816	1283.359	1286.8092	1326.2789	1358.0524	1470.7748	1482.063	1502.2962	1885.8384	3055.263	3061.5931	3065.2059	3101.7987	3115.6811	3126.7688	3193.2024	3204.9163	3461.6124
O=C1C2NC2C11CCC1	O=C1[C@H]2N[C@H]2C21CCC2	
InChI=1S/C7H9NO/c9-6-4-5(8-4)7(6)2-1-3-7/h4-5,8H,1-3H2	InChI=1S/C7H9NO/c9-6-4-5(8-4)7(6)2-1-3-7/h4-5,8H,1-3H2/t4-,5+/m0/s1
