20
gdb 122890	4.26248	0.64982	0.5846	2.3782	77.21	-0.2743	0.0291	0.3033	1853.942	0.169025	-440.289309	-440.278692	-440.277748	-440.326397	36.679	
C	-0.0507055096	 1.5950206833	 0.1014400883	-0.388436
C	-0.0877726228	 0.0603034357	-0.0186998575	-0.152805
C	-1.521351648	-0.4998278273	-0.0144487679	-0.050324
O	-2.1061843641	-0.1756753711	 1.2246783403	-0.266581
C	-3.4306511833	-0.6668165804	 1.3729125582	-0.074101
C	-3.9591468513	-0.1354939494	 2.694987974	-0.062645
O	-4.0164602332	 1.2764309123	 2.7071525597	-0.418149
C	 0.6043170722	-0.3916252765	-1.2287032867	 0.257645
N	 1.1383926828	-0.7443873113	-2.1908939036	-0.316624
H	 0.9789901196	 1.9583801441	 0.128750124	 0.139374
H	-0.5573306003	 2.0621326098	-0.7479764602	 0.137177
H	-0.5557184914	 1.8971431467	 1.0202773777	 0.135768
H	 0.4331290947	-0.377490005	 0.841814877	 0.138595
H	-2.0967673829	-0.0663837251	-0.8481791156	 0.1104
H	-1.4961176729	-1.5905013306	-0.1594434954	 0.112202
H	-4.0617354575	-0.3089841106	 0.544748297	 0.103534
H	-3.4379003233	-1.7685623103	 1.3631093515	 0.095077
H	-4.9791341444	-0.5004541278	 2.8524797898	 0.11441
H	-3.3315100086	-0.5232826117	 3.5129854962	 0.0967
H	-3.1403730457	 1.5823568151	 2.4476123332	 0.288782
34.2393	57.9731	102.6203	123.5738	162.1244	198.3303	217.8277	260.7759	320.6371	341.6649	395.9928	432.6832	511.9696	557.9326	590.5022	819.7546	875.9511	905.4576	937.0953	939.8203	1046.3393	1083.8648	1093.2193	1126.0986	1133.7484	1157.4008	1171.7631	1235.7454	1260.8194	1272.0335	1309.935	1343.2093	1383.6584	1388.2643	1404.978	1432.4026	1446.7469	1493.9519	1497.2312	1498.1579	1502.0054	1528.2773	2360.0215	2970.645	2979.9602	2983.0166	3011.9969	3019.6121	3045.0731	3056.1147	3083.8279	3129.3869	3147.4192	3809.5355
CC(COCCO)C#N	C[C@@H](COCCO)C#N	
InChI=1S/C6H11NO2/c1-6(4-7)5-9-3-2-8/h6,8H,2-3,5H2,1H3	InChI=1S/C6H11NO2/c1-6(4-7)5-9-3-2-8/h6,8H,2-3,5H2,1H3/t6-/m1/s1
