17
gdb 64699	4.55845	0.89624	0.84314	3.2108	76.35	-0.2619	-0.0467	0.2152	1364.0851	0.131453	-421.780763	-421.771177	-421.770232	-421.815432	34.419	
C	 0.0509490291	 1.621759566	 0.2342737078	-0.474444
C	-0.0721360491	 0.1192801885	 0.1593904063	 0.381734
C	-1.3819773252	-0.4289348625	-0.4164880754	-0.413923
C	-1.6670430438	 0.0632618962	-1.7597238316	 0.309703
C	-1.893859567	 0.4750612848	-2.8653574302	-0.437728
O	 1.0927783735	-0.5842649434	-0.2451824355	-0.252359
C	 0.6649634622	-0.7801898794	 1.0996754407	-0.104447
C	 1.5265122057	-0.2539174301	 2.2040313962	 0.142377
O	 2.398634106	 0.5668139014	 2.0770736188	-0.24678
H	 1.0203865405	 1.907010848	 0.6419199599	 0.165029
H	-0.0516631286	 2.0416111314	-0.7702351296	 0.147623
H	-0.7446666539	 2.0436016261	 0.8575227891	 0.120161
H	-1.3294645282	-1.5231124661	-0.4288229432	 0.140829
H	-2.2040431218	-0.1555776088	 0.2581106082	 0.137866
H	-2.0951033403	 0.8303484307	-3.8456855965	 0.202616
H	 0.2243871133	-1.7570798678	 1.3100730325	 0.099424
H	 1.2804172576	-0.6921183449	 3.1979079227	 0.08232
54.6191	108.425	120.2768	190.5426	200.6328	245.5454	293.8851	336.451	352.8176	400.3812	411.3793	566.2569	625.0283	651.9312	733.234	764.3447	819.2879	902.2017	914.1489	931.8212	970.8603	994.8113	1069.5873	1108.5113	1118.5135	1209.7064	1256.8533	1313.0814	1357.2106	1412.5734	1424.2069	1438.2189	1454.2412	1490.984	1501.0896	1826.294	2241.1172	2875.6586	3024.2267	3047.7264	3071.1355	3090.8296	3113.9381	3161.4958	3504.9533
CC1(CC#C)OC1C=O	C[C@@]1(CC#C)O[C@H]1C=O	
InChI=1S/C7H8O2/c1-3-4-7(2)6(5-8)9-7/h1,5-6H,4H2,2H3	InChI=1S/C7H8O2/c1-3-4-7(2)6(5-8)9-7/h1,5-6H,4H2,2H3/t6-,7-/m0/s1
