19
gdb 99217	4.02808	0.80992	0.79536	2.48	72.83	-0.2513	-0.0154	0.2359	1555.0279	0.155216	-460.224661	-460.213982	-460.213038	-460.26247	35.953	
C	 0.5251782135	 1.3461861652	 0.0117649407	-0.375687
C	 0.1352346209	-0.1201086351	-0.1612541365	-0.28871
C	 0.5964086717	-0.7159758084	-1.48099206	 0.380867
O	 1.339948946	-0.1485723386	-2.2421602529	-0.292545
C	 0.0473976018	-2.1126601607	-1.7916874116	-0.181445
O	 0.612562092	-2.6548362056	-2.9738709354	-0.223471
C	 1.8849962966	-3.1123112673	-2.8450984274	 0.448486
C	 2.4337875545	-3.528741377	-4.1842769092	-0.482298
O	 2.4631499199	-3.1671225794	-1.7908330429	-0.358974
H	 1.6067354675	 1.46990232	-0.0773808998	 0.141029
H	 0.0610835439	 1.9686416167	-0.7580292033	 0.128864
H	 0.2099763397	 1.7162952243	 0.9909777077	 0.113086
H	 0.5729164365	-0.7387169235	 0.6353668915	 0.138209
H	-0.9503293978	-0.2627972698	-0.0705462633	 0.116809
H	 0.2202408282	-2.7725180518	-0.9353332326	 0.142168
H	-1.0301605143	-2.0442919779	-1.9722857379	 0.135219
H	 3.3812855431	-4.0474967548	-4.0444023237	 0.148081
H	 1.7208045643	-4.1673575853	-4.7113120018	 0.146693
H	 2.5913831119	-2.635726801	-4.7967340415	 0.163619
36.8673	51.2279	64.3328	81.2456	94.9191	194.3869	211.7584	293.8377	320.6998	337.5408	452.2739	464.7074	596.7267	633.4548	679.5511	744.0797	840.2405	851.7098	947.4219	980.1468	1007.5843	1032.4134	1063.8146	1110.4209	1122.3331	1139.1679	1254.837	1269.9562	1309.6227	1365.9869	1389.5159	1398.4056	1413.9455	1445.1242	1455.5907	1469.5899	1475.1272	1493.5458	1499.4067	1821.6223	1836.4241	3015.7036	3043.7656	3052.5936	3053.3882	3059.08	3102.8436	3122.6335	3126.2522	3133.7669	3170.535
CCC(=O)COC(C)=O	CCC(=O)COC(=O)C	
InChI=1S/C6H10O3/c1-3-6(8)4-9-5(2)7/h3-4H2,1-2H3	InChI=1S/C6H10O3/c1-3-6(8)4-9-5(2)7/h3-4H2,1-2H3
