16
gdb 84319	3.24607	1.45708	1.11432	2.3509	71.17	-0.2449	-0.0592	0.1857	1051.143	0.126176	-437.884884	-437.877483	-437.876539	-437.916862	28.815	
O	-0.164757395	 1.465412547	 0.4144061346	-0.434395
C	 0.0355252144	 0.1293837055	-0.033147072	 0.072813
C	 0.9983380161	-0.5861277733	 0.8837297798	-0.065607
C	 0.8224337994	-1.8100083708	 1.3924583695	-0.176926
C	-0.3604554272	-2.6382581921	 1.0816696633	 0.438982
O	-0.4141338601	-3.8259081913	 1.331822073	-0.341193
C	-1.503149341	-1.9347580172	 0.4056832489	-0.167467
N	-2.0122266457	-0.7199216246	 1.0956205675	-0.344271
C	-1.2996579914	-0.5801025117	-0.1780916592	-0.075802
H	-0.6972473718	 1.3891592875	 1.2176429743	 0.29332
H	 0.5027333099	 0.224776922	-1.0218232625	 0.105511
H	 1.8882121851	-0.010117172	 1.1266810217	 0.119721
H	 1.5656659331	-2.2755331535	 2.0321556487	 0.11603
H	-2.228223995	-2.6055012841	-0.0448301608	 0.10882
H	-3.0163521057	-0.6558673489	 0.9510818859	 0.246944
H	-1.8764787952	-0.3138413024	-1.0595482326	 0.103519
76.7244	182.5877	248.865	295.631	398.598	428.6974	445.1164	466.0752	522.4406	622.0981	717.1737	738.6493	779.0421	852.5628	878.493	900.1984	917.0349	949.8141	1022.4745	1043.1632	1061.8925	1078.8099	1154.3368	1160.6299	1194.1295	1251.8422	1268.8581	1275.8765	1365.2147	1384.251	1397.4893	1428.6756	1439.5199	1688.038	1779.6725	3030.3956	3146.7716	3160.1967	3167.4354	3189.9717	3511.4237	3764.166
OC1C=CC(=O)C2NC12	O[C@H]1C=CC(=O)[C@H]2N[C@@H]12	
InChI=1S/C6H7NO2/c8-3-1-2-4(9)6-5(3)7-6/h1-3,5-8H	InChI=1S/C6H7NO2/c8-3-1-2-4(9)6-5(3)7-6/h1-3,5-8H/t3-,5-,6+/m0/s1
