16
gdb 25911	4.3845	1.08116	0.87282	1.543	75.5	-0.1999	-0.0372	0.1628	1273.6001	0.125169	-434.132716	-434.124248	-434.123303	-434.165957	31.221	
C	-0.0447019878	 1.5167481825	 0.0208568948	-0.504372
C	 0.0699754667	 0.0068787529	 0.0062711409	 0.421444
O	 1.1227500388	-0.5839600744	 0.0063755751	-0.317218
N	-1.1431333418	-0.7048557491	-0.0084100247	-0.072319
C	-2.4322489615	-0.218942137	-0.0016299476	 0.025711
N	-3.320019381	-1.1728517099	-0.0149454051	-0.314928
C	-2.5941508872	-2.3566012671	-0.0330759145	 0.292657
N	-3.2753945595	-3.5628553384	-0.1148902872	-0.590756
C	-1.2514672327	-2.1009461791	-0.0275424782	-0.193925
H	 0.9632921144	 1.9291584211	 0.0324983902	 0.157357
H	-0.5754370259	 1.8802959439	-0.8641356771	 0.15406
H	-0.5886294598	 1.8630176009	 0.9047856439	 0.152761
H	-2.6510241816	 0.8369052809	 0.0156227724	 0.139156
H	-4.2213823928	-3.4848612835	 0.2325529191	 0.25449
H	-2.7913662757	-4.3484563846	 0.2951639794	 0.249148
H	-0.3726200225	-2.7185064091	-0.0402768813	 0.146733
89.6769	127.6913	134.6758	189.3352	261.7279	334.3828	354.1083	422.5122	530.9954	573.6172	615.8289	636.6537	654.8814	689.8008	733.857	763.0708	823.5093	958.911	989.5317	1020.8693	1053.5342	1081.3355	1113.4222	1246.2777	1277.909	1326.5401	1386.1379	1387.068	1434.9064	1473.0963	1480.7857	1538.1273	1625.434	1667.4384	1809.8652	3051.5334	3117.187	3168.1839	3266.7173	3311.4848	3559.4746	3660.6669
CC(=O)N1C=NC(N)=C1	CC(=O)n1cnc(N)c1	
InChI=1S/C5H7N3O/c1-4(9)8-2-5(6)7-3-8/h2-3H,6H2,1H3	InChI=1S/C5H7N3O/c1-4(9)8-2-5(6)7-3-8/h2-3H,6H2,1H3
