20
gdb 116694	5.05568	0.81052	0.78328	2.8614	84.31	-0.2415	0.0197	0.2611	1534.874	0.17084	-403.084608	-403.075828	-403.074884	-403.119385	32.049	
C	 0.1463803881	 0.963072732	 0.4888982408	-0.249487
O	-0.3182007227	 0.0702984454	-0.5157293624	-0.191533
C	-1.2297116279	-0.8375765633	-0.1120202704	 0.127275
N	-1.6699295298	-1.6994012062	-0.91553666	-0.247073
C	-2.6752729089	-2.6232818749	-0.4688480211	 0.072655
C	-2.3525601227	-4.151240725	-0.4730793983	-0.044054
C	-1.5342955285	-3.9334972554	 0.8316022109	-0.221448
C	-2.8431349583	-3.1023846987	 1.0205258758	-0.075557
C	-3.6042681708	-4.3234841539	 0.4328824201	-0.224803
H	 0.8303577649	 1.6535241905	-0.0058978006	 0.146582
H	-0.6779654978	 1.5336546659	 0.9341978027	 0.12639
H	 0.6861109209	 0.4308523562	 1.2817898089	 0.127114
H	-1.5329649269	-0.7387154753	 0.9406945037	 0.079498
H	-3.6164359263	-2.3795285566	-0.9759569683	 0.07523
H	-2.071116824	-4.751343346	-1.3388885485	 0.073161
H	-1.4223532424	-4.8050817478	 1.4823618283	 0.087147
H	-0.5962436702	-3.3848510382	 0.7405151469	 0.096655
H	-3.1369653249	-2.5138216974	 1.8920199036	 0.062618
H	-4.5794159448	-4.1287897394	-0.0232069642	 0.088182
H	-3.6249550671	-5.2193220418	 1.0577474122	 0.091448
37.2793	75.7387	115.9592	151.4106	212.8168	306.8862	373.1063	398.7928	492.8714	557.5232	713.1039	772.2113	805.2069	874.8066	891.5386	899.4443	905.0762	991.7376	1012.7178	1021.695	1024.2861	1058.9234	1078.092	1094.552	1112.7473	1133.8633	1145.2844	1177.3906	1188.7826	1194.8882	1212.1857	1244.8154	1249.5877	1267.0601	1280.592	1391.5792	1409.5837	1485.1334	1494.6248	1497.2502	1501.0394	1534.0961	1769.7457	3004.0515	3017.9408	3032.6126	3050.0599	3060.8898	3075.2013	3087.9251	3110.9065	3117.4718	3132.854	3144.3123
COC=NC1C2CC1C2	COC=N[C@H]1[C@H]2C[C@@H]1C2	
InChI=1S/C7H11NO/c1-9-4-8-7-5-2-6(7)3-5/h4-7H,2-3H2,1H3	InChI=1S/C7H11NO/c1-9-4-8-7-5-2-6(7)3-5/h4-7H,2-3H2,1H3/t5-,6+,7-
