19
gdb 62809	2.23668	1.53394	1.34323	4.4975	80.84	-0.2571	0.0097	0.2667	1079.399	0.15918	-382.014909	-382.006151	-382.005207	-382.04824	33.345	
C	-0.1497555619	 1.5633289235	 0.0297922326	-0.469619
C	-0.0207278396	 0.0380472168	-0.0021544132	 0.297861
C	-1.4208824483	-0.5466998851	-0.2014229629	-0.473714
C	 1.1866604102	-0.6395503077	-0.7584555168	-0.089544
C	 2.1668974972	-0.0951175855	 0.3135351071	-0.247681
C	 0.9288289455	-0.6827462957	 1.0482710479	 0.201802
N	 1.0967037653	-1.8781609381	 0.1237206516	-0.346373
C	 0.7091715388	-0.8196343481	 2.468575677	 0.157792
N	 0.4978571541	-0.899101964	 3.6027654989	-0.349359
H	 0.7916144154	 2.0965796915	 0.1571422341	 0.124343
H	-0.6039553871	 1.9155896668	-0.902794579	 0.125307
H	-0.8144208996	 1.865565378	 0.8463097116	 0.134838
H	-1.8567168165	-0.1553828805	-1.1266418418	 0.128148
H	-1.4617085894	-1.6363269619	-0.2622160728	 0.117277
H	-2.0759634023	-0.2428415656	 0.6216411782	 0.13849
H	 1.3500981348	-0.7224898451	-1.833080677	 0.092715
H	 3.0690963184	-0.6910639528	 0.4389252754	 0.127809
H	 2.3517061279	 0.9725470605	 0.3785193523	 0.113362
H	 0.1992198773	-2.346652957	-0.0055842032	 0.216547
89.3783	117.3393	129.9687	195.2994	236.1267	349.4073	383.4412	414.1945	500.7276	525.7691	562.4295	572.2069	601.5626	699.8077	753.1609	810.4911	905.9603	931.7412	951.5336	957.9456	971.6078	1011.8203	1035.6579	1086.2527	1125.0583	1162.3677	1193.6867	1206.3322	1219.4989	1234.7491	1264.7957	1276.4532	1296.3417	1410.5712	1427.151	1477.6176	1480.9428	1503.0873	1505.7898	1520.3053	2349.3824	3037.7081	3043.8491	3093.8397	3102.1037	3112.9893	3114.3531	3123.0693	3145.471	3200.8567	3449.8158
CC1(C)C2CC1(N2)C#N	CC1(C)[C@H]2C[C@@]1(N2)C#N	
InChI=1S/C7H10N2/c1-6(2)5-3-7(6,4-8)9-5/h5,9H,3H2,1-2H3	InChI=1S/C7H10N2/c1-6(2)5-3-7(6,4-8)9-5/h5,9H,3H2,1-2H3/t5-,7-/m1/s1
