20
gdb 118370	3.17188	0.78879	0.66651	3.8778	85.64	-0.2736	0.0313	0.3049	1713.6428	0.16854	-366.003968	-365.993393	-365.992448	-366.040303	37.393	
C	-0.018416998	 1.6022887983	 0.0283077707	-0.383279
C	 0.0136211352	 0.0722652134	-0.0160644	-0.190516
C	-1.3881208471	-0.5450923305	 0.012806567	-0.17564
C	-1.3969053004	-2.0896504687	-0.0119303853	-0.149559
C	-2.839416731	-2.6514948815	 0.1315687437	-0.371342
C	-2.8883238581	-4.1013336088	 0.2538403966	 0.293298
C	-2.902766062	-5.2974509997	 0.3628771523	-0.416911
C	-0.7661349948	-2.5958337154	-1.2357481044	 0.296485
N	-0.2719918371	-2.9654969951	-2.2129989158	-0.33174
H	 0.9931398748	 2.0181224639	 0.0087311227	 0.120363
H	-0.5631261223	 2.0115973538	-0.8294130217	 0.120312
H	-0.5105652229	 1.9649520281	 0.9376400472	 0.114971
H	 0.5377593039	-0.2604764055	-0.9193251922	 0.128632
H	 0.5933914505	-0.3091093053	 0.8347174103	 0.100149
H	-1.9125998567	-0.227486564	 0.9227629974	 0.103493
H	-1.9768820076	-0.1732150451	-0.8350769106	 0.114675
H	-0.8059917719	-2.4614828615	 0.8341796507	 0.136266
H	-3.2885115842	-2.1880180437	 1.0181844297	 0.138518
H	-3.4361068009	-2.3250563927	-0.7285048481	 0.148435
H	-2.9230124394	-6.3558429801	 0.4473917798	 0.20339
55.9974	85.2294	93.7886	105.8688	160.7215	215.0004	248.5982	251.5328	342.3254	344.1709	364.4001	476.9079	557.4692	630.5673	634.2662	658.2416	746.9768	792.6773	879.3158	894.0103	967.9657	975.4361	1028.093	1049.8639	1073.4058	1124.0895	1141.3749	1214.7129	1252.8317	1280.3988	1331.1328	1336.126	1347.8653	1373.2278	1400.0279	1415.6211	1469.6755	1484.6664	1493.7789	1501.1007	1510.7467	2244.9271	2356.7819	3019.7707	3026.3116	3030.3641	3032.6556	3040.384	3056.5702	3069.3541	3077.2809	3100.7379	3108.6625	3506.4653
CCCC(CC#C)C#N	CCC[C@@H](CC#C)C#N	
InChI=1S/C8H11N/c1-3-5-8(7-9)6-4-2/h1,8H,4-6H2,2H3	InChI=1S/C8H11N/c1-3-5-8(7-9)6-4-2/h1,8H,4-6H2,2H3/t8-/m1/s1
