22
gdb 111331	2.49715	1.40449	1.07605	1.5001	86.11	-0.2226	0.084	0.3066	1232.1374	0.194217	-367.154095	-367.145263	-367.144319	-367.18749	34.455	
C	-0.0504974779	 1.6184317803	 0.0245737855	-0.379075
C	 0.0198674825	 0.0970291578	 0.1957352251	-0.196631
C	-1.3369666831	-0.5686875039	 0.0224144695	-0.020682
N	-2.0124341032	-0.4258952934	-1.3319739083	-0.14237
C	-1.2362025189	-1.219427578	-2.3076291922	-0.249018
C	-2.132845693	-1.9408561932	-1.3848635564	-0.114458
C	-1.4769997156	-2.1003381449	-0.035473536	 0.359929
C	-0.5430897107	-3.1828242713	 0.4264765352	-0.330171
C	-1.8997409065	-3.009961056	 1.0741782158	-0.339864
H	 0.9361606661	 2.076438034	 0.1421044672	 0.108781
H	-0.4333893391	 1.8803796643	-0.9660318802	 0.136118
H	-0.7198615571	 2.0682645432	 0.7660138452	 0.115249
H	 0.7457168437	-0.3258876351	-0.5083599824	 0.096504
H	 0.3956540606	-0.1497481589	 1.197899748	 0.095804
H	-2.0368420984	-0.1484909831	 0.7542024825	 0.082499
H	-1.5752646553	-1.0581682425	-3.3266102034	 0.118064
H	-0.1597328532	-1.3226539287	-2.2004580456	 0.112838
H	-3.0509445504	-2.42618438	-1.7028417194	 0.094408
H	-0.3884899348	-4.0389974094	-0.2226211036	 0.11269
H	 0.3336533299	-2.8923581379	 0.9965562368	 0.113369
H	-1.940840606	-2.6044152966	 2.080685375	 0.112347
H	-2.6633155095	-3.7524613769	 0.8637703415	 0.11367
84.4861	135.5424	149.0595	203.1018	241.9822	271.2974	304.8707	419.7035	486.9491	529.8211	578.8836	726.7	749.2335	775.1804	792.7008	819.782	894.1727	916.3928	921.0249	940.9004	961.0954	999.8705	1031.6016	1050.3158	1053.9037	1076.1848	1092.1231	1105.114	1117.9675	1124.3462	1168.7088	1188.3603	1217.0292	1255.8566	1269.8716	1285.1615	1314.1383	1336.8011	1391.9375	1411.1934	1420.2748	1462.549	1480.9134	1496.8702	1498.5281	1506.1805	1508.8589	3020.5703	3030.7703	3036.5775	3059.0695	3102.8677	3113.7551	3115.545	3118.7937	3124.6669	3152.3651	3196.9112	3199.4267	3212.6322
CCC1N2CC2C11CC1	CC[C@H]1N2C[C@H]2C21CC2	
InChI=1S/C8H13N/c1-2-6-8(3-4-8)7-5-9(6)7/h6-7H,2-5H2,1H3	InChI=1S/C8H13N/c1-2-6-8(3-4-8)7-5-9(6)7/h6-7H,2-5H2,1H3/t6-,7+,9?/m1/s1
