20
gdb 86281	2.03769	1.52082	1.26875	3.9743	80.05	-0.2347	0.0283	0.2631	1138.1068	0.170115	-399.314969	-399.305017	-399.304072	-399.349272	36.58	
C	-0.0152296094	 1.5331876946	-0.10255898	-0.34224
N	-0.037298741	 0.0963740127	 0.0840856956	-0.089453
C	-1.2939421374	-0.5795936915	 0.4471137077	-0.199439
C	-0.458712945	-1.6300998857	 1.2365283356	-0.01035
N	-0.1033380823	-2.867370665	 0.5759415592	-0.515414
C	 0.6953028784	-0.5485552989	 1.2000080028	 0.137808
C	 2.1215369818	-0.9866997533	 0.8877928044	-0.431087
C	 0.6688180763	 0.2555078248	 2.4404043459	 0.258463
N	 0.6242270872	 0.9170436269	 3.3886034766	-0.352889
H	 1.006041037	 1.866334586	-0.3125397356	 0.128119
H	-0.6339958738	 1.787389848	-0.9690071896	 0.125286
H	-0.3900126865	 2.0929163953	 0.7706153519	 0.121803
H	-1.9475581486	 0.0185780043	 1.1024156061	 0.101976
H	-1.8780114946	-0.9456051898	-0.4051876494	 0.095731
H	-0.820102342	-1.8583918321	 2.2391934158	 0.102522
H	-0.8402165554	-3.5534953517	 0.6991276353	 0.237013
H	 0.0028122537	-2.7205713653	-0.4234034598	 0.237793
H	 2.1278946287	-1.6248074976	 0.003764324	 0.127093
H	 2.7552069023	-0.1143743366	 0.7015108125	 0.128692
H	 2.5445156607	-1.5461334251	 1.7263178911	 0.138572
99.0013	132.8253	149.4716	162.9101	208.5215	234.124	257.8436	268.2375	305.2707	373.7373	428.6925	460.3151	539.6527	607.0284	638.6224	704.4799	825.4234	848.6304	883.7363	907.1803	977.166	1016.5247	1102.8579	1119.3841	1140.7362	1158.1335	1171.7937	1183.8631	1219.0276	1243.4974	1272.8685	1276.0143	1319.7125	1403.9544	1429.7572	1451.8447	1475.1181	1483.1804	1487.6983	1502.1438	1516.9948	1656.1113	2334.3006	2969.3116	2974.7182	3051.7139	3052.8107	3068.1262	3105.4723	3115.6469	3122.2339	3150.5977	3500.4696	3582.5457
CN1CC(N)C1(C)C#N	CN1C[C@@H](N)[C@]1(C)C#N	
InChI=1S/C6H11N3/c1-6(4-7)5(8)3-9(6)2/h5H,3,8H2,1-2H3	InChI=1S/C6H11N3/c1-6(4-7)5(8)3-9(6)2/h5H,3,8H2,1-2H3/t5-,6+/m1/s1
