15
gdb 44216	3.44661	1.42168	1.14022	1.8706	72.12	-0.2491	-0.0621	0.187	1027.4097	0.113032	-420.666509	-420.659385	-420.658441	-420.698594	27.144	
O	-0.1800889839	 0.146252883	-0.4954825432	-0.276329
C	-0.1100458665	 1.2700336707	-0.1020626073	 0.400397
C	-1.1175106372	 2.2786641682	 0.4690848848	-0.359404
C	 0.0683414002	 3.2770550969	 0.7006155008	-0.149242
C	 1.0766848948	 2.2652685288	 0.0886944313	-0.202767
C	 1.5274679979	 2.9158677996	-1.1899548579	-0.061904
C	 0.97500664	 4.1222754729	-1.3814020022	-0.17796
C	 0.0691071243	 4.4741174193	-0.2585515351	 0.379253
O	-0.577838168	 5.4861909738	-0.1284083092	-0.327943
H	-1.8976342786	 2.612655047	-0.2205726251	 0.149589
H	-1.5987027691	 1.9137948759	 1.3807008441	 0.147303
H	 0.2122482115	 3.5827465975	 1.7356596052	 0.108676
H	 1.8951726412	 1.8725763279	 0.698224571	 0.113324
H	 2.1997712583	 2.4129814647	-1.8762613995	 0.132831
H	 1.1265775049	 4.7781482739	-2.2289743679	 0.124175
61.2508	140.8015	224.0438	319.059	419.0992	452.2092	518.9245	570.3011	674.5766	708.6197	751.4298	778.0116	826.9023	840.2857	897.0171	957.7178	973.7255	993.4997	1019.9846	1042.4015	1081.8281	1111.7422	1167.2562	1175.3136	1191.7007	1234.8264	1241.8913	1283.9677	1356.3842	1436.2024	1628.9795	1815.1535	1897.2264	3065.1782	3080.1821	3116.1256	3133.6961	3197.4871	3230.4514
O=C1CC2C1C=CC2=O	O=C1C[C@H]2[C@@H]1C=CC2=O	
InChI=1S/C7H6O2/c8-6-2-1-4-5(6)3-7(4)9/h1-2,4-5H,3H2	InChI=1S/C7H6O2/c8-6-2-1-4-5(6)3-7(4)9/h1-2,4-5H,3H2/t4-,5-/m0/s1
