19
gdb 45371	2.7201	1.62322	1.43853	3.4434	73.72	-0.2378	-0.015	0.2228	988.1772	0.161984	-423.068295	-423.061064	-423.06012	-423.100159	28.93	
O	 0.0368772708	-0.103378872	 0.3052906882	-0.306724
C	 0.0127395748	 1.0775463199	 0.0557639253	 0.398719
C	-1.3121061648	 1.8341968705	-0.0954151148	-0.315745
C	-1.2284504663	 3.0411327048	-1.0494161982	-0.047526
C	-0.7324912259	 2.6269203675	-2.4440710238	-0.075533
O	 0.6985170332	 2.5701044234	-2.3476647931	-0.278804
C	 1.1021212178	 3.0735194129	-1.0648028582	 0.099703
C	-0.068622899	 3.9542064535	-0.6163030036	-0.234503
C	 1.2969750827	 1.8956699025	-0.1002964675	-0.310921
H	-2.0729264984	 1.1110011322	-0.4029064289	 0.125373
H	-1.5963629941	 2.1836347851	 0.9074187917	 0.123049
H	-2.1917357712	 3.554853222	-1.0968597342	 0.077302
H	-1.1105611036	 1.6481479032	-2.7613874473	 0.109521
H	-1.0172544584	 3.3670279111	-3.204552899	 0.09773
H	 2.0383183731	 3.6214290885	-1.2038828414	 0.081802
H	-0.0778753002	 4.8981843751	-1.1692309695	 0.106954
H	-0.0609991133	 4.1767786842	 0.4539379771	 0.09983
H	 1.5928922679	 2.2643320635	 0.8920212894	 0.117688
H	 2.085182405	 1.2215749921	-0.444659462	 0.132086
74.6856	134.2316	323.2607	343.5481	386.4106	443.5362	473.9418	505.8911	591.164	717.9662	725.5155	819.5141	847.0653	848.5557	882.4173	899.3065	934.9435	962.0353	1003.5628	1023.7477	1045.7301	1074.0796	1085.952	1108.711	1176.1657	1192.5279	1212.7236	1228.8347	1258.4191	1304.9624	1309.5553	1323.9256	1338.4745	1368.2965	1377.2831	1394.2911	1444.6427	1455.405	1492.8125	1531.0652	1819.363	3005.3922	3018.0927	3023.2372	3054.8051	3055.909	3071.4028	3082.5475	3093.0464	3105.2512	3108.4479
O=C1CC2COC(C2)C1	O=C1C[C@@H]2CO[C@@H](C2)C1	
InChI=1S/C7H10O2/c8-6-1-5-2-7(3-6)9-4-5/h5,7H,1-4H2	InChI=1S/C7H10O2/c8-6-1-5-2-7(3-6)9-4-5/h5,7H,1-4H2/t5-,7-/m0/s1
