16
gdb 32345	4.80949	1.01731	0.87607	6.7416	77.11	-0.2088	-0.0544	0.1544	1289.1528	0.126455	-434.114978	-434.10689	-434.105946	-434.148265	29.719	
C	 0.1297368593	 1.2994571111	 0.44911307	-0.332882
N	-0.0743392051	 0.1617292023	-0.4513763945	-0.377864
C	-1.2125700736	-0.6377308554	-0.2166990649	 0.206074
C	-1.1727811972	-1.9615634805	 0.1104420054	-0.04545
N	-2.3343468828	-2.6609830671	 0.2193909744	-0.338248
C	-3.6225066974	-2.1038283981	 0.0763842265	 0.439507
O	-4.6027120025	-2.798337481	 0.2361624345	-0.386927
N	-3.6477373117	-0.7533649122	-0.2597748577	-0.316987
C	-2.5300997185	-0.1033625611	-0.3998257104	 0.021464
H	 1.0169151276	 1.8508270601	 0.127236753	 0.130154
H	-0.7231132261	 1.980303876	 0.3849619796	 0.141011
H	 0.2540658271	 1.011309061	 1.5047768551	 0.111456
H	 0.7621679803	-0.4066651722	-0.5022784542	 0.229522
H	-0.2528266342	-2.5133719834	 0.271945034	 0.128378
H	-2.3221552726	-3.6456048311	 0.443432597	 0.268895
H	-2.6129647727	 0.9447217616	-0.6931745179	 0.121896
61.4355	88.4286	179.2399	196.1578	352.0395	385.7671	401.9102	478.6669	506.9429	544.2214	653.5499	684.3601	714.8849	785.2803	807.6556	842.4945	894.8339	1003.3342	1006.4562	1045.4738	1098.0181	1148.2982	1164.0327	1207.7766	1302.5959	1348.6492	1437.793	1451.2567	1465.3765	1492.9051	1496.8805	1517.0272	1574.4733	1700.6856	1810.053	2981.1479	3085.1822	3113.0841	3124.8233	3188.1467	3550.7781	3615.0455
CNC1=CNC(=O)N=C1	CNc1c[nH]c(=O)nc1	
InChI=1S/C5H7N3O/c1-6-4-2-7-5(9)8-3-4/h2-3,6H,1H3,(H,7,8,9)	InChI=1S/C5H7N3O/c1-6-4-2-7-5(9)8-3-4/h2-3,6H,1H3,(H,7,8,9)
