21
gdb 94731	2.65015	1.47979	1.24391	2.3532	77.51	-0.2448	0.0636	0.3084	1112.464	0.182859	-424.228036	-424.219362	-424.218418	-424.260908	33.854	
C	-0.0756302416	 1.5626561147	 0.0435595624	-0.409898
C	 0.106981554	 0.0487248801	-0.0466866827	 0.019647
C	 1.0547482009	-0.4281134464	-1.1712970601	-0.225305
C	 1.4070465244	-1.8765872566	-0.7780830083	-0.301165
C	 1.4844642602	-1.8615377725	 0.7584865451	 0.351293
O	 1.0791767438	-3.0556652772	 1.3813453187	-0.486943
C	 2.7195840677	-1.1479935596	 1.3589833022	-0.119592
O	 1.9557486384	 0.0510652145	 1.6043992211	-0.300381
C	 0.7167040416	-0.5893524211	 1.2024858227	 0.09332
H	 0.8756179823	 2.0439154468	 0.287534521	 0.135005
H	-0.4370523513	 1.9726982935	-0.9051171707	 0.108835
H	-0.798672655	 1.8319145806	 0.8206600743	 0.11229
H	-0.8721917458	-0.429700914	-0.1956428233	 0.073227
H	 0.6033548415	-0.3578887795	-2.1647781033	 0.096331
H	 1.9552743892	 0.1965262297	-1.1773543779	 0.111627
H	 0.5924586066	-2.5530314977	-1.0632036237	 0.103927
H	 2.326957699	-2.241797763	-1.2478141961	 0.092006
H	 1.5268780048	-3.7906800598	 0.9493086802	 0.279374
H	 3.0673197391	-1.6128441614	 2.2899579199	 0.099692
H	 3.572395855	-0.9645597793	 0.6925753086	 0.091699
H	 0.0285581652	-0.700440012	 2.0471130199	 0.07501
101.0414	172.4162	209.4713	218.6814	234.4432	270.6094	326.4932	388.5075	409.7873	525.4698	566.6141	592.1137	652.1959	807.662	844.305	887.259	907.8999	922.4259	960.5995	972.5025	992.2278	1006.8695	1018.136	1071.6308	1083.9765	1133.5485	1152.8155	1175.7883	1191.5427	1216.367	1244.5436	1263.1489	1304.489	1316.099	1322.2923	1337.7282	1354.9532	1377.2468	1403.0024	1408.1328	1483.9835	1493.2124	1496.3653	1505.7718	1512.4208	3001.2839	3005.0564	3031.3135	3034.9297	3043.8658	3056.2096	3057.9925	3077.2175	3096.6315	3098.0362	3117.9482	3808.38
CC1CCC2(O)COC12	C[C@H]1CC[C@@]2(O)CO[C@@H]12	
InChI=1S/C7H12O2/c1-5-2-3-7(8)4-9-6(5)7/h5-6,8H,2-4H2,1H3	InChI=1S/C7H12O2/c1-5-2-3-7(8)4-9-6(5)7/h5-6,8H,2-4H2,1H3/t5-,6-,7+/m0/s1
