20
gdb 88280	3.53398	1.04028	0.94124	3.0077	82.17	-0.2412	0.0114	0.2526	1338.8559	0.170279	-403.144096	-403.134884	-403.13394	-403.178663	33.854	
C	 0.0320232373	 1.3671268797	 0.3946454035	-0.400673
C	 0.0289280248	-0.0992120249	 0.0322396167	 0.018199
C	 1.3194333053	-0.8623474377	-0.1214956757	-0.261494
N	 0.4231887128	-1.1065945505	 0.9900986264	-0.098141
C	 0.6691112744	-0.9099874292	 2.3425099683	 0.396212
O	-0.064989571	-0.2411332801	 3.0457222161	-0.380399
C	 1.8432105224	-1.6611423862	 2.8762896115	-0.106984
C	 2.627622021	-1.0006170548	 3.9999052025	-0.252727
C	 1.7453541573	-2.1642903899	 4.3052708565	-0.248652
H	 0.9337529579	 1.6397767888	 0.9498402783	 0.123076
H	-0.0114002132	 1.9748570834	-0.5149757519	 0.11712
H	-0.82791346	 1.6122212508	 1.0226039353	 0.150975
H	-0.799370411	-0.4099387361	-0.6034979793	 0.100664
H	 1.406511988	-1.6603366123	-0.8549703144	 0.122246
H	 2.2413767949	-0.3196191976	 0.078588422	 0.125746
H	 2.3923333737	-2.266922214	 2.1656803331	 0.089781
H	 3.7027142675	-1.1395526045	 4.0027005304	 0.113462
H	 2.2803107129	-0.0200433996	 4.3039661475	 0.13599
H	 0.8079467915	-1.9588205606	 4.8083404745	 0.140764
H	 2.1983239434	-3.1243868547	 4.5236916985	 0.114835
54.2581	80.9583	135.8016	174.9686	208.8557	260.7032	281.48	371.5812	381.1428	455.6715	606.2667	731.8993	755.4474	798.5663	832.8746	835.5369	866.633	910.3881	917.5953	952.9803	1040.7087	1057.6611	1068.3116	1093.6002	1109.36	1116.9646	1123.506	1131.9683	1160.9704	1175.7989	1192.3754	1209.7172	1223.1166	1360.7939	1402.29	1416.8145	1444.3685	1451.7844	1483.9532	1485.7132	1490.3203	1514.4701	1760.6903	3043.7392	3094.4546	3105.3731	3119.6161	3129.9901	3140.6004	3144.0205	3181.4584	3183.0758	3228.9143	3243.8205
CC1CN1C(=O)C1CC1	C[C@H]1CN1C(=O)C1CC1	
InChI=1S/C7H11NO/c1-5-4-8(5)7(9)6-2-3-6/h5-6H,2-4H2,1H3	InChI=1S/C7H11NO/c1-5-4-8(5)7(9)6-2-3-6/h5-6H,2-4H2,1H3/t5-,8?/m0/s1
