23
gdb 60178	2.7911	0.88012	0.75005	0.901	92.61	-0.2391	0.0512	0.2902	1619.9596	0.203285	-351.120582	-351.11006	-351.109116	-351.156434	39.462	
C	 0.107240573	 1.5157255379	-0.0458166459	-0.3911
C	 0.0637949727	-0.0124657657	 0.0864085128	 0.042476
C	 0.5888981995	-0.4539104184	 1.4592939096	-0.379291
C	-1.3580106673	-0.5343092638	-0.2001739006	-0.197424
C	-1.4651458361	-2.0426579092	-0.2828574362	-0.004836
C	-1.8508678968	-2.8823806829	 0.9010567575	-0.285373
C	-2.826253942	-2.7352462026	-0.2583577928	-0.213417
C	-4.0362608734	-1.9832398113	-0.1001262161	 0.340147
C	-5.0582850572	-1.358919098	 0.0192970173	-0.478245
H	 1.1207166291	 1.8982300357	 0.1143112132	 0.107912
H	-0.2230961156	 1.8417025727	-1.0377242386	 0.109492
H	-0.5468995502	 1.9915795654	 0.6948847706	 0.112394
H	 0.7311478034	-0.433384741	-0.6805117452	 0.068461
H	 0.6169336893	-1.5427574517	 1.5541944254	 0.118834
H	 1.6025944129	-0.0760708638	 1.6297978882	 0.107758
H	-0.0480949096	-0.0647166458	 2.2630764324	 0.109021
H	-2.0488526348	-0.1592766772	 0.5653322409	 0.102443
H	-1.7032672344	-0.1054355832	-1.1503227143	 0.098405
H	-0.7591595574	-2.500861684	-0.9723112652	 0.087672
H	-1.3844915052	-3.8514369688	 1.0407790764	 0.115389
H	-2.1099031488	-2.3681561211	 1.8196902261	 0.126264
H	-2.9205755702	-3.6018052061	-0.906571731	 0.110307
H	-5.960323691	-0.810116727	 0.1283076454	 0.192712
45.9113	83.6812	96.5803	184.5038	205.5811	229.4627	258.2304	306.7525	313.3023	386.2633	423.4356	442.5886	525.6676	571.3607	606.0708	645.6882	770.4913	816.4853	823.7918	861.421	881.3352	927.964	934.9618	965.9519	975.7393	994.1315	1066.7138	1081.8592	1119.3087	1142.0795	1146.0185	1192.2146	1199.3488	1229.8527	1265.944	1313.628	1366.9842	1369.5448	1379.1902	1398.8755	1415.9303	1423.7048	1478.3531	1487.374	1488.4212	1496.8977	1504.4996	1510.3964	2233.1793	2990.1584	3016.5495	3022.3323	3028.3567	3057.2694	3085.8725	3092.0532	3098.4125	3112.2729	3127.238	3135.8672	3145.8661	3225.8116	3505.8973
CC(C)CC1CC1C#C	CC(C)C[C@H]1C[C@H]1C#C	
InChI=1S/C9H14/c1-4-8-6-9(8)5-7(2)3/h1,7-9H,5-6H2,2-3H3	InChI=1S/C9H14/c1-4-8-6-9(8)5-7(2)3/h1,7-9H,5-6H2,2-3H3/t8-,9+/m1/s1
