15
gdb 54487	3.24284	1.51561	1.19631	12.0429	73.81	-0.1965	-0.0955	0.101	999.1273	0.112799	-453.91087	-453.903384	-453.90244	-453.943063	28.218	
O	-0.0967417829	-0.0515983965	 0.0261995184	-0.453357
C	 0.0188611171	 1.1727585904	 0.0028148944	 0.349896
O	 0.9714461239	 1.9662468853	-0.0714736157	-0.453838
C	-1.3685853782	 1.9508771305	 0.0936634102	 0.167632
C	-2.588810832	 1.2269262502	 0.4582088314	-0.257817
N	-2.3851522485	 1.6145957023	-0.9958360026	-0.112184
C	-2.889913873	 2.8022118445	-1.3741457479	 0.101099
N	-2.3429426813	 3.8547042678	-0.8135482019	-0.206508
H	-2.5667105685	 4.8072802047	-1.0678218624	 0.291867
C	-1.2890740363	 3.4679830868	 0.1463988863	-0.259692
H	-2.4705791237	 0.1565655325	 0.5858185274	 0.188335
H	-3.4176345301	 1.7178897406	 0.9630752378	 0.128793
H	-3.6570463212	 2.8949923621	-2.1364083362	 0.183961
H	-1.4767762726	 3.924945834	 1.1216151576	 0.143214
H	-0.2849330227	 3.7352695948	-0.2069551468	 0.188598
79.1823	142.5373	213.9422	285.5802	325.5991	398.7112	451.7946	474.322	614.2874	661.4407	726.594	746.9899	799.4795	838.8735	855.7764	920.3221	939.1837	949.545	1006.5057	1070.1836	1128.5641	1136.0169	1186.3578	1196.3232	1251.2284	1286.505	1319.979	1368.2797	1447.6412	1476.923	1499.5544	1597.8736	1820.5006	3037.5719	3102.2699	3113.9234	3201.8853	3237.2718	3603.5412
[O-]C(=O)C12CN1C=[NH+]C2	[O]C(=O)[C@]12CN1[CH]NC2	
InChI=1S/C5H6N2O2/c8-4(9)5-1-6-3-7(5)2-5/h3H,1-2H2,(H,8,9)	InChI=1S/C5H6N2O2/c8-4(9)5-1-6-3-7(5)2-5/h3,6H,1-2H2/t5-,7?/m0/s1
