14
gdb 133559	3.02883	1.3298	1.21741	2.6815	54.18	-0.2771	0.0605	0.3377	1016.494	0.096876	-568.153827	-568.146243	-568.145299	-568.18659	28.069	
F	 0.4059788917	 0.1269305754	 0.2514481535	-0.065498
C	 0.0020157377	 1.3805413341	 0.0327079165	 0.208778
F	 1.0675513774	 2.10402219	-0.3511190808	-0.075744
F	-0.861131961	 1.3654487678	-0.9920700323	-0.070633
C	-0.6093226262	 1.9832072368	 1.2594613866	 0.263864
C	-0.8871401934	 3.4615325727	 1.564974434	-0.311261
C	-0.6700088341	 3.1229490179	 3.0847912391	-0.241406
C	-0.3958525771	 1.6665605294	 2.6792761537	-0.047609
O	-1.5542478656	 1.1963230044	 1.9739621304	-0.280169
H	-0.1199353211	 4.1295580796	 1.1706767938	 0.128411
H	-1.8769539216	 3.811192986	 1.267378708	 0.12409
H	 0.2049513383	 3.6246036125	 3.5027733421	 0.118931
H	-1.5259305375	 3.2589202736	 3.7483247776	 0.123813
H	 0.2335993324	 0.9174426297	 3.1438676877	 0.124434
58.7346	145.6851	174.9877	269.8272	342.7583	392.3352	444.397	499.8791	574.6739	587.9528	737.8718	751.5504	775.6915	903.1228	910.3087	931.054	946.0299	1005.6959	1064.0232	1115.3127	1154.459	1187.2798	1200.7083	1215.1138	1222.9241	1234.3404	1274.8615	1323.7274	1464.1201	1469.2732	1498.5012	3077.4105	3085.9301	3132.2966	3149.4047	3201.4754
FC(F)(F)C12CCC1O2	FC(F)(F)[C@]12CC[C@H]1O2	
InChI=1S/C5H5F3O/c6-5(7,8)4-2-1-3(4)9-4/h3H,1-2H2	InChI=1S/C5H5F3O/c6-5(7,8)4-2-1-3(4)9-4/h3H,1-2H2/t3-,4+/m1/s1
