18
gdb 107996	2.90277	1.5251	1.31626	1.5114	71.29	-0.2318	0.0648	0.2966	1018.6615	0.149032	-439.007905	-439.000331	-438.999387	-439.040127	29.365	
O	-0.1290069605	 1.4441004544	 0.0256138117	-0.424211
C	-0.0287858999	 0.0308243128	-0.0932702258	-0.237633
C	-1.4163315571	-0.5219573758	-0.0019472515	 0.332943
N	-2.4708583864	-0.2550188154	-1.0470857872	-0.367494
C	-3.1597157898	-1.1152569082	-0.0196648679	-0.07937
C	-1.8852151753	-2.0122570768	 0.0642454291	-0.100774
C	-1.7532958259	-2.4606296832	 1.5111630829	-0.113504
O	-2.1564152915	-1.2668400627	 2.2156910852	-0.281055
C	-2.454290906	-0.382747604	 1.1584585829	 0.091758
H	 0.7451182573	 1.8208775629	-0.1106204188	 0.291726
H	 0.4161143292	-0.2631577741	-1.0563195558	 0.100253
H	 0.5868711283	-0.4008104539	 0.7122896995	 0.095842
H	-2.7897204135	 0.7144963821	-0.9538889863	 0.215303
H	-4.197825495	-1.4338678517	-0.1174931296	 0.08073
H	-1.6475796462	-2.6923997209	-0.7520278354	 0.086077
H	-2.4214746174	-3.2913391321	 1.7692592599	 0.107126
H	-0.730098645	-2.7339402306	 1.7961915137	 0.105694
H	-2.7810307553	 0.5914114273	 1.5202322933	 0.096586
83.4023	156.4023	200.5576	252.9234	284.8863	398.85	470.5792	501.7155	669.9352	686.4474	751.5438	787.0996	815.2244	890.1903	929.3119	945.4629	964.2823	972.417	1012.8128	1015.8582	1064.9913	1085.4723	1091.872	1110.364	1144.0148	1162.8514	1200.2883	1213.5462	1223.8905	1267.299	1272.5255	1275.0216	1287.5535	1305.1759	1351.4799	1399.7291	1471.5848	1503.4971	1520.4657	2971.0016	3007.0323	3021.4795	3058.3836	3111.5289	3139.8974	3145.0783	3388.7367	3832.8523
OCC12NC3C1COC23	OC[C@@]12N[C@H]3[C@@H]1CO[C@@H]23	
InChI=1S/C6H9NO2/c8-2-6-3-1-9-5(6)4(3)7-6/h3-5,7-8H,1-2H2	InChI=1S/C6H9NO2/c8-2-6-3-1-9-5(6)4(3)7-6/h3-5,7-8H,1-2H2/t3-,4-,5+,6+/m0/s1
