15
gdb 33052	4.88199	0.89857	0.78112	4.777	64.64	-0.2321	0.0238	0.2558	1413.6852	0.111306	-494.939851	-494.931515	-494.930571	-494.97414	29.374	
C	 0.0083216366	 1.4469177114	 0.1274748294	-0.388366
C	-0.053309795	-0.028786938	-0.2064467473	-0.070979
O	-1.3041695483	-0.5422795929	 0.3221477186	-0.271693
C	-1.5336481194	-1.8297717278	 0.1279577391	 0.391133
C	-2.5884701678	-2.4963203788	-0.3356390492	-0.174218
O	-2.3309467147	-3.8595442828	-0.2121968049	-0.211801
C	-1.082912407	-3.9999411819	 0.3095134348	 0.516751
O	-0.5224632244	-5.0230191204	 0.5333816091	-0.36889
O	-0.5707391401	-2.7433695044	 0.5354596286	-0.251708
H	 0.9400213074	 1.8727623111	-0.2556291688	 0.130553
H	-0.8305340017	 1.9834419266	-0.3236854181	 0.135845
H	-0.0232113071	 1.5987222959	 1.2096109692	 0.140117
H	-0.0388461013	-0.2025143266	-1.2894684784	 0.117194
H	 0.7753827207	-0.5814701837	 0.2462702809	 0.13896
H	-3.5387398978	-2.1953401277	-0.7337850129	 0.167102
49.0856	65.0186	117.1189	217.2132	243.5923	329.5488	379.9926	410.9676	578.0149	626.855	684.9049	717.8163	772.0171	782.5683	817.7862	888.041	934.207	964.3842	1043.2205	1077.2096	1126.1189	1131.9004	1179.4591	1294.3609	1309.2551	1317.6569	1401.7809	1424.5928	1483.1243	1499.5537	1520.7084	1774.8883	1944.124	3030.9443	3050.5664	3088.7774	3126.7883	3132.0972	3321.6189
CCOC1=COC(=O)O1	CCOc1coc(=O)o1	
InChI=1S/C5H6O4/c1-2-7-4-3-8-5(6)9-4/h3H,2H2,1H3	InChI=1S/C5H6O4/c1-2-7-4-3-8-5(6)9-4/h3H,2H2,1H3
