17
gdb 126061	3.03722	1.63768	1.12037	1.1107	74.11	-0.2219	-0.0073	0.2146	1058.8948	0.139799	-414.183658	-414.176207	-414.175263	-414.215596	28.528	
C	 0.0427797388	 1.5954017282	-0.0328901882	-0.369222
C	 0.0170573611	 0.0694541547	 0.0651291596	-0.096724
N	 0.7428339002	-0.5618836082	-1.0784128867	-0.328808
C	 1.5119860819	-1.7684560972	-0.6707848797	-0.288734
C	 1.618129932	-1.5462530073	 0.8013557859	 0.307934
N	 2.2644242601	-2.0426819247	 1.8480520289	-0.314075
N	 1.7797956591	-1.2910562508	 2.8451671343	-0.098991
N	 0.8805653846	-0.351989951	 2.5256472381	-0.324136
C	 0.7758675838	-0.5164532052	 1.2131377092	 0.328132
H	 1.0746263045	 1.953849351	-0.0684568092	 0.124332
H	-0.4685768023	 1.9293208241	-0.941106516	 0.110257
H	-0.4607721101	 2.0437466688	 0.8294609074	 0.1222
H	-1.0353472229	-0.2606537798	 0.112057856	 0.081767
H	 0.1196222099	-0.7580494012	-1.8502383269	 0.221092
H	 0.9938726695	-2.7150721128	-0.8946683507	 0.108298
H	 2.4807894632	-1.7988116295	-1.183285608	 0.125915
H	 2.0930841368	-1.4153090591	 3.7939893862	 0.290762
103.1387	168.3614	225.6473	247.0542	299.7696	447.6759	468.4266	498.6646	547.7158	662.4613	695.1112	703.3569	757.2682	784.2312	934.084	985.5101	1005.2782	1040.5865	1060.9567	1096.583	1108.516	1157.8289	1160.0306	1186.5209	1199.2147	1263.9485	1348.7011	1364.2818	1404.6437	1423.0192	1447.2775	1459.5717	1489.6812	1494.1267	1518.3131	1534.3317	1604.0454	2939.9313	2967.3847	3038.9481	3040.1542	3109.4353	3126.6116	3571.9289	3674.2107
CC1NCC2=NNN=C12	C[C@H]1NCc2n[nH]nc12	
InChI=1S/C5H8N4/c1-3-5-4(2-6-3)7-9-8-5/h3,6H,2H2,1H3,(H,7,8,9)	InChI=1S/C5H8N4/c1-3-5-4(2-6-3)7-9-8-5/h3,6H,2H2,1H3,(H,7,8,9)/t3-/m1/s1
