18
gdb 7532	4.57637	1.1701	1.0874	4.1958	69.47	-0.267	0.0075	0.2745	1141.0481	0.151022	-384.956297	-384.947357	-384.946413	-384.989657	32.172	
C	-0.103585222	 1.4986850814	-0.0437638996	-0.419682
C	 0.0583761184	-0.0015638664	 0.053986376	-0.035368
C	 1.3857447557	-0.6849447136	-0.2127487111	-0.34971
C	 0.789582834	-0.6829538872	 1.1753674656	 0.399374
C	 1.4212358899	 0.0639980373	 2.3247672725	-0.448198
O	 0.1469274944	-1.8856268622	 1.6025574786	-0.224537
C	 0.9266288491	-2.9721288222	 1.7775449591	 0.158972
O	 0.4993230573	-4.0110722187	 2.184476197	-0.277179
H	 0.8028954295	 2.0311016827	 0.2585155952	 0.117676
H	-0.3226848322	 1.7907778762	-1.0760633011	 0.126914
H	-0.9268604042	 1.8538165511	 0.5852184012	 0.127404
H	-0.8054348586	-0.5688454827	-0.2815545374	 0.108121
H	 1.3803687542	-1.6102420745	-0.7776291722	 0.125406
H	 2.2583684891	-0.0611128993	-0.3805128279	 0.11854
H	 1.853823528	 1.0101461584	 1.9927163557	 0.126437
H	 0.6755133839	 0.2767167471	 3.0972468546	 0.137904
H	 2.2226880607	-0.5260188442	 2.7823466249	 0.124782
H	 1.9811257529	-2.7954781434	 1.4956411388	 0.083143
89.1385	141.2786	165.8632	178.3676	189.8765	252.0923	283.2347	339.145	405.0982	428.5099	515.3623	583.7613	755.3962	804.2394	881.2686	914.6502	943.317	997.7619	1020.0962	1050.0801	1058.1871	1109.4895	1125.7805	1142.4772	1183.1298	1190.0313	1236.1666	1329.9791	1406.1456	1416.921	1420.7659	1427.9711	1480.141	1481.8646	1492.2704	1497.4042	1512.7565	1862.6823	2968.471	3034.6322	3039.8256	3097.3614	3101.2437	3105.5063	3128.6534	3132.0825	3152.3792	3217.934
CC1CC1(C)OC=O	C[C@H]1C[C@]1(C)OC=O	
InChI=1S/C6H10O2/c1-5-3-6(5,2)8-4-7/h4-5H,3H2,1-2H3	InChI=1S/C6H10O2/c1-5-3-6(5,2)8-4-7/h4-5H,3H2,1-2H3/t5-,6-/m0/s1
