21
gdb 118658	2.82396	0.74392	0.61406	0.1537	82.05	-0.2537	0.0527	0.3064	1830.9326	0.178759	-424.172249	-424.160921	-424.159977	-424.209702	39.104	
C	 0.0055708167	 1.3925970209	 0.0086438568	-0.227961
O	-0.0172932106	-0.0142476356	-0.0105615857	-0.229577
C	 0.6676676601	-0.5592153649	-1.1111752558	-0.056434
C	 0.6446084931	-2.0914083691	-0.9973892014	-0.192548
C	 1.192667063	-2.7361638726	-2.2884056269	-0.179657
C	 1.0887221782	-4.2557065594	-2.2987900778	-0.085255
O	 1.5736080811	-4.7050236376	-3.5559297581	-0.422294
C	 1.373775387	-2.5389803128	 0.1891059619	 0.364326
C	 2.0000277127	-2.9121298678	 1.1451107987	-0.493419
H	 1.0334431534	 1.7836455536	 0.0693520381	 0.106366
H	-0.4720017639	 1.822872368	-0.8863938929	 0.102449
H	-0.5481319868	 1.7158238017	 0.8932868481	 0.128994
H	 0.1845682418	-0.2590561835	-2.0567555131	 0.085728
H	 1.7102528166	-0.2018737468	-1.1421599446	 0.094201
H	-0.410036412	-2.3783209861	-0.8826250655	 0.114091
H	 0.6337686545	-2.3451118769	-3.1461332469	 0.107379
H	 2.2418641822	-2.4539048025	-2.4292963774	 0.114617
H	 1.673982129	-4.6734361246	-1.467554537	 0.104468
H	 0.038457807	-4.5562238448	-2.1463525055	 0.083262
H	 1.5849563213	-5.6662952974	-3.5457189498	 0.286375
H	 2.5383518556	-3.2360446718	 2.001043215	 0.194889
61.9261	81.1212	83.8267	101.8893	116.7992	169.9596	228.5593	239.1524	252.9524	271.2415	314.7556	405.7621	431.6818	552.3438	625.3458	629.228	638.0295	786.6044	846.4545	968.44	982.8055	1026.6553	1064.1899	1098.9498	1107.407	1120.3768	1167.4742	1184.3626	1215.1671	1224.4035	1247.9525	1260.4954	1293.2744	1313.941	1351.6201	1372.6335	1414.0766	1463.6114	1479.8802	1485.0874	1490.236	1501.7945	1525.9382	1529.6511	2234.022	2951.8125	2961.6334	2970.7443	2987.2235	3013.0767	3017.4104	3018.7957	3041.0834	3088.7539	3116.0131	3504.802	3832.6437
COCC(CCO)C#C	COC[C@@H](CCO)C#C	
InChI=1S/C7H12O2/c1-3-7(4-5-8)6-9-2/h1,7-8H,4-6H2,2H3	InChI=1S/C7H12O2/c1-3-7(4-5-8)6-9-2/h1,7-8H,4-6H2,2H3/t7-/m1/s1
