19
gdb 121515	8.17644	0.40398	0.3887	0.7278	102.53	-0.229	-0.0113	0.2177	2808.5885	0.155607	-385.840632	-385.829427	-385.828483	-385.88067	36.983	
C	-0.0265959071	 1.5172108729	 0.0321451741	-0.386998
C	 0.0084671243	-0.0002908191	-0.0117208988	-0.015261
O	 0.6807853789	-0.3969855605	-1.1926000097	-0.241918
C	 0.7621772444	-1.8023029566	-1.3195240266	-0.235974
C	 1.4593889985	-2.1600858511	-2.544774295	 0.164786
C	 2.0347096877	-2.4945275662	-3.5553361924	-0.059755
C	 2.6822803743	-2.8625141635	-4.6928588384	-0.214776
C	 3.2586028457	-3.1908208693	-5.7052079984	 0.250962
C	 3.9500973823	-3.5831097048	-6.9197054235	-0.518484
H	 0.9885075003	 1.9237424443	 0.0336714201	 0.130532
H	-0.55308011	 1.9133925358	-0.8405285724	 0.130532
H	-0.540882482	 1.8598204531	 0.9349959648	 0.115212
H	 0.5276674317	-0.4034351655	 0.8747341256	 0.086886
H	-1.0146538775	-0.4137885507	 0.0001115752	 0.086886
H	 1.2900089895	-2.238990084	-0.4526519567	 0.118467
H	-0.2482373402	-2.2492950742	-1.3249558606	 0.118466
H	 4.0251055637	-4.6738144412	-6.9960018973	 0.156729
H	 3.423506566	-3.2227869529	-7.8106758129	 0.156824
H	 4.9676821197	-3.1771650864	-6.9459982872	 0.156883
6.0867	47.6578	57.706	102.8031	117.1625	136.9403	239.3714	249.9122	256.1475	329.0167	381.5014	382.3431	488.895	559.3727	561.9756	657.7458	822.4094	903.6331	967.9483	1022.4463	1036.6023	1047.8035	1048.9677	1129.8659	1156.2322	1188.0935	1249.7171	1289.0369	1295.2039	1377.9183	1405.1164	1413.2859	1448.2047	1471.2513	1472.5513	1483.0226	1493.1654	1500.455	1531.0146	2282.7122	2388.8563	2936.3719	2953.0347	2953.0814	2975.5222	3023.4918	3045.9572	3085.7124	3085.7444	3120.1712	3124.2136
CCOCC#CC#CC	CCOCC#CC#CC	
InChI=1S/C8H10O/c1-3-5-6-7-8-9-4-2/h4,8H2,1-2H3	InChI=1S/C8H10O/c1-3-5-6-7-8-9-4-2/h4,8H2,1-2H3
