20
gdb 17528	3.63644	1.77556	1.54806	0.227	79.02	-0.2383	0.0963	0.3346	928.0795	0.177577	-311.826188	-311.818615	-311.81767	-311.857563	30.315	
C	-0.0249432734	 1.5574443576	 0.0139974996	-0.415331
C	 0.0927209188	 0.0492635443	 0.0755504941	 0.003651
C	 1.3472875935	-0.7420020196	-0.1898127654	-0.066866
C	 2.6034933531	-0.0486421929	 0.3648943564	-0.32165
C	 1.9433654266	-0.051467846	 1.7598529449	 0.399148
C	 2.6311501041	-0.4074439527	 3.0425497678	-0.344276
C	 2.0380628779	 0.9729313346	 2.8553358271	-0.319463
C	 0.7058640718	-0.7354522951	 1.2093634596	-0.154077
H	 0.8471224818	 2.0565406331	 0.4421379209	 0.126645
H	-0.1325444277	 1.8984510699	-1.0219088826	 0.111484
H	-0.904546786	 1.9013381508	 0.5695953603	 0.112442
H	-0.7820705277	-0.4616240031	-0.325187836	 0.080289
H	 1.3664422341	-1.547153241	-0.9145614476	 0.080475
H	 3.4880532759	-0.6901531551	 0.3245069315	 0.102301
H	 2.8576137938	 0.9243033638	-0.0701528096	 0.092618
H	 2.128234821	-1.0906874203	 3.7203104683	 0.109456
H	 3.7124467105	-0.5054982387	 3.0352386835	 0.107791
H	 2.722705645	 1.8046310984	 2.7201254955	 0.10783
H	 1.1377117641	 1.2227353649	 3.4075066506	 0.109788
H	 0.1682372827	-1.5305303128	 1.714877481	 0.077745
119.4604	185.3775	205.3789	288.1783	289.8154	340.6796	462.9294	509.5871	605.4986	717.1508	771.5646	781.9228	814.3522	856.1715	873.8173	913.4924	931.8037	969.1345	979.1125	991.6567	1015.9232	1050.7213	1057.1254	1072.4565	1079.1365	1090.6196	1134.8235	1170.2386	1188.3841	1208.9083	1230.0222	1253.154	1287.8558	1323.8885	1393.5247	1415.8777	1440.0279	1463.9572	1484.5884	1498.0287	1503.7864	1504.2716	3031.5617	3037.0293	3086.0538	3090.2802	3110.5737	3117.3754	3122.5954	3129.7995	3162.1751	3179.8126	3195.0572	3210.7319
CC1C2CC3(CC3)C12	C[C@H]1[C@H]2CC3(CC3)[C@@H]12	
InChI=1S/C8H12/c1-5-6-4-8(2-3-8)7(5)6/h5-7H,2-4H2,1H3	InChI=1S/C8H12/c1-5-6-4-8(2-3-8)7(5)6/h5-7H,2-4H2,1H3/t5-,6+,7-/m0/s1
