13
gdb 21273	7.27807	1.38368	1.17239	1.2691	56.76	-0.2318	0.0165	0.2483	964.4223	0.096397	-431.917927	-431.910627	-431.909682	-431.949566	26.03	
C	 0.0216771305	 1.3767548373	-0.0320706527	-0.250473
O	 0.0072195648	-0.0597802342	-0.0494619317	-0.252012
C	 0.5836921263	-0.6532878021	-1.0732945509	 0.540045
N	 0.6593565294	-1.9384044453	-1.2483470135	-0.414973
C	 1.3417625219	-1.9970100432	-2.4408362223	 0.433088
N	 1.5952298165	-3.1983279902	-3.0459950859	-0.582025
N	 1.6816585846	-0.8424359108	-2.9748833618	-0.236233
O	 1.144790986	 0.0885999589	-2.0265061456	-0.226112
H	 1.0480573081	 1.7521066334	-0.0167238935	 0.151098
H	-0.500614675	 1.7780821818	-0.9042279647	 0.152107
H	-0.4979556655	 1.6583395013	 0.8827776289	 0.150599
H	 1.6470268003	-3.9779085191	-2.4086833873	 0.268514
H	 2.322481742	-3.1808745677	-3.744782859	 0.266378
94.0824	145.3108	220.2302	235.8828	328.5509	374.0736	404.4818	556.4398	558.2505	661.594	721.3772	777.8667	791.9133	909.0565	1005.3436	1023.0374	1124.6802	1139.1673	1178.2404	1205.8719	1363.371	1452.0231	1486.8198	1496.5479	1498.0286	1598.156	1658.1802	1672.5739	3051.8095	3129.2161	3168.3714	3585.9558	3696.7395
COC1=NC(N)=NO1	COc1nc(N)no1	
InChI=1S/C3H5N3O2/c1-7-3-5-2(4)6-8-3/h1H3,(H2,4,6)	InChI=1S/C3H5N3O2/c1-7-3-5-2(4)6-8-3/h1H3,(H2,4,6)
