18
gdb 70961	3.88799	1.27845	1.14066	1.7974	83.66	-0.2434	0.0204	0.2638	1119.6791	0.146954	-364.730748	-364.722724	-364.72178	-364.762818	31.872	
C	-0.0942704167	 1.4651596815	 0.0493803132	-0.498144
C	 0.101545962	-0.0164940146	-0.0363823227	 0.336686
C	 0.097556498	-0.8727390674	-1.2913075948	-0.333273
C	-0.2279610918	-2.0377347388	-0.3259311326	 0.241315
C	 1.039764065	-2.2110313447	 0.5479535111	-0.285409
C	 0.6832796284	-0.8360197009	 1.0722931541	-0.088875
N	-0.7775532791	-0.9813479351	 0.7201041597	-0.221188
C	-1.0226238582	-3.1570163364	-0.7331713814	 0.078739
C	-1.6804432997	-4.1018400961	-1.0816492094	-0.334309
H	 0.7933022517	 1.9985541301	-0.3095554707	 0.122788
H	-0.9503728487	 1.7827750673	-0.5547855645	 0.127059
H	-0.2792969941	 1.7718860585	 1.0833691414	 0.131122
H	-0.762752872	-0.6364061764	-1.922332136	 0.118231
H	 1.0022094605	-0.9538819484	-1.9029735159	 0.098438
H	 0.8855617551	-2.97891358	 1.308992082	 0.122971
H	 1.9937630135	-2.3719808941	 0.0357136259	 0.100861
H	 0.9801038644	-0.3909018212	 2.0152498191	 0.096894
H	-2.2654194585	-4.9341930733	-1.3860350984	 0.186094
129.4439	146.6912	193.8865	264.5928	301.0092	386.457	444.1554	488.7998	520.8653	550.6082	617.3353	622.7545	659.1463	739.5929	756.8972	821.1999	865.401	895.9122	939.319	996.9836	1008.2588	1025.0327	1033.5191	1069.4914	1103.4561	1142.5466	1171.3742	1194.0766	1242.4987	1262.1765	1306.0048	1326.0839	1402.9436	1430.3473	1483.6026	1488.8459	1493.4924	1508.3874	2235.6406	3030.5479	3042.765	3049.115	3095.1983	3108.7932	3110.2436	3117.2043	3180.1043	3502.5841
CC12CC3(CC1N23)C#C	C[C@@]12C[C@]3(C[C@@H]1N23)C#C	
InChI=1S/C8H9N/c1-3-8-4-6-7(2,5-8)9(6)8/h1,6H,4-5H2,2H3	InChI=1S/C8H9N/c1-3-8-4-6-7(2,5-8)9(6)8/h1,6H,4-5H2,2H3/t6-,7+,8+,9?/m0/s1
