20
gdb 122504	3.11533	0.71436	0.62793	3.9983	77.64	-0.2498	0.0031	0.2529	1771.9702	0.169319	-440.27159	-440.261517	-440.260572	-440.307958	35.092	
O	-0.1860390023	 1.263303358	 0.4260692859	-0.419748
C	-0.0842134618	-0.1366157304	 0.2242902607	-0.074098
C	-1.4981612085	-0.6951955577	 0.1289881783	-0.171104
C	-1.5225943824	-2.2102243563	-0.1080024307	-0.221351
C	-2.9199001087	-2.7701689675	-0.2665819606	-0.005662
C	-3.2095726553	-4.2138525168	 0.0389794284	-0.255096
N	-3.7143972681	-3.1630739437	 0.889776836	-0.060273
C	-3.3925225193	-3.0188803411	 2.2255901523	 0.132822
O	-3.2522990548	-3.9301460504	 3.0056343921	-0.291738
H	 0.701893883	 1.6224199542	 0.5105136806	 0.287894
H	 0.4699074496	-0.3692028833	-0.7005056316	 0.085356
H	 0.4528602269	-0.6235744224	 1.0549283338	 0.089232
H	-2.0338681559	-0.4434074932	 1.0515750292	 0.114921
H	-2.0210906467	-0.1788189669	-0.6851936138	 0.11149
H	-0.959715177	-2.4456064429	-1.0214757372	 0.110125
H	-1.0158953041	-2.7331182952	 0.7134566575	 0.112759
H	-3.5076969153	-2.3020006027	-1.0560762844	 0.103349
H	-3.9493896938	-4.754982729	-0.5442698922	 0.127938
H	-2.4016820928	-4.8211738956	 0.4404146157	 0.135573
H	-3.3527276724	-1.954417207	 2.52584093	 0.087612
50.8949	67.4602	109.8183	120.9646	143.1314	222.0495	253.4362	261.8591	327.2484	353.4002	482.2308	503.0093	618.6967	761.4134	801.5106	867.7403	886.0747	955.4688	1005.9191	1038.1313	1047.8841	1054.0051	1080.1285	1105.9365	1121.5282	1138.1679	1159.4824	1189.0118	1223.8061	1235.5814	1298.4888	1308.4509	1318.1414	1371.8605	1382.8215	1418.5915	1436.7355	1465.2471	1476.7168	1497.5046	1512.7874	1528.2646	1794.4683	2952.6057	2956.614	2982.5738	3014.4908	3036.5889	3050.1055	3082.71	3109.2687	3112.3711	3197.6113	3831.3298
OCCCC1CN1C=O	OCCC[C@H]1CN1C=O	
InChI=1S/C6H11NO2/c8-3-1-2-6-4-7(6)5-9/h5-6,8H,1-4H2	InChI=1S/C6H11NO2/c8-3-1-2-6-4-7(6)5-9/h5-6,8H,1-4H2/t6-,7?/m0/s1
