20
gdb 113210	3.2781	0.99428	0.86264	3.073	75.33	-0.2458	0.0802	0.3261	1383.2313	0.169927	-440.232057	-440.222503	-440.221559	-440.266885	35.002	
C	-0.0042028821	 1.8188895133	 0.080047622	-0.459997
C	-0.1177805753	 0.3086875425	 0.1191703438	 0.265193
N	 1.1181443978	-0.4629528968	-0.0824712355	-0.392844
C	 0.4239066904	-0.5310130756	 1.2258510452	-0.063145
C	 1.2286813949	-0.0256133642	 2.4010267073	-0.074519
O	 2.3335927668	-0.8777188963	 2.6531461259	-0.41991
C	-1.3625411369	-0.2087271305	-0.5572781658	 0.009674
C	-1.3770941739	-0.5688355353	-1.9814103341	-0.182458
O	-1.3516977021	-1.5770036292	-0.9602525804	-0.237863
H	 0.9409683351	 2.1571713873	 0.5057343283	 0.137421
H	-0.0496233583	 2.1748626404	-0.9550703074	 0.12162
H	-0.8237623061	 2.290501695	 0.6339632579	 0.119527
H	 0.8891785055	-1.3073756027	-0.6057871722	 0.241762
H	-0.116363548	-1.4557163679	 1.4219030046	 0.101966
H	 1.5586261719	 1.0086268686	 2.2311105429	 0.08611
H	 0.6179239234	-0.0334846968	 3.31020644	 0.107404
H	 2.8088782026	-0.9423358396	 1.8158601786	 0.290243
H	-2.3014627975	 0.1184358192	-0.1072766762	 0.101222
H	-2.303303081	-0.5102355744	-2.5495058084	 0.124211
H	-0.4619022973	-0.4791288969	-2.5641078164	 0.124382
58.0079	93.1221	138.2391	161.3635	184.9976	263.7349	280.1689	343.1528	372.3396	440.3892	467.5473	531.1254	623.0695	686.2698	820.9514	851.4113	883.5553	900.0093	954.2963	1006.6652	1012.5839	1027.5286	1053.7719	1088.9645	1103.687	1124.1984	1144.789	1164.5999	1175.6614	1200.3566	1279.8018	1280.3361	1292.4228	1341.3468	1370.9539	1417.7786	1421.3289	1433.0425	1464.869	1491.5555	1497.1037	1507.3549	1525.8178	3006.6145	3035.4373	3072.022	3091.0229	3092.9082	3098.3322	3127.4956	3142.9279	3182.5172	3473.437	3786.1843
CC1(NC1CO)C1CO1	C[C@]1(N[C@H]1CO)[C@H]1CO1	
InChI=1S/C6H11NO2/c1-6(5-3-9-5)4(2-8)7-6/h4-5,7-8H,2-3H2,1H3	InChI=1S/C6H11NO2/c1-6(5-3-9-5)4(2-8)7-6/h4-5,7-8H,2-3H2,1H3/t4-,5+,6+/m0/s1
