22
gdb 107941	3.70719	1.18858	1.07788	1.5658	85.97	-0.2346	0.0769	0.3115	1245.2931	0.194199	-367.176346	-367.167523	-367.166579	-367.209492	34.484	
C	-0.0746842856	 1.5094277829	 0.1008171606	-0.386965
C	 0.044591656	-0.0180317909	 0.0220132486	-0.292329
C	 0.721309888	-0.4830338206	-1.2381180187	 0.363308
C	 0.0494891602	-0.3719948405	-2.6282032325	-0.285458
C	 0.8258792008	-1.6368374971	-2.9313165306	-0.083373
N	 0.9342623937	-2.0214812189	-1.4774720705	-0.235027
C	 2.154003683	-1.5766321797	-2.2418473952	 0.34539
C	 3.2823307917	-2.5107404622	-2.5533716204	-0.498996
C	 2.2268948679	-0.250918474	-1.5021837068	-0.336091
H	 0.9104484649	 1.9871526265	 0.0757522098	 0.120673
H	-0.6584270539	 1.9068444399	-0.7362681393	 0.120474
H	-0.5697670065	 1.8156794953	 1.0267924411	 0.116903
H	 0.6078267681	-0.3958787899	 0.8844472401	 0.103108
H	-0.9505046303	-0.4764839996	 0.0785492832	 0.103575
H	-1.024059146	-0.573905501	-2.5656723558	 0.104855
H	 0.2241644222	 0.5280107141	-3.2277673003	 0.092463
H	 0.6133111823	-2.3844579327	-3.6883204734	 0.087501
H	 2.9008464051	-3.4815180024	-2.8847920012	 0.127951
H	 3.9183206256	-2.1059565256	-3.349098629	 0.119243
H	 3.9082952394	-2.67884908	-1.6705589341	 0.122369
H	 2.5360359734	 0.6532717926	-2.0384029495	 0.090169
H	 2.8115760101	-0.3528590062	-0.5821109363	 0.100257
81.9432	146.7146	184.0261	203.3952	246.7277	290.6254	341.2114	368.5713	437.1519	468.1609	593.3827	643.2672	737.22	764.5773	795.0267	820.853	868.8321	892.388	934.6572	970.9711	993.1165	1009.8242	1012.3009	1028.0698	1042.1351	1072.301	1094.4762	1126.7084	1150.3728	1190.1365	1215.5184	1244.3674	1259.4553	1297.0368	1322.4369	1335.8409	1375.3186	1402.8257	1411.0323	1429.9306	1483.1545	1486.1228	1487.8538	1493.8224	1500.6299	1509.0368	1510.1243	3024.9788	3027.3232	3030.2334	3034.8206	3037.5284	3058.1946	3085.7692	3091.7248	3092.733	3102.5059	3106.2702	3109.209	3168.4944
CCC12CC3N1C3(C)C2	CC[C@]12C[C@@H]3N1[C@]3(C)C2	
InChI=1S/C8H13N/c1-3-8-4-6-7(2,5-8)9(6)8/h6H,3-5H2,1-2H3	InChI=1S/C8H13N/c1-3-8-4-6-7(2,5-8)9(6)8/h6H,3-5H2,1-2H3/t6-,7+,8+,9?/m0/s1
