17
gdb 11419	3.77517	1.50509	1.21432	5.1054	64.22	-0.2591	0.0517	0.3107	1015.7408	0.143574	-401.058747	-401.050956	-401.050012	-401.091302	28.386	
C	 0.0460460619	 1.5497944635	 0.064464137	-0.39549
C	-0.0102706416	 0.020237514	 0.040261372	-0.180554
C	-1.4337953298	-0.5437633445	-0.0814217612	 0.011953
C	-1.4920195287	-2.086612077	-0.0003017843	-0.096409
O	-1.8183194906	-2.38315896	 1.3622201545	-0.238069
C	-2.346461315	-1.2686108008	 1.9579285874	 0.473821
O	-2.7736827006	-1.2529954065	 3.0779191322	-0.391603
N	-2.2988483789	-0.2350961092	 1.0467721066	-0.363948
H	 1.0799026729	 1.9027247893	 0.1135978606	 0.127572
H	-0.4106316178	 1.9790658495	-0.8344276694	 0.120495
H	-0.4757462226	 1.9615405681	 0.9351725988	 0.117667
H	 0.5713894064	-0.3535271761	-0.8121360062	 0.103858
H	 0.455809493	-0.390274396	 0.9448163351	 0.116295
H	-1.8841131131	-0.1919629333	-1.0171380243	 0.091005
H	-2.2727311631	-2.4969109091	-0.6501234449	 0.119638
H	-0.5379806886	-2.5613813829	-0.2406948454	 0.123807
H	-2.4138723339	 0.7000771712	 1.4008440916	 0.259961
75.7711	118.4635	161.9487	233.7883	240.3737	375.8402	449.3142	486.3112	526.2186	709.2367	741.008	769.528	811.4535	832.0366	926.8844	976.0047	991.1077	1018.3832	1064.2098	1087.5112	1142.2508	1163.8645	1217.2771	1240.2529	1293.7864	1295.6675	1351.1998	1394.6417	1411.2534	1422.4719	1424.4176	1480.8374	1499.8573	1506.7612	1518.8083	1892.9591	3021.6049	3028.2453	3032.9117	3045.9771	3063.4668	3098.3577	3107.1271	3110.5894	3661.8586
CCC1COC(=O)N1	CC[C@H]1COC(=O)N1	
InChI=1S/C5H9NO2/c1-2-4-3-8-5(7)6-4/h4H,2-3H2,1H3,(H,6,7)	InChI=1S/C5H9NO2/c1-2-4-3-8-5(7)6-4/h4H,2-3H2,1H3,(H,6,7)/t4-/m0/s1
