19
gdb 31074	2.40801	1.3397	0.87496	1.507	82.01	-0.1842	0.0277	0.2119	1345.8869	0.157267	-423.058243	-423.0484	-423.047456	-423.093535	34.655	
C	 0.0619393891	 1.4217933086	-0.1313005838	-0.24488
O	 0.0373862458	 0.0110993268	-0.0493151495	-0.268718
C	-1.1936784601	-0.5654198721	-0.0029436408	 0.256735
C	-1.3891833499	-1.912960213	 0.0771741249	 0.228907
C	-0.4597881556	-3.0670182053	 0.1343241302	-0.500475
O	-2.7399659571	-2.1585590375	 0.1056403953	-0.214806
C	-3.3908430645	-0.9672020781	 0.0434810537	 0.373311
C	-4.8766325911	-1.0092326517	 0.0615261823	-0.490747
C	-2.4905667753	 0.0527909531	-0.0250945613	-0.422869
H	 1.1136860729	 1.7127829833	-0.1592461783	 0.131447
H	-0.4346217642	 1.7839001005	-1.0417250061	 0.119124
H	-0.4158249767	 1.887199494	 0.7414566017	 0.119124
H	-0.5840681607	-3.6505852287	 1.0547684852	 0.129566
H	-0.6025528118	-3.7528816548	-0.7097272608	 0.129565
H	 0.5673458712	-2.6962489151	 0.1020680014	 0.14321
H	-5.2744833085	-1.5804029567	-0.7854191442	 0.136195
H	-5.2559692596	-1.4783852078	 0.9768583848	 0.136195
H	-5.2779165453	 0.0052601711	 0.0070100138	 0.1315
H	-2.7244818487	 1.1033156335	-0.0835189684	 0.107616
48.6756	109.887	121.946	167.5135	185.9021	198.6367	240.4725	243.0944	354.1839	363.8644	530.9779	578.8519	629.719	630.8693	677.5375	773.1205	798.7697	943.366	1015.6522	1031.7283	1058.7011	1066.951	1073.6918	1162.4877	1179.3433	1182.4395	1221.6401	1254.5434	1320.9227	1405.1076	1415.0401	1436.6472	1471.4872	1475.532	1487.0122	1487.6757	1494.2365	1497.9469	1508.4407	1611.4442	1696.0012	2996.7321	3018.9478	3026.7649	3052.3209	3063.5917	3075.2216	3126.9301	3127.6807	3128.6529	3263.138
COC1=C(C)OC(C)=C1	COc1c(C)oc(C)c1	
InChI=1S/C7H10O2/c1-5-4-7(8-3)6(2)9-5/h4H,1-3H3	InChI=1S/C7H10O2/c1-5-4-7(8-3)6(2)9-5/h4H,1-3H3
