25
gdb 76198	2.09543	1.38158	1.15862	0.0542	93.57	-0.2411	0.0831	0.3242	1283.1444	0.227398	-352.345422	-352.334962	-352.334018	-352.380347	39.629	
C	-0.0819580648	 0.8514513188	-2.0090965004	-0.41733
C	 0.0455777342	-0.2919834786	-1.0259592832	-0.114737
C	 1.3411468199	-0.6657578171	-0.3212932666	 0.251257
C	 1.6291204667	-2.1454604044	-0.13942593	-0.451905
C	 2.5912029346	 0.1712445511	-0.5237451219	-0.456456
C	 0.1932836356	-0.073225466	 0.4617660341	 0.327774
C	 0.1277721469	 1.2810107946	 1.1897221627	-0.297797
C	-0.9775403305	 0.6851001517	 2.1099024441	-0.208635
C	-0.6630565746	-0.7347297736	 1.5545755271	-0.296639
H	 0.5044038168	 1.7248020033	-1.7122360837	 0.11659
H	 0.2539445544	 0.5545188052	-3.0091662874	 0.114692
H	-1.1256633555	 1.1754705165	-2.0955626579	 0.113298
H	-0.5740248575	-1.1491801724	-1.2884745731	 0.071481
H	 2.138482936	-2.558099784	-1.0188768204	 0.110049
H	 2.2786057779	-2.3200685604	 0.7275038661	 0.108524
H	 0.7116879553	-2.7216222672	 0.0134109691	 0.113215
H	 2.3757568936	 1.2395261155	-0.5996599412	 0.116014
H	 3.2831432182	 0.0374384427	 0.3167531411	 0.110592
H	 3.1243061911	-0.1267575932	-1.4347965404	 0.111076
H	 1.048995971	 1.5217036277	 1.7307621809	 0.096588
H	-0.1549594137	 2.1547747082	 0.5955728582	 0.095713
H	-0.8481710093	 0.8293421649	 3.1848710617	 0.095106
H	-1.977648235	 1.0283971507	 1.8341374599	 0.101559
H	-1.5185765941	-1.3288782715	 1.2199286572	 0.093503
H	-0.0760455772	-1.3425333027	 2.2515039239	 0.096466
65.9308	144.479	154.5669	176.3711	190.3079	200.1962	217.2325	264.7302	267.2771	359.7473	419.3521	482.9769	501.6864	559.8516	679.205	718.9582	776.1041	801.3087	858.1662	942.2706	944.1476	951.8512	971.7503	978.5681	1009.0628	1039.4043	1062.1274	1088.6678	1115.2161	1132.3337	1161.4468	1176.3572	1197.0703	1212.2006	1246.8029	1253.222	1264.0376	1279.9664	1289.1926	1347.6579	1409.4226	1415.6862	1428.0832	1456.6402	1477.1156	1480.4385	1481.6533	1489.6734	1493.2708	1499.3989	1506.2043	1506.6037	1520.8309	3015.415	3021.47	3028.1148	3037.0633	3041.6181	3063.4816	3070.2909	3073.6553	3080.8464	3081.1863	3085.8789	3096.5948	3101.3763	3112.7144	3117.7815	3122.0441
CC1C(C)(C)C11CCC1	C[C@H]1C(C)(C)C21CCC2	
InChI=1S/C9H16/c1-7-8(2,3)9(7)5-4-6-9/h7H,4-6H2,1-3H3	InChI=1S/C9H16/c1-7-8(2,3)9(7)5-4-6-9/h7H,4-6H2,1-3H3/t7-/m0/s1
