20
gdb 82037	2.34658	1.50786	1.31449	2.9356	79.54	-0.2155	-0.0155	0.1999	1095.5147	0.168679	-403.109632	-403.100423	-403.099479	-403.143288	34.631	
C	-0.5688180398	 1.3804497925	 0.3160229765	-0.330833
N	-0.0508244191	 0.0296795172	 0.1882220496	-0.133429
C	 0.3530555739	-0.4554455202	-1.1274139123	 0.006113
C	 1.6155202692	 0.1867769783	-1.6416608499	-0.324066
C	 1.7063615849	-0.9025778381	-0.603834657	-0.109933
C	 1.2787937672	-0.3784350385	 0.7699155091	 0.218426
C	 2.1385064558	 0.6717230434	 1.4678791397	-0.466466
C	 0.9497222276	-1.5017094949	 1.7427471981	 0.150605
O	 1.3764156993	-2.6251218518	 1.6758751818	-0.261171
H	 0.0785626035	 2.1636519755	-0.1114944001	 0.099074
H	-1.5361816037	 1.4315248997	-0.1946314051	 0.127692
H	-0.7405135492	 1.6165786724	 1.3705735089	 0.122117
H	-0.3550426134	-0.9732281096	-1.7650938492	 0.097813
H	 1.9114836243	-0.1172181433	-2.6411839694	 0.117799
H	 1.8583027728	 1.2187074925	-1.4048601711	 0.107372
H	 2.215219451	-1.843359257	-0.7559644953	 0.114989
H	 2.3662912444	 1.5126225011	 0.8091147004	 0.128164
H	 1.642689189	 1.0644331638	 2.3624360659	 0.12359
H	 3.0855025309	 0.2197240716	 1.7801674191	 0.138199
H	 0.2328949813	-1.1925065545	 2.5375865103	 0.073946
73.7505	140.1137	189.9466	215.8195	220.7317	242.9135	262.6753	314.1491	369.2146	439.8246	526.6662	606.2916	615.3098	741.3884	803.3375	807.7576	880.8145	926.5093	952.1846	953.7649	997.8152	1008.5285	1048.7738	1073.0004	1087.3639	1124.7928	1146.9713	1162.0292	1201.9142	1209.6798	1239.8804	1257.6296	1311.9805	1346.6973	1401.8894	1413.1995	1449.3453	1479.3401	1482.0145	1489.3879	1501.7955	1507.376	1828.033	2872.5951	2965.2181	3037.8261	3064.1295	3100.4386	3105.4068	3119.9116	3127.0803	3167.771	3202.1488	3226.4174
CN1C2CC2C1(C)C=O	CN1[C@H]2C[C@H]2[C@]1(C)C=O	
InChI=1S/C7H11NO/c1-7(4-9)5-3-6(5)8(7)2/h4-6H,3H2,1-2H3	InChI=1S/C7H11NO/c1-7(4-9)5-3-6(5)8(7)2/h4-6H,3H2,1-2H3/t5-,6+,7+/m1/s1
