25
gdb 121958	5.27101	0.52517	0.50253	0.781	96.35	-0.2578	0.0558	0.3136	2275.6824	0.225882	-352.340042	-352.328362	-352.327417	-352.3777	42.133	
C	-0.1524056129	 1.5575221237	 0.1200826312	-0.381005
C	-0.0793389118	 0.0326313213	 0.0049487056	-0.160957
C	 0.7533150045	-0.4430412185	-1.1914247354	-0.178336
C	 0.8252785906	-1.9705010404	-1.302265813	-0.178161
C	 1.5628626877	-2.4994403124	-2.5452612084	 0.026752
C	 3.0448127024	-2.1066227359	-2.5703901736	-0.391411
C	 1.3971991437	-4.0388924176	-2.6263470358	-0.363386
C	 1.9163177031	-4.6273597527	-3.8550962921	 0.301081
C	 2.3404046628	-5.0936431083	-4.8791946675	-0.443782
H	 0.8456287174	 1.994356395	 0.2378208776	 0.113291
H	-0.6018044868	 2.0010052632	-0.7755089382	 0.113381
H	-0.7536483291	 1.8658100331	 0.9811660167	 0.110801
H	 0.3436905565	-0.3850696763	 0.9283317125	 0.09406
H	-1.0945085093	-0.3785543922	-0.0745838518	 0.093659
H	 0.3252996171	-0.0314905922	-2.1165654765	 0.091839
H	 1.7634113622	-0.0224495726	-1.1109781069	 0.097598
H	 1.3046145079	-2.3786383146	-0.4002089646	 0.090229
H	-0.1989498192	-2.3687334888	-1.3055825159	 0.088181
H	 1.0787536918	-2.0758769771	-3.4357638447	 0.082318
H	 3.5456703443	-2.5411228343	-3.4397944742	 0.129436
H	 3.1742335293	-1.022000592	-2.6156207804	 0.115466
H	 3.5583707293	-2.4679721474	-1.6706165366	 0.108189
H	 1.8970723914	-4.498772243	-1.7623105012	 0.124787
H	 0.3333670974	-4.2917653674	-2.5307411962	 0.124441
H	 2.7130831598	-5.5162351025	-5.7789598804	 0.191529
46.1353	64.6754	87.9177	104.0275	135.5	170.2184	240.267	248.9091	267.3834	298.8438	351.6232	376.3814	408.5767	463.1416	560.0611	611.9743	633.8445	735.2331	785.0538	840.5241	885.5317	906.1974	916.6104	923.8727	981.6371	1023.0022	1036.0264	1069.3205	1078.8882	1128.7779	1143.4095	1183.4689	1230.3969	1261.2104	1271.6868	1308.1454	1318.8923	1333.2509	1355.5701	1376.7789	1380.7156	1399.2879	1411.9685	1415.0923	1467.0422	1481.075	1485.8128	1498.4309	1499.0239	1499.5105	1506.6626	1512.9752	2235.0066	2994.5713	3005.6292	3006.7519	3014.1648	3017.0048	3027.4165	3029.0874	3029.9663	3037.2864	3047.4018	3063.9647	3095.2525	3099.7453	3100.7855	3119.2147	3506.9061
CCCCC(C)CC#C	CCCC[C@@H](C)CC#C	
InChI=1S/C9H16/c1-4-6-8-9(3)7-5-2/h2,9H,4,6-8H2,1,3H3	InChI=1S/C9H16/c1-4-6-8-9(3)7-5-2/h2,9H,4,6-8H2,1,3H3/t9-/m0/s1
