18
gdb 49974	3.73758	1.16622	1.03671	3.3822	78.82	-0.2456	-0.0204	0.2252	1174.3492	0.147496	-401.856068	-401.848424	-401.84748	-401.88848	29.645	
O	-0.07179894	 0.0110126082	-0.4151881907	-0.268123
C	 0.0154899549	 1.1531147546	-0.0367429294	 0.170078
C	 1.2713981751	 1.9292165298	 0.040822244	-0.230558
C	 1.1907216888	 3.4618051579	-0.1737733446	-0.418328
C	 1.4549066045	 2.9165130665	 1.1619829928	 0.446538
C	 0.8712700868	 3.0808076992	 2.5676818916	-0.154527
C	 2.0212238671	 2.1298300698	 2.9757116743	-0.168857
N	 2.7290985674	 3.0676022794	 1.9702064636	-0.18263
C	 1.9435884571	 4.1886751236	 2.6919010332	-0.168229
H	-0.8881467856	 1.719669061	 0.2948856124	 0.061904
H	 2.157651933	 1.4224356136	-0.3266902156	 0.120543
H	 2.0104064898	 3.9038536845	-0.7295307979	 0.141765
H	 0.2104840793	 3.8768322756	-0.3910932522	 0.128422
H	-0.1754340415	 3.087236944	 2.8864497571	 0.079318
H	 2.416466661	 2.2156750284	 3.9906872001	 0.106601
H	 1.9760170238	 1.0911387939	 2.6425451727	 0.118029
H	 1.8260834117	 5.093013158	 2.0912530594	 0.110689
H	 2.3344575967	 4.4087792119	 3.6883827892	 0.107365
80.9798	131.2844	196.4358	255.229	354.9776	357.7391	455.4337	517.4628	626.4712	660.5639	759.2471	779.4863	830.3797	857.7873	897.0519	913.2804	937.2229	981.6615	1014.5148	1037.4322	1044.8051	1071.924	1075.404	1092.1362	1114.5701	1141.0278	1164.5922	1171.4272	1196.6592	1221.0772	1223.9466	1262.7875	1303.448	1403.1779	1442.3212	1487.8493	1506.1118	1545.5727	1818.0331	2837.0701	3053.9201	3061.2887	3071.4048	3124.4798	3132.7416	3136.8838	3177.2367	3216.8917
O=CC1CC11C2CN1C2	O=C[C@H]1C[C@]21[C@H]1CN2C1	
InChI=1S/C7H9NO/c9-4-5-1-7(5)6-2-8(7)3-6/h4-6H,1-3H2	InChI=1S/C7H9NO/c9-4-5-1-7(5)6-2-8(7)3-6/h4-6H,1-3H2/t5-,7+/m1/s1
