22
gdb 106416	2.82166	1.3141	1.14081	1.9453	86.78	-0.2263	0.0816	0.3079	1210.3466	0.194217	-367.122225	-367.11355	-367.112606	-367.155447	34.219	
C	-0.061079485	 1.5654768622	 0.0360411327	-0.381043
C	 0.0461679733	 0.0362157077	-0.0009102535	-0.319177
C	 0.742638176	-0.4850344133	-1.2349146824	 0.228968
C	 0.3623177338	-0.3377027379	-2.7349858454	-0.207275
N	 1.6412277909	-1.1945365404	-2.8230663135	-0.187624
C	 2.1878289776	-0.2326657472	-1.7490228014	-0.207276
C	 1.0446295512	-1.9348987621	-1.6395642675	 0.414013
C	 1.6235650772	-3.1243028287	-0.9688735002	-0.379731
C	 0.2757712977	-3.2018836494	-1.6968424817	-0.379733
H	 0.9293046399	 2.0322210903	 0.0153280491	 0.119996
H	-0.623830537	 1.9435817787	-0.823895008	 0.119992
H	-0.5704942007	 1.9035814422	 0.9430877758	 0.114751
H	 0.5863944367	-0.3189049975	 0.8867909762	 0.100879
H	-0.9571476795	-0.4069965384	 0.0528352766	 0.100882
H	-0.5322241571	-0.8551162724	-3.0904142409	 0.100696
H	 0.4735848471	 0.6457839786	-3.2005032356	 0.094453
H	 2.4281524938	 0.7582493164	-2.1448289947	 0.094453
H	 3.0172505348	-0.6508862052	-1.1733467208	 0.100696
H	 2.4703222598	-3.6124738778	-1.4405943623	 0.123814
H	 1.6194749624	-3.1743127134	 0.1156329807	 0.112225
H	-0.6221884665	-3.303362065	-1.0951455378	 0.112226
H	 0.2517404435	-3.7401666276	-2.6389169756	 0.123813
69.4814	132.1312	193.8642	237.7637	245.121	250.0352	341.0544	426.6493	506.7626	595.5285	621.0129	671.4387	755.4264	767.7604	783.6961	810.2504	888.1038	898.5556	938.0602	951.0957	961.266	992.0965	992.2831	1034.8382	1043.7502	1070.3083	1078.2999	1103.804	1139.7758	1168.1734	1175.5231	1182.5819	1187.6163	1193.7366	1260.2069	1298.9656	1304.2679	1357.2309	1408.4673	1414.9338	1451.1119	1479.783	1500.0218	1501.5066	1504.3461	1508.6765	1546.8912	3012.617	3035.4095	3044.7518	3046.7319	3052.6736	3103.11	3108.5607	3117.5732	3120.6586	3122.3601	3124.9143	3202.1671	3215.6063
CCC12CN(C1)C21CC1	CC[C@@]12CN(C1)C12CC1	
InChI=1S/C8H13N/c1-2-7-5-9(6-7)8(7)3-4-8/h2-6H2,1H3	InChI=1S/C8H13N/c1-2-7-5-9(6-7)8(7)3-4-8/h2-6H2,1H3
