18
gdb 92402	2.15725	1.65269	1.28218	5.5247	76.09	-0.2351	0.0069	0.242	1065.0207	0.149073	-398.086896	-398.078489	-398.077545	-398.120129	31.628	
N	 0.2853402018	 1.199609455	-0.8084277972	-0.512617
C	 0.0991081364	-0.0520661845	-0.1178322213	-0.043832
C	 0.206775862	-0.1676942758	 1.4338146243	-0.203269
N	-1.1326295478	-0.8297852169	 1.5361111203	-0.155661
C	-2.2245674346	 0.1430009451	 1.8711353286	-0.166074
C	-2.4612624601	 0.4859419083	 0.377046094	-0.31147
C	-1.3703258464	-0.5679957865	 0.0510405274	 0.230683
C	-1.7671496404	-1.6786055935	-0.7961882052	 0.227799
N	-2.0698781892	-2.5531000665	-1.4900681464	-0.343828
H	 0.1337970185	 1.995347336	-0.1989618922	 0.231676
H	 1.2211071711	 1.2807650571	-1.1863677777	 0.242719
H	 0.6951025174	-0.8164921553	-0.6202944022	 0.110532
H	 1.0185656907	-0.7951796922	 1.8122318098	 0.116854
H	 0.2524778827	 0.8030304838	 1.944536999	 0.094579
H	-3.066572806	-0.3611627347	 2.3527626841	 0.122212
H	-1.8979911545	 0.9648913813	 2.516319106	 0.106036
H	-3.4519886425	 0.2446828311	-0.0086214219	 0.13376
H	-2.2006623091	 1.4962195083	 0.0556004905	 0.119901
69.9764	134.4113	151.707	177.6539	235.9881	359.1922	387.0712	468.9678	539.0824	555.9805	594.6633	653.1652	754.5406	771.9949	807.4733	853.9421	896.0442	931.5468	957.7403	998.4926	1010.1843	1043.3479	1106.2257	1153.8372	1165.8482	1187.7111	1199.4267	1226.3772	1250.2343	1265.8398	1287.1797	1295.7232	1317.2853	1430.6762	1490.2796	1493.2574	1515.3042	1666.5598	2345.5473	3015.4126	3046.4368	3079.4631	3082.9884	3094.5526	3097.5785	3140.6871	3522.2853	3605.41
NC1CN2CCC12C#N	N[C@H]1CN2CC[C@@]12C#N	
InChI=1S/C6H9N3/c7-4-6-1-2-9(6)3-5(6)8/h5H,1-3,8H2	InChI=1S/C6H9N3/c7-4-6-1-2-9(6)3-5(6)8/h5H,1-3,8H2/t5-,6+/m0/s1
