17
gdb 74381	2.98843	1.21796	0.92353	4.0715	71.77	-0.233	-0.0219	0.2111	1229.6914	0.136218	-455.158749	-455.150294	-455.14935	-455.192224	31.363	
N	 0.073455659	 1.431563115	-0.2117038164	-0.539561
C	-0.0267415458	 0.0582697383	-0.1442058856	 0.332481
N	-1.1715012653	-0.5050659501	-0.1532414571	-0.312925
C	-1.2277930843	-1.9422880854	 0.0730228067	-0.065169
C	 0.0574182771	-2.5375229064	 0.6479429092	-0.101168
O	 1.1707074244	-2.058960124	-0.0942280311	-0.243462
C	 1.3001859692	-0.665346529	 0.0252997457	-0.153869
C	-2.4392067979	-2.2426904779	 0.9456219227	 0.155071
O	-2.4917612614	-3.1452541228	 1.7415266903	-0.25305
H	 0.8938495793	 1.8146112107	-0.6561916885	 0.252256
H	-0.7890372906	 1.8966361044	-0.4581781392	 0.257093
H	-1.4436290604	-2.431149602	-0.8939996056	 0.110885
H	 0.1551943753	-2.2705841652	 1.7115515242	 0.102831
H	 0.0660316895	-3.6253450673	 0.5692450561	 0.128188
H	 2.0062392088	-0.3427010384	-0.7490775343	 0.119912
H	 1.7304166606	-0.3819923121	 1.0020425489	 0.118821
H	-3.2888499074	-1.5450684478	 0.7797747642	 0.091664
60.9491	116.8222	179.7773	206.684	291.3827	356.697	389.2661	426.7689	474.5298	490.3188	529.8102	566.7701	628.9826	711.515	828.6509	865.7213	924.0745	984.4605	1023.129	1046.4551	1088.8237	1133.0796	1161.0907	1211.063	1241.6198	1283.2873	1297.7227	1317.8244	1336.6285	1383.0996	1403.2065	1434.7259	1480.4433	1492.5686	1630.1555	1740.9257	1828.2271	2902.5796	2949.0301	2956.8566	2995.2234	3056.0241	3124.2028	3563.3952	3678.011
NC1=NC(COC1)C=O	NC1=N[C@@H](COC1)C=O	
InChI=1S/C5H8N2O2/c6-5-3-9-2-4(1-8)7-5/h1,4H,2-3H2,(H2,6,7)	InChI=1S/C5H8N2O2/c6-5-3-9-2-4(1-8)7-5/h1,4H,2-3H2,(H2,6,7)/t4-/m1/s1
