19
gdb 108883	3.23425	0.96198	0.88094	2.1408	84.37	-0.2401	0.0126	0.2527	1410.2985	0.157626	-385.859751	-385.850391	-385.849447	-385.894608	34.154	
C	 0.1954669741	 1.4569901862	 0.324066096	-0.376437
C	 0.0135733894	 0.0103868478	-0.1704860211	-0.292682
C	-1.3968561976	-0.4855653546	-0.0636035135	 0.310348
C	-2.2208681299	-0.8541585714	-1.0395699824	-0.219183
C	-3.558334882	-1.2730265368	-0.4718559585	-0.081574
O	-3.3867389673	-1.1972923355	 0.9486720229	-0.265535
C	-2.1132209705	-0.6387685188	 1.2561553661	-0.157649
C	-4.6650797069	-0.4216834846	-0.9280310371	 0.338381
C	-5.5677001463	 0.2685648625	-1.3194618438	-0.477616
H	 1.2362486897	 1.7736797952	 0.2092528074	 0.118245
H	-0.4356657339	 2.1460990009	-0.2452283071	 0.127401
H	-0.0678513088	 1.5577605117	 1.3814260984	 0.123529
H	 0.3422077568	-0.0648623324	-1.2123608625	 0.109203
H	 0.6724983083	-0.6480951964	 0.4125839468	 0.109134
H	-2.0183237403	-0.8523398278	-2.1026200463	 0.110061
H	-3.800560841	-2.3162040108	-0.7295668415	 0.111419
H	-1.5793003446	-1.3137540741	 1.9426854215	 0.105889
H	-2.2361209176	 0.3234935838	 1.7777820897	 0.109024
H	-6.3679889117	 0.8788763752	-1.6584090348	 0.198042
51.5636	80.0931	114.3405	171.5371	215.64	230.5245	308.6831	350.8707	451.6661	521.6766	540.6386	611.5855	618.2092	665.6049	782.9872	791.8452	842.746	896.5107	902.5234	961.1781	981.1716	1011.7219	1030.8744	1068.4841	1096.6395	1105.7973	1202.6274	1208.8566	1263.4211	1286.4182	1329.5095	1350.2088	1355.7641	1388.1453	1411.5355	1481.82	1499.8129	1506.4954	1520.5178	1728.1538	2232.4215	2972.8041	2976.6498	2996.8638	3013.2405	3040.6823	3067.8981	3112.1469	3114.7144	3221.4902	3502.6756
CCC1=CC(OC1)C#C	CCC1=C[C@@H](OC1)C#C	
InChI=1S/C8H10O/c1-3-7-5-8(4-2)9-6-7/h2,5,8H,3,6H2,1H3	InChI=1S/C8H10O/c1-3-7-5-8(4-2)9-6-7/h2,5,8H,3,6H2,1H3/t8-/m0/s1
