17
gdb 20931	7.29825	1.08978	0.96107	3.6891	71.49	-0.197	0.0413	0.2383	1200.1967	0.144335	-360.058646	-360.050699	-360.049755	-360.091409	28.924	
C	 0.0324703631	 1.5555035024	-0.0021417366	-0.401834
C	-0.0280553509	 0.0329860355	-0.0532191067	-0.108572
N	 0.7576759757	-0.4753355983	-1.1735399227	-0.40786
C	 0.8080988443	-1.8525893747	-1.3436449363	 0.454864
C	 0.3739945087	-2.9055652106	-0.5550453569	-0.299329
C	 0.7865312104	-4.0617375626	-1.2576132933	-0.00417
N	 1.4172674033	-3.7767974552	-2.3869397133	-0.235587
N	 1.4205986441	-2.4160095097	-2.4185417785	-0.283519
H	 1.0665376787	 1.9012578838	 0.0835621353	 0.132097
H	-0.4021634416	 2.0000027662	-0.9052027027	 0.116022
H	-0.5329558541	 1.931872959	 0.8546038702	 0.125748
H	 0.3958844587	-0.3888000134	 0.8649960968	 0.122754
H	-1.0767181605	-0.3040567974	-0.1017691265	 0.09974
H	 0.5615053888	 0.023355118	-2.0329862417	 0.229946
H	-0.1683442166	-2.8465007492	 0.3731001328	 0.094117
H	 0.6352666392	-5.0949371215	-0.9788663456	 0.103351
H	 1.9061380386	-1.9446570124	-3.1619795543	 0.262231
71.4279	85.7469	146.7603	255.9013	289.3737	345.3986	403.6247	442.8981	577.7199	673.774	696.8611	752.9798	771.2342	823.3505	890.358	925.9156	934.7515	1037.5541	1060.3513	1090.2337	1110.6582	1151.6923	1167.7643	1254.3686	1282.3344	1300.9785	1373.8423	1386.4263	1414.0094	1440.6522	1472.0007	1494.596	1500.1066	1526.6695	1551.3668	1626.2571	2966.5544	3034.5506	3056.712	3103.7639	3124.5498	3237.8418	3278.2993	3546.0299	3677.2835
CCNC1=CC=NN1	CCNc1ccn[nH]1	
InChI=1S/C5H9N3/c1-2-6-5-3-4-7-8-5/h3-4H,2H2,1H3,(H2,6,7,8)	InChI=1S/C5H9N3/c1-2-6-5-3-4-7-8-5/h3-4H,2H2,1H3,(H2,6,7,8)
