18
gdb 80179	2.34521	1.67585	1.42713	3.2887	71.07	-0.2416	0.0132	0.2548	1000.7685	0.149074	-439.11243	-439.104281	-439.103337	-439.144945	31.512	
C	-0.0531039716	 1.5750519994	-0.0964271391	-0.420828
C	 0.0467570751	 0.0707949559	 0.0291314049	-0.023817
C	 1.3223848284	-0.7205129785	-0.1741939729	-0.047667
N	 2.5746704812	-0.0153024921	-0.0731969946	-0.297035
C	 2.7519250846	 0.584205213	 1.141271432	 0.35426
O	 3.5560595954	 1.4448549888	 1.4355159917	-0.392562
C	 1.6739882664	 0.0448584988	 2.1043219717	 0.028318
O	 1.1427341536	 1.1102337321	 2.8607734182	-0.434918
C	 0.6822005046	-0.6578072316	 1.2006732026	-0.087315
H	 0.8521274639	 2.0882161288	 0.2306910247	 0.139073
H	-0.2486762235	 1.8597239862	-1.1361619774	 0.112283
H	-0.874277614	 1.9523623895	 0.5195607263	 0.135202
H	-0.8310197448	-0.4536144685	-0.3428619749	 0.093694
H	 1.3361652973	-1.6277893733	-0.7669418103	 0.104165
H	 3.0457028848	 0.3637559791	-0.8818881653	 0.254892
H	 2.1468769927	-0.7011160864	 2.7650941058	 0.092209
H	 1.8823189191	 1.7216011467	 2.9938711979	 0.292387
H	 0.1669259769	-1.5246541579	 1.5946194886	 0.09766
99.1888	150.3584	173.7804	241.6634	276.3636	338.5781	433.9916	470.7308	534.2101	540.3886	596.1272	664.9977	711.4397	754.7	775.8645	793.7976	885.7875	905.9955	994.1632	1009.7439	1040.8003	1088.4716	1097.7588	1132.2114	1143.9561	1148.6986	1228.648	1241.9779	1271.9795	1337.6358	1370.7565	1378.0679	1401.0823	1424.2867	1432.7094	1449.3705	1490.0221	1504.6274	1821.0612	2959.9976	3042.2354	3104.8644	3126.243	3146.9396	3173.1391	3188.0295	3610.6211	3728.0084
CC1C2NC(=O)C(O)C12	C[C@H]1[C@H]2NC(=O)[C@@H](O)[C@@H]12	
InChI=1S/C6H9NO2/c1-2-3-4(2)7-6(9)5(3)8/h2-5,8H,1H3,(H,7,9)	InChI=1S/C6H9NO2/c1-2-3-4(2)7-6(9)5(3)8/h2-5,8H,1H3,(H,7,9)/t2-,3+,4-,5+/m1/s1
