21
gdb 95294	2.04616	1.9093	1.44025	2.0781	77.55	-0.2427	0.077	0.3197	1045.4999	0.182672	-424.228231	-424.219647	-424.218703	-424.260962	33.329	
C	 0.1600641248	 1.5761181654	 0.0133618	-0.410673
C	 0.1901433793	 0.0591152654	 0.0148840907	 0.098632
O	 1.0369660216	-0.3939049224	-1.043428809	-0.269108
C	 1.3662563536	-1.7457583621	-0.7590889063	-0.102092
C	 1.5894743516	-1.7960200961	 0.7505277061	-0.143756
C	 2.8044283092	-1.0050341422	 1.2694182808	-0.082288
O	 1.9726059929	 0.0753072844	 1.7386611367	-0.323468
C	 0.7619533941	-0.5922865816	 1.2931797686	 0.419832
C	-0.228262488	-0.7728808999	 2.4242738868	-0.467664
H	 1.1495026665	 1.9660803588	 0.2594171618	 0.141209
H	-0.1388479095	 1.9452215591	-0.9709719875	 0.122605
H	-0.5576962694	 1.946628522	 0.7518502812	 0.113216
H	-0.8272588239	-0.3438009782	-0.1401544436	 0.05543
H	 0.543241412	-2.420971586	-1.0480440342	 0.088005
H	 2.249909035	-2.007755623	-1.3487816467	 0.108802
H	 1.4204535801	-2.7761588175	 1.1970217416	 0.077404
H	 3.3594094779	-1.4736702895	 2.091141971	 0.098219
H	 3.5109719512	-0.674069988	 0.4984692236	 0.105436
H	-0.5948716798	 0.1991151535	 2.7719128533	 0.12987
H	-1.0893786534	-1.3662547964	 2.0998534464	 0.117159
H	 0.2433813642	-1.2756365758	 3.2727476087	 0.12323
105.7814	185.9132	210.4271	213.1502	243.1178	266.1151	301.0653	375.2757	412.1348	531.471	599.4961	627.4525	715.3222	811.4979	858.1852	878.0101	887.1165	903.3083	963.587	1009.3676	1024.0914	1029.6276	1066.2421	1112.4031	1120.8856	1133.1751	1162.4297	1173.6145	1181.4615	1223.7154	1240.2685	1276.9975	1324.7177	1346.9125	1361.3141	1375.8196	1396.6631	1405.911	1407.7567	1482.0972	1485.0223	1494.6177	1498.0682	1507.3071	1519.8689	2936.2624	2964.2885	3014.7005	3035.5603	3049.9955	3058.3592	3081.2508	3103.232	3111.5956	3116.8552	3118.9653	3144.0946
CC1OCC2COC12C	C[C@H]1OC[C@H]2CO[C@@]12C	
InChI=1S/C7H12O2/c1-5-7(2)6(3-8-5)4-9-7/h5-6H,3-4H2,1-2H3	InChI=1S/C7H12O2/c1-5-7(2)6(3-8-5)4-9-7/h5-6H,3-4H2,1-2H3/t5-,6+,7+/m1/s1
