19
gdb 84894	2.0211	1.77196	1.26608	4.3884	79.98	-0.2408	0.0078	0.2487	1084.1507	0.161106	-382.086972	-382.078453	-382.077509	-382.11996	32.451	
C	-0.0773352581	 1.5689917034	-0.0272124214	-0.414352
C	 0.0499048468	 0.0398581085	-0.0229101211	-0.03712
C	 0.7038407126	-0.4834156917	-1.2810215524	-0.049051
C	 1.5465429266	-1.5141379976	-1.2929868859	-0.058431
C	 1.9110400608	-2.2821361786	-0.0481519475	-0.23171
N	 1.1056091556	-1.9437468813	 1.1326148676	-0.294338
C	 0.8031285392	-0.511001945	 1.2222116924	-0.165324
C	 2.0557684305	 0.227413382	 1.4664532236	 0.320681
N	 3.0301052786	 0.8189361418	 1.6550457755	-0.338639
H	 0.9029987815	 2.0480898888	-0.101009497	 0.14958
H	-0.6809258494	 1.8964969171	-0.8794010588	 0.118745
H	-0.5638861744	 1.9286753569	 0.8855799331	 0.117861
H	-0.9676039041	-0.3748991775	 0.0467028643	 0.087013
H	 0.4655445564	 0.040684184	-2.203657022	 0.09099
H	 2.025262444	-1.8242091068	-2.2186948279	 0.094616
H	 1.8120750611	-3.3600985516	-0.2194411009	 0.115957
H	 2.9719348256	-2.1144697299	 0.1879839899	 0.141046
H	 0.221139574	-2.4393830978	 1.0882223298	 0.227231
H	 0.1768843327	-0.3591987746	 2.1096368188	 0.125245
88.0499	139.1526	157.6662	233.5477	283.7365	292.9042	338.7267	431.4249	453.5698	495.1919	618.3018	628.0842	703.0351	753.1245	764.662	871.027	885.1567	919.4611	965.8144	995.4672	1004.1806	1028.1555	1077.9881	1116.0644	1117.7604	1171.378	1210.2745	1244.8534	1274.5783	1321.0966	1335.0452	1364.345	1382.5844	1403.6055	1418.9485	1476.8352	1492.214	1495.084	1500.9002	1721.3905	2359.4614	2979.132	3008.4665	3036.1457	3040.8537	3058.6012	3103.365	3119.4529	3144.375	3167.9213	3524.0133
CC1C=CCNC1C#N	C[C@H]1C=CCN[C@H]1C#N	
InChI=1S/C7H10N2/c1-6-3-2-4-9-7(6)5-8/h2-3,6-7,9H,4H2,1H3	InChI=1S/C7H10N2/c1-6-3-2-4-9-7(6)5-8/h2-3,6-7,9H,4H2,1H3/t6-,7-/m0/s1
