25
gdb 60042	2.39035	0.97938	0.89931	1.2773	89.19	-0.2493	0.0817	0.331	1508.4307	0.226265	-389.485333	-389.474264	-389.47332	-389.521054	41.833	
C	-0.9297361802	 1.7440170612	-1.0338085157	-0.387197
C	-0.4965308013	 0.3432777062	-0.5785969185	 0.035484
C	 0.1544099311	 0.4038441944	 0.8098687243	-0.380099
C	-1.6991721715	-0.6208029865	-0.6362586875	-0.239288
C	-1.4066934192	-2.0859785817	-0.337517711	 0.323687
C	-0.3752636737	-2.7479288239	-1.2336881029	-0.459934
C	-1.4959119274	-2.575615388	 1.1024188441	-0.362421
C	-2.5620486516	-2.9489534795	 0.1020924549	 0.053507
O	-3.8281669248	-2.3575185021	 0.1816736607	-0.421483
H	-0.0824353086	 2.4379353382	-1.0428962314	 0.10518
H	-1.358066522	 1.7227786272	-2.0415645254	 0.108237
H	-1.6898161898	 2.1571684738	-0.3595798619	 0.110349
H	 0.2624651312	-0.0114248788	-1.2895626565	 0.070539
H	-0.5668389358	 0.7407495512	 1.5647306948	 0.106132
H	 0.5340080692	-0.5714470129	 1.1259769319	 0.119037
H	 0.9922691512	 1.1093961984	 0.8168689571	 0.104684
H	-2.479746793	-0.2667981173	 0.0453999011	 0.100498
H	-2.1365281143	-0.561520395	-1.6429997876	 0.090567
H	 0.6237594502	-2.3247186776	-1.0831873497	 0.119766
H	-0.3069443722	-3.8220334927	-1.0335989861	 0.108733
H	-0.6351873126	-2.6214166336	-2.291464922	 0.115689
H	-0.8047947637	-3.3399535016	 1.4441914788	 0.103262
H	-1.7761278239	-1.8484955279	 1.8573300129	 0.109907
H	-2.5712124745	-3.9767517354	-0.2635041917	 0.078695
H	-4.2635079527	-2.6961227362	 0.970613877	 0.286468
58.7761	98.4888	137.8322	194.363	224.1061	230.9586	243.9143	261.3868	282.1772	318.3949	363.5095	371.2536	419.6307	444.9743	467.9498	548.2088	720.5708	806.2024	824.831	878.2631	885.4667	927.8236	944.9373	951.6985	967.9506	993.8709	1035.3637	1041.6579	1067.5868	1110.0272	1137.441	1151.6341	1181.4296	1195.4194	1245.0606	1277.4575	1316.1548	1324.4947	1339.0842	1371.4123	1383.1846	1399.4175	1418.265	1421.0578	1424.1283	1477.0695	1485.1345	1488.449	1490.9221	1497.1903	1503.2262	1505.8742	1512.7492	3003.855	3009.1306	3021.2427	3024.3611	3026.8158	3072.148	3083.8916	3084.0398	3086.4844	3091.4757	3096.1506	3097.091	3112.0456	3122.6492	3211.2758	3807.8873
CC(C)CC1(C)CC1O	CC(C)C[C@@]1(C)C[C@H]1O	
InChI=1S/C8H16O/c1-6(2)4-8(3)5-7(8)9/h6-7,9H,4-5H2,1-3H3	InChI=1S/C8H16O/c1-6(2)4-8(3)5-7(8)9/h6-7,9H,4-5H2,1-3H3/t7-,8+/m1/s1
