19
gdb 37027	2.97867	1.73412	1.42454	2.0314	79.57	-0.2167	0.0123	0.229	973.5563	0.161502	-385.857639	-385.850592	-385.849647	-385.888626	29.362	
C	 0.0124223056	 1.4695645592	 0.1816784655	-0.380834
C	 1.3596166765	 0.8220970398	-0.0591517058	 0.183093
C	 1.7285860823	 0.0020824105	 1.1798714549	-0.144619
O	 0.4456643544	-0.6881701298	 1.177682662	-0.3334
C	 0.1020889887	-0.0171053995	-0.0446613653	 0.411211
C	-0.3278645237	-0.7267001406	-1.2514090378	-0.16574
C	 0.2000928087	-0.3664138245	-2.4280300362	-0.05836
C	 1.2156759115	 0.7450191954	-2.5783683453	-0.278617
C	 2.1404486824	 0.9366801289	-1.3403338065	-0.300205
H	-0.2472020838	 1.8243092847	 1.17517893	 0.114943
H	-0.3916487924	 2.0553508291	-0.6364450211	 0.121653
H	 2.547127411	-0.7048061022	 0.9976052282	 0.105854
H	 1.9060762393	 0.5387409848	 2.119722929	 0.102723
H	-1.0500624222	-1.5331891117	-1.1664309573	 0.099402
H	-0.1249907206	-0.8624936614	-3.3383310997	 0.09275
H	 1.8339331485	 0.5667345878	-3.4649474041	 0.105885
H	 0.6913880167	 1.6900455661	-2.7794705659	 0.117674
H	 2.677835161	 1.8872607121	-1.4339302208	 0.101595
H	 2.898252066	 0.1435389614	-1.3475395038	 0.104994
168.5189	192.6285	306.4743	328.9435	397.3268	441.9779	491.6303	537.3021	574.2052	700.8819	721.3369	761.9169	786.3839	849.5541	876.5506	917.9499	927.8262	963.7214	977.4366	982.2093	1001.5255	1015.6585	1052.358	1066.3705	1124.9327	1152.6404	1160.9432	1197.9394	1248.4828	1251.7111	1270.3403	1323.3304	1341.7388	1377.115	1397.3802	1435.5672	1479.0427	1485.3108	1497.0191	1517.6656	1679.9502	3005.0849	3014.2424	3025.2982	3057.6025	3063.5608	3066.4795	3120.1444	3158.7774	3180.673	3217.3503
C1C23COC12C=CCC3	C1[C@@]23CO[C@@]12C=CCC3	
InChI=1S/C8H10O/c1-2-4-8-5-7(8,3-1)6-9-8/h2,4H,1,3,5-6H2	InChI=1S/C8H10O/c1-2-4-8-5-7(8,3-1)6-9-8/h2,4H,1,3,5-6H2/t7-,8-/m0/s1
