12
gdb 42355	4.38371	0.89677	0.74781	3.449	67.21	-0.2809	-0.1403	0.1406	1380.8869	0.073234	-435.46805	-435.45885	-435.457906	-435.50348	30.835	
O	-0.1455485169	-0.0897325785	-0.0018251939	-0.233968
C	-0.0332668053	 1.1057871231	 0.0039232946	 0.294858
C	 1.2695378899	 1.8929724013	-0.0005125105	-0.489721
C	 2.4574131302	 1.0606366564	-0.0156048166	 0.307731
C	 3.4407047305	 0.3731641609	-0.0279041656	-0.397246
C	-1.3054546991	 1.9795720133	 0.0178848207	 0.205556
O	-1.2801544648	 3.1826730476	 0.0237861226	-0.246413
C	-2.5681041747	 1.2234133491	 0.0231976011	 0.27629
N	-3.5848684574	 0.6735234564	 0.0278345263	-0.285174
H	 1.2405094607	 2.574171581	-0.8623431944	 0.179244
H	 1.2537560956	 2.5613555028	 0.8716935127	 0.179259
H	 4.3115887612	-0.2348246032	-0.0382938069	 0.209584
41.7464	48.1707	98.4289	168.9096	235.2453	250.705	317.7831	369.1974	408.6946	417.2748	487.5341	641.5146	665.4876	673.2314	701.9352	796.9625	898.1699	944.9335	1016.5255	1197.5656	1202.8442	1350.9736	1418.855	1790.3418	1828.9006	2255.2965	2343.3028	3023.7442	3046.2991	3505.4392
O=C(CC#C)C(=O)C#N	O=C(CC#C)C(=O)C#N	
InChI=1S/C6H3NO2/c1-2-3-5(8)6(9)4-7/h1H,3H2	InChI=1S/C6H3NO2/c1-2-3-5(8)6(9)4-7/h1H,3H2
