18
gdb 44943	2.59853	1.79982	1.61075	3.3995	71.96	-0.2573	0.0282	0.2855	926.9468	0.151573	-439.109518	-439.102741	-439.101797	-439.140501	27.632	
N	-0.0540423161	 1.2734730122	-0.0543101402	-0.559075
C	-0.0243003929	 0.0142754089	-0.0229328142	 0.447937
O	 1.1143310301	-0.7548673584	-0.0310519253	-0.250204
C	 0.7227663388	-2.1440931692	 0.0593277133	 0.074039
C	-0.6361000906	-2.1674761508	-0.6497812041	-0.247254
C	-1.2215221057	-0.9186188306	 0.029753895	-0.130245
C	-1.504934656	-1.2680169771	 1.505651937	-0.079407
O	-0.3102139691	-1.5967909449	 2.2018102089	-0.249532
C	 0.5401457579	-2.5148901775	 1.5374783633	-0.080796
H	 0.8934450825	 1.6560663578	-0.0640718248	 0.222143
H	 1.5068055777	-2.7437313105	-0.4071937472	 0.092003
H	-0.5221803213	-2.0376647027	-1.7294092185	 0.116161
H	-1.2061363399	-3.0797689704	-0.4575398047	 0.106389
H	-2.1002075608	-0.4837518681	-0.4455517039	 0.101459
H	-1.9248906422	-0.4086155454	 2.0339069804	 0.132591
H	-2.2295150471	-2.0979948234	 1.5512659594	 0.091042
H	 0.1526846824	-3.5461789164	 1.6008980123	 0.090398
H	 1.4951497525	-2.4727615736	 2.0682935631	 0.12235
135.8744	234.4756	268.2633	362.9168	418.8989	452.3232	471.677	584.4659	679.3045	730.1976	804.7549	833.8085	852.3673	891.7446	899.865	931.9921	945.8511	970.8774	990.6569	1048.1867	1051.3137	1081.0471	1106.0737	1121.9872	1187.7224	1215.1639	1262.5846	1272.2188	1273.442	1321.462	1328.0076	1345.7692	1370.4581	1394.552	1415.4256	1490.187	1492.8776	1505.857	1790.9784	2963.831	2970.0503	3061.7176	3090.7393	3100.8128	3101.8025	3113.8411	3126.1763	3468.178
N=C1OC2CC1COC2	[NH][C]1O[C@@H]2C[C@H]1COC2	
InChI=1S/C6H9NO2/c7-6-4-1-5(9-6)3-8-2-4/h4-5,7H,1-3H2	InChI=1S/C6H9NO2/c7-6-4-1-5(9-6)3-8-2-4/h4-5,7H,1-3H2/t4-,5+/m0/s1
