23
gdb 101636	2.64524	0.82292	0.73509	1.788	88.11	-0.2564	0.0546	0.3109	1695.5644	0.202237	-388.267917	-388.256575	-388.255631	-388.304626	41.429	
C	 0.0282612519	 1.5783898441	 0.1511780703	-0.380648
C	-0.12655753	 0.0675627713	-0.0390398419	-0.191351
C	 0.6399587073	-0.4692438927	-1.2536497154	 0.128079
O	 2.0344141173	-0.1644978538	-1.1690915915	-0.429321
C	 0.4203596444	-1.9720088788	-1.4628332522	-0.203292
C	 1.0943050833	-2.5218332906	-2.7406890383	-0.132321
C	 1.0798894557	-4.0624552494	-2.7713141895	-0.397442
C	 0.4666853551	-1.9733126927	-3.9427836126	 0.343837
C	-0.071648736	-1.5369672634	-4.9259002323	-0.500114
H	 1.0839766234	 1.8515970693	 0.2268063824	 0.125722
H	-0.3935787331	 2.125033876	-0.6992852328	 0.116823
H	-0.4839038616	 1.9194504483	 1.0558434154	 0.108072
H	 0.2245180823	-0.4618909161	 0.8599142104	 0.08191
H	-1.18669104	-0.1927448031	-0.148166443	 0.098495
H	 0.3030995156	 0.0618935488	-2.152295586	 0.102223
H	 2.3681585504	-0.5635806332	-0.3570559563	 0.274342
H	 0.8258630087	-2.5135393067	-0.5959783222	 0.080039
H	-0.65410402	-2.1874711322	-1.4965335957	 0.102847
H	 2.1373017616	-2.1814474292	-2.7201474584	 0.118351
H	 1.570956029	-4.4397963818	-3.6720001409	 0.125705
H	 1.6029248105	-4.4649760249	-1.8979176734	 0.110254
H	 0.0533884686	-4.4420495168	-2.7622318969	 0.123691
H	-0.5312053444	-1.1458340025	-5.7995099992	 0.194099
56.0546	67.0695	119.5904	124.3382	184.6617	216.2558	227.3643	261.8982	276.9673	310.9496	327.514	370.6939	466.362	516.8956	548.6273	575.1888	621.1902	636.1273	778.472	789.9389	852.5019	901.88	943.6721	975.8497	1013.6189	1052.5276	1065.8034	1091.5776	1115.9602	1130.9959	1169.7837	1195.324	1265.2714	1279.3722	1314.5124	1348.9677	1365.7736	1376.8703	1391.0128	1406.8753	1409.941	1423.6299	1469.9293	1484.7511	1492.0559	1496.3727	1501.4893	1509.3315	2230.5165	2994.8267	3005.9135	3031.276	3037.564	3038.3853	3043.2876	3052.2075	3070.5275	3103.142	3109.0366	3119.6142	3121.8084	3504.7697	3786.8835
CCC(O)CC(C)C#C	CC[C@@H](O)C[C@@H](C)C#C	
InChI=1S/C8H14O/c1-4-7(3)6-8(9)5-2/h1,7-9H,5-6H2,2-3H3	InChI=1S/C8H14O/c1-4-7(3)6-8(9)5-2/h1,7-9H,5-6H2,2-3H3/t7-,8+/m0/s1
