18
gdb 37327	2.33184	2.33103	1.48253	3.3349	74.55	-0.2263	0.0541	0.2804	915.8837	0.151907	-398.041794	-398.035291	-398.034347	-398.07236	27.633	
N	-0.0146963476	 1.4994320975	 0.0196530662	-0.302652
C	 1.2714553751	 0.7964393566	-0.018074514	-0.036529
C	-0.0230077407	 0.0339027835	-0.026937601	-0.03651
C	-0.479124243	-0.657737324	-1.2807777038	-0.037074
N	-0.9061323724	 0.1491201217	-2.4282796655	-0.30268
C	 0.3589781212	-0.585798774	-2.5258850757	-0.036564
C	 1.6538475601	 0.1765382643	-2.5169157123	-0.036354
N	 1.6240274367	 1.6387853654	-2.4114599468	-0.30274
C	 2.110355324	 0.8673723135	-1.2630834606	-0.037171
H	-0.2086680857	 1.8182162982	 0.9647678139	 0.229213
H	 1.8528338802	 0.7492744683	 0.9003613559	 0.073436
H	-0.2727972202	-0.502999278	 0.8858117027	 0.073428
H	-0.9947523663	-1.5985477861	-1.0999204598	 0.073464
H	-1.6321243429	-0.3393989312	-2.94477537	 0.229198
H	 0.3812434041	-1.4804422561	-3.1446284775	 0.073425
H	 2.4315754083	-0.2735457834	-3.1303941832	 0.07343
H	 2.4085518451	 2.0387034852	-2.918418609	 0.229205
H	 3.1812786538	 0.8609030185	-1.0713114392	 0.073474
191.2459	192.1935	324.5226	453.807	454.9076	497.051	609.4536	609.9525	742.9313	756.8625	757.8386	823.4878	838.1218	874.6642	875.5589	903.0945	906.846	907.862	957.6188	1026.4683	1026.8281	1079.8708	1082.5109	1083.2487	1151.0325	1153.0796	1153.9529	1198.1577	1209.0531	1209.3965	1238.7787	1239.3461	1278.9088	1367.0092	1425.813	1426.2514	1457.4098	1469.5473	1469.9669	3108.0816	3113.4648	3113.7671	3128.8012	3129.0954	3137.0016	3507.551	3507.804	3509.0638
N1C2C1C1NC1C1NC21	N1[C@H]2[C@@H]1[C@H]1N[C@H]1[C@H]1N[C@@H]21	
InChI=1S/C6H9N3/c7-1-2(7)4-6(9-4)5-3(1)8-5/h1-9H	InChI=1S/C6H9N3/c7-1-2(7)4-6(9-4)5-3(1)8-5/h1-9H/t1-,2+,3-,4+,5-,6+
