17
gdb 71814	3.47416	1.65907	1.57376	3.1137	70.14	-0.2262	0.0525	0.2787	911.8919	0.13623	-421.754785	-421.748061	-421.747117	-421.785518	27.794	
C	-0.0267146527	 1.4775791174	-0.0733694683	-0.495798
C	-0.0504846894	-0.01327905	-0.0111337656	 0.473174
O	 0.7408969978	-0.7181316792	-0.9694805884	-0.308845
C	-0.094692725	-1.8932837538	-0.783865955	 0.03471
C	 0.6024411028	-2.819384071	 0.240617273	 0.01868
O	 1.7811788585	-2.2575265854	 0.8242385946	-0.234487
C	 0.5360967252	-2.1003661801	 1.5172487938	 0.046191
C	-0.2669189033	-0.8399910121	 1.2691327937	-0.176241
C	-1.1284960277	-1.0472662897	 0.0256153807	-0.219721
H	 0.9758870535	 1.852278672	 0.1585771938	 0.140667
H	-0.2987767551	 1.8233463822	-1.0754340088	 0.132228
H	-0.7280118157	 1.9062336319	 0.6478824219	 0.123913
H	-0.3805244346	-2.3515945885	-1.7306431564	 0.083301
H	 0.5864259538	-3.9001333208	 0.1275038052	 0.098023
H	 0.4801599286	-2.5848620091	 2.4892964324	 0.096942
H	-0.6819606794	-0.2999962387	 2.1124953376	 0.088785
H	-2.2066345272	-1.0027157251	-0.0578274143	 0.098477
181.3024	199.2327	289.9797	334.8271	360.0776	562.2153	574.2031	603.1859	704.0583	747.5783	763.923	821.536	837.4357	864.4115	875.6775	891.2284	917.3001	944.0686	984.1877	992.1542	1008.4898	1033.2902	1058.2106	1094.4834	1105.0682	1174.2126	1198.2593	1227.2878	1258.78	1271.0035	1298.3664	1330.7137	1397.5211	1419.564	1457.7263	1474.4404	1499.4305	3037.8684	3104.9506	3116.5326	3119.5264	3134.4773	3151.3332	3182.7846	3195.3543
CC12OC3C4OC4C1C23	C[C@@]12O[C@H]3[C@H]4O[C@H]4[C@@H]1[C@@H]23	
InChI=1S/C7H8O2/c1-7-2-3(7)5(9-7)6-4(2)8-6/h2-6H,1H3	InChI=1S/C7H8O2/c1-7-2-3(7)5(9-7)6-4(2)8-6/h2-6H,1H3/t2-,3+,4-,5+,6-,7+/m0/s1
