17
gdb 51229	4.55426	1.06599	1.02063	4.0157	72.88	-0.2609	0.0022	0.2631	1185.4594	0.13599	-421.790626	-421.783207	-421.782263	-421.822995	28.465	
O	 0.1399443562	 0.0391516367	 0.2117620925	-0.267297
C	 0.1527942739	 1.2257891241	 0.3268299618	 0.147717
O	 1.0248917133	 2.0106129087	-0.3535030741	-0.234541
C	 0.9016579976	 3.3893505212	-0.1794446783	 0.4258
C	 0.0770618471	 4.3405038413	-1.0321477523	-0.295789
C	 0.952564046	 5.455225917	-0.3829732733	-0.067491
C	 0.5402611346	 5.4494556992	 1.1179164075	-0.227289
C	 1.1886345691	 4.0693279739	 1.175580126	-0.131127
C	 2.0413867389	 4.3526537824	-0.0466857864	-0.144078
H	-0.516871775	 1.8091875667	 0.9846807541	 0.08755
H	 0.3086757832	 4.2122444494	-2.0926694205	 0.115358
H	-1.0078081519	 4.3933152548	-0.8860265209	 0.09609
H	 1.1357588981	 6.3846633962	-0.9155627313	 0.083703
H	 1.1103280337	 6.1794316062	 1.6988577923	 0.108631
H	-0.5269877994	 5.5471462723	 1.3476383731	 0.09384
H	 1.4593325294	 3.4737146983	 2.0383270115	 0.099687
H	 3.098303655	 4.2487451517	-0.2392043416	 0.109237
73.677	141.0144	144.3547	349.2486	368.0149	416.7122	435.62	509.1013	706.6385	733.6075	776.8628	800.0339	839.6028	898.4713	919.2579	955.6789	960.5725	998.1638	1003.4027	1021.3832	1050.0532	1077.3474	1097.4914	1129.302	1141.4766	1164.7404	1180.2196	1199.5489	1225.2097	1256.2274	1281.3216	1314.3841	1389.9609	1418.4129	1493.5078	1508.4974	1871.8966	2976.6564	3032.6958	3039.7491	3099.0106	3107.4072	3151.2368	3196.9419	3238.2129
O=COC12CC3CC1C23	O=CO[C@@]12C[C@H]3C[C@@H]1[C@@H]23	
InChI=1S/C7H8O2/c8-3-9-7-2-4-1-5(7)6(4)7/h3-6H,1-2H2	InChI=1S/C7H8O2/c8-3-9-7-2-4-1-5(7)6(4)7/h3-6H,1-2H2/t4-,5-,6+,7+/m1/s1
