18
gdb 109203	3.02887	1.13575	0.96755	2.2735	74.09	-0.2478	-0.0321	0.2158	1279.4094	0.146731	-439.116784	-439.107763	-439.106819	-439.151834	31.603	
C	 0.3398800875	 0.7789018333	-0.5953185245	-0.382366
C	-0.3513214226	 0.2161114427	 0.6574679602	-0.27781
C	-1.7292011861	-0.286536929	 0.3800720533	 0.421383
N	-2.8127343049	 0.1322090283	 0.8943552689	-0.302433
C	-3.9005113904	-0.6429538536	 0.2953954859	-0.209982
C	-3.1612058798	-1.7230007387	-0.5653693481	-0.019427
O	-1.7998858394	-1.2954581597	-0.5439668521	-0.239271
C	-3.3011178088	-3.1052797271	 0.0472527326	 0.147222
O	-2.4346083259	-3.6853607265	 0.6419392018	-0.228427
H	 1.3494650513	 1.1184799724	-0.3491692296	 0.121778
H	 0.4142410088	 0.0174822523	-1.3755569393	 0.138278
H	-0.2153013562	 1.6304668756	-1.0000863671	 0.12657
H	 0.2382752009	-0.6173829063	 1.057106561	 0.134282
H	-0.4314758452	 0.9756897158	 1.4375689123	 0.133211
H	-4.5334380449	-1.0872071235	 1.0714510026	 0.123566
H	-4.5392413765	 0.0051237769	-0.3144008963	 0.123793
H	-3.5162199878	-1.7530149892	-1.6012363318	 0.11036
H	-4.32394963	-3.5338137337	-0.0746369298	 0.079271
48.8224	59.0773	108.464	164.3237	200.8119	240.6795	324.1644	334.3938	398.1242	609.2419	670.2936	725.6899	759.4722	796.8672	846.0344	899.1807	939.7764	975.2351	979.6422	1000.896	1077.4855	1079.5399	1106.379	1118.7013	1196.795	1238.37	1268.1713	1298.2796	1324.5212	1356.2613	1380.028	1408.9119	1418.5346	1473.8694	1497.5032	1503.7733	1509.3263	1740.8978	1845.6047	2857.6474	3036.7345	3045.9811	3049.3125	3055.0101	3072.7295	3111.2569	3119.945	3134.8584
CCC1=NCC(O1)C=O	CCC1=NC[C@@H](O1)C=O	
InChI=1S/C6H9NO2/c1-2-6-7-3-5(4-8)9-6/h4-5H,2-3H2,1H3	InChI=1S/C6H9NO2/c1-2-6-7-3-5(4-8)9-6/h4-5H,2-3H2,1H3/t5-/m1/s1
