19
gdb 77915	2.21772	1.43584	1.40416	2.7106	76.49	-0.2313	0.0063	0.2376	1086.216	0.157272	-422.991451	-422.982192	-422.981248	-423.024857	34.77	
C	-0.3638221209	 1.5269394766	-0.104617232	-0.447166
C	-0.0039377465	 0.0456512138	-0.0638793152	 0.005736
C	 1.2851963096	-0.5350283692	-0.7656629982	-0.259261
C	 2.1303595333	-0.0663322024	 0.4802554971	 0.111252
O	 2.4132592136	 1.2912386069	 0.6991612253	-0.433212
C	 0.8147881505	-0.6028512324	 1.1388618715	 0.14158
C	 0.4625795134	-0.6473477287	 2.5962617902	-0.525567
C	 0.9944935075	-1.7474226862	 0.1268045116	 0.414311
O	 0.9073149243	-2.9362571993	 0.0686071795	-0.328452
H	-0.7653617372	 1.7772807539	-1.0930931389	 0.11468
H	-1.1561780063	 1.7311008481	 0.6246479337	 0.116979
H	 0.4802612817	 2.1766630493	 0.1087912583	 0.146905
H	-0.9036387111	-0.5327219447	-0.3042300357	 0.087079
H	 1.5536475446	-0.5010819325	-1.8194381862	 0.085449
H	 3.0234011827	-0.6748329078	 0.6778377365	 0.08376
H	 3.1748050078	 1.5272849536	 0.1600302623	 0.290305
H	 0.4348518418	 0.3592009363	 3.0258437535	 0.134495
H	-0.5181740788	-1.1100638585	 2.7462483241	 0.130495
H	 1.1977410299	-1.2338139267	 3.1571980225	 0.130634
145.6388	153.51	173.5392	177.8122	190.6465	267.2547	276.0238	290.3254	346.8587	405.329	560.0875	575.5285	613.277	728.5044	741.565	758.6767	765.2497	818.1011	892.2544	1007.0613	1039.6793	1055.6393	1079.0479	1095.0909	1112.6826	1125.5912	1173.6737	1190.073	1214.1269	1234.3915	1294.3674	1365.2826	1400.6875	1414.1653	1426.9523	1477.1816	1486.0057	1489.0588	1496.0755	1511.7951	1911.6567	3005.2323	3028.6149	3034.0234	3039.1127	3085.1985	3102.4854	3104.8954	3144.4314	3190.8451	3819.0394
CC1C2C(O)C1(C)C2=O	C[C@H]1[C@H]2[C@@H](O)[C@]1(C)C2=O	
InChI=1S/C7H10O2/c1-3-4-5(8)7(3,2)6(4)9/h3-5,8H,1-2H3	InChI=1S/C7H10O2/c1-3-4-5(8)7(3,2)6(4)9/h3-5,8H,1-2H3/t3-,4-,5+,7+/m0/s1
