20
gdb 56657	2.37798	1.27847	1.1137	3.6614	79.66	-0.2406	0.0331	0.2737	1216.4456	0.169978	-399.306547	-399.296498	-399.295554	-399.341298	36.88	
C	-0.161999105	 1.6430429533	 0.2676743789	-0.319039
N	-0.1317377582	 0.1877712194	 0.290033443	-0.103039
C	 1.0157170193	-0.4928908809	-0.303001406	-0.304622
C	 0.7868387834	-0.5335024439	 1.1715220397	 0.332072
C	 1.7375825162	 0.1810271894	 2.1133826155	-0.474057
C	 0.1079860069	-1.7427160917	 1.836224924	-0.186625
N	-0.9207896393	-1.2408643	 2.7495169926	-0.504264
C	-0.4173770764	-2.71370676	 0.8522232294	 0.283705
N	-0.8558129523	-3.4961429334	 0.1223755012	-0.342094
H	 0.8294253746	 2.1201229632	 0.264969209	 0.10495
H	-0.6885146762	 1.9631171194	-0.6367525253	 0.131908
H	-0.7199022083	 2.0116891066	 1.1340187146	 0.12772
H	 0.7934599957	-1.3463703375	-0.9370239328	 0.140553
H	 1.8478249032	 0.1250389688	-0.640701982	 0.105224
H	 2.1427229195	 1.0937712695	 1.6736398385	 0.121805
H	 1.227322289	 0.4360656064	 3.0466259406	 0.145395
H	 2.584696476	-0.469164454	 2.3571650137	 0.124453
H	 0.8598010609	-2.2755904589	 2.4314580218	 0.123768
H	-1.6223917754	-0.7613524324	 2.1906956963	 0.249642
H	-1.3863868837	-2.0119596235	 3.2180866972	 0.242544
54.4833	143.9938	155.0886	172.683	186.6421	235.4877	276.1636	288.8542	328.852	371.7007	407.0801	450.7433	496.2737	582.2258	604.0704	731.0126	793.9496	843.7088	895.175	934.787	959.9199	1014.5753	1066.7705	1074.1587	1111.3502	1136.1061	1149.1172	1179.0591	1203.2851	1217.1474	1242.3799	1343.3854	1387.3297	1390.2712	1409.9374	1450.3583	1483.1074	1487.2179	1500.982	1511.8099	1515.8374	1647.9676	2345.6769	2987.138	3039.1848	3044.6452	3072.4875	3087.6353	3105.6506	3107.4139	3137.7683	3183.6044	3491.0256	3574.4766
CN1CC1(C)C(N)C#N	CN1C[C@]1(C)[C@@H](N)C#N	
InChI=1S/C6H11N3/c1-6(4-9(6)2)5(8)3-7/h5H,4,8H2,1-2H3	InChI=1S/C6H11N3/c1-6(4-9(6)2)5(8)3-7/h5H,4,8H2,1-2H3/t5-,6+,9?/m0/s1
