15
gdb 27566	3.42461	1.20483	0.89622	4.3494	82.55	-0.2734	-0.0628	0.2105	1231.1518	0.11454	-379.753193	-379.745331	-379.744387	-379.786767	28.271	
C	-0.0046725637	 1.524144435	 0.0129062659	-0.498527
C	-0.004456677	 0.0179118368	-0.0047744266	 0.268698
C	 0.0540158719	-0.7003032227	-1.1965965321	-0.236941
C	 0.0515020229	-2.0970653407	-1.1577093559	 0.132041
C	-0.0104437175	-2.7312984476	 0.0924201802	-0.049248
N	-0.0666368332	-2.061305484	 1.2376254841	-0.265986
C	-0.0630798118	-0.7269293989	 1.1772625965	-0.043908
C	 0.1103790814	-2.8693144522	-2.3584772638	 0.214428
N	 0.1579964575	-3.4977324667	-3.3295783093	-0.326585
H	 0.901227985	 1.9266785432	-0.4526210592	 0.144719
H	-0.859688726	 1.9274480457	-0.5399914016	 0.144712
H	-0.0552393203	 1.9062643688	 1.0354220701	 0.136136
H	 0.1013510166	-0.1877965489	-2.1518526145	 0.127339
H	-0.0138047997	-3.8159198943	 0.1507313823	 0.135945
H	-0.1100165464	-0.2092112136	 2.1333730838	 0.117178
28.9175	142.3661	146.3159	214.1291	332.013	391.0156	462.6116	473.1786	540.7935	572.6503	611.9624	710.9355	734.746	919.0308	943.8708	959.2408	989.0055	1017.7036	1045.7988	1070.9059	1180.717	1193.3835	1281.3489	1292.3758	1351.3754	1417.2211	1455.5742	1460.9816	1484.0919	1501.9803	1600.2937	1634.0703	2345.3454	3038.155	3095.1532	3122.042	3150.1353	3176.1602	3189.4626
CC1=CC(=CN=C1)C#N	Cc1cc(cnc1)C#N	
InChI=1S/C7H6N2/c1-6-2-7(3-8)5-9-4-6/h2,4-5H,1H3	InChI=1S/C7H6N2/c1-6-2-7(3-8)5-9-4-6/h2,4-5H,1H3
