21
gdb 92496	2.50271	1.52668	1.33767	2.4324	77.01	-0.2384	0.0711	0.3095	1082.6036	0.182573	-424.225102	-424.216453	-424.215508	-424.258132	34.088	
C	 0.7201449872	 1.409506738	-0.0888384064	-0.397025
C	-0.0334536454	 0.0802751529	 0.0035660776	 0.126859
C	 0.1518407926	-0.8480332653	-1.2188540321	-0.325721
C	 1.1774968516	-1.9055375695	-0.7721165577	 0.390868
O	 0.830603379	-3.2238132571	-1.1403130437	-0.484325
C	 2.6916597347	-1.5457179261	-0.9112728891	-0.291973
C	 2.7749216677	-1.3105561077	 0.6251475316	-0.248058
C	 1.2723946598	-1.7055097867	 0.765349101	 0.087492
O	 0.3735544397	-0.6874553765	 1.1463519286	-0.272713
H	 1.7769102054	 1.2709871797	-0.3370793881	 0.117896
H	 0.2729049677	 2.0427512697	-0.8630089202	 0.110835
H	 0.6601773787	 1.9398374668	 0.8656447438	 0.125147
H	-1.0951639933	 0.303170729	 0.1587582688	 0.083804
H	-0.7816866122	-1.3728908151	-1.4391683354	 0.110746
H	 0.4582793027	-0.2961315718	-2.1125111091	 0.096441
H	 0.8933811787	-3.292938667	-2.0991584478	 0.275824
H	 3.2792655947	-2.3987022876	-1.257641577	 0.103151
H	 2.916094825	-0.6823684645	-1.5433820699	 0.092823
H	 3.4634115872	-1.9780076227	 1.147710997	 0.103834
H	 2.9802054923	-0.2856634411	 0.9373248786	 0.107928
H	 1.0777072063	-2.5913940874	 1.3741107597	 0.086165
72.8984	126.8475	233.7841	246.9724	259.0347	331.5483	349.3965	408.4716	424.5454	442.0616	594.5848	634.0168	708.9025	742.8118	797.6339	837.9341	851.0509	903.1044	928.1656	950.8514	961.0898	978.2731	1053.2861	1054.0479	1087.0567	1115.1621	1146.0316	1174.0267	1184.1465	1214.5495	1237.2041	1243.832	1261.4179	1264.0821	1295.6722	1335.4077	1363.9001	1381.7194	1395.411	1406.708	1464.1352	1477.1252	1488.3219	1493.7199	1498.1514	3034.4231	3036.1275	3053.9208	3058.2883	3074.029	3087.2284	3103.1968	3105.2993	3112.1497	3119.2398	3136.2598	3801.2249
CC1CC2(O)CCC2O1	C[C@H]1C[C@@]2(O)CC[C@H]2O1	
InChI=1S/C7H12O2/c1-5-4-7(8)3-2-6(7)9-5/h5-6,8H,2-4H2,1H3	InChI=1S/C7H12O2/c1-5-4-7(8)3-2-6(7)9-5/h5-6,8H,2-4H2,1H3/t5-,6+,7-/m0/s1
