15
gdb 41119	3.663	2.0152	1.62367	0.6935	66.95	-0.2488	-0.0236	0.2252	809.4552	0.114882	-416.71641	-416.710611	-416.709667	-416.746245	24.271	
C	 0.0514569376	 1.4816904387	-0.1054023863	-0.185032
O	 1.4605210518	 1.3777355378	 0.2565944331	-0.301039
C	 1.3041865334	 0.0056690275	 0.710573432	 0.087833
C	 1.8005058056	-1.0784768182	-0.2099198373	-0.067493
C	 0.6762360509	-0.8474643409	-1.14964007	-0.08723
N	 0.6832932876	-2.1331983657	-0.4571945523	-0.172455
C	-0.4727102676	-2.0594106013	 0.4041314423	 0.026131
N	-1.0250973721	-0.9186797039	 0.5717188216	-0.2569
C	-0.0659570959	-0.0302205062	-0.0538526489	 0.270379
H	-0.5234335321	 1.999924859	 0.6717535063	 0.120569
H	-0.0924205125	 1.975705986	-1.0713372971	 0.113632
H	 1.3914445242	-0.0791685601	 1.7964079175	 0.08968
H	 2.8005115819	-1.4550923705	-0.383040129	 0.11801
H	 0.6292766464	-0.7859174218	-2.2314996903	 0.108539
H	-0.8306094692	-2.9796973305	 0.8526131083	 0.135377
239.5702	297.2896	380.8579	395.4559	526.3556	608.1597	653.0283	721.4531	744.741	814.5244	849.6355	862.7057	896.8542	950.2387	957.9184	967.1048	981.3013	988.3486	1013.8887	1061.8987	1078.9885	1125.579	1166.3184	1173.047	1221.9704	1231.2772	1287.8632	1291.7715	1314.6745	1338.0685	1368.3158	1516.1461	1620.5551	3027.8473	3083.6296	3086.8899	3172.4353	3203.2239	3207.5886
C1OC2C3C4N3C=NC124	C1O[C@@H]2[C@@H]3[C@H]4N3[CH][N][C@@]124	
InChI=1S/C6H6N2O/c1-6-4-3(5(6)9-1)8(4)2-7-6/h2-5H,1H2	InChI=1S/C6H6N2O/c1-6-4-3(5(6)9-1)8(4)2-7-6/h2-5H,1H2/t3-,4+,5+,6+,8?/m0/s1
