15
gdb 127992	3.84422	1.23346	0.9395	5.2083	76.86	-0.2253	-0.0699	0.1554	1197.0058	0.111925	-450.105795	-450.097219	-450.096275	-450.139424	30.889	
C	 0.0096575998	 1.4341329046	 0.0723686661	-0.313888
N	 0.0083739654	-0.0156777478	-0.0096615805	-0.306436
C	 0.5541357304	-0.6898350958	 0.9043130519	 0.464233
O	 1.1523325357	 0.0130445169	 1.9951360806	-0.283265
N	 1.7834148357	-0.6372265265	 3.022230196	-0.03153
C	 1.8096177166	-1.9170809317	 2.9691011053	-0.023703
C	 1.1928031154	-2.6628696712	 1.876564889	 0.382085
N	 1.2931952198	-4.016723661	 1.8911151616	-0.562388
N	 0.5919714255	-2.063313833	 0.9022863526	-0.365235
H	 1.026260399	 1.8480934261	 0.1090817599	 0.120827
H	-0.493864198	 1.8367979072	-0.8097703549	 0.117217
H	-0.5152825131	 1.799309201	 0.9653658094	 0.120625
H	 2.3208274218	-2.4089392618	 3.7910866425	 0.134091
H	 1.5514035917	-4.5008893676	 2.7329855256	 0.27012
H	 0.7647023242	-4.5242802193	 1.1988178149	 0.277248
58.2592	113.1843	145.0687	207.4821	262.0113	301.8361	358.2661	379.6128	509.8619	525.63	545.6698	612.0436	703.0444	711.1046	751.1146	837.9411	881.9147	966.8759	983.7518	1045.0989	1075.9874	1111.1569	1157.6684	1280.4079	1328.4153	1438.6772	1447.5284	1486.2492	1500.3618	1619.0479	1639.9505	1705.1024	1773.808	3000.5121	3049.5794	3103.2891	3179.353	3600.1873	3732.4931
CN=C1ON=CC(N)=N1	C[N]C1=N[C](C=NO1)N	
InChI=1S/C4H6N4O/c1-6-4-8-3(5)2-7-9-4/h2H,1H3,(H2,5,6,8)	InChI=1S/C4H6N4O/c1-6-4-8-3(5)2-7-9-4/h2H,1H3,(H2,5,6,8)
