20
gdb 70124	2.84194	1.5825	1.21546	1.4296	87.08	-0.2114	-0.0309	0.1805	1086.4633	0.173133	-366.006141	-365.998163	-365.997219	-366.038099	32.128	
C	 0.4077523669	 1.4545690289	-0.461962501	-0.442803
C	 0.0197347418	 0.0662265932	 0.0026009137	 0.293832
C	-1.4096951627	-0.3472884048	-0.3873922874	-0.319973
C	-1.6854771361	-1.8267726539	-0.4351305678	-0.103813
C	-1.5514603125	-2.6661464595	 0.6028772663	-0.077164
C	-1.0561844679	-2.3061001328	 1.9265700638	-0.120829
C	-0.1796855745	-1.3282774047	 2.2220280133	-0.053619
C	 0.5681661086	-0.4380666605	 1.307036853	-0.074127
N	 1.1156451605	-0.9025875604	-0.0000164796	-0.374691
H	 1.4106753571	 1.711581748	-0.1130638996	 0.127383
H	 0.4093222786	 1.5066100127	-1.5568051342	 0.118609
H	-0.2983536613	 2.2052567403	-0.0892528901	 0.114149
H	-2.0951208233	 0.1319850001	 0.3274449323	 0.119941
H	-1.6354410481	 0.0882965768	-1.3665092406	 0.103171
H	-2.0442557844	-2.2262135566	-1.3797595682	 0.095257
H	-1.857747499	-3.7023073687	 0.4724656951	 0.090996
H	-1.4194749669	-2.9164318207	 2.7504185463	 0.092424
H	 0.068881946	-1.187747788	 3.2712382891	 0.092494
H	 1.2617002163	 0.2218650528	 1.8231019997	 0.083365
H	 0.7499722508	-1.8348158523	-0.186900924	 0.235399
129.2507	177.6831	220.4166	269.4914	328.3445	345.3108	383.3004	445.6325	472.8548	587.838	625.5806	703.2188	720.9425	787.2783	836.5127	857.0465	868.8019	917.587	927.4055	980.7263	993.6249	998.8794	1036.3206	1045.5845	1077.0091	1100.8739	1133.1392	1195.0572	1246.1643	1255.3215	1265.0782	1285.9508	1340.2895	1365.9722	1410.6802	1414.2747	1437.5152	1463.4776	1478.4284	1488.7144	1495.4188	1662.114	1699.0227	2996.283	3028.3445	3062.6539	3089.7223	3121.9146	3125.7411	3135.5869	3145.8064	3163.6469	3169.6196	3482.9306
CC12CC=CC=CC1N2	C[C@]12CC=CC=C[C@H]1N2	
InChI=1S/C8H11N/c1-8-6-4-2-3-5-7(8)9-8/h2-5,7,9H,6H2,1H3	InChI=1S/C8H11N/c1-8-6-4-2-3-5-7(8)9-8/h2-5,7,9H,6H2,1H3/t7-,8+/m1/s1
