15
gdb 49967	3.02307	1.227	0.99443	1.0212	70.76	-0.2522	-0.0609	0.1913	1163.7755	0.109802	-453.925747	-453.916845	-453.915901	-453.959881	30.881	
N	-0.1788926192	 1.0268385615	-0.5126055828	-0.417745
C	-0.0718841322	-0.1687485726	-0.1110720727	 0.074548
N	-1.1151785049	-0.7751093518	 0.6073134384	-0.090637
C	-2.4753717167	-0.6308549402	 0.2207410058	-0.238309
C	-1.7876783575	-2.0042897593	 0.190237405	 0.086746
C	-1.547339814	-2.606878782	-1.1642935201	 0.086052
O	-1.0278293297	-2.0159377023	-2.0781574616	-0.257314
C	-2.1109466434	-2.9486822834	 1.3080871301	 0.114832
O	-2.461699692	-4.0889954568	 1.1429001231	-0.250295
H	 0.6951577539	 1.3403680805	-0.9316883971	 0.235547
H	 0.8134503136	-0.8068000507	-0.1783936894	 0.113343
H	-3.1961070787	-0.4315826106	 1.0094330464	 0.142387
H	-2.6781634674	-0.1866233805	-0.7506457513	 0.168475
H	-1.8849969199	-3.6565850453	-1.2492651398	 0.129195
H	-2.0057341519	-2.4924634464	 2.3159905059	 0.103173
75.6552	106.9311	118.8627	191.3681	211.4846	222.121	297.0202	336.9597	393.0753	444.6582	591.8443	705.395	736.9726	815.5606	845.6663	919.6082	968.3043	1016.9965	1051.4963	1057.3985	1068.7215	1123.4639	1151.2702	1228.3177	1265.6807	1377.9606	1406.6062	1410.6773	1428.9247	1496.9778	1709.4716	1810.9277	1823.9239	2908.6475	2970.0209	3088.0851	3108.5792	3207.9646	3503.7641
N=CN1CC1(C=O)C=O	[NH][CH]N1CC1(C=O)C=O	
InChI=1S/C5H6N2O2/c6-4-7-1-5(7,2-8)3-9/h2-4,6H,1H2	InChI=1S/C5H6N2O2/c6-4-7-1-5(7,2-8)3-9/h2-4,6H,1H2
