19
gdb 92842	2.92431	1.53904	1.27719	1.2839	76.73	-0.2301	0.0214	0.2515	1052.2717	0.161175	-419.192118	-419.184164	-419.18322	-419.224848	30.837	
C	 0.8982174094	 1.198679711	 0.1261155732	-0.382488
C	-0.1130257465	 0.0589174753	 0.0158610614	 0.126207
C	 0.0761359397	-0.7859574626	-1.2668563004	-0.197153
N	 1.3138041697	-1.5886433326	-1.222274417	-0.324351
C	 1.3432876907	-2.1922316341	-0.1112945458	 0.387309
N	 2.2840635349	-2.9280019197	 0.5955810287	-0.371451
C	 1.6886646469	-2.4994415987	 1.8958527662	-0.201909
C	 0.4311579969	-2.0404848103	 1.0832459502	 0.02854
O	-0.0515303929	-0.7316899057	 1.231349854	-0.296504
H	 1.9220377003	 0.8205238877	 0.0586271994	 0.125465
H	 0.7469168514	 1.92564723	-0.6787988263	 0.112005
H	 0.7780120595	 1.7127777586	 1.0833840956	 0.12031
H	-1.1271110055	 0.4781751899	-0.0032844121	 0.081941
H	-0.803101511	-1.4295942961	-1.4115811363	 0.104167
H	 0.1197280116	-0.1092757088	-2.1249775398	 0.107847
H	 3.2739158908	-2.8781319499	 0.3889577038	 0.244465
H	 1.5594226921	-3.3091965003	 2.6174436732	 0.114385
H	 2.1950517964	-1.6456952318	 2.3557597865	 0.122799
H	-0.3848409043	-2.771433642	 1.1440151855	 0.098415
49.0315	147.1445	234.8878	278.9963	343.9982	350.8566	387.7988	426.7785	511.4057	559.8007	675.2053	737.8706	757.7865	802.1705	844.156	910.2537	928.9815	957.5192	973.4554	993.1563	1055.9079	1088.425	1113.4024	1131.2075	1142.8255	1174.1739	1214.0326	1229.2703	1264.0047	1312.4907	1325.023	1347.5826	1368.1183	1381.0017	1389.7173	1406.752	1486.116	1495.971	1498.7973	1509.3642	1797.348	3001.3491	3020.6662	3025.5055	3040.365	3053.3006	3082.9566	3111.9974	3117.2158	3124.6922	3566.7454
CC1CN=C2NCC2O1	C[C@H]1C[N][C]2NC[C@H]2O1	
InChI=1S/C6H10N2O/c1-4-2-7-6-5(9-4)3-8-6/h4-5H,2-3H2,1H3,(H,7,8)	InChI=1S/C6H10N2O/c1-4-2-7-6-5(9-4)3-8-6/h4-5H,2-3H2,1H3,(H,7,8)/t4-,5+/m0/s1
