19
gdb 119845	4.41008	1.00512	0.87585	0.9525	77.39	-0.2348	0.0354	0.2702	1370.7296	0.160465	-419.199272	-419.190914	-419.18997	-419.232737	31.087	
C	 0.0473551944	 1.4875354532	-0.0926903567	-0.391701
C	-0.0241707601	-0.025607187	-0.0332760881	-0.03688
O	 0.6849818856	-0.5387186981	-1.1765599283	-0.251661
C	 0.7550066145	-1.8600871199	-1.2670187525	 0.443803
N	 0.2498450704	-2.7026107412	-0.4511024371	-0.344553
C	 0.6055975924	-4.0361845205	-0.9501361951	-0.185987
C	 1.3157007886	-3.7896382045	-2.2859234627	-0.029382
C	 0.5844339221	-3.0418163514	-3.3333453533	-0.24925
N	 1.4949598432	-2.321775024	-2.4009534524	-0.164792
H	 1.085526339	 1.8298388347	-0.0637426068	 0.132234
H	-0.4137914022	 1.8650929877	-1.0096652242	 0.129782
H	-0.4825903776	 1.9166570834	 0.7628052046	 0.121626
H	 0.436919942	-0.4266008737	 0.8752211272	 0.123916
H	-1.0556778541	-0.392503671	-0.0638881819	 0.119456
H	 1.2772492209	-4.5348833606	-0.2402991846	 0.113084
H	-0.2866495234	-4.6666961904	-1.043092378	 0.11201
H	 2.1721096982	-4.3965172847	-2.5601486344	 0.103048
H	 0.930270075	-3.0662373516	-4.3616781149	 0.126218
H	-0.483277799	-2.8833098603	-3.2056748608	 0.12903
62.3863	109.5845	159.4815	226.5714	268.6385	284.4705	354.0208	383.4258	460.5992	699.2004	734.8201	770.8035	796.9809	810.7954	841.6656	888.6141	921.0186	938.4026	993.6616	1049.0565	1070.0256	1088.4729	1092.7284	1111.8779	1139.2884	1169.4472	1184.116	1208.0993	1251.6554	1289.9662	1316.6069	1354.572	1372.1073	1405.8924	1430.8384	1484.6874	1493.1554	1497.1398	1506.7229	1520.6139	1701.3485	3024.6776	3046.6446	3047.0706	3053.2215	3084.6856	3113.8956	3121.7191	3126.5223	3166.9289	3207.2578
CCOC1=NCC2CN12	CCOC1=NC[C@H]2CN12	
InChI=1S/C6H10N2O/c1-2-9-6-7-3-5-4-8(5)6/h5H,2-4H2,1H3	InChI=1S/C6H10N2O/c1-2-9-6-7-3-5-4-8(5)6/h5H,2-4H2,1H3/t5-,8?/m0/s1
