15
gdb 127526	3.24981	1.47159	1.01932	1.6938	74.51	-0.2059	-0.0762	0.1297	1098.3251	0.113777	-450.133414	-450.12551	-450.124566	-450.165934	29.508	
C	-0.2878350617	 1.3527281045	-0.0273838129	-0.308582
N	 0.0387233634	-0.0622970942	-0.0055837447	-0.031261
N	 0.2194088309	-0.657223654	-1.2082020322	-0.271689
C	 0.5102359555	-1.9168386994	-1.1900332986	 0.475078
O	 0.6945312643	-2.5289424466	-2.3751524974	-0.401381
N	 0.6534928549	-2.70941885	-0.0732368583	-0.320027
C	 0.4769365891	-2.1220601704	 1.0615711532	-0.037978
C	 0.1443031853	-0.7079413606	 1.2166638007	 0.355845
N	-0.0458015846	-0.0552547907	 2.3116053218	-0.571793
H	 0.4670704645	 1.9175935395	 0.527811869	 0.152302
H	-0.3225472284	 1.6660171233	-1.0688941533	 0.149065
H	-1.2502012048	 1.5203915231	 0.4655008392	 0.152267
H	 0.8997916654	-3.4504533911	-2.174249707	 0.308874
H	 0.5810457619	-2.7133962113	 1.9706802382	 0.136493
H	 0.0688883046	-0.6747292421	 3.1119893524	 0.212787
83.2224	144.543	182.4318	318.7517	328.9798	357.2901	377.5726	441.2728	493.1505	562.1108	588.0676	605.0456	750.0361	755.1798	783.9781	829.2895	943.601	971.0141	1050.889	1110.4081	1149.4607	1212.932	1255.6232	1321.0778	1362.2248	1407.2311	1431.5894	1463.7114	1466.3842	1501.7164	1571.7316	1644.2562	1702.4926	3047.4929	3104.3034	3142.1083	3179.9142	3495.0917	3806.0046
CN1N=C(O)N=CC1=N	Cn1nc(O)ncc1[NH]	
InChI=1S/C4H6N4O/c1-8-3(5)2-6-4(9)7-8/h2,5H,1H3,(H,7,9)	InChI=1S/C4H11N4O/c1-8-3(5)2-6-4(9)7-8/h3-7,9H,2H2,1H3
