20
gdb 117398	2.16012	1.05264	0.7172	2.1992	84.32	-0.2271	0.0115	0.2386	1605.7944	0.169099	-436.475813	-436.465081	-436.464137	-436.513634	36.897	
C	-0.1460414632	 1.4737509744	 0.131540068	-0.38697
C	-0.1576861274	-0.0427574332	 0.114853998	-0.028188
O	 0.6086264866	-0.4582827396	-1.0284987852	-0.211063
C	 0.7188775752	-1.7705302364	-1.2204812187	 0.510716
N	 0.1812473746	-2.6272966663	-0.4436519479	-0.589859
N	 1.4799029266	-2.076607489	-2.3534926714	-0.400704
C	 2.1245383738	-1.2759861583	-3.2895459612	 0.106008
N	 2.1559796027	-0.0144144552	-3.3088209217	-0.183814
C	 2.8940428874	 0.6064216641	-4.3868930898	-0.309867
H	 0.8759814495	 1.8542790126	 0.2094777184	 0.131425
H	-0.5915519132	 1.8764729113	-0.7821013381	 0.131431
H	-0.7198829615	 1.8380561111	 0.9889795428	 0.116028
H	 0.2894571728	-0.4705959807	 1.0177015192	 0.120521
H	-1.1708239158	-0.4485110064	 0.0309300686	 0.120507
H	 0.3666763378	-3.5823147811	-0.7390584897	 0.206419
H	 1.5744570745	-3.065153746	-2.5147118858	 0.250092
H	 2.6249814759	-1.9047923569	-4.0433238112	 0.075566
H	 3.3561874692	-0.1117366047	-5.0862024996	 0.090173
H	 2.2289342608	 1.2633144675	-4.9598989071	 0.125789
H	 3.6867638238	 1.2417038629	-3.9743044276	 0.125789
15.838	77.513	97.1578	100.0903	143.9668	203.2291	214.5165	250.084	332.7492	337.2941	375.135	429.4201	492.0894	606.9018	730.3815	766.8944	791.3083	813.5447	889.713	944.8609	979.7416	1030.4839	1084.5241	1120.8354	1136.1216	1140.7802	1151.9023	1184.0462	1234.1567	1288.4655	1361.0182	1406.4529	1421.3564	1444.7524	1461.5768	1478.5479	1483.3715	1495.7554	1498.2981	1504.2942	1522.7803	1728.8321	1777.476	2953.3691	2983.2463	3047.3995	3051.4761	3051.8528	3071.5453	3089.2686	3121.3094	3129.1458	3519.967	3659.1657
CCOC(=N)NC=NC	CCOC(=N)NC=NC	
InChI=1S/C5H11N3O/c1-3-9-5(6)8-4-7-2/h4H,3H2,1-2H3,(H2,6,7,8)	InChI=1S/C5H11N3O/c1-3-9-5(6)8-4-7-2/h4H,3H2,1-2H3,(H2,6,7,8)
