16
gdb 51922	3.95763	0.62211	0.56583	3.363	77.62	-0.2662	-0.0009	0.2653	1889.9193	0.122282	-437.813773	-437.804327	-437.803383	-437.850856	31.608	
N	-0.460555131	 0.7662505504	-0.8578699715	-0.43369
C	-0.6477082925	-0.2531314315	-0.1407481732	 0.137012
O	-0.1986828686	-1.4576166605	-0.5586604657	-0.16899
C	-0.5100371277	-2.5688116594	 0.2872511346	-0.245535
C	-1.9065121147	-2.9825503745	 0.2113535828	 0.125661
C	-3.0614918532	-3.3158623291	 0.1337999072	 0.068177
C	-4.4402832857	-3.7157328019	 0.0654065929	-0.116208
C	-5.2197168248	-3.57689789	-1.1823895715	-0.157743
O	-4.7606717332	-4.8508773731	-0.7545366328	-0.209671
H	-0.8378511769	 1.5911237043	-0.3960692268	 0.231256
H	-1.149227284	-0.2853996074	 0.8360258613	 0.091029
H	 0.1441415523	-3.3760054925	-0.0537848599	 0.16069
H	-0.2365945261	-2.3419039652	 1.3271347083	 0.138633
H	-4.985233005	-3.6871538464	 1.0081436993	 0.121174
H	-6.2941382787	-3.41178261	-1.1147238738	 0.124334
H	-4.7299102602	-3.1713195632	-2.0651942313	 0.133871
23.5308	48.2905	77.0002	109.8636	133.1161	234.7889	310.5562	333.9343	423.8438	534.7245	552.0913	664.0776	739.0175	819.5221	840.3788	898.1078	950.8124	996.0527	1027.1237	1039.7847	1082.7206	1116.4946	1152.1395	1159.3351	1183.864	1241.3235	1282.7772	1319.1793	1390.5808	1405.7501	1425.8311	1480.7235	1519.5874	1750.3658	2362.5336	3012.5013	3028.7919	3088.8874	3093.0336	3118.7151	3184.5673	3519.4433
N=COCC#CC1CO1	[NH][CH]OCC#C[C@H]1CO1	
InChI=1S/C6H7NO2/c7-5-8-3-1-2-6-4-9-6/h5-7H,3-4H2	InChI=1S/C6H7NO2/c7-5-8-3-1-2-6-4-9-6/h5-7H,3-4H2/t6-/m0/s1
