17
gdb 35905	3.20767	1.41661	1.10243	1.8067	73.7	-0.2541	0.0306	0.2847	1087.9293	0.136074	-421.765301	-421.75757	-421.756626	-421.79756	30.125	
C	-0.0522987582	-1.2051142658	-0.0280135865	-0.423688
C	-0.0402380707	-0.0059173351	 0.0327654746	 0.313056
C	 0.0034653656	 1.4527607427	 0.0613214331	-0.091524
O	-0.7050942018	 1.9116287332	 1.2173656042	-0.249136
C	-0.5804201819	 3.3037525913	 1.352823882	 0.021374
O	 0.7065594931	 3.6870231392	 1.7608917728	-0.242896
C	 1.7170091512	 3.1996124539	 0.917833614	 0.089369
C	 2.3202034973	 1.8614967785	 1.2539200023	-0.303349
C	 1.4274883637	 2.0004479632	 0.04498598	-0.07475
H	-0.0683122936	-2.2661647393	-0.0724526896	 0.199728
H	-0.5155653683	 1.8374595608	-0.8339201256	 0.101322
H	-0.8462865231	 3.7952804599	 0.3991398369	 0.08013
H	-1.2643885304	 3.613232613	 2.1447146094	 0.122274
H	 2.3557158146	 3.9908652958	 0.5348422991	 0.101129
H	 3.3808080663	 1.7049020853	 1.0933713087	 0.114189
H	 1.9016744036	 1.3655480095	 2.1224200391	 0.139149
H	 1.8967627426	 1.9700274038	-0.9328068545	 0.103625
90.4133	138.6524	196.4072	284.899	365.0799	396.5191	441.9494	493.0039	558.9332	621.8107	638.7249	673.4431	733.0303	765.6179	813.972	856.7414	931.6891	1000.7218	1008.3422	1028.6744	1051.8407	1066.0717	1084.3228	1118.622	1133.5851	1181.285	1202.7529	1233.3631	1302.346	1335.3966	1354.3173	1363.1413	1401.9471	1444.659	1474.6531	1510.6475	2245.9858	2935.8634	2948.2198	3121.1233	3138.14	3141.5055	3163.7628	3233.6851	3503.7147
C#CC1OCOC2CC12	C#C[C@H]1OCO[C@H]2C[C@@H]12	
InChI=1S/C7H8O2/c1-2-6-5-3-7(5)9-4-8-6/h1,5-7H,3-4H2	InChI=1S/C7H8O2/c1-2-6-5-3-7(5)9-4-8-6/h1,5-7H,3-4H2/t5-,6+,7-/m0/s1
