17
gdb 24655	4.50336	1.10937	0.95042	3.6709	82.26	-0.2472	-0.02	0.2273	1220.0372	0.139754	-380.901366	-380.894196	-380.893252	-380.933506	27.579	
C	 0.1604554841	 1.5577871764	 0.0442115806	-0.229099
N	 1.2596907837	 0.6072536136	-0.1342642239	-0.309472
C	-0.1066462442	 0.0859322059	 0.0311665673	-0.128136
C	-0.4119420029	-0.6699068691	 1.2760315916	 0.345607
C	 0.4620464145	-0.6897761802	 2.3641283848	-0.21345
C	 0.0986484789	-1.3962015661	 3.5053336385	 0.014497
N	-1.0476118541	-2.0718825204	 3.6366752623	-0.274713
C	-1.8751131385	-2.0529311802	 2.5884540978	 0.013553
C	-1.6078628821	-1.378603745	 1.4014621848	-0.21714
H	 0.1626007677	 2.0827750514	 0.9952565976	 0.128823
H	-0.1803606963	 2.1449938442	-0.8046064813	 0.119684
H	 1.5392974825	 0.5579490457	-1.1095451598	 0.239357
H	-0.6144328707	-0.2883386829	-0.8556312521	 0.088913
H	 1.4137802109	-0.1754796053	 2.3024942951	 0.119621
H	 0.769158682	-1.4255122535	 4.3614342812	 0.106533
H	-2.803290881	-2.6090413194	 2.7008606654	 0.10525
H	-2.3247605344	-1.406354865	 0.58645124	 0.090173
66.4388	143.2277	200.0621	324.6038	392.7246	403.0697	563.4089	573.1438	680.5608	766.0549	771.5523	826.1322	877.5095	904.0026	909.2158	925.1831	974.9536	991.1841	1005.6379	1009.5143	1091.4023	1094.3114	1108.2974	1121.6448	1160.6425	1219.9148	1240.5759	1256.513	1287.2725	1300.4664	1357.2538	1428.7315	1451.8439	1510.8108	1529.3048	1602.9668	1639.275	3108.4315	3125.4313	3148.4188	3152.0745	3177.2162	3198.6925	3208.2827	3516.9249
C1NC1C1=CC=NC=C1	C1N[C@H]1c1ccncc1	
InChI=1S/C7H8N2/c1-3-8-4-2-6(1)7-5-9-7/h1-4,7,9H,5H2	InChI=1S/C7H8N2/c1-3-8-4-2-6(1)7-5-9-7/h1-4,7,9H,5H2/t7-/m1/s1
