23
gdb 60054	2.73584	1.00382	0.86682	2.3096	82.15	-0.2419	0.0599	0.3018	1469.2408	0.203349	-425.417506	-425.406937	-425.405993	-425.452851	40.013	
C	 0.0356810404	 1.5845480354	 0.2718390949	-0.396355
C	 0.0006097724	 0.0963370855	-0.0648126508	 0.123733
O	 0.854094985	-0.6542821208	 0.8120173607	-0.43773
C	-1.4312789127	-0.4689618508	-0.0962168074	-0.301313
C	-1.4528525935	-1.9939212892	-0.0812122594	 0.434722
O	-0.4379853068	-2.587678121	-0.8479378971	-0.481593
C	-1.8791604422	-2.735590131	 1.1708539239	-0.361094
C	-2.7405751298	-2.7633840224	-0.0806519022	-0.040402
C	-4.1021676717	-2.1060249253	-0.1219709297	-0.412687
H	 1.063648604	 1.9562248254	 0.2553304278	 0.125023
H	-0.5555205168	 2.1621571754	-0.4464006776	 0.119233
H	-0.3802313891	 1.7688353544	 1.2700168567	 0.106915
H	 0.4498433612	-0.0593331462	-1.0508146594	 0.104016
H	 0.4528934183	-0.6579224954	 1.6883676924	 0.283583
H	-1.9982661426	-0.0801455551	 0.758758389	 0.089523
H	-1.9236487872	-0.0840761835	-0.9986788603	 0.106829
H	 0.3864437427	-2.3734429703	-0.3880752742	 0.288439
H	-1.3295104256	-3.6342699419	 1.4279980695	 0.11102
H	-2.2406777587	-2.1607966029	 2.0194834505	 0.094014
H	-2.669484313	-3.6886443943	-0.6458645877	 0.096378
H	-4.1335616408	-1.1891778546	 0.4744536655	 0.11112
H	-4.3891928746	-1.8448806367	-1.1468811151	 0.118988
H	-4.8691323789	-2.7797837547	 0.2753971499	 0.117639
64.2793	87.4788	134.1579	188.6939	218.6913	235.584	244.0173	312.285	316.8374	376.2871	413.9008	437.9222	462.0298	476.4762	530.2122	630.4933	749.2724	801.267	838.3304	873.498	906.9515	920.3131	943.3322	954.7804	1012.7619	1030.029	1054.3478	1091.1717	1103.936	1129.3141	1153.2936	1177.4321	1197.1803	1261.9722	1287.2299	1315.6266	1332.3609	1370.1589	1380.4177	1404.2514	1415.2318	1426.9172	1435.2319	1477.5572	1487.1113	1491.0586	1495.0544	1496.3632	1509.457	3016.0099	3027.1652	3029.6515	3049.0282	3067.5274	3087.9419	3097.6229	3100.6105	3116.2156	3119.1386	3150.0301	3210.9502	3734.9596	3800.3928
CC(O)CC1(O)CC1C	C[C@@H](O)C[C@@]1(O)C[C@H]1C	
InChI=1S/C7H14O2/c1-5-3-7(5,9)4-6(2)8/h5-6,8-9H,3-4H2,1-2H3	InChI=1S/C7H14O2/c1-5-3-7(5,9)4-6(2)8/h5-6,8-9H,3-4H2,1-2H3/t5-,6-,7+/m1/s1
