23
gdb 110110	2.13259	1.16724	0.91489	0.7473	92.35	-0.2373	0.0498	0.2871	1438.2645	0.203532	-351.122438	-351.111739	-351.110795	-351.158354	39.484	
C	-0.0239947575	 1.5316497143	 0.4245720307	-0.377594
C	 0.0126339994	 0.1360202098	-0.2096831358	-0.199365
C	-1.3409239248	-0.5433359677	-0.1778408851	-0.034422
C	-1.5335040339	-2.0298151504	-0.3007995734	-0.03442
C	-0.395616029	-3.0152680481	-0.4703618399	-0.199353
C	-0.7978742076	-4.4398730805	-0.0702500266	-0.377607
C	-1.8074474576	-1.3445639354	 1.0415404927	-0.218484
C	-0.9363728585	-1.5500352398	 2.1605010247	 0.351172
C	-0.21827981	-1.7216330415	 3.1120501635	-0.489779
H	 0.9549560032	 2.0174566461	 0.3666164751	 0.109256
H	-0.7483269024	 2.1792184393	-0.0822291814	 0.109556
H	-0.3091684872	 1.4702539677	 1.4793444794	 0.129189
H	 0.3482646199	 0.2115981951	-1.2522368318	 0.094934
H	 0.7543683679	-0.4753125914	 0.3121607979	 0.111549
H	-2.1311949967	 0.0580539551	-0.623186009	 0.084957
H	-2.4407766692	-2.3314503271	-0.8208005693	 0.084952
H	-0.0677992676	-3.0033244912	-1.5180592524	 0.094935
H	 0.4653434072	-2.7046152793	 0.1283565797	 0.111564
H	-1.0807967451	-4.4800790082	 0.9861509837	 0.129174
H	-1.6514665412	-4.7919850538	-0.6603745434	 0.109562
H	 0.027265694	-5.1416529188	-0.2263284811	 0.109261
H	-2.8533753107	-1.2314442228	 1.3121538007	 0.107413
H	 0.4112630472	-1.8727503616	 3.9533122712	 0.19355
67.4484	70.6501	114.5883	135.0218	162.0893	224.821	236.5625	258.6962	301.8787	364.6199	380.4162	558.3791	567.9132	587.8918	606.5576	646.1523	729.5594	774.0708	801.3987	808.4564	829.6198	937.9926	966.5096	1007.0511	1008.4496	1046.1611	1058.2867	1103.731	1121.1472	1147.1064	1147.4923	1198.5193	1255.2658	1292.96	1301.628	1333.7012	1338.8668	1375.6635	1403.3963	1410.1135	1413.6423	1449.396	1477.681	1486.5906	1499.5822	1499.6769	1505.8333	1507.0023	2226.4884	3022.3265	3026.0664	3032.1536	3032.4741	3076.1663	3084.1388	3100.1681	3103.3542	3111.0615	3111.7404	3117.3356	3127.0392	3145.1838	3504.4184
CCC1C(CC)C1C#C	CC[C@H]1[C@@H](CC)[C@H]1C#C	
InChI=1S/C9H14/c1-4-7-8(5-2)9(7)6-3/h1,7-9H,5-6H2,2-3H3	InChI=1S/C9H14/c1-4-7-8(5-2)9(7)6-3/h1,7-9H,5-6H2,2-3H3/t7-,8+,9-
