21
gdb 117962	2.63354	0.83033	0.68292	2.1147	76.17	-0.2649	0.0176	0.2825	1687.9869	0.179611	-461.394404	-461.383117	-461.382173	-461.432469	38.296	
C	 0.9655810636	 1.2451365785	-0.0306150286	-0.239926
O	 0.9648781891	-0.1745565951	-0.2213178672	-0.23631
C	-0.0042330423	-0.6487167443	-1.0338594165	 0.444039
O	-0.8343104429	 0.053654633	-1.5544246102	-0.362066
C	 0.1180510235	-2.1562648475	-1.2034045837	-0.113446
C	-1.1979207024	-2.7365578371	-1.7312464671	-0.392227
C	 1.3338338035	-2.4539902206	-2.1109025308	-0.17171
C	 1.6772410885	-3.9359668685	-2.2153339045	-0.084501
O	 2.875231371	-4.036913144	-2.970330989	-0.420452
H	 1.1059646218	 1.7633808786	-0.9827167773	 0.14006
H	 0.0217494491	 1.5754386452	 0.4106581705	 0.139689
H	 1.7962775536	 1.454472029	 0.6435663897	 0.131929
H	 0.3360194186	-2.5672236152	-0.2094878257	 0.096822
H	-1.1540785469	-3.8275750142	-1.780476912	 0.111658
H	-2.034096534	-2.4604477359	-1.0835589129	 0.124108
H	-1.416644515	-2.3501824955	-2.7303623342	 0.134118
H	 1.148805146	-2.0604354698	-3.11758494	 0.114238
H	 2.2135183089	-1.93429667	-1.7192017177	 0.122513
H	 1.8053278379	-4.357293859	-1.203788369	 0.084556
H	 0.859100256	-4.4896019444	-2.6993466799	 0.090656
H	 3.0725229723	-4.9691889831	-3.098606184	 0.286253
29.7989	66.9301	91.5946	104.2791	121.6715	188.5966	198.1333	233.6764	259.5294	294.0354	323.8226	345.5755	421.0943	493.6698	683.327	760.7401	798.3331	854.9776	904.1816	973.092	1018.3091	1024.9282	1057.8883	1094.6098	1129.2665	1172.7194	1179.1135	1203.7195	1217.9609	1239.5382	1242.7189	1309.2813	1321.3107	1354.1561	1377.0083	1415.6089	1459.1412	1472.4817	1481.566	1488.6558	1494.4185	1497.7571	1502.24	1528.9062	1818.2785	2958.136	3001.0485	3028.9352	3043.7126	3050.7275	3051.352	3096.1465	3121.5933	3124.7768	3126.0651	3157.2842	3831.4987
COC(=O)C(C)CCO	COC(=O)[C@@H](C)CCO	
InChI=1S/C6H12O3/c1-5(3-4-7)6(8)9-2/h5,7H,3-4H2,1-2H3	InChI=1S/C6H12O3/c1-5(3-4-7)6(8)9-2/h5,7H,3-4H2,1-2H3/t5-/m0/s1
