16
gdb 35876	2.28708	1.80111	1.17591	3.039	68.33	-0.2711	0.0038	0.2749	1033.9454	0.124559	-437.871491	-437.86366	-437.862716	-437.904532	29.041	
N	-0.1363558492	-1.1108749937	-0.4474773487	-0.327128
C	-0.1053701869	 0.0205221481	-0.2161863586	 0.29062
C	-0.0610291219	 1.4683655839	 0.0439917351	-0.106273
O	-0.4889764839	 1.7721916113	 1.3662269583	-0.25572
C	 0.6363707461	 2.3187027496	 2.0428708984	 0.005832
O	 1.4134873245	 2.9483041571	 1.058577037	-0.259715
C	 1.3616550559	 2.0651740237	-0.0336895226	 0.39595
C	 2.5905480602	 1.2924612686	-0.4216444877	-0.337318
C	 2.0770056028	 2.4380234773	-1.2811396505	-0.3348
H	-0.7412836645	 1.9642994447	-0.6586513081	 0.140522
H	 0.2888172231	 3.0627459238	 2.7625031193	 0.133239
H	 1.2029597348	 1.5176601659	 2.5451499653	 0.104864
H	 3.4792195598	 1.4761193316	 0.1711688457	 0.132448
H	 2.4766280601	 0.2786294921	-0.7885625855	 0.147537
H	 1.6104846909	 2.2001614491	-2.2313543463	 0.131202
H	 2.6279239383	 3.3715167171	-1.2641467309	 0.138739
42.8456	145.0561	188.0118	246.1213	285.8743	336.9604	455.1264	489.0772	538.6925	591.8566	739.3864	766.9463	788.7542	873.0879	934.0827	945.9926	966.4512	1001.5892	1014.3133	1056.4313	1065.94	1086.7695	1111.1607	1178.2278	1190.5123	1224.0628	1256.3778	1286.7185	1359.6674	1365.3909	1423.0826	1452.2129	1497.8213	1540.2588	2360.4349	2973.4555	3039.5577	3115.4372	3136.9831	3141.9196	3223.6482	3238.6441
N#CC1OCOC11CC1	N#C[C@H]1OCOC21CC2	
InChI=1S/C6H7NO2/c7-3-5-6(1-2-6)9-4-8-5/h5H,1-2,4H2	InChI=1S/C6H7NO2/c7-3-5-6(1-2-6)9-4-8-5/h5H,1-2,4H2/t5-/m1/s1
