19
gdb 58646	2.62916	1.42885	1.06487	2.1313	70.72	-0.2624	0.0756	0.338	1155.809	0.157111	-460.113774	-460.104611	-460.103667	-460.147857	34.16	
C	 0.428290642	 0.0850254079	-0.9424653043	-0.401354
C	-0.0674995211	-0.0671306103	 0.4987810241	 0.044003
O	 0.0586436021	 1.1512759092	 1.2130114939	-0.433678
C	-1.5132569439	-0.5721018248	 0.5671196697	 0.371995
C	-2.368247652	-0.1606537597	 1.6899022376	-0.225399
O	-2.4856525153	 0.4688831799	 0.4015036805	-0.284566
C	-1.8194501971	-1.8709438285	-0.1215906206	-0.027537
C	-3.1006672023	-2.1058933403	-0.7959793395	-0.171729
O	-1.9115138157	-1.8509979779	-1.5483116605	-0.230055
H	 1.4378796989	 0.5030431879	-0.9302325318	 0.120173
H	 0.4429069015	-0.8705255108	-1.472015194	 0.135392
H	-0.2252837324	 0.7627651084	-1.5013352923	 0.125439
H	 0.5689921233	-0.7859612762	 1.0306076673	 0.092852
H	-0.6041491089	 1.7467044748	 0.8384922863	 0.287714
H	-3.2155088795	-0.7833253907	 1.9708639206	 0.114416
H	-1.9458742774	 0.4661590663	 2.4694879748	 0.135131
H	-1.2732443532	-2.7285341816	 0.2764550209	 0.098222
H	-3.4910290164	-3.1198880092	-0.8672134413	 0.114387
H	-3.8348084627	-1.3044672542	-0.8127475915	 0.134594
62.2447	88.2384	177.3468	204.1397	244.8388	285.095	292.0107	369.4795	388.8303	460.2354	477.9688	551.1159	612.4663	705.9944	827.8933	858.6524	878.9356	927.0569	941.7852	958.8026	1022.0844	1059.7028	1091.382	1097.5098	1131.5087	1135.4274	1161.5945	1166.8028	1182.4422	1205.5337	1288.0293	1305.5837	1347.2292	1383.2607	1409.769	1426.4774	1440.3767	1489.1109	1494.3108	1508.7287	1519.4763	3032.7173	3045.709	3089.5757	3097.0242	3101.5935	3118.9497	3134.5459	3192.6102	3204.019	3767.4349
CC(O)C1(CO1)C1CO1	C[C@@H](O)[C@]1(CO1)[C@H]1CO1	
InChI=1S/C6H10O3/c1-4(7)6(3-9-6)5-2-8-5/h4-5,7H,2-3H2,1H3	InChI=1S/C6H10O3/c1-4(7)6(3-9-6)5-2-8-5/h4-5,7H,2-3H2,1H3/t4-,5-,6-/m1/s1
