19
gdb 112076	1.98508	1.5763	0.96056	3.4739	78.33	-0.2414	-0.0141	0.2272	1241.4339	0.158196	-423.031279	-423.022165	-423.021221	-423.066324	32.543	
C	 0.1680519625	 1.1962995019	-0.3798327759	-0.238915
O	 0.0124110026	-0.1841018891	-0.141158047	-0.249719
C	-1.3237432546	-0.5761844922	 0.1733244767	 0.071038
C	-2.2188335849	-0.6313073033	-1.0462491846	-0.086526
C	-2.4499527527	-1.8829816311	-1.4348093737	-0.054888
C	-1.8020872321	-2.9004313156	-0.5307917726	-0.291175
C	-1.3075851021	-2.052684721	 0.6723197917	-0.110115
C	 0.0551903683	-2.4813284238	 1.1815412071	 0.16977
O	 0.2981437256	-2.7386536313	 2.3323842343	-0.26269
H	 1.2373939882	 1.3825195249	-0.5048631965	 0.132273
H	-0.3529675541	 1.5248693163	-1.2907199355	 0.108499
H	-0.2003927685	 1.79680873	 0.4665302602	 0.107928
H	-1.7068012904	 0.098385476	 0.9540887297	 0.07507
H	-2.5740381382	 0.2591722737	-1.5515121625	 0.100877
H	-3.0216904749	-2.171524399	-2.3105702663	 0.103407
H	-2.4929073192	-3.6868673759	-0.2093873558	 0.11955
H	-0.9753333003	-3.4101503951	-1.0471067301	 0.117459
H	-2.0085504613	-2.1431609345	 1.5050570772	 0.100631
H	 0.832845096	-2.5657455111	 0.3933517435	 0.087525
48.0817	64.5387	93.4567	191.5361	194.9824	276.0493	326.2444	365.0823	423.4593	469.8114	523.7837	722.1294	763.6637	793.767	854.7878	909.9948	943.9784	977.0374	983.6713	1004.2103	1013.7953	1101.3946	1105.9286	1127.7072	1146.1329	1181.1842	1183.1491	1213.9347	1270.8178	1295.2334	1311.832	1338.4476	1362.1213	1379.8929	1426.3892	1477.7578	1482.4865	1489.7413	1508.5318	1687.8779	1830.5647	2908.5448	2977.4784	2985.5218	3006.3956	3029.6142	3065.296	3092.1996	3115.7947	3183.2082	3210.7272
COC1C=CCC1C=O	CO[C@H]1C=CC[C@H]1C=O	
InChI=1S/C7H10O2/c1-9-7-4-2-3-6(7)5-8/h2,4-7H,3H2,1H3	InChI=1S/C7H10O2/c1-9-7-4-2-3-6(7)5-8/h2,4-7H,3H2,1H3/t6-,7-/m0/s1
