18
gdb 82745	2.27579	2.21917	1.5656	1.2739	69.87	-0.2261	0.0569	0.283	910.7212	0.14925	-439.030315	-439.023212	-439.022268	-439.061372	29.395	
C	-0.0230714616	 1.4918774425	 0.045799888	-0.507887
C	 0.0161819965	-0.0104853932	 0.035955674	 0.235807
N	 0.9106903133	-0.7176012764	-0.9328657671	-0.346944
C	 0.8207140543	-1.8641318653	-0.020426504	-0.046985
C	-0.6826532622	-2.1216635075	 0.4285356068	-0.009231
O	-0.3550892884	-1.7224240915	 1.7996092668	-0.314073
C	 0.6701251457	-0.9233824732	 1.1803856436	 0.061397
C	-1.3221426939	-0.8082280713	-0.0763960096	 0.147699
O	-2.3796179758	-0.3598701692	 0.7275516013	-0.447575
H	 0.9643869689	 1.9140130018	 0.252398537	 0.123124
H	-0.3603044124	 1.8785878021	-0.9228727877	 0.120435
H	-0.7299663012	 1.8411951115	 0.8039818811	 0.132478
H	 0.4928179637	-0.8585523378	-1.8533619077	 0.210807
H	 1.5152558816	-2.6977722228	-0.1090684352	 0.089994
H	-1.2192899459	-3.0662936704	 0.3634614304	 0.086433
H	 1.4438388632	-0.5399788267	 1.841510725	 0.098077
H	-1.6774461372	-0.8460431546	-1.1110602472	 0.078431
H	-2.1220780585	-0.590320038	 1.6325242846	 0.288012
183.1221	211.6753	234.802	295.1443	381.0219	471.9824	531.5755	558.1048	564.5831	678.8269	716.1195	760.8229	811.2414	838.2391	862.1451	871.6653	882.7057	937.8804	962.803	982.4047	1021.8966	1059.9436	1078.3139	1118.5557	1135.6968	1148.6314	1176.1325	1206.4897	1237.3978	1260.819	1275.3378	1298.9543	1308.4549	1341.2807	1358.7777	1412.5744	1441.9916	1483.8477	1490.4264	3034.3453	3066.0768	3098.8772	3121.2592	3131.3125	3144.7281	3154.9335	3440.7062	3728.5762
CC12NC3C(OC13)C2O	C[C@@]12N[C@@H]3[C@@H](O[C@H]13)[C@H]2O	
InChI=1S/C6H9NO2/c1-6-4(8)3-2(7-6)5(6)9-3/h2-5,7-8H,1H3	InChI=1S/C6H9NO2/c1-6-4(8)3-2(7-6)5(6)9-3/h2-5,7-8H,1H3/t2-,3-,4-,5+,6+/m1/s1
