16
gdb 43063	3.47822	1.81867	1.61971	2.7623	70.87	-0.2303	-0.0156	0.2147	849.7579	0.127032	-400.70856	-400.702613	-400.701669	-400.738755	24.9	
O	-0.038971987	 0.0049794411	-0.0870242172	-0.329868
C	-0.0374899996	 1.1999280288	 0.0086816059	 0.44069
C	-1.1288669704	 2.2790472553	-0.0105990644	-0.200817
C	-1.3498828901	 2.7330343925	 1.460513202	-0.173344
N	-0.2047398135	 3.575913217	 1.810933791	-0.08462
C	 0.29054622	 4.2636835892	 0.6366568672	-0.072257
C	 1.1037995238	 3.1854132492	 1.2881349643	-0.067515
C	 1.037164634	 2.2772533923	 0.0063784447	-0.186909
C	-0.0377079974	 3.2899968868	-0.5317124542	-0.060997
H	-2.0468199366	 2.0946593253	-0.5685173411	 0.095199
H	-2.2587510301	 3.3371170052	 1.5496094425	 0.116616
H	-1.4293917458	 1.8897525851	 2.1522605402	 0.129936
H	 0.3856760345	 5.3422859805	 0.6165306445	 0.101725
H	 1.9521976891	 3.2281771102	 1.9605767118	 0.109172
H	 2.0068068548	 2.1105399108	-0.4626889849	 0.094625
H	-0.0601463955	 3.6074491207	-1.5695677125	 0.088364
136.621	273.0502	412.0235	466.611	530.0736	648.768	709.9197	737.9889	753.8069	807.9605	831.6571	842.8985	867.5626	879.3132	911.2325	944.5271	975.5232	976.0765	1024.385	1033.5417	1061.6578	1079.7573	1112.025	1168.0759	1175.7585	1186.0647	1204.8106	1228.8222	1243.1816	1257.8071	1263.8017	1331.3022	1367.4167	1500.9625	1877.9968	3049.4764	3101.577	3120.3761	3121.1745	3168.8129	3181.3555	3194.7028
O=C1C2CN3C4C3C1C24	O=C1[C@H]2CN3[C@H]4[C@@H]3[C@@H]1[C@@H]24	
InChI=1S/C7H7NO/c9-7-2-1-8-5-3(2)4(7)6(5)8/h2-6H,1H2	InChI=1S/C7H7NO/c9-7-2-1-8-5-3(2)4(7)6(5)8/h2-6H,1H2/t2-,3+,4-,5+,6-,8?/m0/s1
