18
gdb 90572	2.83901	1.32908	1.08441	3.6671	73.51	-0.2568	0.0104	0.2672	1148.8417	0.147547	-439.043446	-439.034962	-439.034018	-439.077832	31.435	
O	-0.2539716785	 1.6361210604	 0.1905362376	-0.441803
C	-0.219188061	 0.2372180268	 0.1299915132	 0.150556
C	 0.2296416083	-0.5942440831	 1.3812715798	-0.28011
C	-1.0633098663	-1.409115637	 1.2809089722	-0.117041
C	-2.2462065738	-0.5217727151	 1.3848704212	 0.115805
O	-2.1806070809	 0.6152644073	 2.2301494703	-0.213103
C	-3.1607683106	 1.5323646851	 2.0709539421	 0.134425
N	-3.010309894	 2.6877457239	 2.5533395716	-0.446708
C	-1.5393738858	-0.5536251941	 0.0687121455	-0.153236
H	-0.7040898241	 1.8916338855	 1.0045933263	 0.304169
H	 0.4040288137	-0.0089433882	-0.7331739231	 0.095496
H	 1.1306922272	-1.1816994686	 1.1962166973	 0.107851
H	 0.3547880484	-0.0262797077	 2.3060358468	 0.118429
H	-1.1452480299	-2.4781739136	 1.4332532708	 0.096935
H	-3.2133769808	-1.0192802925	 1.4166061352	 0.107539
H	-4.0325160716	 1.1550330222	 1.5206539901	 0.096957
H	-3.840061011	 3.2521711888	 2.3832213544	 0.23469
H	-2.0498490393	-0.85295647	-0.8398986815	 0.08915
29.8261	82.4337	133.2799	165.2424	289.1804	351.7679	429.4238	481.3733	491.127	562.3744	666.9473	740.2454	754.5755	817.1413	833.3702	859.7734	935.5102	969.0888	970.4546	1007.8099	1038.9498	1043.9725	1060.4656	1085.0963	1098.8174	1124.865	1154.9763	1201.6405	1235.5787	1271.0757	1279.0819	1292.5877	1314.4867	1345.5178	1410.6919	1435.2432	1441.3775	1486.9909	1745.2572	3036.2492	3071.4064	3081.5903	3127.4512	3131.221	3172.3463	3191.8704	3520.4932	3795.4098
OC1CC2C(OC=N)C12	O[C@H]1C[C@H]2[C@@H](O[CH][NH])[C@@H]12	
InChI=1S/C6H9NO2/c7-2-9-6-3-1-4(8)5(3)6/h2-8H,1H2	InChI=1S/C6H9NO2/c7-2-9-6-3-1-4(8)5(3)6/h2-8H,1H2/t3-,4+,5-,6-/m1/s1
