18
gdb 128490	1.97016	1.79642	0.99992	3.1247	75.79	-0.2354	-0.0004	0.235	1200.8662	0.14539	-439.081472	-439.071785	-439.070841	-439.116519	33.644	
C	 0.01207687	 1.418170856	-0.171400399	-0.253807
O	 0.0275278726	 0.0149167924	 0.0779996252	-0.272502
C	-1.1973302354	-0.5830116079	 0.0595123934	 0.045442
C	-1.9175855081	-1.0119596611	 1.1337720326	 0.351105
C	-1.6772664611	-0.9419390809	 2.5968819664	-0.499079
O	-3.0313838934	-1.6248997715	 0.6939830176	-0.220109
N	-3.0565208703	-1.6059895951	-0.7049788415	-0.209113
C	-1.9627057665	-0.9872804787	-1.0793157117	 0.312316
C	-1.6415531988	-0.8041307697	-2.5265987343	-0.500439
H	 1.0489831421	 1.7558902089	-0.1168587628	 0.134927
H	-0.388877408	 1.6482046018	-1.1664841666	 0.120937
H	-0.5858714377	 1.9477329705	 0.5810190929	 0.118945
H	-2.4577489119	-0.3637118077	 3.1027827611	 0.146347
H	-1.6653644447	-1.9420500009	 3.0424387422	 0.150228
H	-0.7112163701	-0.4666239576	 2.7798771885	 0.14609
H	-1.7245939992	 0.2467613398	-2.8246981884	 0.135399
H	-0.6161537247	-1.1238378388	-2.7362248553	 0.142388
H	-2.3303919948	-1.3889434996	-3.1391065105	 0.150926
57.7712	120.3849	129.3982	145.9461	158.3451	193.0391	244.7396	251.6645	337.8984	447.3318	512.2746	572.6897	638.8625	683.6698	750.497	770.6569	917.9502	1009.0675	1024.655	1047.1311	1054.2103	1066.0843	1067.166	1175.7259	1208.2287	1268.3557	1303.3528	1401.6967	1415.1329	1448.3936	1474.0518	1476.7522	1479.9434	1486.2654	1489.2548	1496.7606	1503.8999	1549.9386	1683.149	3008.6131	3039.2673	3040.7284	3069.5979	3095.8667	3097.6803	3130.4378	3135.2863	3139.1434
COC1=C(C)ON=C1C	COc1c(C)onc1C	
InChI=1S/C6H9NO2/c1-4-6(8-3)5(2)9-7-4/h1-3H3	InChI=1S/C6H9NO2/c1-4-6(8-3)5(2)9-7-4/h1-3H3
