15
gdb 23252	2.93778	1.50654	1.08455	3.728	70.95	-0.2358	-0.0653	0.1705	1066.0682	0.112956	-453.894559	-453.887016	-453.886072	-453.926814	28.839	
O	-0.0402922271	 1.2932089922	 0.2178396883	-0.344993
N	 0.0186945415	-0.0797123828	 0.1067658121	-0.232703
C	-1.126449047	-0.6445092319	 0.0222607014	 0.359686
C	-1.241286424	-2.1114855716	-0.155041793	-0.143612
N	-2.1116182622	-2.7325124848	 0.8842571429	-0.334834
C	-2.6697739656	-2.4369253546	-0.4436590333	-0.051747
C	-3.489454365	-1.1631215767	-0.4502193349	-0.320646
C	-2.5228686223	-0.0513431846	 0.0018110916	 0.32357
O	-2.8338651837	 1.0798269552	 0.2660623982	-0.293717
H	 0.8921813011	 1.5373216281	 0.2538643334	 0.315828
H	-0.409816963	-2.6728029514	-0.5625574286	 0.107364
H	-1.8802794527	-3.7214599734	 0.948819403	 0.239913
H	-2.9286870075	-3.2545906799	-1.1075252378	 0.099293
H	-3.8447726543	-0.9166542707	-1.4581497751	 0.133231
H	-4.3582972281	-1.1993471431	 0.211919902	 0.143365
73.8132	160.4696	214.2409	302.9859	355.1529	430.6745	453.4571	482.3287	509.3908	627.3292	674.9382	691.6047	713.438	813.9399	859.995	885.7649	969.2997	979.2022	1025.9864	1043.8445	1080.0818	1121.7761	1153.508	1185.9412	1217.599	1255.3925	1302.2744	1352.74	1404.4831	1441.7836	1444.0254	1702.7923	1835.3794	3047.463	3106.9805	3169.6198	3197.3502	3498.039	3796.9255
ON=C1C2NC2CC1=O	ON=C1[C@H]2N[C@H]2CC1=O	
InChI=1S/C5H6N2O2/c8-3-1-2-4(6-2)5(3)7-9/h2,4,6,9H,1H2	InChI=1S/C5H6N2O2/c8-3-1-2-4(6-2)5(3)7-9/h2,4,6,9H,1H2/t2-,4-/m0/s1
