18
gdb 37685	3.22357	2.42495	1.98342	1.7127	77.86	-0.2177	0.0653	0.283	776.2667	0.151299	-364.678077	-364.672693	-364.671748	-364.707312	24.732	
C	-0.0263785151	 1.5293304628	 0.2178831723	-0.362021
C	 1.5239548438	 1.4362948069	-0.1020421745	-0.096094
C	 2.1929308573	 0.25593167	 0.7209544481	-0.021532
C	 0.9746275525	-0.5105991033	 1.1738611552	-0.025388
C	 1.197239598	-1.6907420853	 0.224193121	-0.020266
C	-0.2848893133	-1.5001997278	-0.2945559912	-0.356749
C	 0.0503912673	-0.0123581278	 0.0080440884	 0.244456
C	 1.2046647134	 0.2427923491	-1.0070641081	 0.041563
N	 2.2035019836	-0.7253576073	-0.5011353431	-0.188494
H	-0.3703710924	 1.8914980384	 1.1907498768	 0.101961
H	-0.5244080289	 2.08429716	-0.5827077263	 0.110203
H	 2.1135452913	 2.3049391898	-0.3898577345	 0.0754
H	 3.1112660026	 0.3673719352	 1.2944807509	 0.073619
H	 0.5369144821	-0.5571620478	 2.1707574924	 0.067071
H	 1.6078356737	-2.6671878996	 0.475200906	 0.077571
H	-0.5575253784	-1.7643033381	-1.3202449513	 0.104564
H	-0.9612895984	-1.9882332131	 0.4141024172	 0.108407
H	 0.9512123607	 0.2897348578	-2.0675955492	 0.065728
371.0611	388.9272	469.9808	481.7658	702.2516	719.865	735.7404	782.4807	796.0564	799.6944	814.6964	852.5443	860.8557	896.0057	915.4858	927.5913	940.0101	962.7762	980.7759	1022.8719	1025.0107	1044.7706	1084.3249	1099.9218	1151.0116	1156.7495	1165.4929	1181.7623	1185.6523	1198.7431	1207.2698	1212.774	1240.106	1256.7132	1272.5883	1306.9791	1307.8292	1482.8221	1486.7919	3048.3255	3050.4822	3092.5406	3108.768	3109.8624	3111.1646	3127.7815	3134.3837	3140.707
C1C2C3C4C5CC14C2N35	C1[C@H]2[C@H]3[C@@H]4[C@H]5C[C@@]14[C@@H]2N35	
InChI=1S/C8H9N/c1-3-6-5-4-2-8(1,5)7(3)9(4)6/h3-7H,1-2H2	InChI=1S/C8H9N/c1-3-6-5-4-2-8(1,5)7(3)9(4)6/h3-7H,1-2H2/t3-,4+,5-,6-,7+,8-/m0/s1
