18
gdb 87533	2.53175	1.56766	1.16206	3.6473	77.84	-0.2341	-0.0162	0.2179	1099.0012	0.147005	-401.903676	-401.895393	-401.894449	-401.936566	31.47	
C	-0.029325221	 1.5625258325	 0.0227500454	-0.404095
C	-0.0067502636	 0.0515311356	 0.0576102493	-0.048807
C	 1.2577439164	-0.7133759122	-0.2234147961	-0.364802
C	 0.6946205844	-0.6684559813	 1.1770525617	 0.270816
C	 1.3312509952	-0.1443397917	 2.4564785177	-0.183375
N	 0.221750648	 0.0208291579	 3.409359887	-0.334009
C	 0.845166821	-1.3391855444	 3.2300963812	-0.187421
C	 0.246254721	-1.9009566972	 1.9463753946	 0.397408
O	-0.2360020135	-2.9498356565	 1.627418823	-0.328022
H	 0.9244171756	 1.981070805	 0.3610499342	 0.110301
H	-0.2107160963	 1.9285315446	-0.993440232	 0.12142
H	-0.8155888365	 1.9577761041	 0.6732486993	 0.13449
H	-0.9241852911	-0.4316748609	-0.2700567158	 0.104194
H	 1.1946231978	-1.6635630402	-0.7436254526	 0.133521
H	 2.1652093175	-0.1471217041	-0.411318463	 0.116548
H	 2.2764836812	 0.3705600576	 2.5665088458	 0.110658
H	 0.6099800751	 0.3816377838	 4.2828359964	 0.236791
H	 1.2818079689	-1.8629642728	 4.0704008139	 0.114385
99.5956	127.2331	172.3856	196.0323	240.5774	290.2716	393.6456	431.1559	556.8378	620.529	660.2448	764.5199	790.7643	828.2481	840.1946	863.7696	899.1419	905.7353	940.0696	966.0832	1012.4159	1045.8671	1068.2938	1078.2837	1097.554	1119.7982	1128.6297	1175.2527	1193.9857	1264.6116	1283.4782	1326.2744	1361.6088	1413.2548	1431.957	1484.0332	1491.3943	1504.7149	1886.2248	3032.4934	3095.8237	3104.7262	3123.2721	3140.7269	3201.0753	3211.8829	3213.2795	3449.7902
CC1CC11C2NC2C1=O	C[C@H]1C[C@]21[C@H]1N[C@H]1C2=O	
InChI=1S/C7H9NO/c1-3-2-7(3)5-4(8-5)6(7)9/h3-5,8H,2H2,1H3	InChI=1S/C7H9NO/c1-3-2-7(3)5-4(8-5)6(7)9/h3-5,8H,2H2,1H3/t3-,4+,5-,7-/m0/s1
