18
gdb 11285	4.53689	1.30654	1.10406	5.1209	72.27	-0.242	0.0305	0.2725	1089.175	0.155652	-344.00698	-343.998962	-343.998018	-344.040385	29.59	
C	-0.1280903671	 1.4926698239	 0.0124952891	-0.42012
C	 0.0366079087	-0.020738907	-0.0198516528	 0.080785
C	 0.8059334686	-0.5784778966	-1.2294817494	-0.218219
C	 1.2528465033	-1.9559179954	-0.7277338618	-0.230187
C	 1.5698468884	-1.6909395898	 0.7754190257	-0.129
N	 0.7733794926	-0.5114652172	 1.1642145503	-0.300481
C	 1.2626311518	-2.8602782108	 1.6167395235	 0.299166
N	 1.0375237667	-3.7901079726	 2.2650916511	-0.330217
H	 0.8466992289	 1.9939364238	-0.0313892235	 0.111901
H	-0.7207362354	 1.8358936778	-0.8403601665	 0.12578
H	-0.6367892512	 1.8104599789	 0.9276422769	 0.132158
H	-0.9633873066	-0.4786461161	-0.0077527306	 0.087197
H	 0.1996132982	-0.6357579987	-2.1376939501	 0.105914
H	 1.6750472885	 0.0572354747	-1.4427022516	 0.096346
H	 0.4356402746	-2.6780877697	-0.8111130982	 0.13031
H	 2.1154180413	-2.3685631812	-1.2543656212	 0.117883
H	 2.6418472787	-1.4913607019	 0.8958565747	 0.117536
H	 1.3807331201	 0.2124620377	 1.5272234643	 0.223246
21.7805	149.3662	185.4196	244.0669	260.5658	318.2312	429.9355	515.6779	551.9042	566.8569	592.6589	729.8346	832.0159	849.1292	896.5188	925.4883	972.4017	985.8808	1016.7979	1058.3202	1097.8256	1134.5239	1172.4675	1212.7863	1215.2398	1295.4194	1314.4761	1335.9608	1351.604	1360.1653	1388.4376	1409.6854	1467.3325	1486.511	1493.7002	1500.3844	1502.321	2356.2691	2990.2599	3024.3996	3025.6719	3031.3749	3067.8646	3094.5159	3099.706	3115.9115	3122.3249	3553.551
CC1CCC(N1)C#N	C[C@H]1CC[C@@H](N1)C#N	
InChI=1S/C6H10N2/c1-5-2-3-6(4-7)8-5/h5-6,8H,2-3H2,1H3	InChI=1S/C6H10N2/c1-5-2-3-6(4-7)8-5/h5-6,8H,2-3H2,1H3/t5-,6+/m0/s1
