17
gdb 77582	2.92379	1.43043	1.22806	3.3135	68.64	-0.2441	0.0642	0.3083	1066.3291	0.133676	-458.897076	-458.888695	-458.887751	-458.929885	31.735	
C	-0.1102502562	 1.5459056178	 0.0751081633	-0.515611
C	 0.1694499505	 0.0839344527	-0.0290916961	 0.394145
O	-0.7281973407	-0.8437418678	 0.6050669804	-0.298037
C	 0.6748654	-0.9097139872	 0.9477617781	-0.168782
C	 1.3246572296	-1.7133371295	-0.1511767018	 0.432073
C	 2.5649916528	-2.4847095837	-0.1690206174	-0.275603
O	 1.2803602206	-3.119681151	-0.2576337765	-0.263443
C	 0.7605811094	-0.7184336595	-1.2172430511	-0.033392
O	-0.1400616247	-1.2077883184	-2.1628673839	-0.429337
H	 0.7815106841	 2.1291708925	-0.1753850515	 0.129122
H	-0.9057834256	 1.8322094006	-0.6211315574	 0.142901
H	-0.4300428358	 1.8060354983	 1.0874921982	 0.137673
H	 0.934607621	-0.8026199473	 1.994342971	 0.113975
H	 3.1646569189	-2.511956391	-1.0778876909	 0.12318
H	 3.1105878712	-2.666667335	 0.7562718348	 0.119249
H	 1.549270313	-0.1855879846	-1.7563732654	 0.096582
H	-0.8310807281	-1.6645182371	-1.6656183838	 0.295304
86.1487	188.0444	198.2732	216.223	227.9852	281.7411	334.5881	441.6788	488.8757	513.4588	581.9601	625.0679	728.5077	794.0131	838.4598	862.191	889.6365	934.6137	979.6948	998.0004	1031.9016	1094.439	1118.0916	1133.0457	1157.0755	1164.9402	1189.8221	1227.6814	1245.5275	1294.8561	1398.7803	1428.7454	1444.7617	1466.337	1482.2191	1492.5296	1537.9438	3038.3571	3078.2559	3080.4314	3102.962	3123.1277	3167.7038	3192.2579	3775.8652
CC12OC1C1(CO1)C2O	C[C@]12O[C@H]1[C@]1(CO1)[C@H]2O	
InChI=1S/C6H8O3/c1-5-3(7)6(2-8-6)4(5)9-5/h3-4,7H,2H2,1H3	InChI=1S/C6H8O3/c1-5-3(7)6(2-8-6)4(5)9-5/h3-4,7H,2H2,1H3/t3-,4+,5+,6-/m0/s1
