20
gdb 70661	2.53232	1.5222	1.10296	4.1644	80.57	-0.2237	0.0328	0.2565	1146.9379	0.172024	-403.177447	-403.168951	-403.168007	-403.210615	32.55	
C	-0.2675749606	 1.4638247143	 0.0153932412	-0.48401
C	-0.0243783449	-0.0239714742	 0.0179116319	 0.373336
C	-0.7924203956	-0.9467934623	 0.944595334	-0.338327
C	 0.6999630567	-0.7520090134	 1.1219664086	-0.092441
C	 1.6432821649	-1.7596471608	 0.4831951253	-0.240752
C	 1.1625109944	-1.8784781228	-0.9792727978	-0.181143
N	 0.411885788	-0.642345737	-1.2203689361	-0.081554
C	 0.0907202545	-0.2540043335	-2.4788060185	 0.127324
O	 0.4311532956	-0.8447016599	-3.4870881393	-0.351673
H	 0.5903975835	 2.0034133869	-0.399096474	 0.130233
H	-1.1555331622	 1.7376181306	-0.563929224	 0.131913
H	-0.4281486376	 1.8111744128	 1.0397753828	 0.124496
H	-1.4425035493	-0.4846440356	 1.6798072788	 0.11664
H	-1.1609726428	-1.889045092	 0.5526614235	 0.118979
H	 1.0432422623	-0.207575957	 1.9947542537	 0.09285
H	 2.6649513558	-1.3676005555	 0.5193794476	 0.113462
H	 1.6466364001	-2.731455819	 0.9852568462	 0.111051
H	 1.9717780787	-1.9623726537	-1.7068285108	 0.138973
H	 0.5134440401	-2.7508949495	-1.1225179195	 0.118921
H	-0.5058689215	 0.6762179716	-2.5026162235	 0.071722
58.627	172.0969	201.8189	221.9308	245.0763	316.3485	336.2476	399.617	430.8744	511.3003	595.0021	656.6813	775.2758	818.1887	835.4459	851.7493	889.2143	951.3025	959.2238	1003.6844	1026.9694	1046.4778	1057.074	1100.322	1116.1392	1127.9691	1139.188	1211.5529	1240.1395	1268.8491	1294.6342	1331.7354	1355.7849	1383.205	1410.4496	1431.9207	1450.5382	1483.2427	1489.1231	1497.3502	1506.4372	1526.5873	1776.8964	2964.5799	3031.6572	3034.1981	3049.9579	3090.2587	3097.3167	3112.7635	3113.1881	3129.3073	3168.1637	3216.2446
CC12CC1CCN2C=O	C[C@]12C[C@H]1CCN2C=O	
InChI=1S/C7H11NO/c1-7-4-6(7)2-3-8(7)5-9/h5-6H,2-4H2,1H3	InChI=1S/C7H11NO/c1-7-4-6(7)2-3-8(7)5-9/h5-6H,2-4H2,1H3/t6-,7+/m1/s1
