16
gdb 25020	4.11284	1.16457	0.97677	2.3821	75.06	-0.1875	0.0304	0.2178	1187.3958	0.124992	-434.054374	-434.046323	-434.045378	-434.087654	29.888	
N	 0.2419527804	 0.9642554743	-0.7184258291	-0.605707
C	 0.1163217652	-0.2218930339	-0.2891860491	 0.464393
N	-0.98869366	-0.7625807937	 0.327765641	-0.334663
C	-0.749233423	-2.0974246165	 0.6590751232	-0.180372
C	 0.4914551157	-2.3853329683	 0.2515846737	 0.380793
O	 1.0512111785	-1.2409763804	-0.3399409943	-0.253939
N	 1.2224634083	-3.5569728708	 0.3320880451	-0.194167
C	 2.1445307662	-3.8905646071	-0.7667303229	-0.228049
C	 2.6754739204	-3.4682454056	 0.5557586855	-0.228073
H	 1.1594488252	 1.1036464988	-1.1318255006	 0.221762
H	-1.822751885	-0.2316187115	 0.4968188846	 0.275295
H	-1.4743197265	-2.7211367198	 1.1501251839	 0.151234
H	 2.1485133863	-4.938460359	-1.0503010653	 0.126507
H	 2.2247801583	-3.1812737913	-1.584497976	 0.139253
H	 3.1109996813	-2.4762484126	 0.6231317747	 0.139219
H	 3.0713695887	-4.2043403326	 1.2485284856	 0.126515
60.2031	100.1734	157.2924	165.1851	319.4165	394.3517	450.3025	501.3125	585.4231	648.9248	706.0968	737.3229	743.9138	764.4928	820.4045	842.4812	900.732	930.1506	957.9206	1037.8036	1043.0528	1086.8759	1113.8906	1133.3068	1147.4124	1183.2085	1202.9121	1224.1273	1354.5041	1372.9444	1406.4564	1485.1996	1510.783	1742.3912	1796.8281	3120.3316	3123.5996	3208.2398	3222.761	3302.0952	3546.4959	3713.8746
N=C1NC=C(O1)N1CC1	[NH][C@H]1NC=C(O1)N1CC1	
InChI=1S/C5H7N3O/c6-5-7-3-4(9-5)8-1-2-8/h3H,1-2H2,(H2,6,7)	InChI=1S/C5H8N3O/c6-5-7-3-4(9-5)8-1-2-8/h3,5-7H,1-2H2/t5-/m0/s1
