19
gdb 77097	2.58828	1.29449	1.03606	3.292	80.48	-0.2344	0.0165	0.2509	1213.1039	0.159182	-382.048603	-382.039747	-382.038803	-382.082471	33.338	
C	-0.1936961905	 1.4051980527	-0.0339429227	-0.409931
C	-0.024371574	-0.1042900077	 0.0679535808	-0.097451
C	 1.1820385773	-0.6823982538	-0.7545014826	-0.116308
N	 1.9375095324	-0.8846782226	 0.5121459083	-0.365867
C	 0.7237575679	-0.6310148671	 1.3032565155	 0.388792
C	 0.7163946543	-0.1221600912	 2.7072777098	-0.321673
C	 0.1883360455	-1.5129465035	 2.388049031	-0.332481
C	 0.8784260194	-1.9040962213	-1.4974077495	 0.26823
N	 0.6530703695	-2.8845136804	-2.0683943961	-0.327143
H	 0.7532188519	 1.9205542731	 0.154058794	 0.133929
H	-0.5531013964	 1.6929066381	-1.027373703	 0.124294
H	-0.9227784889	 1.7631358737	 0.6999899532	 0.123864
H	-0.966695544	-0.6173587662	-0.1341631968	 0.102409
H	 1.6662539332	 0.0305780899	-1.4305278789	 0.119626
H	 2.3356471647	-1.8130584856	 0.6143584053	 0.233237
H	 1.6727105928	-0.0484761488	 3.2147508436	 0.122026
H	 0.0032372821	 0.6496843204	 2.9788194769	 0.116493
H	-0.8823768689	-1.6859747759	 2.4366524166	 0.119988
H	 0.7894677318	-2.3634569037	 2.6955982546	 0.117964
42.9404	148.3269	183.6448	199.3514	227.6494	273.5883	338.0948	349.273	467.148	489.6528	556.0881	622.0436	715.6908	761.2991	803.8524	862.1004	888.9545	910.6588	933.9246	980.1143	1009.6201	1043.208	1052.9705	1072.5441	1090.6206	1103.2212	1125.7962	1185.5954	1213.9244	1241.6865	1282.7796	1297.9502	1331.3341	1384.4935	1404.6671	1412.1858	1456.7621	1492.1536	1495.7586	1503.6899	2345.7467	3034.9573	3047.2624	3085.6087	3103.4591	3114.9978	3119.6524	3127.1441	3200.1793	3217.1153	3521.2471
CC1C(NC11CC1)C#N	C[C@H]1[C@@H](NC21CC2)C#N	
InChI=1S/C7H10N2/c1-5-6(4-8)9-7(5)2-3-7/h5-6,9H,2-3H2,1H3	InChI=1S/C7H10N2/c1-5-6(4-8)9-7(5)2-3-7/h5-6,9H,2-3H2,1H3/t5-,6-/m0/s1
