15
gdb 28358	3.2379	1.43243	0.99943	3.2552	73.7	-0.2233	-0.0382	0.1851	1126.4793	0.113093	-454.030583	-454.022333	-454.021389	-454.063285	30.496	
C	-0.0312721572	 1.523679199	 0.0075322169	-0.47845
C	 0.0025605396	 0.0231717397	-0.0307669349	 0.078704
C	-0.0519445124	-0.7187944358	-1.1719509557	-0.059684
N	-0.0244249307	-2.0832893088	-1.2392674837	-0.368225
C	 0.0685151411	-2.6893828743	-0.094536557	 0.508767
N	 0.1502689867	-4.036231082	-0.0093697476	-0.55635
O	 0.1233111921	-2.0985746979	 1.106054767	-0.239413
C	 0.0938837625	-0.6741192592	 1.228216237	 0.374233
O	 0.1451851122	-0.2317670138	 2.341257378	-0.333215
H	 0.8692892351	 1.9285146964	 0.4816500709	 0.140526
H	-0.105925251	 1.9354387877	-1.0024720004	 0.11918
H	-0.8821002927	 1.8862363292	 0.594329016	 0.140234
H	-0.1261859572	-0.217425808	-2.1345612319	 0.114079
H	-0.0433202677	-4.5606966126	-0.8450085945	 0.280754
H	 0.0250344895	-4.4749040896	 0.8864043998	 0.278859
112.0803	145.4513	159.9954	266.9706	280.4057	316.132	340.9214	418.6131	476.6977	503.5254	541.7774	576.8585	737.817	755.3549	788.4619	802.3962	932.7794	978.3456	1013.1471	1033.5415	1074.1954	1081.1311	1236.2109	1324.8968	1391.1109	1418.4359	1449.2447	1472.4883	1494.7432	1583.9782	1636.8436	1675.0175	1855.1619	3033.9463	3087.8442	3117.0919	3155.1005	3620.6015	3752.7816
CC1=CN=C(N)OC1=O	Cc1cnc(N)oc1=O	
InChI=1S/C5H6N2O2/c1-3-2-7-5(6)9-4(3)8/h2H,1H3,(H2,6,7)	InChI=1S/C5H6N2O2/c1-3-2-7-5(6)9-4(3)8/h2H,1H3,(H2,6,7)
