22
gdb 93228	2.51912	1.32983	0.94637	2.4562	82.94	-0.2095	-0.0133	0.1963	1304.3062	0.194803	-404.384464	-404.375122	-404.374178	-404.418362	35.742	
C	 0.013653509	 1.5631001331	 0.0441299916	-0.406086
C	 0.0152775833	 0.0361141452	-0.0054881263	 0.06171
C	 0.632405248	-0.4999124912	-1.3107630033	-0.199061
C	 0.7095313213	-2.0387286156	-1.3003260479	-0.311153
C	 1.337148082	-2.553916786	-0.0126898691	 0.381658
O	 2.2619759823	-3.3346247687	-0.0008892194	-0.311694
C	 0.7220671576	-1.9635513516	 1.2647469135	-0.051845
C	 1.4400408128	-2.4234460434	 2.5266307619	-0.401788
N	 0.6843119688	-0.4904899137	 1.1906530405	-0.295981
H	 1.0370094489	 1.9551975491	-0.0026106034	 0.111935
H	-0.5399178767	 1.9820657473	-0.8014389393	 0.116484
H	-0.4421584896	 1.9162030294	 0.97245105	 0.127055
H	-1.0267189735	-0.3148231882	 0.0483910211	 0.078011
H	 0.059600613	-0.1567361816	-2.1808938103	 0.098435
H	 1.6447227433	-0.0859158814	-1.4169944245	 0.099234
H	-0.3090026282	-2.4490914666	-1.35851466	 0.114596
H	 1.275519136	-2.4303188725	-2.1490619393	 0.117249
H	-0.3273022412	-2.2962718882	 1.2986120432	 0.090909
H	 2.4902606532	-2.1148665729	 2.5091571473	 0.120763
H	 0.9610128529	-1.9910182576	 3.4081170274	 0.118689
H	 1.4266718029	-3.5126353743	 2.6031337412	 0.129961
H	 1.6382700841	-0.1355472405	 1.2258003649	 0.210919
69.1789	139.3444	183.0761	206.5874	237.4862	254.3404	283.8196	353.8798	407.2091	430.0522	472.4541	495.9906	571.6315	693.7184	733.4787	800.8789	837.2501	863.8947	909.2456	956.4576	962.775	1004.2967	1029.1163	1067.2688	1105.3698	1131.2287	1146.1727	1172.143	1185.7468	1231.5997	1252.5468	1308.0989	1322.1978	1338.7219	1347.6055	1384.0543	1386.7938	1407.7981	1412.3539	1467.8275	1470.1128	1486.8652	1487.9784	1490.9356	1498.7198	1506.3834	1809.8258	2983.654	2989.3803	3010.6807	3014.9891	3032.1128	3049.0189	3057.6426	3098.8436	3102.3038	3118.0372	3124.6334	3139.0979	3473.918
CC1CCC(=O)C(C)N1	C[C@H]1CCC(=O)[C@@H](C)N1	
InChI=1S/C7H13NO/c1-5-3-4-7(9)6(2)8-5/h5-6,8H,3-4H2,1-2H3	InChI=1S/C7H13NO/c1-5-3-4-7(9)6(2)8-5/h5-6,8H,3-4H2,1-2H3/t5-,6+/m0/s1
