19
gdb 40494	3.99903	1.2466	1.17558	1.8958	78.37	-0.2258	0.0826	0.3084	1112.9169	0.160068	-385.803189	-385.795888	-385.794944	-385.835253	29.481	
C	-0.2802461011	 1.2735885859	-0.3058306366	-0.276889
C	 1.1326620802	 1.143303029	 0.1971980749	-0.260023
C	 0.2468513649	-0.0812507103	 0.10993881	-0.126823
C	-0.2165490074	-0.7661781013	 1.3396558217	 0.307002
C	 0.5004505509	-1.8871816363	 2.1048435588	-0.285575
C	-0.8316510798	-2.0463434504	 2.8754050067	 0.066532
O	-0.925833306	-0.8117290764	 3.6453527108	-0.299339
C	-1.1633231419	-0.1596407901	 2.399637484	 0.047298
C	-1.5868121033	-1.3834540129	 1.6635181318	-0.197987
H	-1.0028911951	 1.7690763567	 0.3327569787	 0.113176
H	-0.4373864939	 1.4480410247	-1.3643955189	 0.112511
H	 1.9468514325	 1.2402303691	-0.512162029	 0.112247
H	 1.3508305957	 1.5283112888	 1.1872941357	 0.118262
H	 0.4723065915	-0.7567708783	-0.7125574186	 0.082103
H	 0.6985804309	-2.7420119875	 1.4520274945	 0.099261
H	 1.3843774416	-1.6456151614	 2.7044735489	 0.098528
H	-1.0988335936	-2.935361306	 3.4423239379	 0.086148
H	-1.5336276074	 0.8567751697	 2.4030882371	 0.106011
H	-2.4469969686	-1.6379196929	 1.0600898817	 0.097559
64.6932	147.9299	189.5157	351.3928	415.7613	460.9246	509.7128	605.3248	752.175	771.5405	780.7833	800.5738	815.5328	833.061	885.195	909.2217	920.6587	930.8886	948.4271	977.9876	1023.0978	1040.7753	1045.3469	1059.455	1080.9973	1083.9942	1135.63	1138.7404	1151.2914	1159.5806	1197.0035	1204.2899	1207.0676	1241.4841	1282.7282	1304.1827	1379.3155	1440.1775	1469.1665	1487.8267	1505.9082	3042.553	3105.1197	3121.3909	3134.9076	3139.7967	3146.1598	3203.3371	3213.1507	3217.2736	3228.5552
C1CC1C12CC3OC1C23	C1CC1[C@@]12C[C@H]3O[C@@H]1[C@@H]23	
InChI=1S/C8H10O/c1-2-4(1)8-3-5-6(8)7(8)9-5/h4-7H,1-3H2	InChI=1S/C8H10O/c1-2-4(1)8-3-5-6(8)7(8)9-5/h4-7H,1-3H2/t5-,6+,7-,8-/m1/s1
