18
gdb 89102	5.26744	0.61843	0.58791	4.8099	74.39	-0.2674	0.0135	0.2809	1829.1178	0.145756	-439.056937	-439.047245	-439.046301	-439.093051	33.799	
O	-0.0774760239	 1.437940304	 0.4075444307	-0.417972
C	-0.0226413887	 0.0599222693	 0.1679699743	 0.091952
C	-0.7049847685	-0.8904331327	 1.1147737434	-0.313013
C	-1.3021007182	-0.609604011	-0.2512808585	-0.041945
C	-2.5683881615	 0.1916908392	-0.3531250747	-0.073747
O	-3.6647592211	-0.6557638848	-0.0185156138	-0.240719
C	-4.8953877323	 0.0081847261	-0.1266593358	-0.180673
C	-5.9765257682	-0.910424436	 0.2448077227	 0.264283
N	-6.84919989	-1.609516913	 0.5319469448	-0.294532
H	 0.4872952552	 1.6300610467	 1.1632017125	 0.291928
H	 0.8908360688	-0.2774497462	-0.3209722342	 0.093275
H	-0.2621034787	-1.8620764498	 1.301739733	 0.118953
H	-1.2158021264	-0.4501045128	 1.9646895681	 0.120804
H	-1.2103828508	-1.3965725376	-0.9932643556	 0.100324
H	-2.5307856472	 1.0564799853	 0.3233175357	 0.10949
H	-2.6995446353	 0.5792220485	-1.3767654773	 0.096971
H	-4.944230178	 0.8901685033	 0.5341687798	 0.137106
H	-5.0796396052	 0.3672988613	-1.153411565	 0.137516
32.5875	84.1145	89.6611	112.9146	173.4366	261.0266	301.8534	326.6921	385.4141	386.9543	479.7153	526.8784	614.9873	774.3805	837.1796	898.8407	926.8704	954.7555	991.9773	1029.1619	1035.6981	1054.9148	1079.5156	1135.7054	1143.4335	1178.1318	1187.7783	1240.3299	1251.8698	1269.1569	1304.7352	1358.9599	1398.469	1425.6855	1454.1611	1490.7133	1495.6109	1523.5258	2373.4664	2961.9666	2973.0971	2985.2651	3032.7093	3103.2428	3136.0105	3160.4028	3225.5199	3809.8795
OC1CC1COCC#N	O[C@H]1C[C@H]1COCC#N	
InChI=1S/C6H9NO2/c7-1-2-9-4-5-3-6(5)8/h5-6,8H,2-4H2	InChI=1S/C6H9NO2/c7-1-2-9-4-5-3-6(5)8/h5-6,8H,2-4H2/t5-,6-/m0/s1
