20
gdb 96410	2.03085	1.64741	1.19472	3.8035	78.08	-0.2263	0.0238	0.25	1125.3626	0.174308	-399.343312	-399.3347	-399.333756	-399.376241	33.45	
N	-0.0915326443	 1.4951739249	 0.0579583174	-0.517188
C	-0.0391181084	 0.0422503946	-0.0246933939	 0.021612
C	-1.4488959057	-0.5519555034	 0.0713741743	-0.191914
C	-1.4200013467	-2.0857183885	 0.0004303029	-0.206277
C	-0.6702372168	-2.5606887818	-1.2521884523	-0.168637
N	 0.6775168386	-1.9928858248	-1.3887934259	-0.283495
C	 0.6950432538	-0.5316246543	-1.2870345484	-0.162436
C	 0.1176808689	 0.0626234323	-2.5076862662	 0.30422
N	-0.3642296579	 0.5614690161	-3.4324917252	-0.336781
H	 0.8412184389	 1.895844308	 0.0125083828	 0.227616
H	-0.6081180792	 1.8728342509	-0.732687449	 0.24171
H	 0.5471126438	-0.3157004979	 0.833272243	 0.079397
H	-1.9148143456	-0.2036805487	 0.9977353437	 0.111871
H	-2.0562743866	-0.1574533636	-0.7554160687	 0.113112
H	-0.9224286467	-2.4868779247	 0.8943154452	 0.091144
H	-2.4402348071	-2.4863485653	 0.0016873833	 0.101513
H	-0.5743325684	-3.650533256	-1.2647844078	 0.10688
H	-1.2377683907	-2.2826223659	-2.1495558458	 0.128425
H	 1.2852607042	-2.3673307416	-0.6668714752	 0.223646
H	 1.7440235258	-0.2118854903	-1.2506567243	 0.11558
100.2016	142.4876	172.1081	255.5713	289.4995	328.6446	339.3607	398.1824	428.5305	443.9423	546.0094	625.072	645.9719	733.7344	776.122	857.4701	868.0051	892.5653	908.1394	949.3046	996.9499	1030.7376	1056.54	1100.3206	1131.9478	1158.7849	1169.2981	1195.29	1259.7561	1272.4506	1300.9106	1337.5752	1363.2258	1370.0759	1380.4903	1386.6968	1418.6739	1480.3335	1486.0339	1494.7113	1497.3418	1662.7862	2351.7829	3005.7402	3011.084	3022.6606	3032.0042	3035.0059	3065.8683	3085.6763	3088.1383	3481.9825	3518.8018	3561.6957
NC1CCCNC1C#N	N[C@H]1CCCN[C@H]1C#N	
InChI=1S/C6H11N3/c7-4-6-5(8)2-1-3-9-6/h5-6,9H,1-3,8H2	InChI=1S/C6H11N3/c7-4-6-5(8)2-1-3-9-6/h5-6,9H,1-3,8H2/t5-,6-/m0/s1
