20
gdb 77881	2.13249	1.61396	1.2753	2.1247	80.41	-0.2222	-0.0176	0.2046	1124.3304	0.168563	-403.125298	-403.115621	-403.114677	-403.159422	35.455	
C	-0.3984108641	 1.6462149236	-0.0761948159	-0.426921
C	-0.0656611048	 0.159026976	-0.1191528469	-0.102996
C	 0.5903088441	-0.5272894427	-1.3351284875	-0.126446
N	 2.001836862	-0.273761829	-1.4848341765	-0.116064
C	 2.6832820311	 0.9811954214	-1.1739904397	-0.326567
C	 1.6260222896	-1.2471963096	-0.466063964	 0.204633
C	 2.1998007421	-2.6320705226	-0.4721826004	-0.498477
C	 1.0552589637	-0.4980271841	 0.7355792487	 0.335976
O	 1.2904733017	-0.5115706993	 1.9105049047	-0.31203
H	 0.4302235151	 2.2749890125	-0.4057068088	 0.124091
H	-1.2584647642	 1.8674404329	-0.7166920166	 0.121539
H	-0.6595407372	 1.9399589113	 0.9457488572	 0.135312
H	-0.9686194332	-0.4098848186	 0.1502191378	 0.10818
H	 0.0556491001	-0.9403403477	-2.1846990662	 0.101051
H	 2.4455002054	 1.4189788343	-0.1966533974	 0.125183
H	 3.7611027309	 0.793336071	-1.2009594479	 0.129507
H	 2.4496404473	 1.712249903	-1.9540039973	 0.127618
H	 2.3512587387	-2.9736676444	-1.4991889481	 0.133774
H	 3.1680601108	-2.6505736094	 0.0396198262	 0.136022
H	 1.5390132508	-3.3355707185	 0.0439746886	 0.126615
103.2722	133.5175	154.7505	173.451	188.5004	207.5302	230.8523	270.5668	337.1393	386.4136	506.8866	561.0097	629.1031	681.1101	704.0016	763.6627	803.2894	893.7851	923.6463	950.6826	984.7157	1046.2931	1070.7367	1097.9551	1129.8282	1151.8304	1161.3134	1183.763	1216.7351	1258.7718	1280.7907	1351.9382	1395.7041	1407.4251	1428.2591	1461.0087	1481.3799	1487.5281	1491.7206	1495.0592	1497.3031	1515.6828	1876.3048	3000.2907	3013.8171	3037.8012	3043.3004	3082.1847	3100.0875	3101.5364	3107.583	3124.2252	3140.589	3164.0094
CC1C2N(C)C2(C)C1=O	C[C@H]1[C@H]2N(C)[C@@]2(C)C1=O	
InChI=1S/C7H11NO/c1-4-5-7(2,6(4)9)8(5)3/h4-5H,1-3H3	InChI=1S/C7H11NO/c1-4-5-7(2,6(4)9)8(5)3/h4-5H,1-3H3/t4-,5+,7+,8?/m0/s1
