19
gdb 89962	2.57518	1.41601	1.07666	3.2484	76.01	-0.249	-0.0288	0.2202	1147.269	0.158546	-423.007428	-422.998847	-422.997903	-423.040958	32.405	
O	 0.5470581929	 0.6780325626	-0.8375681405	-0.427829
C	-0.004924295	-0.295836427	 0.0072932487	 0.160182
C	 0.0734857362	-0.1264643219	 1.5525900619	-0.356084
C	-1.408164909	-0.5671285315	 1.6797141203	 0.274552
C	-2.4379340853	 0.5820378413	 1.8063133467	-0.292152
C	-2.3742336447	 0.8310055603	 0.2737936625	-0.238854
C	-1.5435757411	-0.4668953538	 0.0864873065	-0.106254
C	-1.6821675703	-1.8608306031	 2.3681176668	 0.064077
O	-0.840882225	-2.6290789823	 2.7676373407	-0.255837
H	 0.2483035251	 1.5442458789	-0.5418189425	 0.281045
H	 0.4532143173	-1.2408039433	-0.2979077018	 0.106183
H	 0.7824624174	-0.7798338707	 2.0624435888	 0.135257
H	 0.2434738465	 0.9066636188	 1.8733623158	 0.092347
H	-3.4198306082	 0.2115655025	 2.1187733576	 0.108588
H	-2.154438565	 1.4051654746	 2.4682033743	 0.106144
H	-3.3399602883	 0.8335634808	-0.2343831076	 0.115071
H	-1.8491881944	 1.744264901	-0.0246386115	 0.089265
H	-2.0004467194	-1.2497178894	-0.5201388762	 0.078259
H	-2.7671878696	-2.1028105678	 2.4681506995	 0.06604
66.3282	92.1588	199.8025	221.8174	264.8101	271.3126	339.5652	409.8371	472.3094	537.2091	594.7376	704.3654	750.1941	774.1399	833.0049	859.9053	889.6214	955.9542	960.5544	993.7351	1027.8139	1064.1035	1067.8657	1106.6454	1126.938	1153.1432	1193.8038	1219.2338	1242.6694	1255.487	1266.7852	1279.0763	1304.532	1328.7922	1332.904	1424.7102	1432.3511	1472.384	1478.3962	1497.3912	1809.0075	2847.4163	3042.9261	3049.502	3052.1912	3073.5906	3092.4615	3101.0723	3116.3645	3132.1925	3810.6832
OC1CC2(CCC12)C=O	O[C@H]1C[C@]2(CC[C@@H]12)C=O	
InChI=1S/C7H10O2/c8-4-7-2-1-5(7)6(9)3-7/h4-6,9H,1-3H2	InChI=1S/C7H10O2/c8-4-7-2-1-5(7)6(9)3-7/h4-6,9H,1-3H2/t5-,6-,7+/m0/s1
