20
gdb 71784	2.98389	1.91142	1.72799	1.6833	81.07	-0.2034	0.0751	0.2786	906.8442	0.173485	-365.929537	-365.92292	-365.921975	-365.959944	28.681	
C	 0.0160305552	 1.5531312066	 0.0435901311	-0.51272
C	-0.020351849	 0.0454610411	-0.0193940522	 0.332496
C	 0.4434077012	-0.7352774472	-1.2626122956	-0.221233
N	-0.5194590982	-1.843755921	-0.9412528356	-0.165733
C	-0.0895039129	-2.5784258466	 0.3314042601	 0.002149
C	 1.1988526448	-2.0276023994	 0.9789862012	-0.247675
C	 0.3972000357	-0.7472117236	 1.2964567582	-0.094092
C	-0.9305722923	-1.5894619258	 1.2021936202	-0.050217
C	-1.3054012946	-0.8493131201	-0.0901852802	-0.04449
H	 1.0479296763	 1.9184185321	 0.1172719799	 0.117383
H	-0.4337224672	 2.0000709148	-0.8502038172	 0.115368
H	-0.5281738588	 1.9307945909	 0.917001581	 0.116068
H	 0.1145413696	-0.2518339485	-2.1898172859	 0.099056
H	 1.4935190924	-1.0220201828	-1.3748663982	 0.097853
H	-0.2466060945	-3.6556705951	 0.2592090487	 0.071517
H	 1.4029860989	-2.5847017102	 1.8998220074	 0.099718
H	 2.1230258163	-1.9665377157	 0.3964682527	 0.096513
H	 0.6669554422	-0.1271258469	 2.1521443498	 0.061201
H	-1.5698278096	-1.8559895895	 2.0414969817	 0.065274
H	-2.2915190655	-0.5318270432	-0.4353220469	 0.061564
223.0218	227.4274	280.5177	411.8305	436.288	465.5314	558.7531	666.234	700.1794	736.3214	769.5832	823.6336	836.7867	856.9523	886.6182	910.8344	930.6388	944.0992	967.6422	973.9742	1002.2619	1009.0888	1056.439	1104.1712	1120.7773	1151.9249	1160.0971	1180.9819	1188.3657	1206.3033	1210.6467	1218.604	1237.3742	1250.4999	1276.8591	1287.4216	1304.1202	1356.026	1410.5204	1477.9334	1490.1425	1492.9854	1519.301	3016.4655	3031.2404	3042.3892	3079.234	3080.5471	3082.4063	3088.2774	3089.764	3091.6451	3098.804	3130.5264
CC12CN3C4CC1C4C23	C[C@@]12CN3[C@H]4C[C@@H]1[C@H]4[C@@H]23	
InChI=1S/C8H11N/c1-8-3-9-5-2-4(8)6(5)7(8)9/h4-7H,2-3H2,1H3	InChI=1S/C8H11N/c1-8-3-9-5-2-4(8)6(5)7(8)9/h4-7H,2-3H2,1H3/t4-,5+,6-,7+,8-/m1/s1
