20
gdb 53486	3.82252	0.75343	0.73553	4.4938	88.45	-0.2594	0.0278	0.2872	1637.15	0.167654	-366.018219	-366.007098	-366.006154	-366.056879	38.645	
C	 0.1036235551	 1.5255348697	 0.0290306924	-0.499692
C	 0.0526424131	 0.0701426123	 0.0392116699	 0.102546
C	 0.0267126564	-1.1341104287	 0.0481752315	 0.03588
C	-0.0048721677	-2.5913433139	 0.059439829	-0.368695
C	-1.4526957547	-3.1832754743	-0.0049948758	 0.076291
C	-2.276701279	-2.740618212	 1.2220443661	-0.403972
C	-2.1548634491	-2.7626750866	-1.3128987369	-0.403926
C	-1.3214620695	-4.6495020762	 0.0140337176	 0.26837
N	-1.2113800019	-5.8001964899	 0.0292891457	-0.343989
H	 0.816504975	 1.8919676599	-0.7176451692	 0.152548
H	-0.8750976879	 1.9559465454	-0.2094216032	 0.150107
H	 0.4105160995	 1.9202173912	 1.0037081189	 0.151707
H	 0.5695389232	-2.9846787702	-0.787820722	 0.142029
H	 0.4851980898	-2.9692180968	 0.9647326385	 0.142052
H	-2.3494593275	-1.6503172628	 1.2335389226	 0.136401
H	-3.2844377646	-3.1619818866	 1.1838678006	 0.131526
H	-1.8037987033	-3.066942816	 2.1524225181	 0.131398
H	-1.5946978162	-3.1038167453	-2.1878607141	 0.131436
H	-3.1616144718	-3.1849464962	-1.3646616036	 0.131564
H	-2.226268349	-1.6728425631	-1.3498218163	 0.136418
5.6454	58.4165	82.4215	164.0389	192.3894	208.3353	236.7156	254.064	271.1795	347.5203	356.5105	374.1885	387.9656	475.8783	570.9713	582.5028	725.9174	779.5241	879.818	900.0096	957.6321	981.0324	1042.8737	1053.2416	1053.9971	1138.0211	1168.1905	1211.4341	1226.6281	1288.6789	1348.5633	1398.4209	1415.1757	1421.6365	1469.0411	1477.4449	1478.714	1483.7563	1485.4445	1501.1983	1508.9482	2351.8898	2369.7977	3028.2761	3028.6902	3046.1484	3049.578	3062.7773	3090.0971	3090.5415	3122.1649	3124.321	3129.9645	3133.3449
CC#CCC(C)(C)C#N	CC#CCC(C)(C)C#N	
InChI=1S/C8H11N/c1-4-5-6-8(2,3)7-9/h6H2,1-3H3	InChI=1S/C8H11N/c1-4-5-6-8(2,3)7-9/h6H2,1-3H3
