20
gdb 111955	3.20768	1.16295	0.90777	2.9654	82.54	-0.2082	0.	0.2082	1335.3281	0.170683	-403.202403	-403.192956	-403.192012	-403.236959	34.283	
C	-0.152947441	 1.5710111299	 0.0279052505	-0.391271
C	-0.0621479081	 0.0455061509	-0.0409153616	-0.166452
C	 0.7953655675	-0.4649864339	-1.2155841556	-0.17676
C	 2.2838524858	-0.239114137	-1.1126870843	-0.160452
C	 2.9004972742	-1.4226804909	-1.1835331608	-0.028577
N	 1.9882945689	-2.4808894349	-1.3305945456	-0.083124
C	 2.3173157852	-3.8861134598	-1.3994970958	-0.352555
C	 0.6914650034	-1.995612865	-1.3476631265	 0.409623
O	-0.3137806495	-2.6692486884	-1.4315738025	-0.396297
H	 0.8317176038	 2.0295634149	 0.1675398898	 0.115924
H	-0.585037164	 1.9837335587	-0.8906344056	 0.11638
H	-0.7848669059	 1.8866921978	 0.8636976131	 0.116694
H	 0.3503434643	-0.3472141678	 0.8962137526	 0.100247
H	-1.0605717699	-0.3913210759	-0.1522017365	 0.123163
H	 0.3939529964	-0.031764754	-2.1434998016	 0.112658
H	 2.7675109149	 0.7200972353	-1.0113064709	 0.108062
H	 3.9574140621	-1.6496696723	-1.1498996125	 0.12425
H	 2.9428849442	-4.1080707898	-2.2714804208	 0.130119
H	 2.8423078027	-4.2191450768	-0.4967552968	 0.12971
H	 1.3759067948	-4.431568841	-1.4866161886	 0.168656
70.4217	105.5198	126.2673	146.5028	195.0032	237.3385	296.7812	300.7422	329.8537	499.9593	561.31	617.1887	694.1927	714.5305	735.8253	780.4885	865.3184	905.9984	926.1878	977.0604	991.3831	1057.1865	1091.6866	1112.0106	1116.749	1154.8204	1158.0015	1237.8208	1259.0195	1285.9419	1323.7884	1345.3523	1364.3975	1411.6399	1414.2994	1457.5521	1489.3456	1494.9398	1499.0441	1506.7575	1511.9557	1666.526	1808.2714	3005.6665	3022.9245	3031.1065	3035.4049	3073.4166	3076.3063	3101.1023	3104.4964	3142.8176	3225.7364	3257.1599
CCC1C=CN(C)C1=O	CC[C@H]1C=CN(C)C1=O	
InChI=1S/C7H11NO/c1-3-6-4-5-8(2)7(6)9/h4-6H,3H2,1-2H3	InChI=1S/C7H11NO/c1-3-6-4-5-8(2)7(6)9/h4-6H,3H2,1-2H3/t6-/m0/s1
