17
gdb 72040	2.4734	1.96606	1.52195	1.0308	66.06	-0.212	0.065	0.277	911.8642	0.136628	-458.939609	-458.932299	-458.931355	-458.97073	30.025	
O	-0.1284390294	 1.3474216788	 0.0768468863	-0.465483
C	 0.015232563	-0.0257740238	 0.0600583244	 0.314058
C	 1.1049446942	-0.7821577899	 0.8174813934	-0.291888
C	 0.6442484566	-2.1823104315	 0.356610641	 0.05214
C	-0.8399591581	-2.2080919425	 0.7827577095	-0.291878
C	-1.2160174974	-0.9282527859	 0.0385409031	 0.313965
O	-2.4823631231	-0.3778508575	 0.0360080432	-0.465436
C	-0.2643303647	-0.9068993856	-1.1515792678	-0.083854
O	 0.5710899864	-2.0475696509	-1.0813186371	-0.260816
H	 0.5661031751	 1.7306090727	-0.4704897477	 0.286194
H	 2.113280959	-0.5415954918	 0.4662009333	 0.098111
H	 1.0495628745	-0.6490237144	 1.9010428793	 0.109284
H	 1.2664152824	-3.0371012042	 0.6120493709	 0.085796
H	-1.3642964998	-3.0910394516	 0.4039448859	 0.098136
H	-0.9753657365	-2.133896189	 1.8649020961	 0.109258
H	-3.0441379516	-0.915205137	-0.5335914831	 0.286182
H	-0.5113384006	-0.5464076659	-2.1408108407	 0.10623
219.0745	227.8798	266.5424	272.9323	377.7953	398.8303	425.2105	466.2041	544.4841	617.836	622.6149	687.2219	737.2348	808.1571	890.836	907.8456	930.2277	942.4892	946.4637	981.8697	1023.7832	1072.2371	1078.6639	1122.21	1152.2914	1194.7289	1211.1283	1230.0974	1277.9165	1281.167	1292.2134	1319.7297	1340.5111	1367.231	1468.004	1476.4311	1511.5079	3052.3215	3055.871	3108.1825	3112.7602	3149.6662	3217.9895	3792.1266	3792.3074
OC12CC3CC1(O)C2O3	O[C@@]12C[C@H]3C[C@]1(O)[C@@H]2O3	
InChI=1S/C6H8O3/c7-5-1-3-2-6(5,8)4(5)9-3/h3-4,7-8H,1-2H2	InChI=1S/C6H8O3/c7-5-1-3-2-6(5,8)4(5)9-3/h3-4,7-8H,1-2H2/t3-,4+,5+,6-
