15
gdb 11107	4.6391	1.29693	1.13908	3.02	65.55	-0.2555	-0.0401	0.2154	1052.2451	0.116877	-399.795399	-399.787203	-399.786259	-399.829079	27.754	
C	 0.2558832222	 1.4517831714	-0.0213906591	-0.341077
N	 0.3627293543	 0.0015049268	 0.0635192213	-0.318418
C	 0.4781382321	-0.6687642744	-0.9802070037	 0.479679
C	 0.6098260959	-2.1455854677	-1.2899933511	-0.407077
C	 0.6543682998	-1.6416068204	-2.7618204792	 0.032447
O	 0.5185627799	-0.2740978338	-2.3166959037	-0.250855
C	 1.94701681	-1.9179668065	-3.4939764497	 0.143494
O	 2.8456656613	-1.132518829	-3.6208730096	-0.221816
H	 1.0645242308	 1.9015150032	 0.5642629022	 0.133229
H	 0.2996786816	 1.8448189572	-1.0432520001	 0.131976
H	-0.6864779603	 1.7669196081	 0.4394254379	 0.12976
H	 1.5236491993	-2.6133496646	-0.918574827	 0.148124
H	-0.2530663582	-2.7562183696	-1.0226354382	 0.146249
H	-0.1979056454	-1.9513505992	-3.378257501	 0.113031
H	 2.0035238369	-2.9553400014	-3.9000587989	 0.081252
62.5651	74.3896	103.8983	187.5643	227.0221	264.8105	323.0771	516.8922	557.3759	670.2063	720.0798	818.4547	899.1114	940.6201	969.2778	1032.3176	1049.1971	1086.7473	1115.7937	1132.0845	1139.6537	1179.5287	1233.0551	1266.0541	1359.9975	1417.1747	1440.9165	1467.3687	1493.2946	1497.6305	1846.2836	1863.7358	2860.8943	3022.1691	3046.6518	3087.5686	3088.8519	3094.5	3146.1728
CN=C1CC(O1)C=O	CN=C1C[C@@H](O1)C=O	
InChI=1S/C5H7NO2/c1-6-5-2-4(3-7)8-5/h3-4H,2H2,1H3	InChI=1S/C5H7NO2/c1-6-5-2-4(3-7)8-5/h3-4H,2H2,1H3/t4-/m1/s1
