19
gdb 56502	2.60795	1.23539	1.0392	1.4717	83.33	-0.2553	0.0306	0.2859	1227.639	0.153851	-385.822444	-385.81171	-385.810766	-385.857396	40.103	
C	 0.0294979452	 1.5764481977	 0.0725074964	-0.422034
C	 0.00286648	 0.0358931662	 0.0409433212	-0.159852
C	 0.7736341348	-0.5073342788	 1.1566154907	 0.340794
C	 1.4292046552	-0.9231832649	 2.0744483567	-0.478278
C	-1.4666335943	-0.5297583558	 0.0239724757	 0.151985
C	-1.474736247	-2.0621260776	 0.0808266081	-0.408296
O	-2.1887444491	-0.0936795496	 1.1740211846	-0.445564
C	-2.1365182727	-0.0711087277	-1.2042824074	 0.323551
C	-2.6932462129	 0.3169908372	-2.1970710756	-0.48007
H	 1.0589782102	 1.9376000948	 0.0198929948	 0.130652
H	-0.529039048	 1.9870666966	-0.772675306	 0.129388
H	-0.4032992918	 1.947704764	 1.005808059	 0.125893
H	 0.467232194	-0.2971006785	-0.8965493548	 0.113581
H	 2.0045373131	-1.2989295614	 2.8839967671	 0.194458
H	-1.0288768024	-2.3889599507	 1.0219785848	 0.143941
H	-2.5031743682	-2.4239423899	 0.0252699435	 0.13028
H	-0.9047859979	-2.4829795074	-0.7512726454	 0.12145
H	-2.4366629431	 0.8272338138	 1.0419787018	 0.287686
H	-3.1916860349	 0.6499207018	-3.0742092753	 0.200437
61.416	129.9282	172.6498	178.7641	207.9929	237.5707	242.0534	271.8395	291.8426	350.5108	378.0814	418.8188	483.8417	543.3681	575.0216	604.716	624.3655	635.5143	642.4632	666.6919	737.4362	849.2465	915.6724	945.8853	1018.9354	1037.3286	1107.7864	1111.2971	1164.9516	1187.5484	1309.8492	1331.0526	1362.7742	1399.1782	1407.348	1481.2188	1490.7488	1496.2646	1506.2573	2226.0941	2234.3045	3023.4693	3048.6287	3058.0787	3123.8348	3131.1408	3137.5378	3148.4748	3498.653	3504.1506	3820.0846
CC(C#C)C(C)(O)C#C	C[C@@H](C#C)[C@@](C)(O)C#C	
InChI=1S/C8H10O/c1-5-7(3)8(4,9)6-2/h1-2,7,9H,3-4H3	InChI=1S/C8H10O/c1-5-7(3)8(4,9)6-2/h1-2,7,9H,3-4H3/t7-,8-/m0/s1
