17
gdb 115462	3.48173	1.00551	0.85892	2.767	65.2	-0.2507	-0.0412	0.2095	1318.576	0.134593	-496.092544	-496.083661	-496.082717	-496.127408	31.184	
O	 0.1886170779	 1.2246182493	 0.5932908864	-0.419516
C	 0.0397618179	-0.1273439323	 0.2243793735	-0.065254
C	-1.388831886	-0.4235060384	-0.2307240989	 0.086182
C	-1.6945736457	-1.9119055784	-0.4011797655	-0.136217
O	-2.1469203344	-2.3033889163	 0.8954238249	-0.254744
C	-2.7540950648	-1.1813987005	 1.4915390396	 0.116839
O	-2.3033484933	-0.0240082573	 0.808227536	-0.296293
C	-4.2767270989	-1.2586072086	 1.3392957938	 0.15471
O	-5.0408144484	-1.2383759086	 2.2648518767	-0.227641
H	-0.5292260904	 1.4163622849	 1.20902674	 0.29207
H	 0.7355290893	-0.3140551506	-0.6013519526	 0.111972
H	 0.303004098	-0.8122789425	 1.0476362462	 0.09773
H	-1.6299214379	 0.1691592765	-1.1178897317	 0.104557
H	-2.4651483947	-2.0868267749	-1.1623657978	 0.114493
H	-0.8142751122	-2.5137180245	-0.6421908987	 0.129772
H	-2.491246295	-1.1522352432	 2.5558175898	 0.110195
H	-4.6167307714	-1.3412027047	 0.2825202282	 0.081144
49.7759	67.922	113.9694	145.9823	227.8403	309.6726	353.627	380.0658	425.0771	451.6554	511.1575	756.9847	772.0397	827.8308	910.096	957.4896	992.7002	1009.0076	1030.866	1062.953	1086.6987	1099.9371	1140.3365	1164.1843	1217.7139	1237.3478	1303.44	1313.7647	1327.9479	1357.2197	1378.1217	1400.992	1420.2538	1437.4282	1503.2496	1518.6262	1848.2307	2885.9561	2971.7795	3025.5147	3048.1537	3064.6256	3082.0515	3099.9618	3789.2053
OCC1COC(O1)C=O	OC[C@H]1CO[C@@H](O1)C=O	
InChI=1S/C5H8O4/c6-1-4-3-8-5(2-7)9-4/h2,4-6H,1,3H2	InChI=1S/C5H8O4/c6-1-4-3-8-5(2-7)9-4/h2,4-6H,1,3H2/t4-,5-/m0/s1
