17
gdb 35461	3.31144	1.47678	1.37412	1.1399	76.69	-0.2461	0.0074	0.2536	985.1253	0.137414	-384.652064	-384.644974	-384.64403	-384.683423	28.933	
C	-0.0734992471	-1.2484347467	-0.1712759098	-0.476151
C	-0.0467876016	-0.0516854502	-0.0543481921	 0.321388
C	-0.0031961861	 1.3938768844	 0.0705266117	-0.16213
C	-0.5444353598	 1.9822236685	 1.4192793017	-0.243471
C	 0.677507387	 2.8527787978	 1.8644383481	 0.017643
O	 1.1685999071	 3.3146686185	 0.597964992	-0.241465
C	 1.4501957934	 2.0247987308	 0.0568792983	 0.003331
C	 2.2491364238	 1.363686126	 1.1709068574	-0.071952
C	 1.7715600215	 1.8871553777	 2.2997519677	-0.07545
H	-0.1013093601	-2.3049103982	-0.2725007586	 0.193576
H	-0.5544069982	 1.8430947203	-0.7611625747	 0.113181
H	-1.4206549692	 2.609025032	 1.2419104142	 0.111299
H	-0.8035885415	 1.2094049442	 2.1438277279	 0.115969
H	 0.4469478981	 3.6924295057	 2.5185461198	 0.08439
H	 1.9042466495	 2.1001437683	-0.9295442496	 0.088633
H	 2.9648627091	 0.565218174	 1.0394351461	 0.114107
H	 2.0003678141	 1.6197066868	 3.3221955901	 0.107102
108.7935	151.8525	281.0557	361.6317	451.0368	494.5984	536.7831	588.337	625.1507	632.1783	706.9907	737.0937	783.3714	817.5634	840.1452	863.3155	922.2389	924.3671	938.4369	962.0106	995.4956	1019.4228	1049.355	1068.5709	1119.5799	1153.1576	1188.3125	1237.3122	1263.6168	1274.4281	1311.8368	1320.661	1343.1161	1357.7983	1488.9879	1643.198	2233.9057	3056.9031	3079.4273	3131.1495	3136.1073	3140.1923	3223.0251	3250.3582	3505.0832
C#CC1CC2OC1C=C2	C#C[C@H]1C[C@@H]2O[C@H]1C=C2	
InChI=1S/C8H8O/c1-2-6-5-7-3-4-8(6)9-7/h1,3-4,6-8H,5H2	InChI=1S/C8H8O/c1-2-6-5-7-3-4-8(6)9-7/h1,3-4,6-8H,5H2/t6-,7+,8-/m0/s1
