18
gdb 74681	3.55816	1.41619	1.20044	1.3906	77.1	-0.2402	0.0139	0.2541	1075.9027	0.149763	-401.992311	-401.984793	-401.983849	-402.024499	28.959	
C	-0.2007555433	 1.513485771	-0.0659598852	-0.472346
C	-0.0348940415	 0.0328802994	-0.1133906844	 0.40185
N	-0.3507795889	-0.7330515959	-1.0770378397	-0.315113
C	 0.0503134534	-2.0924675007	-0.6703474743	-0.053703
C	 1.2688307846	-2.5907234731	-1.4131828073	-0.064617
C	 2.3083827128	-2.787371401	-0.6053981038	-0.067468
C	 1.9951936948	-2.4920759554	 0.8426745138	-0.281027
C	 0.5544193972	-1.9433588168	 0.8000588159	 0.075288
O	 0.5150616177	-0.5135222294	 1.0109822321	-0.265399
H	 0.7707558096	 1.9976781839	 0.0756350942	 0.144008
H	-0.6510676497	 1.8622060444	-0.9945155975	 0.150904
H	-0.8322890528	 1.7982641541	 0.7813246102	 0.142972
H	-0.8045673428	-2.768902675	-0.7819172722	 0.08464
H	 1.260643195	-2.7348647663	-2.4868485403	 0.103989
H	 3.285737028	-3.1347641079	-0.9225275703	 0.097262
H	 2.0582195132	-3.3951841809	 1.4631794261	 0.109572
H	 2.6763210811	-1.7586720272	 1.2885371193	 0.12182
H	-0.0932682282	-2.399185303	 1.5527675432	 0.087372
94.7107	132.7931	153.2656	295.9242	305.3754	428.2752	473.3496	604.1088	619.5633	656.8566	753.2702	778.9994	829.8403	867.049	891.4609	939.0103	964.9465	979.3035	991.9149	1015.2788	1041.7113	1049.2262	1068.1626	1093.4963	1129.2712	1197.5324	1236.1946	1252.6293	1298.2061	1310.8054	1333.3103	1368.3753	1384.0502	1413.3552	1475.0726	1475.7075	1476.9042	1685.1805	1735.4053	3026.4285	3037.8424	3050.2554	3066.419	3079.6704	3107.443	3166.0029	3187.402	3216.9285
CC1=NC2C=CCC2O1	CC1=N[C@H]2C=CC[C@H]2O1	
InChI=1S/C7H9NO/c1-5-8-6-3-2-4-7(6)9-5/h2-3,6-7H,4H2,1H3	InChI=1S/C7H9NO/c1-5-8-6-3-2-4-7(6)9-5/h2-3,6-7H,4H2,1H3/t6-,7+/m0/s1
