15
gdb 20628	4.18552	2.02504	1.40101	4.9771	68.56	-0.2389	0.0122	0.2512	865.6326	0.120563	-358.812473	-358.805529	-358.804585	-358.844266	24.911	
C	-0.0787853088	 1.5339464132	 0.0575379939	-0.50495
C	-0.0351071586	 0.04538668	-0.0431573127	 0.140291
C	 0.1127118754	-0.8225225282	-1.1076850787	 0.274504
C	 0.2952622056	-1.3932835194	-2.5141412556	-0.383709
C	 0.2398785824	-2.8070972796	-1.8137786242	-0.168027
N	 0.0714454639	-2.0437483886	-0.5563791131	 0.09301
N	-0.0903160089	-2.0335075617	 0.7714887415	-0.189345
N	-0.1537004567	-0.7524911963	 1.0707978009	-0.235406
H	 0.845199231	 1.9947891691	-0.3081017078	 0.128298
H	-0.9071036654	 1.9577468306	-0.5204809486	 0.128302
H	-0.2116167822	 1.8180391135	 1.1034933835	 0.150115
H	-0.5218291657	-1.202441856	-3.2125596431	 0.137646
H	 1.2469479047	-1.1654357022	-2.9981081084	 0.137636
H	-0.6205853007	-3.4308728076	-2.0622576242	 0.145825
H	 1.1597063441	-3.3936935968	-1.8463673934	 0.145811
52.9495	130.1074	220.865	260.2046	315.5113	479.7293	637.3845	672.8159	697.1186	706.6411	808.0219	869.955	902.7689	991.3488	1056.4394	1069.6533	1074.7406	1133.3644	1169.9822	1179.3616	1200.8152	1218.8999	1273.3904	1293.3956	1333.4301	1415.9624	1471.7523	1484.9442	1486.8304	1495.5431	1525.3948	1602.1849	3036.0447	3078.3737	3082.3266	3086.697	3127.5391	3133.6022	3145.1012
CC1=C2CCN2N=N1	Cc1c2CCn2nn1	
InChI=1S/C5H7N3/c1-4-5-2-3-8(5)7-6-4/h2-3H2,1H3	InChI=1S/C5H7N3/c1-4-5-2-3-8(5)7-6-4/h2-3H2,1H3
