15
gdb 129612	3.32209	1.27083	0.96802	1.4952	71.34	-0.2131	0.0249	0.238	1147.6211	0.114974	-413.021369	-413.013094	-413.012149	-413.054661	30.119	
N	-0.1243305366	 1.3136756878	-0.3470693432	-0.61338
C	-0.1032671268	-0.0577435819	-0.1313655571	 0.324633
C	-1.1287512171	-0.9907680272	-0.0229877699	 0.144652
C	-2.6112630076	-0.769112506	-0.1521599987	-0.466658
C	-2.9481327995	 0.1881936807	-1.21057147	 0.266931
N	-3.1583505455	 0.9827526149	-2.0241378058	-0.32393
C	-0.4643873752	-2.2044976694	 0.2738408337	-0.075955
N	 0.8484189326	-2.0641023803	 0.3520841694	-0.237854
N	 1.0447372665	-0.7407901438	 0.1000357832	-0.253823
H	 0.6966115227	 1.6662459937	-0.8224555088	 0.252079
H	-0.9585493793	 1.6229414004	-0.8321279242	 0.276131
H	-3.1120535828	-1.7179474763	-0.3740362774	 0.164254
H	-3.0609057317	-0.3970748042	 0.7793178317	 0.163702
H	-0.9108212715	-3.177176867	 0.4287535193	 0.109424
H	 1.9807232818	-0.3734700215	 0.1229972879	 0.269794
54.0883	118.4785	193.0917	251.8532	258.5842	320.4142	379.4136	422.2361	450.1094	488.1637	665.8566	672.0318	718.6639	747.8359	774.3998	881.4037	934.2364	936.452	950.6411	1091.3315	1115.8094	1195.038	1236.9063	1258.2849	1307.2173	1360.1836	1394.2609	1460.4515	1464.2291	1567.4303	1637.7412	1672.7988	2352.0095	3010.1076	3070.3789	3232.0045	3530.6139	3619.7231	3673.2549
NC1=C(CC#N)C=NN1	Nc1c(CC#N)cn[nH]1	
InChI=1S/C5H6N4/c6-2-1-4-3-8-9-5(4)7/h3H,1H2,(H3,7,8,9)	InChI=1S/C5H6N4/c6-2-1-4-3-8-9-5(4)7/h3H,1H2,(H3,7,8,9)
