19
gdb 40431	3.44046	1.30202	1.16748	0.9788	74.91	-0.2232	0.0834	0.3066	1119.4389	0.159757	-422.98506	-422.977214	-422.976269	-423.017669	30.567	
C	-0.0446034072	 1.4393950805	-0.2763111971	-0.268278
C	 1.3089480812	 0.8903203277	 0.1034874282	-0.266603
C	 0.1185732001	-0.0325500111	 0.0075135568	-0.080131
C	-0.4687072781	-0.6420774441	 1.2325331508	 0.411846
C	-0.4280072531	-2.1349734556	 1.5287634135	-0.402475
C	-1.7487551787	-1.4073437695	 1.3412695808	 0.029584
O	-2.4209865056	-0.9401732244	 2.4850845176	-0.255968
C	-1.4656124607	-0.217733524	 3.2383990132	 0.007382
O	-0.4478640368	 0.217214161	 2.3557783424	-0.298519
H	-0.5654029938	 2.0299109046	 0.4677281591	 0.124795
H	-0.2126622941	 1.7453648982	-1.3028740644	 0.107661
H	 2.074568165	 0.8172790224	-0.6609265749	 0.108375
H	 1.6775140017	 1.1217750017	 1.095849814	 0.127676
H	 0.0939079544	-0.7012453537	-0.8476057087	 0.083516
H	-0.1140028832	-2.7816557336	 0.7156034392	 0.118501
H	-0.1413198807	-2.4828371587	 2.5151517935	 0.123389
H	-2.4232699485	-1.6263456993	 0.5232040891	 0.11289
H	-1.9462488655	 0.6523914383	 3.6976011652	 0.121083
H	-1.0344698966	-0.8607683403	 4.0230203918	 0.095276
69.8525	146.6306	181.1605	224.7381	303.9668	365.2281	448.6741	490.2395	619.1617	735.6139	750.0951	787.3441	810.9981	819.7762	865.4742	910.8408	940.7289	969.4513	975.4277	998.7633	1019.7519	1057.2249	1067.3557	1071.1234	1084.9476	1095.1707	1128.2307	1154.2923	1162.0979	1201.4877	1218.7113	1220.7481	1245.3599	1288.4232	1347.4808	1435.1673	1439.5086	1460.3917	1477.6125	1509.3475	1552.6207	2963.2038	3068.8497	3130.7695	3138.71	3142.2849	3153.189	3195.3052	3220.6061	3223.337	3237.575
C1CC1C12CC1OCO2	C1CC1[C@]12C[C@H]1OCO2	
InChI=1S/C7H10O2/c1-2-5(1)7-3-6(7)8-4-9-7/h5-6H,1-4H2	InChI=1S/C7H10O2/c1-2-5(1)7-3-6(7)8-4-9-7/h5-6H,1-4H2/t6-,7-/m1/s1
