17
gdb 16445	4.18494	1.96792	1.73783	3.0184	67.68	-0.2235	0.0668	0.2903	813.5091	0.142995	-363.783302	-363.776585	-363.775641	-363.813795	26.705	
C	-0.0678043266	 1.5318470214	 0.0260404061	-0.521373
C	 0.113433463	 0.0461320674	 0.0113240719	 0.337733
N	-0.7894382974	-0.8632782634	 0.7518797357	-0.362516
C	 0.6676515608	-0.9198757662	 1.0152636123	-0.126586
C	 1.2974301286	-1.7930843979	-0.0934815623	-0.089648
C	 0.3831082232	-2.8144884315	-0.8128438298	-0.085023
O	-0.0741577613	-1.8054435738	-1.7539168168	-0.289957
C	 0.7447703252	-0.8022360722	-1.1379832458	 0.077798
H	 0.8191322347	 2.0428447578	-0.3638753755	 0.125531
H	-0.9233685544	 1.8306492851	-0.5912702774	 0.135732
H	-0.2436586335	 1.8987009708	 1.043686204	 0.116955
H	-1.2088324044	-0.3125968719	 1.5010241802	 0.225773
H	 1.0569369225	-0.7477142698	 2.0120297831	 0.090438
H	 2.3588708114	-2.01294158	 0.0026639728	 0.08035
H	 0.9225755659	-3.6153677806	-1.3319488119	 0.09342
H	-0.4399375695	-3.2257156368	-0.2231639602	 0.118801
H	 1.3610844318	-0.2400504087	-1.8461173365	 0.072573
175.6811	200.8411	256.8674	280.8187	352.0778	478.9362	553.426	639.6955	707.3706	807.1811	811.3702	846.7958	874.5559	906.0921	938.7864	967.9695	987.7125	1003.0636	1034.8841	1046.255	1066.7885	1104.3001	1135.4951	1167.7524	1186.5733	1207.8851	1258.3173	1272.2309	1307.3238	1331.8996	1363.5114	1407.986	1437.7576	1481.505	1495.6586	1499.5803	3021.145	3028.3675	3063.9667	3084.9839	3092.5435	3100.3602	3133.1444	3180.0326	3468.0971
CC12NC1C1COC21	C[C@]12N[C@H]1[C@H]1CO[C@@H]21	
InChI=1S/C6H9NO/c1-6-4(7-6)3-2-8-5(3)6/h3-5,7H,2H2,1H3	InChI=1S/C6H9NO/c1-6-4(7-6)3-2-8-5(3)6/h3-5,7H,2H2,1H3/t3-,4+,5-,6+/m1/s1
