18
gdb 35725	2.24455	1.57668	1.01105	5.1704	77.03	-0.2403	0.0172	0.2575	1173.0717	0.14859	-398.075238	-398.066851	-398.065907	-398.108824	30.887	
N	-0.2480522217	-0.8461897797	-0.9610395713	-0.336897
C	-0.1082009461	 0.1777869675	-0.4440780989	 0.323639
C	 0.0364831127	 1.497211572	 0.1726041792	-0.15392
N	 0.1685077417	 1.5065029608	 1.643058334	-0.295541
C	 1.2499174978	 2.517305691	 1.5784133785	-0.183675
C	 1.4249165313	 2.2169943468	 0.0674856802	 0.031368
N	 2.5149660262	 1.3140010358	-0.2059903291	-0.04729
C	 2.9325006843	 1.1981345086	-1.6010803219	-0.217899
C	 3.7755640619	 1.9298548362	-0.6167892632	-0.231226
H	-0.7626599992	 2.1417455448	-0.2205008474	 0.108036
H	-0.6690565408	 1.7722682216	 2.1474812935	 0.228675
H	 0.9302840282	 3.5505654924	 1.7667925477	 0.09638
H	 2.1135124086	 2.2822623083	 2.2066702334	 0.122306
H	 1.4157381958	 3.0962862692	-0.5945104117	 0.06782
H	 3.1975616428	 0.1975138909	-1.9257991782	 0.136994
H	 2.404194663	 1.7944130259	-2.3433041038	 0.113703
H	 3.8106985555	 3.0151766789	-0.7007296629	 0.111283
H	 4.6730775379	 1.474933289	-0.2093357283	 0.126244
75.6209	95.1937	126.6576	207.4592	240.3982	308.5965	355.7696	434.3064	555.8663	574.4536	663.2738	737.6401	810.4236	829.4745	905.7987	927.9303	959.5427	988.0491	1008.0337	1040.5752	1058.619	1097.003	1105.5321	1114.5058	1122.3867	1149.828	1171.4908	1189.1358	1226.0932	1263.2064	1313.9455	1338.1589	1355.7629	1383.1149	1394.9504	1492.5095	1510.5349	1519.7325	2358.1948	2973.4814	3000.1244	3016.8418	3087.8754	3096.7442	3103.7563	3186.9912	3203.3253	3544.4618
N#CC1NCC1N1CC1	N#C[C@H]1NC[C@H]1N1CC1	
InChI=1S/C6H9N3/c7-3-5-6(4-8-5)9-1-2-9/h5-6,8H,1-2,4H2	InChI=1S/C6H9N3/c7-3-5-6(4-8-5)9-1-2-9/h5-6,8H,1-2,4H2/t5-,6-/m1/s1
