17
gdb 82907	3.1678	1.89274	1.61354	1.9311	65.28	-0.2521	0.0625	0.3145	857.8265	0.139576	-458.94276	-458.936651	-458.935707	-458.972933	26.18	
O	-0.0063072004	 1.445738757	 0.1129660463	-0.440646
C	 0.0120534254	 0.0395540045	-0.0122710511	 0.156975
C	-1.3765617975	-0.5336429354	-0.3832959249	-0.146069
C	-1.6322116843	 0.2783406161	-1.6748694105	-0.206968
C	-0.4936587804	-0.4433735167	-2.4116740147	 0.039018
O	-1.0538107961	-1.7699667976	-2.4111277607	-0.23952
C	-0.9236052707	-1.9504876022	-1.0170574556	 0.167936
O	 0.4945043143	-1.9605102001	-0.8739719456	-0.241305
C	 0.6588898822	-0.5939979366	-1.2729064981	-0.029061
H	 0.8710774692	 1.7266483218	 0.3891092074	 0.28816
H	 0.4483394703	-0.4301787177	 0.8746455917	 0.081896
H	-2.1436228626	-0.5632053817	 0.3872690961	 0.075966
H	-2.5845814568	 0.0703160404	-2.1627779364	 0.104262
H	-1.5041332094	 1.3477794459	-1.5201033846	 0.127619
H	-0.1923898072	-0.1432012308	-3.4121745	 0.085638
H	-1.3768302722	-2.8761148013	-0.671914877	 0.098085
H	 1.6904978362	-0.3722517356	-1.5396275923	 0.078014
220.5093	273.244	334.8101	442.8281	523.3705	540.9184	652.3022	664.9598	688.4697	763.6621	827.8395	835.8559	875.379	910.0109	917.7665	929.4243	935.4887	974.2545	982.1696	1029.6059	1037.567	1063.5212	1122.9531	1139.6006	1162.8923	1189.3735	1230.6709	1237.455	1245.0615	1260.7734	1277.2785	1305.4201	1307.9238	1333.1319	1345.4336	1421.8973	1492.0079	3057.8432	3100.1707	3142.6314	3145.8969	3158.8874	3165.8118	3169.9457	3829.8681
OC1C2CC3OC2OC13	O[C@H]1[C@H]2C[C@@H]3O[C@H]2O[C@H]13	
InChI=1S/C6H8O3/c7-4-2-1-3-5(4)9-6(2)8-3/h2-7H,1H2	InChI=1S/C6H8O3/c7-4-2-1-3-5(4)9-6(2)8-3/h2-7H,1H2/t2-,3+,4+,5+,6+/m1/s1
