21
gdb 88182	3.3053	1.19513	1.04409	1.3062	86.45	-0.2266	0.0236	0.2502	1242.7768	0.1834	-387.084682	-387.076168	-387.075224	-387.117596	33.296	
C	-0.0682386735	 1.5353658118	-0.0765252954	-0.41439
C	 0.0357572699	 0.0268141099	 0.0059842812	-0.041784
C	 1.3405698833	-0.6863773412	-0.2195477532	-0.333715
C	 0.7108323962	-0.6883553148	 1.1654372342	 0.312808
C	 1.3457501306	 0.1090250917	 2.2933031298	-0.17235
O	 2.1073820543	-0.7295073254	 3.1478180656	-0.246853
C	 1.3127498814	-1.6906433067	 3.8155140078	-0.122199
C	 0.34738429	-2.392809538	 2.8996944137	-0.10874
C	 0.1032365994	-1.943783275	 1.6691438033	-0.108658
H	 0.8431792977	 2.0300843946	 0.2708681746	 0.118374
H	-0.233716248	 1.8507230234	-1.1126908481	 0.119541
H	-0.9032998809	 1.9152604676	 0.5223787245	 0.119873
H	-0.8435649223	-0.4888512066	-0.375363033	 0.082182
H	 1.3454289375	-1.6127913243	-0.783757849	 0.11108
H	 2.2327354626	-0.0808047407	-0.3511193886	 0.112301
H	 2.0404957731	 0.8650263111	 1.9198197638	 0.103063
H	 0.5602336077	 0.6240060304	 2.8727922857	 0.087201
H	 2.0153769133	-2.4090154607	 4.2545829186	 0.115306
H	 0.7674429159	-1.225360921	 4.6588962927	 0.09317
H	-0.1345581547	-3.2884000593	 3.2815541488	 0.090018
H	-0.5654874835	-2.4828967168	 1.001478413	 0.08377
87.9797	156.2003	193.9717	200.9161	266.0444	324.345	371.6578	418.5261	470.6699	480.1235	540.9435	684.5036	711.0165	783.3659	856.0256	889.8294	907.5101	931.7203	946.145	982.6273	987.1415	1007.7487	1029.5112	1040.0274	1064.3409	1118.766	1122.4766	1135.0806	1188.1754	1197.5804	1241.6613	1272.6481	1322.488	1337.8274	1369.5877	1400.1016	1412.2572	1416.698	1441.6226	1482.6709	1487.6232	1491.5587	1499.7495	1505.1852	1715.35	2921.5928	2955.9784	3030.4469	3048.4983	3088.1197	3091.364	3104.2151	3121.7215	3124.9396	3142.3919	3173.7877	3208.3592
CC1CC11COCC=C1	C[C@H]1C[C@]21COCC=C2	
InChI=1S/C8H12O/c1-7-5-8(7)3-2-4-9-6-8/h2-3,7H,4-6H2,1H3	InChI=1S/C8H12O/c1-7-5-8(7)3-2-4-9-6-8/h2-3,7H,4-6H2,1H3/t7-,8-/m0/s1
