19
gdb 62233	5.28565	0.55695	0.51881	1.9986	78.24	-0.2575	-0.0371	0.2204	2016.0053	0.157131	-419.218564	-419.208109	-419.207165	-419.255606	35.535	
C	 0.0684534826	 1.5055959628	 0.0880283576	-0.382843
C	 0.0106405248	-0.0299220078	-0.0136186288	-0.158753
C	-1.437727122	-0.5729564087	-0.0066759128	-0.13077
N	-2.0855656229	-0.2663114665	 1.2622796272	-0.31089
C	-3.5086692394	-0.568442385	 1.2997464455	-0.224776
C	-4.1484877025	 0.0178188296	 2.5485276976	 0.147431
O	-5.0908449426	-0.4642917645	 3.1179566078	-0.229525
C	 0.708403906	-0.5056772716	-1.2117938136	 0.265581
N	 1.2455628278	-0.8769068807	-2.1653954264	-0.318092
H	 1.1002547586	 1.8541969998	 0.1719214739	 0.135608
H	-0.377116698	 1.9654738788	-0.7987213228	 0.135251
H	-0.494345207	 1.8249846563	 0.9666138541	 0.140929
H	 0.5359907851	-0.4614301582	 0.8499284884	 0.124726
H	-2.0036982279	-0.0818033348	-0.8069515193	 0.125731
H	-1.4228614264	-1.6497720355	-0.2427169164	 0.110163
H	-1.6138849337	-0.7676755423	 2.0097093875	 0.225891
H	-3.9865162505	-0.0680165701	 0.4439841739	 0.139026
H	-3.771025364	-1.6361741525	 1.2316394058	 0.11835
H	-3.6655478779	 0.9609535208	 2.8910383907	 0.086962
45.203	65.16	71.6352	114.6109	148.1038	195.345	219.0743	247.3729	305.1407	365.5579	402.3236	544.8155	556.4311	575.4885	740.2361	811.3908	830.1378	919.4073	937.2631	1011.8926	1051.1202	1074.5587	1108.2273	1127.4778	1158.1058	1172.5245	1226.401	1295.2247	1307.2339	1333.1022	1342.0602	1392.9742	1403.9648	1419.2231	1472.5167	1492.3068	1501.398	1503.5106	1512.6216	1842.9084	2358.4111	2884.5463	2967.7866	2981.4379	3015.7083	3027.4697	3054.5733	3061.1768	3128.08	3148.6267	3500.6194
CC(CNCC=O)C#N	C[C@@H](CNCC=O)C#N	
InChI=1S/C6H10N2O/c1-6(4-7)5-8-2-3-9/h3,6,8H,2,5H2,1H3	InChI=1S/C6H10N2O/c1-6(4-7)5-8-2-3-9/h3,6,8H,2,5H2,1H3/t6-/m1/s1
