23
gdb 73462	2.65635	1.72328	1.47434	0.0837	87.81	-0.2475	0.0807	0.3283	1039.9197	0.209892	-351.186619	-351.17899	-351.178046	-351.218155	32.035	
C	 0.0650343104	 1.4908821247	-0.0729913718	-0.472236
C	 0.0338845413	-0.0232750871	-0.0355786637	 0.346893
C	-1.2615715148	-0.6354691496	-0.5646839795	-0.266165
C	-1.2729480517	-2.1889920145	-0.5174131676	-0.214153
C	 0.0445774299	-2.7322605375	 0.0596114873	-0.026149
C	 0.2799775	-2.1104486622	 1.4551748807	-0.228859
C	 0.7461630932	-0.7011994665	 1.1157963112	-0.083063
C	 1.3398966693	-0.7480307599	-0.2838686399	-0.083071
C	 1.2256422962	-2.1850377248	-0.7742332803	-0.22886
H	 1.0116224476	 1.8804145035	 0.3152787684	 0.110007
H	-0.0543301649	 1.8648347182	-1.0972792429	 0.110465
H	-0.7444821761	 1.9192627119	 0.5306861735	 0.110468
H	-2.100235177	-0.2303538241	 0.0149592415	 0.094503
H	-1.4183643407	-0.2842511256	-1.5920713011	 0.094506
H	-2.1104544799	-2.5444916728	 0.0925530028	 0.091269
H	-1.4257976825	-2.598621092	-1.5217515196	 0.091267
H	 0.0213856923	-3.8251559494	 0.0863386177	 0.058493
H	-0.6234989905	-2.1388667681	 2.0759361422	 0.087927
H	 1.0683202364	-2.6450812394	 1.9989993506	 0.090952
H	 1.1830794696	-0.0826432443	 1.8931705215	 0.068462
H	 2.2169671553	-0.1642092517	-0.5440949321	 0.068462
H	 2.1515636529	-2.7305381769	-0.5547800163	 0.090954
H	 1.0426565536	-2.270266972	-1.8520435326	 0.087928
118.8799	208.1362	255.1025	305.8612	346.3216	373.7651	439.109	470.8026	545.1536	641.0144	681.6804	805.3779	810.787	826.2765	845.2393	861.9921	903.1979	916.4752	944.8843	986.904	993.9222	1029.1787	1036.5903	1049.027	1067.753	1078.3313	1110.3769	1121.8984	1168.5655	1176.102	1188.5906	1196.3476	1267.7561	1277.4073	1289.346	1300.1351	1314.0591	1344.2149	1355.878	1368.0843	1376.9142	1414.7509	1441.6364	1486.4025	1488.711	1490.4636	1497.924	1502.6624	1518.7012	3013.3089	3017.751	3020.7805	3023.8233	3035.2205	3040.056	3057.5824	3060.1148	3070.0472	3072.5208	3075.1142	3093.0322	3151.9586	3161.9155
CC12CCC3CC1C2C3	C[C@]12CC[C@@H]3C[C@H]1[C@H]2C3	
InChI=1S/C9H14/c1-9-3-2-6-4-7(9)8(9)5-6/h6-8H,2-5H2,1H3	InChI=1S/C9H14/c1-9-3-2-6-4-7(9)8(9)5-6/h6-8H,2-5H2,1H3/t6-,7+,8-,9+
