17
gdb 79302	3.8876	1.2239	1.12771	3.3043	78.9	-0.2368	0.0089	0.2457	1113.8035	0.13764	-380.818539	-380.810989	-380.810045	-380.850532	29.316	
C	 0.0397115689	 1.5970104682	 0.01194982	-0.423935
C	 0.0887574334	 0.0778675798	 0.0056130816	 0.045562
C	 0.7982022828	-0.6767909141	-1.126047216	-0.13581
C	 2.2538600033	-0.8104997622	-0.7107027508	-0.091233
N	 2.4092522547	-0.0681538822	 0.554066704	-0.311934
C	 1.0851883967	-0.6607933059	 0.9454663469	-0.127028
C	 1.2285618491	-1.7945644375	-0.1685353699	 0.275997
C	 1.0801514676	-3.1964057095	-0.2118456731	 0.109313
N	 0.9666757542	-4.3502552892	-0.2239711144	-0.366395
H	 1.0442672725	 2.0169486095	-0.0664877038	 0.143035
H	-0.5632312454	 1.9672700298	-0.8240128842	 0.116317
H	-0.4161664008	 1.9659554834	 0.937373736	 0.11677
H	-0.9072611858	-0.3551432033	 0.1421313851	 0.090128
H	 0.4874692719	-0.8052405757	-2.1549670218	 0.113234
H	 3.059775765	-0.980905125	-1.4120352002	 0.120911
H	 3.1295905905	-0.544269875	 1.0952866031	 0.229096
H	 0.8932783913	-0.8047071009	 2.0058754474	 0.095972
112.2564	145.6162	198.3839	256.7568	287.6567	454.5474	485.074	529.9776	587.9958	621.8722	692.368	744.9492	803.9771	858.4774	872.8704	901.9902	944.1491	987.546	1013.0955	1024.6055	1039.6794	1072.4241	1091.0716	1103.1165	1124.1153	1170.9624	1197.3895	1228.1404	1262.9539	1321.9105	1345.5144	1391.8543	1406.6615	1428.2028	1489.1201	1503.2188	2331.1099	3036.4881	3062.972	3096.2333	3138.1018	3157.2264	3205.2259	3218.0507	3470.8813
CC1C2C3NC1C23C#N	C[C@H]1[C@H]2[C@H]3N[C@@H]1[C@@]23C#N	
InChI=1S/C7H8N2/c1-3-4-6-7(4,2-8)5(3)9-6/h3-6,9H,1H3	InChI=1S/C7H8N2/c1-3-4-6-7(4,2-8)5(3)9-6/h3-6,9H,1H3/t3-,4-,5-,6+,7+/m0/s1
