15
gdb 17025	4.25057	1.59563	1.33564	2.4051	65.87	-0.2659	0.0114	0.2773	917.0752	0.118662	-362.605696	-362.598704	-362.59776	-362.636818	26.445	
C	-0.0290316814	 1.6247426196	 0.0216720179	-0.435666
C	-0.0189695692	 0.1094332907	 0.0072277021	 0.013327
C	 1.203065727	-0.6296425723	-0.610409067	 0.036081
O	 2.0314695492	-0.1948133559	 0.532575982	-0.30402
C	 0.7560479087	-0.6491381881	 1.1230233591	 0.03608
C	 0.8559513113	-1.9130590524	 0.2101070027	-0.14034
C	-0.3193162148	-2.7060546024	-0.101890347	 0.267177
N	-1.2538690831	-3.3402458222	-0.3500259202	-0.33428
H	 0.9566239155	 2.0163653981	 0.2803035679	 0.142364
H	-0.3161263041	 2.0169221135	-0.9593663814	 0.124821
H	-0.7569018312	 1.9977068963	 0.7495223418	 0.124821
H	-0.9928222685	-0.3170461583	-0.2487060563	 0.107297
H	 1.638788167	-0.571618927	-1.6075642283	 0.113238
H	 0.6549530821	-0.6145276074	 2.207514527	 0.113238
H	 1.7263893314	-2.5323217421	 0.4276112295	 0.135863
138.9665	167.7691	221.114	291.5935	296.4163	439.0501	535.0837	539.6645	662.3048	742.0325	790.1148	793.5622	896.6573	901.0998	902.7147	1014.4753	1031.9058	1061.9813	1068.2845	1128.5373	1146.398	1154.1155	1184.8408	1213.5992	1240.9287	1268.2247	1344.1124	1399.2451	1418.1376	1494.391	1503.8135	2352.9288	3042.4279	3079.4602	3101.5522	3121.4206	3126.0228	3132.978	3138.8068
CC1C2OC1C2C#N	C[C@H]1[C@H]2O[C@@H]1[C@H]2C#N	
InChI=1S/C6H7NO/c1-3-5-4(2-7)6(3)8-5/h3-6H,1H3	InChI=1S/C6H7NO/c1-3-5-4(2-7)6(3)8-5/h3-6H,1H3/t3-,4-,5+,6-
