20
gdb 71340	3.20591	1.60759	1.26411	1.6229	84.49	-0.2294	0.0951	0.3246	1055.3555	0.17057	-365.904227	-365.896467	-365.895523	-365.935923	31.696	
C	-0.0535133067	 1.4409701936	 0.0432920955	-0.519098
C	 0.0799946016	-0.0508809862	-0.0228022695	 0.384224
C	 0.548482188	-0.9284636986	-1.1926077078	-0.314873
C	 0.0760429787	-1.9004141768	-0.113343096	 0.005682
C	 0.6268290471	-1.0435678768	 1.0666234474	-0.222744
C	-0.7492153521	-1.0840566161	 1.6844904099	 0.438506
C	-1.4107202465	-1.9323456421	 2.7121375689	-0.368925
C	-1.4292750254	-0.4088352175	 2.822858802	-0.357375
N	-1.1455758816	-1.0009874306	 0.2343860137	-0.238849
H	 0.9230036215	 1.919784886	-0.0876669929	 0.121092
H	-0.7179969493	 1.7999706489	-0.7493572857	 0.130258
H	-0.464252686	 1.7583770124	 1.0060952968	 0.132233
H	-0.0587276659	-0.8817198934	-2.1013492241	 0.104789
H	 1.6181756318	-0.9192149349	-1.4188429462	 0.094699
H	-0.0385546045	-2.9842880159	-0.1421219404	 0.082664
H	 1.6215987475	-1.0699006854	 1.524283111	 0.062968
H	-2.3398914206	-2.4226028777	 2.4403113102	 0.121509
H	-0.7929185378	-2.4883752572	 3.41018405	 0.111777
H	-0.8250370544	 0.0553706116	 3.5960785761	 0.111079
H	-2.3709865156	 0.0924975566	 2.6236511709	 0.120383
144.9944	195.544	210.3696	249.2573	300.5889	333.6464	453.5079	504.1509	553.9526	666.4315	688.3742	767.2907	814.2761	822.6666	843.0693	856.2606	897.0098	902.0443	944.211	966.2425	1001.7743	1012.0806	1030.2931	1044.3207	1073.6452	1075.018	1114.7544	1140.897	1158.4226	1163.25	1185.0329	1190.1401	1222.6634	1237.5856	1287.897	1328.2798	1406.6596	1410.8661	1451.8081	1482.5406	1487.6978	1496.1497	1513.2649	3034.4461	3044.5529	3051.3689	3101.1285	3113.6182	3114.4507	3114.8804	3122.7694	3125.9992	3202.8897	3216.7261
CC12CC3C1C1(CC1)N23	C[C@@]12C[C@H]3[C@@H]1C1(CC1)N23	
InChI=1S/C8H11N/c1-7-4-5-6(7)8(2-3-8)9(5)7/h5-6H,2-4H2,1H3	InChI=1S/C8H11N/c1-7-4-5-6(7)8(2-3-8)9(5)7/h5-6H,2-4H2,1H3/t5-,6-,7+/m0/s1
