14
gdb 5601	3.67577	1.93324	1.30592	2.1287	59.31	-0.1959	0.0419	0.2379	874.4866	0.109269	-415.888941	-415.881873	-415.880929	-415.920235	26.581	
O	 0.1948360231	 1.0280045756	 0.8149972839	-0.423379
C	-0.0188726334	 0.0347453414	-0.2094122424	-0.197052
C	-1.4034298692	-0.5202386571	-0.1173373282	 0.107995
C	-2.1481559036	-0.5901181853	 1.0337704335	 0.332883
O	-1.9068707224	-0.2022021109	 2.3017345001	-0.437417
N	-3.3385425676	-1.1719147859	 0.6875822734	-0.306965
C	-3.2694136152	-1.4330499504	-0.6622529513	-0.011307
N	-2.1259781332	-1.0497669984	-1.1699013589	-0.309418
H	-0.3390758588	 1.7943026197	 0.5758584397	 0.291268
H	 0.1681817744	 0.4437216577	-1.2101844519	 0.121798
H	 0.7502247418	-0.723270711	-0.0196840499	 0.126183
H	-1.0615342487	 0.2779811876	 2.2565711549	 0.306711
H	-4.1080279106	-1.3452700294	 1.3125159071	 0.270963
H	-4.0841070365	-1.8965581037	-1.1967503099	 0.127738
94.9221	199.0743	237.0376	309.1268	373.1174	429.9261	460.3954	497.5925	652.189	680.7607	692.2694	715.4658	758.0077	766.0257	951.616	973.783	1015.0089	1086.3445	1138.9868	1179.4578	1246.5295	1286.9865	1329.7474	1375.7397	1405.1639	1415.8076	1502.936	1509.1758	1563.923	1655.0445	3023.5869	3059.9177	3257.9768	3653.9504	3665.9539	3799.9926
OCC1=C(O)NC=N1	OCc1c(O)[nH]cn1	
InChI=1S/C4H6N2O2/c7-1-3-4(8)6-2-5-3/h2,7-8H,1H2,(H,5,6)	InChI=1S/C4H6N2O2/c7-1-3-4(8)6-2-5-3/h2,7-8H,1H2,(H,5,6)
