14
gdb 14565	7.49847	0.70015	0.68352	0.3546	76.56	-0.2543	0.0312	0.2856	1593.7731	0.103391	-308.163476	-308.154396	-308.153452	-308.19938	31.447	
C	-0.0717262234	-1.1065830287	-0.6768971283	-0.443981
C	-0.0182331046	-0.005601287	-0.2015503504	 0.3171
C	 0.0319141033	 1.3362950881	 0.3823650038	-0.490175
C	 1.3700411557	 1.9307940362	 0.372309065	 0.090302
C	 2.4646538098	 2.4261308904	 0.364529808	 0.090306
C	 3.8027903534	 3.020624469	 0.3554471493	-0.490175
C	 3.8419308604	 4.3687157043	-0.2148826993	 0.317104
C	 3.8864659682	 5.4747371153	-0.6793288576	-0.443985
H	-0.1146853806	-2.0797961546	-1.0992503058	 0.20097
H	-0.66184308	 1.9934551535	-0.1600114967	 0.164378
H	-0.3452415919	 1.2965950152	 1.4136163171	 0.161403
H	 4.1995465148	 3.0492928315	 1.3796857169	 0.161403
H	 4.4860115554	 2.3693943371	-0.2070819242	 0.164378
H	 3.9214626197	 6.4524308796	-1.0919564978	 0.200971
8.0085	75.8903	101.9711	208.0332	259.7685	318.7836	321.1657	362.1278	370.6761	494.7238	580.5371	623.0846	623.3013	649.41	651.2889	795.9616	930.5294	936.9613	937.4582	958.7915	1156.9935	1228.9569	1232.4471	1332.9383	1338.5318	1452.4727	1453.14	2247.7405	2247.748	2386.1633	3008.4588	3008.7939	3033.0185	3033.1672	3507.0081	3507.2655
C#CCC#CCC#C	C#CCC#CCC#C	
InChI=1S/C8H6/c1-3-5-7-8-6-4-2/h1-2H,5-6H2	InChI=1S/C8H6/c1-3-5-7-8-6-4-2/h1-2H,5-6H2
