23
gdb 82816	2.2188	1.90418	1.43076	0.162	88.43	-0.2512	0.0853	0.3366	1061.5522	0.206863	-351.12813	-351.119866	-351.118922	-351.160173	33.951	
C	-0.2489863329	 1.5355842936	-0.025502756	-0.424107
C	 0.0651582408	 0.045938032	 0.0032573116	 0.003287
C	 1.1389834005	-0.5647505311	-0.9386180628	-0.059297
C	 2.5174981111	 0.1420586639	-0.8921264972	-0.229726
C	 2.8257802988	-0.533075003	 0.4659062471	-0.028392
C	 2.0710077172	 0.1134926389	 1.6521759583	-0.280532
C	 0.7583877311	-0.6115650571	 1.2376581678	 0.345057
C	-0.1277883419	-1.1443691232	 2.341968877	-0.500596
C	 1.6035246671	-1.4958393645	 0.2403380405	-0.090637
H	 0.6447366721	 2.149545316	 0.1223503089	 0.116451
H	-0.689564721	 1.8235642574	-0.9869160781	 0.111971
H	-0.9663980255	 1.8030863182	 0.7588118964	 0.112175
H	-0.8636372201	-0.5148967579	-0.1672395692	 0.063314
H	 0.7949248112	-0.9200835107	-1.9113029119	 0.056419
H	 3.1701657911	-0.254643564	-1.6761368696	 0.09548
H	 2.5488614768	 1.2358999943	-0.9418282415	 0.086514
H	 3.8495111742	-0.8646339381	 0.644100589	 0.058393
H	 2.4324869808	-0.2848033488	 2.6060988352	 0.09165
H	 2.0631007974	 1.2068452638	 1.7196627384	 0.086283
H	-0.6045549476	-0.3249591647	 2.8953352937	 0.113448
H	-0.9254890776	-1.7820455504	 1.9437100779	 0.10965
H	 0.4447843466	-1.7373736875	 3.0643630831	 0.109665
H	 1.6322452497	-2.5836314869	 0.2254258615	 0.053529
170.6667	181.3199	205.0861	236.7432	243.0733	302.3833	385.6087	419.0842	538.864	555.6944	594.2783	694.57	767.076	821.0025	834.6966	840.9939	878.4685	895.9837	912.2946	934.2515	965.0975	995.6802	1013.1511	1042.885	1066.5334	1098.8273	1111.9574	1124.4789	1141.8565	1147.6686	1168.5853	1201.311	1212.6809	1237.1377	1245.7051	1261.8038	1293.1642	1306.5145	1314.5088	1347.9453	1382.3164	1406.8546	1412.4797	1474.817	1484.5357	1491.3504	1493.7617	1501.5925	1503.6223	3007.9989	3013.3316	3027.4389	3032.9351	3036.87	3074.255	3078.8918	3080.1601	3085.3631	3086.3648	3087.3163	3094.0328	3105.0374	3131.4866
CC1C2CC3CC1(C)C23	C[C@H]1[C@H]2C[C@H]3C[C@]1(C)[C@@H]23	
InChI=1S/C9H14/c1-5-7-3-6-4-9(5,2)8(6)7/h5-8H,3-4H2,1-2H3	InChI=1S/C9H14/c1-5-7-3-6-4-9(5,2)8(6)7/h5-8H,3-4H2,1-2H3/t5-,6-,7+,8+,9-/m0/s1
