21
gdb 102060	2.1528	1.20119	0.82254	2.8132	85.36	-0.245	-0.02	0.225	1436.8231	0.178218	-387.072376	-387.061337	-387.060392	-387.109207	39.109	
C	 0.0077125553	 1.5904945998	 0.0626557648	-0.393437
C	 0.1325234827	 0.0637469597	 0.0585595935	-0.204964
C	 0.6931079004	-0.5057904532	-1.2672331778	-0.041404
C	 2.1601014263	-0.1178596659	-1.3525638699	 0.163613
O	 2.5868969438	 0.8426967411	-1.9385035543	-0.256293
C	 0.5397216372	-2.0509225591	-1.367516059	-0.182568
C	-0.9288052701	-2.5007878644	-1.5069507643	-0.399262
C	 1.3319626687	-2.566529514	-2.4858056851	 0.310233
C	 1.9727118604	-2.9672188006	-3.4209834896	-0.450934
H	 0.9655639401	 2.07492846	-0.1455104139	 0.141203
H	-0.7019450891	 1.9261548068	-0.7006824589	 0.121257
H	-0.3507832084	 1.9457346284	 1.0333794868	 0.114657
H	 0.7786846607	-0.262720871	 0.8856609207	 0.101908
H	-0.8492362659	-0.3804255628	 0.2510662364	 0.10753
H	 0.1804442164	-0.0360942143	-2.1141357782	 0.099277
H	 2.83997152	-0.7795908531	-0.7647398553	 0.075517
H	 0.9431828267	-2.4850995912	-0.4408494914	 0.108048
H	-1.3770630801	-2.0718463279	-2.407933884	 0.131801
H	-0.9831965347	-3.5892235377	-1.5890854426	 0.131593
H	-1.5244375903	-2.1960771708	-0.6430949203	 0.121906
H	 2.5482943198	-3.32278605	-4.2396688277	 0.200317
45.0966	66.1237	84.6833	125.6037	192.1019	199.0539	221.8654	264.378	266.6968	333.3222	378.6393	389.067	476.6846	543.8991	576.1137	636.7175	648.3397	773.5227	841.7001	881.1543	930.6755	966.0093	997.8996	1028.3202	1056.1863	1093.8828	1124.5017	1146.6755	1169.6504	1257.5332	1260.5877	1319.7829	1338.4594	1349.516	1363.9592	1412.4304	1419.9631	1432.6455	1486.3195	1495.4041	1497.9879	1500.5312	1508.0551	1832.4118	2232.7174	2849.4193	2998.4666	3013.5445	3040.914	3047.9589	3056.6004	3072.6584	3106.9871	3121.7207	3122.6592	3127.3988	3503.3109
CCC(C=O)C(C)C#C	CC[C@@H](C=O)[C@@H](C)C#C	
InChI=1S/C8H12O/c1-4-7(3)8(5-2)6-9/h1,6-8H,5H2,2-3H3	InChI=1S/C8H12O/c1-4-7(3)8(5-2)6-9/h1,6-8H,5H2,2-3H3/t7-,8-/m0/s1
