13
gdb 129106	3.22839	1.29872	0.93152	1.6088	74.83	-0.2388	-0.0734	0.1654	1140.3218	0.090344	-448.955168	-448.94756	-448.946616	-448.987825	27.555	
N	-0.2254547184	 1.2316271303	 0.0079417769	-0.52851
C	 0.0078429499	-0.014108984	 0.0004935967	 0.417485
C	-1.102195545	-1.0658280291	 0.0001541292	-0.401257
C	-0.3126072923	-2.3488186076	-0.0099175962	 0.188362
C	 1.1315111101	-2.0941564018	-0.0151534892	 0.382092
N	 1.2210659663	-0.6943476855	-0.0085005666	-0.38884
O	 2.0653001054	-2.8597954361	-0.0233059135	-0.370574
N	-1.207257052	-4.606623335	-0.0173956853	-0.225245
N	-0.7951411646	-3.5496878607	-0.013755678	 0.128132
H	 0.6337988252	 1.7832018687	 0.0068467526	 0.215762
H	-1.7315487724	-0.9387290316	 0.8868587553	 0.158091
H	-1.7393992463	-0.9297622599	-0.8795967359	 0.15809
H	 2.1219609341	-0.2408323677	-0.0103536359	 0.266412
81.2934	143.1163	145.7923	213.8909	351.1435	466.9777	505.3906	529.3745	541.9195	552.7001	616.0901	678.3297	736.1522	772.5966	866.9726	882.9655	973.7408	1100.3362	1140.3222	1156.5477	1231.8927	1273.6696	1358.4459	1373.361	1432.0666	1476.535	1763.8036	1831.3571	2217.727	3050.5859	3086.2103	3466.0266	3639.0686
N=C1CC2=C(N1)ON=N2	[NH][C]1C[C](C(=O)N1)[N][N]	
InChI=1S/C4H4N4O/c5-3-1-2-4(6-3)9-8-7-2/h1H2,(H2,5,6)	InChI=1S/C4H4N4O/c5-3-1-2(8-6)4(9)7-3/h1H2,(H2,5,7,9)
