18
gdb 86634	3.07323	1.17683	0.93479	3.5062	75.38	-0.2607	-0.0706	0.1901	1270.292	0.146582	-439.116311	-439.107323	-439.106379	-439.150736	32.369	
C	-0.1739064752	 1.692700739	-0.0002734733	-0.407125
C	 0.1888863667	 0.2236243378	-0.1176366257	 0.094165
O	 1.368588046	 0.0913822341	-0.9667132742	-0.253184
C	 2.1607562897	-0.8037599545	-0.3484283734	 0.307208
C	 3.4131419415	-1.2329391568	-1.0373505662	 0.101511
O	 3.7666363327	-0.828238929	-2.1135587101	-0.238279
N	 1.8385133232	-1.2537582832	 0.7996318282	-0.29604
C	 0.5935493477	-0.5560760353	 1.1795195746	-0.002043
C	 0.8376792146	 0.2773325092	 2.4409153121	-0.389139
H	 0.624172646	 2.2662765137	 0.4771231912	 0.132079
H	-0.3514313712	 2.1133538912	-0.9934217136	 0.137547
H	-1.0889150223	 1.8119944947	 0.587789077	 0.125503
H	-0.6162370491	-0.3125096185	-0.6335847315	 0.098153
H	 3.9859923599	-1.9689784899	-0.4407619919	 0.111629
H	-0.166485891	-1.3104315589	 1.4091022982	 0.096923
H	 1.613328586	 1.031172111	 2.2784214701	 0.126358
H	-0.0771337379	 0.7831121722	 2.7634165429	 0.118767
H	 1.1723819327	-0.3787987468	 3.2480350057	 0.135968
42.2293	90.7058	173.3326	206.9409	233.6854	251.5861	274.6563	378.7841	399.5642	490.7949	507.867	639.7558	722.105	740.4316	761.5274	895.8805	911.728	970.448	1012.3584	1028.3052	1043.5895	1076.236	1106.955	1158.7283	1174.1671	1273.9822	1319.1931	1346.0372	1378.9944	1391.0677	1405.6175	1407.7582	1417.4258	1477.8621	1490.5247	1495.6955	1507.7082	1692.1853	1821.7159	2955.7862	3027.3531	3043.7585	3048.8133	3051.3324	3116.4048	3121.8352	3126.4928	3132.2887
CC1OC(C=O)=NC1C	C[C@H]1OC(=N[C@H]1C)C=O	
InChI=1S/C6H9NO2/c1-4-5(2)9-6(3-8)7-4/h3-5H,1-2H3	InChI=1S/C6H9NO2/c1-4-5(2)9-6(3-8)7-4/h3-5H,1-2H3/t4-,5+/m0/s1
