13
gdb 5284	5.19858	1.58439	1.23142	5.3351	62.35	-0.24	-0.0282	0.2118	903.2819	0.098597	-394.85065	-394.843931	-394.842986	-394.881789	24.899	
N	-0.111004068	 1.3781403954	-0.0003505106	-0.557599
C	 0.0266836435	 0.0045878114	-0.1637970711	 0.295017
O	 1.094622343	-0.5174630896	-0.4156297003	-0.342227
C	-1.2227308209	-0.7627607491	-0.0580201665	 0.233147
C	-1.4226268073	-2.1101042718	 0.1416871161	-0.128319
N	-2.7579060492	-2.405727293	 0.1959843943	-0.251542
C	-3.3746773019	-1.2553878091	 0.0193415118	 0.023891
N	-2.4992667456	-0.2250506315	-0.1205862964	-0.333311
H	 0.7754688652	 1.8615426118	 0.0502684872	 0.261664
H	-0.7951341364	 1.7040715586	 0.6667997021	 0.249844
H	-0.6616309485	-2.8649745437	 0.2624152814	 0.138735
H	-4.4444882131	-1.1113203559	-0.0172021839	 0.139963
H	-2.725635311	 0.7201410667	-0.3836411441	 0.270737
93.9493	176.2785	184.3912	400.9424	436.6726	508.2232	559.0563	582.0764	658.4267	676.5937	683.1606	783.9609	832.1168	901.3366	929.8114	1001.3086	1090.7076	1108.1023	1151.0735	1203.6812	1265.5663	1346.3396	1377.591	1433.394	1482.7993	1594.9241	1624.6951	1787.603	3251.3984	3267.0508	3556.139	3658.3199	3671.435
NC(=O)C1=CN=CN1	NC(=O)c1cnc[nH]1	
InChI=1S/C4H5N3O/c5-4(8)3-1-6-2-7-3/h1-2H,(H2,5,8)(H,6,7)	InChI=1S/C4H5N3O/c5-4(8)3-1-6-2-7-3/h1-2H,(H2,5,8)(H,6,7)
