18
gdb 45682	3.46724	1.41364	1.08163	3.3237	80.23	-0.2477	0.0013	0.249	1114.5747	0.149522	-401.952684	-401.945184	-401.944239	-401.984886	29.388	
N	-0.0282884686	 1.107166652	-0.7199918943	-0.512176
C	 0.003436946	 0.0715353068	 0.0085133806	 0.382778
C	-1.2899986498	-0.6322959237	 0.399766536	-0.33051
C	-1.1262486957	-2.1341813511	 0.4867959838	-0.250896
C	 0.0242833914	-2.5562160795	 0.9836969431	 0.31127
C	 0.9193908321	-3.7770993257	 1.0226372051	-0.329601
C	 2.1184120366	-2.7864004599	 0.8170855675	-0.245526
C	 1.1739693301	-1.6262634067	 1.24935769	 0.064765
O	 1.187894732	-0.4335037799	 0.4703835555	-0.256836
H	 0.9200293295	 1.4587873615	-0.8686858537	 0.215959
H	-1.6208724166	-0.2243154867	 1.366276473	 0.135815
H	-2.0422340549	-0.335622807	-0.3315783801	 0.143429
H	-1.9047143337	-2.7886152072	 0.1083401069	 0.103201
H	 0.9492571172	-4.2632694638	 2.0032642484	 0.118217
H	 0.7592517888	-4.5421171481	 0.2600117194	 0.121652
H	 3.0188385534	-2.9450328331	 1.4128089758	 0.108378
H	 2.3822356647	-2.6863803864	-0.2372868636	 0.126512
H	 1.3127496874	-1.3564582114	 2.3045562566	 0.09357
80.1262	114.1874	240.9211	318.3614	341.8647	444.9233	450.416	517.6986	591.86	660.8961	736.572	747.5265	790.3789	852.1456	870.5155	906.6476	924.6784	949.0265	983.3837	998.1074	1056.4739	1069.5542	1110.2992	1122.7895	1146.9057	1189.5955	1205.7769	1224.7114	1259.3763	1261.328	1303.2373	1315.3258	1343.3444	1386.8538	1466.6284	1472.7629	1486.4104	1742.6311	1779.3295	3003.5777	3014.785	3051.218	3078.9194	3107.6815	3127.8482	3143.1932	3181.3902	3460.2236
N=C1CC=C2CCC2O1	[NH][C]1C[CH][C]2CC[C@H]2O1	
InChI=1S/C7H9NO/c8-7-4-2-5-1-3-6(5)9-7/h2,6,8H,1,3-4H2	InChI=1S/C7H9NO/c8-7-4-2-5-1-3-6(5)9-7/h2,6,8H,1,3-4H2/t6-/m1/s1
