16
gdb 127829	4.54273	1.05021	0.8582	2.7662	75.52	-0.2283	-0.0214	0.2069	1295.4877	0.126523	-430.25994	-430.251536	-430.250592	-430.293234	30.569	
C	-0.0426771999	 1.4228403097	-0.0135252664	-0.339287
N	-0.0461696746	-0.0267221606	-0.0229195893	-0.288971
C	 0.5781795009	-0.6227682274	 0.9230197565	 0.261157
N	 1.2877702434	-0.0379760864	 1.9495518616	-0.571774
C	 0.595081216	-2.0943281386	 0.920692361	 0.327721
N	 1.1613768332	-2.8088377218	 1.8991499432	-0.312348
N	 0.9527072832	-4.0605930801	 1.5201240288	-0.071011
N	 0.298590371	-4.2338160221	 0.3765341535	-0.193865
C	 0.0594882334	-2.9884938723	-0.0259807052	-0.119911
H	 0.9763870837	 1.8410454842	-0.0320794118	 0.1147
H	-0.5735060745	 1.7945908182	-0.8933044179	 0.123977
H	-0.5501224291	 1.8406453529	 0.8729627364	 0.104248
H	 1.0734715828	 0.9161101535	 2.1866800343	 0.255435
H	 1.545911792	-0.6360454265	 2.7189252212	 0.268269
H	 1.2748336279	-4.8412917849	 2.0689389235	 0.294812
H	-0.4664383295	-2.7726714878	-0.9399508093	 0.146849
77.3236	142.0716	145.4399	160.2266	302.9436	311.5138	393.9468	408.0036	481.5314	501.4985	515.6396	671.5587	719.7689	743.3164	784.1678	916.2263	975.5736	993.5959	1036.8933	1102.1465	1110.5506	1140.446	1191.0169	1200.3824	1236.6905	1295.6476	1388.0087	1408.2168	1433.2917	1487.1594	1503.326	1510.8482	1567.6236	1633.6407	1722.555	2952.9978	3001.32	3100.5748	3297.9488	3592.0765	3668.711	3710.8421
CN=C(N)C1=NNN=C1	CN=C(N)c1n[nH]nc1	
InChI=1S/C4H7N5/c1-6-4(5)3-2-7-9-8-3/h2H,1H3,(H2,5,6)(H,7,8,9)	InChI=1S/C4H7N5/c1-6-4(5)3-2-7-9-8-3/h2H,1H3,(H2,5,6)(H,7,8,9)
