19
gdb 56330	4.82281	0.54246	0.51516	2.6979	74.63	-0.2487	0.0259	0.2746	2068.4144	0.158179	-456.409231	-456.398479	-456.397535	-456.447939	36.075	
N	-0.0722949415	 1.2473384297	-0.4281109403	-0.521715
C	 0.0540048224	-0.0231877764	 0.0516997437	 0.410601
O	 1.132522756	-0.5069129389	 0.3372301705	-0.359724
C	-1.2637418341	-0.7766112001	 0.2377097923	-0.310958
C	-1.0869811098	-2.2855769432	 0.0551561964	-0.174843
C	-2.3274211892	-3.0731983211	 0.4859924488	-0.167413
N	-2.1652059952	-4.5074738892	 0.3114828935	-0.274771
C	-2.8990970505	-5.2389396058	-0.5693070561	 0.153916
O	-3.7891829014	-4.8081410008	-1.2720570643	-0.323652
H	 0.7620185022	 1.7970161582	-0.5524721534	 0.261624
H	-0.956136009	 1.6362145508	-0.703937362	 0.258977
H	-1.6105563208	-0.56278989	 1.2585851616	 0.129356
H	-2.0345809113	-0.3863887397	-0.437217972	 0.105227
H	-0.8635967636	-2.5119558286	-0.9934337428	 0.116109
H	-0.2114845767	-2.5968297998	 0.6346092847	 0.123231
H	-2.5642087492	-2.8543711847	 1.5361560827	 0.106214
H	-3.1984137524	-2.7964537568	-0.1132130828	 0.147182
H	-1.4275474587	-4.9751032789	 0.814655203	 0.247487
H	-2.5911651072	-6.3036524748	-0.5710576433	 0.073152
24.5376	32.8316	80.595	85.2312	118.9356	128.9778	224.8463	250.696	341.8084	367.5129	478.7374	533.4685	541.846	604.8436	681.9528	734.6012	781.339	856.2259	876.194	996.1444	1029.8164	1052.5373	1065.1667	1080.9143	1123.5345	1195.1921	1219.3153	1255.0739	1302.5221	1325.5341	1337.1734	1399.8545	1410.9855	1431.7763	1465.6021	1486.4509	1504.2478	1536.2904	1617.4248	1796.3092	1806.2276	2933.6377	3012.3552	3016.4563	3047.2756	3057.7047	3089.2588	3114.6163	3604.6513	3630.2109	3742.9279
NC(=O)CCCNC=O	NC(=O)CCCNC=O	
InChI=1S/C5H10N2O2/c6-5(9)2-1-3-7-4-8/h4H,1-3H2,(H2,6,9)(H,7,8)	InChI=1S/C5H10N2O2/c6-5(9)2-1-3-7-4-8/h4H,1-3H2,(H2,6,9)(H,7,8)
