23
gdb 101329	3.27783	0.78542	0.70783	0.9496	82.9	-0.2537	0.0723	0.3259	1692.9545	0.20363	-425.407024	-425.396042	-425.395098	-425.443647	39.691	
C	-0.0050943574	 1.5510781703	-0.1434152242	-0.385279
C	 0.114420376	 0.0282057103	-0.0598190019	-0.182031
C	 0.6497076398	-0.4645435768	 1.2920816661	 0.119231
O	-0.1723044141	-0.0150061855	 2.3747564946	-0.434577
C	 0.8231227945	-1.9709585801	 1.3051502794	-0.040963
C	 2.1721451989	-2.6067183596	 1.0570919948	-0.294905
C	 1.5402183089	-2.6922286065	 2.4224370416	 0.003198
C	 2.1268296747	-1.9639278049	 3.603450691	-0.095017
O	 3.141132454	-2.7935312238	 4.1605429829	-0.424679
H	 0.9776300099	 2.0282086674	-0.0576728175	 0.11244
H	-0.4451135367	 1.8635406055	-1.0952162216	 0.107664
H	-0.6295482527	 1.9313048319	 0.6691121558	 0.128034
H	-0.8683337318	-0.4349697837	-0.2328503571	 0.082921
H	 0.7719573548	-0.3493021181	-0.8527233486	 0.101412
H	 1.6172655114	 0.0165539142	 1.4780403939	 0.081827
H	-1.0109282925	-0.4862700896	 2.3155388024	 0.274944
H	-0.0323016749	-2.5029826053	 0.8903354871	 0.07399
H	 2.2274263408	-3.5009326859	 0.4465352483	 0.110866
H	 3.0221968644	-1.940183373	 0.9448812292	 0.11278
H	 1.1286234556	-3.6609852162	 2.693048313	 0.087433
H	 2.5392036314	-0.9928692781	 3.292202547	 0.083902
H	 1.33591611	-1.7544134264	 4.3390818114	 0.093355
H	 3.4564544451	-2.372513386	 4.9657388325	 0.283453
50.2955	86.3406	96.9952	107.8472	186.8204	222.6943	239.0114	262.6385	283.1441	293.3953	341.7954	402.3771	462.9488	509.1386	600.9152	774.6968	802.1855	839.9351	867.6265	907.4395	924.5963	978.95	1006.0774	1042.3578	1055.0933	1063.5827	1071.7343	1095.0042	1114.8321	1138.0151	1165.359	1181.5611	1230.361	1253.8999	1262.3167	1283.7618	1287.3569	1331.095	1377.4865	1388.8697	1404.5754	1417.7789	1432.3212	1473.3726	1480.3227	1494.6181	1497.0842	1509.4487	1515.9791	2984.3458	3000.8449	3011.0899	3036.3701	3041.3976	3056.1097	3100.1684	3108.3121	3122.5503	3126.9598	3143.3092	3212.0251	3798.1185	3825.3863
CCC(O)C1CC1CO	CC[C@@H](O)[C@H]1C[C@H]1CO	
InChI=1S/C7H14O2/c1-2-7(9)6-3-5(6)4-8/h5-9H,2-4H2,1H3	InChI=1S/C7H14O2/c1-2-7(9)6-3-5(6)4-8/h5-9H,2-4H2,1H3/t5-,6-,7+/m0/s1
