13
gdb 123391	7.83289	0.82766	0.75209	2.247	66.67	-0.269	-0.0112	0.2578	1394.7692	0.088361	-452.694007	-452.686163	-452.685219	-452.72757	27.405	
C	 0.0176169183	-1.1411407381	-0.0046302873	-0.394554
C	 0.0312946426	 0.0585250368	 0.0022125411	 0.292531
C	 0.0030682959	 1.5083786453	 0.0109990108	-0.243909
O	 1.3689833993	 1.994594373	-0.0019362026	-0.250809
C	 1.5336277509	 3.3003814455	 0.0037008101	 0.551981
N	 2.6768076877	 3.9213065034	-0.0059447778	-0.364006
C	 2.2594380764	 5.2252511905	 0.0064325075	 0.060724
N	 0.9698077198	 5.4263698344	 0.022517398	-0.131767
O	 0.4605073396	 4.0994128354	 0.0207435287	-0.217913
H	 0.0108908707	-2.2036457467	-0.0107551125	 0.215836
H	-0.5242607115	 1.8994660383	-0.8660506907	 0.16493
H	-0.5038128238	 1.8891329749	 0.9044976922	 0.164929
H	 2.9440956242	 6.0617100171	 0.0033450524	 0.152027
42.1847	100.6053	115.7067	228.4348	303.887	330.0435	440.6188	522.6019	627.9054	638.7367	703.5503	767.7331	776.7653	883.9078	942.5516	971.7553	973.3828	1004.1087	1016.6566	1059.3936	1215.9062	1255.6371	1282.5559	1351.5625	1394.3743	1488.1452	1554.9454	1654.5898	2256.338	3041.4177	3081.2659	3256.0297	3502.7417
C#CCOC1=NC=NO1	C#CCOc1ncno1	
InChI=1S/C5H4N2O2/c1-2-3-8-5-6-4-7-9-5/h1,4H,3H2	InChI=1S/C5H4N2O2/c1-2-3-8-5-6-4-7-9-5/h1,4H,3H2
