16
gdb 68494	3.08155	1.32846	1.1309	1.4882	74.26	-0.2597	-0.0114	0.2484	1085.843	0.123847	-400.735341	-400.727226	-400.726281	-400.768011	30.206	
C	 0.0104581897	 1.5052645063	 0.0040135266	-0.521395
C	-0.0071298182	 0.0068507035	-0.030671458	 0.186414
C	 0.5433819803	-0.9680595923	-1.1409233866	-0.291551
C	 0.0074355014	-1.9562728447	-0.0505238076	-0.172988
C	 0.6484447476	-0.993875006	 1.0170452782	-0.193286
C	 2.097615808	-0.9736301427	 1.1214310571	 0.274722
N	 3.2486669953	-0.9434442887	 1.2303319555	-0.330613
C	-1.1860777479	-0.9870857819	 0.0149468213	 0.410065
O	-2.3753895652	-0.9900405115	 0.0368396324	-0.31009
H	 1.0351943792	 1.8890528887	-0.0080268631	 0.145196
H	-0.5170532038	 1.9118778757	-0.8643125573	 0.14229
H	-0.4863537529	 1.880107195	 0.9041818652	 0.139884
H	 0.0309575553	-0.9625306144	-2.1037060428	 0.125236
H	 1.6284310549	-0.9593188074	-1.2549275902	 0.146693
H	 0.0411797259	-3.0419275861	-0.0470022276	 0.115754
H	 0.2006498704	-1.0085377933	 2.0132325068	 0.133669
121.71	130.9388	164.4808	210.7064	227.5514	296.8778	441.6309	454.1472	530.1352	585.9118	639.8458	728.6818	758.4286	775.3777	786.4434	880.8207	920.6081	988.4064	1023.7279	1030.1523	1043.0236	1079.3313	1145.0012	1159.8713	1178.1262	1192.1977	1210.133	1338.2151	1373.7311	1417.4053	1484.6198	1488.4217	1518.1159	1926.2415	2350.9371	3040.1252	3080.3022	3092.1158	3111.963	3112.9459	3153.3174	3169.9126
CC12CC(C1C#N)C2=O	C[C@@]12C[C@@H]([C@H]1C#N)C2=O	
InChI=1S/C7H7NO/c1-7-2-4(6(7)9)5(7)3-8/h4-5H,2H2,1H3	InChI=1S/C7H7NO/c1-7-2-4(6(7)9)5(7)3-8/h4-5H,2H2,1H3/t4-,5+,7+/m0/s1
