19
gdb 94784	2.79921	1.45561	1.07653	3.3449	75.89	-0.2389	-0.0347	0.2042	1154.1252	0.158702	-423.042096	-423.033544	-423.0326	-423.075464	32.276	
C	 0.0616820254	 1.5948697938	 0.0266123105	-0.403748
C	 0.1066925449	 0.0707253107	-0.0224540086	-0.08999
C	 0.8291719692	-0.5724716932	-1.224965324	-0.236641
C	 1.1761339781	-2.0058757711	-0.7560044379	-0.320217
C	 1.4872271287	-1.835781848	 0.7190859098	 0.330061
C	 1.8483726085	-2.8900039906	 1.6751558795	-0.238541
O	 2.8393357513	-1.9989334238	 1.177551574	-0.257876
C	 0.8045516239	-0.5574904635	 1.1875109345	 0.353098
O	 0.8369145811	-0.1234492897	 2.3101523076	-0.321427
H	 1.0693385101	 2.0156706616	-0.0537829784	 0.124399
H	-0.5415703188	 1.9997079557	-0.7911176914	 0.114446
H	-0.3639925597	 1.9304590181	 0.97585272	 0.138869
H	-0.9235396285	-0.3212787908	 0.0076942194	 0.10493
H	 0.2275835122	-0.5596816623	-2.1368886739	 0.105261
H	 1.7516273874	-0.0167508413	-1.4326138243	 0.114833
H	 0.3083749903	-2.6646061279	-0.8822269862	 0.109989
H	 2.0162728789	-2.4497602664	-1.2942014999	 0.122988
H	 1.5885610985	-2.7557168614	 2.7238247757	 0.133035
H	 1.9176638086	-3.91823916	 1.3209407837	 0.116531
54.0822	148.0237	194.2844	224.3267	249.1811	273.9075	349.339	391.9424	460.5644	511.6516	580.4074	678.5213	715.9475	787.1071	859.82	875.5879	906.4054	951.038	969.3505	973.7514	1018.3383	1061.3855	1107.0786	1133.676	1137.7781	1171.9273	1183.2177	1211.9331	1250.714	1302.3699	1305.1225	1318.5364	1353.5522	1408.8404	1418.8192	1476.5799	1493.8678	1497.904	1501.1665	1512.1559	1844.2186	2977.0166	3035.0963	3040.18	3042.8367	3080.7901	3100.1917	3108.8199	3112.1879	3123.6688	3176.8079
CC1CCC2(CO2)C1=O	C[C@H]1CC[C@]2(CO2)C1=O	
InChI=1S/C7H10O2/c1-5-2-3-7(4-9-7)6(5)8/h5H,2-4H2,1H3	InChI=1S/C7H10O2/c1-5-2-3-7(4-9-7)6(5)8/h5H,2-4H2,1H3/t5-,7-/m0/s1
