20
gdb 72620	2.42646	1.42781	1.20821	4.2436	84.77	-0.266	0.0321	0.2981	1142.3713	0.170215	-366.017609	-366.008415	-366.007471	-366.050993	34.743	
C	 0.0411050406	 1.5939300497	 0.0286645628	-0.500195
C	 0.1052770885	 0.0943258316	 0.0385872357	 0.293162
C	 0.5673850648	-0.7803774412	-1.1358459708	-0.288097
C	 1.1874301752	-1.7904266554	-0.1158160138	-0.288082
C	 0.7110510528	-0.8927190375	 1.0353408358	 0.293149
C	 1.4402651458	-0.6859011026	 2.3309109795	-0.500197
C	-0.8097492819	-0.7757755232	 0.9042204047	-0.272255
C	-1.5269142409	-0.1386638941	 1.9709435105	 0.279927
N	-2.1048909102	 0.3762458971	 2.8320823378	-0.352332
H	 1.0001524696	 2.0197723344	-0.2857691121	 0.120535
H	-0.7252976047	 1.9471366054	-0.6712182337	 0.129887
H	-0.2038544559	 1.9959154819	 1.0155229968	 0.145109
H	-0.2194641837	-1.1552152316	-1.7979890177	 0.102981
H	 1.3284795831	-0.2873655423	-1.7453486352	 0.110941
H	 0.7985688303	-2.8135553651	-0.1233168083	 0.102975
H	 2.2770559964	-1.8325642956	-0.1848279466	 0.110948
H	 2.4785528732	-0.3890923311	 2.1469398037	 0.120536
H	 0.9676763874	 0.0867288519	 2.9434382172	 0.14511
H	 1.4578146605	-1.6099233146	 2.9206899359	 0.129886
H	-1.3638446613	-1.5879264477	 0.4367367279	 0.11601
132.2952	134.2538	183.0824	192.2568	193.1221	219.0721	315.2495	343.3486	376.0858	447.6462	514.5309	538.3211	667.5712	680.1761	699.6038	781.7799	848.718	921.4639	938.1964	966.4193	981.5715	1022.8168	1027.2929	1089.9583	1114.1336	1148.0753	1183.7007	1219.6867	1223.8265	1235.9451	1241.4465	1325.2938	1343.9537	1414.3465	1418.8119	1434.4516	1479.4327	1486.0942	1489.8419	1494.2367	1498.9566	1509.6594	2344.2867	3028.4847	3029.9198	3047.2222	3054.565	3087.1092	3088.0424	3096.2087	3114.2037	3114.7042	3116.9964	3117.2065
CC12CCC1(C)C2C#N	C[C@@]12CC[C@]1(C)[C@H]2C#N	
InChI=1S/C8H11N/c1-7-3-4-8(7,2)6(7)5-9/h6H,3-4H2,1-2H3	InChI=1S/C8H11N/c1-7-3-4-8(7,2)6(7)5-9/h6H,3-4H2,1-2H3/t6-,7-,8+
