19
gdb 85812	2.66462	1.26345	1.14156	5.0115	76.2	-0.249	0.0308	0.2798	1157.88	0.158641	-419.202572	-419.193065	-419.192121	-419.236327	35.828	
C	-0.7072677347	 1.1705451921	-0.0908552437	-0.406673
C	 0.049879717	-0.1438270098	-0.1434574825	 0.004403
C	 1.3509555375	-0.2744955117	-0.977402483	 0.07281
O	 2.0182668525	 0.979793936	-0.9993216582	-0.424779
C	 1.9080343847	-1.2372428416	 0.1046270093	-0.293761
C	 0.8600379719	-0.6380384138	 1.1166771162	 0.132078
N	 1.3128219687	 0.4714927146	 1.9477902475	-0.554484
C	 0.1786860926	-1.6238289716	 1.9561703531	 0.263508
N	-0.3499098578	-2.4315475494	 2.5923540961	-0.344322
H	-0.0537837769	 2.0063705191	 0.1614482073	 0.135884
H	-1.1647454209	 1.3804138467	-1.0632571215	 0.117297
H	-1.5038554108	 1.1223672587	 0.6571289649	 0.13206
H	-0.6200552267	-0.9552434619	-0.442502286	 0.099749
H	 1.2432917607	-0.6763749129	-1.9918128409	 0.074844
H	 2.8871762389	 0.8495897317	-1.3930604793	 0.289696
H	 1.7118721788	-2.2862361005	-0.1304378451	 0.121294
H	 2.9572619591	-1.1131160011	 0.3852143138	 0.100928
H	 1.9429704783	 0.1308745066	 2.6685574935	 0.235205
H	 1.8365648271	 1.1168986189	 1.3627271487	 0.244262
107.7184	132.2337	153.0601	188.9405	229.6601	264.8206	315.8676	320.5171	364.5765	411.7798	416.6886	536.3907	563.1556	592.5327	625.5388	760.7417	840.6713	866.41	870.4246	940.318	955.7195	990.0063	1008.5226	1063.1652	1086.2554	1145.776	1169.8306	1178.4583	1233.5805	1247.3422	1283.4459	1306.9332	1344.7716	1385.2097	1409.5271	1418.8701	1462.1453	1486.3349	1492.3099	1657.5107	2353.5434	3028.3698	3046.4545	3059.1296	3071.5563	3110.1284	3123.1499	3144.5742	3484.9862	3570.6413	3815.0736
CC1C(O)CC1(N)C#N	C[C@H]1[C@@H](O)C[C@]1(N)C#N	
InChI=1S/C6H10N2O/c1-4-5(9)2-6(4,8)3-7/h4-5,9H,2,8H2,1H3	InChI=1S/C6H10N2O/c1-4-5(9)2-6(4,8)3-7/h4-5,9H,2,8H2,1H3/t4-,5-,6-/m0/s1
