21
gdb 37068	3.05092	1.64451	1.38845	1.3321	80.55	-0.2203	0.0822	0.3025	1020.8064	0.185917	-387.095791	-387.088561	-387.087617	-387.126936	30.424	
C	 0.0305188676	 1.272391248	-0.1467217101	-0.415499
C	 1.4095007616	 0.6419184433	 0.0261606111	 0.284486
C	 2.0170002219	 0.6504651531	 1.4188916254	-0.298113
C	 0.8762826111	 0.1302939963	 2.3415203783	-0.223167
C	 0.0016456659	-0.7953598083	 1.4514120207	-0.293187
C	 0.1764120303	-0.2139514681	 0.0682546793	 0.443078
O	 0.1098712491	-1.0622198481	-1.0447192106	-0.311143
C	 1.0454119865	-0.5739671265	-2.013573903	-0.098751
C	 2.1308799139	 0.2329173953	-1.2450570539	-0.328841
H	-0.3640469606	 1.8865383983	 0.6560027398	 0.109507
H	-0.2479139835	 1.6148335199	-1.1372873924	 0.111476
H	 2.867124914	-0.0430309674	 1.4383382621	 0.09687
H	 2.3923416142	 1.6266484062	 1.7450856847	 0.095633
H	 1.259737546	-0.3862702364	 3.2253361015	 0.10043
H	 0.2777152968	 0.970102443	 2.7089446795	 0.106652
H	 0.3969967601	-1.81750304	 1.4383388168	 0.107088
H	-1.0356081838	-0.8457019683	 1.7972182858	 0.099413
H	 1.4475360153	-1.434200959	-2.5563859403	 0.10907
H	 0.5297445981	 0.0681050827	-2.7410171917	 0.099531
H	 2.5109811493	 1.0607421011	-1.8519381441	 0.10216
H	 2.9817398764	-0.4076261549	-0.9868091888	 0.103307
188.5667	194.0058	234.1479	320.2614	352.0108	431.7542	523.0341	558.9498	584.7648	665.4937	706.9935	754.4925	830.982	850.892	887.1769	901.2123	905.4087	909.1482	942.9062	953.187	996.2932	1019.3746	1032.0812	1061.4401	1072.9481	1106.1488	1185.5069	1200.0186	1220.4369	1235.6197	1239.5153	1249.7848	1263.2109	1302.623	1329.2852	1335.6786	1360.3259	1385.4126	1397.2441	1477.4147	1488.5795	1494.056	1497.3454	1515.0668	1526.6664	3004.7242	3024.8479	3038.3339	3041.8497	3050.0274	3067.0773	3076.4958	3081.9638	3088.6747	3100.9697	3130.4275	3215.0922
C1C23CCCC12OCC3	C1[C@@]23CCC[C@@]12OCC3	
InChI=1S/C8H12O/c1-2-7-4-5-9-8(7,3-1)6-7/h1-6H2	InChI=1S/C8H12O/c1-2-7-4-5-9-8(7,3-1)6-7/h1-6H2/t7-,8+/m0/s1
