15
gdb 49027	2.80161	1.73539	1.35064	2.4362	64.83	-0.2508	-0.0483	0.2025	939.2594	0.111251	-457.687894	-457.6807	-457.679755	-457.719763	27.198	
O	-0.0675674638	 0.0495074915	-0.2615641286	-0.25624
C	 0.0793888102	 1.1436916518	 0.2260069831	 0.072092
C	 1.3239030935	 1.9568794313	 0.0591703471	 0.333459
O	 1.447904096	 3.0680324781	 0.9507812311	-0.324441
C	 1.6907968767	 3.9948275126	-0.1426460843	-0.092653
C	 1.5742539907	 2.8654194957	-1.1905821238	-0.185574
C	 2.8545196671	 2.0434294453	-1.4769650076	 0.025156
O	 3.6973751152	 2.1298939707	-0.3285690591	-0.224859
C	 2.6355925821	 1.1825771881	-0.3002983966	-0.031525
H	-0.7105032187	 1.6426990706	 0.8284977425	 0.095154
H	 0.8983647413	 4.7487251932	-0.1976078227	 0.110566
H	 2.6693152415	 4.473802587	-0.0606278381	 0.127593
H	 0.8487192273	 2.9466206768	-1.9971382121	 0.108566
H	 3.324549817	 1.8403819325	-2.4314153198	 0.118238
H	 2.872647364	 0.1442798547	-0.103307591	 0.124468
92.9679	157.1577	219.2316	250.5313	307.5721	461.6514	472.199	620.3509	652.5053	740.1399	810.8829	826.125	853.3176	882.0794	911.8927	969.0497	996.583	1006.6789	1035.0728	1065.5568	1087.8312	1108.7361	1120.3306	1166.0129	1189.6098	1238.1965	1276.3295	1292.0658	1339.4656	1374.7581	1397.9791	1504.3424	1809.6297	2903.7238	3042.7872	3108.8281	3144.5474	3191.1511	3205.4692
O=CC12OCC1C1OC21	O=C[C@]12OC[C@H]1[C@H]1O[C@@H]21	
InChI=1S/C6H6O3/c7-2-6-3(1-8-6)4-5(6)9-4/h2-5H,1H2	InChI=1S/C6H6O3/c7-2-6-3(1-8-6)4-5(6)9-4/h2-5H,1H2/t3-,4+,5+,6-/m0/s1
