21
gdb 102812	2.32188	1.03183	0.75924	3.2419	76.88	-0.2477	-0.0203	0.2274	1509.2168	0.177872	-461.359391	-461.348261	-461.347317	-461.396474	38.773	
C	 0.3174823077	 0.8955935304	-1.0898434884	-0.252702
O	-0.1082265507	 0.3531328097	 0.1422938656	-0.244675
C	-1.2791218947	-0.4372215548	 0.0884811659	 0.087637
C	-1.0330769021	-1.8310868404	-0.5215650834	-0.282952
C	-1.0455923322	-1.8769222282	-2.0283580889	 0.150559
O	-0.2285034336	-2.4315475929	-2.7185499392	-0.249729
C	-1.794595498	-0.5528367149	 1.540338104	 0.116068
C	-2.0506356396	 0.8100040627	 2.1751511666	-0.416491
O	-2.9504458396	-1.3835406978	 1.5900773244	-0.426105
H	 1.1622751595	 1.5538229415	-0.8732275282	 0.13204
H	 0.6501752297	 0.122595007	-1.794988834	 0.136973
H	-0.4789218554	 1.4870881714	-1.5674451329	 0.104994
H	-2.0558138306	 0.0840244149	-0.5049188035	 0.053076
H	-0.0974135287	-2.254546854	-0.1458921692	 0.125195
H	-1.8659639106	-2.4636735079	-0.1834723822	 0.14775
H	-1.9209628485	-1.356642372	-2.4892373583	 0.065331
H	-1.0327174416	-1.087820008	 2.119692191	 0.102907
H	-2.8195537306	 1.3589001627	 1.6147721081	 0.101735
H	-2.3997127683	 0.6859051031	 3.2036687383	 0.124564
H	-1.1412889754	 1.4129103384	 2.1730703967	 0.14305
H	-3.7028325967	-0.8589306607	 1.2940606976	 0.280775
54.9523	74.8585	81.1051	92.3007	180.6485	209.1387	226.5196	236.8373	303.0717	311.5914	342.5841	401.415	424.0355	476.9202	501.2689	578.7185	753.9615	876.5341	933.6017	939.2795	1031.6799	1039.5937	1063.4477	1093.4807	1121.954	1147.2833	1173.3412	1181.6034	1206.9157	1224.955	1247.422	1303.985	1336.9709	1372.3968	1389.7288	1397.9525	1415.5981	1431.469	1446.4481	1480.3512	1490.2494	1497.1667	1497.7473	1511.1293	1828.587	2830.4237	2913.0035	2984.2754	3020.9919	3026.4295	3049.3215	3050.6158	3102.9349	3107.5045	3116.6642	3146.3654	3797.5124
COC(CC=O)C(C)O	CO[C@@H](CC=O)[C@@H](C)O	
InChI=1S/C6H12O3/c1-5(8)6(9-2)3-4-7/h4-6,8H,3H2,1-2H3	InChI=1S/C6H12O3/c1-5(8)6(9-2)3-4-7/h4-6,8H,3H2,1-2H3/t5-,6+/m1/s1
