17
gdb 39354	2.9716	1.78441	1.30418	1.7584	66.74	-0.2483	0.0682	0.3165	959.8273	0.137542	-458.93665	-458.92959	-458.928645	-458.968412	27.182	
C	 0.0074767353	 1.4997940671	 0.3545517433	-0.103634
O	 1.2616048525	 2.0260963144	-0.098774936	-0.282968
C	 1.9785796104	 1.0588771641	-0.849166654	 0.034577
C	 1.9555319873	 1.1786389837	-2.3818260167	-0.106846
O	 2.1465123724	-0.1618127185	-2.8452486738	-0.265829
C	 1.5116375352	-1.0779169891	-1.9465203091	-0.17654
C	 1.2437526109	-0.2570416028	-0.7048739786	 0.405544
O	 1.0745489189	-0.738260946	 0.6157677114	-0.311585
C	 0.0050369993	 0.0267989987	 0.0152930326	-0.082556
H	-0.0829154939	 1.696677719	 1.4290408754	 0.122368
H	-0.8285372776	 1.9951569746	-0.160261176	 0.106203
H	 3.0073256442	 1.0249723342	-0.4732733117	 0.101765
H	 0.9891558328	 1.5917456899	-2.7122356346	 0.094682
H	 2.7592699984	 1.7874855873	-2.8003809294	 0.119139
H	 0.5928829442	-1.4857253627	-2.3893146218	 0.108052
H	 2.197455044	-1.9087395868	-1.7471815572	 0.125979
H	-0.9248452542	-0.5110369771	-0.1455635139	 0.111648
84.8493	171.8048	196.4067	315.2826	379.1972	427.3981	524.4411	576.2012	667.4403	746.8313	776.5302	866.7028	888.5858	926.6867	937.5643	974.0967	1017.568	1022.2995	1064.5911	1071.7891	1102.5577	1114.8105	1131.8638	1186.0498	1213.6307	1229.0159	1236.1389	1292.6055	1297.6466	1324.4417	1357.5821	1371.4933	1403.0242	1492.6536	1507.7281	1511.6417	1521.5668	2981.6186	3003.4069	3010.8648	3050.9556	3059.0041	3063.9713	3111.4966	3162.0168
C1OC2COCC22OC12	C1O[C@@H]2COC[C@]32O[C@@H]13	
InChI=1S/C6H8O3/c1-4-6(3-7-1)5(9-6)2-8-4/h4-5H,1-3H2	InChI=1S/C6H8O3/c1-4-6(3-7-1)5(9-6)2-8-4/h4-5H,1-3H2/t4-,5+,6-/m1/s1
