18
gdb 65683	3.32006	1.04311	0.98807	3.9263	73.	-0.2482	-0.0269	0.2214	1245.9112	0.145182	-439.121823	-439.11263	-439.111686	-439.156288	33.865	
C	-0.1527994148	 1.7131375625	 0.1922905039	-0.436365
C	 0.0019116817	 0.195837711	 0.0710961879	 0.325
C	 1.1482578475	-0.2260643534	-0.9118190047	-0.359343
C	 1.9919393789	-0.6014531391	 0.3099062852	 0.410766
O	 3.1453051061	-0.863825694	 0.4836223455	-0.286517
C	 0.7879500591	-0.4467899473	 1.2586805723	-0.412913
N	-1.2766542889	-0.4604324265	-0.1775010032	-0.330718
C	-1.950609314	-0.3488534146	-1.3527945108	 0.151752
O	-1.5374655327	 0.2314245993	-2.3356045478	-0.327555
H	 0.8157335328	 2.1863187798	 0.3842218967	 0.120478
H	-0.5596211376	 2.1205659637	-0.7359656637	 0.156269
H	-0.8257697511	 1.9691365841	 1.0172066124	 0.112948
H	 0.8915760465	-1.1016392618	-1.5141364872	 0.144596
H	 1.5472371256	 0.5449927279	-1.5734932059	 0.140531
H	 0.9397573032	 0.1666352565	 2.1502037763	 0.133623
H	 0.3968017494	-1.4249279669	 1.5601983205	 0.127032
H	-1.7546387	-0.8844346892	 0.6025019934	 0.247989
H	-2.9283059017	-0.8703030219	-1.3224395707	 0.082426
47.7451	71.4135	159.9416	212.9247	274.3439	291.3672	353.5624	354.6067	387.2679	423.1183	497.3674	526.3111	587.4632	667.9722	732.63	821.1674	868.616	899.6262	937.521	967.6859	1027.7373	1032.8783	1075.9997	1120.6042	1160.6918	1174.4889	1193.4208	1221.0992	1271.2836	1286.8805	1401.7215	1417.3566	1427.5815	1438.2826	1480.3529	1503.8658	1509.9658	1797.0059	1899.0985	2933.4368	3036.3441	3049.2917	3076.8397	3103.3984	3115.017	3133.4413	3134.084	3622.8973
CC1(CC(=O)C1)NC=O	CC1(CC(=O)C1)NC=O	
InChI=1S/C6H9NO2/c1-6(7-4-8)2-5(9)3-6/h4H,2-3H2,1H3,(H,7,8)	InChI=1S/C6H9NO2/c1-6(7-4-8)2-5(9)3-6/h4H,2-3H2,1H3,(H,7,8)
