15
gdb 18907	3.51015	2.75349	2.23897	2.2949	62.9	-0.2135	0.0597	0.2732	670.3617	0.119911	-362.566331	-362.560501	-362.559557	-362.595831	24.085	
O	-0.14611956	 1.4479874441	-0.0188370871	-0.473929
C	-0.0250853191	 0.0808859142	 0.0102370143	 0.39368
C	-1.2205143813	-0.8924312685	 0.0927256902	-0.109722
C	-0.4207475211	-1.8545993277	-0.7023423629	-0.035274
C	 0.6924123493	-0.8548266922	-1.069093295	-0.153185
C	 1.8393571934	-1.1297455608	-0.0651870997	-0.251458
C	 0.7710904209	-0.843721574	 1.0016925947	-0.064303
N	-0.3392773973	-1.8721069111	 0.8009635836	-0.145907
H	 0.7252463665	 1.8418267951	-0.1419303558	 0.28851
H	-2.279766474	-0.7844831269	 0.2899744848	 0.099623
H	-0.7163306212	-2.7691886973	-1.2017861512	 0.095931
H	 0.8420430939	-0.5802082926	-2.1116898461	 0.075719
H	 2.3146455063	-2.1138940632	-0.0696131983	 0.10877
H	 2.6039680214	-0.3457976084	-0.0895928121	 0.093556
H	 0.9845420025	-0.6479727206	 2.0516604006	 0.077989
206.036	274.664	339.8156	433.7295	543.6953	611.9803	700.4807	765.5695	776.2626	788.5497	839.6288	874.2584	907.839	930.0519	966.8179	978.2235	996.9114	1005.9159	1013.0879	1053.4675	1081.7852	1122.389	1157.3135	1170.0859	1211.9233	1226.6451	1255.4183	1269.1279	1312.228	1333.0399	1414.8704	1478.6463	3047.684	3109.8566	3127.3056	3137.1336	3179.907	3195.9727	3796.45
OC12C3C4C1CC2N34	O[C@@]12[C@H]3[C@H]4[C@@H]1C[C@@H]2N34	
InChI=1S/C6H7NO/c8-6-2-1-3(6)7-4(2)5(6)7/h2-5,8H,1H2	InChI=1S/C6H7NO/c8-6-2-1-3(6)7-4(2)5(6)7/h2-5,8H,1H2/t2-,3-,4+,5+,6-,7?/m0/s1
