15
gdb 27817	2.0555	1.90033	0.9996	4.3888	71.04	-0.2773	-0.0728	0.2045	1139.815	0.111318	-454.028234	-454.019767	-454.018823	-454.061916	29.809	
C	 0.0225711278	 1.4652397352	-0.0495114554	-0.47266
C	-0.0694892956	-0.0233520537	 0.0004501342	 0.42482
N	-1.1955265185	-0.6500870451	-0.088689939	-0.343306
C	-1.1071600634	-2.028578497	-0.024776423	 0.350429
C	-2.4127428479	-2.7506028133	-0.12829533	-0.45787
N	-0.0139486213	-2.7220381937	 0.1136513463	-0.343201
C	 1.1826812019	-2.0586931253	 0.208472127	 0.440842
O	 2.2699631218	-2.5247659795	 0.3372274611	-0.31827
O	 1.1121686559	-0.6194951071	 0.1439669929	-0.225691
H	 0.6650867086	 1.7694671374	-0.8816947618	 0.163906
H	-0.9718854666	 1.8924833877	-0.1677796918	 0.159532
H	 0.4868736297	 1.8391826302	 0.8683698909	 0.163914
H	-2.9030416008	-2.4860518219	-1.0711361591	 0.152892
H	-2.2631431199	-3.8277139921	-0.0702092784	 0.151769
H	-3.0798154817	-2.4165263719	 0.6734130162	 0.152892
88.1105	107.5365	122.97	175.7217	183.422	280.184	340.3706	529.9167	551.4195	572.2536	575.4002	632.7087	678.5561	777.3492	809.7341	945.9822	982.9785	991.5833	1057.6546	1058.6666	1070.3357	1144.0961	1333.105	1350.9904	1407.4374	1413.9025	1458.4066	1461.8168	1470.5143	1472.3437	1580.7965	1673.733	1901.665	3046.9652	3053.1349	3103.5088	3113.2674	3170.0591	3174.416
CC1=NC(C)=NC(=O)O1	Cc1nc(C)nc(=O)o1	
InChI=1S/C5H6N2O2/c1-3-6-4(2)9-5(8)7-3/h1-2H3	InChI=1S/C5H6N2O2/c1-3-6-4(2)9-5(8)7-3/h1-2H3
