15
gdb 75081	2.43045	1.81725	1.0472	1.4035	70.52	-0.2327	-0.0372	0.1955	1064.5292	0.114375	-450.187219	-450.179245	-450.178301	-450.219777	29.666	
N	-0.0325859927	 1.3347383044	 0.0937901312	-0.592305
C	-0.075453906	-0.0119639323	 0.0226509751	 0.48104
N	-1.1212168716	-0.7521346668	-0.0094429039	-0.341411
C	-0.6742411944	-2.137580385	-0.0241745757	-0.272567
C	 0.851985547	-2.10583909	-0.0016015551	 0.36222
N	 1.7473413654	-2.9991096275	-0.0020502362	-0.53066
N	 1.1617810775	-0.7239074871	 0.0199738123	-0.166395
C	 2.4422838278	-0.2103246325	-0.0184318876	 0.177229
O	 2.7067902181	 0.973667007	-0.052161093	-0.330565
H	 0.8567984405	 1.7912421592	-0.0458202383	 0.289505
H	-0.89781368	 1.8269564335	-0.0458044653	 0.270026
H	-1.0567023663	-2.6926081192	 0.8426077015	 0.135974
H	-1.0299613381	-2.666052361	-0.9185041227	 0.135376
H	 1.3322003563	-3.929260417	-0.0219517234	 0.234474
H	 3.1945997664	-1.0115955657	-0.0189999987	 0.148059
82.2443	161.9836	243.6746	252.6486	259.84	324.2161	354.0481	446.1171	549.2285	559.0037	584.2836	639.3917	731.9771	734.6637	791.8613	852.0254	978.7116	1009.0109	1012.0616	1053.6714	1138.1422	1191.8809	1197.8275	1259.8597	1303.4303	1374.0754	1406.0959	1436.4189	1475.0071	1597.6925	1746.2579	1759.2104	1794.2206	3017.5995	3041.3446	3054.1041	3500.2608	3566.4173	3724.2339
NC1=NCC(=N)N1C=O	NC1=NC[C]([NH])N1C=O	
InChI=1S/C4H6N4O/c5-3-1-7-4(6)8(3)2-9/h2,5H,1H2,(H2,6,7)	InChI=1S/C4H6N4O/c5-3-1-7-4(6)8(3)2-9/h2,5H,1H2,(H2,6,7)
