18
gdb 102975	2.44107	0.93095	0.72783	1.8344	70.01	-0.252	-0.0402	0.2118	1519.2991	0.145724	-476.248666	-476.238574	-476.237629	-476.285395	34.554	
O	 0.2207904839	 1.2193069975	-0.2803360449	-0.412458
C	 0.1151300897	-0.1057655367	 0.2083712776	-0.088799
C	-1.3265781747	-0.6566516681	 0.1365938314	-0.120317
C	-1.4013839735	-2.1348992324	 0.5488876968	-0.1803
N	-2.717102765	-2.7131732278	 0.3583021137	-0.274674
C	-2.9923067529	-3.5919943775	-0.6393108392	 0.151144
O	-2.1865673882	-4.0167331283	-1.4429034125	-0.330969
C	-2.2583821638	 0.2189613302	 0.9535275786	 0.160815
O	-3.1033903313	-0.2021500056	 1.7093034192	-0.263304
H	 0.1135835039	 1.1964282244	-1.2368143664	 0.290098
H	 0.7878226777	-0.7931719375	-0.3242131187	 0.112876
H	 0.4522499384	-0.0678459179	 1.2503245127	 0.126502
H	-1.6554074117	-0.5664813526	-0.9113875287	 0.110495
H	-0.7102565292	-2.7250697131	-0.0570578176	 0.14605
H	-1.1098463336	-2.2352032411	 1.6008222278	 0.119815
H	-3.4601789927	-2.3558746128	 0.9384785599	 0.264251
H	-4.0581059326	-3.8937120171	-0.6365930336	 0.077407
H	-2.1055417342	 1.3085577764	 0.8176904939	 0.11137
26.0318	75.1455	114.1314	116.0003	168.6218	208.523	271.6634	286.0342	321.7971	360.3037	404.6035	479.	626.8283	647.8362	759.9347	829.1584	902.2115	949.5899	984.2271	1033.0617	1056.5812	1075.8419	1103.2231	1133.3199	1184.623	1216.6115	1258.079	1292.084	1353.5738	1387.4462	1400.3995	1409.5405	1423.5872	1428.6192	1475.5128	1509.4713	1526.7374	1798.9908	1807.8084	2939.2485	2943.0674	2990.2512	3002.7568	3041.7594	3071.5223	3118.4894	3636.5913	3814.9647
OCC(CNC=O)C=O	OC[C@@H](CNC=O)C=O	
InChI=1S/C5H9NO3/c7-2-5(3-8)1-6-4-9/h2,4-5,8H,1,3H2,(H,6,9)	InChI=1S/C5H9NO3/c7-2-5(3-8)1-6-4-9/h2,4-5,8H,1,3H2,(H,6,9)/t5-/m0/s1
