20
gdb 15710	3.15526	1.57322	1.16897	2.0506	70.76	-0.2389	0.0741	0.313	1062.3416	0.177333	-386.143435	-386.134775	-386.133831	-386.176868	31.84	
C	 0.2369310675	 1.5673902104	-0.3151336793	-0.393485
C	 0.0103183883	 0.1019830365	 0.0556648489	 0.124489
O	 0.3451739984	-0.7092419944	-1.0795917135	-0.277902
C	 1.3762137747	-1.6365266499	-0.7501431198	-0.073583
C	 2.0588079499	-1.0781038632	 0.4969636185	-0.225955
C	 0.8644445301	-0.4469476889	 1.2278106026	 0.01451
C	 1.2259152101	 0.5491697495	 2.3184033319	-0.113922
O	 1.9163036957	-0.1682442444	 3.3335432824	-0.424544
H	 1.2959186687	 1.7770299187	-0.4954101884	 0.114645
H	-0.3090922061	 1.7924034433	-1.2353937765	 0.124899
H	-0.1261883069	 2.2405766284	 0.4689184422	 0.107896
H	-1.0575554954	-0.0412118751	 0.2719060567	 0.072551
H	 0.9448666951	-2.6296999825	-0.5466044721	 0.08826
H	 2.041934776	-1.7303814354	-1.614442174	 0.101335
H	 2.5682885822	-1.8373288997	 1.0924057378	 0.113583
H	 2.7923191407	-0.3097305558	 0.2249182562	 0.098879
H	 0.2982731655	-1.2536984404	 1.7097873659	 0.086643
H	 1.8550940217	 1.3531640387	 1.907356415	 0.088343
H	 0.3118658465	 1.0177381389	 2.7187289605	 0.086683
H	 2.1754094973	 0.4549877451	 4.0184279851	 0.286676
56.0928	117.204	171.32	201.6038	259.4647	267.3783	299.2802	378.8372	427.8034	476.6421	610.3814	703.6761	795.257	844.8805	875.9973	919.7098	985.3454	993.3155	1027.2968	1051.2881	1076.2765	1091.8797	1122.0645	1151.8809	1175.7996	1193.337	1231.3264	1253.5662	1266.1541	1310.9478	1328.2616	1330.2475	1375.4413	1387.2299	1402.3185	1408.2619	1461.8365	1486.7321	1489.2961	1498.0979	1522.223	1528.0184	2962.7527	2974.424	2996.0654	2999.9007	3031.3289	3035.1398	3043.8152	3067.9599	3105.6477	3116.032	3122.6036	3830.4407
CC1OCCC1CO	C[C@H]1OCC[C@H]1CO	
InChI=1S/C6H12O2/c1-5-6(4-7)2-3-8-5/h5-7H,2-4H2,1H3	InChI=1S/C6H12O2/c1-5-6(4-7)2-3-8-5/h5-7H,2-4H2,1H3/t5-,6+/m1/s1
