17
gdb 97279	2.65199	1.13437	0.80297	1.4078	77.11	-0.2424	-0.0294	0.2129	1392.5859	0.135412	-451.361055	-451.351531	-451.350587	-451.396149	33.866	
C	-0.6683601016	 1.3375565646	-0.3829845782	-0.316776
N	-0.1193029022	 0.0195307023	-0.1343178641	-0.239749
C	 0.2280396443	-0.661007008	-1.1377092176	 0.13693
N	 0.8087382198	-1.9519751118	-1.0066624207	-0.194094
C	 1.0962589225	-2.4156623821	 0.2709377582	 0.193736
O	 1.5734969564	-3.4971987933	 0.5522236298	-0.344721
C	 1.0225469062	-2.6948537574	-2.2184247097	 0.450102
N	 1.8364942709	-3.7822061401	-2.0752880143	-0.568474
N	 0.4839025183	-2.2435179188	-3.2851587418	-0.554352
H	-0.0497705695	 2.090114303	 0.1187460123	 0.132845
H	-0.7367006894	 1.5937585266	-1.4509633118	 0.109533
H	-1.6690641185	 1.4020288161	 0.0582030268	 0.134032
H	 0.1328567001	-0.3680293558	-2.1830854585	 0.157306
H	 0.8261847999	-1.6636691079	 1.021329409	 0.15121
H	 1.9647712941	-4.1409939795	-1.1349244679	 0.287515
H	 1.8243278791	-4.4418149113	-2.8353084216	 0.251798
H	 0.7215210798	-2.8232044164	-4.0867599601	 0.21316
54.6976	64.629	146.4514	174.8081	196.711	248.7426	312.7746	376.5622	395.8644	423.1986	452.411	468.0823	590.9397	623.8747	728.0845	761.4647	795.2217	843.7472	998.5485	1036.8734	1062.2173	1118.9971	1129.0358	1143.6843	1160.4421	1214.7935	1290.5423	1399.0455	1407.8048	1446.5485	1452.167	1479.8628	1500.3627	1623.4302	1726.5782	1758.3558	1786.6909	2987.7278	3069.6502	3084.4592	3084.829	3135.9698	3484.4745	3515.3146	3682.2561
CN=CN(C=O)C(N)=N	CN=CN(C=O)C(=N)N	
InChI=1S/C4H8N4O/c1-7-2-8(3-9)4(5)6/h2-3H,1H3,(H3,5,6)	InChI=1S/C4H8N4O/c1-7-2-8(3-9)4(5)6/h2-3H,1H3,(H3,5,6)
