20
gdb 33456	2.76435	1.27536	0.99596	1.0167	85.61	-0.2375	0.0385	0.276	1246.7319	0.170866	-365.940976	-365.932146	-365.931202	-365.974575	34.01	
C	-0.2734233823	-1.219008195	 0.5860888526	-0.439582
C	-0.15299706	-0.0483974611	 0.3344994315	 0.274601
C	-0.0289839377	 1.3478848055	-0.0050581785	 0.12441
C	 0.7433652118	 2.215041105	 0.9384074761	-0.274517
N	 1.3256925539	 1.8455759911	-0.3566676603	-0.347623
C	-1.1719343755	 1.9086237784	-0.8306848934	-0.033628
C	-1.1105337777	 3.3809518501	-1.3231829217	-0.245522
C	-1.7151134835	 2.9095049717	-2.6738887883	-0.220062
C	-1.2936155771	 1.4596433445	-2.3151561287	-0.218679
H	-0.3763421873	-2.2504525191	 0.8164013077	 0.194933
H	 0.4673600405	 3.2619530991	 1.0300716897	 0.125502
H	 1.1344963257	 1.7591413465	 1.8428333307	 0.122562
H	 2.0016803705	 1.0963585864	-0.2328041297	 0.23983
H	-2.1090255406	 1.7187165338	-0.296829337	 0.076554
H	-1.6620408447	 4.1293098348	-0.7488082222	 0.089868
H	-0.0737626676	 3.7056214746	-1.4413880295	 0.127056
H	-2.8028843329	 3.0231402396	-2.6945379452	 0.099264
H	-1.3032091323	 3.3440609785	-3.5872946822	 0.097602
H	-0.3091282662	 1.2156072451	-2.7241907712	 0.110233
H	-1.9864638071	 0.6476873706	-2.5457691405	 0.097196
73.7658	119.8898	132.3589	204.5453	228.9267	274.1322	392.6177	439.5073	515.1538	567.0816	595.5614	606.5116	651.7298	713.9611	785.7222	814.5344	842.5304	899.2357	925.0625	936.7009	959.4387	962.4569	984.5809	1029.7924	1052.3956	1094.3313	1136.9043	1137.8665	1201.3956	1240.7558	1258.3503	1260.1377	1268.302	1272.0579	1287.6758	1298.5219	1338.4598	1386.1397	1476.1964	1486.2635	1500.7836	1510.9677	2229.9773	3050.8891	3056.2272	3059.789	3064.2872	3102.5291	3113.2133	3116.5063	3126.7291	3203.9104	3502.8462	3511.1553
C#CC1(CN1)C1CCC1	C#C[C@]1(CN1)C1CCC1	
InChI=1S/C8H11N/c1-2-8(6-9-8)7-4-3-5-7/h1,7,9H,3-6H2	InChI=1S/C8H11N/c1-2-8(6-9-8)7-4-3-5-7/h1,7,9H,3-6H2/t8-/m0/s1
