23
gdb 121245	2.9185	0.83328	0.70435	2.0713	83.09	-0.2515	0.0749	0.3264	1670.7829	0.204585	-425.394525	-425.384089	-425.383145	-425.43062	37.374	
C	 0.1057648849	 1.3779586179	 0.1517903653	-0.227163
O	 0.0479598879	-0.0267711345	 0.150949985	-0.23128
C	-1.2442801608	-0.5263356545	-0.1251206962	-0.064595
C	-1.1802741325	-2.0449418916	-0.0686604496	-0.041416
C	-1.0191517475	-2.597776255	 1.3775903262	-0.21794
C	-2.5395832727	-2.9130492837	 1.4042223837	-0.219514
C	-2.5562251222	-2.7841093101	-0.1433424549	 0.043489
C	-3.749154142	-2.1360166437	-0.8186971148	-0.108337
O	-4.8576998126	-3.0095497026	-0.6446779112	-0.423755
H	 1.1356053176	 1.6646825513	 0.379196648	 0.12593
H	-0.1719473296	 1.8012268625	-0.8271899755	 0.100753
H	-0.5606635827	 1.815839619	 0.9125913851	 0.100992
H	-1.9655806884	-0.131170343	 0.611632019	 0.080928
H	-1.5802126567	-0.1839917618	-1.1197970803	 0.080969
H	-0.4299316997	-2.376835302	-0.7918861133	 0.072265
H	-0.4082332768	-3.5037413793	 1.4038370749	 0.098591
H	-0.6289145434	-1.896615357	 2.1184732357	 0.102698
H	-2.8552743106	-3.8678074283	 1.8287495767	 0.100789
H	-3.1204619046	-2.1183261415	 1.8829323476	 0.095794
H	-2.4114057296	-3.76996082	-0.597558801	 0.082059
H	-3.9543322313	-1.1496543632	-0.3724329241	 0.079976
H	-3.5348556231	-1.9737829255	-1.888481167	 0.083527
H	-5.6322382236	-2.5944866835	-1.0351744994	 0.285242
74.4784	90.2546	104.7026	117.3468	135.2808	207.9085	240.7045	263.7193	297.2957	340.5565	401.4635	471.3765	506.2347	695.6016	766.0227	859.1497	891.348	902.7083	943.0143	954.07	992.4676	992.9342	1061.2953	1077.922	1114.034	1148.7159	1153.9795	1165.4097	1185.7082	1206.2372	1222.0671	1236.4305	1241.615	1261.31	1268.1026	1276.6726	1282.3499	1307.6313	1356.967	1371.3139	1424.9151	1460.0894	1480.5539	1485.7037	1486.1298	1498.8399	1505.018	1520.6854	1528.6976	2938.3121	2956.3122	2965.4017	2966.2385	2985.0638	3006.6033	3048.9788	3056.5977	3061.5017	3071.4281	3107.5508	3110.8898	3122.0929	3828.5142
COCC1CCC1CO	COC[C@H]1CC[C@H]1CO	
InChI=1S/C7H14O2/c1-9-5-7-3-2-6(7)4-8/h6-8H,2-5H2,1H3	InChI=1S/C7H14O2/c1-9-5-7-3-2-6(7)4-8/h6-8H,2-5H2,1H3/t6-,7+/m0/s1
