18
gdb 51093	3.57253	1.27224	1.10376	4.4192	72.95	-0.2389	0.0205	0.2594	1112.2488	0.149251	-439.084077	-439.076401	-439.075457	-439.118233	29.638	
O	-0.1803267814	 0.3385533013	 0.9827934734	-0.313995
C	-0.0493734415	 1.2687090284	 0.2183853383	 0.134682
N	 1.1114467056	 1.6756247814	-0.3713324091	-0.416383
C	 2.4165537281	 1.1020410221	-0.2205165456	 0.355016
C	 3.2775393693	 0.6458021722	-1.4477920071	-0.279012
C	 4.3820796948	 0.7096847328	-0.3654413715	 0.113602
C	 3.6605875499	 1.9528273464	 0.2086816404	-0.27901
O	 4.0181260883	-0.3356987561	 0.5435654892	-0.278461
C	 2.5954485914	-0.1198002186	 0.7021995233	-0.101747
H	-0.8961692727	 1.9127796925	-0.0940307367	 0.079811
H	 1.0425603112	 2.4736196973	-0.9851454455	 0.243785
H	 3.0633079582	-0.3274259468	-1.8945382704	 0.108971
H	 3.368466071	 1.4225282228	-2.2103668317	 0.095689
H	 5.4469314807	 0.6708251732	-0.581020354	 0.087164
H	 3.7870212267	 2.8507099354	-0.4003438848	 0.095689
H	 3.7951948848	 2.1699013354	 1.2704770397	 0.108972
H	 2.3525323426	 0.0866536858	 1.7464554577	 0.122619
H	 2.0349325129	-0.9970480755	 0.3730098343	 0.122609
7.8215	185.4775	197.4583	312.8976	333.8636	415.7673	481.5714	520.1515	553.706	557.6137	659.6412	817.7732	837.9298	862.5561	903.3764	916.7387	946.567	954.9903	995.6002	1018.1388	1030.2611	1031.2653	1109.9406	1115.9789	1154.1328	1162.5592	1199.4659	1202.8325	1235.302	1242.513	1282.0186	1315.7754	1379.2028	1439.4941	1470.816	1501.3216	1526.6878	1530.1424	1810.602	2929.2821	3062.4746	3069.3103	3074.5566	3122.4131	3131.7096	3136.6461	3156.7056	3610.4047
O=CNC12CC(C1)OC2	O=CN[C@@]12C[C@@H](C1)OC2	
InChI=1S/C6H9NO2/c8-4-7-6-1-5(2-6)9-3-6/h4-5H,1-3H2,(H,7,8)	InChI=1S/C6H9NO2/c8-4-7-6-1-5(2-6)9-3-6/h4-5H,1-3H2,(H,7,8)/t5-,6-
