19
gdb 6779	3.58374	1.19191	0.9499	6.555	69.01	-0.2368	0.0358	0.2726	1232.8148	0.165914	-402.234433	-402.225574	-402.22463	-402.268552	31.512	
C	 0.6432561037	 0.9465616364	 0.3343599013	-0.325235
N	 0.3266497439	-0.3557213945	-0.2556355403	-0.284968
H	 1.3367354408	-1.7654188377	-0.0742974395	 0.309045
H	-0.4850689336	-0.7442924902	 0.218515799	 0.238984
C	 0.0446548399	-0.3001036012	-1.6961998538	-0.135001
C	-0.0540584763	-1.6947343018	-2.3218764606	-0.232622
C	 1.2730360543	-2.4813850396	-2.4123789467	-0.313226
C	 1.7051586755	-3.3075269585	-1.1941982931	 0.381991
O	 1.6967837192	-2.6921956312	-0.0072145401	-0.38364
O	 2.065236396	-4.4525131699	-1.304278688	-0.331304
H	 1.5852751828	 1.3137082618	-0.0838601183	 0.138807
H	-0.1318668462	 1.7058262107	 0.1475154136	 0.113548
H	 0.7711372237	 0.8367123453	 1.4140623689	 0.137068
H	-0.8753856666	 0.2706061194	-1.9036632811	 0.096141
H	 0.8673742541	 0.2512963178	-2.1685527572	 0.11513
H	-0.8125986846	-2.2866641267	-1.793037895	 0.111789
H	-0.4363336694	-1.5632128359	-3.3399974964	 0.114744
H	 1.2227736212	-3.1951199665	-3.2363078683	 0.131129
H	 2.0893579714	-1.7845705778	-2.6486085045	 0.11762
63.4721	79.2807	125.1533	192.2273	249.9789	269.2481	278.0955	326.3705	452.7589	483.5196	582.4548	691.2244	780.168	823.5465	887.1354	897.4582	931.5724	1008.4365	1048.6203	1067.1134	1069.7038	1131.0102	1140.006	1171.4434	1221.4416	1268.4147	1301.863	1320.0658	1356.4239	1379.2645	1397.1924	1460.4125	1464.4172	1470.1327	1484.2717	1491.8179	1494.0427	1509.4743	1516.6774	1846.3875	2969.1413	2987.2736	3020.558	3028.9253	3049.5137	3073.0182	3081.78	3116.8821	3123.9362	3151.3029	3493.2735
C[NH2+]CCCC([O-])=O	CNCCCC(=O)O	
InChI=1S/C5H11NO2/c1-6-4-2-3-5(7)8/h6H,2-4H2,1H3,(H,7,8)	InChI=1S/C5H11NO2/c1-6-4-2-3-5(7)8/h6H,2-4H2,1H3,(H,7,8)
