18
gdb 103320	3.15632	1.42795	1.12999	1.7377	73.41	-0.2425	-0.0016	0.2409	1093.3515	0.145905	-439.009618	-439.000947	-439.000003	-439.043129	32.621	
C	 0.5608662949	 0.6991264088	-0.4488279034	-0.217675
O	-0.5405634782	 0.5468218436	 0.4337013301	-0.319111
C	-1.5500687544	-0.3899690429	 0.2377560198	 0.49215
C	-2.4977494008	-0.1921370272	 1.41220603	-0.452071
C	-2.1998503008	-0.5964676839	-1.1857400975	-0.231769
N	-0.9298795035	-1.3508478741	-1.5793419319	-0.330415
C	-1.209547699	-1.8759003352	-0.1711721273	-0.231781
C	-2.6658140703	-1.9771720338	-0.6747772901	 0.430608
O	-3.5370679351	-2.7767207724	-0.8326282756	-0.335396
H	 1.1596404138	 1.5057321315	-0.0159574221	 0.115504
H	 1.169237465	-0.2079551035	-0.5166959725	 0.118853
H	 0.2495268529	 0.980687198	-1.4594239084	 0.118861
H	-2.8735174758	 0.8346255605	 1.4111820905	 0.133214
H	-3.348592233	-0.8766265226	 1.3798178093	 0.13847
H	-1.9573618457	-0.3485811296	 2.3497273816	 0.133214
H	-2.6744642954	 0.1240323395	-1.8492525684	 0.100714
H	-1.1306991526	-2.065131001	-2.2840889178	 0.235915
H	-0.562714292	-2.6043243254	 0.3142484539	 0.100714
43.1126	159.1736	192.4167	208.4379	273.7961	289.8094	348.758	379.2043	408.3307	500.2029	572.1418	621.2686	711.5325	712.1455	788.2316	807.4385	878.6505	914.0986	982.4459	1034.1695	1087.0655	1107.975	1112.9136	1127.3601	1141.121	1175.6295	1178.7571	1203.5108	1224.1376	1265.7166	1268.9519	1307.1843	1419.0051	1477.2244	1486.9186	1488.1674	1496.3927	1501.581	1899.9814	3028.2189	3051.2211	3099.282	3109.6611	3122.6454	3131.6746	3142.4192	3146.5766	3418.0374
COC1(C)C2NC1C2=O	CO[C@@]1(C)[C@H]2N[C@@H]1C2=O	
InChI=1S/C6H9NO2/c1-6(9-2)4-3(8)5(6)7-4/h4-5,7H,1-2H3	InChI=1S/C6H9NO2/c1-6(9-2)4-3(8)5(6)7-4/h4-5,7H,1-2H3/t4-,5+,6-
