16
gdb 22946	4.12724	0.8543	0.73167	4.1827	74.16	-0.2487	-0.0175	0.2312	1459.0712	0.123796	-434.009159	-434.000293	-433.999349	-434.043566	31.609	
O	-0.1239320222	 1.357499967	-0.0441767297	-0.384126
N	 0.0196452657	-0.0341471966	 0.0365297064	-0.232722
C	-1.1014623122	-0.6140783325	 0.0057180513	 0.39999
C	-2.5631446638	-0.2571436751	-0.1490327905	-0.259623
N	-2.8289465527	-1.7062284015	-0.3898489671	-0.319734
C	-1.4503186275	-2.0883100773	 0.0209910842	-0.067593
C	-0.7077708081	-2.9933725959	-0.9742410201	-0.329233
C	-1.2301641797	-4.3573502481	-0.960672473	 0.25731
N	-1.6588229594	-5.4298295869	-0.9237660645	-0.305119
H	 0.7898876977	 1.6624300552	-0.0203774751	 0.313076
H	-3.0018609489	 0.1607207044	 0.7671939802	 0.125783
H	-2.821118803	 0.3962398777	-0.988824835	 0.138571
H	-3.5627009516	-2.1058663451	 0.1827671337	 0.235023
H	-1.3838241937	-2.5232642281	 1.0281461498	 0.108274
H	-0.8095519199	-2.5777950749	-1.9812179739	 0.157596
H	 0.3587305794	-3.0112697225	-0.7243747066	 0.162529
58.5853	87.1628	122.9913	174.8828	218.0861	302.3377	368.321	393.2275	423.3419	486.5289	528.2338	575.6231	712.284	754.3075	853.2948	924.0395	939.8923	982.5083	1002.9535	1013.5837	1035.6677	1101.0263	1120.3091	1179.3412	1212.8586	1243.8616	1283.4371	1337.1465	1370.2852	1381.1993	1416.6332	1452.1735	1493.9767	1806.6584	2362.6143	3005.2758	3015.6534	3055.953	3071.9363	3104.221	3554.0814	3813.8377
ON=C1CNC1CC#N	ON=C1CN[C@H]1CC#N	
InChI=1S/C5H7N3O/c6-2-1-4-5(8-9)3-7-4/h4,7,9H,1,3H2	InChI=1S/C5H7N3O/c6-2-1-4-5(8-9)3-7-4/h4,7,9H,1,3H2/t4-/m0/s1
