22
gdb 83278	2.67851	1.36975	1.26561	0.4188	82.03	-0.213	0.0866	0.2996	1151.6541	0.195186	-404.328265	-404.319524	-404.31858	-404.361203	34.249	
C	-0.3067939825	 1.5147450088	 0.0709359557	-0.434756
C	-0.0516113992	 0.0262725215	-0.014519046	 0.014922
C	 0.58623815	-0.6244575565	-1.1920929832	-0.046395
C	 1.1398665216	 0.1644605198	-2.368842321	-0.118191
O	 2.0409392042	 1.1882113982	-1.9864562297	-0.250126
C	 3.0660871122	 0.689959512	-1.1307650405	 0.129812
C	 4.1294663891	 1.7689364912	-1.0027851019	-0.404919
C	 2.4634720929	 0.2898044212	 0.219377347	-0.158302
N	 1.2857258797	-0.5834265549	 0.1025103213	-0.126582
H	 0.3818036713	 2.0914262341	-0.5472213442	 0.145286
H	-1.3282818122	 1.7281371102	-0.2625098723	 0.117332
H	-0.2253948816	 1.8652928188	 1.1067885082	 0.118494
H	-0.8012130567	-0.5635475291	 0.5138639151	 0.083404
H	 0.2482850812	-1.6216878405	-1.4756467594	 0.084695
H	 1.6483006379	-0.5368176596	-3.0519702064	 0.095369
H	 0.3367173599	 0.651330592	-2.9328474488	 0.11259
H	 3.5070034955	-0.206850222	-1.6004515619	 0.068736
H	 3.6972263162	 2.6829976977	-0.5838139061	 0.125219
H	 4.9380732185	 1.4350283383	-0.3454149475	 0.117846
H	 4.5528946714	 2.0087213758	-1.9816370363	 0.123669
H	 3.2207557009	-0.2480712951	 0.8031991103	 0.101102
H	 2.2135316599	 1.1972370782	 0.7831647676	 0.100794
89.398	178.2328	213.4054	232.3165	253.1729	265.6054	303.3669	419.2245	439.5907	473.4965	503.9366	548.3152	708.3131	753.9849	781.7771	834.5323	845.9489	915.3151	934.8074	978.846	1014.3941	1045.0098	1067.8766	1101.2482	1123.0108	1145.8017	1155.3569	1164.3031	1175.3863	1187.5593	1259.7642	1292.4249	1331.365	1336.856	1377.3345	1381.3156	1393.2705	1403.9163	1410.6447	1420.4789	1453.0128	1482.8803	1492.8294	1496.3087	1499.9545	1505.9477	1515.2989	2948.9905	2962.437	3016.3916	3031.2354	3042.3369	3051.4085	3062.1977	3085.1068	3087.5857	3097.8433	3114.9855	3121.6949	3147.4129
CC1C2COC(C)CN12	C[C@H]1[C@H]2CO[C@@H](C)CN12	
InChI=1S/C7H13NO/c1-5-3-8-6(2)7(8)4-9-5/h5-7H,3-4H2,1-2H3	InChI=1S/C7H13NO/c1-5-3-8-6(2)7(8)4-9-5/h5-7H,3-4H2,1-2H3/t5-,6-,7+,8?/m0/s1
