23
gdb 57403	2.93275	1.20144	1.18762	1.2291	85.81	-0.2525	0.0679	0.3204	1220.5401	0.205319	-388.239275	-388.230162	-388.229218	-388.272804	36.453	
C	-1.5306842312	-0.5936365455	 0.1687048867	-0.387686
C	-0.1136785717	-0.0210654078	 0.0723437759	 0.279754
C	-0.1588026089	 1.5034910701	-0.1345248604	-0.418061
O	 0.4790754818	-0.2864176142	 1.3513778316	-0.451058
C	 0.628856107	-0.6601082531	-1.1211695139	 0.063848
C	 2.1796585287	-0.8783185289	-1.18253207	-0.093762
C	 2.0064241564	-2.1599421987	-0.3037912514	-0.224943
C	 0.8454864329	-2.1952978115	-1.3407303934	-0.070903
C	 1.9048845382	-1.7959780723	-2.410106783	-0.220204
H	-2.0674895178	-0.4668851589	-0.7759949992	 0.109902
H	-1.4917583277	-1.6602524143	 0.4053677117	 0.124326
H	-2.0914038988	-0.0874644272	 0.9598151987	 0.116489
H	-0.6391258777	 1.9796500374	 0.7248696556	 0.119361
H	 0.853934577	 1.913102052	-0.2337306344	 0.105295
H	-0.713817166	 1.7739484789	-1.0380921612	 0.115377
H	 1.3404627109	 0.1443508172	 1.3689071893	 0.277515
H	 0.2403260038	-0.1736273228	-2.0251545018	 0.056988
H	 2.9604729949	-0.1180257237	-1.1021615599	 0.060824
H	 2.7784282381	-2.9245373213	-0.4340440101	 0.080275
H	 1.7335162693	-2.0304403126	 0.7392160062	 0.117277
H	 0.0736137492	-2.9602100483	-1.4409994872	 0.066518
H	 1.5386934322	-1.313009245	-3.3207176822	 0.08496
H	 2.6708841494	-2.5444480497	-2.6299978675	 0.087909
49.2536	169.5223	210.9802	241.3408	267.5123	302.8717	339.3163	366.0779	377.8911	416.2499	483.7141	558.9071	613.5751	772.2982	808.9365	830.9525	855.3621	888.3595	898.2536	904.4298	926.7772	960.5592	1008.52	1012.4668	1026.4035	1033.3946	1041.7892	1079.2654	1116.0207	1124.3538	1135.0455	1154.5293	1194.2008	1201.475	1220.1899	1244.3164	1253.7766	1257.7254	1278.9317	1359.9315	1393.895	1412.2733	1422.3912	1477.1628	1484.8435	1497.1649	1499.5078	1506.68	1537.5291	3013.8	3025.4394	3043.3202	3044.4867	3056.3199	3078.3381	3092.7567	3097.2025	3111.3599	3113.6022	3119.807	3121.8609	3183.2753	3806.3004
CC(C)(O)C1C2CC1C2	CC(C)(O)[C@H]1[C@H]2C[C@@H]1C2	
InChI=1S/C8H14O/c1-8(2,9)7-5-3-6(7)4-5/h5-7,9H,3-4H2,1-2H3	InChI=1S/C8H14O/c1-8(2,9)7-5-3-6(7)4-5/h5-7,9H,3-4H2,1-2H3/t5-,6+,7-
