19
gdb 22929	2.42217	1.3403	1.10261	1.1556	80.73	-0.2243	0.0046	0.2289	1194.4017	0.15732	-419.126356	-419.117001	-419.116057	-419.160202	34.902	
C	-0.0605770974	 1.5673406236	-0.0120270815	-0.432732
C	 0.0868953548	 0.0670107577	 0.1170847305	-0.017741
N	 1.2902574105	-0.7054936016	-0.2490094915	-0.188067
C	 2.4855851376	 0.1181299022	 0.168059934	-0.260843
C	 2.016459423	 0.0724564248	 1.6047112126	 0.369598
N	 2.5145818044	 0.2702710004	 2.7527755364	-0.264111
O	 3.7764641312	 0.8876977879	 2.6482044399	-0.391717
C	 0.7826858403	-0.6626245147	 1.2172370937	 0.22295
C	 0.2080668994	-1.8339268614	 1.9561259525	-0.492242
H	 0.7379634163	 2.1248123001	 0.4806444837	 0.135437
H	-0.089147892	 1.8610985541	-1.0671661838	 0.128422
H	-1.0059493085	 1.8784369073	 0.4438974152	 0.127936
H	-0.7930946813	-0.4707103288	-0.2348865099	 0.098928
H	 3.4077095369	-0.4491399505	 0.017111802	 0.138009
H	 2.5789733844	 1.0882163591	-0.3262617095	 0.123382
H	 4.0469070919	 0.9531739201	 3.5702494384	 0.30771
H	-0.3422250724	-1.4952181118	 2.8406666163	 0.13382
H	-0.4811996509	-2.3917408676	 1.3164618348	 0.129281
H	 0.9989769516	-2.511043681	 2.2923358261	 0.131979
85.3672	144.3925	164.3213	186.8595	215.9499	247.5818	273.7574	339.0993	368.3101	459.8136	508.6455	524.3908	576.835	621.8379	711.277	760.4379	839.1261	863.8913	938.5716	976.7471	1001.4631	1035.8486	1076.076	1109.7979	1111.7969	1115.264	1154.8451	1179.2374	1264.0872	1310.3307	1324.4965	1408.2884	1410.8215	1414.558	1450.2376	1478.0302	1480.7709	1491.9532	1497.8213	1502.4889	1786.2835	3037.7943	3039.7246	3064.6652	3099.1143	3103.0284	3109.5186	3113.0386	3120.9293	3136.7824	3819.2055
CC1N2CC(=NO)C12C	C[C@H]1N2CC(=NO)[C@@]12C	
InChI=1S/C6H10N2O/c1-4-6(2)5(7-9)3-8(4)6/h4,9H,3H2,1-2H3	InChI=1S/C6H10N2O/c1-4-6(2)5(7-9)3-8(4)6/h4,9H,3H2,1-2H3/t4-,6-,8?/m1/s1
