17
gdb 17192	5.14152	1.59341	1.43372	2.6462	69.28	-0.237	0.078	0.3149	913.1917	0.141998	-363.753282	-363.746276	-363.745332	-363.784078	27.694	
C	-0.0690641061	 1.5773644481	 0.0144552878	-0.436247
C	-0.0253669428	 0.0613484308	 0.0217959183	 0.044358
C	 1.2046181224	-0.6566499049	-0.6137326408	-0.079305
O	 2.0403985717	-0.1745072013	 0.5149302226	-0.313558
C	 0.7816557871	-0.6617153897	 1.1423973471	-0.062234
C	 0.8714865505	-1.8931423293	 0.2318649453	 0.474227
C	 0.1443077848	-3.1501099206	 0.0072348635	-0.346459
N	 1.5684594056	-3.1271386233	 0.454074713	-0.393561
H	 0.9137690502	 1.9891107895	 0.2514947023	 0.140083
H	-0.3795184467	 1.9529819117	-0.96648575	 0.114517
H	-0.7905874779	 1.9478289469	 0.7505155111	 0.116115
H	-0.9932461384	-0.3939198361	-0.2130541453	 0.07402
H	 1.618887064	-0.5779550946	-1.6202606184	 0.091519
H	 0.698243753	-0.5934999173	 2.2266797333	 0.099615
H	-0.5531251625	-3.5354817974	 0.7459499937	 0.124899
H	-0.0760895902	-3.439757516	-1.0177469671	 0.115481
H	 2.1956165253	-3.3454350664	-0.3161854764	 0.236529
163.9342	221.7994	223.0423	277.2486	328.7027	391.1453	474.0273	606.9752	720.0712	749.0027	756.2945	799.3196	864.5261	874.4948	908.3316	931.3103	967.7351	1025.8831	1041.1414	1060.8627	1095.9468	1105.4971	1131.5199	1142.7047	1153.9085	1203.5683	1212.9677	1244.1693	1250.8885	1264.3723	1388.9668	1407.5158	1453.4346	1494.04	1505.7592	1534.0873	3036.6922	3057.6043	3093.6325	3103.3297	3107.3062	3129.6635	3137.0715	3187.5064	3501.8431
CC1C2OC1C21CN1	C[C@H]1[C@H]2O[C@@H]1[C@]12CN1	
InChI=1S/C6H9NO/c1-3-4-6(2-7-6)5(3)8-4/h3-5,7H,2H2,1H3	InChI=1S/C6H9NO/c1-3-4-6(2-7-6)5(3)8-4/h3-5,7H,2H2,1H3/t3-,4+,5-,6+
