21
gdb 92743	2.40962	1.35574	1.04288	2.3795	80.29	-0.2417	0.0197	0.2615	1233.7892	0.182942	-424.249413	-424.240309	-424.239364	-424.282787	35.557	
C	-0.006502353	 1.5452193446	 0.0199754162	-0.474179
C	-0.0168133831	 0.0416255029	-0.0413379601	 0.31079
C	 0.0356823725	-0.6268391696	-1.1982199529	-0.165522
C	 0.0241627283	-2.1310878115	-1.3133629819	-0.291149
C	 0.3622068528	-2.8148242068	 0.0126198368	 0.084981
O	 1.7666717079	-2.7832559757	 0.2979317228	-0.455435
C	-0.3995232169	-2.1763029155	 1.1806208353	 0.129101
O	-0.1083778297	-2.8543750958	 2.3894304889	-0.447247
C	-0.0728164287	-0.6765648565	 1.2891887925	-0.324655
H	 0.8277938652	 1.9116372819	 0.6322632425	 0.122621
H	 0.0778068161	 1.9929056771	-0.97383324	 0.120379
H	-0.9227175375	 1.9248185377	 0.4901744313	 0.126146
H	 0.0785086577	-0.0678780173	-2.1307914143	 0.080156
H	-0.9613108571	-2.4739463399	-1.6604064819	 0.114874
H	 0.7393587587	-2.4660258358	-2.0749687153	 0.112208
H	 0.1113511742	-3.87934165	-0.0290560808	 0.089358
H	 2.0816357614	-1.8952397587	 0.0922297065	 0.287427
H	-1.4751620877	-2.301812481	 1.0067549749	 0.085111
H	 0.8469871409	-3.0021411764	 2.3719710197	 0.281639
H	 0.8928700857	-0.56634254	 1.8055817211	 0.101573
H	-0.8024379778	-0.1947654637	 1.950839409	 0.111821
89.3201	140.7312	188.7868	254.2694	257.557	281.886	354.8055	374.3829	419.1701	443.0233	461.9912	500.4873	506.6494	632.6716	706.155	810.7299	838.1411	881.0581	909.8474	941.6151	961.281	1026.1839	1038.8076	1070.1309	1085.6949	1089.8053	1125.6806	1164.7621	1187.7157	1213.9571	1255.9629	1270.0721	1321.6013	1341.0964	1368.7223	1376.6151	1386.1961	1414.4225	1429.0177	1438.9087	1471.4554	1475.5338	1479.4804	1491.9298	1734.3153	2997.0225	3005.2068	3015.6788	3036.6643	3046.1656	3054.9161	3061.765	3067.8934	3111.062	3144.9367	3756.0723	3792.1239
CC1=CCC(O)C(O)C1	CC1=CC[C@@H](O)[C@@H](O)C1	
InChI=1S/C7H12O2/c1-5-2-3-6(8)7(9)4-5/h2,6-9H,3-4H2,1H3	InChI=1S/C7H12O2/c1-5-2-3-6(8)7(9)4-5/h2,6-9H,3-4H2,1H3/t6-,7+/m1/s1
