22
gdb 123195	11.17981	0.40775	0.39925	4.0868	85.47	-0.2712	0.0339	0.3051	2689.7334	0.192242	-404.366131	-404.355012	-404.354068	-404.404133	37.688	
C	-0.0949391253	 1.5784355403	 0.0123900474	-0.379927
C	-0.0415977132	 0.0483178848	 0.003117534	-0.166945
C	-1.4325720885	-0.5943761945	 0.0127492135	-0.180241
C	-1.3778101512	-2.1149746325	 0.0034651618	-0.058066
O	-2.7026611687	-2.6182895901	 0.0133128969	-0.248404
C	-2.7658729352	-4.0206342084	 0.0058893121	-0.050379
C	-4.253134967	-4.396655458	 0.018176492	-0.339598
C	-4.4561173126	-5.8416662177	 0.0117837995	 0.247027
N	-4.5977807031	-6.9883105589	 0.0065826121	-0.302458
H	 0.9097275667	 2.0119075781	 0.0052936394	 0.114271
H	-0.6297511144	 1.9604821384	-0.8640073012	 0.116775
H	-0.6129009173	 1.9503598063	 0.9031448538	 0.116775
H	 0.5122654979	-0.2932068559	-0.8812890522	 0.098447
H	 0.5290515384	-0.3032509414	 0.872793897	 0.098448
H	-1.9911970821	-0.2693756559	 0.8990399654	 0.105628
H	-2.008052419	-0.2592420606	-0.8588617732	 0.105628
H	-0.8428300875	-2.4775772814	-0.8906623366	 0.090376
H	-0.8257767614	-2.4877885154	 0.8829070441	 0.090375
H	-2.2782972467	-4.4396740493	-0.8888362199	 0.108892
H	-2.2610419437	-4.44986816	 0.8860976684	 0.108892
H	-4.7276571875	-3.9664781978	 0.9062323185	 0.162241
H	-4.7448124886	-3.95627558	-0.8554321128	 0.162241
36.8652	63.4011	65.8582	100.5854	139.2547	152.2434	153.5699	245.935	252.6036	299.7616	399.9972	438.8379	476.9951	564.1549	745.9616	794.7105	816.7545	906.6961	948.4984	955.2437	1015.1612	1038.3022	1061.1054	1077.849	1093.2044	1148.7092	1165.3361	1193.1449	1229.6729	1255.3939	1291.0307	1298.3039	1305.0919	1314.3089	1326.8322	1385.4284	1402.8558	1414.1554	1451.9003	1470.6603	1488.8408	1496.5402	1499.6406	1509.5239	1518.9166	1538.4014	2366.3488	2953.6269	2973.483	2982.7067	3002.6563	3015.1935	3029.9462	3034.0655	3041.541	3056.7935	3075.3447	3099.6114	3099.7569	3105.0773
CCCCOCCC#N	CCCCOCCC#N	
InChI=1S/C7H13NO/c1-2-3-6-9-7-4-5-8/h2-4,6-7H2,1H3	InChI=1S/C7H13NO/c1-2-3-6-9-7-4-5-8/h2-4,6-7H2,1H3
