18
gdb 108438	2.25974	1.73464	1.23486	4.047	72.5	-0.2362	0.0128	0.249	1068.6176	0.147493	-439.085035	-439.076588	-439.075644	-439.118155	31.503	
C	 0.0159246434	 1.5472918166	-0.0037277236	-0.388397
C	-0.0684003275	 0.0136291774	 0.0000904062	-0.288135
C	 0.6837163429	-0.5764986694	-1.1600375676	 0.310813
O	 0.1399147393	-0.232156445	-2.4647803487	-0.321826
C	 0.1594272242	-1.6088859674	-2.902079483	-0.095782
C	 0.8336388812	-2.0691279486	-1.5955505601	-0.106696
N	 2.280357004	-1.8805111826	-1.5387644916	-0.335897
C	 2.2433907961	-0.5308977615	-1.2216591777	 0.400702
O	 3.1001639799	 0.3006509798	-1.1007231812	-0.357979
H	 1.0564343445	 1.8770944735	 0.0558092241	 0.150345
H	-0.4151012127	 1.950650657	-0.9240420019	 0.137658
H	-0.5327185671	 1.965787022	 0.8444941465	 0.111082
H	 0.3537280538	-0.3889494753	 0.9291414378	 0.110267
H	-1.1144034802	-0.3114205482	-0.0500628898	 0.103964
H	-0.8592660255	-1.992031082	-3.0369829679	 0.111464
H	 0.7342530326	-1.7535515277	-3.8234823768	 0.108153
H	 0.4439953255	-2.9302773791	-1.0543007568	 0.101127
H	 3.0170113056	-2.4063773895	-1.9899141179	 0.249135
89.9362	129.5773	161.6861	198.5324	241.917	299.4561	321.7365	429.3485	493.1061	507.6081	687.0779	693.61	748.5878	781.0563	852.6368	879.6802	933.6977	946.3029	986.2357	1006.3072	1031.4644	1083.6519	1096.3202	1125.7075	1159.5729	1170.4908	1196.4641	1270.2884	1311.2444	1333.6592	1339.6449	1356.3761	1385.2086	1409.6839	1476.0032	1496.4861	1510.2087	1512.5482	1887.9514	3023.0504	3027.9646	3048.4727	3066.5774	3075.9385	3121.0757	3123.0058	3130.1056	3584.4626
CCC12OCC1NC2=O	CC[C@]12OC[C@H]1NC2=O	
InChI=1S/C6H9NO2/c1-2-6-4(3-9-6)7-5(6)8/h4H,2-3H2,1H3,(H,7,8)	InChI=1S/C6H9NO2/c1-2-6-4(3-9-6)7-5(6)8/h4H,2-3H2,1H3,(H,7,8)/t4-,6+/m1/s1
