17
gdb 88220	3.69917	0.69318	0.66426	2.6335	82.31	-0.2615	-0.0572	0.2044	1729.0574	0.132129	-421.797656	-421.787653	-421.786709	-421.834547	34.093	
C	 1.273270557	 1.039319408	-0.496934521	-0.425838
C	 0.1884600257	 0.0914661018	-0.06377627	 0.097796
O	 0.5850831753	-1.1315459176	 0.5457044811	-0.235973
C	-0.1333555055	-0.1871728283	 1.3593442957	-0.171977
C	 0.5742232134	 0.4383524298	 2.4389337647	 0.074809
C	 1.1283744631	 0.9720137927	 3.3707121384	 0.091315
C	 1.7971924163	 1.6072883722	 4.4920931401	 0.244822
C	 3.2865527436	 1.3502256023	 4.5905387138	-0.478246
O	 1.1874006164	 2.2917321008	 5.2857217563	-0.273562
H	 2.0376691915	 1.1396956068	 0.2761242068	 0.13848
H	 1.7473356729	 0.6719406547	-1.4126535123	 0.135878
H	 0.8519840362	 2.0276856493	-0.7075341164	 0.131444
H	-0.646510596	-0.0163752941	-0.7591371777	 0.102708
H	-1.1527169072	-0.4909089893	 1.5957737423	 0.125708
H	 3.477268762	 0.2747970694	 4.6733537768	 0.151271
H	 3.789479515	 1.6942173294	 3.6802885866	 0.146416
H	 3.6894979803	 1.8705527018	 5.4605620247	 0.144952
25.0169	69.636	81.5906	115.8588	173.2689	182.7932	229.8817	346.4513	356.2676	408.1803	533.9537	560.4597	599.8198	617.7507	710.9066	780.1707	835.2538	938.0993	968.3807	1001.1572	1042.6843	1063.2288	1086.7283	1162.1055	1169.3968	1240.6846	1290.1195	1375.38	1382.7734	1412.0653	1444.4065	1459.9908	1468.0244	1483.6024	1496.7544	1767.607	2321.9443	3039.8234	3043.7128	3089.8367	3104.0079	3108.4117	3117.08	3139.7504	3152.7905
CC1OC1C#CC(C)=O	C[C@H]1O[C@H]1C#CC(=O)C	
InChI=1S/C7H8O2/c1-5(8)3-4-7-6(2)9-7/h6-7H,1-2H3	InChI=1S/C7H8O2/c1-5(8)3-4-7-6(2)9-7/h6-7H,1-2H3/t6-,7+/m1/s1
