17
gdb 93616	2.56259	1.3955	1.11729	5.6681	73.89	-0.2571	0.0013	0.2585	1131.8973	0.137453	-418.069427	-418.060795	-418.059851	-418.103191	30.727	
C	-0.0205208379	 1.3739852994	-0.0382131469	-0.347598
N	 0.0207659699	-0.0711977482	-0.0186838237	-0.067762
C	-1.1096360956	-0.8892061744	-0.4227682869	-0.168514
C	-0.7010605142	-2.3076609183	 0.0199037141	-0.239597
C	 0.8442846005	-2.2700574335	-0.0038295414	-0.269858
C	 1.3991324311	-2.7152188446	-1.2802498112	 0.279245
N	 1.8075870811	-3.0676175174	-2.3025572695	-0.319887
C	 1.1722530485	-0.7636940721	 0.2158774132	 0.413616
O	 2.2476882794	-0.3085751607	 0.527990403	-0.377232
H	 0.9581560034	 1.7387674576	 0.2768767903	 0.171875
H	-0.2381035194	 1.7485578927	-1.0461470345	 0.133567
H	-0.788795135	 1.751765668	 0.6459948131	 0.129428
H	-2.0276419667	-0.552728711	 0.0708051434	 0.120374
H	-1.2738096734	-0.828562695	-1.5082597102	 0.126101
H	-1.0316797829	-2.4868765819	 1.0458860225	 0.128011
H	-1.1219018939	-3.084742666	-0.6181511776	 0.137601
H	 1.302457865	-2.8529751046	 0.7983220122	 0.150627
66.1435	117.1303	154.1834	181.9131	200.7225	252.5738	305.9942	429.6207	457.2153	526.6754	619.1462	679.6217	722.3323	791.5264	842.3689	926.7321	964.5157	1002.1668	1044.3065	1095.064	1118.9602	1153.5193	1196.8162	1217.504	1251.8041	1294.6666	1307.3095	1333.145	1349.2064	1434.815	1453.1119	1490.7557	1493.5142	1512.5475	1541.6812	1825.8979	2356.2498	3003.7353	3020.9121	3060.0936	3074.1858	3079.3102	3096.2392	3139.6627	3149.2577
CN1CCC(C#N)C1=O	CN1CC[C@@H](C#N)C1=O	
InChI=1S/C6H8N2O/c1-8-3-2-5(4-7)6(8)9/h5H,2-3H2,1H3	InChI=1S/C6H8N2O/c1-8-3-2-5(4-7)6(8)9/h5H,2-3H2,1H3/t5-/m0/s1
