15
gdb 18863	3.49146	2.53462	2.12767	1.678	63.85	-0.2141	0.0025	0.2166	696.6242	0.120876	-362.611268	-362.605257	-362.604313	-362.64104	24.354	
O	-0.0728405165	 1.5106888834	-0.0109135401	-0.428767
C	-0.0349954923	 0.1105611414	-0.0800363624	 0.140805
C	-1.3594635773	-0.6076634085	-0.0609680702	-0.084418
C	-2.0017120722	-0.7604193013	-1.4161312026	-0.065123
C	-1.594877808	 0.1352076314	-2.5331276768	-0.068627
C	-0.2632918003	 0.1496239336	-2.5921388012	-0.059339
C	 0.2582565028	-0.6559116489	-1.4364475759	-0.143834
N	-0.8616209347	-1.6340318516	-1.0617810267	-0.134292
H	 0.8165060749	 1.8355044818	 0.1613141789	 0.284085
H	 0.6047095893	-0.3177031639	 0.7013146237	 0.08874
H	-1.8925429117	-0.8938752312	 0.8405762686	 0.093935
H	-2.9708810041	-1.2504376266	-1.4228121592	 0.09341
H	-2.2930211192	 0.6836175172	-3.1509336312	 0.106014
H	 0.357346907	 0.7488000358	-3.2451219361	 0.103672
H	 1.2380511921	-1.1198911225	-1.5439709588	 0.07374
182.449	253.8213	276.1005	469.9691	503.2414	576.3133	718.6049	735.2902	750.0067	765.1969	794.4243	836.5407	852.4537	928.1184	966.5118	986.0256	993.2212	1007.5307	1050.6823	1089.4134	1125.0536	1147.2045	1160.6224	1180.0964	1227.8199	1264.1897	1291.0374	1354.2563	1357.9791	1382.0335	1444.9255	1658.7694	3029.3449	3115.925	3152.4337	3163.6515	3211.9165	3237.0563	3818.0873
OC1C2C3C=CC1N23	O[C@H]1[C@H]2[C@H]3C=C[C@@H]1N23	
InChI=1S/C6H7NO/c8-6-4-2-1-3-5(6)7(3)4/h1-6,8H	InChI=1S/C6H7NO/c8-6-4-2-1-3-5(6)7(3)4/h1-6,8H/t3-,4+,5-,6-,7?/m1/s1
