23
gdb 99031	3.29758	0.86935	0.82005	1.5467	82.85	-0.266	0.0154	0.2814	1562.3859	0.202087	-425.476612	-425.465367	-425.464423	-425.513834	40.523	
C	 0.2454112787	 1.3512866133	 0.0053711121	-0.238731
O	 0.0199287503	-0.0632430629	-2.5735*^-6	-0.229416
C	-1.2764073034	-0.4440802166	 0.0130982901	 0.441898
O	-2.1883752219	 0.3461394949	 0.0277582709	-0.353948
C	-1.3637015878	-1.9593623873	 0.0055284127	-0.341223
C	-2.7739419825	-2.5902546978	 0.0146470151	 0.262478
C	-3.5659582047	-2.1718525155	-1.238523336	-0.411018
C	-2.589766206	-4.1201430481	 0.0041703949	-0.399571
C	-3.5431643555	-2.1864193618	 1.2866484819	-0.41102
H	 1.3279245994	 1.4793418215	-0.0062680489	 0.13198
H	-0.2041415996	 1.818475126	-0.8746324045	 0.13941
H	-0.1839036455	 1.808514566	 0.9005770861	 0.13941
H	-0.8017814653	-2.3030862184	-0.8722663571	 0.126588
H	-0.7864776775	-2.3124498831	 0.8696063365	 0.126607
H	-3.0373415247	-2.4645944042	-2.1534851496	 0.099628
H	-4.5445874736	-2.6635780004	-1.2519942893	 0.105588
H	-3.7233456545	-1.0921092569	-1.2628695914	 0.141478
H	-2.0311476452	-4.4625054958	 0.8827723432	 0.106224
H	-3.5618476191	-4.624390656	 0.0103188388	 0.110695
H	-2.0475842388	-4.4523955535	-0.8884957385	 0.106224
H	-3.6994787382	-1.1069919276	 1.326491962	 0.141579
H	-4.521649716	-2.6779757985	 1.311863554	 0.105542
H	-2.9983823187	-2.490096527	 2.1884687904	 0.099599
15.3615	101.1004	129.8446	151.8812	168.829	226.7123	268.021	273.1672	273.4004	306.8833	322.2653	352.1171	396.2716	397.7311	492.9777	594.1864	717.8192	759.297	896.319	904.2433	927.0058	941.5573	942.9227	960.995	1035.0757	1057.3252	1064.3019	1178.4128	1181.2599	1184.3501	1211.5563	1253.7388	1277.605	1305.3596	1373.8596	1393.1756	1395.966	1426.4493	1447.4292	1473.1276	1477.9824	1482.0721	1488.2844	1495.2186	1498.2326	1504.3917	1509.6849	1526.2685	1811.3266	3019.9566	3025.9756	3026.731	3034.5892	3050.7943	3061.1493	3084.7439	3088.0101	3089.1033	3097.1267	3124.3387	3134.8272	3137.7608	3157.2953
COC(=O)CC(C)(C)C	COC(=O)CC(C)(C)C	
InChI=1S/C7H14O2/c1-7(2,3)5-6(8)9-4/h5H2,1-4H3	InChI=1S/C7H14O2/c1-7(2,3)5-6(8)9-4/h5H2,1-4H3
