16
gdb 79661	2.90211	1.52212	1.23727	1.3393	76.71	-0.2261	0.0105	0.2366	1033.5367	0.121259	-400.601626	-400.593464	-400.59252	-400.634126	31.363	
C	-0.1876231811	 1.544907799	-0.0281939266	-0.303349
N	 0.1768051136	 0.1277790262	 0.0623434242	-0.112264
C	 1.3941267482	-0.5170944615	-0.3004902476	-0.164647
C	 2.6986623313	 0.1902563868	 0.2316525692	-0.001151
O	 2.3273114988	 1.4026058879	 0.900436272	-0.229511
C	 2.1965285538	 0.1657821421	 1.5968091454	-0.064108
C	 0.856623692	-0.5563087532	 1.1274347532	 0.121196
C	 0.2538502595	-1.6008540933	 1.883282021	 0.215173
C	-0.2148946642	-2.4720676052	 2.56856234	-0.376271
H	 0.4750548926	 2.0832283602	-0.7087181514	 0.130307
H	-1.2140684041	 1.6106415119	-0.406376442	 0.114018
H	-0.1402063932	 2.033521202	 0.9468726593	 0.13226
H	 1.3996428389	-1.3091469603	-1.0420634708	 0.113455
H	 3.7029440439	 0.1063387789	-0.163295988	 0.11833
H	 2.6922996413	 0.0421875649	 2.5513790427	 0.116704
H	-0.6426208313	-3.2446816963	 3.1580521095	 0.18986
114.5361	131.6113	154.5294	237.7115	262.4939	408.3294	416.7502	472.1739	515.5129	588.9608	601.2305	658.8786	697.009	736.2382	758.7716	826.3487	858.2866	875.7407	939.8494	966.4924	981.7118	995.6224	1043.4639	1139.1292	1159.3175	1170.5515	1218.8442	1232.9134	1252.1426	1369.6744	1416.2176	1456.0255	1486.4355	1506.2978	2232.8432	3030.4285	3101.0382	3135.5388	3168.2509	3195.2444	3210.9011	3502.3648
CN1C2C3OC3C12C#C	CN1[C@H]2[C@H]3O[C@H]3[C@@]12C#C	
InChI=1S/C7H7NO/c1-3-7-5(8(7)2)4-6(7)9-4/h1,4-6H,2H3	InChI=1S/C7H7NO/c1-3-7-5(8(7)2)4-6(7)9-4/h1,4-6H,2H3/t4-,5+,6-,7+,8?/m1/s1
