13
gdb 11328	4.80359	1.53523	1.18059	3.0296	57.75	-0.2799	-0.0124	0.2675	952.7734	0.095533	-435.791829	-435.784598	-435.783654	-435.824	24.835	
C	-0.0769930547	 1.4361458944	-0.0274494366	-0.343353
N	-0.1095675312	-0.0154921716	-0.1085933196	-0.302803
C	 0.5243233251	-0.623949149	-0.993914848	 0.404826
C	 0.5864521609	-2.117519903	-1.2030856645	-0.183041
O	 1.4412570241	-2.2659770218	-2.339628088	-0.236033
C	 1.8521047682	-1.0561876776	-2.776519046	 0.506479
O	 2.5672682606	-0.8591953285	-3.6999761049	-0.34994
O	 1.3161730969	-0.0627198034	-1.987081315	-0.239899
H	 0.5379247822	 1.9161636851	-0.7956614595	 0.138524
H	-1.1021254537	 1.8132275502	-0.1019220664	 0.141097
H	 0.2967199482	 1.7224010621	 0.9610071562	 0.141104
H	 1.0215356528	-2.6366093797	-0.3449461801	 0.161518
H	-0.3956220994	-2.5446041271	-1.4228210477	 0.161519
90.002	107.8406	179.7006	198.2342	233.6017	450.6418	550.559	587.4365	658.8229	733.5348	774.8541	870.2331	948.8289	1029.2737	1046.617	1073.2944	1101.5931	1135.3542	1161.8958	1202.0594	1277.4975	1379.5028	1442.2154	1492.7993	1496.6143	1502.4386	1842.9157	1956.7451	3028.7143	3066.7139	3095.7871	3104.7733	3113.1905
CN=C1COC(=O)O1	CN=C1COC(=O)O1	
InChI=1S/C4H5NO3/c1-5-3-2-7-4(6)8-3/h2H2,1H3	InChI=1S/C4H5NO3/c1-5-3-2-7-4(6)8-3/h2H2,1H3
