17
gdb 13345	4.99382	1.19364	1.11222	3.1913	66.85	-0.2551	0.0174	0.2725	1093.1432	0.142827	-400.995963	-400.988039	-400.987095	-401.029988	27.626	
N	-0.6761184926	 1.2523885759	-0.3788743245	-0.439162
C	-0.3303357709	 0.0610635343	-0.1469804396	 0.12424
O	-1.2645343713	-0.8946592264	 0.0168303136	-0.194246
C	-0.8097869667	-2.2506462286	 0.1137464545	 0.074599
C	-1.9078568964	-3.0580362721	 0.8114842656	-0.23673
C	-2.7873896252	-3.4631920544	-0.3738611046	-0.072698
O	-1.8636945959	-3.7645139208	-1.4147603094	-0.254467
C	-0.7284086718	-2.9179402038	-1.280364297	-0.076808
H	 0.1478726837	 1.8465942622	-0.4418970111	 0.229545
H	 0.6994749695	-0.3094391263	-0.0388622816	 0.082778
H	 0.1481239801	-2.2732920873	 0.6442112836	 0.086899
H	-1.471906129	-3.9463797816	 1.2780763477	 0.112725
H	-2.4194229272	-2.4661064283	 1.5719224679	 0.123353
H	-3.3922686313	-4.3555578054	-0.1942249586	 0.111434
H	-3.4535164295	-2.6366712745	-0.6629242703	 0.110982
H	-0.7195650719	-2.1445201196	-2.0599178635	 0.112349
H	 0.1735057764	-3.5320866433	-1.3880871128	 0.105208
33.8583	61.6809	108.2598	172.7226	276.0221	366.4383	436.6801	581.1845	650.2225	742.8829	819.0746	864.1965	889.0959	928.8015	937.8634	968.8648	1004.3387	1046.068	1069.1746	1108.4119	1121.8976	1147.6914	1195.918	1231.9347	1253.182	1286.3944	1298.0668	1327.5788	1360.2101	1377.2862	1409.588	1428.2487	1471.4627	1505.9587	1522.0805	1745.2786	2997.3521	3009.0966	3013.8802	3045.8615	3059.1018	3069.4444	3097.9602	3134.351	3518.3101
N=COC1CCOC1	[NH][CH]O[C@H]1CCOC1	
InChI=1S/C5H9NO2/c6-4-8-5-1-2-7-3-5/h4-6H,1-3H2	InChI=1S/C5H9NO2/c6-4-8-5-1-2-7-3-5/h4-6H,1-3H2/t5-/m0/s1
