18
gdb 125945	2.90194	1.61691	1.09332	4.5213	77.58	-0.2353	0.0026	0.2379	1095.9338	0.151043	-398.140912	-398.13339	-398.132446	-398.172967	29.029	
C	-0.0287231869	 1.5958358074	-0.0104086583	-0.393196
C	 0.0242022931	 0.067167096	 0.0535926573	-0.10647
C	 0.7414284557	-0.5899619872	-1.1809361182	-0.208645
C	 1.552118439	-1.8393530045	-0.6831441237	-0.358776
C	 1.6576325555	-1.5213797588	 0.7721794038	 0.332467
C	 0.8393565216	-0.5048919224	 1.1785908837	 0.303465
N	 0.96850143	-0.3197075792	 2.5167610219	-0.298938
N	 1.842329812	-1.1816278583	 2.9652859653	-0.127298
N	 2.2644401411	-1.9286664912	 1.9038313306	-0.327981
H	 0.9798373898	 2.0177796083	-0.0744778618	 0.116971
H	-0.5965593536	 1.932417966	-0.8841426154	 0.110051
H	-0.5063019652	 2.0049837973	 0.8844192614	 0.134456
H	-1.0062245009	-0.3096882487	 0.1186433701	 0.089398
H	 0.0397772707	-0.8505613612	-1.9771893732	 0.105122
H	 1.4454166077	 0.1384960839	-1.5968673245	 0.112587
H	 1.0019070649	-2.7739320976	-0.8510136763	 0.122883
H	 2.5126283757	-1.9378081904	-1.1987533609	 0.118204
H	 2.9530401396	-2.6457368994	 2.0637898282	 0.275698
99.3006	164.1518	222.1355	235.7437	283.4042	428.8683	479.0617	552.8617	560.0102	652.7834	699.8684	726.8308	749.8471	821.6441	898.265	940.5704	974.2008	1005.7875	1021.3621	1050.051	1104.8635	1106.4571	1158.0715	1188.3212	1201.4865	1250.3999	1294.059	1301.3773	1319.2678	1357.9016	1366.6996	1397.5612	1410.3037	1481.6786	1493.0806	1499.3502	1500.0441	1523.6536	1612.3577	3000.2846	3025.8052	3033.2707	3050.6046	3071.7801	3101.3954	3105.7717	3114.2348	3663.5153
CC1CCC2=C1N=NN2	C[C@H]1CCc2c1nn[nH]2	
InChI=1S/C6H9N3/c1-4-2-3-5-6(4)8-9-7-5/h4H,2-3H2,1H3,(H,7,8,9)	InChI=1S/C6H9N3/c1-4-2-3-5-6(4)8-9-7-5/h4H,2-3H2,1H3,(H,7,8,9)/t4-/m0/s1
