23
gdb 89053	4.62633	0.67653	0.6356	1.0112	87.78	-0.2406	0.0922	0.3328	1858.3626	0.204364	-388.252685	-388.242694	-388.24175	-388.288777	36.779	
C	-0.2308588243	 1.4809265121	-0.0292381251	-0.40621
C	 0.0295045158	-0.0070043356	 0.0819896419	 0.000395
C	 1.4194779976	-0.5756935292	-0.0624213109	-0.283571
C	 0.7125675281	-0.6517383907	 1.269607496	-0.009204
C	 1.2086166988	 0.138347349	 2.4498507296	-0.080142
O	 2.2509386772	-0.6010601555	 3.0740549837	-0.250668
C	 2.7591741107	 0.021271394	 4.2093995141	 0.155161
C	 2.0590587848	-0.1661093259	 5.5332293091	-0.287432
C	 3.3705750112	-0.8701033256	 5.2393717083	-0.287132
H	 0.6034182452	 2.0754442467	 0.3536611232	 0.116668
H	-0.3775331766	 1.7662347107	-1.0769241939	 0.117428
H	-1.1309127934	 1.7755436519	 0.5223727801	 0.115748
H	-0.7635251788	-0.6126355591	-0.3500762755	 0.082976
H	 1.5644610927	-1.4879648999	-0.6303257567	 0.109036
H	 2.2397990667	 0.1314298862	-0.1435667024	 0.108997
H	 0.3349707509	-1.6307342337	 1.5523343842	 0.086364
H	 1.5866199518	 1.1241975562	 2.13744413	 0.081561
H	 0.3961216155	 0.3174242679	 3.1721589061	 0.088391
H	 3.2286200824	 0.988567306	 4.0201017766	 0.077892
H	 2.0505803091	 0.6531665491	 6.2438544533	 0.110024
H	 1.1639135877	-0.7780713767	 5.5308395103	 0.1173
H	 3.3242291881	-1.9344570509	 5.0397233521	 0.124574
H	 4.2704270389	-0.5387197871	 5.7450112859	 0.111843
46.3939	54.3831	99.3568	123.889	187.283	224.3224	256.9216	341.8637	398.4397	421.5557	465.2414	525.2132	756.3515	761.7107	813.816	822.3494	842.0404	885.8731	890.8629	938.1447	963.9535	983.9121	1005.6542	1047.2825	1061.6059	1070.6957	1083.34	1090.9624	1111.4501	1129.1512	1150.6295	1182.8954	1193.6925	1199.0319	1208.6691	1242.9433	1247.3964	1274.6176	1356.0336	1390.4771	1409.8843	1420.0956	1450.8257	1453.1336	1491.2464	1494.5906	1498.1159	1507.4043	1518.7504	2969.0282	2999.6774	3029.0785	3080.3214	3085.7042	3102.7833	3127.018	3131.5074	3134.0588	3141.7036	3145.5006	3211.5561	3218.7051	3234.1336
CC1CC1COC1CC1	C[C@H]1C[C@H]1COC1CC1	
InChI=1S/C8H14O/c1-6-4-7(6)5-9-8-2-3-8/h6-8H,2-5H2,1H3	InChI=1S/C8H14O/c1-6-4-7(6)5-9-8-2-3-8/h6-8H,2-5H2,1H3/t6-,7-/m0/s1
