27
gdb 118061	3.31246	0.71389	0.61772	0.9662	93.73	-0.2472	0.0857	0.3329	1948.175	0.249096	-390.696836	-390.68465	-390.683706	-390.734819	43.69	
C	 0.0635281323	 1.5756605407	-0.1115851122	-0.380272
C	 0.0473485446	 0.055844198	 0.0778476753	-0.174301
C	-1.3686196484	-0.5312732034	 0.0051285024	-0.175591
C	-1.4354026661	-2.0694438367	 0.0598657357	 0.019963
C	-0.7888623386	-2.6329408005	 1.334483932	-0.403571
C	-2.8814849054	-2.5913320869	-0.0753692976	 0.143863
C	-3.6288844339	-2.0623799594	-1.3037780404	-0.409848
O	-2.7914940453	-4.0150337734	-0.1326613877	-0.246107
C	-3.9460496476	-4.7013194441	 0.284294214	-0.236784
H	 1.0809733076	 1.9751332187	-0.0540791061	 0.110079
H	-0.3514550125	 1.8591112433	-1.0854229331	 0.112119
H	-0.533978631	 2.0765935392	 0.6585592081	 0.112398
H	 0.6734333073	-0.4159867875	-0.6914950812	 0.0939
H	 0.509708658	-0.1907483484	 1.0400551576	 0.100458
H	-1.973273925	-0.112892231	 0.8239459274	 0.086413
H	-1.8309081198	-0.1788258284	-0.9239621753	 0.093522
H	-0.8869610974	-2.4666956518	-0.8070253426	 0.075657
H	-1.241152496	-2.1888694116	 2.2304596358	 0.101363
H	-0.9280753903	-3.7141447899	 1.3819403659	 0.128398
H	 0.2838972292	-2.4263246202	 1.3679296769	 0.110765
H	-3.4399730424	-2.30765844	 0.8347014161	 0.056708
H	-3.8502104742	-0.9959421851	-1.214092425	 0.118713
H	-3.0374460143	-2.2221276363	-2.2113097309	 0.119692
H	-4.5835442065	-2.5816991159	-1.4267529595	 0.113013
H	-4.8157056444	-4.5092799842	-0.3621008931	 0.103137
H	-3.7186643402	-5.7699143471	 0.2420357911	 0.124358
H	-4.2250961999	-4.4402859081	 1.3175442263	 0.101954
49.6025	73.0215	85.9789	103.6835	132.3591	187.641	216.1317	238.0818	249.5028	281.919	303.9724	318.6692	343.7745	395.0253	450.0205	501.204	547.5629	747.3095	818.0337	854.8307	871.1828	900.5795	936.8428	983.2312	1008.2872	1037.1457	1056.8242	1076.2947	1115.2531	1141.0782	1154.1823	1180.7014	1184.3062	1195.8256	1224.1969	1265.3176	1296.3545	1328.8744	1333.757	1356.5301	1370.8606	1387.6685	1397.2684	1402.0575	1408.1909	1413.9492	1476.9574	1481.4735	1485.6441	1492.5486	1495.199	1496.8214	1500.6724	1504.2365	1510.8195	1512.7608	1514.1749	2940.0714	2972.9067	2994.2886	3004.9776	3017.8666	3020.5722	3027.9965	3030.1642	3041.8879	3049.5836	3068.7485	3095.6461	3100.2613	3103.7103	3105.6368	3111.3347	3121.2248	3137.4185
CCCC(C)C(C)OC	CCC[C@@H](C)[C@@H](C)OC	
InChI=1S/C8H18O/c1-5-6-7(2)8(3)9-4/h7-8H,5-6H2,1-4H3	InChI=1S/C8H18O/c1-5-6-7(2)8(3)9-4/h7-8H,5-6H2,1-4H3/t7-,8-/m1/s1
