20
gdb 107447	3.35835	1.3126	1.15632	2.2613	77.64	-0.23	0.0576	0.2876	1126.4283	0.17315	-403.113964	-403.106107	-403.105162	-403.146057	31.756	
O	 0.5217120394	 0.6235578653	-0.9432920599	-0.410952
C	-0.0307564289	 0.2123785281	 0.2988740723	-0.204836
C	-1.4670164983	-0.2503764661	 0.1824477379	 0.332209
N	-1.863548568	-1.049841362	-0.9935547903	-0.372497
C	-2.4422003476	 0.3001153947	-0.8001509106	-0.08862
C	-3.8350308366	 0.317279292	-0.1783364788	-0.235584
C	-3.6807281236	-0.2854572681	 1.2235350755	-0.040607
C	-3.2289467155	-1.7152222342	 1.3836420849	-0.287336
C	-2.2128902377	-0.6019467402	 1.4573234892	-0.102645
H	 0.1284098462	 1.4713258001	-1.1734021874	 0.289131
H	 0.5971804941	-0.6192967507	 0.6399983814	 0.123177
H	 0.0445328977	 1.0071378347	 1.0567682244	 0.098057
H	-1.1124842439	-0.9706765731	-1.6788723695	 0.233191
H	-2.1774430042	 1.0681149915	-1.5226511949	 0.066667
H	-4.1804888237	 1.3542986571	-0.0968902761	 0.096301
H	-4.5618544043	-0.2212005909	-0.7962191813	 0.111183
H	-4.2847057556	 0.138889414	 2.0185298897	 0.080017
H	-3.4922105652	-2.2094799663	 2.313027185	 0.099968
H	-3.1963971064	-2.3538532693	 0.5096184393	 0.1399
H	-1.724573568	-0.3809693966	 2.4004334792	 0.073276
101.2536	189.899	210.3144	271.2107	340.0079	358.4448	388.667	442.5009	550.2489	644.5481	692.6431	705.2722	793.925	797.7125	841.922	860.0579	906.216	929.9497	982.5651	993.3815	1015.5016	1029.8515	1053.5219	1079.7753	1087.6601	1092.5313	1106.1045	1112.6457	1176.2201	1201.4635	1208.2691	1221.3874	1261.9438	1302.8551	1324.6805	1347.867	1388.3086	1397.0585	1420.1514	1438.13	1473.8057	1483.8027	1500.9687	2988.2895	3037.9027	3057.275	3076.3349	3134.9508	3135.412	3157.6612	3167.7075	3231.9478	3471.0472	3820.3741
OCC12NC1CC1CC21	OC[C@]12N[C@H]1C[C@H]1C[C@@H]21	
InChI=1S/C7H11NO/c9-3-7-5-1-4(5)2-6(7)8-7/h4-6,8-9H,1-3H2	InChI=1S/C7H11NO/c9-3-7-5-1-4(5)2-6(7)8-7/h4-6,8-9H,1-3H2/t4-,5-,6+,7-/m1/s1
