15
gdb 10115	2.69525	1.5134	1.10273	3.173	65.63	-0.2709	0.0108	0.2816	1072.6397	0.11622	-399.746769	-399.737843	-399.736899	-399.781024	30.85	
O	 0.204915763	 1.5562826409	-0.0350810072	-0.410451
C	 0.3320987947	 0.1719030721	-0.2315014806	-0.065635
C	-0.9648210182	-0.5808551861	 0.1067804436	-0.101943
O	-1.1983062872	-0.2769011307	 1.4954881263	-0.204352
C	-2.2309106047	-0.9045843633	 2.1044602602	 0.132687
N	-2.4447684313	-0.695342856	 3.3285117105	-0.435945
C	-2.0910320211	-0.1879064253	-0.7376327054	 0.361516
C	-3.0178566249	 0.1120292331	-1.4404709728	-0.46566
H	-0.0898788002	 1.6831397186	 0.8746572184	 0.300526
H	 0.5753765797	 0.0104778274	-1.2852791685	 0.124278
H	 1.1346282583	-0.2635813687	 0.3831861058	 0.104218
H	-0.7829378388	-1.6600403657	-0.0009736077	 0.113198
H	-2.8029646307	-1.5586127639	 1.4358731314	 0.103515
H	-3.2482591667	-1.2373861845	 3.6395917546	 0.233486
H	-3.833132072	 0.3912515822	-2.0619424287	 0.210562
71.5825	83.7793	103.0594	131.8986	210.4258	252.8815	320.618	411.4617	432.0414	499.5087	631.0704	637.3458	686.1196	727.2647	821.9207	854.2089	922.7551	1002.5941	1041.1064	1073.7335	1098.1948	1125.0238	1236.1199	1283.8509	1310.2361	1344.8234	1401.3296	1421.9096	1430.8785	1492.107	1747.5769	2238.4629	2991.1041	3006.9001	3054.623	3098.7722	3500.9107	3519.0631	3797.2364
OCC(OC=N)C#C	OC[C@@H](O[CH][NH])C#C	
InChI=1S/C5H7NO2/c1-2-5(3-7)8-4-6/h1,4-7H,3H2	InChI=1S/C5H7NO2/c1-2-5(3-7)8-4-6/h1,4-7H,3H2/t5-/m0/s1
