14
gdb 19497	3.59332	1.95451	1.80396	0.9236	62.91	-0.2343	0.0407	0.2749	777.8007	0.106759	-382.471591	-382.464701	-382.463757	-382.502774	25.697	
C	 0.1635694531	-1.2381421629	 0.091856496	-0.428231
C	 0.1225102763	-0.0356242209	 0.0794725643	 0.339691
C	 0.0539689061	 1.3909798986	 0.0517988169	-0.327506
C	 0.464298966	 2.2813699293	 1.2399722372	 0.053415
O	 1.241766305	 1.7289452056	 2.2577559098	-0.254615
C	 2.4336670956	 1.2212667691	 1.6683169055	 0.015811
O	 2.5376838808	 1.7542112995	 0.3526605039	-0.254612
C	 1.2987144187	 2.2976452954	 0.0133229788	 0.053397
H	 0.2029384739	-2.2990767196	 0.1050193208	 0.197499
H	-0.7815629699	 1.8026792106	-0.5111098527	 0.120336
H	-0.1883735308	 3.0739775076	 1.5837173372	 0.121957
H	 3.2975202649	 1.5462064904	 2.2602519192	 0.117388
H	 2.383870305	 0.1275964648	 1.6199386656	 0.123519
H	 1.3688391352	 3.1043466626	-0.7054842526	 0.121951
123.7773	126.1233	166.8364	322.7154	365.3372	573.3432	612.6975	641.4174	658.1591	721.4277	729.0102	772.4835	778.6887	926.7021	943.8064	1007.7419	1024.5178	1050.9018	1084.9242	1127.8355	1130.5226	1151.2221	1209.9832	1218.3594	1305.5485	1348.2009	1401.7398	1442.4201	1546.8659	2233.6388	3024.4311	3071.1441	3126.8534	3189.8197	3199.0217	3503.5145
C#CC1C2OCOC12	C#C[C@H]1[C@H]2OCO[C@@H]12	
InChI=1S/C6H6O2/c1-2-4-5-6(4)8-3-7-5/h1,4-6H,3H2	InChI=1S/C6H6O2/c1-2-4-5-6(4)8-3-7-5/h1,4-6H,3H2/t4-,5+,6-
