14
gdb 33645	3.42498	1.54084	1.44796	3.9407	70.19	-0.2738	-0.0416	0.2323	913.7869	0.103349	-395.694646	-395.688286	-395.687341	-395.725401	25.079	
N	-0.0707317462	-1.1604248197	 0.0151193196	-0.341073
C	-0.0627833855	-0.0039337545	 0.0096909415	 0.157983
C	 0.0052764624	 1.420508499	 0.0351707726	 0.269749
C	-0.7231732324	 2.4581396995	 0.8232659672	-0.092672
C	 0.5773986163	 3.2038662966	 1.125400448	-0.236348
C	 1.2515346415	 2.3804192351	-0.0260217403	-0.092232
N	 1.0696642918	 3.1744257587	-1.2471283813	-0.172018
C	-0.1769857273	 3.1289569022	-1.4844747852	 0.036051
N	-0.9837171968	 2.2716805097	-0.6518420614	-0.181698
H	-1.5928733652	 2.353885874	 1.4589393367	 0.136108
H	 0.6061037187	 4.2907246137	 1.0233080629	 0.125016
H	 0.9512345566	 2.8997732345	 2.1053415396	 0.133697
H	 2.2582204195	 1.9964362613	 0.1091106073	 0.11165
H	-0.6761625934	 3.6889036498	-2.2673627971	 0.145786
137.3997	165.7461	379.3255	398.3896	488.9121	517.4964	547.4691	591.5627	710.0638	733.5548	819.4336	874.2129	894.7816	901.7521	932.7876	962.5892	979.5588	994.6226	1048.5959	1080.2866	1111.2907	1141.3042	1171.0386	1240.2753	1254.2411	1289.1289	1309.4425	1383.4818	1482.6832	1668.308	2355.8518	3073.2665	3135.1745	3170.2783	3208.7739	3212.0069
N#CC12C3CC1N=CN23	N#C[C@@]12[C@H]3C[C@@H]1[N][CH]N23	
InChI=1S/C6H5N3/c7-2-6-4-1-5(6)9(6)3-8-4/h3-5H,1H2	InChI=1S/C6H5N3/c7-2-6-4-1-5(6)9(6)3-8-4/h3-5H,1H2/t4-,5+,6-,9?/m0/s1
