17
gdb 35487	3.14741	1.57916	1.49848	4.3515	74.4	-0.2588	0.0271	0.2859	938.6695	0.138967	-380.846554	-380.839788	-380.838844	-380.877717	27.121	
N	-0.1382749196	-1.1902623188	-0.2484576429	-0.334982
C	-0.0732388454	-0.0438061207	-0.1172753533	 0.299927
C	-0.0083369001	 1.4100887268	 0.0513318831	-0.122917
C	-0.6919454852	 1.9232701442	 1.3626998159	-0.244555
C	 0.518810128	 2.2844325291	 2.2248197126	-0.045438
C	 1.4258752447	 1.0291380158	 2.4385006904	-0.259029
C	 2.2371240867	 1.4686115432	 1.2129008594	-0.033552
C	 1.5698853842	 2.8080589543	 1.2026764085	-0.062168
N	 1.3955005053	 1.8972675034	 0.079958577	-0.09481
H	-0.4837953108	 1.8568018807	-0.8277112482	 0.134609
H	-1.3036253328	 2.802772612	 1.1394301275	 0.112991
H	-1.3329817473	 1.1669600081	 1.8220169384	 0.128831
H	 0.2949597773	 2.8832635762	 3.1062810687	 0.080944
H	 2.0296077785	 1.1194030599	 3.3446775788	 0.113415
H	 0.9495931944	 0.0445915809	 2.4208282265	 0.122275
H	 3.2563404209	 1.1876996802	 0.9747912253	 0.103966
H	 1.9399128112	 3.8141544947	 1.0479289825	 0.100491
110.5755	160.2052	278.7717	370.8412	408.7361	500.7681	565.7701	650.5608	715.0673	740.0637	812.4873	837.2711	851.5469	881.6516	885.1639	954.0734	968.9223	979.9307	1014.4559	1019.8231	1037.4872	1064.4346	1097.2808	1130.8473	1167.3455	1211.3719	1221.8585	1239.5937	1251.6182	1279.2464	1306.5936	1327.9791	1348.1671	1364.6687	1486.8413	1498.2643	2357.5645	3052.6145	3058.6666	3063.2757	3111.2667	3113.7696	3128.7718	3179.4575	3193.5808
N#CC1CC2CC3C2N13	N#C[C@H]1C[C@H]2C[C@@H]3[C@H]2N13	
InChI=1S/C7H8N2/c8-3-5-1-4-2-6-7(4)9(5)6/h4-7H,1-2H2	InChI=1S/C7H8N2/c8-3-5-1-4-2-6-7(4)9(5)6/h4-7H,1-2H2/t4-,5+,6+,7-,9?/m0/s1
