19
gdb 119239	2.09396	1.23596	0.91065	3.0281	74.41	-0.2529	-0.032	0.2209	1358.446	0.155068	-460.138945	-460.128707	-460.127763	-460.174805	35.396	
C	-0.0283182371	 1.4754702746	 0.3418982422	-0.223198
O	-0.1445070004	 0.0772356476	 0.4640132007	-0.235237
C	-1.2210799303	-0.4482226308	-0.2783648668	-0.143333
C	-1.1333789919	-1.949526098	-0.1974148147	 0.261863
O	-1.4600239715	-2.5842922044	 1.0490024158	-0.276349
C	-2.3098609929	-2.8491066409	-0.0569243072	 0.028953
C	-3.7436592351	-2.387003473	 0.008452206	-0.429048
C	 0.0564851747	-2.5701654717	-0.8771829306	 0.12655
O	 0.6749079098	-2.0532794203	-1.770185458	-0.253162
H	 0.8277008352	 1.7832700574	 0.9464328656	 0.132346
H	 0.1432328372	 1.7799374939	-0.7021695633	 0.111334
H	-0.9281146712	 1.9939565781	 0.7097979735	 0.102863
H	-2.1800666127	-0.0813236636	 0.1132724519	 0.091386
H	-1.1456703818	-0.1548630418	-1.3376179449	 0.10932
H	-2.1872689508	-3.8558467413	-0.4656499515	 0.095512
H	-3.8355012977	-1.4051898827	 0.4746360896	 0.138347
H	-4.1787102136	-2.3481403043	-0.9955319532	 0.132989
H	-4.3290367687	-3.0988491551	 0.5994733757	 0.138719
H	 0.3008543288	-3.5824026238	-0.4835620909	 0.090146
60.8122	91.3371	106.2079	130.4834	182.7758	207.1176	229.107	243.4168	292.9059	342.5947	427.7641	470.9853	524.1037	564.3093	776.3448	832.4682	890.6839	958.3631	982.9336	1011.3188	1051.3681	1063.3887	1128.3266	1159.5136	1175.4159	1186.8246	1227.0007	1247.1449	1300.6592	1335.699	1393.4921	1409.367	1430.8263	1461.334	1475.662	1485.9261	1487.2956	1492.7828	1506.1276	1515.9571	1830.8619	2887.9543	2969.4752	2985.3839	3017.772	3026.7457	3044.5808	3071.7564	3106.0829	3120.3378	3145.774
COCC1(OC1C)C=O	COC[C@]1(O[C@H]1C)C=O	
InChI=1S/C6H10O3/c1-5-6(3-7,9-5)4-8-2/h3,5H,4H2,1-2H3	InChI=1S/C6H10O3/c1-5-6(3-7,9-5)4-8-2/h3,5H,4H2,1-2H3/t5-,6+/m0/s1
