23
gdb 106557	1.89804	1.57478	1.13831	1.788	86.19	-0.2301	0.0874	0.3175	1252.8971	0.203746	-388.240622	-388.230739	-388.229795	-388.275031	37.493	
C	 0.1476318153	 0.9038250101	-0.365552828	-0.380102
C	-0.1806689172	-0.5865231492	-0.2216522583	-0.322656
C	-1.6387511132	-0.8453677975	 0.0253418735	 0.407384
O	-2.6196015531	-0.3397924322	-0.9833583177	-0.350447
C	-3.4287635538	-1.020716406	 0.0521224072	 0.013319
C	-2.4205724336	-2.1993378173	 0.0387331651	-0.025781
C	-2.3541299676	-3.099475585	-1.1815469686	-0.431507
C	-2.5927604656	-0.2782114814	 1.1287259018	 0.0053
C	-2.531641904	-0.6835665516	 2.5929927559	-0.446931
H	 1.2075508777	 1.0504394401	-0.5924873369	 0.11074
H	-0.4427867204	 1.3499959968	-1.1702386294	 0.140288
H	-0.0774651448	 1.4504478552	 0.5558585236	 0.116748
H	 0.1185511453	-1.127360078	-1.1280500067	 0.111612
H	 0.3886922987	-1.0276995446	 0.6068254314	 0.103699
H	-4.5100599036	-1.0339383243	-0.0952544701	 0.082893
H	-2.3498736622	-2.7721376595	 0.9673498507	 0.062817
H	-2.433318447	-2.5105632308	-2.0974285715	 0.136029
H	-1.4124469562	-3.6593385736	-1.2056719871	 0.110953
H	-3.1674238965	-3.8334399971	-1.1675658787	 0.111176
H	-2.7082278385	 0.8036134526	 1.0194511298	 0.080413
H	-2.4189401999	-1.7596623036	 2.7461205836	 0.120516
H	-1.6899583313	-0.1888085253	 3.0902168332	 0.121406
H	-3.4436793381	-0.3695373178	 3.1124757074	 0.122131
71.4194	147.0941	165.2391	171.7151	211.9802	218.1725	238.4486	254.6249	356.9946	398.3693	437.953	584.5166	612.1675	643.4584	709.5956	769.2875	790.1215	809.9707	863.9608	893.0704	942.7449	989.3113	1017.2724	1038.2577	1056.4868	1074.8465	1105.9361	1126.9031	1136.0372	1161.8009	1181.2864	1221.766	1223.0265	1238.3258	1284.4091	1310.7284	1368.5242	1382.5716	1399.8799	1408.7585	1416.0922	1428.8306	1471.5165	1493.0019	1494.959	1496.5054	1500.1623	1506.7522	1507.9001	3023.5953	3032.7749	3034.143	3041.7094	3058.2338	3070.1093	3074.783	3087.3859	3090.9071	3103.0353	3108.4436	3118.1877	3123.5001	3134.6594
CCC12OC(C1C)C2C	CC[C@@]12O[C@@H]([C@H]1C)[C@H]2C	
InChI=1S/C8H14O/c1-4-8-5(2)7(9-8)6(8)3/h5-7H,4H2,1-3H3	InChI=1S/C8H14O/c1-4-8-5(2)7(9-8)6(8)3/h5-7H,4H2,1-3H3/t5-,6-,7-,8+/m1/s1
