15
gdb 6337	5.36555	1.05907	0.8944	7.0659	60.37	-0.2439	-0.0194	0.2245	1234.1749	0.115626	-436.980345	-436.970881	-436.969936	-437.016319	31.087	
C	-0.2207619522	 1.4972824108	 0.011325161	-0.502339
C	 0.1613160109	 0.0237207611	 0.0013109483	 0.415322
O	 1.2971242592	-0.3705120528	-0.0097364176	-0.290435
N	-0.960403244	-0.8226653191	 0.0064948051	-0.391633
C	-0.9813861822	-2.2262796669	-0.0002473915	 0.419663
O	-0.0103826238	-2.9274224433	-0.0134096353	-0.275047
C	-2.4215783591	-2.7596056947	 0.0119622038	-0.195848
O	-2.3767917613	-4.1580554359	-0.0028329466	-0.38444
H	 0.6917709799	 2.09176246	 0.0058797692	 0.159982
H	-0.8238031978	 1.751604579	-0.8671379412	 0.141306
H	-0.8079193102	 1.7435659623	 0.9027523037	 0.141315
H	-1.8593223844	-0.3630282271	 0.0161739764	 0.249655
H	-2.9251841398	-2.35941699	 0.9096035125	 0.108652
H	-2.9476868118	-2.3415670887	-0.8644911531	 0.10815
H	-3.2801951135	-4.4870024947	 0.0153020752	 0.295697
30.3605	60.4113	88.6172	103.9987	147.4215	207.3381	287.2407	335.5589	393.9951	547.5817	561.2558	561.6676	636.3101	710.6184	879.3868	920.0481	1025.6095	1029.8396	1050.1586	1129.7263	1162.4648	1221.1568	1241.1015	1256.0545	1383.8375	1441.8204	1467.4975	1482.856	1507.1851	1511.9275	1823.9454	1882.5198	2944.1938	2968.0654	3039.5646	3101.8337	3167.3415	3605.3784	3838.2723
CC(=O)NC(=O)CO	CC(=O)NC(=O)CO	
InChI=1S/C4H7NO3/c1-3(7)5-4(8)2-6/h6H,2H2,1H3,(H,5,7,8)	InChI=1S/C4H7NO3/c1-3(7)5-4(8)2-6/h6H,2H2,1H3,(H,5,7,8)
