14
gdb 17741	6.57005	1.68575	1.62768	1.8171	60.77	-0.2368	0.0799	0.3167	783.2097	0.106762	-382.407475	-382.401732	-382.400787	-382.437159	23.128	
C	 0.0520333505	 1.5755400141	 0.0076217553	-0.293513
O	 1.2226941091	 0.724606179	-0.0075925671	-0.285475
C	-0.0516683592	 0.1239372223	 0.0033148612	 0.506903
C	-0.5495192842	-0.9316518329	 0.9799448968	-0.2333
C	-1.7262398081	-1.3019621542	 0.0152901576	 0.106734
O	-1.4349588804	-2.7295373883	 0.00700192	-0.330783
C	-0.1317168207	-2.0809364063	-0.0040245826	 0.110323
C	-0.5696194631	-0.9244286187	-0.9706386615	-0.2333
H	-0.1001379347	 2.1333732586	 0.9306059044	 0.120463
H	-0.119082878	 2.1401827626	-0.9078733711	 0.120463
H	-0.5520353099	-0.9627694186	 2.0675113528	 0.096686
H	-2.7638444563	-0.9727611825	 0.0272018024	 0.105239
H	 0.7672492259	-2.6941407748	-0.0155591474	 0.112871
H	-0.5945477009	-0.9474927003	-2.058122961	 0.096686
159.9147	281.8567	325.3518	507.7824	568.8577	594.9101	736.1426	791.7372	798.9129	812.3406	863.3094	880.7266	890.9435	925.8735	957.7586	1005.0713	1042.4546	1094.9695	1102.2945	1115.5473	1127.1297	1143.1593	1148.4701	1164.8438	1173.7469	1229.4259	1237.9713	1326.2818	1469.6622	1560.6737	3083.1116	3132.3584	3138.0952	3146.5629	3156.1452	3168.6494
C1OC11C2C3OC2C13	C1O[C@]21[C@H]1[C@@H]3O[C@H]1[C@H]23	
InChI=1S/C6H6O2/c1-6(7-1)2-4-3(6)5(2)8-4/h2-5H,1H2	InChI=1S/C6H6O2/c1-6(7-1)2-4-3(6)5(2)8-4/h2-5H,1H2/t2-,3+,4-,5+,6-
