19
gdb 40339	3.74787	1.26617	1.20846	1.9281	78.75	-0.2268	0.0843	0.3111	1109.245	0.160329	-385.80504	-385.797711	-385.796767	-385.837136	29.329	
C	-0.2532862289	 1.3850837338	-0.2330948535	-0.267417
C	 1.1896811578	 1.1212556474	 0.102551857	-0.260705
C	 0.2120184149	-0.0317280809	 0.0218713181	-0.176977
C	-0.2056054382	-0.7341430058	 1.2490194533	 0.338714
C	-1.5025798409	-1.4209454155	 1.6961491321	-0.172145
C	-0.7579854236	-2.6977272317	 2.0815529033	-0.231622
C	 0.4763267342	-1.7752691486	 2.2374518132	 0.012243
O	 0.1411941006	-0.9402166288	 3.3828561001	-0.295418
C	-0.8289401484	-0.3218749108	 2.5403322115	 0.027008
H	-0.8699441294	 1.8578588206	 0.5234802358	 0.113055
H	-0.5076275861	 1.659382287	-1.2506632548	 0.113721
H	 1.9284449283	 1.217859926	-0.6850962375	 0.112018
H	 1.5402591557	 1.4086819287	 1.0875329976	 0.123543
H	 0.2987411549	-0.6609377967	-0.8609618812	 0.083775
H	-2.4949025704	-1.305955759	 1.2783172247	 0.089814
H	-1.0653232726	-3.2482226779	 2.9762812877	 0.099218
H	-0.6549519518	-3.3739476325	 1.2288433915	 0.101156
H	 1.5030772002	-2.1356107928	 2.2483497409	 0.085122
H	-1.3076325562	 0.5924902274	 2.8670708701	 0.104897
78.2699	130.487	168.6847	312.2493	408.6597	482.247	533.0815	602.4481	760.4175	772.8793	792.5664	816.0428	838.4231	851.1768	897.5802	916.8386	930.5928	932.0737	963.1	975.9658	1022.8794	1034.7957	1058.5982	1063.4798	1081.818	1099.7453	1104.2779	1132.3744	1134.6843	1161.7942	1198.766	1209.9227	1220.8125	1242.1232	1267.5444	1317.5692	1381.6908	1466.7231	1476.7631	1490.6772	1503.6118	3048.2425	3110.2375	3124.87	3134.4561	3139.3296	3142.8207	3193.8977	3203.8125	3214.4604	3229.6183
C1CC1C12C3CC1OC23	C1CC1[C@@]12[C@H]3C[C@@H]1O[C@@H]23	
InChI=1S/C8H10O/c1-2-4(1)8-5-3-6(8)9-7(5)8/h4-7H,1-3H2	InChI=1S/C8H10O/c1-2-4(1)8-5-3-6(8)9-7(5)8/h4-7H,1-3H2/t5-,6-,7+,8+/m0/s1
