18
gdb 31925	4.47488	0.87786	0.77532	4.966	87.4	-0.2189	-0.0392	0.1797	1475.5835	0.148189	-402.013222	-402.004431	-402.003487	-402.047538	31.974	
C	 0.2231295913	 1.5377686177	 0.1543237097	-0.367941
C	-0.0526692622	 0.0382321471	-0.0643600743	-0.304528
C	 0.5660782872	-0.509191085	-1.3121894607	 0.310087
C	-0.008398652	-0.8529729595	-2.5318346949	-0.21698
C	 1.0184109715	-1.2877344447	-3.3895519224	-0.193032
C	 2.2142799444	-1.2073595228	-2.6874585519	 0.210668
N	 1.9063461902	-0.7280755257	-1.4255243943	-0.351214
C	 3.5697798041	-1.5318178352	-3.0714336809	 0.068393
O	 3.9107683107	-1.9570837572	-4.156137047	-0.286362
H	 1.2962339649	 1.7385746409	 0.2371098137	 0.114453
H	-0.1607596549	 2.129092948	-0.6818414984	 0.13161
H	-0.255614812	 1.8891153312	 1.0732590429	 0.120328
H	 0.3020318029	-0.5277501	 0.807236135	 0.110243
H	-1.1323899742	-0.1307999834	-0.1190914406	 0.123014
H	-1.0624321939	-0.7906921774	-2.7577597917	 0.102223
H	 0.9307173908	-1.6315898231	-4.4081632241	 0.125436
H	 2.5810585954	-0.5774952171	-0.6932404823	 0.262438
H	 4.3225734858	-1.3563562438	-2.2634661978	 0.041163
40.8252	95.4255	159.2786	190.2622	226.5206	264.6035	335.145	393.194	483.6741	520.4735	643.2199	650.5716	709.4263	766.5361	786.6026	810.6437	884.3512	946.9864	997.6991	1020.3978	1022.4325	1062.8446	1072.8747	1082.6284	1199.3978	1249.9375	1276.7542	1323.9266	1351.2246	1405.5624	1412.4414	1447.5935	1465.5909	1483.8937	1496.9462	1503.3532	1523.7914	1607.5924	1777.9577	2819.4532	3021.509	3038.6611	3080.1457	3109.9574	3118.9536	3243.569	3267.9258	3654.6104
CCC1=CC=C(N1)C=O	CCc1ccc([nH]1)C=O	
InChI=1S/C7H9NO/c1-2-6-3-4-7(5-9)8-6/h3-5,8H,2H2,1H3	InChI=1S/C7H9NO/c1-2-6-3-4-7(5-9)8-6/h3-5,8H,2H2,1H3
