17
gdb 55069	3.8174	0.82553	0.76796	4.5295	71.46	-0.2518	-0.0436	0.2082	1493.5657	0.131757	-458.965159	-458.955494	-458.954549	-459.001261	32.991	
C	 0.3902541546	 1.1186827376	-0.9494830249	-0.489363
C	 0.0172954371	 0.0689108566	 0.0767515402	 0.379316
O	 0.827408594	-0.4526383713	 0.8082756201	-0.3003
C	-1.4509163243	-0.2754040737	 0.1371724307	-0.054712
O	-1.8130497417	-1.5263951587	 0.7127296836	-0.227652
C	-2.1807820175	-0.3591297438	 1.4328184778	 0.040939
C	-1.5362893348	-0.1516790405	 2.7852301269	-0.323325
C	-2.065766187	-1.1482383039	 3.8011941541	 0.158374
O	-2.4978607143	-0.8502707152	 4.8839858302	-0.23631
H	 1.4419219978	 1.3843239811	-0.8414967868	 0.151935
H	 0.2115670827	 0.7330219154	-1.9602791781	 0.151074
H	-0.2357849359	 2.0113183198	-0.8357800653	 0.144245
H	-2.0335416041	 0.005640653	-0.7408516801	 0.103575
H	-3.2471880838	-0.1285411458	 1.3857288095	 0.113343
H	-0.4569454251	-0.3161206613	 2.6896887622	 0.166697
H	-1.7224667481	 0.8604856246	 3.1560252753	 0.122554
H	-2.0138329494	-2.2079721342	 3.4681098145	 0.099607
48.7166	61.5441	75.5838	133.3523	150.2237	196.8201	264.2988	353.6978	390.2189	454.1983	505.4624	609.9209	624.2137	770.0602	825.9829	852.3228	907.3829	954.3231	988.0617	1013.4481	1059.1926	1081.571	1137.022	1139.6196	1194.2541	1239.8812	1278.8032	1302.0328	1379.0734	1400.5617	1423.4581	1449.6448	1451.1115	1462.1827	1473.0333	1807.9001	1834.619	2898.5084	3033.5189	3046.9996	3087.4424	3092.5658	3108.4524	3115.378	3158.0771
CC(=O)C1OC1CC=O	CC(=O)[C@H]1O[C@H]1CC=O	
InChI=1S/C6H8O3/c1-4(8)6-5(9-6)2-3-7/h3,5-6H,2H2,1H3	InChI=1S/C6H8O3/c1-4(8)6-5(9-6)2-3-7/h3,5-6H,2H2,1H3/t5-,6+/m0/s1
