19
gdb 38735	2.3836	2.37174	2.35212	1.5794	75.22	-0.2372	0.0838	0.321	799.8623	0.165023	-385.909383	-385.903946	-385.903002	-385.938738	25.155	
C	-0.0322491741	 1.5423839523	 0.0171159361	-0.213962
C	 1.4771664524	 1.8833295029	-0.0281310167	-0.051516
C	 2.0339040032	 1.4427350602	-1.4038336626	-0.213962
C	 1.8906299613	-0.0878801358	-1.2983283363	 0.068883
O	 0.4974762097	-0.4268852897	-1.2906616534	-0.27057
C	 0.0169991278	 0.0024811849	-0.0097855127	 0.068882
C	 1.1501201577	-0.3342282276	 0.9798241159	-0.072509
C	 2.0964172638	 0.8470248822	 0.9449959948	-0.073155
C	 2.3882556014	-0.3939215195	 0.1283362151	-0.072512
H	-0.4818174567	 1.8903613913	 0.9541824429	 0.09138
H	-0.60090433	 1.9526570549	-0.8226404614	 0.096604
H	 1.7027807043	 2.9195977591	 0.2272578847	 0.061311
H	 1.4800544569	 1.8522924159	-2.2537734202	 0.096604
H	 3.0902004526	 1.718085562	-1.5023894769	 0.09138
H	 2.3715013335	-0.6549823808	-2.0965891874	 0.071427
H	-0.9353451347	-0.4955002511	 0.1776105829	 0.071427
H	 0.9997329591	-0.9618936101	 1.848708142	 0.084789
H	 2.6966381312	 1.1406258604	 1.7971904193	 0.080714
H	 3.2108038806	-1.0684888516	 0.328118024	 0.084788
372.6575	376.7822	487.2852	563.4879	590.828	617.3424	756.4536	765.659	797.2322	802.9079	836.4709	854.6739	864.6332	880.4801	904.3721	930.6365	936.14	969.8459	993.878	1001.884	1004.496	1036.2695	1053.4269	1064.5308	1082.5269	1113.2273	1157.5634	1159.398	1216.3372	1258.899	1265.2863	1267.966	1277.3479	1305.161	1315.9335	1344.4131	1348.1697	1366.1351	1380.0241	1473.5276	1489.3277	3038.6286	3039.4755	3093.581	3097.9535	3098.4726	3104.2268	3108.0481	3183.8247	3188.3185	3200.6052
C1C2CC3OC1C1C2C31	C1[C@@H]2C[C@@H]3O[C@H]1[C@@H]1[C@H]2[C@H]31	
InChI=1S/C8H10O/c1-3-2-5-8-6(3)7(8)4(1)9-5/h3-8H,1-2H2	InChI=1S/C8H10O/c1-3-2-5-8-6(3)7(8)4(1)9-5/h3-8H,1-2H2/t3-,4-,5+,6+,7-,8+
