18
gdb 50505	5.20789	0.86912	0.76917	3.557	80.33	-0.2427	0.0243	0.267	1429.4829	0.14806	-401.952663	-401.943882	-401.942938	-401.986881	32.006	
O	-0.0314978587	-0.010208785	-0.0345841261	-0.339404
C	 0.0180321932	 1.2022060787	 0.0238057166	 0.137036
N	 1.1665123754	 1.9194596971	 0.0777873822	-0.045422
C	 2.4810568987	 1.2732759211	-0.009347024	-0.169852
C	 3.4691196439	 2.4505429691	 0.0086130435	-0.234869
C	 2.6377848844	 3.637552109	-0.5427549521	-0.176916
C	 1.2520711293	 3.3743664851	 0.0910056389	-0.175198
C	 3.1851821905	 4.9522209296	-0.2534525333	 0.302498
C	 3.6367488067	 6.0363989626	 0.0017683789	-0.436414
H	-0.8832786582	 1.8477780057	 0.0374056394	 0.069597
H	 2.6318842542	 0.5790558966	 0.822363608	 0.130021
H	 2.5416865324	 0.6870473229	-0.9332938336	 0.126865
H	 3.7835307692	 2.6791216332	 1.031257929	 0.123702
H	 4.3664545524	 2.2594434031	-0.5822666915	 0.122089
H	 2.5402140793	 3.5170141528	-1.6294274008	 0.116761
H	 0.4336837216	 3.8270410151	-0.4744708906	 0.129069
H	 1.2296214666	 3.7799666263	 1.1114450422	 0.120114
H	 4.0369357889	 6.9956365369	 0.2198888334	 0.200323
39.2273	123.3728	127.3081	182.44	238.2366	281.1426	333.1925	425.9562	505.783	521.6753	562.5599	636.3396	645.8709	741.7285	814.1299	868.4715	882.9724	955.1094	997.5285	1034.2858	1049.4231	1070.9004	1109.2587	1174.4923	1210.1958	1226.1488	1256.0733	1293.1285	1304.7559	1331.9222	1358.5273	1383.4202	1405.4843	1447.7322	1494.947	1516.9576	1528.0834	1789.2826	2241.1364	2928.4383	3010.065	3026.791	3042.362	3065.5394	3084.6426	3095.2983	3125.4491	3503.2549
O=CN1CCC(C1)C#C	O=CN1CC[C@@H](C1)C#C	
InChI=1S/C7H9NO/c1-2-7-3-4-8(5-7)6-9/h1,6-7H,3-5H2	InChI=1S/C7H9NO/c1-2-7-3-4-8(5-7)6-9/h1,6-7H,3-5H2/t7-/m0/s1
