21
gdb 64471	2.64507	1.38935	1.17064	2.0442	81.47	-0.2445	0.0192	0.2637	1167.656	0.181972	-424.226334	-424.217301	-424.216357	-424.259753	34.865	
C	-0.5831453006	 1.6261040299	-0.0739823909	-0.400499
C	-0.0602247475	 0.1735392046	-0.027875887	 0.280033
C	-1.2430105781	-0.8079978306	-0.0043489785	-0.399363
O	 0.6088555906	-0.1262016743	-1.2587560052	-0.268184
C	 1.9184040614	 0.3187828899	-1.4469248129	 0.002273
O	 2.8689498468	-0.5597284456	-0.9121350483	-0.225914
C	 3.1996696217	-0.3331709953	 0.440188719	-0.136219
C	 2.0662199565	-0.221386166	 1.4192027624	-0.107762
C	 0.7647556914	-0.0124703824	 1.2273683537	-0.049318
H	 0.2403440976	 2.3433463035	-0.1338236269	 0.117041
H	-1.2243284658	 1.7565621682	-0.9504444991	 0.1213
H	-1.1644187681	 1.8625063649	 0.8223828383	 0.114291
H	-1.8483878263	-0.6752807376	-0.9051720372	 0.121684
H	-0.8753408385	-1.8366359075	 0.0184345489	 0.128511
H	-1.8760715958	-0.6388998944	 0.871279204	 0.109001
H	 2.0780342646	 0.3176842361	-2.5284995292	 0.112179
H	 2.0689831947	 1.337704155	-1.0522007907	 0.077105
H	 3.8472460343	-1.1691108646	 0.7300572333	 0.121277
H	 3.8194885337	 0.5796802871	 0.5322471759	 0.100625
H	 2.4087320307	-0.2786032565	 2.4524549716	 0.092262
H	 0.1520755867	 0.0756253555	 2.1238679889	 0.089677
68.3359	140.6785	211.271	252.2633	254.0286	294.494	311.7039	346.8781	401.486	431.1201	470.9393	522.5486	637.7485	685.2208	728.2721	816.2572	866.442	904.4062	922.9426	949.9022	988.0247	1010.5478	1023.7227	1031.8091	1097.1023	1140.45	1173.2909	1188.467	1209.8556	1241.7314	1284.6249	1308.2963	1339.1433	1390.1465	1405.5399	1408.0609	1428.3496	1447.629	1475.6987	1481.045	1483.6663	1493.7273	1502.9499	1506.9805	1745.0829	2920.7215	2961.8301	3039.2995	3046.1586	3051.9725	3092.4349	3111.787	3116.3167	3118.1205	3123.8036	3129.8079	3141.5489
CC1(C)OCOCC=C1	CC1(C)OCOCC=C1	
InChI=1S/C7H12O2/c1-7(2)4-3-5-8-6-9-7/h3-4H,5-6H2,1-2H3	InChI=1S/C7H12O2/c1-7(2)4-3-5-8-6-9-7/h3-4H,5-6H2,1-2H3
