17
gdb 20834	3.30019	1.90376	1.33397	3.342	69.73	-0.249	0.0138	0.2628	945.7373	0.143804	-360.080902	-360.072771	-360.071827	-360.114476	28.238	
C	-0.1309085642	 1.5145163846	-0.0073095414	-0.377744
C	 0.0620993415	-0.0126010263	-0.0141259437	-0.299023
C	 0.7774596443	-0.5204392383	 1.1971187584	 0.358902
N	 2.0774937211	-0.773956628	 1.2679418546	-0.318775
C	 2.2438397516	-1.1681961517	 2.5569524174	 0.022845
N	 1.144247722	-1.1796380241	 3.2899067682	-0.259892
N	 0.2038795138	-0.7613273845	 2.4024447522	-0.002286
C	-1.1678663329	-0.6042248028	 2.8367935956	-0.325818
H	 0.8346563179	 2.021930376	 0.068195726	 0.140704
H	-0.6213225977	 1.8432629648	-0.9281847863	 0.12088
H	-0.7479452818	 1.8383992326	 0.8369199786	 0.117997
H	-0.90887577	-0.5105230893	-0.1194418216	 0.110326
H	 0.6642037836	-0.3038294755	-0.8784557431	 0.139696
H	 3.1988794035	-1.4624039572	 2.9666502546	 0.121425
H	-1.2955832021	 0.3222801184	 3.4053979821	 0.148101
H	-1.8269949788	-0.5834350238	 1.9678336443	 0.142878
H	-1.4352828918	-1.4486678949	 3.4739916342	 0.159785
48.1052	60.7409	150.5264	206.8948	212.3533	304.8823	392.3951	429.7681	644.7099	683.4403	719.4925	757.0594	794.9564	907.622	974.0708	992.1765	1030.38	1063.9947	1084.3543	1150.0696	1197.5279	1221.3104	1279.844	1309.2352	1319.6057	1348.8396	1407.6972	1428.5112	1453.4681	1479.8963	1481.7188	1494.6705	1498.608	1506.4916	1527.1183	1562.5574	3039.9935	3041.1455	3049.6086	3096.1999	3114.5126	3122.2539	3123.947	3154.7664	3255.2385
CCC1=NC=NN1C	CCc1ncnn1C	
InChI=1S/C5H9N3/c1-3-5-6-4-7-8(5)2/h4H,3H2,1-2H3	InChI=1S/C5H9N3/c1-3-5-6-4-7-8(5)2/h4H,3H2,1-2H3
