22
gdb 107914	3.80391	1.11676	1.09781	1.6512	85.47	-0.2354	0.0848	0.3201	1261.0417	0.194753	-367.169332	-367.16059	-367.159646	-367.20264	33.953	
C	 0.2761176778	 1.5144674913	-0.2015624666	-0.382323
C	-0.066985691	 0.0462385333	 0.0775366171	-0.29483
C	 0.5397399322	-0.4852442751	 1.3457991355	 0.35185
C	 0.5339636156	 0.1512985466	 2.7298384961	-0.30012
C	 1.7516949246	-0.7534069637	 2.984018512	-0.029681
C	 1.2561326977	-2.2192953459	 2.9577814261	 0.035331
C	 0.1798832106	-2.7298821751	 3.9062511604	-0.428526
C	 0.9676974129	-1.9144293717	 1.4966437425	-0.112684
N	 2.0085657698	-0.8243978265	 1.4432516486	-0.202422
H	 1.3605165489	 1.6553521215	-0.2358285468	 0.134342
H	-0.1415693994	 1.8365200703	-1.1600731367	 0.11078
H	-0.1261204113	 2.1754969727	 0.5729330445	 0.114754
H	-1.1569842424	-0.0830319192	 0.1228579168	 0.099796
H	 0.282221813	-0.5751266979	-0.7560692222	 0.10574
H	 0.8377413409	 1.1998484544	 2.6720293263	 0.108824
H	-0.3480920372	 0.0627363377	 3.3725049786	 0.091976
H	 2.5585989934	-0.4428123785	 3.64578097	 0.075884
H	 2.1362326699	-2.8715290189	 2.9993633304	 0.083868
H	-0.7250093127	-2.1165956306	 3.8723293367	 0.118191
H	-0.1072098072	-3.7548463298	 3.6471419508	 0.118365
H	 0.5419739537	-2.7413423861	 4.9403378523	 0.116604
H	 0.8625100402	-2.6214640689	 0.6795949576	 0.084281
69.7184	138.7686	172.5416	209.8838	218.9433	287.9946	323.3159	406.3631	486.8062	554.0252	612.9154	691.7278	757.6372	763.0799	791.0407	834.1992	878.195	907.8716	935.0514	962.8248	982.8481	1008.994	1035.2954	1057.7626	1069.0579	1095.6233	1111.801	1132.2698	1153.9108	1188.1752	1204.476	1230.5926	1263.5002	1283.0235	1302.7643	1351.2647	1361.2678	1390.5303	1405.8207	1410.7142	1422.8558	1471.7255	1491.1062	1495.6874	1497.9387	1508.0513	1510.8	3016.0699	3031.9852	3038.348	3041.5152	3045.0371	3054.8704	3093.5906	3099.314	3106.4689	3111.8489	3115.9782	3129.1106	3161.6841
CCC12CC3C(C)C1N23	CC[C@@]12C[C@H]3[C@@H](C)[C@@H]1N23	
InChI=1S/C8H13N/c1-3-8-4-6-5(2)7(8)9(6)8/h5-7H,3-4H2,1-2H3	InChI=1S/C8H13N/c1-3-8-4-6-5(2)7(8)9(6)8/h5-7H,3-4H2,1-2H3/t5-,6+,7+,8-,9?/m1/s1
