22
gdb 13877	3.84883	1.40467	1.08978	0.1214	83.76	-0.2335	0.0292	0.2626	1157.1645	0.200924	-313.092702	-313.084084	-313.08314	-313.125657	33.044	
C	 0.0004277056	 1.5569583238	 0.0202036745	-0.38793
C	 0.0373911198	 0.0218216101	 0.0415727674	 0.033077
C	 0.8239603829	-0.4673400041	 1.2660063512	-0.395388
C	-1.3888403122	-0.5706905171	-0.0072229946	 0.013323
C	-2.20959205	-0.1493067005	-1.2603363082	-0.226452
C	-3.0893043906	-1.3691085841	-1.6297313256	-0.262674
C	-2.3783544175	-2.5119423805	-0.9466193645	-0.073132
C	-1.4699429104	-2.0839594191	-0.0722490443	-0.074396
H	 1.0130746123	 1.9731214922	 0.0402639099	 0.107015
H	-0.5004086062	 1.9429351418	-0.872210666	 0.113883
H	-0.5341037337	 1.9444221758	 0.8963695467	 0.109025
H	 0.5639705987	-0.3208526401	-0.8613050898	 0.068763
H	 0.9495885451	-1.5536267838	 1.2702780532	 0.112675
H	 1.8236850407	-0.0208251191	 1.2896547133	 0.108352
H	 0.3151742292	-0.1852576157	 2.1959273218	 0.110174
H	-1.9052683103	-0.2303723263	 0.906986358	 0.068219
H	-2.7936865443	 0.7601118329	-1.0999274845	 0.095399
H	-1.5147469149	 0.0539305087	-2.0837797039	 0.100463
H	-4.1133751193	-1.266488354	-1.2424041669	 0.103255
H	-3.1865698636	-1.5060335765	-2.7128387586	 0.099657
H	-2.6286709482	-3.5516661553	-1.1291049167	 0.08764
H	-0.8766540132	-2.7296596793	 0.5652555378	 0.089054
77.3425	108.8203	193.2434	235.0055	243.1412	286.62	339.7551	399.263	430.8576	484.2355	604.6472	745.363	772.6428	835.2616	854.7207	887.5739	926.6032	930.7466	963.1886	972.9383	974.7199	998.4049	1033.9629	1064.2741	1123.5052	1136.0709	1152.9196	1188.4792	1199.6112	1231.0398	1285.1669	1294.6834	1319.9309	1329.036	1352.532	1368.7255	1389.1942	1400.8389	1421.2804	1483.2146	1487.8552	1493.3651	1500.3192	1505.0481	1513.3199	1686.4204	2949.1538	2998.0527	3003.3547	3024.0748	3029.3538	3033.5641	3054.2622	3086.549	3093.1115	3097.7009	3106.9615	3108.658	3179.0908	3205.7065
CC(C)C1CCC=C1	CC(C)[C@H]1CCC=C1	
InChI=1S/C8H14/c1-7(2)8-5-3-4-6-8/h3,5,7-8H,4,6H2,1-2H3	InChI=1S/C8H14/c1-7(2)8-5-3-4-6-8/h3,5,7-8H,4,6H2,1-2H3/t8-/m1/s1
