15
gdb 43809	2.10508	1.76029	1.07592	4.4	71.77	-0.2749	-0.0037	0.2712	1092.5019	0.11223	-416.796545	-416.788662	-416.787718	-416.829299	29.358	
N	 0.1112928342	 1.1410490448	 0.4731448661	-0.528916
C	 0.0572133348	-0.0232551991	 0.0281081243	 0.446783
O	 0.9873152404	-0.8146721758	-0.6096810863	-0.263185
C	 0.0619835595	-1.9255997933	-0.681857713	 0.456966
C	 0.0420166601	-2.8690705393	-1.8268517359	-0.337968
C	 0.4895154336	-3.3242030298	-0.4388494637	-0.331456
C	-1.0485662999	-1.0827736858	-0.0367041849	-0.4038
C	-1.6033662545	-1.5580072915	 1.2178374426	 0.309507
N	-2.0406943254	-1.9737722955	 2.2029602704	-0.321851
H	 1.0294155775	 1.5645083047	 0.3332285548	 0.24236
H	-0.9184237249	-3.2066137712	-2.2015993583	 0.135128
H	 0.8095995243	-2.7423219245	-2.5822796513	 0.142744
H	 1.5493356479	-3.4952251729	-0.2871289548	 0.144026
H	-0.1672430377	-3.9648321003	 0.1399795889	 0.14824
H	-1.8509770098	-0.8019422403	-0.7245480888	 0.161422
89.0627	117.9652	152.8603	248.6679	292.7044	411.1413	431.9767	472.0244	515.7131	571.3146	649.7629	756.0903	801.169	859.5149	872.742	895.0249	920.3389	966.9053	1006.2729	1026.6282	1055.797	1078.1013	1083.3909	1164.3789	1172.2451	1182.8343	1290.1431	1322.6048	1385.8398	1449.7462	1502.1514	1841.2836	2367.3274	3083.7735	3136.7782	3139.7052	3222.1592	3235.0342	3491.9685
N=C1OC2(CC2)C1C#N	[NH][C]1OC2(CC2)[C@H]1C#N	
InChI=1S/C6H6N2O/c7-3-4-5(8)9-6(4)1-2-6/h4,8H,1-2H2	InChI=1S/C6H6N2O/c7-3-4-5(8)9-6(4)1-2-6/h4,8H,1-2H2/t4-/m0/s1
