13
gdb 24043	4.249	1.09022	1.00346	3.6401	68.27	-0.29	-0.0706	0.2194	1143.6412	0.091834	-411.849438	-411.842165	-411.841221	-411.884074	25.253	
N	-0.0190844629	-1.1542867798	-0.0041751514	-0.293965
C	-0.0130153967	 0.0006203117	 0.0021067542	 0.267238
C	 0.0008102359	 1.463805356	 0.0099169085	-0.398209
C	 1.4212493178	 2.0009623952	-0.0007699401	 0.355061
N	 2.00631993	 2.205879009	 1.1802432435	-0.259466
C	 3.2552364459	 2.6661591359	 1.1031578532	 0.088871
N	 3.9248604623	 2.9256279177	-0.0197335922	-0.23044
C	 3.2310698591	 2.6857800837	-1.1322315159	 0.088911
N	 1.9806546102	 2.2266720236	-1.1903784683	-0.259606
H	-0.5277533732	 1.8276836204	-0.8752353962	 0.176339
H	-0.5106521676	 1.8178404212	 0.9090279374	 0.176341
H	 3.7716345415	 2.8481058678	 2.0427259066	 0.144467
H	 3.7270611577	 2.8842537177	-2.0794181493	 0.144457
5.9519	90.8755	214.3155	339.9316	354.0715	375.9703	433.946	525.9104	662.6656	705.698	815.473	896.1286	935.0602	953.1173	991.1219	1011.5767	1050.0457	1167.5212	1185.9426	1218.7981	1287.6923	1307.123	1347.2127	1423.6112	1446.7224	1464.1607	1591.7729	1599.8346	2368.3665	3070.3798	3125.3132	3170.3555	3173.8372
N#CCC1=NC=NC=N1	N#CCc1ncncn1	
InChI=1S/C5H4N4/c6-2-1-5-8-3-7-4-9-5/h3-4H,1H2	InChI=1S/C5H4N4/c6-2-1-5-8-3-7-4-9-5/h3-4H,1H2
