21
gdb 85676	2.23143	1.34401	1.14194	1.8779	84.79	-0.2475	0.0245	0.272	1222.7546	0.178995	-387.049808	-387.039666	-387.038722	-387.084544	38.135	
C	-0.9388038192	 1.2574388138	-0.0202840802	-0.41203
C	-0.0166183658	 0.0584480947	-0.0819878722	 0.143735
O	 1.2152851101	 0.3408372708	-0.7906630094	-0.312431
C	 1.9955095515	-0.3821930162	 0.1883616941	-0.072398
C	 3.2119155985	 0.2996882617	 0.591357084	 0.322492
C	 4.2260810301	 0.8453841246	 0.9369781351	-0.439209
C	 0.7718437952	-0.4433283344	 1.1685331521	 0.221161
C	 0.85538155	 0.5511594524	 2.3234887963	-0.442783
C	 0.4079112565	-1.838492378	 1.6641967205	-0.458254
H	-0.4557393435	 2.1170688916	 0.4495346036	 0.12551
H	-1.2333146995	 1.5457208223	-1.0344494275	 0.12935
H	-1.8492843249	 1.0139442355	 0.538140731	 0.115927
H	-0.5419068703	-0.7789390031	-0.5682639386	 0.065336
H	 2.2541344784	-1.3829394962	-0.1903300473	 0.09284
H	 5.1222794266	 1.3316366983	 1.2343394099	 0.198975
H	 1.1641885447	 1.5439941369	 1.9887394138	 0.133158
H	-0.1133963094	 0.6412802453	 2.8264310479	 0.111306
H	 1.588211724	 0.2136091291	 3.0631420625	 0.12107
H	 1.1498218062	-2.2066118644	 2.3815380121	 0.121821
H	-0.564116468	-1.8313246129	 2.1703889111	 0.118041
H	 0.3507835887	-2.5562607218	 0.8394077411	 0.116386
44.9379	138.6078	176.6142	200.1256	220.2292	235.6407	265.8207	290.0392	340.2687	348.6506	391.5039	483.379	532.8713	546.9347	621.0903	649.6956	670.7339	768.1246	824.4792	890.7672	954.6283	972.4124	979.7192	1013.7168	1038.5761	1060.261	1109.0797	1143.5035	1200.0799	1204.7444	1255.4193	1280.4714	1329.2206	1352.2308	1394.6617	1404.1141	1417.3129	1430.4614	1476.4767	1481.0565	1489.84	1494.8154	1502.8468	1509.0462	2232.5323	2968.844	2980.8045	3024.9095	3036.7299	3040.6678	3090.9112	3098.1873	3102.1246	3105.3697	3120.9315	3130.7017	3501.5918
CC1OC(C#C)C1(C)C	C[C@H]1O[C@@H](C#C)C1(C)C	
InChI=1S/C8H12O/c1-5-7-8(3,4)6(2)9-7/h1,6-7H,2-4H3	InChI=1S/C8H12O/c1-5-7-8(3,4)6(2)9-7/h1,6-7H,2-4H3/t6-,7+/m1/s1
