18
gdb 22426	2.82212	1.23299	1.01609	1.2354	77.89	-0.227	0.0155	0.2425	1216.1296	0.145081	-439.013527	-439.004267	-439.003322	-439.047141	34.865	
C	-0.0080970532	 1.5073472103	 0.1012717359	-0.492951
C	-0.0281327714	 0.0084797302	 0.0687611061	 0.284825
C	 1.1534930946	-0.8397614817	-0.3185982461	-0.391824
C	 0.5660278067	-1.0001683888	 1.0765553706	 0.266091
O	 1.2879230287	-0.7284238497	 2.216807697	-0.449296
C	-0.6945007418	-1.7906672252	 0.9941193986	 0.384482
C	-1.3038312084	-0.8573782409	-0.0487831264	-0.379036
N	-1.1018831566	-2.7523248754	 1.7099253584	-0.279018
O	-2.4091309343	-3.1349251853	 1.340043501	-0.395812
H	 0.9608727367	 1.8771540231	 0.4500543948	 0.130071
H	-0.1883835722	 1.9277551534	-0.8951529531	 0.12312
H	-0.7792297156	 1.899069614	 0.7734603968	 0.124704
H	 1.0697041114	-1.6248172755	-1.0663703411	 0.111689
H	 2.1066364346	-0.3187389048	-0.3087057968	 0.118181
H	 1.9121855824	-1.4478270812	 2.3636292183	 0.295259
H	-2.2042874747	-0.3712239292	 0.3395327282	 0.129396
H	-1.5236197419	-1.2812863953	-1.0333346232	 0.115105
H	-2.6003298852	-3.8329013779	 1.9753037511	 0.305015
93.0986	158.1256	175.9988	191.3518	223.7173	248.3247	326.9785	346.2761	372.838	432.9306	479.121	539.1345	575.5919	588.8304	712.9872	760.0615	816.3088	849.9543	951.7738	960.8754	983.8876	1004.1921	1051.1337	1073.7619	1088.9851	1133.3464	1168.3047	1216.7978	1245.6411	1282.4298	1350.3034	1398.6551	1421.9108	1427.6228	1466.5301	1486.4442	1495.826	1512.4482	1786.1609	3026.0899	3049.9055	3085.7867	3099.5891	3104.1197	3106.1306	3197.8795	3794.9084	3820.2113
CC12CC1(O)C(C2)=NO	C[C@@]12C[C@]1(O)C(=NO)C2	
InChI=1S/C6H9NO2/c1-5-2-4(7-9)6(5,8)3-5/h8-9H,2-3H2,1H3	InChI=1S/C6H9NO2/c1-5-2-4(7-9)6(5,8)3-5/h8-9H,2-3H2,1H3/t5-,6+/m1/s1
