17
gdb 44970	2.60246	1.811	1.59749	3.5112	66.07	-0.2628	0.0045	0.2673	913.4208	0.139276	-459.022708	-459.016027	-459.015083	-459.053674	26.914	
O	-0.0155126016	-0.0014637101	-0.3081478045	-0.339679
C	 0.0114663929	 1.1731861064	-0.0962392876	 0.44276
O	-1.0991008993	 1.9389679814	 0.1090915702	-0.237775
C	-0.6434772843	 3.2788652609	 0.3976850635	 0.193414
C	-0.4593275158	 3.4665331245	 1.9041376595	-0.220264
C	 0.508150854	 2.3977098001	 2.4585784256	-0.232174
C	 1.6979058261	 2.141801566	 1.5059572894	-0.215284
C	 1.2052003732	 2.1245875213	 0.0495760536	-0.077275
O	 0.6037616457	 3.3856389832	-0.2537394829	-0.249857
H	-1.3471042454	 3.979334789	-0.0550372826	 0.107753
H	-0.0590825367	 4.4758573728	 2.0504685468	 0.116631
H	-1.4267580675	 3.4160803224	 2.4132348276	 0.116039
H	 0.8685343476	 2.6923888558	 3.4480482405	 0.107873
H	-0.0434253819	 1.4616121168	 2.5980065663	 0.132421
H	 2.4412123349	 2.942162926	 1.5845629699	 0.116581
H	 2.1938201897	 1.1974778286	 1.7514764459	 0.122917
H	 1.9917315485	 1.9150384549	-0.6748879212	 0.115918
138.6757	223.3207	261.265	366.3814	432.7895	470.3319	502.9712	613.2055	680.4948	732.096	787.2727	822.9941	846.9529	880.239	897.1925	905.9957	940.3856	1000.3098	1050.4286	1058.9641	1091.3703	1106.7716	1151.0743	1188.3525	1223.5095	1259.0388	1296.854	1322.1571	1346.8352	1359.8627	1377.4344	1389.202	1392.8368	1470.3396	1477.251	1500.6018	1901.5543	3047.456	3047.625	3048.8506	3086.6134	3095.2379	3102.7787	3111.0101	3128.3144
O=C1OC2CCCC1O2	O=C1O[C@H]2CCC[C@@H]1O2	
InChI=1S/C6H8O3/c7-6-4-2-1-3-5(8-4)9-6/h4-5H,1-3H2	InChI=1S/C6H8O3/c7-6-4-2-1-3-5(8-4)9-6/h4-5H,1-3H2/t4-,5-/m0/s1
