21
gdb 95146	2.6472	1.71047	1.4332	1.5191	81.33	-0.2325	0.0109	0.2433	1021.9969	0.185491	-387.108906	-387.101416	-387.100472	-387.140303	31.158	
C	-0.0362120761	 1.5782191484	-0.0092615789	-0.411242
C	 0.0119320322	 0.0490164966	 0.0140455755	 0.038324
C	 0.6374974307	-0.5292390699	-1.279644	-0.207747
C	 1.0089284839	-2.0263749972	-1.1667038747	-0.215745
C	 1.6158322894	-2.3246905793	 0.2212856445	 0.037548
O	 0.63567361	-1.9441609438	 1.1932005648	-0.258383
C	 0.7630658371	-0.5197033058	 1.2464635401	 0.02448
C	 2.2696986934	-0.3176892504	 1.1427519699	-0.082425
C	 2.7744306384	-1.3877802275	 0.5357991524	-0.082572
H	 0.9693592096	 2.0085254179	-0.0782994186	 0.113872
H	-0.6071564117	 1.9387184658	-0.8714330802	 0.115019
H	-0.5108380776	 1.9775391364	 0.8940051975	 0.110616
H	-1.0123397941	-0.3343343606	 0.1058660128	 0.078492
H	-0.0491230469	-0.3763207778	-2.1196815647	 0.091372
H	 1.5405676552	 0.0445480005	-1.5152025236	 0.099249
H	 0.1156295474	-2.6520526481	-1.2710687389	 0.104501
H	 1.6999176414	-2.308014664	-1.9702272651	 0.090245
H	 1.8374378098	-3.388022164	 0.3503267787	 0.075618
H	 0.3177970527	-0.1662796214	 2.1820559985	 0.073871
H	 2.7931067065	 0.5777926822	 1.4506754304	 0.103547
H	 3.7993237886	-1.558623988	 0.2326203894	 0.101362
149.1337	221.1158	256.7678	277.8746	340.9705	402.2278	424.092	481.1603	570.468	626.4255	730.0189	767.0901	787.5165	833.5245	859.259	894.5227	909.7945	922.7481	943.1021	952.5461	976.4544	996.0759	1030.3839	1064.8676	1073.0311	1115.5928	1139.0224	1151.1606	1189.7266	1234.9789	1283.7231	1289.2776	1310.08	1326.3057	1334.6953	1354.7018	1373.721	1377.4979	1391.4214	1409.3316	1475.3872	1490.432	1497.1921	1501.4149	1664.9939	3022.0152	3024.8366	3029.0586	3039.5827	3057.8861	3065.7263	3070.0983	3081.9625	3092.4177	3095.4384	3207.2318	3233.1036
CC1CCC2OC1C=C2	C[C@H]1CC[C@@H]2O[C@H]1C=C2	
InChI=1S/C8H12O/c1-6-2-3-7-4-5-8(6)9-7/h4-8H,2-3H2,1H3	InChI=1S/C8H12O/c1-6-2-3-7-4-5-8(6)9-7/h4-8H,2-3H2,1H3/t6-,7-,8-/m0/s1
