20
gdb 74336	3.22263	1.16865	0.99753	1.0801	80.06	-0.2413	0.0273	0.2686	1267.3715	0.171729	-403.162868	-403.154119	-403.153175	-403.197016	32.346	
C	-0.0819011323	 1.4454990754	-0.1373826978	-0.472594
C	-0.0965447304	-0.0397151991	-0.0114618298	 0.411104
N	-1.0708697351	-0.8110816307	-0.2788004413	-0.3194
C	-0.6117377372	-2.1885166145	-0.0320914696	-0.011709
C	 0.8210409175	-2.0048573207	 0.5448120249	-0.12254
O	 1.0708948689	-0.5870453412	 0.4260245525	-0.253737
C	-1.5386727488	-2.969640603	 0.8825798575	 0.001401
C	-2.25220526	-2.2985295981	 2.0286268919	-0.262404
C	-3.0294668849	-2.7778531482	 0.8252585683	-0.266832
H	 0.6972349665	 1.756373248	-0.8405232418	 0.145694
H	-1.0520840468	 1.7946892914	-0.4885435506	 0.151173
H	 0.1504831281	 1.9055670054	 0.8280141939	 0.144854
H	-0.5716498124	-2.7079009545	-0.999433185	 0.085348
H	 0.8827780473	-2.2779141431	 1.6035300759	 0.114278
H	 1.5967260545	-2.5374851424	-0.0105678347	 0.114856
H	-1.1937163617	-3.9854040682	 1.0624708618	 0.080233
H	-2.350922668	-2.8401125083	 2.9628903629	 0.104397
H	-2.1291298511	-1.2266877811	 2.135677548	 0.117737
H	-3.4013280696	-2.0179442861	 0.1483500831	 0.133755
H	-3.6643070746	-3.650647531	 0.9314999398	 0.104387
58.2833	84.2889	141.1947	160.4265	211.0243	272.3131	335.5869	423.5247	525.82	607.5678	681.9102	707.7454	784.6174	815.6487	829.938	906.5421	920.2645	931.8083	983.5765	1012.2797	1024.7097	1060.9763	1063.9865	1074.1911	1082.8848	1092.3763	1139.307	1158.1337	1201.8642	1220.9575	1234.6104	1262.4935	1316.4852	1350.6717	1381.4133	1398.5763	1417.7819	1458.7435	1475.3462	1476.6515	1500.5226	1519.8719	1737.6336	3001.4883	3046.0069	3051.567	3102.1765	3108.8781	3128.3185	3136.1808	3141.122	3167.0113	3219.2935	3233.9371
CC1=NC(CO1)C1CC1	CC1=N[C@@H](CO1)C1CC1	
InChI=1S/C7H11NO/c1-5-8-7(4-9-5)6-2-3-6/h6-7H,2-4H2,1H3	InChI=1S/C7H11NO/c1-5-8-7(4-9-5)6-2-3-6/h6-7H,2-4H2,1H3/t7-/m0/s1
