15
gdb 29141	3.20255	1.38052	0.97048	3.5556	73.43	-0.2188	-0.048	0.1707	1152.5131	0.112988	-457.835069	-457.827336	-457.826392	-457.867226	29.369	
C	-0.016400442	 1.5333438869	 0.0052712625	-0.488245
C	-0.0009094633	 0.0289310158	 0.0119909597	 0.210013
C	-0.033757947	-0.6805576484	-1.1337587027	-0.024687
O	-0.0211086519	-2.0423770462	-1.1674125019	-0.204451
C	 0.026230515	-2.787886154	-0.0296924586	 0.375918
O	 0.0367653465	-4.0004918412	-0.0803334633	-0.389634
C	 0.0628830549	-2.0531854907	 1.2325545111	 0.210796
O	 0.1090332363	-2.8289571639	 2.3287069519	-0.416393
C	 0.0497943379	-0.698517478	 1.2513667597	-0.246948
H	 0.8787778376	 1.9395582479	 0.489523903	 0.138311
H	-0.0561764615	 1.9265807611	-1.0136214549	 0.13018
H	-0.8834420028	 1.9216851464	 0.5514232807	 0.138308
H	-0.0728446927	-0.2632431839	-2.1306738307	 0.136123
H	 0.106554763	-3.7432490094	 1.9928903726	 0.312131
H	 0.0774673799	-0.1682571523	 2.1974478609	 0.118579
123.7337	157.805	205.1575	278.6716	330.7322	353.8676	425.8463	471.1316	508.1251	584.592	609.7582	611.7902	676.5274	787.3455	826.6168	829.7754	915.5362	993.2537	1012.8756	1067.1841	1145.0372	1169.2519	1204.5475	1272.7694	1331.3709	1394.1244	1420.1011	1477.9057	1479.1704	1496.2391	1625.2528	1719.4176	1783.907	3031.171	3084.6192	3118.8894	3189.5822	3230.3028	3651.8665
CC1=COC(=O)C(O)=C1	Cc1coc(=O)c(O)c1	
InChI=1S/C6H6O3/c1-4-2-5(7)6(8)9-3-4/h2-3,7H,1H3	InChI=1S/C6H6O3/c1-4-2-5(7)6(8)9-3-4/h2-3,7H,1H3
