19
gdb 69951	3.64281	1.45432	1.27387	3.1236	73.77	-0.2371	0.0654	0.3025	1041.613	0.160235	-423.004601	-422.997089	-422.996145	-423.036272	29.911	
C	 0.2007527511	 1.4709849414	-0.1629282405	-0.483917
C	-0.1443566695	 0.0326714133	 0.1128029427	 0.410249
C	-1.5801762563	-0.4623585701	-0.0437348589	-0.306933
C	-1.6527206761	-1.7804392588	 0.7473045439	-0.079891
C	-1.1853093663	-3.112145856	 0.1130452444	-0.076966
O	-0.0949974319	-3.2353665671	 1.0569254883	-0.288931
C	-0.3556195232	-1.9211725719	 1.5881358199	 0.105201
C	 0.5751272254	-0.8384785345	 1.0691060336	-0.048617
O	 0.8017372789	-0.9456121958	-0.3428277557	-0.281872
H	 1.2661319636	 1.6486752012	 0.0022248982	 0.132676
H	-0.029258225	 1.7304117512	-1.2023200403	 0.129088
H	-0.3737492719	 2.1418650611	 0.4844752103	 0.121527
H	-2.2726468204	 0.279117674	 0.3709918738	 0.102242
H	-1.8379388267	-0.5879812824	-1.1016595957	 0.112384
H	-2.5834042434	-1.8807641389	 1.3064922056	 0.083241
H	-1.8826638657	-3.9537669512	 0.1967901776	 0.096145
H	-0.8234652947	-3.0301629407	-0.9172255425	 0.111269
H	-0.4177749004	-1.9234825635	 2.6821955242	 0.07207
H	 1.4274717527	-0.4964575715	 1.6520390212	 0.091035
152.747	166.6298	202.0314	263.2228	333.7386	379.4609	394.956	539.1286	583.0486	679.7161	716.3144	801.3496	834.9853	850.5809	877.7155	907.0976	935.0972	963.703	999.1858	1017.4681	1037.2278	1045.2567	1074.168	1102.3013	1128.7059	1163.5647	1197.254	1226.7915	1239.9646	1264.7967	1295.2064	1319.9318	1333.5028	1347.1581	1371.2511	1409.495	1444.9064	1477.676	1485.4164	1497.8962	1515.5533	3025.1236	3033.4394	3038.1368	3044.6345	3074.4598	3076.697	3097.0001	3106.0023	3124.9202	3138.2132
CC12CC3COC3C1O2	C[C@]12C[C@H]3CO[C@H]3[C@H]1O2	
InChI=1S/C7H10O2/c1-7-2-4-3-8-5(4)6(7)9-7/h4-6H,2-3H2,1H3	InChI=1S/C7H10O2/c1-7-2-4-3-8-5(4)6(7)9-7/h4-6H,2-3H2,1H3/t4-,5+,6+,7-/m0/s1
