19
gdb 42089	3.82005	1.22489	1.19537	1.4511	76.83	-0.2423	0.017	0.2593	1116.3883	0.16093	-423.038001	-423.030219	-423.029275	-423.071133	29.57	
C	-0.1696474013	 1.2159700756	 0.0834538971	 0.015811
O	 0.8408269011	 1.7122594345	 0.9241638748	-0.23807
C	 2.0282160203	 1.1526716053	 0.3913722507	-0.175705
C	 1.6090117371	-0.2631181382	-0.0610444266	 0.380383
C	 2.3138311129	-0.7815128401	-1.3383075928	-0.280186
C	 2.5653167767	-2.2921261316	-1.1132782849	-0.261977
C	 2.3557491209	-2.458985852	 0.3719955152	-0.075821
C	 1.8518060421	-1.3666599661	 0.9405838255	-0.101405
O	 0.1808466792	-0.1086090955	-0.2525066845	-0.305242
H	-1.1200151272	 1.2261138461	 0.6267481283	 0.115964
H	-0.25174492	 1.8322689891	-0.8317478862	 0.079091
H	 2.3901573386	 1.7405043367	-0.4679779128	 0.091344
H	 2.7941597685	 1.1489133463	 1.1694597665	 0.121061
H	 1.7051368673	-0.5673455731	-2.2191343092	 0.112814
H	 3.2694904375	-0.2604844677	-1.4617599274	 0.102922
H	 1.8614010675	-2.9189848664	-1.675928231	 0.116982
H	 3.5684438513	-2.5971422173	-1.4323041705	 0.105389
H	 2.5757799025	-3.3873132999	 0.8885059838	 0.096974
H	 1.5785548351	-1.2504125758	 1.9832048741	 0.099673
48.1422	76.9569	207.361	270.1129	300.2495	398.679	422.8539	494.8397	704.8101	735.37	754.0247	774.9193	802.2221	839.0709	911.6037	939.5519	969.8397	978.384	987.4553	997.456	1044.9055	1072.6166	1104.8473	1112.4738	1165.8675	1171.0801	1188.0015	1207.7668	1216.5543	1246.8107	1278.5087	1307.3479	1323.7534	1359.3593	1387.0607	1428.755	1467.9176	1491.5456	1506.3325	1545.7977	1686.9552	2922.4119	2971.9696	3024.8981	3044.4015	3061.1633	3072.7386	3109.339	3113.6794	3182.1571	3209.1552
C1OCC2(CCC=C2)O1	C1OC[C@]2(CCC=C2)O1	
InChI=1S/C7H10O2/c1-2-4-7(3-1)5-8-6-9-7/h1,3H,2,4-6H2	InChI=1S/C7H10O2/c1-2-4-7(3-1)5-8-6-9-7/h1,3H,2,4-6H2/t7-/m0/s1
