14
gdb 46018	5.09232	1.04597	0.88376	1.6054	72.47	-0.245	-0.0404	0.2046	1222.3358	0.09937	-436.668899	-436.66074	-436.659796	-436.702747	29.253	
O	-0.0769403578	 0.2016068101	-0.8093000402	-0.295044
C	-0.0330107519	 1.2081173797	-0.1481146195	 0.352353
C	-1.3056835393	 1.8840806472	 0.3423501892	-0.194122
O	-1.1135989271	 2.8137922248	 1.4086758912	-0.252836
C	 0.0365959504	 3.5496732443	 1.3664250833	 0.216538
N	 1.1342846068	 3.2348513067	 0.8121751233	-0.308896
C	 1.2612439147	 1.9192745628	 0.213211857	-0.281715
C	-0.1059187789	 4.7848233046	 2.0783872733	 0.273047
C	-0.2341922298	 5.8150994128	 2.6828818672	-0.337627
H	-1.7583272944	 2.4027258034	-0.5155475195	 0.149374
H	-2.0134467931	 1.1312953221	 0.6947288959	 0.15775
H	 1.8101574731	 1.265481013	 0.9075259371	 0.159451
H	 1.8869061345	 1.9785900503	-0.6845317826	 0.153218
H	-0.3378959872	 6.7294593481	 3.2140288144	 0.20851
29.855	111.0468	155.4282	158.9788	365.4756	411.4815	430.3513	436.8707	499.161	587.8979	653.7971	672.0068	680.6658	730.8333	750.5038	800.7819	905.1042	1034.2751	1044.8433	1123.2527	1194.8781	1220.3535	1244.6284	1265.2282	1334.4003	1367.5125	1435.4838	1465.1361	1719.483	1835.0073	2246.3815	3009.8851	3010.7525	3065.7492	3120.833	3500.2601
O=C1COC(=NC1)C#C	O=C1COC(=NC1)C#C	
InChI=1S/C6H5NO2/c1-2-6-7-3-5(8)4-9-6/h1H,3-4H2	InChI=1S/C6H5NO2/c1-2-6-7-3-5(8)4-9-6/h1H,3-4H2
