20
gdb 105487	1.88237	1.64726	1.26635	2.5448	74.54	-0.2319	0.0314	0.2632	1134.1893	0.170048	-440.313311	-440.303539	-440.302595	-440.348433	35.612	
C	-0.100979476	 1.5177793894	 0.3197447122	-0.397923
C	 0.1841330517	 0.0140141338	 0.2620613194	-0.222836
C	 0.6824808058	-0.4510277671	-1.1018485649	 0.345259
C	 0.6160552111	-1.975314732	-1.3825341766	-0.331154
C	-0.3561935414	-1.5910291968	-2.5124016701	-0.073338
O	-0.2846565072	-0.1874439632	-2.1641524019	-0.335819
C	 2.0605542793	 0.1522944256	-1.4106631077	 0.338373
N	 2.1110052504	 0.8541554229	-2.5689499978	-0.522668
O	 3.0046973739	-0.023863184	-0.6620900584	-0.385769
H	 0.811662796	 2.1032605964	 0.1696915335	 0.128899
H	-0.8219107806	 1.8028394229	-0.4521247547	 0.128801
H	-0.5166041807	 1.7951160745	 1.2926121631	 0.114478
H	 0.9474136358	-0.2629078676	 0.9968247973	 0.128725
H	-0.7264218768	-0.547935629	 0.5002279046	 0.090396
H	 1.5557028819	-2.4355254115	-1.6878019908	 0.128877
H	 0.1778323234	-2.555817059	-0.5690685339	 0.115512
H	 0.0064573229	-1.7738737413	-3.5306465737	 0.106813
H	-1.3783749652	-1.9742095526	-2.4241718715	 0.111152
H	 1.2652397581	 0.9825667106	-3.0997047135	 0.272114
H	 2.9665896975	 1.3150581282	-2.8291000244	 0.260109
52.4799	75.4319	99.7325	181.0344	210.0267	240.0137	283.4462	325.0275	357.0661	406.994	496.6368	511.5856	651.257	659.7171	764.0853	772.7694	794.2628	855.6811	892.6965	950.0602	985.9669	1007.5707	1027.9248	1046.2215	1091.9861	1137.2888	1164.3843	1174.1757	1204.2232	1230.8045	1259.9372	1301.7058	1345.5259	1361.811	1386.0781	1408.7011	1470.5892	1494.2739	1500.4713	1506.324	1527.6883	1584.0414	1794.0182	3027.1396	3036.2214	3041.6225	3071.2405	3085.2917	3087.0075	3111.2171	3118.6626	3144.6295	3591.931	3735.5579
CCC1(CCO1)C(N)=O	CC[C@]1(CCO1)C(=O)N	
InChI=1S/C6H11NO2/c1-2-6(5(7)8)3-4-9-6/h2-4H2,1H3,(H2,7,8)	InChI=1S/C6H11NO2/c1-2-6(5(7)8)3-4-9-6/h2-4H2,1H3,(H2,7,8)/t6-/m0/s1
