14
gdb 15737	3.14177	1.72953	1.25609	2.8429	63.03	-0.2683	-0.0215	0.2468	939.8334	0.106752	-378.729643	-378.721762	-378.720818	-378.763342	26.969	
O	-0.6120111908	-0.0993429854	 1.136594214	-0.315263
C	-0.2162036563	 0.9892204929	 0.7978118207	 0.360434
C	 1.2800175876	 1.3682488576	 0.8789261191	-0.403688
C	 1.885946969	 1.5290343716	-0.4387949507	 0.261734
N	 2.3446599346	 1.6526465507	-1.492603226	-0.310706
N	-1.0432709268	 2.0337282173	 0.4343970271	-0.074226
C	-1.1090014378	 2.719248688	-0.8488069711	-0.236619
C	-2.246803103	 1.8781142249	-0.3458275618	-0.220244
H	 1.3901793992	 2.3029137209	 1.4383004918	 0.173386
H	 1.7886517759	 0.5692452542	 1.4225909648	 0.180107
H	-1.1725706211	 3.8022974055	-0.7989589669	 0.13711
H	-0.5085783942	 2.3270063667	-1.6635070539	 0.164333
H	-2.4101653814	 0.9087495054	-0.8080537557	 0.147593
H	-3.1337641547	 2.3594972597	 0.0545907785	 0.13605
25.738	92.8437	147.4549	217.2575	227.8543	378.0416	396.9308	460.9885	593.24	657.6032	762.0997	812.9148	931.7661	956.676	965.177	980.9947	1055.4832	1128.9284	1140.2156	1143.9566	1171.9597	1177.8832	1228.0637	1292.1576	1409.9005	1449.5115	1497.6522	1525.1442	1805.6107	2358.4821	3064.4454	3120.8917	3124.7079	3126.498	3208.012	3221.6862
O=C(CC#N)N1CC1	O=C(CC#N)N1CC1	
InChI=1S/C5H6N2O/c6-2-1-5(8)7-3-4-7/h1,3-4H2	InChI=1S/C5H6N2O/c6-2-1-5(8)7-3-4-7/h1,3-4H2
