20
gdb 58849	2.46352	1.49237	1.09039	1.9705	79.85	-0.2427	-0.0202	0.2225	1175.5277	0.169633	-403.131736	-403.122628	-403.121684	-403.165651	34.281	
C	-0.0119895216	 1.6073564085	 0.3315519845	-0.396745
C	-0.0270344082	 0.0995818962	 0.0250835964	-0.082838
C	 0.8914570768	-0.691792572	 0.9634471329	-0.408097
C	-1.4529561071	-0.3978325869	 0.0363321559	 0.223169
C	-2.1902935025	-0.9614364499	 1.2096491398	-0.282839
N	-1.9210559895	-1.8652831049	 0.0956374966	-0.162154
C	-3.0078524327	-1.5676070252	-0.903872695	-0.288557
C	-2.4578494482	-0.1350156916	-1.0498094278	 0.359601
O	-2.5798128965	 0.7338188768	-1.8667359972	-0.316011
H	 1.0055563608	 2.0030278151	 0.2546917	 0.11399
H	-0.6482507521	 2.1541128019	-0.3694004089	 0.144182
H	-0.373498843	 1.802524019	 1.3475382324	 0.112738
H	 0.3398641638	-0.0352448806	-1.0017251725	 0.089581
H	 0.8086578774	-1.7673933216	 0.783818884	 0.137557
H	 1.9329786947	-0.3955448143	 0.8062529547	 0.117371
H	 0.652780815	-0.4987175928	 2.0151993457	 0.113874
H	-1.5988856897	-1.168604274	 2.0958372918	 0.134825
H	-3.2161331191	-0.6587731608	 1.4121151405	 0.119266
H	-2.8706489291	-2.1425200347	-1.8235456481	 0.143021
H	-4.0233376292	-1.7135484283	-0.5245336657	 0.128067
53.1677	124.142	185.5454	194.1422	239.2012	259.3174	290.1871	368.1211	417.669	482.2543	528.5475	560.3179	658.3729	693.4646	772.5624	841.8728	865.966	902.3078	937.3049	971.4828	991.1448	999.9482	1040.237	1089.4625	1115.3756	1126.1278	1140.4438	1188.2589	1196.2553	1238.6994	1259.4819	1339.5279	1343.2393	1385.898	1397.9574	1419.0593	1462.3481	1490.3296	1492.4903	1500.1138	1508.656	1515.7003	1878.5749	3010.5518	3031.8219	3035.9939	3058.2579	3097.4228	3100.4346	3103.3598	3117.6805	3119.7308	3121.7093	3197.8593
CC(C)C12CN1CC2=O	CC(C)[C@]12CN1CC2=O	
InChI=1S/C7H11NO/c1-5(2)7-4-8(7)3-6(7)9/h5H,3-4H2,1-2H3	InChI=1S/C7H11NO/c1-5(2)7-4-8(7)3-6(7)9/h5H,3-4H2,1-2H3/t7-,8?/m0/s1
