20
gdb 93001	2.66605	1.51744	1.11067	1.8618	79.93	-0.2291	0.012	0.2412	1140.8949	0.172121	-403.140531	-403.132135	-403.131191	-403.173036	33.434	
C	-0.01496575	 1.4949680957	 0.0214642505	-0.488876
C	 0.0362546779	-0.0170037728	 0.0173022189	 0.298884
N	-0.7067337521	-0.7481868601	 1.0904606765	-0.382365
C	 0.769553976	-0.7287915553	 1.0970147139	-0.114866
C	 1.4451615817	-2.0534065147	 0.8163439589	 0.130726
O	 1.5034194214	-2.8555705467	 1.9911974071	-0.44029
C	 0.7902323586	-2.8223072333	-0.3493303421	-0.292213
C	 0.3670437133	-1.9421928869	-1.496008631	-0.093511
C	 0.0067979842	-0.6713052319	-1.3227663591	-0.068082
H	 0.8035422549	 1.9170550001	-0.5716719956	 0.12927
H	-0.9562641676	 1.8552372301	-0.4099924556	 0.125081
H	 0.0673726885	 1.892775295	 1.0379867439	 0.11314
H	-1.0609778877	-0.0754188469	 1.7678618012	 0.225573
H	 1.2664577691	-0.1234694012	 1.8530965441	 0.082552
H	 2.4924476634	-1.8477185442	 0.5642620142	 0.091172
H	 0.5925901871	-2.9634715781	 2.2903862162	 0.282399
H	 1.4737340117	-3.6082034014	-0.6853791094	 0.106979
H	-0.0968523506	-3.336120643	 0.0457308553	 0.120045
H	 0.3187689577	-2.3906959261	-2.4845393258	 0.091008
H	-0.3241499475	-0.0669652482	-2.163158742	 0.083375
105.424	165.1594	218.9286	252.1857	296.6898	369.0463	377.504	400.4509	433.3907	473.5838	538.9339	625.1484	675.3949	719.521	755.2116	859.0218	886.9588	907.4132	951.4449	979.1265	991.5234	1009.2692	1022.9806	1055.9524	1065.9938	1114.9796	1141.9775	1170.914	1193.3028	1209.2706	1291.8579	1296.6439	1321.38	1353.7337	1365.4699	1414.4953	1423.4916	1425.4641	1451.2469	1470.7761	1484.4761	1502.0463	1715.7521	3017.3103	3024.8044	3041.3937	3077.5564	3088.6371	3101.2011	3125.1895	3151.3591	3174.5325	3479.4141	3787.6685
CC12NC1C(O)CC=C2	C[C@]12N[C@H]1[C@@H](O)CC=C2	
InChI=1S/C7H11NO/c1-7-4-2-3-5(9)6(7)8-7/h2,4-6,8-9H,3H2,1H3	InChI=1S/C7H11NO/c1-7-4-2-3-5(9)6(7)8-7/h2,4-6,8-9H,3H2,1H3/t5-,6-,7+/m0/s1
