20
gdb 8682	2.37293	1.69602	1.26854	1.1507	76.86	-0.2628	0.0374	0.3002	1083.4874	0.173271	-348.977906	-348.967759	-348.966814	-349.012213	37.228	
C	-0.0866719791	 1.6289162594	 0.0000650945	-0.392412
C	 0.0039962885	 0.1020537245	-0.017675572	-0.184771
C	 0.7404112307	-0.4979677692	 1.1983259534	 0.160294
O	-0.0311307716	-0.1173501631	 2.346675177	-0.450098
C	 0.8458589782	-2.0448932242	 1.1116601018	-0.192166
C	-0.5002319602	-2.773343129	 1.0874986322	-0.400357
C	 2.1028086063	 0.0495223765	 1.3102035434	 0.325432
C	 3.2265376097	 0.4580936183	 1.4407540749	-0.479845
H	 0.9071248872	 2.0847555665	-0.0326944384	 0.124405
H	-0.6541712598	 1.9894808751	-0.8631355863	 0.106106
H	-0.5870039705	 1.9717180318	 0.908760501	 0.13329
H	-1.0037612693	-0.3246444605	-0.0265048108	 0.109319
H	 0.5102059738	-0.2421384992	-0.9263533224	 0.100017
H	 0.5082363023	-0.2787370402	 3.1281909014	 0.28302
H	 1.4435502278	-2.302517988	 0.2297652876	 0.10552
H	 1.4272898038	-2.3791106377	 1.9799056588	 0.094135
H	-1.1344713145	-2.4347507137	 1.9108563918	 0.130936
H	-1.0424564277	-2.6086475227	 0.1519405633	 0.119738
H	-0.3481687187	-3.8518489339	 1.1914568073	 0.110189
H	 4.2143328432	 0.8337006794	 1.5479937915	 0.197249
91.1575	107.3578	149.5014	161.2823	206.1237	227.3788	240.2429	289.6718	312.7699	364.3733	407.8756	481.9811	562.8891	579.7343	629.9166	662.5118	691.0324	781.863	792.2862	935.5255	960.6107	968.2462	1030.4354	1051.8698	1080.9975	1125.8322	1156.942	1188.3462	1277.4027	1319.9415	1345.2415	1367.4083	1389.922	1405.3078	1410.7946	1473.425	1480.8387	1493.501	1498.4576	1509.5546	1511.6447	2225.127	3027.7221	3043.5344	3045.6121	3046.8001	3066.739	3088.1268	3109.3264	3113.224	3125.1281	3131.386	3498.8747	3813.2218
CCC(O)(CC)C#C	CCC(O)(CC)C#C	
InChI=1S/C7H12O/c1-4-7(8,5-2)6-3/h1,8H,5-6H2,2-3H3	InChI=1S/C7H12O/c1-4-7(8,5-2)6-3/h1,8H,5-6H2,2-3H3
