14
gdb 28002	2.60848	1.39707	0.9098	5.4388	68.55	-0.1964	-0.0237	0.1727	1172.482	0.100309	-473.865983	-473.85766	-473.856716	-473.898787	30.599	
O	 0.0607897595	 1.3802996045	-0.0495739277	-0.436599
C	 0.0710718439	 0.0229162369	-0.0297920663	 0.339736
C	 0.0118956213	-0.76589527	-1.1361894811	-0.195184
N	 0.0469105281	-2.0999660635	-0.6881284691	-0.103248
C	 0.0065327917	-3.2229754183	-1.5041076345	 0.167181
O	-0.064099027	-3.1680458305	-2.7059056055	-0.303149
C	 0.1274737083	-2.1005038618	 0.6947553086	 0.440291
O	 0.172146508	-3.2970747412	 1.3219436824	-0.431655
C	 0.145184485	-0.8141396368	 1.1462711283	-0.464429
H	 0.1117630985	 1.7070814349	 0.8530411053	 0.300936
H	-0.0507017284	-0.5489284108	-2.1859136439	 0.152507
H	 0.0463207026	-4.1574713866	-0.9242590399	 0.118622
H	 0.2250369484	-3.1468902357	 2.2709847783	 0.315115
H	 0.2030296604	-0.491321051	 2.175126005	 0.099877
122.4003	196.5678	204.3217	215.1938	239.2168	246.5178	317.0972	411.5639	438.9062	581.5669	610.699	618.408	657.4329	698.57	699.1006	733.3822	899.6226	989.8508	1028.8412	1121.1782	1164.6919	1193.5595	1223.0402	1283.038	1375.71	1405.4875	1453.2842	1516.5146	1611.816	1687.4754	1811.3519	3031.0433	3236.2757	3317.1956	3842.3622	3847.2545
OC1=CN(C=O)C(O)=C1	Oc1cn(C=O)c(O)c1	
InChI=1S/C5H5NO3/c7-3-6-2-4(8)1-5(6)9/h1-3,8-9H	InChI=1S/C5H5NO3/c7-3-6-2-4(8)1-5(6)9/h1-3,8-9H
