21
gdb 94438	2.25385	1.41154	1.31423	1.4866	78.23	-0.2356	0.0643	0.2999	1140.0215	0.181594	-424.201105	-424.191878	-424.190933	-424.235191	34.824	
C	-0.3424625234	 1.3996506348	-0.0087251724	-0.415021
C	 0.0718769777	-0.0618207492	-0.0853471147	-0.097888
C	 1.4008799356	-0.3781515662	-0.8039774573	-0.092797
O	 1.960441179	-0.9651090523	 0.3896181903	-0.323638
C	 0.7670766804	-0.7132598509	 1.1421155852	 0.424058
C	 0.8653533457	-0.0045002209	 2.513402748	-0.302817
C	-0.2547671677	-0.9465912061	 3.0331751961	-0.271994
C	 0.0797100683	-1.8986357453	 1.8505116776	 0.075151
O	-0.9561496064	-2.5122912981	 1.1224752149	-0.433367
H	 0.4809539306	 2.0362344576	 0.3322355059	 0.119285
H	-0.65426256	 1.7613243817	-0.9947717056	 0.116716
H	-1.1861723582	 1.5437572528	 0.674862067	 0.1193
H	-0.757464728	-0.677249296	-0.4383398526	 0.103825
H	 1.3462772735	-1.0993290351	-1.627885538	 0.101439
H	 1.9744834399	 0.4984630857	-1.1332073112	 0.093111
H	 1.8339234653	-0.2157158971	 2.9748308772	 0.113637
H	 0.6855911648	 1.0713545322	 2.5458042571	 0.10278
H	-0.1650111437	-1.3402654903	 4.0476236627	 0.095981
H	-1.2492761054	-0.5112196517	 2.9019147517	 0.108224
H	 0.854343443	-2.622367342	 2.1426802799	 0.077558
H	-1.252646751	-3.2907483834	 1.6031773782	 0.286457
54.8332	110.6445	171.8575	203.7056	229.4709	257.4221	266.5422	367.8538	400.3794	463.7143	507.2656	561.1058	683.5738	757.4375	791.0966	864.2402	895.1362	916.8325	926.2863	947.742	986.8822	1024.9895	1087.2457	1090.1457	1102.5681	1132.7635	1155.0613	1158.5971	1183.4797	1188.8498	1202.909	1234.0759	1254.3614	1270.4667	1286.8847	1322.3104	1345.5942	1388.8239	1410.6088	1427.8748	1475.2389	1493.383	1497.978	1499.7747	1527.711	3002.0904	3007.9083	3027.7334	3054.0061	3062.7639	3068.8938	3087.5655	3093.6836	3108.5363	3115.4708	3128.7048	3827.4955
CC1COC11CCC1O	C[C@H]1CO[C@]21CC[C@H]2O	
InChI=1S/C7H12O2/c1-5-4-9-7(5)3-2-6(7)8/h5-6,8H,2-4H2,1H3	InChI=1S/C7H12O2/c1-5-4-9-7(5)3-2-6(7)8/h5-6,8H,2-4H2,1H3/t5-,6+,7-/m0/s1
