17
gdb 77219	2.73304	1.08286	0.85618	3.8451	75.87	-0.2595	0.0053	0.2648	1328.2133	0.135573	-418.034668	-418.025634	-418.02469	-418.069435	31.629	
C	-0.4066976418	 1.3119350524	 0.0170399004	-0.408986
C	 0.0668340127	-0.1298856485	 0.0792159726	 0.036421
C	 0.9185659325	-0.6518942285	-1.1357448225	-0.188265
C	 2.0255597508	-1.061537847	-0.108380682	-0.181032
N	 1.2388660273	-0.3998245575	 0.929858137	-0.056348
C	 1.3746873379	-0.5224688239	 2.2745622012	 0.132432
O	 2.3338939669	-1.0281926318	 2.8162081015	-0.318178
C	 0.3332036709	-1.7082607529	-1.9389598032	 0.278119
N	-0.1433034923	-2.5511278647	-2.5704058338	-0.316398
H	 0.4232366748	 1.9863372738	-0.2142206514	 0.130095
H	-1.177297737	 1.4223853314	-0.752777493	 0.138762
H	-0.841381171	 1.6199523498	 0.9727611503	 0.13735
H	-0.7705364755	-0.8022667724	 0.3009581891	 0.114481
H	 1.236642041	 0.1672588294	-1.7844867371	 0.135945
H	 2.1265758808	-2.1400439328	 0.0440839697	 0.148081
H	 3.0124205613	-0.6265151259	-0.2822235635	 0.14067
H	 0.5148715204	-0.0886946008	 2.8243622349	 0.076851
42.3572	91.6908	143.204	182.8475	206.3326	243.0791	305.529	318.0074	419.9307	474.5941	541.4781	592.3764	704.9317	814.6382	867.146	913.4128	1009.3517	1032.9398	1044.	1055.5379	1096.8159	1129.7979	1160.6403	1192.4853	1227.2042	1266.0979	1304.2009	1348.9953	1382.4807	1393.5638	1411.229	1439.1386	1485.9445	1494.983	1518.3685	1794.6201	2360.7529	2930.3869	3035.2012	3038.8696	3059.965	3089.0703	3113.0341	3113.5852	3118.7508
CC1C(CN1C=O)C#N	C[C@H]1[C@@H](CN1C=O)C#N	
InChI=1S/C6H8N2O/c1-5-6(2-7)3-8(5)4-9/h4-6H,3H2,1H3	InChI=1S/C6H8N2O/c1-5-6(2-7)3-8(5)4-9/h4-6H,3H2,1H3/t5-,6+/m0/s1
