21
gdb 98187	2.89179	0.9714	0.92488	2.3889	75.1	-0.2386	-0.0106	0.228	1409.8496	0.178258	-461.384089	-461.372953	-461.372009	-461.420637	40.032	
C	-0.1565534941	 1.540283135	 0.0004795101	-0.38472
C	-0.1944392324	 0.0312799347	-0.2208993322	-0.274179
C	 0.9130863295	-0.4685377428	-1.1255174307	 0.347269
O	 1.7308284	 0.2689835553	-1.6322671158	-0.333113
C	 0.9892183638	-1.9796822029	-1.4060848143	 0.272419
C	 2.3184520252	-2.5312679743	-0.8623608253	-0.420057
O	-0.1157732563	-2.6219642328	-0.7862265554	-0.478886
C	 0.887914082	-2.1802186008	-2.9289926466	-0.105354
O	 0.7930890329	-3.5865142626	-3.1391598015	-0.437096
H	 0.7910358493	 1.8472442546	 0.4511067493	 0.128199
H	-0.2518827501	 2.0785036546	-0.9462914062	 0.126845
H	-0.9709002765	 1.853017746	 0.6599396803	 0.108731
H	-0.1283995738	-0.5258328654	 0.7227298461	 0.134827
H	-1.1470230213	-0.3010684901	-0.6521049616	 0.13247
H	 2.3190014946	-2.488911941	 0.2302042085	 0.120648
H	 2.4408264661	-3.5726566143	-1.1710915557	 0.12831
H	 3.1581929795	-1.9436399475	-1.2412585135	 0.134077
H	-0.2074428274	-3.4699626688	-1.2398617305	 0.287935
H	-0.0110966653	-1.6693935307	-3.3025247646	 0.095412
H	 1.766172678	-1.7471120934	-3.4213485831	 0.118605
H	 0.5168745164	-3.744959383	-4.0457254972	 0.297658
32.5001	82.7639	130.4012	169.9393	198.1226	222.5884	229.3657	242.1914	277.5708	314.518	338.8656	359.9811	439.2451	452.1967	516.4177	567.0795	666.7847	749.0578	799.0076	838.749	936.9107	978.8389	994.7854	1037.161	1053.3004	1083.7504	1108.6896	1149.31	1167.3973	1198.7443	1243.8246	1266.9533	1284.2533	1363.3681	1385.451	1411.2507	1414.4513	1433.5797	1439.0219	1492.5987	1494.3723	1496.0926	1498.5054	1512.3093	1794.6425	2999.5157	3038.0365	3047.9416	3049.752	3060.3174	3063.8314	3120.9796	3123.3177	3125.5939	3134.83	3768.8039	3846.2257
CCC(=O)C(C)(O)CO	CCC(=O)[C@@](C)(O)CO	
InChI=1S/C6H12O3/c1-3-5(8)6(2,9)4-7/h7,9H,3-4H2,1-2H3	InChI=1S/C6H12O3/c1-3-5(8)6(2,9)4-7/h7,9H,3-4H2,1-2H3/t6-/m0/s1
