17
gdb 109910	2.10776	1.81165	1.07244	0.6722	71.07	-0.2366	-0.0582	0.1784	1106.8595	0.135329	-458.974165	-458.965512	-458.964568	-459.007796	31.632	
C	 0.1410018517	 1.2116945827	 0.2085711746	-0.24772
O	-0.0036313824	-0.1814680731	-0.0267563739	-0.267365
C	-1.3503058399	-0.6293698713	-0.0949353447	-0.046815
C	-1.3173326005	-2.0691843067	-0.6733302377	 0.073386
O	-0.1635377556	-2.356684661	-1.4233381039	-0.432884
C	-1.4772839875	-2.9384225507	 0.562075122	-0.079718
C	-1.8169161185	-2.2475488833	 1.6567512227	-0.174386
C	-1.890388862	-0.8043894625	 1.3458761474	 0.378366
O	-2.2500805861	 0.0975970093	 2.0683606941	-0.335836
H	 1.2138366042	 1.4133064833	 0.2385798647	 0.131767
H	-0.315495203	 1.7948101793	-0.6041520714	 0.115292
H	-0.3173171139	 1.5071137296	 1.1580367338	 0.148832
H	-1.9612409018	 0.0715753802	-0.6770661017	 0.08692
H	-2.1803884448	-2.2254222665	-1.3343361137	 0.103489
H	 0.5128354873	-1.7431748709	-1.1020888551	 0.29657
H	-1.3420123963	-4.0127372788	 0.4988428831	 0.126998
H	-2.0239474609	-2.6402818898	 2.6443993898	 0.123105
62.7079	109.1285	178.808	221.2617	237.5942	266.8922	354.5661	399.6858	415.8534	494.6313	525.1435	669.8495	704.5777	771.9578	828.6698	879.3813	901.7405	984.0877	1010.9977	1052.0037	1085.9293	1123.2255	1144.7429	1187.2179	1197.3568	1205.9457	1253.1328	1283.474	1337.3116	1352.2966	1367.3842	1443.6507	1479.1606	1484.9285	1515.3609	1642.8934	1808.9068	3001.7387	3014.4137	3035.6097	3082.5929	3131.5035	3196.4529	3224.0079	3733.9555
COC1C(O)C=CC1=O	CO[C@H]1[C@@H](O)C=CC1=O	
InChI=1S/C6H8O3/c1-9-6-4(7)2-3-5(6)8/h2-4,6-7H,1H3	InChI=1S/C6H8O3/c1-9-6-4(7)2-3-5(6)8/h2-4,6-7H,1H3/t4-,6-/m0/s1
