20
gdb 23349	5.59344	0.74047	0.67908	1.0623	84.61	-0.2392	0.01	0.2492	1647.5361	0.169913	-403.083302	-403.074238	-403.073294	-403.117964	34.089	
O	-0.2109662114	 1.3785259059	 0.1306795085	-0.396724
N	 0.0078045745	-0.0148777687	 0.1227535385	-0.233999
C	-1.0787785159	-0.6400996103	-0.0524185775	 0.418783
C	-2.5206870651	-0.2667595045	-0.325472771	-0.340516
C	-2.7663389169	-1.7628203732	-0.7263965871	 0.023237
C	-1.3357713664	-2.125079009	-0.1884755216	-0.335754
C	-3.9412552334	-2.4691417259	-0.1104858962	 0.025125
C	-5.2790577683	-2.4879706636	-0.8083941361	-0.273618
C	-4.4636851519	-3.7534278581	-0.7064945434	-0.273448
H	 0.6813836456	 1.720542114	 0.2496843124	 0.304632
H	-3.0624217504	 0.0326734315	 0.5789544216	 0.121244
H	-2.6822665255	 0.4985917661	-1.0885191381	 0.124922
H	-2.8026161386	-1.8660731073	-1.8155196424	 0.072671
H	-0.6725331936	-2.6816266842	-0.8550727825	 0.1196
H	-1.3701874789	-2.642849264	 0.7768271602	 0.117894
H	-3.9760046291	-2.4041710537	 0.9754905736	 0.078429
H	-6.1770102472	-2.4027572695	-0.206593214	 0.112504
H	-5.3498349619	-2.0080232066	-1.7791520975	 0.111479
H	-3.9869615646	-4.1224424307	-1.6088996883	 0.111186
H	-4.8039089608	-4.534015078	-0.035204749	 0.112352
38.2208	71.9287	149.8249	218.8519	247.1187	282.1378	327.6141	374.0782	440.8914	469.0706	546.6585	671.1725	753.9845	786.3086	793.0452	826.1717	891.6637	916.8061	930.484	968.354	979.8894	998.8951	1043.7684	1046.8683	1058.2138	1078.8613	1137.2595	1140.4307	1183.7956	1197.6875	1213.6627	1221.7367	1242.027	1257.2709	1264.3894	1312.6671	1401.1577	1431.9899	1450.6869	1469.8713	1471.2393	1506.0379	1786.0055	3042.0771	3046.7095	3053.3255	3103.5463	3104.7596	3122.6183	3129.0134	3134.2205	3207.0505	3222.1203	3819.1428
ON=C1CC(C1)C1CC1	ON=C1C[C@@H](C1)C1CC1	
InChI=1S/C7H11NO/c9-8-7-3-6(4-7)5-1-2-5/h5-6,9H,1-4H2	InChI=1S/C7H11NO/c9-8-7-3-6(4-7)5-1-2-5/h5-6,9H,1-4H2/t6-
