13
gdb 9452	2.93109	1.79964	1.68796	2.68	59.97	-0.2507	-0.0128	0.2379	835.2427	0.094382	-398.571638	-398.563907	-398.562963	-398.603673	27.899	
N	 0.0466598407	 1.5121187212	 0.1299649411	-0.548126
C	 0.0127433256	 0.0619477723	 0.0423945906	-0.073651
C	-1.4046505356	-0.5525500936	-0.1387926469	-0.08703
O	-1.0143639967	-1.1324475192	-1.4214444059	-0.239924
C	 0.2444818278	-0.5965153502	-1.3645489362	 0.412301
O	 1.1001646741	-0.6363941466	-2.1848216522	-0.316899
C	 0.8212453809	-0.5465931338	 1.0840854344	 0.331515
C	 1.5036812935	-1.0640351436	 1.9261550745	-0.45827
H	 1.0072210341	 1.8270112296	 0.22323049	 0.252451
H	-0.3227304253	 1.9265312709	-0.7216504455	 0.242852
H	-1.6928329229	-1.3254896354	 0.5731576277	 0.141556
H	-2.1962703184	 0.1884196803	-0.2665689087	 0.130941
H	 2.1075289821	-1.5199563618	 2.6721668371	 0.212284
109.2068	125.8673	181.2948	229.8355	256.726	350.463	408.7524	515.7981	601.2074	637.2109	668.7635	672.8218	741.781	787.0325	836.4904	939.5734	971.5881	993.2724	1063.8646	1105.9608	1153.3335	1228.6553	1324.5957	1365.7441	1510.5248	1656.2195	1939.4888	2243.4359	3081.1065	3155.5182	3493.0434	3498.8128	3580.8952
NC1(COC1=O)C#C	N[C@]1(COC1=O)C#C	
InChI=1S/C5H5NO2/c1-2-5(6)3-8-4(5)7/h1H,3,6H2	InChI=1S/C5H5NO2/c1-2-5(6)3-8-4(5)7/h1H,3,6H2/t5-/m0/s1
