17
gdb 50399	2.66891	1.61817	1.30588	2.4571	73.75	-0.2425	-0.0212	0.2213	1007.2368	0.136154	-421.79618	-421.788579	-421.787635	-421.828728	28.591	
O	-0.7224525468	 0.9751286361	-0.5298826062	-0.244439
C	 0.1750075014	 1.0373568483	 0.2696953003	 0.170538
C	 1.4003968844	 1.9298361119	 0.1335314828	-0.169217
C	 1.3081496224	 2.8893804016	-1.0964307583	-0.262573
C	 0.6664059569	 4.1447215825	-0.5086914045	-0.185864
C	 0.850225159	 4.1532005193	 0.8053158818	 0.18969
C	 0.1536184428	 4.3027019894	 2.1348961657	-0.152684
O	 0.502747315	 2.9075105962	 2.4196246289	-0.306068
C	 1.4921415202	 2.9116599174	 1.3288565751	 0.091155
H	 0.1707956524	 0.4134759112	 1.1878967729	 0.096277
H	 2.2697696888	 1.2606934302	 0.0946955624	 0.093071
H	 2.294587503	 3.0695458398	-1.5405872256	 0.108792
H	 0.6709410474	 2.4529770909	-1.8708850388	 0.136945
H	 0.0512777801	 4.8179966026	-1.0931511184	 0.107882
H	 0.6259446487	 4.9740121968	 2.8630919379	 0.112613
H	-0.9271685475	 4.4721803635	 2.1180603018	 0.129323
H	 2.500436142	 2.9796998122	 1.7559780821	 0.084558
68.5058	115.9092	203.5437	249.16	290.779	355.3977	453.6281	593.8173	666.6476	700.292	783.636	798.9365	834.3476	882.6112	900.361	926.6363	935.2992	966.2216	1001.6822	1017.0576	1057.8096	1074.4358	1115.6294	1139.7189	1185.7396	1206.3761	1240.5914	1279.3089	1302.9597	1318.4216	1344.8188	1357.975	1424.9116	1475.2454	1508.3971	1745.0546	1828.0098	2914.7054	3016.0258	3022.3585	3029.7918	3041.1877	3087.4183	3094.8839	3208.5286
O=CC1CC=C2COC12	O=C[C@H]1C[CH][C]2CO[C@@H]12	
InChI=1S/C7H8O2/c8-3-5-1-2-6-4-9-7(5)6/h2-3,5,7H,1,4H2	InChI=1S/C7H8O2/c8-3-5-1-2-6-4-9-7(5)6/h2-3,5,7H,1,4H2/t5-,7+/m1/s1
