20
gdb 105627	1.97087	1.35698	1.19529	2.8924	79.34	-0.2731	0.0295	0.3026	1202.5094	0.170277	-403.159522	-403.149941	-403.148997	-403.193701	35.628	
C	 0.0872727589	 1.4213518875	-0.255115864	-0.404777
C	-0.0981324805	-0.0974237968	-0.2089885296	-0.213733
C	-1.5520747661	-0.5427203592	 0.0376376995	 0.101691
C	-2.4836932656	-0.3879611841	-1.2150663105	-0.262628
C	-2.2371436822	-1.8803073254	-1.5599844112	-0.251688
C	-1.7506972875	-2.1109893106	-0.1192438152	 0.102443
O	-0.6314617874	-2.9426596547	-0.0066729381	-0.41296
C	-2.0678124549	 0.0042103348	 1.2853436717	 0.231631
N	-2.4878343797	 0.4052922482	 2.2864696172	-0.358103
H	 1.1346835051	 1.671677255	-0.4466633036	 0.119948
H	-0.5129520561	 1.8788932653	-1.0483786126	 0.119419
H	-0.2029313532	 1.8854260469	 0.6922635346	 0.143186
H	 0.2382018714	-0.5497127188	-1.1473561516	 0.111907
H	 0.5333794307	-0.5279277172	 0.5753082648	 0.108079
H	-3.5181592651	-0.1838870036	-0.9340131393	 0.125762
H	-2.1655985925	 0.3546752389	-1.9485108303	 0.117726
H	-3.0882296848	-2.4737105299	-1.896989707	 0.111806
H	-1.4131548991	-2.012630415	-2.2651487592	 0.124372
H	-2.5698456642	-2.4413641473	 0.5311973521	 0.091787
H	-0.4936844871	-3.158338374	 0.9214456824	 0.294132
101.4042	110.8493	149.7863	172.7195	190.0926	233.0116	300.666	319.0409	351.9226	407.6247	513.8839	542.2875	595.7748	602.8925	699.4954	787.0243	802.6365	887.0927	934.3249	952.7367	967.9433	1018.3084	1019.4551	1074.2257	1111.6599	1152.7506	1168.5201	1206.1438	1231.2745	1255.193	1265.2981	1272.1631	1305.9157	1341.421	1361.8525	1416.935	1438.8236	1478.3173	1483.5926	1499.6311	1503.861	1507.0266	2339.3725	3026.6321	3039.8007	3049.0694	3076.6835	3081.0448	3084.0424	3108.7648	3117.1932	3126.3007	3141.3637	3817.0352
CCC1(CCC1O)C#N	CC[C@]1(CC[C@H]1O)C#N	
InChI=1S/C7H11NO/c1-2-7(5-8)4-3-6(7)9/h6,9H,2-4H2,1H3	InChI=1S/C7H11NO/c1-2-7(5-8)4-3-6(7)9/h6,9H,2-4H2,1H3/t6-,7+/m1/s1
