17
gdb 111903	2.20336	1.44821	0.92062	4.656	70.9	-0.2498	-0.018	0.2318	1242.5666	0.136232	-455.201751	-455.192952	-455.192008	-455.235551	32.039	
C	-0.0183148249	 1.4589232014	-0.0617580395	-0.48882
C	 0.0140426393	-0.0326263169	-0.0703391891	 0.37634
N	 0.0501738071	-0.7677296877	-1.119011414	-0.309062
C	 0.0864870996	-2.1618701615	-0.6606304209	-0.147722
C	 1.328263614	-2.8688388049	-1.2264720696	-0.048901
O	 1.3119590695	-2.8554568417	-2.6342522466	-0.421509
C	 0.0662479395	-2.1079523049	 0.8708200697	 0.415561
O	 0.1039331686	-2.9980179328	 1.6830941863	-0.365029
N	 0.0059942386	-0.7416497439	 1.1328996572	-0.374135
H	 0.8404732648	 1.8650478814	 0.4839874575	 0.144627
H	 0.0029107968	 1.8245793231	-1.0882449953	 0.162003
H	-0.9254989142	 1.8250444765	 0.4314863841	 0.146181
H	-0.8018927205	-2.6926567843	-1.0238745641	 0.129263
H	 2.2311722327	-2.3831592858	-0.8218857296	 0.089079
H	 1.3336299065	-3.9128615576	-0.9009555332	 0.129385
H	 1.1408475035	-1.9405869735	-2.8913014483	 0.295851
H	-0.0048386408	-0.3489920067	 2.0607327155	 0.266887
88.9861	123.7664	151.6813	168.0003	179.2897	291.5268	341.3739	417.6339	463.6848	502.3365	570.5239	615.6184	634.0721	678.1793	720.3261	877.306	942.8762	976.825	1010.3652	1058.5616	1074.6144	1086.5416	1105.3006	1181.2073	1208.0484	1258.1251	1263.4724	1299.4757	1382.7401	1398.6798	1426.0571	1437.7264	1479.5331	1481.0509	1507.7917	1703.2357	1852.2127	2972.8745	3040.5884	3048.0443	3095.8793	3096.5968	3159.9852	3647.7823	3778.2307
CC1=NC(CO)C(=O)N1	CC1=N[C@@H](CO)C(=O)N1	
InChI=1S/C5H8N2O2/c1-3-6-4(2-8)5(9)7-3/h4,8H,2H2,1H3,(H,6,7,9)	InChI=1S/C5H8N2O2/c1-3-6-4(2-8)5(9)7-3/h4,8H,2H2,1H3,(H,6,7,9)/t4-/m0/s1
