19
gdb 61072	2.35987	1.43638	1.11184	2.8316	71.29	-0.2439	-0.0225	0.2214	1156.1489	0.158192	-460.168975	-460.159781	-460.158836	-460.204095	32.34	
C	 0.0125447594	 1.5492420788	-0.0468660794	-0.415388
C	 0.0261184507	 0.0145203424	 0.0086744366	-0.082155
C	 0.7595757654	-0.5552214957	-1.1952145619	 0.173672
O	 0.3162131818	-1.4181311015	-1.9101240477	-0.260897
C	 0.6615184456	-0.489330987	 1.3207642894	 0.096486
C	 0.8231756145	-2.0252136637	 1.4085474262	-0.147144
O	 2.1861910236	-2.2283462785	 1.0596509184	-0.228847
C	 2.8486946814	-1.1275688996	 1.6185200862	 0.022066
O	 2.0059150539	-0.0055733352	 1.4303492886	-0.271438
H	 1.0304635716	 1.9462166294	-0.0046564572	 0.142836
H	-0.4640018911	 1.908071207	-0.963880526	 0.125625
H	-0.5422010334	 1.9575952591	 0.8038093164	 0.122943
H	-0.9966733348	-0.3776088814	-0.0320572077	 0.094417
H	 1.7587612216	-0.106234125	-1.3856945348	 0.085354
H	 0.0703092841	-0.1040316667	 2.1622414805	 0.085774
H	 0.6228191008	-2.3840944893	 2.4285928093	 0.10174
H	 0.2016860667	-2.5730515755	 0.6984242614	 0.142805
H	 3.0335110189	-1.2829956952	 2.6970759569	 0.088183
H	 3.7930484191	-0.9699269223	 1.0899577348	 0.123969
56.3597	60.6908	78.8714	202.8189	212.9362	237.6576	287.0628	312.7868	395.9717	458.8822	588.358	737.3543	768.7203	795.6352	900.0946	942.6365	963.4315	979.5392	1002.2348	1021.5216	1066.8833	1100.3763	1115.6258	1129.1275	1167.1072	1185.7916	1209.5934	1265.4414	1292.5514	1303.1399	1338.9487	1361.4407	1376.2991	1401.4884	1424.8116	1435.5822	1496.7422	1500.9378	1511.0748	1542.8538	1824.6801	2895.1318	2938.5027	2995.8798	3015.6711	3040.7597	3051.0328	3090.0265	3108.7973	3123.592	3124.8145
CC(C=O)C1COCO1	C[C@@H](C=O)[C@H]1COCO1	
InChI=1S/C6H10O3/c1-5(2-7)6-3-8-4-9-6/h2,5-6H,3-4H2,1H3	InChI=1S/C6H10O3/c1-5(2-7)6-3-8-4-9-6/h2,5-6H,3-4H2,1H3/t5-,6+/m0/s1
