16
gdb 36113	3.78635	1.14454	1.04369	5.5185	72.71	-0.2168	0.0215	0.2384	1148.6722	0.124413	-396.82434	-396.816736	-396.815791	-396.856979	29.209	
N	-0.1512125045	-1.1057617986	 0.4017302817	-0.298982
C	-0.0967142171	 0.0256993423	 0.1758717171	 0.270597
C	-0.0253754999	 1.4603466502	-0.1233523486	-0.474812
C	 1.3813355606	 1.9910716169	-0.1528726679	 0.361869
N	 2.1640988237	 2.3212565163	 1.0541352767	-0.334307
C	 1.8894965555	 3.3678001069	 0.0347369107	-0.139661
C	 2.8741542535	 3.1728987774	-1.1647265459	-0.057011
N	 3.7571675475	 2.022304311	-0.8680733848	-0.299096
C	 2.3788427679	 1.7906375022	-1.3505456675	-0.111256
H	-0.5127655141	 1.6298945093	-1.0920806812	 0.158759
H	-0.6163454905	 2.0039821368	 0.6236281823	 0.151869
H	 1.497951358	 2.4718211326	 1.813389381	 0.2298
H	 1.3604680037	 4.2793483051	 0.2813552049	 0.101968
H	 3.1340608083	 3.9293796601	-1.8927963506	 0.101771
H	 4.368397425	 1.9089660067	-1.6776612177	 0.234221
H	 2.1667004622	 1.2297157948	-2.2514317502	 0.10427
57.922	102.0529	244.8631	281.2582	388.8742	416.8639	439.0305	445.0059	622.3468	689.0453	744.739	796.7201	809.1026	826.0657	858.518	901.1113	910.6876	922.2113	959.5688	966.5031	1015.0497	1031.2819	1076.1848	1104.5368	1138.9676	1192.8556	1226.038	1254.2187	1286.2301	1327.7808	1342.6747	1362.8709	1432.5709	1449.6126	2364.9696	3027.1509	3066.705	3194.7363	3199.4303	3211.68	3456.6359	3466.5254
N#CCC12NC1C1NC21	N#CC[C@]12N[C@H]1[C@H]1N[C@@H]21	
InChI=1S/C6H7N3/c7-2-1-6-4-3(8-4)5(6)9-6/h3-5,8-9H,1H2	InChI=1S/C6H7N3/c7-2-1-6-4-3(8-4)5(6)9-6/h3-5,8-9H,1H2/t3-,4+,5-,6+/m0/s1
