15
gdb 57753	3.07315	0.7402	0.63565	1.9672	74.82	-0.2633	-0.1084	0.1549	1704.9855	0.108296	-457.74201	-457.731895	-457.730951	-457.779386	33.695	
C	-0.3262835485	 1.5458999712	-0.1410758858	-0.394777
C	 0.3023707786	 0.1489229743	-0.0103835646	-0.033459
O	-0.5497965653	-0.7660183768	 0.6627829408	-0.404457
C	 0.7231647335	-0.3563572614	-1.3204792742	 0.123027
C	 1.0279840461	-0.7728907024	-2.4131288972	 0.035388
C	 1.4062152256	-1.2680569329	-3.7062706747	 0.118821
O	 0.8309254785	-2.1527829536	-4.3059485619	-0.257907
C	 2.6306737953	-0.6128471493	-4.3652239465	 0.083334
O	 3.262812722	 0.2818463296	-3.8760834432	-0.214256
H	 0.3837518213	 2.255441363	-0.5744086501	 0.139744
H	-1.2117557051	 1.5103257736	-0.7834661618	 0.125908
H	-0.6234520305	 1.893251529	 0.851252154	 0.137255
H	 1.1915050024	 0.2218509724	 0.6275931015	 0.138146
H	-1.311945324	-0.9341989162	 0.0967362921	 0.290007
H	 2.8559260903	-1.0671181505	-5.3528261785	 0.113227
17.1156	62.0895	92.9377	123.1985	156.3065	234.9622	245.7854	284.9432	317.8554	370.3779	461.5353	543.953	555.4776	614.0763	658.9073	708.1293	865.5484	956.4936	1028.1189	1040.6512	1082.9122	1125.705	1242.7112	1286.3778	1322.5875	1363.1126	1398.5486	1415.1895	1487.2123	1490.9948	1751.026	1833.1832	2320.0932	2931.09	3042.2591	3046.7209	3120.9576	3135.7144	3801.7286
CC(O)C#CC(=O)C=O	C[C@@H](O)C#CC(=O)C=O	
InChI=1S/C6H6O3/c1-5(8)2-3-6(9)4-7/h4-5,8H,1H3	InChI=1S/C6H6O3/c1-5(8)2-3-6(9)4-7/h4-5,8H,1H3/t5-/m1/s1
