16
gdb 42186	3.12773	1.30247	1.06777	2.4886	76.04	-0.2328	-0.0696	0.1631	1123.8331	0.123641	-400.63682	-400.628823	-400.627879	-400.670259	29.724	
O	-0.0213994438	-0.0857522869	-0.0618870951	-0.283708
C	-0.0403985645	 1.126374458	-0.0160765718	 0.138538
C	 1.1755347138	 1.9229880202	 0.0113284814	 0.256681
C	 2.1579704286	 2.6188283944	 0.0353787192	-0.4521
C	-1.3219867931	 1.9111861992	 0.0166225351	 0.2167
C	-1.8534962486	 2.9758869035	-0.9792494474	-0.206285
N	-2.9882285968	 2.9044718404	 0.058769386	-0.148856
C	-2.7660492925	 1.3772268582	 0.0002624005	-0.213966
C	-1.8479163432	 2.8972519936	 1.0931763444	-0.206247
H	 3.0395409879	 3.2129892312	 0.0557890948	 0.219466
H	-1.3500758811	 3.9445957322	-1.0142148575	 0.112181
H	-2.1459105096	 2.633110352	-1.97477425	 0.114038
H	-3.13112376	 0.9173408554	-0.9203377935	 0.113662
H	-3.1262607844	 0.8488522455	 0.8853315221	 0.113673
H	-2.1350860648	 2.4799761873	 2.0614123956	 0.114044
H	-1.3441189078	 3.860629236	 1.1987195263	 0.112179
39.6965	103.9932	162.3552	217.9559	271.424	412.7962	461.1512	574.0817	597.1343	646.9764	660.9617	699.805	714.8172	793.2754	810.1169	855.0887	928.8417	981.9292	992.7889	1002.8441	1019.8714	1062.9351	1139.6209	1162.4696	1164.788	1165.0103	1195.8324	1198.9624	1284.9729	1319.0816	1509.5246	1511.8092	1561.8999	1756.2543	2208.079	3057.2608	3061.1506	3070.8435	3128.8656	3134.1061	3139.1089	3491.4958
O=C(C#C)C12CN(C1)C2	O=C(C#C)[C@@]12CN(C1)C2	
InChI=1S/C7H7NO/c1-2-6(9)7-3-8(4-7)5-7/h1H,3-5H2	InChI=1S/C7H7NO/c1-2-6(9)7-3-8(4-7)5-7/h1H,3-5H2
