15
gdb 21727	3.63524	1.91209	1.30243	1.393	63.54	-0.198	0.0274	0.2255	896.9586	0.122255	-395.991792	-395.984683	-395.983739	-396.022989	27.16	
N	-0.5745449832	 0.9685785291	-0.0016288588	-0.523764
H	-0.6218321505	-0.0443354458	 0.0358904655	 0.24013
H	 0.2224867643	 1.2064898472	-0.5853420539	 0.243636
H	-2.002476461	 2.2335376794	-0.5655731631	 0.29635
C	-0.3849031494	 1.5274984687	 1.3557341113	-0.276668
C	-0.5710584249	 3.0119353832	 1.3021040471	 0.233811
N	 0.1000848651	 3.8591593304	 2.0826662393	-0.296748
N	-0.3806284488	 5.0675897634	 1.757119936	-0.187971
C	-1.3294311189	 5.0333372853	 0.7766258032	-0.131357
C	-1.4797709049	 3.6997761096	 0.4564887212	 0.214817
O	-2.3105146578	 3.1568967169	-0.464543005	-0.451584
H	-1.1530233653	 1.0709158715	 1.993751737	 0.122835
H	 0.5880593512	 1.2910817742	 1.8079198013	 0.115525
H	-0.0130606641	 5.878753166	 2.2220902129	 0.271762
H	-1.8046207317	 5.921861091	 0.396089486	 0.129227
106.3527	211.0586	249.8363	318.6703	353.0086	417.2186	443.0342	477.087	654.9388	667.2572	710.8661	738.12	744.2316	759.8947	897.9166	946.179	1002.7183	1034.2294	1067.1087	1165.1568	1177.1765	1224.0163	1296.0368	1312.501	1372.798	1409.1576	1470.2389	1480.8867	1501.8224	1543.3222	1650.7803	1657.0866	3005.3048	3038.8833	3274.6243	3494.2398	3524.1718	3577.9014	3687.7766
[NH3+]CC1=NNC=C1[O-]	NCc1n[nH]cc1O	
InChI=1S/C4H7N3O/c5-1-3-4(8)2-6-7-3/h2,8H,1,5H2,(H,6,7)	InChI=1S/C4H7N3O/c5-1-3-4(8)2-6-7-3/h2,8H,1,5H2,(H,6,7)
