13
gdb 131437	3.60365	1.62272	1.11889	2.626	65.34	-0.2154	0.015	0.2304	979.0644	0.092	-452.746755	-452.74022	-452.739276	-452.777476	25.932	
O	 0.0936299155	 1.3451767983	 0.0869846483	-0.414633
C	 0.0742310268	 0.0044731714	 0.0846796847	 0.317575
N	 0.076498242	-0.6635707083	-1.0522822788	-0.278035
O	 0.0526313785	-2.0567462191	-0.7017964643	-0.259065
C	 0.0383171891	-2.0798011226	 0.6292988887	 0.501903
C	 0.0499620584	-0.8421899556	 1.2274777972	 0.116593
C	 0.0317973515	-1.0719607505	 2.6423991556	-0.354976
C	 0.0103468018	-2.4329856788	 2.8073466147	-0.050113
N	 0.0142464856	-3.0667861309	 1.5552139036	-0.414176
H	 0.1075455002	 1.6369000755	-0.8352974749	 0.310693
H	 0.0340090138	-0.3427698342	 3.4359717131	 0.115612
H	-0.0077203277	-3.0278489244	 3.7059444126	 0.131441
H	 0.0019194053	-4.0576922209	 1.3911489995	 0.27718
184.5477	253.1154	291.3686	376.3068	415.9006	479.3439	552.0433	604.0662	635.0982	637.2713	689.926	702.5686	772.4299	794.5593	823.5588	910.6404	931.6033	1049.4393	1082.3429	1166.3333	1221.0894	1271.8781	1322.5509	1398.2433	1488.6319	1527.5052	1560.1335	1586.0399	1652.7485	3261.2037	3279.412	3691.9567	3769.5138
OC1=NOC2=C1C=CN2	Oc1noc2c1cc[nH]2	
InChI=1S/C5H4N2O2/c8-4-3-1-2-6-5(3)9-7-4/h1-2,6H,(H,7,8)	InChI=1S/C5H4N2O2/c8-4-3-1-2-6-5(3)9-7-4/h1-2,6H,(H,7,8)
