17
gdb 73384	2.9614	1.65328	1.32584	4.1816	72.05	-0.2262	-0.0071	0.2191	987.3028	0.13637	-421.817947	-421.810568	-421.809624	-421.849577	28.936	
C	 0.0073983103	 1.441157158	 0.012655785	-0.493542
C	-0.0195806357	-0.0693227743	 0.0295985375	 0.295611
C	-1.3280314891	-0.7856734253	-0.3182700656	-0.14493
O	-1.2831988855	-2.0437707704	 0.3573255036	-0.25616
C	 0.0668849647	-2.2536010659	 0.7370155343	-0.058972
C	 0.6697634108	-0.8671353927	 1.0723432752	-0.125116
C	 1.2784417481	-0.795953507	-0.3664973941	-0.253067
C	 1.0367264803	-2.2652155678	-0.4884604089	 0.428817
O	 1.5535749677	-3.1396002879	-1.1263129338	-0.331899
H	 0.9839608097	 1.8248713478	 0.3206894823	 0.128591
H	-0.2018950334	 1.8272809741	-0.9905493565	 0.1333
H	-0.7468922648	 1.8488648886	 0.6938601128	 0.131311
H	-2.1969911521	-0.2274078845	 0.049638265	 0.109225
H	-1.4398635468	-0.931578879	-1.4011815816	 0.11092
H	 0.1294329084	-3.0824577315	 1.4400880495	 0.10456
H	 1.1078157024	-0.520986647	 1.9974984186	 0.112557
H	 2.1379015851	-0.2407934151	-0.7236287135	 0.108795
124.7308	204.6833	214.9262	252.2606	303.4235	401.2333	459.2115	527.7028	592.5228	687.0679	752.8488	789.108	829.7917	856.8088	876.683	900.1755	948.5026	963.8604	991.8556	1024.5645	1040.1491	1073.305	1099.0313	1121.2941	1136.7151	1192.2136	1225.9803	1243.6519	1274.2801	1313.27	1347.2392	1414.2244	1420.1026	1491.559	1499.5526	1519.5325	1873.5934	3010.4394	3035.0513	3056.6893	3098.6258	3113.1627	3143.7878	3190.103	3223.9512
CC12COC3C1C2C3=O	C[C@]12CO[C@@H]3[C@H]1[C@H]2C3=O	
InChI=1S/C7H8O2/c1-7-2-9-6-4(7)3(7)5(6)8/h3-4,6H,2H2,1H3	InChI=1S/C7H8O2/c1-7-2-9-6-4(7)3(7)5(6)8/h3-4,6H,2H2,1H3/t3-,4+,6+,7+/m0/s1
