15
gdb 67933	2.2347	1.50728	1.06025	4.2335	67.43	-0.2595	-0.0444	0.2152	1122.5184	0.110298	-457.772175	-457.76395	-457.763006	-457.805357	29.827	
C	-0.1258116871	 1.5174382448	 0.1149365758	-0.488636
C	 0.0399735154	 0.0371084548	 0.0825110671	 0.430922
O	-1.175398883	-0.7712423244	-0.0160465866	-0.293032
C	-0.6663954316	-1.6600499914	 0.9299143379	 0.461498
O	-1.2313091972	-2.564340783	 1.4470682172	-0.312141
C	 0.6688187899	-0.9670986606	 1.0084935692	-0.345227
C	 1.1979999821	-0.7577796821	-0.4397057634	-0.177367
C	 1.0984924781	-1.8036647968	-1.5014011643	 0.152314
O	 1.973592516	-1.9891622573	-2.3092414502	-0.254726
H	 0.8369428562	 2.0026037833	 0.2952094874	 0.141664
H	-0.5178628636	 1.878703803	-0.8408849544	 0.153057
H	-0.822902222	 1.8066527817	 0.9063503885	 0.149678
H	 1.3150236009	-0.87340734	 1.86886247	 0.141574
H	 2.1425580277	-0.220112261	-0.4593134396	 0.128873
H	 0.1658078682	-2.4011289509	-1.5047667647	 0.111548
83.8364	123.377	186.3772	203.8689	221.5169	298.4728	382.6	441.3212	479.4828	544.8158	648.8902	687.8356	764.0421	821.3376	877.5538	926.4811	963.7685	985.9635	1017.0755	1032.5107	1084.7477	1113.1337	1122.9491	1196.1591	1244.7936	1280.0103	1406.6938	1429.2506	1472.2585	1479.0841	1496.2549	1817.3015	1951.3001	2943.5488	3046.0324	3116.2704	3129.7114	3161.4485	3232.9367
CC12OC(=O)C1C2C=O	C[C@]12OC(=O)[C@H]1[C@H]2C=O	
InChI=1S/C6H6O3/c1-6-3(2-7)4(6)5(8)9-6/h2-4H,1H3	InChI=1S/C6H6O3/c1-6-3(2-7)4(6)5(8)9-6/h2-4H,1H3/t3-,4-,6-/m1/s1
