20
gdb 113047	5.20087	0.74627	0.69854	1.9707	83.17	-0.2164	0.0435	0.2599	1643.6912	0.168298	-403.067196	-403.057391	-403.056447	-403.102526	35.286	
C	 0.2713761101	 1.3789775106	 0.1212336185	-0.237718
O	-0.2188638179	 0.0887800842	-0.1652242295	-0.240385
C	 0.4434277314	-0.5314507579	-1.2347061923	 0.136314
C	 1.80262235	-1.2075514129	-0.8894677324	-0.204555
N	 1.0968087508	-2.4976984438	-0.771738232	-0.063842
C	 1.7478642558	-3.6751035887	-1.3146707677	-0.313335
C	 0.902509332	-4.862591455	-1.2210913848	 0.308781
C	 0.1975710932	-5.8338359226	-1.1663789228	-0.431085
C	-0.0921673402	-1.959044969	-1.4647248942	-0.193165
H	 1.3281747392	 1.3642778405	 0.4274880592	 0.107039
H	 0.1745538467	 2.0509646104	-0.7464466352	 0.10371
H	-0.3256461692	 1.7765088828	 0.9451857565	 0.13038
H	 0.4596537178	 0.1291418106	-2.1120561961	 0.067569
H	 2.512755658	-1.1637178755	-1.7321869528	 0.081785
H	 2.3102372518	-0.878872081	 0.0240489411	 0.10769
H	 2.0463954022	-3.5346107095	-2.3751702986	 0.099908
H	 2.6768504093	-3.8417606604	-0.7535300363	 0.133715
H	-0.4214889686	-6.6944984329	-1.1074608283	 0.196833
H	-1.047664417	-2.1920275723	-0.9874745366	 0.121857
H	-0.1412512855	-2.2217290976	-2.5329752157	 0.088504
54.0734	77.2331	107.2891	143.4221	197.2227	249.5573	295.7457	322.543	343.8761	393.2883	465.324	502.9602	612.1733	658.9919	736.0772	828.8608	861.6331	924.4855	956.6268	992.9789	1007.0644	1024.5521	1100.4075	1107.744	1137.4177	1156.8662	1183.4662	1186.9187	1223.4253	1251.3281	1253.4874	1274.846	1291.9486	1335.6066	1388.6515	1398.2859	1477.1158	1482.0757	1485.2069	1489.4782	1509.0951	1512.1522	2242.7606	2876.6152	2961.597	2972.5132	2981.9606	3012.1387	3020.8566	3030.8043	3058.9398	3090.6552	3117.7651	3506.1029
COC1CN(CC#C)C1	COC1CN(CC#C)C1	
InChI=1S/C7H11NO/c1-3-4-8-5-7(6-8)9-2/h1,7H,4-6H2,2H3	InChI=1S/C7H11NO/c1-3-4-8-5-7(6-8)9-2/h1,7H,4-6H2,2H3
