21
gdb 69342	2.62392	1.35595	1.08789	0.6926	88.99	-0.2441	0.0572	0.3013	1216.564	0.180288	-349.902191	-349.892783	-349.891839	-349.935573	36.927	
C	 0.0363858911	 1.5697151159	 0.0655260603	-0.501067
C	 0.0441274392	 0.0694922714	 0.008062827	 0.392047
C	-0.896887493	-0.7995672547	 0.7929558725	-0.353715
C	 0.5863100803	-0.9560747548	 1.0057019449	-0.1153
C	 1.2394835551	-1.7804703475	-0.1330326107	 0.128244
C	 0.8220310779	-3.2501697379	-0.2748143089	-0.447193
C	 0.6183388945	-0.7473551849	-1.1603469286	-0.34362
C	 2.6920987061	-1.6718560478	-0.0873367449	 0.294134
C	 3.891682213	-1.5938723559	-0.0415214194	-0.468751
H	 1.0210632661	 1.9828564463	-0.181065505	 0.12089
H	-0.6873251146	 1.991757072	-0.6428301554	 0.118325
H	-0.2357657695	 1.9259403938	 1.0646947515	 0.116759
H	-1.4144116991	-0.3027348038	 1.6083407684	 0.108989
H	-1.4866676493	-1.5740048055	 0.3083091507	 0.1026
H	 1.0488979399	-0.7951963062	 1.9725138631	 0.088386
H	-0.2663275664	-3.3486080384	-0.3079965872	 0.112892
H	 1.2319380225	-3.6789537999	-1.1944671691	 0.123883
H	 1.1949980963	-3.8401368541	 0.5678110747	 0.124927
H	-0.1139003329	-1.1652383634	-1.8599082825	 0.092653
H	 1.3902806033	-0.2217810853	-1.7243806521	 0.115559
H	 4.9504991396	-1.5240432394	-0.0045510092	 0.189357
98.154	155.0775	202.1988	207.6571	224.8566	239.8329	319.5296	353.6926	400.4899	458.9829	479.3429	534.0355	596.0828	615.3942	624.2171	670.0406	786.5049	814.3444	856.9263	897.7612	932.8182	950.4824	968.2703	1002.8443	1025.4012	1050.3923	1072.7914	1090.1257	1141.7632	1143.1605	1164.9375	1232.1867	1251.0785	1278.5751	1298.7546	1389.3267	1409.461	1424.8404	1477.1608	1486.189	1488.134	1491.1645	1499.1386	1508.7088	2229.402	3018.8345	3038.0476	3041.9168	3077.3183	3094.5094	3105.0245	3110.5093	3116.1553	3120.7548	3177.8192	3192.356	3501.9494
CC12CC1C(C)(C2)C#C	C[C@]12C[C@H]1[C@@](C)(C2)C#C	
InChI=1S/C9H12/c1-4-8(2)6-9(3)5-7(8)9/h1,7H,5-6H2,2-3H3	InChI=1S/C9H12/c1-4-8(2)6-9(3)5-7(8)9/h1,7H,5-6H2,2-3H3/t7-,8+,9+/m0/s1
