23
gdb 119011	3.54328	0.9269	0.903	1.9737	82.35	-0.2538	0.079	0.3328	1451.5087	0.205791	-425.435571	-425.425793	-425.424849	-425.47061	36.628	
C	-0.1488374111	 1.3555413468	 0.0352110844	-0.224795
O	 0.0260942859	-0.0408918147	-0.0144379254	-0.255402
C	 0.7261427156	-0.5638272408	 1.1008444915	-0.135714
C	 0.7107122489	-2.0834724588	 0.9726843667	 0.412812
O	-0.6497284738	-2.5189260656	 0.903231643	-0.491198
C	 1.4985127891	-2.617466368	-0.2455684866	-0.227067
C	 1.7792221185	-4.0760110652	 0.1380127052	-0.202524
C	 2.1961225736	-3.9699515884	 1.6174642132	-0.202721
C	 1.3513266249	-2.7993547494	 2.1877684997	-0.248685
H	 0.8162646054	 1.8851639956	 0.0369906196	 0.107848
H	-0.7101583075	 1.64843193	-0.8554264123	 0.128481
H	-0.7113584875	 1.6635160648	 0.9302120788	 0.108556
H	 1.75940102	-0.1810304451	 1.1265936788	 0.084635
H	 0.2266158187	-0.2637216086	 2.0365292181	 0.091101
H	-1.0719617356	-1.9424894047	 0.2535571745	 0.279919
H	 0.9392521132	-2.4951043269	-1.176136193	 0.095315
H	 2.4427041155	-2.0663122369	-0.3484932468	 0.084671
H	 0.8537428441	-4.6540924037	 0.0473212819	 0.111055
H	 2.5372798709	-4.5542011093	-0.4884585658	 0.085389
H	 2.0452030731	-4.9013568344	 2.1694400067	 0.096099
H	 3.2636131537	-3.7308452061	 1.6837204439	 0.09372
H	 1.966649694	-2.1095684354	 2.774609305	 0.090697
H	 0.5438095704	-3.1467573553	 2.8359543087	 0.117806
54.7554	83.3582	115.7024	163.8833	218.9123	234.8941	333.2575	337.0052	377.7775	419.5817	461.5017	474.6181	574.1282	694.8898	758.6958	809.0847	862.2899	899.5087	914.3121	924.6275	961.8969	989.2801	1023.6619	1038.7063	1059.3208	1088.8712	1143.4636	1165.8102	1185.5941	1195.6706	1223.0232	1236.098	1239.1034	1269.603	1291.6017	1309.9577	1337.6189	1341.4743	1349.3039	1384.4567	1428.5167	1477.5234	1477.7942	1480.9901	1486.09	1490.2104	1498.1343	1510.0564	1519.3365	2959.5904	2977.8074	2998.8927	3022.5931	3023.8336	3036.6833	3050.9919	3054.4777	3085.9013	3098.0814	3104.0585	3113.3142	3114.513	3775.1563
COCC1(O)CCCC1	COCC1(O)CCCC1	
InChI=1S/C7H14O2/c1-9-6-7(8)4-2-3-5-7/h8H,2-6H2,1H3	InChI=1S/C7H14O2/c1-9-6-7(8)4-2-3-5-7/h8H,2-6H2,1H3
