19
gdb 119218	2.03527	1.24575	0.88283	3.8698	78.43	-0.2673	0.0195	0.2867	1381.3594	0.157532	-419.183081	-419.173003	-419.172058	-419.218635	35.254	
C	-0.2508196885	 1.3415511791	 0.0028292918	-0.226089
O	-0.2215651669	-0.0607664674	-0.1348736352	-0.229434
C	 0.7768681684	-0.5049928247	-1.0191814095	-0.115689
C	 0.7499051728	-2.018477277	-1.0253564884	 0.134541
N	-0.205945246	-2.659448378	-1.9537919328	-0.347041
C	 1.2252255257	-2.8522577488	-2.1859369806	-0.034479
C	 1.8248856722	-2.2817756139	-3.4489282462	-0.407847
C	 0.9140666469	-2.6224218616	 0.281532039	 0.251574
N	 1.0493713523	-3.1296039046	 1.3122371599	-0.342825
H	 0.7030907406	 1.7323403243	 0.3899242264	 0.109291
H	-0.4658325375	 1.8403774187	-0.9550495931	 0.107633
H	-1.0456975296	 1.5796338634	 0.7126104745	 0.136509
H	 0.5956225195	-0.1353993216	-2.0380216951	 0.102705
H	 1.7713281155	-0.1513522987	-0.6977375962	 0.098859
H	-0.6323862865	-3.4762407283	-1.524176322	 0.252819
H	 1.6451557751	-3.8119591836	-1.8888542232	 0.109878
H	 1.3318238348	-1.355617451	-3.7487358204	 0.135935
H	 2.8949370487	-2.090346711	-3.3203197637	 0.130063
H	 1.7079529026	-3.0003180254	-4.2667135252	 0.133595
68.4325	85.6005	122.9978	148.6096	170.7603	184.7433	226.0118	271.0876	337.8061	391.6045	407.1069	488.4342	571.3436	594.7528	730.9975	803.4073	871.7352	969.3085	980.9027	1003.8597	1042.8468	1085.1234	1109.5213	1132.1775	1161.9084	1184.718	1227.3811	1237.1863	1248.4342	1306.6323	1336.8241	1408.3887	1425.9419	1453.4917	1478.5644	1486.1241	1487.9614	1496.4043	1500.6605	1519.158	2350.0904	2962.1867	2976.2982	3020.4692	3025.7726	3044.7713	3105.9413	3120.0836	3124.6924	3144.3234	3514.8198
COCC1(NC1C)C#N	COC[C@]1(N[C@H]1C)C#N	
InChI=1S/C6H10N2O/c1-5-6(3-7,8-5)4-9-2/h5,8H,4H2,1-2H3	InChI=1S/C6H10N2O/c1-5-6(3-7,8-5)4-9-2/h5,8H,4H2,1-2H3/t5-,6+/m0/s1
