15
gdb 72114	2.82226	1.86083	1.48678	1.0313	63.7	-0.2348	-0.0265	0.2083	883.8155	0.112965	-457.723514	-457.71668	-457.715736	-457.754569	27.239	
O	 0.200203453	 1.3963306898	-0.1355390361	-0.477409
C	 0.0935287687	 0.0279103394	-0.062763907	 0.260207
C	 0.8479050467	-0.8268759418	-1.1028371666	-0.266279
C	-0.0224584088	-2.0777581522	-0.8665177994	 0.065418
O	-1.3317537429	-1.6009557532	-1.3001147938	-0.283638
C	-1.2936742528	-0.8449658438	-0.0918673553	 0.031781
C	-0.4243231236	-1.9101731572	 0.6550390499	-0.219867
C	 0.3706991965	-0.7482971608	 1.2219277393	 0.363424
O	 0.7710028633	-0.4159965454	 2.3033670344	-0.339302
H	 0.2519918996	 1.7348150156	 0.7675746747	 0.298827
H	 0.726100786	-0.4606884868	-2.1238444706	 0.130279
H	 1.9080918953	-0.9451327271	-0.8655702733	 0.117152
H	 0.2644457361	-3.0365816038	-1.2941850504	 0.098964
H	-2.2252687808	-0.4034291	 0.2534421174	 0.110816
H	-0.8162501162	-2.7508403228	 1.2176622369	 0.109627
146.2601	183.9379	278.106	339.3343	379.5605	457.6654	546.9379	600.1236	657.6988	692.3196	763.2335	800.2407	813.7596	828.6153	873.55	922.0026	951.5511	993.0998	1014.7263	1029.1293	1063.7372	1095.2888	1135.9312	1156.9149	1186.6866	1217.3375	1259.9372	1288.3084	1318.1895	1358.2889	1403.4538	1485.9597	1880.6361	3072.1241	3134.4983	3141.2598	3158.9904	3184.5187	3771.9173
OC12CC3OC1C3C2=O	O[C@]12C[C@@H]3O[C@H]1[C@@H]3C2=O	
InChI=1S/C6H6O3/c7-4-3-2-1-6(4,8)5(3)9-2/h2-3,5,8H,1H2	InChI=1S/C6H6O3/c7-4-3-2-1-6(4,8)5(3)9-2/h2-3,5,8H,1H2/t2-,3-,5-,6-/m0/s1
