13
gdb 18428	3.50875	1.88363	1.65342	2.8248	59.68	-0.2574	-0.0547	0.2027	795.1514	0.094304	-398.564484	-398.557664	-398.55672	-398.59603	24.625	
O	-0.2606898906	 0.118495041	 0.3592942738	-0.249895
C	 0.024439536	 1.1805738689	-0.1324793526	 0.154487
C	 1.2937626817	 1.959405457	 0.0644142509	-0.092945
C	 1.5278043462	 2.9091500906	 1.2096883372	-0.185544
N	 2.3969707618	 1.6781929281	 0.9672159861	-0.137074
C	 1.8292794782	 1.0305098009	 2.2171794717	-0.291115
C	 1.0288022702	 2.3119461577	 2.5040600033	 0.410282
O	 0.4470145432	 2.7561839048	 3.4477332844	-0.288355
H	-0.6647240399	 1.6873829817	-0.8449260795	 0.095476
H	 1.6404184028	 2.3735902535	-0.8835504702	 0.131815
H	 1.8583948321	 3.9280547495	 1.0392205322	 0.131752
H	 1.2940116737	 0.0986659626	 2.0512619582	 0.17389
H	 2.6283157746	 0.9005943038	 2.9518032344	 0.147227
64.6761	129.2713	246.6078	308.6392	375.9861	445.1159	555.1073	634.7425	695.403	775.6596	795.2302	867.8591	893.8352	965.4609	1004.5564	1021.7412	1044.4454	1065.067	1118.5211	1165.2106	1221.9004	1252.4302	1301.8296	1402.8417	1428.5963	1454.8983	1820.9476	1902.205	2882.7061	3083.5403	3108.8269	3177.4435	3183.5233
O=CC1C2N1CC2=O	O=C[C@H]1[C@@H]2N1CC2=O	
InChI=1S/C5H5NO2/c7-2-3-5-4(8)1-6(3)5/h2-3,5H,1H2	InChI=1S/C5H5NO2/c7-2-3-5-4(8)1-6(3)5/h2-3,5H,1H2/t3-,5-,6?/m0/s1
