17
gdb 38852	2.96361	1.92078	1.59943	1.7414	65.82	-0.256	0.0867	0.3427	873.1994	0.138894	-458.953173	-458.946778	-458.945834	-458.983798	26.055	
C	-0.0248681176	 1.5579180971	 0.0502719085	-0.088404
O	 1.3520063733	 1.9247298463	-0.0478737639	-0.279318
C	 2.1260683114	 0.7287632153	 0.0672439878	 0.190542
C	 2.6200677101	 0.2832462199	-1.3149027719	-0.256526
C	 1.4575786724	-0.2310805578	-2.1504055653	 0.044969
O	 0.9351013619	-1.5219483485	-1.8023107241	-0.248136
C	 0.1371046717	-0.3834568489	-1.51694481	 0.048263
C	 0.0313087354	 0.0262553992	-0.052981504	-0.004084
O	 1.2608916759	-0.2427176767	 0.6146393367	-0.240545
H	-0.4400587995	 1.8821801862	 1.0124847653	 0.107309
H	-0.5872846056	 2.0305417543	-0.7621646192	 0.108889
H	 2.9459049648	 0.8980057964	 0.7715973319	 0.091887
H	 3.091157283	 1.1360130777	-1.8135262387	 0.114285
H	 3.3751974826	-0.5031342667	-1.2062580762	 0.120823
H	 1.5110655151	-0.0567265645	-3.2239534105	 0.097336
H	-0.7734822126	-0.2820809265	-2.1084548555	 0.094801
H	-0.7677594423	-0.4975831828	 0.4750365191	 0.09791
156.8744	228.4859	305.5737	387.2858	412.977	479.1071	595.1999	680.3362	784.601	802.9337	813.5301	849.578	888.0416	898.0371	916.0297	970.2011	996.5335	1017.5078	1030.524	1038.3908	1083.0416	1090.1168	1146.0465	1162.4727	1206.4956	1222.383	1269.4303	1284.9359	1319.2158	1330.2642	1353.3856	1368.9143	1383.5703	1405.6529	1457.9884	1469.3054	1520.1599	3023.0967	3046.5366	3072.7575	3073.5226	3095.8677	3099.0726	3108.2237	3123.1777
C1OC2CC3OC3C1O2	C1O[C@@H]2C[C@H]3O[C@H]3[C@H]1O2	
InChI=1S/C6H8O3/c1-3-6(9-3)4-2-7-5(1)8-4/h3-6H,1-2H2	InChI=1S/C6H8O3/c1-3-6(9-3)4-2-7-5(1)8-4/h3-6H,1-2H2/t3-,4+,5+,6-/m1/s1
