21
gdb 83538	2.72891	1.60337	1.28743	1.6493	77.4	-0.2393	0.0766	0.3159	1073.2672	0.183052	-424.209967	-424.201546	-424.200602	-424.242198	34.074	
C	 0.1694620659	 1.57250627	 0.9239246964	-0.436549
C	 0.1126531689	 0.1006747399	 0.5436765231	 0.022023
C	 0.7411215488	-0.4323467185	-0.7914047701	-0.149783
C	 2.1776509552	 0.0577867977	-0.6391044605	-0.114562
O	 2.4225064687	-0.3128594385	 0.7527712308	-0.302469
C	 1.1458298293	-0.8823072086	 1.13843216	 0.003416
C	 0.8743145627	-1.8387203053	-0.0587951641	 0.47272
C	-0.3600466062	-2.7251523611	-0.0541327267	-0.460598
O	 1.9557000046	-2.6657746122	-0.4090710045	-0.499908
H	 1.1966963875	 1.9350014571	 1.0037584969	 0.135108
H	-0.3594608227	 2.190881379	 0.1904500317	 0.115715
H	-0.3102126914	 1.7332385687	 1.8953320219	 0.116881
H	-0.9021777583	-0.2779856778	 0.6645489976	 0.079397
H	 0.2580438147	-0.3148147225	-1.7611576456	 0.067582
H	 2.8821339566	-0.466569208	-1.2918644752	 0.106539
H	 2.3040527946	 1.1369338253	-0.7659422484	 0.104908
H	 1.1923721265	-1.1919399609	 2.1825532819	 0.074903
H	-1.2926682395	-2.1782125326	 0.0891516529	 0.117892
H	-0.417370305	-3.249410678	-1.0130790992	 0.131026
H	-0.2739486889	-3.4831823192	 0.7302870633	 0.124203
H	 2.7431278179	-2.2546624543	-0.0279164321	 0.291556
165.5348	178.0678	212.3886	239.2358	259.7811	308.9324	364.1927	389.812	493.0028	531.3232	556.3999	581.0812	679.6592	735.023	755.0837	805.5571	874.6085	904.1064	945.5487	956.5898	967.7108	992.3575	1040.3068	1053.9905	1067.3655	1100.2739	1121.8519	1136.1157	1157.8302	1199.1888	1203.9235	1230.007	1260.2648	1272.2274	1294.0881	1364.0671	1391.4259	1403.4657	1411.392	1429.0343	1483.665	1491.9572	1500.8822	1503.7699	1535.4952	3036.5951	3047.185	3048.5242	3089.8152	3093.3397	3105.4486	3108.6538	3121.5328	3125.9693	3129.4031	3141.9498	3753.6648
CC1C2COC1C2(C)O	C[C@H]1[C@H]2CO[C@@H]1[C@]2(C)O	
InChI=1S/C7H12O2/c1-4-5-3-9-6(4)7(5,2)8/h4-6,8H,3H2,1-2H3	InChI=1S/C7H12O2/c1-4-5-3-9-6(4)7(5,2)8/h4-6,8H,3H2,1-2H3/t4-,5+,6-,7+/m0/s1
