19
gdb 98975	3.26954	0.90267	0.7444	4.5746	75.25	-0.2572	0.011	0.2682	1564.9546	0.157565	-456.401433	-456.390799	-456.389854	-456.439031	35.939	
C	 0.0414791329	 0.6722348355	 0.2735926839	-0.378515
C	-0.7293855183	 0.0752314031	-0.9144425501	-0.238731
C	 0.1653812688	-0.3082637078	-2.0618669308	 0.400481
N	 0.1467279871	 0.2563648852	-3.1840585351	-0.496298
O	 0.9887515259	-1.369001798	-1.6396389719	-0.303163
C	 1.9541130916	-1.929320168	-2.4398148708	 0.52182
O	 2.2141611287	-1.6049847517	-3.5774366025	-0.398657
N	 2.5702707567	-2.911839686	-1.7385696848	-0.345932
C	 3.6401489048	-3.7128296203	-2.2964623229	-0.332038
H	 0.7726462862	-0.0391636034	 0.6665537411	 0.121063
H	 0.5751407109	 1.5794581279	-0.025271399	 0.131189
H	-0.6466824818	 0.934635194	 1.0820666999	 0.119121
H	-1.2780868966	-0.815300068	-0.5851142798	 0.112959
H	-1.4526604779	 0.7929606323	-1.3055824798	 0.131574
H	 0.8387581822	-0.1474839547	-3.8148485297	 0.258917
H	 2.2487908627	-3.0767583586	-0.7996032809	 0.257491
H	 4.5604778232	-3.6083639572	-1.7117364787	 0.132083
H	 3.3659421377	-4.7727501411	-2.3348039588	 0.132117
H	 3.8234205253	-3.3581839329	-3.3109882792	 0.174516
38.9784	57.6887	66.1197	78.3487	140.6674	159.9872	224.981	239.0675	339.1914	377.4875	433.6595	484.4158	539.6395	658.2805	742.5373	769.8017	798.8005	845.1896	918.0284	970.7073	975.7961	1047.4946	1098.4461	1119.8286	1149.5695	1158.4373	1177.5758	1231.0359	1277.7686	1330.2285	1362.1669	1407.2897	1447.4109	1473.4852	1496.1701	1497.5582	1498.7093	1508.7909	1564.1583	1746.6419	1832.044	3031.5903	3041.931	3045.3008	3084.3659	3110.7384	3116.4499	3132.2029	3157.9641	3498.5351	3659.6368
CCC(=N)OC(=O)NC	CC[C]([NH])OC(=O)NC	
InChI=1S/C5H10N2O2/c1-3-4(6)9-5(8)7-2/h6H,3H2,1-2H3,(H,7,8)	InChI=1S/C5H10N2O2/c1-3-4(6)9-5(8)7-2/h6H,3H2,1-2H3,(H,7,8)
