23
gdb 81681	2.37827	1.46896	1.3355	1.6221	83.89	-0.2343	0.0733	0.3076	1140.2018	0.207566	-388.292339	-388.283777	-388.282833	-388.325149	34.251	
C	-0.1643212184	 1.6327061489	-0.0027379105	-0.439216
C	 0.0379665122	 0.1267201138	 0.0110914376	 0.041329
C	 1.0675372067	-0.5998365079	-0.8884072451	 0.064036
C	 2.3933717962	 0.1630438496	-1.0007161351	-0.241776
C	 3.1019535992	 0.1911843564	 0.3811456494	 0.079227
C	 4.0943210825	 1.34759813	 0.5090389767	-0.413682
C	 2.085177253	 0.1449412082	 1.5543700311	-0.241779
C	 0.8253483748	-0.6140415109	 1.1193956702	 0.064028
O	 1.2013240922	-1.6283287958	 0.1390132568	-0.300229
H	 0.7675101532	 2.1919621805	 0.1142901033	 0.122166
H	-0.6235724057	 1.9517674326	-0.945082655	 0.118093
H	-0.8361348653	 1.9393347969	 0.8068057742	 0.118085
H	-0.9257150841	-0.3777235024	-0.1087124354	 0.080884
H	 0.7252278104	-1.0143439238	-1.8411099892	 0.06953
H	 3.0498844194	-0.3203266732	-1.7322995787	 0.098783
H	 2.2044913931	 1.1761722118	-1.3778619368	 0.094856
H	 3.6640238388	-0.7453971303	 0.4423068468	 0.090464
H	 3.5848175225	 2.3172085158	 0.454455576	 0.110488
H	 4.6287478411	 1.3080178922	 1.4646017972	 0.110772
H	 4.8406866474	 1.3204706584	-0.2925104006	 0.110772
H	 2.5497176566	-0.3497339182	 2.4142354262	 0.098784
H	 1.8103593373	 1.1530169549	 1.8899291688	 0.094853
H	 0.2670217667	-1.0412193975	 1.9575030724	 0.069531
78.9131	172.2501	229.4593	238.3107	261.2328	305.9016	359.3485	400.1314	426.5265	516.5968	572.7371	596.2769	752.0782	779.3629	809.2396	864.1388	866.7762	932.1597	933.3467	958.1351	960.0176	989.7201	1011.1102	1074.8032	1101.1983	1104.6216	1111.6228	1120.9585	1174.7526	1176.567	1239.3509	1243.5545	1258.7848	1310.1381	1324.5252	1325.1805	1340.3911	1361.1345	1383.1695	1384.8587	1399.6453	1412.7477	1418.2186	1480.4103	1490.5308	1495.6692	1497.1016	1503.4564	1503.671	3019.5847	3026.3399	3028.0472	3032.5681	3044.1082	3053.0183	3059.4075	3068.6035	3069.4968	3075.2332	3090.1594	3090.4834	3093.1587	3109.8798
CC1C2CC(C)CC1O2	C[C@H]1[C@H]2C[C@@H](C)C[C@@H]1O2	
InChI=1S/C8H14O/c1-5-3-7-6(2)8(4-5)9-7/h5-8H,3-4H2,1-2H3	InChI=1S/C8H14O/c1-5-3-7-6(2)8(4-5)9-7/h5-8H,3-4H2,1-2H3/t5-,6+,7-,8+
