22
gdb 5847	2.95047	1.36362	1.20671	2.4106	73.69	-0.2541	0.0583	0.3125	1134.1304	0.197623	-387.343316	-387.333165	-387.332221	-387.377469	38.293	
C	 0.016552033	 1.5109124637	-0.0828745625	-0.403667
C	 0.0078590522	-0.0249418549	 0.043742502	 0.239521
C	 0.7418041637	-0.4269221854	 1.3387996855	-0.431223
C	-1.4510756907	-0.5150683143	 0.1098551418	-0.414163
C	 0.6985952153	-0.6145781966	-1.2150053976	 0.100307
O	 2.0589673666	-0.1743040633	-1.3515044982	-0.452071
C	 0.6786925866	-2.1417977429	-1.3641631849	-0.084469
O	 1.3584214812	-2.5260215434	-2.5416617441	-0.425346
H	 1.0348583848	 1.8876240341	-0.2066357228	 0.123797
H	-0.5672758109	 1.8352459711	-0.9513421045	 0.110428
H	-0.4208549423	 1.9757538942	 0.8070336551	 0.105465
H	 0.2400906896	 0.0128309218	 2.2067296567	 0.120268
H	 0.7621993901	-1.5109576399	 1.4872410528	 0.118539
H	 1.7746056829	-0.0589569703	 1.3559534391	 0.104822
H	-1.9795774163	-0.3147780963	-0.8287866851	 0.115828
H	-1.5195142466	-1.5878386807	 0.3142527137	 0.117326
H	-1.9886825665	 0.0058892362	 0.9091195379	 0.113123
H	 0.2011329549	-0.1977583163	-2.0993752653	 0.092704
H	 2.5428876115	-0.4705877898	-0.5717574487	 0.282653
H	 1.1311544326	-2.6133979381	-0.4737303689	 0.074317
H	-0.3467401889	-2.5135187269	-1.4457320988	 0.108426
H	 2.1161183772	-1.9289660019	-2.6005754832	 0.283415
67.2931	118.604	193.3936	220.6016	254.108	260.414	290.8809	310.0568	334.3543	348.7562	352.7313	379.6908	460.7144	513.8318	535.7784	547.5307	766.9536	855.8441	925.7685	939.6332	950.9748	959.9994	1015.115	1033.8878	1068.1018	1084.2719	1106.5051	1192.6349	1218.4696	1243.324	1277.486	1294.1206	1323.9325	1381.0258	1396.3321	1400.6341	1419.5499	1433.2736	1448.9599	1480.6813	1485.1776	1490.1761	1503.8978	1510.182	1512.5344	1520.8855	2943.6268	3024.9899	3027.6841	3033.572	3042.5901	3084.9537	3087.5172	3092.5841	3097.5633	3102.6438	3105.9733	3121.704	3758.2275	3793.7691
CC(C)(C)C(O)CO	CC(C)(C)[C@@H](O)CO	
InChI=1S/C6H14O2/c1-6(2,3)5(8)4-7/h5,7-8H,4H2,1-3H3	InChI=1S/C6H14O2/c1-6(2,3)5(8)4-7/h5,7-8H,4H2,1-3H3/t5-/m0/s1
