19
gdb 11967	2.85565	1.91915	1.73784	1.964	70.89	-0.2423	0.0665	0.3088	890.6122	0.164186	-365.023666	-365.015324	-365.01438	-365.056018	31.652	
C	-0.2207199061	 1.5433411068	 0.1266193247	-0.424803
C	 0.0053757374	 0.039050492	 0.0526543375	 0.347371
C	-1.2299265477	-0.7133753083	-0.42824644	-0.432977
O	 1.1550847665	-0.2651459433	-0.7944166028	-0.332519
C	 1.8803064341	-0.896569178	 0.2840695389	-0.132207
C	 0.7436445408	-0.5972198298	 1.2478145587	 0.244025
C	 0.7419630523	-0.2074134834	 2.6700286389	-0.307221
N	 0.2351435603	-1.5305600709	 2.2403798353	-0.360407
H	 0.6834297711	 2.0538738121	 0.4678917628	 0.121126
H	-0.4829837798	 1.9325647527	-0.8625756776	 0.12481
H	-1.0387051535	 1.7859886368	 0.8138571125	 0.110152
H	-1.5092910783	-0.3682593895	-1.4286305856	 0.128003
H	-1.0379818244	-1.7884807832	-0.4775147968	 0.127476
H	-2.0838106923	-0.5396861418	 0.2367370963	 0.108353
H	 2.0581128719	-1.96359478	 0.1025706	 0.109513
H	 2.836408295	-0.3974706524	 0.4853764372	 0.102246
H	 1.6620121239	-0.2378023265	 3.248196997	 0.121166
H	 0.0288209658	 0.5464112354	 2.995493636	 0.113792
H	-0.782694057	-1.5353523588	 2.239479107	 0.232099
76.3219	192.8297	199.8109	221.8753	262.6517	297.3029	343.0553	375.4593	438.3062	508.4344	565.5686	662.3107	831.6125	861.2142	886.7988	926.7745	927.4389	968.3793	986.2409	994.8668	1015.3746	1053.2209	1084.1919	1125.7667	1150.1685	1170.8115	1214.3162	1241.1173	1267.0623	1306.4534	1324.9886	1395.4276	1409.1524	1437.3613	1473.2278	1479.4589	1496.1661	1499.9607	1520.123	1522.1195	3013.3908	3029.5555	3035.8911	3058.1967	3097.1726	3101.2303	3104.9082	3118.8759	3120.7491	3184.7714	3490.884
CC1(C)OCC11CN1	CC1(C)OC[C@]21CN2	
InChI=1S/C6H11NO/c1-5(2)6(3-7-6)4-8-5/h7H,3-4H2,1-2H3	InChI=1S/C6H11NO/c1-5(2)6(3-7-6)4-8-5/h7H,3-4H2,1-2H3/t6-/m0/s1
