22
gdb 14998	4.09026	1.28738	1.05365	1.3563	78.24	-0.2431	0.0877	0.3309	1185.0079	0.202202	-350.224505	-350.216242	-350.215298	-350.257062	31.861	
C	 0.096970853	 1.5699252009	 0.0406377781	-0.391026
C	 0.0074061242	 0.0405290426	 0.0087699176	-0.181426
C	-1.4231914502	-0.5191241644	-0.0205742481	 0.047179
C	-2.1995872764	-0.1431326602	-1.294953075	-0.201524
C	-3.575467864	-0.8148009152	-1.3138879453	-0.078178
O	-3.4835394472	-2.222834092	-1.1875983012	-0.241524
C	-2.8554950454	-2.6047409693	 0.0238971063	-0.081019
C	-1.4333694945	-2.0503181646	 0.1285343865	-0.207976
H	 1.1379532708	 1.8990539411	 0.1172635494	 0.112408
H	-0.3231695706	 2.0241823333	-0.8620948815	 0.1188
H	-0.4443561833	 1.979852674	 0.9010016291	 0.112547
H	 0.5573306452	-0.3420161338	-0.8621369875	 0.093336
H	 0.520085285	-0.3657188387	 0.8906904271	 0.090151
H	-1.968703209	-0.0969679728	 0.8389177007	 0.063327
H	-2.328573225	 0.9419106576	-1.375248527	 0.092804
H	-1.6325086143	-0.4700425811	-2.1768415005	 0.098442
H	-4.1999465528	-0.4041818825	-0.4999485463	 0.080055
H	-4.0943940551	-0.6266213052	-2.258642412	 0.102804
H	-3.4550263425	-2.2570565819	 0.8844951869	 0.079691
H	-2.8569464315	-3.6988633984	 0.0371527946	 0.102833
H	-0.8194904786	-2.4989759946	-0.6636832751	 0.099284
H	-0.9917850077	-2.3476760746	 1.0877567432	 0.089011
89.0075	134.3483	213.787	233.5671	246.2476	340.8774	368.3389	433.7376	458.3686	479.206	591.5739	762.4034	818.769	824.4747	869.9688	912.2923	935.5715	996.9089	1015.1853	1021.253	1031.8327	1054.1724	1104.4773	1124.1563	1178.5445	1187.4834	1199.9216	1263.6305	1268.4813	1294.7331	1313.3359	1329.9122	1344.2079	1373.7756	1380.3721	1392.9088	1394.5868	1413.1904	1427.6328	1469.592	1482.364	1488.9026	1492.8568	1501.2712	1504.293	1508.9894	2941.7206	2948.1314	2973.2601	3009.1794	3017.4986	3022.842	3032.4687	3042.2712	3062.985	3071.801	3077.8389	3080.6456	3097.5085	3106.6753
CCC1CCOCC1	CCC1CCOCC1	
InChI=1S/C7H14O/c1-2-7-3-5-8-6-4-7/h7H,2-6H2,1H3	InChI=1S/C7H14O/c1-2-7-3-5-8-6-4-7/h7H,2-6H2,1H3
