18
gdb 47304	2.82199	1.31358	0.98943	1.1424	72.25	-0.2204	-0.0306	0.1898	1176.9784	0.148449	-439.115331	-439.106881	-439.105937	-439.149475	31.347	
O	 0.0498633162	 0.2203282903	 1.0748756935	-0.29367
C	-0.055300539	 1.188896069	 0.3567453408	 0.366756
C	-1.4002102194	 1.5572370023	-0.2631364202	-0.300678
C	-1.4094314409	 1.7725251754	-1.7966787553	-0.306732
C	-0.7311841001	 3.0693395735	-2.215760403	 0.36541
O	-1.3650882023	 4.0339434389	-2.5743279147	-0.297871
C	 0.8059419327	 3.129936284	-2.1650713358	-0.272316
N	 1.5191204326	 2.1567991922	-1.3647001429	-0.284231
C	 1.1687285715	 2.0627971127	 0.0476241094	-0.250005
H	-2.09437088	 0.7561299298	-0.0002489469	 0.133502
H	-1.7597929992	 2.4744104744	 0.2240484851	 0.133599
H	-0.9323768248	 0.9166682532	-2.28972791	 0.111052
H	-2.4447672375	 1.8326450843	-2.1390210654	 0.134452
H	 1.1546262103	 3.0497232999	-3.2028539009	 0.138009
H	 1.0675355477	 4.1440171484	-1.8385033894	 0.140501
H	 1.5705615402	 1.2460012088	-1.8023741609	 0.231024
H	 0.9961930969	 3.0809611012	 0.4211925857	 0.121933
H	 2.0040274751	 1.6373712217	 0.6121413208	 0.129266
38.2356	63.5482	156.9177	283.5573	301.972	319.8306	395.2807	463.8787	499.1692	511.4959	583.397	628.249	685.4547	743.501	788.5239	832.7925	920.0663	958.7975	986.5188	1023.9672	1034.9782	1133.7832	1165.7837	1188.166	1218.3958	1233.5709	1278.67	1323.131	1326.7725	1341.6454	1353.9916	1358.1172	1436.8767	1462.7468	1471.3966	1476.3328	1500.0439	1801.641	1810.0537	3021.0146	3026.4472	3027.843	3038.316	3069.7791	3089.6386	3109.4815	3113.831	3563.7653
O=C1CCC(=O)CNC1	O=C1CCC(=O)CNC1	
InChI=1S/C6H9NO2/c8-5-1-2-6(9)4-7-3-5/h7H,1-4H2	InChI=1S/C6H9NO2/c8-5-1-2-6(9)4-7-3-5/h7H,1-4H2
