19
gdb 100623	2.07249	1.31274	0.85064	1.3724	83.58	-0.2515	0.0343	0.2858	1370.3178	0.154064	-385.806862	-385.795998	-385.795054	-385.843248	38.698	
C	-0.0337043516	 1.3544405291	 0.1173939124	-0.238358
O	-0.0036250553	-0.0480425316	-0.0169342847	-0.238467
C	 0.6768458081	-0.51887736	-1.1658564737	 0.131881
C	 2.1768843538	-0.6516580511	-0.9093489731	-0.410246
C	 0.006030463	-1.8859691833	-1.501363393	-0.362403
C	-1.4237662427	-1.7145850145	-1.7781944051	 0.340059
C	-2.5904783213	-1.5740757544	-2.0241126806	-0.443394
C	 0.6717069639	-2.571681554	-2.6126102912	 0.323489
C	 1.2186781874	-3.127093237	-3.5263761859	-0.450329
H	 0.9697884185	 1.7885239837	 0.2389972506	 0.106055
H	-0.5166078119	 1.8325600491	-0.7480044592	 0.112095
H	-0.6174712347	 1.5764128534	 1.0139294013	 0.130795
H	 0.4971958074	 0.1582221711	-2.0142676696	 0.084373
H	 2.6960802016	-1.0184493509	-1.7974627353	 0.135951
H	 2.6035638867	 0.3186641982	-0.6403497289	 0.117643
H	 2.3594386496	-1.3451199964	-0.0822083225	 0.123969
H	 0.1122421191	-2.4990612236	-0.5944434358	 0.142307
H	-3.6242421573	-1.4536429135	-2.2343345142	 0.195522
H	 1.6951049457	-3.6247197543	-4.3345673316	 0.19906
50.8919	55.1096	129.473	137.373	167.5501	192.3301	218.7501	297.2277	320.1571	343.9989	389.792	460.0861	490.545	564.2707	567.2369	630.5757	636.1964	642.3682	651.8911	852.5226	872.7017	974.8952	1016.8734	1079.8494	1111.5086	1120.8668	1156.8026	1182.3071	1216.8516	1267.2584	1304.714	1359.8912	1376.0439	1405.1171	1478.8908	1484.2712	1492.1849	1497.2081	1508.9092	2239.9683	2246.0615	2980.2974	2993.7789	3010.1495	3029.8891	3045.8487	3114.7022	3116.4327	3134.381	3503.794	3505.5963
COC(C)C(C#C)C#C	CO[C@@H](C)C(C#C)C#C	
InChI=1S/C8H10O/c1-5-8(6-2)7(3)9-4/h1-2,7-8H,3-4H3	InChI=1S/C8H10O/c1-5-8(6-2)7(3)9-4/h1-2,7-8H,3-4H3/t7-/m0/s1
