15
gdb 128506	2.366	1.39761	0.9368	2.8725	66.16	-0.2426	-0.0291	0.2136	1211.653	0.110489	-491.043208	-491.034124	-491.03318	-491.078129	30.994	
C	 0.0393151375	 1.4797491752	-0.0341705157	-0.255266
O	 0.0459057161	 0.0433771681	 0.0095047087	-0.251688
C	 0.571986545	-0.5883648839	-1.0233468455	 0.466442
C	 0.6957115051	-1.9526483711	-1.201227584	 0.07421
C	 0.2357292849	-3.0919720654	-0.3567309142	-0.174463
O	-1.0739025788	-3.5527916367	-0.6749440435	-0.41122
N	 1.3059996678	-2.0973271878	-2.4150883347	-0.131531
N	 1.5683752556	-1.0242898926	-2.9839230168	-0.044524
O	 1.0717775638	 0.0702780394	-2.0403955142	-0.255024
H	 1.0597833669	 1.8671229747	-0.093039271	 0.152449
H	-0.536108367	 1.8344308338	-0.8930883996	 0.153834
H	-0.4334104293	 1.7949804987	 0.8950541117	 0.151969
H	 0.9714572086	-3.9054180431	-0.4248985114	 0.112185
H	 0.1882704467	-2.7717523724	 0.687727614	 0.126124
H	-1.0612456028	-3.839950777	-1.5942346838	 0.286502
42.62	90.9166	153.5716	156.9096	159.3183	269.5079	289.3467	346.6365	360.3925	454.2319	562.1251	652.3203	678.7991	759.2136	798.6175	943.1795	966.3901	1031.6228	1042.6174	1176.3777	1177.8011	1214.0599	1258.4843	1318.8605	1375.9072	1417.2582	1439.59	1481.0516	1486.9522	1492.5881	1496.7844	1503.8717	1631.6442	3011.1064	3051.3381	3096.9835	3129.081	3169.2291	3811.7507
COC1=C(CO)N=NO1	COc1c(CO)nno1	
InChI=1S/C4H6N2O3/c1-8-4-3(2-7)5-6-9-4/h7H,2H2,1H3	InChI=1S/C4H6N2O3/c1-8-4-3(2-7)5-6-9-4/h7H,2H2,1H3
