20
gdb 70576	2.54856	1.70757	1.37928	3.1417	77.79	-0.2355	0.0745	0.31	1030.9162	0.172741	-403.121627	-403.113888	-403.112944	-403.153339	31.388	
C	 0.0069407931	 1.5069994753	-0.0198320798	-0.489351
C	 0.0223476721	-0.0059107473	 0.0229113993	 0.313501
N	-0.8376594585	-0.7104677789	 0.9889003047	-0.353439
C	 0.6300951787	-0.7190939893	 1.1805186443	-0.088139
C	 1.3506027583	-2.0417884565	 0.9501286394	-0.217139
C	 2.1240584916	-2.0595745088	-0.3832118102	-0.248173
C	 1.2480465678	-1.6425821704	-1.5464418712	 0.05535
O	-0.1252652381	-2.0390742843	-1.4706510895	-0.246056
C	 0.1755637564	-0.6531239693	-1.3345607227	 0.005796
H	 0.8851261145	 1.9009839822	-0.544281118	 0.125413
H	-0.8832546013	 1.876528644	-0.5429398107	 0.126272
H	 0.0059410399	 1.9260393321	 0.9911792241	 0.11563
H	-1.2633468559	-0.0294599032	 1.6146048069	 0.223091
H	 1.0252291097	-0.0912362005	 1.9766779793	 0.077223
H	 2.0426069397	-2.2425546183	 1.7737021788	 0.092191
H	 0.6073383952	-2.8422648957	 0.9395523842	 0.133797
H	 2.9879581324	-1.3816770884	-0.3438387753	 0.09989
H	 2.5247175265	-3.0636566262	-0.5651283981	 0.107266
H	 1.689252272	-1.7293708853	-2.5400811684	 0.085292
H	-0.152436204	-0.0435637313	-2.1781222572	 0.081582
147.6605	194.6972	230.13	266.6848	326.4288	337.5275	450.3271	485.0931	502.2175	543.9601	631.3925	734.1083	791.0684	814.3939	845.6239	886.5544	922.2814	943.0403	957.381	970.2963	1018.9166	1053.0751	1059.6963	1080.3849	1117.7991	1135.1788	1141.8073	1172.18	1230.2344	1262.8129	1276.1956	1284.5567	1336.1272	1358.6663	1383.6156	1396.9221	1414.0339	1448.365	1465.1983	1480.5775	1484.6717	1489.3946	1502.8492	3017.1862	3022.0996	3053.7882	3062.2337	3083.0997	3089.2992	3101.6101	3106.0826	3108.6391	3124.0116	3482.5518
CC12NC1CCC1OC21	C[C@]12N[C@H]1CC[C@H]1O[C@@H]21	
InChI=1S/C7H11NO/c1-7-5(8-7)3-2-4-6(7)9-4/h4-6,8H,2-3H2,1H3	InChI=1S/C7H11NO/c1-7-5(8-7)3-2-4-6(7)9-4/h4-6,8H,2-3H2,1H3/t4-,5+,6-,7+/m1/s1
