18
gdb 107584	2.70029	1.5783	1.14147	4.846	71.64	-0.2475	0.0045	0.252	1095.5142	0.148543	-439.107288	-439.09909	-439.098146	-439.140092	30.872	
C	 0.3158814809	 1.4906890785	-0.2424870015	-0.384182
C	-0.1575073748	 0.068791276	 0.0906073437	-0.298723
C	 0.54266188	-0.517856519	 1.2898036822	 0.175493
N	 1.9689195759	-0.958784209	 1.2240438796	-0.359737
C	 0.9076888745	-1.9379480785	 1.5056737515	-0.136987
C	 0.793081603	-2.2040566746	 2.9916692298	-0.080533
O	 0.5080934203	-0.9297105602	 3.5976554966	-0.23135
C	 0.2579627755	 0.0329105958	 2.6682773173	 0.461629
O	-0.1530612431	 1.1191804843	 2.962792412	-0.348568
H	 1.3859987173	 1.5065200901	-0.4736176496	 0.116399
H	-0.2226186462	 1.8812858855	-1.1106156862	 0.113649
H	 0.1419492141	 2.155408695	 0.605980417	 0.160808
H	-1.2369442158	 0.0757286374	 0.2817366556	 0.119354
H	 0.0034168133	-0.5973405327	-0.7669673948	 0.09492
H	 2.2239899258	-1.0196882246	 0.2386737798	 0.236755
H	 0.6702337009	-2.7157954128	 0.7887710872	 0.10768
H	-0.030134466	-2.8888268803	 3.222223384	 0.120224
H	 1.7207533443	-2.586395871	 3.4258373759	 0.133166
97.0832	134.4764	190.6504	206.2049	253.0945	293.4123	358.3526	452.6905	492.8259	612.1926	676.7841	726.0729	772.8534	796.5481	844.6951	880.0523	920.8762	961.1256	987.3174	1033.882	1062.3259	1080.9754	1096.5429	1120.4967	1124.0939	1180.6997	1234.645	1270.6277	1293.4171	1364.4334	1380.5656	1400.2662	1411.0178	1444.1678	1477.3269	1496.0015	1504.9881	1513.999	1871.8519	3022.3359	3044.3083	3047.5637	3064.2874	3102.4082	3110.1939	3141.2524	3179.5551	3471.3235
CCC12NC1COC2=O	CC[C@]12N[C@H]1COC2=O	
InChI=1S/C6H9NO2/c1-2-6-4(7-6)3-9-5(6)8/h4,7H,2-3H2,1H3	InChI=1S/C6H9NO2/c1-2-6-4(7-6)3-9-5(6)8/h4,7H,2-3H2,1H3/t4-,6-/m0/s1
