14
gdb 28130	5.33454	1.32004	1.05949	4.1048	72.26	-0.1716	0.024	0.1955	1048.2162	0.104419	-432.901322	-432.894319	-432.893375	-432.932518	27.215	
N	 0.1246612614	 1.3385306354	 0.1677560734	-0.591526
C	-0.0721210012	-0.0284792681	 0.0552538586	 0.389057
C	-1.2098692831	-0.7983170721	 0.0186121885	-0.455195
C	-0.7036545183	-2.1396801284	 0.0093646447	 0.311804
C	 0.6635667454	-2.0655288889	 0.0313327272	 0.341121
O	 1.0840809753	-0.7637816457	 0.0626706417	-0.22587
N	 1.2970485718	-3.2563902168	 0.0013803063	-0.350333
C	 0.287712134	-4.1128766892	-0.0357946372	-0.024862
N	-0.9504504365	-3.4922333305	-0.0355368466	-0.405689
H	 0.9824613951	 1.6446653189	-0.2742362209	 0.260179
H	-0.6637580464	 1.8789056852	-0.1599454752	 0.256325
H	-2.2228505529	-0.4318853041	 0.0058671471	 0.101546
H	 0.3808545305	-5.1869968957	-0.0606819684	 0.128431
H	-1.8406486251	-3.95829572	-0.0553173293	 0.265013
147.8231	169.561	272.1717	321.7089	349.454	456.5846	535.7216	575.1996	643.9521	650.7811	687.5495	718.6981	727.0904	754.1891	769.2184	845.2009	959.0672	977.0574	1079.6158	1095.4458	1155.593	1194.6962	1270.9631	1374.6548	1384.4317	1437.1689	1472.3591	1544.4745	1595.38	1608.836	1655.1584	3264.7534	3266.6527	3545.0913	3648.3192	3680.0509
NC1=CC2=C(O1)N=CN2	Nc1cc2c(o1)nc[nH]2	
InChI=1S/C5H5N3O/c6-4-1-3-5(9-4)8-2-7-3/h1-2H,6H2,(H,7,8)	InChI=1S/C5H5N3O/c6-4-1-3-5(9-4)8-2-7-3/h1-2H,6H2,(H,7,8)
