14
gdb 49865	3.63531	1.28693	1.05938	2.7036	62.24	-0.2738	-0.0552	0.2186	1069.3367	0.100561	-473.83645	-473.829029	-473.828085	-473.869163	26.743	
O	-0.991068051	 1.2773106957	 0.4959576363	-0.231018
C	 0.0762957616	 0.9214466971	 0.0767845333	 0.139406
C	 1.2531108711	 1.8731711419	-0.0962590976	 0.005772
O	 2.4761259651	 1.141388393	-0.1135945911	-0.241804
C	 3.261122821	 1.5026763139	-1.1859125432	 0.456258
O	 4.3519453307	 1.0675123951	-1.3602495394	-0.321227
N	 2.5771333461	 2.4512802815	-2.0167436935	-0.166748
C	 1.4006903507	 1.8151441997	-2.672634363	-0.261339
C	 1.2397699006	 2.6122011907	-1.4351216248	-0.049818
H	 0.2848407889	-0.1232243726	-0.2410162596	 0.102794
H	 1.2574523094	 2.5871408202	 0.7338671332	 0.132885
H	 1.1402806611	 2.2514616926	-3.6302964952	 0.151469
H	 1.3239261064	 0.7327128271	-2.6216257975	 0.148266
H	 0.8005906283	 3.6020460442	-1.4640221578	 0.135103
69.4029	96.994	187.6842	237.6848	318.6834	412.1333	468.1967	528.7851	675.3448	746.0458	763.306	806.9951	863.2352	879.8856	945.9586	982.2819	1031.4339	1076.6467	1092.7669	1101.612	1115.5995	1128.7918	1166.0969	1268.4632	1298.6265	1322.344	1378.838	1402.4827	1505.7178	1841.0601	1918.6464	2903.8501	3065.0101	3127.1591	3190.6698	3222.9221
O=CC1OC(=O)N2CC12	O=C[C@H]1OC(=O)N2C[C@@H]12	
InChI=1S/C5H5NO3/c7-2-4-3-1-6(3)5(8)9-4/h2-4H,1H2	InChI=1S/C5H5NO3/c7-2-4-3-1-6(3)5(8)9-4/h2-4H,1H2/t3-,4+,6?/m0/s1
