19
gdb 29751	3.00906	1.48512	1.09358	4.3107	82.22	-0.2122	0.0433	0.2555	1134.4767	0.161076	-382.082937	-382.074721	-382.073777	-382.115808	31.081	
C	-0.3734212147	 1.6661820919	-0.0971067729	-0.400642
C	 0.0048245325	 0.1997015471	-0.0033075953	 0.034748
C	 0.7821764508	-0.4952444679	-1.2096276212	-0.187718
C	 1.0980577516	 0.3348669236	-2.449095451	-0.398366
C	 1.8964331178	-0.7138841105	-0.1907766445	 0.30517
C	 3.0721722423	-1.1612822399	 0.359592213	-0.235439
N	 3.0879165543	-0.8077021234	 1.6954209386	-0.264719
C	 1.9535572369	-0.1791018712	 1.9542693573	-0.038491
N	 1.212558187	-0.0968764636	 0.8153746198	-0.009593
H	 0.4785324687	 2.2835152759	-0.3919097624	 0.134679
H	-1.1745479381	 1.8032701041	-0.8304611285	 0.128442
H	-0.7390977561	 2.0293815575	 0.8685635547	 0.129192
H	-0.8510937718	-0.3950790124	 0.3313597507	 0.103455
H	 0.2852268787	-1.4242836825	-1.5086049516	 0.09485
H	 1.6194220708	 1.2619492963	-2.1969090215	 0.126323
H	 1.7462613233	-0.2343492002	-3.1226439047	 0.128948
H	 0.1860157638	 0.5873097413	-3.0003116539	 0.11681
H	 3.8964101395	-1.6949384083	-0.0860428208	 0.104442
H	 1.6576919128	 0.2249082723	 2.9094556744	 0.12791
84.9237	116.8166	205.6228	219.5831	250.7224	265.5931	392.5902	465.4621	528.0422	662.3737	673.3624	694.0129	742.6893	763.4795	781.1563	824.8358	945.2429	991.9909	998.6389	1045.2831	1054.3498	1105.9756	1117.9329	1144.539	1164.5388	1210.4401	1234.4513	1246.8307	1286.4128	1346.9143	1365.5309	1375.4804	1402.582	1408.8524	1415.9606	1471.553	1481.6496	1489.6933	1496.3461	1506.0252	1561.0977	3037.3332	3042.3101	3044.6453	3060.067	3103.2925	3108.4899	3118.2778	3129.9329	3257.5713	3262.4826
CC1C(C)C2=CN=CN12	C[C@H]1[C@@H](C)c2cncn12	
InChI=1S/C7H10N2/c1-5-6(2)9-4-8-3-7(5)9/h3-6H,1-2H3	InChI=1S/C7H10N2/c1-5-6(2)9-4-8-3-7(5)9/h3-6H,1-2H3/t5-,6+/m1/s1
