21
gdb 40788	3.62092	1.11884	0.95708	1.8009	81.82	-0.2574	0.0847	0.3421	1280.3276	0.184499	-387.069582	-387.061624	-387.06068	-387.10241	31.375	
C	 0.2731630908	 1.5228618605	 0.0336618442	-0.182942
O	 1.1679299669	 0.4441579558	-0.2431282582	-0.244182
C	-0.2078306706	 0.1359462881	 0.0031261896	 0.088322
C	-0.5168277068	-0.6428045919	 1.2579679748	-0.001194
C	-2.0076352904	-0.5620600478	 1.6771653805	-0.253567
C	-2.2744625079	-1.8494562768	 2.4910029272	-0.217231
C	-1.3108035217	-2.8801428672	 1.9178221044	-0.03159
C	-1.2358702127	-2.9986424543	 0.4160075397	-0.291625
C	-0.2348350124	-2.1400784213	 1.1551719063	-0.032175
H	 0.4218542535	 2.017025383	 0.9936247287	 0.108449
H	 0.0694870607	 2.1904677594	-0.8026328668	 0.111222
H	-0.748811623	-0.1922861498	-0.8871639192	 0.087279
H	 0.1124430756	-0.236766669	 2.0604921359	 0.073971
H	-2.2288994584	 0.3473410551	 2.2415338598	 0.100156
H	-2.6438761349	-0.5366122008	 0.7853085515	 0.102421
H	-2.0377792162	-1.6851787531	 3.5491639434	 0.099735
H	-3.3240622086	-2.1594349668	 2.4406683489	 0.096596
H	-1.0730454347	-3.7541260592	 2.5142141625	 0.079931
H	-0.8692311022	-3.9353866461	 0.0109556778	 0.110271
H	-2.0035600579	-2.5329169879	-0.1942511792	 0.105731
H	 0.7999816607	-2.4618102498	 1.1740103683	 0.090423
75.6135	115.2418	166.1931	268.3039	310.832	366.371	408.0792	497.259	613.9508	630.4058	768.9972	820.4654	832.8575	856.8564	859.7448	889.117	935.6392	949.1025	955.8329	981.2125	1007.6009	1034.7505	1058.7052	1083.8309	1099.0685	1105.4814	1126.8403	1151.5171	1161.8828	1174.4954	1199.9454	1206.1	1229.0967	1283.6206	1292.0318	1314.1831	1320.4787	1336.044	1362.1995	1391.993	1450.9811	1484.2534	1493.5051	1512.1118	1530.3093	3022.2616	3030.9073	3044.0827	3069.4719	3077.4551	3087.4141	3097.7137	3127.2615	3162.9391	3165.5712	3177.9039	3209.7278
C1OC1C1CCC2CC12	C1O[C@H]1[C@H]1CC[C@H]2C[C@@H]12	
InChI=1S/C8H12O/c1-2-6(8-4-9-8)7-3-5(1)7/h5-8H,1-4H2	InChI=1S/C8H12O/c1-2-6(8-4-9-8)7-3-5(1)7/h5-8H,1-4H2/t5-,6-,7+,8+/m0/s1
