15
gdb 20830	5.9852	1.3044	1.15686	1.9403	63.51	-0.2351	-0.0047	0.2303	1037.252	0.119923	-395.999918	-395.992219	-395.991275	-396.032761	27.719	
C	 0.2649334691	 0.8337588208	 0.8814250408	-0.381849
C	-0.1912548202	 0.3910728917	-0.5198473547	-0.296056
C	-1.5822344373	-0.1454454995	-0.5293453909	 0.435856
N	-1.9742565583	-1.3591911268	-0.7818102507	-0.358121
C	-3.3406103671	-1.2557941644	-0.6259180342	 0.40247
N	-4.1652728199	-2.3236867545	-0.8667356071	-0.584362
N	-3.7763253331	-0.0635396236	-0.2879965388	-0.21515
O	-2.5802421706	 0.6900870718	-0.2319491091	-0.207594
H	 1.2838546007	 1.2276518121	 0.8390023594	 0.123955
H	-0.3898093997	 1.6146171485	 1.2764140323	 0.142087
H	 0.2526799664	-0.0075656418	 1.5802614201	 0.132419
H	-0.1412861937	 1.2417793404	-1.2089662854	 0.134791
H	 0.4607801064	-0.3920688462	-0.9126480494	 0.138599
H	-3.7249212737	-3.2205195639	-0.7306733839	 0.266634
H	-5.087319319	-2.2497473146	-0.4642560682	 0.266321
29.4196	138.9587	200.9674	268.6266	308.6122	345.8591	402.427	472.0539	565.6923	619.4189	723.6054	767.357	781.006	807.2447	930.3009	969.7729	1027.3952	1045.2867	1081.6869	1107.6047	1130.4702	1263.1964	1335.717	1354.442	1409.3802	1449.7062	1475.3329	1497.4455	1506.6415	1581.989	1636.4675	1660.6465	3047.6249	3051.1424	3110.0309	3122.4535	3133.7506	3585.2299	3695.0086
CCC1=NC(N)=NO1	CCc1nc(N)no1	
InChI=1S/C4H7N3O/c1-2-3-6-4(5)7-8-3/h2H2,1H3,(H2,5,7)	InChI=1S/C4H7N3O/c1-2-3-6-4(5)7-8-3/h2H2,1H3,(H2,5,7)
