16
gdb 8801	5.14521	1.15665	0.9611	1.1722	62.57	-0.2506	-0.0685	0.1821	1205.4429	0.127308	-420.923548	-420.914173	-420.913229	-420.958907	31.079	
C	-0.0420001941	 1.5292027609	-0.0311042812	-0.38543
C	 0.0331993231	 0.0082203354	 0.0597079987	-0.273047
C	 0.7701492216	-0.4766816886	 1.2877971012	 0.264842
O	 1.2564311564	 0.2420546269	 2.1226901284	-0.273366
C	 0.8636318746	-2.0177172543	 1.4087801722	 0.372312
O	 0.3891031796	-2.7706889698	 0.593593646	-0.351612
O	 1.522028118	-2.3868764111	 2.5068287361	-0.206867
C	 1.6539360102	-3.8035870462	 2.6953524422	-0.24246
H	 0.9577621838	 1.9703547407	-0.0621659138	 0.132269
H	-0.5820308394	 1.8329938131	-0.9316348706	 0.115351
H	-0.5551142464	 1.9492915662	 0.8379978085	 0.132283
H	-0.9624380604	-0.4542939299	 0.0670584105	 0.140866
H	 0.5245176302	-0.4335572269	-0.8170536966	 0.14085
H	 0.6693752989	-4.2723191959	 2.7685497823	 0.145273
H	 2.1958656148	-4.2513229821	 1.8585394236	 0.145297
H	 2.2093184391	-3.9271984985	 3.6241884525	 0.143438
35.6627	61.0596	117.958	151.8572	153.5864	203.999	271.248	331.0823	355.9562	434.4497	506.2505	678.3371	705.2453	826.2657	834.3806	940.0772	1005.1857	1068.2284	1083.2959	1122.8474	1177.6423	1210.0421	1261.1966	1299.3123	1376.806	1417.1261	1435.0337	1473.0268	1482.7845	1493.271	1495.0498	1498.798	1804.2152	1824.3577	3035.4746	3052.0248	3053.7797	3057.875	3124.8853	3125.2417	3128.7841	3167.9818
CCC(=O)C(=O)OC	CCC(=O)C(=O)OC	
InChI=1S/C5H8O3/c1-3-4(6)5(7)8-2/h3H2,1-2H3	InChI=1S/C5H8O3/c1-3-4(6)5(7)8-2/h3H2,1-2H3
