15
gdb 48818	2.70826	1.64459	1.15389	5.3116	67.87	-0.243	-0.0478	0.1951	1026.3814	0.112487	-453.939687	-453.931682	-453.930738	-453.972638	29.036	
N	 0.0663244105	 1.3118556844	 0.2788920501	-0.554392
C	 0.0765607737	 0.0632873281	 0.0205467434	 0.332667
N	 1.0972675448	-0.7781429733	-0.3651387754	-0.35404
C	 0.6972761375	-2.1429595966	-0.6819618261	-0.195281
C	-0.7841726553	-2.1503055143	-0.3402095509	-0.017485
O	-1.0482901791	-1.8642865002	 1.0165280507	-0.26658
C	-1.1654518566	-0.7788472586	 0.0715292896	 0.280386
C	-2.5339533385	-0.2004400324	-0.1232951219	 0.071388
O	-3.5375599919	-0.8596553466	-0.0324651623	-0.253758
H	 0.989260795	 1.7337683922	 0.1610148691	 0.207535
H	 2.063413686	-0.5139160734	-0.269653033	 0.249182
H	 0.846009626	-2.3798883195	-1.7438759601	 0.120182
H	 1.2432139444	-2.8826578884	-0.0835732807	 0.131014
H	-1.4799601569	-2.818510061	-0.8379358895	 0.130907
H	-2.5421062695	 0.8790756895	-0.365205063	 0.118274
78.4164	107.3505	179.8956	207.9719	281.305	339.8938	355.0625	446.4408	539.8511	627.8196	705.0916	748.3222	767.0723	848.9806	866.4143	895.5697	958.484	1017.508	1032.721	1058.459	1102.6925	1139.8375	1169.7483	1222.1621	1275.8944	1318.9019	1380.579	1420.1979	1432.4737	1449.2386	1513.0853	1747.3849	1823.1899	2965.3311	3013.617	3052.7028	3176.111	3456.0317	3654.1999
N=C1NCC2OC12C=O	[NH][C]1NC[C@H]2O[C@@]12C=O	
InChI=1S/C5H6N2O2/c6-4-5(2-8)3(9-5)1-7-4/h2-3H,1H2,(H2,6,7)	InChI=1S/C5H6N2O2/c6-4-5(2-8)3(9-5)1-7-4/h2-3H,1H2,(H2,6,7)/t3-,5-/m1/s1
