17
gdb 53163	5.55335	0.87425	0.87086	1.6325	83.29	-0.2375	-0.0089	0.2286	1393.9893	0.135226	-384.611918	-384.603684	-384.60274	-384.646523	30.384	
C	 0.0337011849	 1.4958209534	-0.0416012274	-0.502024
C	 0.0255524072	 0.0407026174	-0.0213633515	 0.16202
C	 0.0102295183	-1.1638666863	 0.003083949	 0.015413
C	 0.0164685215	-2.6104587419	 0.0073073403	-0.201178
C	-0.0196224494	-3.3140409008	 1.4243056225	 0.021227
O	-1.4456455209	-3.0035489309	 1.4810581225	-0.278601
C	-1.3952844882	-3.3237484656	 0.0569544665	 0.021274
C	-0.977543	-4.802011729	 0.0755740285	-0.091917
C	-0.0302580222	-4.7953250761	 1.0171006843	-0.091921
H	 1.0563639071	 1.8891232141	-0.0509330748	 0.147445
H	-0.4769218485	 1.8834833844	-0.9302770573	 0.148372
H	-0.473238672	 1.9080185513	 0.8377957963	 0.151609
H	 0.7317813046	-3.0218440106	-0.7093492959	 0.096507
H	 0.5607042865	-2.965146434	 2.276211717	 0.088218
H	-2.2531268375	-2.9849875254	-0.5206223266	 0.088201
H	-1.3593136577	-5.5978251054	-0.546223054	 0.112677
H	 0.5994738262	-5.5840083046	 1.4006557805	 0.112678
16.6103	94.2369	94.9669	267.0915	289.5879	378.4208	439.2344	477.7194	545.7095	603.5333	710.7389	743.9047	842.7721	847.3985	860.5614	875.674	903.0404	907.7714	931.9361	961.5129	1017.8026	1051.7421	1053.4701	1131.6268	1148.778	1170.3678	1182.0322	1215.9123	1234.1707	1297.9847	1300.4392	1348.0809	1414.072	1477.1323	1478.3161	1610.5772	2365.2917	3026.1626	3075.2515	3085.8176	3088.3468	3146.0039	3149.2413	3234.7511	3261.5575
CC#CC1C2OC1C=C2	CC#C[C@H]1[C@H]2O[C@@H]1C=C2	
InChI=1S/C8H8O/c1-2-3-6-7-4-5-8(6)9-7/h4-8H,1H3	InChI=1S/C8H8O/c1-2-3-6-7-4-5-8(6)9-7/h4-8H,1H3/t6-,7-,8+
