17
gdb 132736	2.26648	1.77292	1.00191	2.4349	79.94	-0.2037	0.0089	0.2126	1127.635	0.136652	-426.050522	-426.0424	-426.041456	-426.082746	31.889	
C	 0.012268427	 1.5340542091	 0.0217866487	-0.526995
C	 0.0125532565	 0.0284825966	-0.0031119097	 0.093052
C	 0.0624180557	-0.6841891731	-1.2182331291	 0.251552
N	 0.1561674782	 0.0145015785	-2.4232372774	-0.588639
C	 0.079093934	-2.0853934434	-1.2085944706	-0.194075
C	 0.0484882325	-2.7828234602	-0.0082155621	-0.097274
C	-0.0053907071	-2.1040028242	 1.2050780855	-0.273048
C	-0.0225947928	-0.7173785502	 1.1708675449	 0.252774
F	-0.0734435906	-0.0569270781	 2.3408393955	-0.090931
H	 0.8702394756	 1.9388066931	-0.5279205906	 0.136062
H	-0.8936934796	 1.9501047031	-0.4407505393	 0.121447
H	 0.0548647998	 1.9056718859	 1.0455689633	 0.143459
H	-0.2810327974	 0.9240910964	-2.4300977578	 0.247893
H	-0.0987811006	-0.5235962609	-3.2384374831	 0.24622
H	 0.1189571288	-2.6221271416	-2.1515306087	 0.07925
H	 0.0616001798	-3.8674682347	-0.0175038808	 0.098421
H	-0.0335970898	-2.6162547061	 2.1582743813	 0.100832
138.7471	169.4529	240.1474	270.7007	304.1107	333.2	346.382	487.1925	504.8915	514.2031	549.3597	587.4514	640.2319	691.4875	728.4903	786.781	823.7812	852.3938	934.4339	936.0866	1057.4011	1060.2329	1093.4608	1155.0464	1186.6129	1221.7611	1279.215	1338.2199	1357.5841	1411.789	1486.7966	1494.9544	1511.6446	1524.5035	1627.7999	1648.0551	1665.8506	3009.2515	3061.631	3147.8223	3166.6747	3188.7293	3215.4497	3567.2932	3665.8373
CC1=C(N)C=CC=C1F	Cc1c(N)cccc1F	
InChI=1S/C7H8FN/c1-5-6(8)3-2-4-7(5)9/h2-4H,9H2,1H3	InChI=1S/C7H8FN/c1-5-6(8)3-2-4-7(5)9/h2-4H,9H2,1H3
