20
gdb 113668	3.5833	0.82468	0.75368	3.986	78.03	-0.2587	-0.0314	0.2272	1579.5659	0.16924	-440.274795	-440.264889	-440.263945	-440.31044	35.597	
C	-0.2528647977	 1.7489101359	-0.6392221637	-0.379914
C	 0.0338856883	 0.4476293983	 0.1195837705	-0.195227
C	-1.2270482891	-0.3588647328	 0.3269570177	 0.009865
N	-1.6829764349	-1.1860638633	-0.7815187558	-0.309028
C	-1.2575072292	-1.8622108117	 0.4602316602	-0.167087
C	-0.0238991244	-2.6988310843	 0.4122125329	 0.386073
O	 0.8803360087	-2.5484384468	-0.3839536914	-0.332732
C	 0.0921339009	-3.7974662202	 1.462601547	-0.133935
O	 1.3100064994	-4.4667439112	 1.3617772545	-0.421292
H	 0.6647358014	 2.3262899165	-0.7840467818	 0.117574
H	-0.6762555275	 1.533689797	-1.6250983779	 0.131746
H	-0.9635520496	 2.3835789437	-0.0973992142	 0.107994
H	 0.754196249	-0.1599889115	-0.4321244603	 0.143845
H	 0.4748182224	 0.6731793757	 1.0989292073	 0.095997
H	-1.9944490509	 0.1453202203	 0.9169832914	 0.090719
H	-2.6977055287	-1.2012656543	-0.8414200317	 0.240094
H	-2.0320227925	-2.2579837896	 1.115155577	 0.091119
H	-0.0360314211	-3.3414457373	 2.4592176381	 0.11561
H	-0.7625040693	-4.48444369	 1.3292150067	 0.114076
H	 1.7524830447	-4.0598234244	 0.5981923635	 0.294502
45.0145	85.9965	110.0103	136.9934	200.7862	232.4526	247.817	321.2125	374.2337	407.7286	449.5093	475.1197	592.5176	694.9072	773.243	804.7472	855.724	885.628	911.6199	957.8057	1016.8461	1029.1412	1046.7035	1080.2656	1100.3883	1145.2476	1158.0872	1194.8017	1227.8792	1241.5493	1257.5438	1308.7366	1312.7673	1347.3317	1408.2121	1431.616	1450.5732	1475.4289	1485.1277	1492.5238	1500.1989	1508.9115	1791.1828	2956.743	2975.8676	3032.4377	3032.8265	3088.1123	3094.4456	3114.3773	3120.9782	3125.2187	3505.8061	3666.6944
CCC1NC1C(=O)CO	CC[C@H]1N[C@H]1C(=O)CO	
InChI=1S/C6H11NO2/c1-2-4-6(7-4)5(9)3-8/h4,6-8H,2-3H2,1H3	InChI=1S/C6H11NO2/c1-2-4-6(7-4)5(9)3-8/h4,6-8H,2-3H2,1H3/t4-,6-/m1/s1
