14
gdb 104969	2.53397	1.36544	1.0802	4.2528	63.36	-0.2886	-0.0984	0.1903	1105.3339	0.098421	-473.803465	-473.794553	-473.793608	-473.837905	30.897	
O	 0.7789539737	 0.9517135688	-0.1098444745	-0.410202
C	 0.2022996716	-0.2905998337	-0.4509920661	-0.136732
C	-1.2715442673	-0.3115125742	-0.1034393945	 0.242594
C	-1.8896244488	-1.4461264848	 0.6211737453	-0.219182
O	-1.5649165924	-0.2414636784	 1.2990857243	-0.250362
C	-2.167849106	 0.5317082432	-0.9684123821	 0.272398
O	-1.8944209808	 0.8629595129	-2.0923369999	-0.267614
C	-3.4563642778	 0.9253419302	-0.3562447065	 0.243305
N	-4.486091859	 1.2281307443	 0.0731506898	-0.308518
H	 0.6807215015	 1.061673039	 0.84306744	 0.298419
H	 0.3245928873	-0.4090729009	-1.5303598382	 0.143965
H	 0.6998937379	-1.1311328046	 0.0533010227	 0.101133
H	-2.9535743805	-1.6481363202	 0.5144391014	 0.149217
H	-1.2616278796	-2.3054007516	 0.8492179783	 0.141578
49.4475	82.578	139.5705	172.186	244.9151	275.2869	328.5488	335.7221	425.1596	470.7932	491.1418	616.0315	672.7757	756.695	810.5598	913.6944	958.539	973.1827	1053.1392	1082.5828	1132.2586	1172.9655	1208.6445	1317.1841	1348.6722	1403.092	1424.8494	1483.1161	1517.5994	1797.4375	2340.9155	3006.3507	3094.7322	3111.7928	3189.7551	3799.8224
OCC1(CO1)C(=O)C#N	OC[C@]1(CO1)C(=O)C#N	
InChI=1S/C5H5NO3/c6-1-4(8)5(2-7)3-9-5/h7H,2-3H2	InChI=1S/C5H5NO3/c6-1-4(8)5(2-7)3-9-5/h7H,2-3H2/t5-/m0/s1
