21
gdb 113767	2.41951	1.05302	0.90098	3.6741	80.63	-0.2367	-0.0154	0.2213	1402.9195	0.179142	-424.208859	-424.198404	-424.19746	-424.24537	36.799	
C	 0.3181714003	 0.9887561494	-0.021383694	-0.243753
O	-0.1514433387	-0.1745544654	-0.6751832638	-0.228144
C	-1.3845122171	-0.6107275613	-0.2044284257	 0.125004
C	-1.7994336237	-1.9869450558	-0.6004801732	-0.340185
C	-1.4634890333	-1.7003678586	 0.8549498008	-0.066368
C	-0.1950515192	-2.2921592623	 1.4602219459	-0.079226
C	 0.075110888	-1.7493422956	 2.8721361097	-0.423072
C	-0.3527960761	-3.8018014639	 1.5052249845	 0.178445
O	 0.2529614362	-4.58492909	 0.8205092266	-0.256377
H	 1.2646556888	 1.2611417696	-0.4933756145	 0.13271
H	-0.3892346554	 1.8240362794	-0.1331582775	 0.110513
H	 0.4872913509	 0.8192451405	 1.0510164465	 0.113588
H	-2.1461207355	 0.1700008721	-0.1667450768	 0.086031
H	-2.8302670031	-2.1664792456	-0.8833589018	 0.11645
H	-1.0670476134	-2.5633453193	-1.1560840933	 0.142951
H	-2.3055440251	-1.6333666043	 1.5401811427	 0.085559
H	 0.6461573956	-2.0752232148	 0.7955643033	 0.107482
H	 0.1133336143	-0.6563891251	 2.8678265697	 0.127996
H	-0.7185036144	-2.0492665767	 3.5666470894	 0.119484
H	 1.025076574	-2.1222849252	 3.266839068	 0.127365
H	-1.121576763	-4.1541070572	 2.2358492235	 0.063548
47.2644	51.5996	101.3332	143.304	173.3837	204.8094	214.7775	286.2768	295.353	344.2105	399.7539	482.114	521.3532	608.9347	772.1431	804.2699	839.9112	895.1848	948.6609	979.1061	1007.1317	1030.6162	1072.8444	1095.5674	1114.9118	1129.6202	1154.6414	1162.7169	1182.9608	1188.5864	1226.0678	1259.1873	1269.9186	1323.1997	1384.2736	1405.5883	1409.4851	1427.2215	1473.3796	1486.1397	1492.5566	1495.9516	1498.1694	1508.4751	1832.5796	2832.824	2988.1816	3031.489	3040.9272	3076.7259	3084.431	3100.5492	3113.4375	3123.395	3131.366	3138.0833	3227.1338
COC1CC1C(C)C=O	CO[C@H]1C[C@H]1[C@@H](C)C=O	
InChI=1S/C7H12O2/c1-5(4-8)6-3-7(6)9-2/h4-7H,3H2,1-2H3	InChI=1S/C7H12O2/c1-5(4-8)6-3-7(6)9-2/h4-7H,3H2,1-2H3/t5-,6-,7-/m0/s1
