19
gdb 74646	2.9145	1.7654	1.26499	2.0133	79.95	-0.2204	0.0029	0.2233	1025.7332	0.158196	-385.825244	-385.817367	-385.816423	-385.857044	31.675	
C	-0.0468405245	 1.5146750224	 0.0044149491	-0.503415
C	-0.0086807807	 0.0243524642	-0.0301616447	 0.242734
C	-0.0285682203	-0.8199594889	-1.0686044712	-0.221651
C	 0.0333689035	-2.1995554421	-0.450383235	-0.095199
C	-0.8073967923	-2.161797564	 0.8681132393	 0.035206
O	 0.1378691885	-3.0484235524	 1.5579003209	-0.327447
C	 0.9754567051	-2.1143564971	 0.7953940375	 0.035199
C	 0.0656619748	-0.8877765847	 1.197146561	 0.251837
C	 0.1083348211	-0.3389640343	 2.6015693239	-0.524234
H	 0.8420359325	 1.9301703862	 0.4962057739	 0.128484
H	-0.100033839	 1.9312896144	-1.0053108743	 0.12634
H	-0.9124204191	 1.8835647772	 0.5694503566	 0.128468
H	-0.0777830414	-0.5900149715	-2.1243531037	 0.102017
H	 0.0328833384	-3.1055963538	-1.0533430771	 0.076352
H	-1.8764761687	-2.3326396691	 1.024610015	 0.086281
H	 2.0612826785	-2.227864504	 0.8640022834	 0.08628
H	 0.982426374	 0.3034369681	 2.7549906556	 0.116885
H	-0.7832636964	 0.2564210026	 2.8270093441	 0.116886
H	 0.1594648559	-1.1655103331	 3.3156430258	 0.138978
147.6241	177.2379	234.0856	235.3619	304.4112	319.946	417.3844	514.4406	529.5817	574.4951	673.5182	714.0135	728.2694	783.9494	819.0346	836.709	879.2067	886.6168	916.0108	965.8642	1012.0115	1034.6844	1060.4322	1089.1341	1129.0332	1135.0127	1145.6537	1167.9258	1171.1877	1241.8611	1244.469	1290.0805	1313.5113	1341.5192	1404.7835	1414.9623	1475.8518	1480.7062	1493.9102	1500.7642	1691.0117	3015.6137	3031.1115	3059.9482	3074.2248	3081.3151	3089.9901	3107.9498	3116.4984	3145.2576	3221.6517
CC1=CC2C3OC2C13C	CC1=C[C@@H]2[C@H]3O[C@@H]2[C@@]13C	
InChI=1S/C8H10O/c1-4-3-5-6-8(4,2)7(5)9-6/h3,5-7H,1-2H3	InChI=1S/C8H10O/c1-4-3-5-6-8(4,2)7(5)9-6/h3,5-7H,1-2H3/t5-,6-,7+,8+
