16
gdb 126285	3.5063	1.14844	0.92105	2.9623	78.2	-0.2558	-0.0922	0.1636	1259.032	0.123009	-434.033946	-434.025504	-434.02456	-434.06755	30.721	
C	 0.0462444222	 1.5378482261	 0.219408854	-0.380549
C	-0.0233301149	 0.0440271545	-0.1419996793	-0.264794
C	-1.4273283516	-0.4792586997	-0.1583220838	 0.346557
C	-2.1057282249	-0.9107828897	-1.2306183842	-0.229217
C	-3.4718939828	-1.3824881644	-1.1030759552	 0.428594
N	-4.1474345257	-1.7979275748	-2.0945490451	-0.526013
O	-3.9899158518	-1.3488842029	 0.1717696583	-0.294721
N	-3.1986384595	-0.8696993579	 1.3100481526	 0.044616
N	-2.0543246753	-0.4869911093	 1.1123211578	-0.144114
H	 1.0869998915	 1.8696857153	 0.2641237642	 0.126158
H	-0.4758143401	 2.1459792774	-0.5254243162	 0.126801
H	-0.413937025	 1.7219807977	 1.1938897577	 0.145518
H	 0.4321832993	-0.1344346815	-1.1204832914	 0.117707
H	 0.5500797585	-0.5316723075	 0.5948100542	 0.131516
H	-1.6748691879	-0.9296382222	-2.2242051787	 0.14099
H	-5.082804552	-2.0851973611	-1.8016186849	 0.230951
65.0214	106.942	136.1816	204.6401	256.1175	308.2551	377.562	419.9163	503.5544	534.9419	651.5266	683.4776	745.0842	764.4078	793.7605	870.7381	891.4213	937.683	953.5853	976.9144	1076.0427	1087.5693	1113.0402	1184.4547	1263.5176	1308.249	1352.0537	1363.2664	1408.0667	1476.126	1496.1797	1507.7678	1630.5883	1687.3447	1741.5941	3037.2011	3045.7677	3088.9873	3119.6942	3127.5119	3217.5423	3480.2356
CCC1=CC(=N)ON=N1	CCC1=N[N]OC(=C1)[NH]	
InChI=1S/C5H7N3O/c1-2-4-3-5(6)9-8-7-4/h3,6H,2H2,1H3	InChI=1S/C5H7N3O/c1-2-4-3-5(6)9-8-7-4/h3,6H,2H2,1H3
