16
gdb 77059	3.18878	1.06286	0.8752	2.18	71.41	-0.2542	0.0143	0.2685	1288.1865	0.122359	-437.865014	-437.855805	-437.854861	-437.899647	33.061	
O	 0.1442737233	 1.4723518798	 0.0558134917	-0.423918
C	 0.1029603237	 0.0695508019	 0.0346025211	-0.044421
C	-1.3160055266	-0.5762396545	 0.1870713919	 0.017884
C	-2.4949311302	 0.4047399667	 0.2027369971	-0.347144
C	-3.7590572782	-0.2753461759	-0.0504887749	 0.272805
C	-4.7760224083	-0.8760875478	-0.274810627	-0.430409
N	-1.0686427962	-1.2255193068	-1.10882108	-0.325419
C	 0.1094788135	-0.5797589051	-1.3743044554	 0.392431
O	 0.8281064924	-0.5011264443	-2.3359469871	-0.366387
H	 0.7006911496	 1.7532596936	-0.6802248446	 0.305635
H	 0.8416315188	-0.3680214842	 0.7183192012	 0.103365
H	-1.406045056	-1.2907889331	 1.0107279333	 0.098544
H	-2.5206859888	 0.9090553714	 1.1762219265	 0.144066
H	-2.321165564	 1.1854717802	-0.544565082	 0.142443
H	-5.6900138457	-1.3824434193	-0.4643467786	 0.199971
H	-1.6858983873	-1.7677533328	-1.6970302532	 0.260553
52.7313	90.0922	117.7974	174.2924	217.8137	252.5205	341.1619	366.7848	429.5594	503.3444	539.1805	554.562	630.1958	654.1608	722.6895	774.417	845.211	888.7986	925.6862	978.835	1022.1633	1086.4086	1138.833	1183.567	1198.5464	1225.2632	1260.9144	1317.3522	1350.7362	1371.7409	1387.1263	1398.1176	1460.4521	1892.0437	2237.61	3025.5421	3041.8927	3062.5478	3088.6738	3505.1175	3599.9831	3795.1456
OC1C(CC#C)NC1=O	O[C@H]1[C@@H](CC#C)NC1=O	
InChI=1S/C6H7NO2/c1-2-3-4-5(8)6(9)7-4/h1,4-5,8H,3H2,(H,7,9)	InChI=1S/C6H7NO2/c1-2-3-4-5(8)6(9)7-4/h1,4-5,8H,3H2,(H,7,9)/t4-,5+/m1/s1
