16
gdb 99928	2.37117	1.3386	1.15399	2.2801	64.52	-0.2896	0.0086	0.2982	1118.3368	0.122224	-474.994453	-474.985284	-474.984339	-475.028696	32.993	
O	 0.1514060965	 1.2104374453	 0.1443216749	-0.42888
C	 0.0025181979	-0.1828933009	-0.0641217003	-0.110881
C	-1.4966564046	-0.5665672668	 0.0102073728	 0.172517
O	-2.0532374218	-0.0416549167	 1.1940049946	-0.44773
C	-2.1698830571	 0.0217667605	-1.1781510591	 0.256467
N	-2.658612192	 0.5417784352	-2.087312667	-0.349927
C	-1.6559192057	-2.0791510243	 0.0575471683	 0.071118
C	-2.6842297693	-2.8157252602	-0.681092741	-0.190892
O	-1.3228358338	-2.7807311962	-1.1319498818	-0.236091
H	-0.1048746424	 1.6671956843	-0.665961531	 0.307049
H	 0.4384853032	-0.5220569269	-1.0099723809	 0.138058
H	 0.5174975268	-0.6765115878	 0.7651726182	 0.129968
H	-1.6231881726	 0.8173610749	 1.3248489179	 0.299765
H	-1.262768042	-2.4994557723	 0.9834030429	 0.113967
H	-3.0201881906	-3.7771072705	-0.2982896334	 0.129167
H	-3.3924448724	-2.2763439775	-1.3052941552	 0.146324
62.9128	109.0899	140.4365	175.2336	196.0299	271.8966	331.9577	391.9694	399.6532	451.2712	472.8778	563.408	606.964	641.9255	728.4191	866.245	896.8899	924.0946	995.8405	1021.5524	1085.3977	1092.5278	1127.4711	1154.8726	1169.6042	1173.0121	1248.0883	1295.5428	1362.3859	1389.9567	1414.7044	1441.1949	1490.6818	1526.2764	2348.8813	3046.3552	3100.684	3107.2572	3117.0548	3196.1847	3719.0604	3794.2483
OCC(O)(C#N)C1CO1	OC[C@@](O)(C#N)[C@H]1CO1	
InChI=1S/C5H7NO3/c6-2-5(8,3-7)4-1-9-4/h4,7-8H,1,3H2	InChI=1S/C5H7NO3/c6-2-5(8,3-7)4-1-9-4/h4,7-8H,1,3H2/t4-,5+/m1/s1
