18
gdb 64723	4.06101	1.09052	1.0398	1.3906	77.01	-0.2368	0.0344	0.2713	1193.7665	0.146105	-401.863539	-401.854957	-401.854012	-401.896662	33.25	
O	-0.0542398632	 1.4277281803	-0.0278330801	-0.481365
C	-0.009639165	 0.0217322767	 0.0186204891	 0.39693
C	 0.9182237194	-0.5359798624	-1.0802775364	-0.409467
C	 2.2732398039	-0.0153461242	-0.9407277328	 0.259687
C	 3.3623817207	 0.46896531	-0.7781298794	-0.421643
C	 0.193343827	-0.6654473176	 1.4053746512	-0.230186
N	-1.1202791721	-1.3954194045	 1.2890327109	-0.129175
C	-2.1392479014	-0.3330258319	 1.2321741523	-0.251715
C	-1.3863919505	-0.6267964813	-0.0005465576	-0.061984
H	 0.8572217951	 1.7466339831	-0.064759704	 0.282644
H	 0.9218110753	-1.6311102839	-1.0410766936	 0.143883
H	 0.5096447243	-0.247949553	-2.0570310152	 0.138537
H	 4.3388704625	 0.8688039419	-0.6562403836	 0.203242
H	 1.0273826718	-1.3687597305	 1.4467661339	 0.113163
H	 0.2424916124	 0.0155748789	 2.2601774879	 0.10709
H	-3.1538799926	-0.7145249162	 1.291719027	 0.122084
H	-1.9645185169	 0.6009936575	 1.7599163287	 0.127481
H	-1.8376851407	-1.0992432931	-0.8680719083	 0.090793
72.19	114.4373	159.4132	258.1343	334.0466	360.9592	384.8462	420.7174	427.6222	469.4487	559.6328	630.137	660.201	701.8072	754.3963	787.2037	848.5426	903.5148	924.4131	963.032	967.1999	999.2371	1053.4076	1074.6336	1103.5102	1112.0488	1127.2289	1186.9876	1212.7855	1232.7	1266.8908	1288.7086	1300.2638	1348.0331	1423.1357	1462.8021	1488.0313	1506.8291	2231.306	3029.9207	3054.3942	3072.6635	3113.7561	3119.4649	3154.1135	3205.543	3503.0012	3759.2061
OC1(CC#C)CN2CC12	O[C@@]1(CC#C)CN2C[C@@H]12	
InChI=1S/C7H9NO/c1-2-3-7(9)5-8-4-6(7)8/h1,6,9H,3-5H2	InChI=1S/C7H9NO/c1-2-3-7(9)5-8-4-6(7)8/h1,6,9H,3-5H2/t6-,7-,8?/m0/s1
