20
gdb 92893	2.28976	1.72281	1.02428	2.719	82.59	-0.2109	-0.0009	0.2099	1186.5187	0.171562	-403.205892	-403.196786	-403.195842	-403.239814	33.784	
C	-0.1607725578	 1.524995388	 0.0089917005	-0.388655
C	 0.0703450008	 0.0141387923	 0.0005056483	-0.116627
C	 0.7519346613	-0.4844009036	-1.2860599388	-0.267743
C	 1.0886364893	-1.9442073883	-1.1702471989	-0.15352
C	 1.367896152	-2.4604183895	 0.0265862304	 0.040823
N	 1.3621975136	-1.7056172228	 1.2095888849	-0.12152
C	 1.9866856007	-2.2663866943	 2.4003651648	-0.355566
C	 0.8160079242	-0.4338132217	 1.2642942893	 0.424705
O	 0.8760520669	 0.2501904212	 2.2693665531	-0.380428
H	 0.7882699816	 2.063941321	-0.0784220934	 0.120276
H	-0.7972357846	 1.8167876976	-0.8321343504	 0.104727
H	-0.6343496895	 1.8408212285	 0.9395576797	 0.137739
H	-0.9045278614	-0.4950832945	 0.0639750805	 0.104915
H	 0.0924728044	-0.2970921568	-2.1401076696	 0.109042
H	 1.6638046039	 0.1048824432	-1.4750771119	 0.111985
H	 1.1201244576	-2.5762859526	-2.0490341032	 0.095961
H	 1.6330521575	-3.5021672516	 0.1699799921	 0.107531
H	 1.5882434703	-3.266821207	 2.6000065331	 0.126054
H	 3.0738808157	-2.3392225719	 2.2820020662	 0.130263
H	 1.7640643434	-1.6076311472	 3.2379429132	 0.170038
84.9661	96.2006	127.7533	190.0188	211.3244	279.66	352.7971	370.8068	439.6511	456.0404	495.2749	558.6014	651.4296	713.9014	745.7356	833.0084	892.2777	919.3738	945.9795	962.1835	1022.8464	1066.6574	1093.5488	1143.412	1154.0736	1158.3137	1188.192	1221.6417	1263.0536	1305.3643	1345.9136	1354.9196	1402.3911	1410.9852	1416.6417	1455.8936	1479.6742	1491.423	1497.3763	1498.6043	1514.7276	1726.7967	1767.2442	2975.5405	2991.2544	3028.0827	3043.3424	3062.82	3082.5571	3106.7465	3142.1619	3170.7972	3185.771	3211.1518
CC1CC=CN(C)C1=O	C[C@H]1CC=CN(C)C1=O	
InChI=1S/C7H11NO/c1-6-4-3-5-8(2)7(6)9/h3,5-6H,4H2,1-2H3	InChI=1S/C7H11NO/c1-6-4-3-5-8(2)7(6)9/h3,5-6H,4H2,1-2H3/t6-/m0/s1
