18
gdb 72126	2.44176	2.25902	1.74583	1.8703	75.15	-0.2264	-0.0016	0.2247	861.6244	0.150851	-401.909597	-401.90315	-401.902206	-401.939811	28.071	
O	 0.1320683983	 1.3840103697	-0.0956894614	-0.484849
C	 0.0401056112	 0.003796883	-0.0492754931	 0.407563
C	 0.1968797796	-0.8292019031	-1.3137496272	-0.224442
N	-0.4617811606	-1.9480697539	-0.5337962005	-0.149886
C	 0.6214442268	-2.2052671176	 0.4447484047	-0.158826
C	 0.7888351248	-0.7766916085	 1.1034252249	-0.15422
C	-0.2189781374	-0.7605392911	 2.2234842638	-0.106743
C	-1.4428617409	-0.8600370899	 1.6746043397	-0.104399
C	-1.2807115721	-0.7904148852	 0.19781682	-0.079135
H	-0.1034741089	 1.7260424451	 0.7753474805	 0.283888
H	-0.4578267127	-0.488518532	-2.1191950855	 0.111762
H	 1.1917281997	-1.0588821816	-1.703784471	 0.099114
H	 0.3358837869	-2.9675471687	 1.1709118095	 0.104202
H	 1.5152554832	-2.5363839844	-0.0902707683	 0.105827
H	 1.8058853119	-0.4581899401	 1.3308563844	 0.0689
H	 0.0291524953	-0.8175161629	 3.2766441214	 0.100011
H	-2.385144694	-0.984014942	 2.1925583646	 0.101719
H	-2.1431208709	-0.5454392167	-0.4193314165	 0.079513
242.3841	298.5119	356.0379	395.8686	421.7168	479.7106	554.3796	616.8376	642.2046	701.843	768.4164	786.8921	812.6064	847.4694	851.0298	893.0732	923.0009	943.8287	958.7259	984.5148	1012.8174	1049.5012	1072.7374	1114.4472	1127.8588	1133.9099	1164.9804	1183.3104	1218.	1235.0628	1271.432	1283.8006	1318.0993	1330.1891	1367.3697	1388.6126	1497.0364	1525.0352	1616.0408	3059.336	3067.3928	3116.2072	3119.9772	3124.6517	3136.4474	3196.4177	3222.2481	3784.0942
OC12CN3CC1C=CC23	O[C@@]12CN3C[C@@H]1C=C[C@@H]23	
InChI=1S/C7H9NO/c9-7-4-8-3-5(7)1-2-6(7)8/h1-2,5-6,9H,3-4H2	InChI=1S/C7H9NO/c9-7-4-8-3-5(7)1-2-6(7)8/h1-2,5-6,9H,3-4H2/t5-,6-,7-/m0/s1
