16
gdb 48566	3.69861	1.52674	1.25668	3.6694	74.18	-0.2433	-0.0293	0.214	981.493	0.125202	-400.708231	-400.701406	-400.700462	-400.739431	27.148	
O	-0.5005394192	 0.6057487414	 0.7011742766	-0.264742
C	 0.1753915063	 0.9911485787	-0.2210171287	 0.089888
C	 1.3040218277	 1.9407990558	-0.0717163221	 0.228681
C	 1.7525583431	 2.4465160949	 1.2469317603	-0.163527
C	 2.524943893	 3.52538879	 1.071326019	-0.095761
C	 2.7511743191	 3.7306629332	-0.4056821129	-0.131213
C	 3.5777752242	 2.481205431	-0.8911727174	-0.144609
N	 2.3378048863	 1.7249380555	-1.2267154132	-0.192183
C	 1.5748617697	 2.9857150349	-1.1028549001	-0.07728
H	 0.0039290078	 0.6506540072	-1.2640330721	 0.085965
H	 1.4915796354	 1.9539447139	 2.1728472057	 0.125934
H	 3.0698150122	 4.0609909496	 1.8388832333	 0.11107
H	 3.0619206123	 4.7169078925	-0.7442190585	 0.085438
H	 4.0950030639	 2.6719707229	-1.8340747611	 0.124492
H	 4.251273415	 2.006006395	-0.172526806	 0.112706
H	 0.8733082433	 3.3423783836	-1.8516939227	 0.105141
103.8457	197.7121	268.7121	367.818	391.4571	443.0213	550.0573	612.7376	708.3022	729.6083	772.938	815.5518	858.3629	873.0795	885.5012	899.0586	941.6311	972.5699	1002.9139	1032.0999	1051.7765	1077.63	1109.6594	1154.5125	1188.785	1206.0687	1252.9391	1279.6462	1288.2458	1332.0902	1387.5938	1422.6313	1489.1019	1638.7524	1815.2609	2914.2635	3057.6378	3121.9872	3135.4256	3152.4448	3208.5855	3245.4407
O=CC12C=CC3CN1C23	O=C[C@@]12C=C[C@H]3CN1[C@@H]23	
InChI=1S/C7H7NO/c9-4-7-2-1-5-3-8(7)6(5)7/h1-2,4-6H,3H2	InChI=1S/C7H7NO/c9-4-7-2-1-5-3-8(7)6(5)7/h1-2,4-6H,3H2/t5-,6+,7+,8?/m0/s1
