13
gdb 20347	5.29981	2.30318	1.62181	3.6692	64.88	-0.2367	-0.0402	0.1965	728.479	0.099958	-357.674383	-357.668999	-357.668055	-357.703792	20.863	
C	-0.0778185131	 1.428902933	 0.0106356754	-0.234424
C	 1.3867204712	 1.8343727778	-0.0011205574	-0.095256
C	 2.1869564057	 0.7527954469	-0.0148803775	-0.186385
C	 1.3360382412	-0.4303528041	-0.0133439651	 0.389449
N	 1.3890202937	-1.7524128779	-0.0211182829	-0.366737
C	 0.0612354649	-2.077385905	-0.0099181692	 0.017728
N	-0.7972668365	-1.056951638	 0.0036973587	-0.275164
N	 0.0516434654	-0.0119335377	 0.0012475524	 0.056208
H	-0.6051221008	 1.781246787	 0.9045790043	 0.154692
H	-0.6221251127	 1.7913055423	-0.8689808521	 0.154687
H	 1.6952393612	 2.8701456309	 0.0016828889	 0.125637
H	 3.2664243904	 0.7367076679	-0.0253570941	 0.134503
H	-0.2894243206	-3.0987770932	-0.0121377114	 0.125062
173.7073	270.0923	444.5239	463.5236	656.3201	679.5066	696.2639	753.1193	798.2031	881.9779	897.0317	933.7246	953.4093	982.3576	994.803	1089.8101	1169.155	1178.1054	1196.2025	1271.8753	1281.6612	1328.3827	1353.8571	1430.1928	1444.4872	1482.673	1569.6048	1619.7544	3044.3983	3080.587	3236.9568	3259.869	3260.2535
C1C=CC2=NC=NN12	C1C=Cc2ncnn12	
InChI=1S/C5H5N3/c1-2-5-6-4-7-8(5)3-1/h1-2,4H,3H2	InChI=1S/C5H5N3/c1-2-5-6-4-7-8(5)3-1/h1-2,4H,3H2
