19
gdb 63786	3.35785	1.25017	1.18584	3.7864	75.66	-0.2315	-0.0319	0.1996	1128.9508	0.157087	-423.01706	-423.008414	-423.00747	-423.050219	33.22	
C	 0.3425409354	 1.3945324991	-0.1786583275	-0.435723
C	 0.0441783755	-0.0782568954	 0.0443550197	 0.411872
C	-1.4241958793	-0.4051746447	-0.204132089	-0.422374
O	 0.88252659	-0.9241696934	-0.8189401461	-0.335436
C	 1.3041440386	-1.7366350378	 0.2945111158	-0.004174
C	 0.5987578068	-0.7854865306	 1.3118069846	-0.130104
C	 1.9736823479	-0.3028760997	 1.8476702644	-0.39073
C	 2.6693720693	-1.2340731255	 0.828115377	 0.409143
O	 3.8084331732	-1.4805690809	 0.5679792855	-0.28619
H	 1.4082415858	 1.610035919	-0.0782617411	 0.126651
H	 0.0381199477	 1.6850323635	-1.1893242288	 0.129776
H	-0.211193155	 2.0148780527	 0.5339868329	 0.119466
H	-1.6957158307	-0.1621206785	-1.2357607081	 0.127463
H	-1.6207285379	-1.468737898	-0.0404006055	 0.1206
H	-2.0677789037	 0.1719401132	 0.4689237315	 0.116047
H	 1.1306963633	-2.8064692908	 0.1499376101	 0.091811
H	-0.1293286054	-1.1194213049	 2.0484173202	 0.082773
H	 2.2142392938	 0.7612027014	 1.7970126114	 0.132398
H	 2.1702059348	-0.6461714987	 2.8693966829	 0.136732
61.4753	156.7126	183.3899	244.1886	259.169	335.7306	354.8914	377.5146	432.3684	473.0833	518.1337	598.6229	690.215	771.7822	809.2132	871.3868	883.5885	927.3552	951.746	974.5469	991.8154	1003.8118	1028.2394	1071.1067	1096.5565	1156.8985	1169.5196	1196.7903	1217.6706	1236.0109	1278.8217	1287.7488	1324.8004	1400.3763	1413.9862	1435.5807	1471.4842	1483.3876	1493.2041	1508.2093	1897.52	3033.2522	3041.5751	3056.8413	3075.9343	3103.7152	3109.5666	3115.7234	3116.4225	3128.9978	3132.676
CC1(C)OC2C1CC2=O	CC1(C)O[C@@H]2[C@H]1CC2=O	
InChI=1S/C7H10O2/c1-7(2)4-3-5(8)6(4)9-7/h4,6H,3H2,1-2H3	InChI=1S/C7H10O2/c1-7(2)4-3-5(8)6(4)9-7/h4,6H,3H2,1-2H3/t4-,6-/m1/s1
