15
gdb 44532	4.45395	1.35671	1.22685	5.2905	72.15	-0.2652	-0.0492	0.216	996.2435	0.114277	-420.611634	-420.605201	-420.604257	-420.642474	25.766	
O	 0.0198088107	 0.0758893025	 0.3071652313	-0.335268
C	 0.0230013718	 1.2478105131	 0.0725378575	 0.437312
O	-1.1628275692	 1.9544692075	-0.1591863153	-0.254488
C	-0.7942454921	 3.269543685	-0.5334008137	 0.089184
C	-1.0606392876	 4.6124281655	 0.18715083	-0.106949
C	-0.3217998797	 4.7634194709	 1.480685457	-0.26757
C	 0.4803139597	 4.8452413562	 0.1925883619	-0.15449
C	 0.6537705996	 3.409797933	-0.2206604139	 0.250987
C	 1.1692982359	 2.2168241964	 0.0728337022	-0.396936
H	-1.0189937802	 3.4109016877	-1.5980346443	 0.116891
H	-1.8412623021	 5.3021849598	-0.1076901412	 0.104342
H	-0.4805901431	 5.7130327489	 1.9828487855	 0.12882
H	-0.1767786825	 3.9208018765	 2.1485129385	 0.138025
H	 1.0521853935	 5.7171431537	-0.0918589279	 0.1177
H	 2.1474059154	 1.9213538833	 0.4225410524	 0.132441
124.366	208.4436	277.9397	375.3495	523.5213	538.8623	613.0802	691.8171	732.1464	735.8886	779.6761	840.9622	847.4383	874.0356	900.733	914.0727	977.6736	991.7098	1027.8386	1054.6321	1062.8866	1097.7729	1105.3111	1151.3392	1182.3941	1204.0829	1252.4471	1270.4567	1338.8439	1366.4138	1486.5374	1698.4632	1874.7731	3035.2077	3128.364	3195.8686	3211.8859	3220.134	3248.5349
O=C1OC2C3CC3C2=C1	O=C1O[C@H]2[C@H]3C[C@H]3[C]2[CH]1	
InChI=1S/C7H6O2/c8-6-2-5-3-1-4(3)7(5)9-6/h2-4,7H,1H2	InChI=1S/C7H6O2/c8-6-2-5-3-1-4(3)7(5)9-6/h2-4,7H,1H2/t3-,4+,7+/m1/s1
