16
gdb 60753	4.60859	0.85167	0.72877	3.4562	72.83	-0.2658	-0.034	0.2318	1452.0816	0.12342	-434.104421	-434.095014	-434.09407	-434.139846	32.441	
C	 0.0856858265	 1.4471064066	-0.0375372491	-0.360877
N	 0.0034408236	-0.0109193138	-0.0107210757	-0.139736
C	-0.1199183099	-0.6287367558	 1.236763245	 0.172724
O	-0.147696055	-0.0196487822	 2.2792752636	-0.317448
C	 0.0699541258	-0.7975406088	-1.1718510798	 0.394499
N	 0.2375038853	-2.0522587394	-1.0922649558	-0.493814
C	-0.0973901316	 0.0040824891	-2.4711918217	-0.46221
C	-0.0599062022	-0.8470461918	-3.653603677	 0.274658
N	-0.028041977	-1.5359068804	-4.5800222915	-0.288517
H	 1.0258543268	 1.7872689858	-0.4823272343	 0.13868
H	-0.7527255789	 1.894471219	-0.5798122428	 0.134283
H	 0.0475299536	 1.7766488446	 1.0000775855	 0.183382
H	-0.1951130143	-1.7184937478	 1.1466525933	 0.148941
H	 0.2200557095	-2.4965763501	-2.007976197	 0.252442
H	-1.0482981258	 0.5490664395	-2.4547507213	 0.182349
H	 0.6896373035	 0.7613844356	-2.5569148813	 0.180645
33.3762	67.2864	132.4477	162.5496	194.7928	259.8161	310.1205	348.0832	385.1324	401.8444	462.6846	541.3757	552.1819	737.0552	843.475	843.9864	933.2572	970.8745	996.2236	1053.4312	1073.258	1152.1254	1228.4782	1230.3541	1279.8089	1318.6388	1396.5419	1419.2224	1449.2245	1451.9338	1507.2327	1512.4791	1721.029	1801.8085	2371.9525	3037.8132	3048.9274	3085.2608	3085.3679	3099.7308	3161.9674	3512.09
CN(C=O)C(=N)CC#N	CN(C=O)C(=N)CC#N	
InChI=1S/C5H7N3O/c1-8(4-9)5(7)2-3-6/h4,7H,2H2,1H3	InChI=1S/C5H7N3O/c1-8(4-9)5(7)2-3-6/h4,7H,2H2,1H3
