14
gdb 128748	7.10967	0.76751	0.69581	5.2897	75.46	-0.2442	-0.0597	0.1845	1526.4136	0.099491	-469.975843	-469.967355	-469.966411	-470.011266	28.349	
C	-0.2182346205	 1.3782336825	-0.0685874833	-0.256851
O	 0.2265812257	 0.0283185047	 0.0983706727	-0.177106
C	 0.6130767282	-0.6013471292	-1.0049667075	 0.136651
N	 1.020563213	-1.8064773342	-0.9232077506	-0.342535
C	 1.4181519443	-2.4521237802	-2.0611817312	 0.482194
C	 1.8862669535	-3.7288330116	-2.213805591	-0.202634
N	 2.1502236461	-3.9062832227	-3.5439459137	-0.105734
N	 1.8885013953	-2.8709327422	-4.2049291008	-0.02226
O	 1.4000437411	-1.8728620273	-3.2707037768	-0.233708
H	 0.5820369461	 2.0075882131	-0.4715254005	 0.144428
H	-1.0931378462	 1.4241939319	-0.7253313595	 0.144428
H	-0.4914265162	 1.7301447502	 0.9256447527	 0.160181
H	 0.5523461898	-0.0227344963	-1.9330795735	 0.129885
H	 2.0423782298	-4.4970097186	-1.4775862771	 0.143062
18.8169	61.7625	118.4838	166.3104	173.2146	316.7058	372.1981	411.0107	496.9566	645.7693	688.7777	742.9244	804.2132	824.9878	978.6695	1007.4982	1035.21	1063.0567	1128.478	1171.7441	1175.1968	1270.844	1304.6691	1346.6126	1398.9389	1451.6131	1484.1482	1495.5976	1495.7273	1624.6797	1719.7058	3032.5542	3074.0394	3105.8409	3162.1513	3302.3463
COC=NC1=CN=NO1	COC=Nc1cnno1	
InChI=1S/C4H5N3O2/c1-8-3-5-4-2-6-7-9-4/h2-3H,1H3	InChI=1S/C4H5N3O2/c1-8-3-5-4-2-6-7-9-4/h2-3H,1H3
