18
gdb 43098	3.11735	1.92696	1.68019	2.8789	73.48	-0.2291	-0.0097	0.2194	863.6456	0.15239	-401.93577	-401.929807	-401.928863	-401.96582	25.914	
O	 0.0103381862	 0.0357485081	-0.0109134232	-0.336008
C	-0.0283607999	 1.2314417339	 0.010489087	 0.440789
C	-1.1857574357	 2.2394848535	 0.0387539955	-0.161828
C	-0.7213081951	 2.778671985	 1.4250797045	-0.184196
N	 0.5683519985	 3.3843422463	 0.9657133966	-0.127951
C	-0.0259516719	 4.3901218429	 0.035780458	-0.165531
C	-0.6417599127	 3.3760324692	-0.9517400991	-0.057466
C	 0.710536734	 2.7817188747	-1.4263550886	-0.230928
C	 1.0911012818	 2.2940387521	 0.0015065874	-0.110173
H	-2.1966790884	 1.8625676747	-0.0922479772	 0.086483
H	-1.3644056966	 3.5336730264	 1.8798931555	 0.112954
H	-0.5521469338	 1.980929645	 2.1556358012	 0.124827
H	-0.7259763876	 5.0302997927	 0.5753289573	 0.104794
H	 0.7337908636	 5.0248021109	-0.4254979234	 0.104014
H	-1.3359772091	 3.7228183369	-1.7156092999	 0.075267
H	 0.6273873881	 1.9417113796	-2.1237259897	 0.121485
H	 1.3809362401	 3.5285150308	-1.856978722	 0.108654
H	 2.1106682985	 1.9801648471	 0.20569369	 0.094812
172.0654	303.9011	465.2761	472.0268	519.967	586.4757	649.3016	729.0289	751.9855	776.0006	810.0551	831.4979	872.5919	898.5386	903.8722	915.8799	929.1403	950.0088	955.15	1006.1373	1035.9522	1061.9952	1105.9747	1133.2568	1151.0687	1169.1083	1185.3366	1201.3613	1237.5649	1239.7822	1258.9625	1271.7122	1277.1051	1293.379	1335.2644	1498.9884	1517.6395	1545.9951	1885.1139	3055.5193	3056.851	3073.1693	3107.8866	3114.7694	3124.9434	3129.8347	3158.689	3165.4285
O=C1C2CN3CC2CC13	O=C1[C@H]2CN3C[C@H]2C[C@H]13	
InChI=1S/C7H9NO/c9-7-5-3-8-2-4(5)1-6(7)8/h4-6H,1-3H2	InChI=1S/C7H9NO/c9-7-5-3-8-2-4(5)1-6(7)8/h4-6H,1-3H2/t4-,5+,6-/m1/s1
