16
gdb 32053	3.52288	1.16317	0.88339	2.7184	78.1	-0.2122	-0.0459	0.1663	1251.3761	0.125156	-437.914708	-437.906709	-437.905764	-437.947542	30.068	
O	 0.5885426083	 0.5790382217	-0.8201546472	-0.399006
C	-0.1197614335	 0.2786670273	 0.3609151816	-0.150611
C	-1.4694406283	-0.340316963	 0.1043971187	 0.335575
C	-1.9293568014	-0.7792240619	-1.081856416	-0.253608
C	-3.2518580379	-1.3422409446	-1.133186628	-0.068894
C	-4.000152151	-1.4289291075	-0.0132235936	-0.156195
C	-3.4955056878	-0.963422331	 1.2628809737	 0.376236
N	-4.1420664896	-1.0235374989	 2.3540014711	-0.536774
O	-2.2046026218	-0.4125506015	 1.2400525539	-0.276112
H	 0.1143580459	 1.2807586893	-1.2788357386	 0.290868
H	 0.5017671004	-0.4282763518	 0.9239126615	 0.143864
H	-0.2572825722	 1.1577204827	 1.0095121335	 0.118581
H	-1.293170535	-0.7169910157	-1.9529044625	 0.117794
H	-3.641100186	-1.69765405	-2.0815970691	 0.114643
H	-4.9995636603	-1.8432502656	-0.0011237211	 0.124689
H	-3.5932925298	-0.6381782395	 3.1227613821	 0.21895
82.063	145.4736	171.0257	198.8307	329.4754	369.4682	404.7192	467.4948	532.1922	568.029	611.5253	714.9919	763.1593	815.1225	847.1037	858.2344	873.7935	975.5719	990.5347	1007.615	1030.7489	1093.8172	1111.7688	1156.3347	1203.8541	1216.6964	1266.9896	1349.4881	1396.3794	1414.4671	1435.9684	1486.4849	1615.9498	1682.5954	1743.0879	2991.2422	3056.537	3186.4611	3228.8169	3239.2286	3491.2046	3812.5249
OCC1=CC=CC(=N)O1	OCC1=CCC=C([NH])O1	
InChI=1S/C6H7NO2/c7-6-3-1-2-5(4-8)9-6/h1-3,7-8H,4H2	InChI=1S/C6H8NO2/c7-6-3-1-2-5(4-8)9-6/h2-3,7-8H,1,4H2
