17
gdb 114297	2.3397	1.60692	1.17055	3.6652	72.66	-0.2559	0.0111	0.267	1084.4385	0.135779	-417.953475	-417.945081	-417.944137	-417.986862	30.541	
C	 0.0575070323	 1.2869193487	-0.1791056405	-0.241437
O	-0.0197107628	-0.0108568783	 0.3757294967	-0.234888
C	-1.2592819522	-0.6216388307	 0.1892877201	 0.12528
C	-1.6608343061	-1.2134215613	-1.1992403911	-0.225317
N	-1.8766940666	-2.5808041326	-0.5913727367	-0.140465
C	-0.5596297396	-3.0153225145	-0.066633311	-0.159942
C	 0.6810542406	-2.7232455004	-0.7429365172	 0.323543
N	 1.6704965709	-2.5554528254	-1.317189691	-0.347295
C	-1.3492621387	-2.0379330715	 0.7261019515	-0.074381
H	 1.0553317095	 1.6704817265	 0.0408408353	 0.141181
H	-0.0847519219	 1.2744809226	-1.269172247	 0.117159
H	-0.6932852046	 1.9592120769	 0.2641230778	 0.107668
H	-2.0695496971	 0.005059024	 0.5907399411	 0.087613
H	-2.6062635059	-0.83899564	-1.592760583	 0.122709
H	-0.8958766818	-1.1928842867	-1.9791739706	 0.140824
H	-0.6046452515	-4.0366382862	 0.3019922456	 0.145751
H	-1.7722939646	-2.3295005212	 1.6816605099	 0.111998
73.2677	125.5302	146.6631	195.206	198.4824	297.1683	381.0507	453.6843	473.8579	570.0762	606.2877	747.6769	769.5613	792.4868	871.9223	920.6965	981.1271	1004.6014	1028.4763	1055.6626	1068.6655	1109.4471	1162.6803	1181.3601	1190.5841	1222.3948	1239.8669	1273.4042	1291.5105	1351.0307	1398.2532	1406.8837	1482.2066	1489.3043	1493.3885	1505.9996	2355.8565	2980.5657	2994.6084	3034.8068	3075.8142	3131.417	3140.1556	3152.9071	3173.4966
COC1CN2C(C#N)C12	CO[C@H]1CN2[C@@H](C#N)[C@@H]12	
InChI=1S/C6H8N2O/c1-9-5-3-8-4(2-7)6(5)8/h4-6H,3H2,1H3	InChI=1S/C6H8N2O/c1-9-5-3-8-4(2-7)6(5)8/h4-6H,3H2,1H3/t4-,5-,6-,8?/m0/s1
