19
gdb 107591	2.66236	1.55457	1.13017	1.628	75.53	-0.1984	-0.0148	0.1836	1114.3713	0.160588	-419.194206	-419.185657	-419.184713	-419.227282	32.549	
C	-0.4723083033	 1.4217379368	-0.2404758799	-0.333143
N	 0.0543300963	 0.0806610589	 0.0459758213	-0.367967
C	 0.8210609541	-0.4849877461	-1.0163386791	 0.224727
C	 0.0729752042	-1.0474416411	-2.2290829343	-0.311092
C	 0.8383932934	-1.9831376675	-1.3680396698	-0.069382
N	 2.1432421956	-2.3992719257	-1.8621584719	-0.301903
C	 2.9345674801	-1.169047038	-2.063388128	-0.299909
C	 2.2180415078	-0.0341904311	-1.3077936929	 0.339045
O	 2.7281946374	 0.9970495789	-0.9352742843	-0.335573
H	 0.3043744571	 2.1594449807	-0.4796014944	 0.131184
H	-1.1651011617	 1.3618414524	-1.0861172574	 0.119842
H	-1.0373464037	 1.7715713263	 0.628408572	 0.114761
H	 0.6257725161	 0.122558433	 0.8840234353	 0.222888
H	-1.0040835356	-1.0491954583	-2.1083727623	 0.134444
H	 0.4243803249	-0.8226889116	-3.2304152799	 0.123606
H	 0.3061581518	-2.6993217344	-0.7545960751	 0.109869
H	 2.5909789709	-2.9565463096	-1.1428299853	 0.227241
H	 3.9582756621	-1.2799579732	-1.7000044833	 0.135122
H	 3.0002193625	-0.9068191504	-3.1279287408	 0.13624
99.395	123.8806	167.96	199.4301	233.351	298.3151	367.4052	427.7335	483.1367	530.8483	624.8555	659.8018	680.7214	772.5351	805.0888	841.1186	891.62	906.6124	972.2233	976.8498	1022.2489	1035.8125	1060.8838	1082.4052	1104.3456	1154.9724	1157.7397	1189.9232	1210.6278	1262.7745	1290.7136	1329.6635	1398.4981	1448.8938	1453.0812	1473.8961	1483.9726	1487.4942	1492.4012	1526.7464	1817.4125	3015.6788	3022.1793	3082.1793	3107.9093	3109.9113	3136.7719	3195.9581	3229.9345	3516.1419	3526.1337
CNC12CC1NCC2=O	CN[C@]12C[C@H]1NCC2=O	
InChI=1S/C6H10N2O/c1-7-6-2-4(6)8-3-5(6)9/h4,7-8H,2-3H2,1H3	InChI=1S/C6H10N2O/c1-7-6-2-4(6)8-3-5(6)9/h4,7-8H,2-3H2,1H3/t4-,6-/m1/s1
