18
gdb 24208	4.01997	1.61782	1.39989	2.2825	82.46	-0.1875	0.047	0.2346	953.8841	0.151961	-364.812442	-364.806085	-364.80514	-364.843583	26.683	
C	-0.0404748704	 1.5842729681	-0.0486352947	-0.215206
C	 1.5052690653	 1.3540137914	-0.0052390019	-0.021909
C	 1.19676116	 0.1740232639	 0.9728764115	-0.215213
C	-0.0449195476	 0.0074677759	 0.0133465818	-0.184801
C	 0.6698937115	-0.3054228063	-1.2842774021	 0.395048
C	 0.7785963745	-1.0448537235	-2.4357317347	-0.393435
C	 1.92819843	-0.5370393041	-3.1270775816	-0.148707
C	 2.4751811352	 0.4870255434	-2.3761863678	-0.148773
N	 1.693940895	 0.6099831337	-1.2610526045	 0.045865
H	-0.4264861467	 2.0494604762	 0.8616352971	 0.101892
H	-0.4484308854	 2.0600606273	-0.9425216272	 0.111821
H	 2.2394735946	 2.1343654504	 0.1828004243	 0.086396
H	 1.9215482767	-0.6413359619	 1.0142097774	 0.111829
H	 0.9212551606	 0.5132326472	 1.9743919218	 0.101889
H	-0.9262371714	-0.5651371244	 0.2902821224	 0.081576
H	 0.1338277833	-1.8464297496	-2.7609326032	 0.090701
H	 2.3091201109	-0.8889505139	-4.0739727372	 0.087905
H	 3.3339484839	 1.1153814162	-2.5489315116	 0.113121
44.593	294.1138	411.712	484.3024	502.1095	598.3611	683.5647	684.5774	694.2064	722.3542	757.8457	804.7328	808.9392	824.6754	868.0285	894.7781	926.9082	994.499	997.9244	1015.755	1046.1042	1060.1048	1068.6672	1100.5205	1105.9807	1154.4391	1214.9424	1217.2659	1228.6323	1252.2572	1261.4109	1280.8749	1289.9375	1417.7906	1446.3367	1474.5364	1492.8964	1509.9956	1600.4013	3060.57	3069.3877	3132.7677	3137.7997	3148.3502	3156.223	3238.9782	3253.3752	3268.7312
C1C2CC1C1=CC=CN21	C1[C@H]2C[C@@H]1c1cccn21	
InChI=1S/C8H9N/c1-2-8-6-4-7(5-6)9(8)3-1/h1-3,6-7H,4-5H2	InChI=1S/C8H9N/c1-2-8-6-4-7(5-6)9(8)3-1/h1-3,6-7H,4-5H2/t6-,7+
