18
gdb 56686	2.51838	1.28661	1.1445	3.6712	71.38	-0.2584	0.0178	0.2761	1141.8486	0.148072	-435.236549	-435.227294	-435.226349	-435.270547	34.072	
N	 0.0802001684	 1.3868101534	 0.268193776	-0.505219
C	-0.006435725	-0.0371634491	-0.0358076509	-0.161742
C	-1.4199714712	-0.4648310453	-0.0025284254	 0.303711
N	-2.5194232308	-0.8188526582	-0.0419841897	-0.329104
C	 0.5992204713	-0.4614274148	-1.4024921684	 0.252338
N	-0.0514577657	 0.2879438655	-2.4533156873	-0.581216
C	 2.1425441277	-0.406935046	-1.3836553314	-0.1177
O	 2.2274374676	-1.8286486441	-1.1822185379	-0.270575
C	 0.8301038614	-1.9992006555	-1.4993236936	-0.124426
H	 1.0356963513	 1.6211330886	 0.5166002136	 0.23877
H	-0.1467881473	 1.9070921265	-0.5760363305	 0.249961
H	 0.5166710138	-0.5938001121	 0.7500258352	 0.139831
H	 0.3672688774	 0.0889391446	-3.3557459889	 0.23779
H	-1.0365336017	 0.04282004	-2.5157468053	 0.251011
H	 2.5761007217	-0.094553361	-2.344681524	 0.099789
H	 2.6241976727	 0.1604509941	-0.5783853478	 0.10175
H	 0.3138742998	-2.6443807001	-0.7795640912	 0.118518
H	 0.6820103088	-2.3956842965	-2.5134739326	 0.096512
82.5617	100.7932	136.3411	223.3882	237.5798	267.5701	317.4168	335.9025	356.7126	400.7753	476.3133	534.4561	602.0629	749.1213	792.6844	841.4589	860.4504	892.4105	954.2813	970.0956	1006.852	1026.666	1034.5637	1108.6888	1140.42	1149.4022	1164.845	1198.2189	1241.3834	1297.0602	1317.9941	1346.6619	1387.8809	1412.0872	1505.2914	1530.6975	1657.6283	1663.8967	2355.2349	2994.3713	3006.9213	3052.9302	3058.1604	3068.7708	3490.3318	3491.7303	3575.6834	3579.1656
NC(C#N)C1(N)COC1	N[C@@H](C#N)C1(N)COC1	
InChI=1S/C5H9N3O/c6-1-4(7)5(8)2-9-3-5/h4H,2-3,7-8H2	InChI=1S/C5H9N3O/c6-1-4(7)5(8)2-9-3-5/h4H,2-3,7-8H2/t4-/m0/s1
