19
gdb 66569	2.28694	2.21778	1.59122	1.163	77.92	-0.2329	0.0717	0.3046	927.4756	0.159232	-385.817374	-385.809913	-385.808969	-385.848574	31.025	
C	-0.0267970214	 1.5157568981	 0.068178056	-0.50435
C	-0.0593293171	 0.0101856314	 0.0558976341	 0.258198
C	-1.3604360952	-0.8368885039	-0.0062297528	-0.298564
C	-0.4807798377	-1.9768848461	 0.565065402	-0.055124
C	 0.6766749094	-2.1997974345	-0.4342281654	-0.157808
C	 1.6888272724	-1.3859610287	 0.3664092121	-0.162353
C	 0.4785384136	-0.9145574526	 1.2257149292	-0.093132
C	 0.9931647829	-0.7490822053	-0.8039755724	 0.376423
O	 1.5651276225	-0.3488700446	-1.992530833	-0.469702
H	 0.986853127	 1.8832797017	 0.2640642533	 0.122395
H	-0.3390954003	 1.9243163109	-0.8999407211	 0.115971
H	-0.6923317485	 1.9253820728	 0.8353964132	 0.110457
H	-2.1008395892	-0.4918244799	 0.7236500399	 0.093445
H	-1.8451072454	-0.9838842244	-0.9786005197	 0.079216
H	-0.8974130644	-2.8332533656	 1.0946047101	 0.062771
H	 0.8626389625	-3.0209100872	-1.1151243265	 0.081697
H	 2.7350755522	-1.5644335398	 0.5735575913	 0.090765
H	 0.4754186309	-0.6288765002	 2.2751435755	 0.065456
H	 0.9727127259	-0.5878699421	-2.7144617558	 0.284239
196.3217	202.1978	232.8967	288.2745	308.5404	380.9664	443.8005	559.93	587.1439	623.6098	736.4549	756.5552	814.3205	819.8639	846.5888	862.8203	873.8876	908.4485	924.3983	929.7503	959.1829	996.1249	1003.9102	1053.4011	1074.8988	1125.3017	1142.4681	1160.8272	1176.5459	1198.9141	1207.8217	1240.5033	1265.0831	1269.8423	1302.013	1338.5603	1411.8747	1446.2672	1487.3715	1490.1176	1492.2186	3022.9594	3027.5171	3083.5526	3086.4319	3094.3639	3114.4711	3140.4835	3191.8681	3209.3521	3783.6434
CC12CC3C4C(C13)C24O	C[C@]12C[C@H]3[C@@H]4[C@H]([C@@H]13)[C@]24O	
InChI=1S/C8H10O/c1-7-2-3-4(7)6-5(3)8(6,7)9/h3-6,9H,2H2,1H3	InChI=1S/C8H10O/c1-7-2-3-4(7)6-5(3)8(6,7)9/h3-6,9H,2H2,1H3/t3-,4+,5-,6+,7+,8+/m1/s1
