17
gdb 45907	2.51535	1.61726	1.08484	4.8998	79.09	-0.2043	-0.0147	0.1896	1094.4034	0.138878	-418.036699	-418.028696	-418.027751	-418.069294	30.552	
O	 0.0823082134	-0.191987637	 0.2043017439	-0.377948
C	-0.0589558853	 1.0058741081	 0.0149885152	 0.327171
N	-1.3492584414	 1.527739136	 0.1915736786	-0.341574
C	-1.9079045763	 2.7501869643	-0.1875090385	 0.019839
C	-1.4311348012	 3.9505299464	 0.1464575249	-0.085175
C	-0.2378756638	 4.1278596225	 1.0411631728	-0.251757
N	 1.0456326786	 4.143595039	 0.3507198054	-0.283265
C	 1.5158193148	 3.0811073551	-0.3551731294	 0.005229
C	 1.0754260571	 1.8073180892	-0.4833355485	-0.177331
H	-1.9937558352	 0.7611492098	 0.3295792609	 0.246306
H	-2.8181098832	 2.6656457164	-0.7789809317	 0.107266
H	-1.920489199	 4.8331189176	-0.2516971636	 0.093006
H	-0.3133751575	 5.0626416452	 1.6031456095	 0.112787
H	-0.2130588686	 3.3071016068	 1.7690049968	 0.13751
H	 1.4292317916	 5.043144227	 0.1164697301	 0.247406
H	 2.4591047643	 3.3075080143	-0.8473830198	 0.112731
H	 1.7749484017	 1.1439012491	-0.9793608965	 0.1078
90.8263	119.5274	234.7978	254.6293	275.6514	324.356	442.3919	495.8694	510.4604	575.0574	618.9153	692.5675	716.376	773.2696	794.4901	810.1072	861.7194	936.5027	964.1843	971.8453	991.1315	1076.8552	1108.4049	1158.6548	1247.5475	1304.9246	1329.9962	1347.8105	1382.5099	1435.4545	1442.5953	1472.3491	1476.102	1528.4954	1686.3125	1724.708	1747.8521	3030.4792	3093.2262	3134.4319	3152.9195	3187.3855	3193.349	3590.0302	3653.2779
O=C1NC=CCNC=C1	O=C1NC=CCNC=C1	
InChI=1S/C6H8N2O/c9-6-2-5-7-3-1-4-8-6/h1-2,4-5,7H,3H2,(H,8,9)/b4-1-,5-2-	InChI=1S/C6H8N2O/c9-6-2-5-7-3-1-4-8-6/h1-2,4-5,7H,3H2,(H,8,9)/b4-1-,5-2-
