19
gdb 119672	3.7689	1.00918	0.91173	2.6567	75.32	-0.2314	0.0751	0.3065	1310.4559	0.158372	-422.923404	-422.915113	-422.914169	-422.95691	31.412	
O	-0.1303373798	 1.4556027983	-0.045671125	-0.4169
C	 0.0324035621	 0.0462350721	-0.0517611915	-0.071042
C	-1.3525263655	-0.5792301213	 0.0827603111	-0.331098
C	-1.3279989644	-2.0817550414	 0.1040636715	 0.316279
C	-0.6672881225	-3.0746182247	 1.0946510333	-0.327302
C	-1.3542500618	-4.0128976818	 0.0807648769	-0.098203
C	-2.5514938017	-3.0360013175	-0.116868268	 0.041791
O	-2.4618699711	-3.0136144102	-1.5728592348	-0.329017
C	-1.0789253459	-3.0480860881	-1.1105453871	 0.056044
H	 0.7370677534	 1.8600221307	-0.1383471993	 0.28572
H	 0.5050841331	-0.298373354	-0.9858003396	 0.087102
H	 0.6747408241	-0.2846344982	 0.7804155469	 0.087438
H	-1.8184006012	-0.1969830341	 0.9993622147	 0.10895
H	-1.9757261563	-0.2485286103	-0.7564481852	 0.123521
H	 0.4263698186	-3.096564213	 1.1157489593	 0.098191
H	-1.0645427746	-3.0813664617	 2.1141172302	 0.099649
H	-1.3880670207	-5.1010862977	 0.0415262589	 0.084276
H	-3.5371926483	-3.0270329433	 0.3493519721	 0.093188
H	-0.2790420374	-3.0585335337	-1.8515998444	 0.091411
76.6121	83.7744	131.3175	254.6606	263.9312	335.7715	349.2653	421.8749	574.3904	708.132	736.7114	774.4654	795.0498	830.0389	852.6065	882.0363	899.4399	930.9447	958.8079	998.7828	1021.0383	1059.8785	1070.9245	1085.2823	1114.7158	1138.8276	1152.4106	1169.768	1171.4509	1218.8511	1229.4512	1246.1848	1266.0026	1302.9713	1315.7806	1327.8397	1382.6653	1461.6904	1482.7401	1517.8579	1527.9694	2962.3526	2988.5718	3031.4938	3045.9404	3076.7413	3100.0486	3111.9505	3114.0765	3132.6498	3830.6261
OCCC12CC3C1OC23	OCC[C@@]12C[C@H]3[C@@H]1O[C@@H]23	
InChI=1S/C7H10O2/c8-2-1-7-3-4-5(7)9-6(4)7/h4-6,8H,1-3H2	InChI=1S/C7H10O2/c8-2-1-7-3-4-5(7)9-6(4)7/h4-6,8H,1-3H2/t4-,5-,6+,7+
