17
gdb 16890	4.05781	1.93776	1.50878	1.6982	69.59	-0.2273	0.0249	0.2522	869.886	0.143597	-363.871352	-363.864202	-363.863258	-363.902591	27.293	
C	-0.0251552483	 1.4409606349	 0.0787560763	-0.45416
C	-0.0784927136	-0.0453291536	-0.1042965467	 0.388086
N	-1.0120565818	-0.7565377974	 0.3789316075	-0.295574
C	-1.0218301271	-2.1578309368	 0.0910449371	 0.016989
C	-1.076006114	-2.6123658531	-1.3573737639	-0.298043
C	 0.1853831243	-2.788401631	-0.5564206551	-0.057134
C	 1.3562657126	-1.8572376511	-0.7549772025	-0.099882
O	 0.9685594732	-0.4792094212	-0.8689670144	-0.267196
H	 0.8857055618	 1.7275458147	 0.6148751068	 0.134056
H	 0.0047786216	 1.941011752	-0.8950253463	 0.137269
H	-0.9011215906	 1.7733569205	 0.6345713499	 0.143499
H	-1.5925168964	-2.7351939225	 0.8101805355	 0.092362
H	-1.6586145826	-3.4956700863	-1.5946613189	 0.114947
H	-1.1028197873	-1.8335076628	-2.1121996433	 0.126256
H	 0.4638394696	-3.7954813888	-0.2596797743	 0.091462
H	 2.0473451893	-1.9520516813	 0.0942700297	 0.110153
H	 1.9143864691	-2.0750115664	-1.6710717572	 0.116909
134.5912	142.6383	174.2012	305.2885	346.1887	406.3667	514.7139	568.4331	645.5634	726.1862	769.6266	818.163	829.8074	895.1958	947.9729	966.3745	1019.0109	1051.7205	1058.153	1065.8955	1100.9593	1124.5853	1140.195	1183.4389	1227.9529	1244.8235	1282.6003	1371.6009	1392.1749	1407.2618	1421.6135	1474.4669	1476.4832	1485.9541	1515.4929	1741.0678	3007.7731	3044.0677	3070.1518	3099.3939	3133.1027	3148.804	3164.0943	3164.8064	3222.9173
CC1=NC2CC2CO1	CC1=N[C@H]2C[C@H]2CO1	
InChI=1S/C6H9NO/c1-4-7-6-2-5(6)3-8-4/h5-6H,2-3H2,1H3	InChI=1S/C6H9NO/c1-4-7-6-2-5(6)3-8-4/h5-6H,2-3H2,1H3/t5-,6-/m0/s1
