15
gdb 28083	6.55703	0.7957	0.72686	14.1116	98.54	-0.133	-0.0621	0.0709	1468.7378	0.111449	-453.928727	-453.920177	-453.919233	-453.961917	32.178	
O	 0.1852367542	 0.1407892031	-0.3751698438	-0.401119
C	-0.0489335682	 1.3036111281	-0.1545704243	 0.424566
C	-1.171473902	 2.1621492416	-0.1747370912	-0.529038
C	-0.7154569206	 3.4540695379	 0.1457473335	 0.286182
N	-1.458757345	 4.6353005192	 0.2675608719	-0.315113
C	-1.0676136534	 5.7696351737	-0.2758755198	 0.107126
N	-1.5312808872	 6.9798071155	 0.1053953813	-0.496606
H	-2.2593991161	 7.0590335799	 0.7974124188	 0.281071
H	-1.4294849561	 7.7578548162	-0.5247717574	 0.292205
C	 0.6414735698	 3.4270840864	 0.3857629356	-0.069785
O	 1.0995725991	 2.1850562929	 0.2273638144	-0.225104
H	-2.1475576968	 1.8656226154	-0.5202027913	 0.07972
H	-2.3430579613	 4.5948846641	 0.7668420788	 0.269391
H	-0.2607682904	 5.7195745563	-0.9955075875	 0.184389
H	 1.279568004	 4.1595525697	 0.8599392411	 0.112115
87.5868	95.143	190.096	242.423	317.6199	335.2028	396.8019	424.6821	480.0248	505.9613	540.6729	585.4934	613.7307	658.5428	671.1308	721.4446	732.435	797.0738	830.8379	997.5988	1056.2585	1067.9415	1192.1797	1217.6201	1271.6834	1340.3528	1355.5362	1397.7072	1503.2501	1554.387	1639.8271	1703.9938	1856.6289	3226.8611	3236.8641	3265.5151	3493.0406	3599.6349	3716.543
[O-]C1=CC(NC=[NH2+])=CO1	O=C1[CH]C(=CO1)NC=[NH2]	
InChI=1S/C5H6N2O2/c6-3-7-4-1-5(8)9-2-4/h1-3,8H,(H2,6,7)	InChI=1S/C5H6N2O2/c6-3-7-4-1-5(8)9-2-4/h1-3,7H,6H2
