25
gdb 116437	2.34811	1.21039	0.93371	1.2738	88.13	-0.2609	0.0789	0.3398	1380.6742	0.230675	-389.514036	-389.504329	-389.503385	-389.54808	37.808	
C	-0.227004647	 1.5878178564	-0.0500603569	-0.398236
C	 0.007015127	 0.0680403834	 0.0064541682	 0.011351
C	 0.7428637837	-0.4479757382	-1.249417021	-0.206482
C	 2.2276186467	-0.0533265076	-1.2811477518	-0.18285
C	 2.952269721	-0.5156271434	-0.0095649619	-0.199896
C	 2.2453850041	-0.0081278771	 1.2543627399	-0.190529
C	 0.7601254627	-0.4111562517	 1.2725752674	 0.058256
C	 0.0742895478	 0.0134871119	 2.5694727625	-0.111737
O	 0.6600076862	-0.7238001348	 3.6365727112	-0.425214
H	 0.7064690836	 2.1581336932	-0.0296322063	 0.118093
H	-0.7530504865	 1.8557070456	-0.9727807881	 0.109585
H	-0.8417418967	 1.9338487087	 0.7865284018	 0.111683
H	-0.9853706113	-0.4038427589	 0.0215041209	 0.061913
H	 0.6709992929	-1.5439484015	-1.270658483	 0.088277
H	 0.233331104	-0.0865338814	-2.1509181001	 0.083519
H	 2.7054417543	-0.4824048486	-2.1694252373	 0.087274
H	 2.3228482476	 1.0359086634	-1.3798574703	 0.092695
H	 2.9786649307	-1.6142658397	 0.0105993075	 0.091354
H	 3.996025767	-0.181283079	-0.0220231118	 0.085676
H	 2.729450245	-0.3997048441	 2.1535855725	 0.107938
H	 2.3315727364	 1.0863922068	 1.3078964927	 0.084794
H	 0.7221939164	-1.5106928681	 1.2646390884	 0.075874
H	 0.1980987784	 1.0956349869	 2.7308322501	 0.083468
H	-1.0080576149	-0.1875981135	 2.5009954918	 0.078497
H	 0.312843361	-0.3810930685	 4.4648513736	 0.284697
102.5533	128.4828	163.9642	213.5761	215.814	249.2834	293.6365	314.7578	343.2922	392.8519	433.7747	499.5006	527.4519	612.9317	764.3406	811.8805	831.8036	851.8972	893.6619	935.5893	976.0264	986.6632	994.6946	1020.2428	1057.7953	1068.1681	1090.8326	1104.4704	1106.0695	1166.1647	1177.2687	1219.7125	1237.4185	1269.5647	1280.0537	1286.8691	1328.1762	1341.4256	1348.8442	1365.3181	1369.5586	1380.1016	1391.8681	1407.3809	1416.9337	1455.8426	1481.865	1485.7375	1488.9896	1501.7021	1506.2361	1508.4477	1520.7412	2956.0843	2985.243	2993.7916	3002.6203	3007.3898	3014.456	3018.8685	3019.6225	3036.2062	3051.5129	3057.3973	3064.9631	3086.3418	3096.9956	3106.8269	3833.8774
CC1CCCCC1CO	C[C@H]1CCCC[C@H]1CO	
InChI=1S/C8H16O/c1-7-4-2-3-5-8(7)6-9/h7-9H,2-6H2,1H3	InChI=1S/C8H16O/c1-7-4-2-3-5-8(7)6-9/h7-9H,2-6H2,1H3/t7-,8-/m0/s1
