14
gdb 124053	4.41208	1.53451	1.31917	4.1983	67.16	-0.2609	-0.01	0.2509	918.4052	0.103749	-432.788561	-432.782459	-432.781514	-432.819332	23.399	
C	 0.1512902724	 1.5541667187	-0.0731205427	-0.089523
O	 1.5394110524	 1.4653238688	 0.3236027273	-0.269798
C	 1.473504995	 0.0329780989	 0.4681535168	-0.065095
C	-0.0390072493	 0.0270472334	 0.0394038976	-0.05452
N	 0.4225757681	-0.7235855841	-1.1446980223	 0.097476
N	 0.1593309785	-1.1667334949	-2.3809883542	-0.177229
N	 1.337306829	-1.5049279447	-2.8614375294	-0.177987
C	 2.3388163017	-1.2352706516	-1.9652424395	-0.199712
C	 1.7352587274	-0.727123453	-0.8359725605	 0.292376
H	-0.4295729018	 2.1193210333	 0.6633149609	 0.126856
H	 0.0157905729	 1.9816707589	-1.0707878294	 0.138012
H	 1.8835106227	-0.3278860716	 1.4100447502	 0.115923
H	-0.8801593327	-0.3957774678	 0.5823927008	 0.130066
H	 3.3682742039	-1.4393579544	-2.2047643454	 0.133155
111.6322	174.078	295.7955	440.6017	460.8623	682.9111	697.1346	740.9205	759.1146	815.3994	843.9255	890.5771	926.9474	983.9712	998.1933	1003.3556	1049.2551	1106.5921	1110.3084	1152.126	1172.4479	1174.245	1202.2144	1265.4583	1279.7574	1293.5205	1327.509	1352.607	1464.4314	1506.9508	1529.2017	3044.1054	3102.5068	3134.7887	3159.3235	3287.6313
C1OC2C1N1N=NC=C21	C1O[C@H]2[C@@H]1n1nncc21	
InChI=1S/C5H5N3O/c1-3-5-4(2-9-5)8(3)7-6-1/h1,4-5H,2H2	InChI=1S/C5H5N3O/c1-3-5-4(2-9-5)8(3)7-6-1/h1,4-5H,2H2/t4-,5-/m1/s1
