24
gdb 113384	2.57372	0.96756	0.80342	1.462	86.44	-0.2403	0.063	0.3033	1566.8409	0.216036	-405.5282	-405.517218	-405.516273	-405.564567	40.146	
C	 3.6701778506	 0.3276553623	-0.1334995494	-0.375286
C	 2.1707801844	 0.0193378707	-0.2275662284	-0.195837
C	 1.8715734801	-0.9543649254	-1.3467713517	-0.043265
N	 2.0746343296	-2.3851966336	-1.0702815507	-0.367652
C	 0.7185677103	-1.9055749628	-1.4039264313	 0.294185
C	-0.304378711	-2.0047375601	-0.2822410665	-0.237711
C	-0.8843063522	-3.4152169021	-0.1044451838	-0.403311
C	 0.21157357	-2.2835442491	-2.7963877546	-0.162446
O	 0.4324242494	-3.6526907716	-3.1229148217	-0.414905
H	 4.2378909307	-0.5902609246	 0.0475058084	 0.130152
H	 4.0430351844	 0.7758770433	-1.0614011398	 0.110062
H	 3.8816932353	 1.0259489717	 0.6819182083	 0.110082
H	 1.8275017352	-0.393598746	 0.7250302654	 0.104708
H	 1.6079542701	 0.9466542174	-0.3971001777	 0.093627
H	 2.2107860663	-0.5964232189	-2.3207965761	 0.073248
H	 2.4619229151	-2.8740003666	-1.8746720468	 0.233892
H	 0.1641597178	-1.7005811151	 0.6567159859	 0.108189
H	-1.118012617	-1.2929812805	-0.4756191878	 0.094218
H	-1.5462032826	-3.4608020821	 0.7656204048	 0.117374
H	-1.4826763523	-3.7272959962	-0.9693786621	 0.108821
H	-0.0813443431	-4.1440677409	 0.0476914083	 0.134301
H	-0.853008487	-2.0200107917	-2.8898810163	 0.091793
H	 0.7539357724	-1.7244516798	-3.5648446045	 0.108786
H	-0.0264789067	-4.1916953083	-2.4712204016	 0.286975
58.2652	76.6918	99.8139	150.0824	161.0785	211.1784	246.5316	254.7168	309.3407	332.2007	339.8046	386.7343	447.5459	493.701	630.6732	718.7443	771.0272	785.7383	848.8139	894.9442	918.7371	959.968	974.0137	1008.2892	1027.5695	1059.4978	1078.0243	1086.1075	1106.9613	1120.5179	1142.5927	1199.7023	1241.9966	1265.7114	1304.9183	1324.147	1329.0623	1349.0545	1375.8927	1389.9357	1402.999	1405.9346	1425.6777	1469.8074	1471.8677	1481.4661	1499.2072	1499.74	1507.3626	1508.0922	1514.1131	2988.0669	3022.4352	3023.7772	3027.1779	3032.395	3072.245	3078.2289	3080.8234	3088.3945	3102.2326	3106.915	3109.421	3113.3053	3491.1461	3825.6215
CCC1NC1(CC)CO	CC[C@H]1N[C@]1(CC)CO	
InChI=1S/C7H15NO/c1-3-6-7(4-2,5-9)8-6/h6,8-9H,3-5H2,1-2H3	InChI=1S/C7H15NO/c1-3-6-7(4-2,5-9)8-6/h6,8-9H,3-5H2,1-2H3/t6-,7-/m1/s1
