17
gdb 8373	4.86783	1.29231	1.18027	2.6756	69.43	-0.2407	-0.0245	0.2162	1044.018	0.140678	-363.846816	-363.83895	-363.838006	-363.879323	29.556	
C	 0.0627347396	 1.5279865215	-0.2477562036	-0.392791
C	 0.0459704479	 0.0342428181	-0.0387529038	-0.068031
N	 1.3600550851	-0.6478976385	-0.0134390531	-0.380266
C	 0.5450105986	-0.610367271	 1.1969501086	 0.339364
C	 1.0088745036	 0.045851838	 2.5103933377	-0.408113
C	 0.293938897	-1.0980996501	 3.253425921	 0.406019
O	 0.0769663838	-1.3330170352	 4.4052029753	-0.286444
C	-0.0708354639	-1.8147897787	 1.9350568935	-0.435027
H	 0.9083953397	 1.9803036688	 0.2769918934	 0.12933
H	 0.1593273682	 1.7702262596	-1.3113045798	 0.124642
H	-0.8621841972	 1.9855868691	 0.1201911658	 0.117089
H	-0.7649717328	-0.4903035093	-0.5443949066	 0.084529
H	 1.2963058597	-1.5622482121	-0.4553065684	 0.229768
H	 2.0943858025	 0.0438509532	 2.654303585	 0.140939
H	 0.6280216933	 1.0474422175	 2.7319650621	 0.132862
H	-1.137824876	-2.0079903825	 1.7878806952	 0.133169
H	 0.4759925108	-2.7569858784	 1.8092510878	 0.132961
47.1082	173.6161	192.5857	214.7139	331.1183	405.9502	425.9153	450.8672	499.2012	533.8039	666.4753	716.5518	773.4051	845.8131	919.2778	923.0668	981.7284	999.8606	1045.4191	1060.7288	1075.9047	1102.0384	1127.0166	1184.2146	1187.0981	1213.9681	1238.6028	1277.8316	1351.5935	1413.3474	1421.4511	1437.7421	1473.925	1490.2917	1505.5138	1900.0854	3034.7911	3039.3452	3053.7158	3095.8759	3097.8433	3100.9896	3105.4661	3124.5689	3490.1858
CC1NC11CC(=O)C1	C[C@H]1NC21CC(=O)C2	
InChI=1S/C6H9NO/c1-4-6(7-4)2-5(8)3-6/h4,7H,2-3H2,1H3	InChI=1S/C6H9NO/c1-4-6(7-4)2-5(8)3-6/h4,7H,2-3H2,1H3/t4-/m1/s1
