21
gdb 87875	3.16613	1.21565	1.19708	2.3227	82.3	-0.211	0.0668	0.2778	1178.0829	0.183499	-383.199467	-383.191082	-383.190138	-383.232677	32.502	
C	-0.0713742573	 1.5807540733	 0.2338985513	-0.392155
C	-0.0993488461	 0.0719372559	 0.2564553773	-0.076025
N	 1.1071498272	-0.6211842047	-0.2414120395	-0.387275
C	 0.7482484259	-0.7306680325	 1.1696351219	 0.33873
C	 1.6697347291	-0.3253228886	 2.3263062604	-0.252563
N	 1.2830278781	-1.5556862094	 3.0913140977	-0.124875
C	 0.0635125094	-1.3555005928	 3.9426887523	-0.162116
C	-0.8609506328	-1.9610545603	 2.8520904722	-0.247383
C	 0.3884780918	-2.0010949353	 1.9450022606	-0.071969
H	 0.9224368883	 1.9499729226	 0.5006112875	 0.128558
H	-0.3139619177	 1.9604351221	-0.7642923748	 0.121885
H	-0.7983063545	 1.9972380695	 0.9399982262	 0.113626
H	-1.060870445	-0.372498472	-0.0032527412	 0.080874
H	 0.8549148219	-1.4727542616	-0.7386653341	 0.227518
H	 2.7316454836	-0.3261859615	 2.0613607079	 0.114021
H	 1.4344873552	 0.6143484876	 2.8402748073	 0.099127
H	 0.1157896084	-1.9197950076	 4.8782661007	 0.107006
H	-0.1313689699	-0.3046355277	 4.1872216984	 0.098043
H	-1.249154347	-2.9504375513	 3.1035467865	 0.107559
H	-1.6884818728	-1.3383906873	 2.5040915563	 0.103653
H	 0.6291911442	-2.9498010284	 1.451886345	 0.073761
60.2433	136.8326	173.4932	183.2959	242.5743	382.0565	409.7765	449.6946	467.2418	545.0418	718.6234	757.3881	778.8984	793.0273	860.0576	896.8977	916.7112	933.8313	971.2881	977.4055	993.9969	1029.1228	1045.964	1071.91	1076.2141	1109.2736	1127.8176	1163.9835	1193.6625	1199.068	1223.1485	1233.009	1259.4821	1270.1948	1280.8307	1307.1134	1325.8038	1359.8409	1410.3701	1470.4726	1481.8344	1488.7264	1489.8006	1502.9717	1512.7171	3023.7735	3028.8433	3033.1876	3037.5437	3066.2418	3077.352	3080.5225	3094.7247	3095.6927	3119.4645	3122.0724	3485.7748
CC1NC11CN2CCC12	C[C@H]1N[C@]21CN1CC[C@@H]21	
InChI=1S/C7H12N2/c1-5-7(8-5)4-9-3-2-6(7)9/h5-6,8H,2-4H2,1H3	InChI=1S/C7H12N2/c1-5-7(8-5)4-9-3-2-6(7)9/h5-6,8H,2-4H2,1H3/t5-,6+,7+/m1/s1
