18
gdb 69921	3.0877	1.78069	1.6587	1.7355	73.97	-0.2319	0.0154	0.2472	903.8201	0.149312	-401.901157	-401.894259	-401.893315	-401.931933	28.886	
C	 0.0064438444	 1.5025619531	 0.0157579081	-0.502284
C	 0.017107455	-0.0008797322	 0.0335101844	 0.351975
N	-0.85947296	-0.7791022273	 0.9369916049	-0.36515
C	 0.6157715845	-0.8482235645	 1.0800827794	-0.108699
C	 1.342347627	-1.9628015658	 0.2505312611	-0.001498
O	 1.7815379958	-1.1770785589	-0.8789149103	-0.248027
C	 0.4560663315	-0.7691586533	-1.2736279124	-0.057495
C	-0.2647221377	-2.1100503112	-1.3467280814	-0.056058
C	 0.2930191052	-2.8591041129	-0.397902469	-0.058586
H	 0.9291748385	 1.8884959074	-0.4303476453	 0.136453
H	-0.836541157	 1.8897335755	-0.5687063319	 0.124003
H	-0.0730814545	 1.910926772	 1.0290118888	 0.114093
H	-1.2229286805	-0.1507001754	 1.6545879743	 0.221535
H	 1.0955380511	-0.4440746798	 1.964139161	 0.092838
H	 2.1904260845	-2.4321650894	 0.7463960586	 0.073659
H	 0.4946399568	-0.1536397425	-2.171782527	 0.070495
H	-1.1197701773	-2.3306323087	-1.9694605223	 0.10608
H	 0.0030768126	-3.8403286761	-0.050504181	 0.106668
177.0438	215.1553	275.9419	331.9219	369.6696	521.9384	533.2441	599.1179	629.9739	722.7592	741.7577	782.1236	831.9655	869.4239	874.5931	890.0567	908.2674	915.4824	928.8937	960.8536	978.999	994.6952	1026.7136	1064.3816	1108.2431	1123.2606	1142.3641	1210.3982	1243.3965	1257.6301	1291.7548	1312.8593	1326.0125	1334.4071	1411.0689	1433.2084	1486.7283	1497.5664	1645.0538	3023.1113	3085.9234	3098.6288	3126.5172	3135.1212	3176.5279	3224.9925	3250.2291	3450.31
CC12NC1C1OC2C=C1	C[C@]12N[C@H]1[C@@H]1O[C@H]2C=C1	
InChI=1S/C7H9NO/c1-7-5-3-2-4(9-5)6(7)8-7/h2-6,8H,1H3	InChI=1S/C7H9NO/c1-7-5-3-2-4(9-5)6(7)8-7/h2-6,8H,1H3/t4-,5+,6+,7-/m1/s1
