16
gdb 41075	4.20166	1.84989	1.67413	1.8369	70.51	-0.235	0.0532	0.2882	817.479	0.12647	-400.596338	-400.590716	-400.589772	-400.625971	24.288	
C	 0.1375737907	 1.4693075621	 0.2376043904	-0.209823
O	 1.48904398	 1.3496254937	-0.306421079	-0.305132
C	 1.1094388576	 0.1486067107	-1.0538377369	 0.114652
C	 1.5070982211	-1.2417429481	-0.5712472897	-0.053849
C	 0.8095638421	-1.0176575912	 0.7897355994	-0.105945
C	-0.1999121764	-2.1383311061	 0.4618852583	-0.048907
C	-0.8865488857	-1.2216888116	-0.4746882903	-0.202235
N	 0.2732894935	-2.1132037216	-0.9572837507	-0.169424
C	-0.0649299675	-0.0040704879	-0.0771803712	 0.308422
H	 0.1389041613	 1.7798364724	 1.2869682291	 0.114539
H	-0.4672419838	 2.1639450664	-0.3610796998	 0.109058
H	 1.0022875553	 0.3505808637	-2.1234765307	 0.08541
H	 2.4400112844	-1.7690959203	-0.7674297692	 0.080147
H	 1.2593749482	-0.7443333211	 1.7394624603	 0.081738
H	-0.5197773744	-3.043114084	 0.9655973419	 0.099214
H	-1.8173675464	-1.3190569373	-1.0182361019	 0.102134
255.3008	303.9945	380.9284	538.5259	559.0929	692.7308	704.1357	772.0677	781.2598	821.9245	859.5281	868.5334	894.2674	908.0018	927.8468	939.0113	965.1442	995.0258	1015.1972	1034.2696	1063.3757	1089.0779	1115.1383	1135.435	1162.2752	1184.6691	1186.1713	1223.0201	1238.7352	1269.5857	1289.4122	1305.4109	1337.6385	1359.7984	1515.1596	3009.0863	3070.7623	3082.3841	3121.2015	3159.6913	3177.7565	3201.1804
C1OC2C3C4C5C(N35)C124	C1O[C@H]2[C@H]3[C@@H]4[C@H]5[C@H](N35)[C@]124	
InChI=1S/C7H7NO/c1-7-2-3-5(7)8(3)4(2)6(7)9-1/h2-6H,1H2	InChI=1S/C7H7NO/c1-7-2-3-5(7)8(3)4(2)6(7)9-1/h2-6H,1H2/t2-,3-,4+,5-,6-,7+,8?/m0/s1
