16
gdb 96735	2.86561	1.03557	0.79987	3.0812	69.96	-0.2563	-0.0258	0.2304	1379.6406	0.12126	-475.011222	-475.00173	-475.000786	-475.047143	31.82	
C	-0.5650017193	 1.2653278597	-0.720569117	-0.348768
N	-0.3228759593	-0.1515903423	-0.5109557381	-0.294467
C	 0.7126008825	-0.7575668233	-0.8760580143	 0.377637
O	 0.8681697674	-2.110912652	-0.5906706199	-0.224075
C	 0.1780535907	-2.6597447475	 0.4594314168	 0.176458
O	 0.1991581205	-3.8342268035	 0.6565814259	-0.258752
C	 1.9366161718	-0.365530011	-1.6515993849	 0.000984
C	 1.882618575	-0.1837565157	-3.1144518197	-0.165136
O	 2.0298017819	 0.9262754419	-2.2307819202	-0.21648
H	 0.2265895712	 1.7968192535	-1.2498210123	 0.155578
H	-1.5058741188	 1.3729515308	-1.2715801409	 0.135111
H	-0.7250065215	 1.731231001	 0.2580452131	 0.135532
H	-0.3467523337	-1.9034589212	 1.0564766079	 0.126236
H	 2.8606988734	-0.7516336333	-1.2228801355	 0.128479
H	 2.7585364696	-0.4276981137	-3.711454852	 0.136021
H	 0.9230348485	-0.2515360033	-3.6225276689	 0.135643
38.0301	79.6523	102.8805	109.2899	173.4294	240.3951	253.4877	297.8316	353.89	404.972	509.7491	679.4334	736.4332	803.3601	900.5035	919.7358	1001.028	1042.9867	1083.7173	1086.8701	1113.4401	1139.473	1149.4282	1159.9145	1170.2787	1198.2634	1287.2691	1392.7186	1419.1391	1445.8833	1494.7969	1503.5006	1523.8585	1789.0476	1868.9754	3034.5965	3074.5302	3083.7678	3099.0127	3122.8696	3143.4228	3195.0667
CN=C(OC=O)C1CO1	CN=C(OC=O)[C@H]1CO1	
InChI=1S/C5H7NO3/c1-6-5(9-3-7)4-2-8-4/h3-4H,2H2,1H3	InChI=1S/C5H7NO3/c1-6-5(9-3-7)4-2-8-4/h3-4H,2H2,1H3/t4-/m1/s1
