23
gdb 83946	2.10193	1.61436	1.37145	1.3448	84.03	-0.2483	0.0781	0.3265	1117.3103	0.208357	-388.290729	-388.282197	-388.281253	-388.32316	34.535	
C	-0.1462989893	 1.579306206	-0.0053517837	-0.439134
C	 0.0706750045	 0.0738631864	 0.0034441798	 0.065666
C	 1.0847123677	-0.6208813835	-0.959510608	-0.078423
C	 2.4020218939	 0.1654268303	-1.0404013854	-0.217767
C	 3.0912622566	 0.2643341075	 0.3481477858	-0.199533
C	 2.1085688382	 0.1364274704	 1.5438352442	-0.221458
C	 0.8460998688	-0.6455939389	 1.1534343586	-0.039132
C	 1.1962989006	-1.7443489701	 0.1167973521	 0.144399
O	 0.1497111765	-2.698311258	 0.0688491601	-0.454169
H	 0.7795506917	 2.1515153541	 0.1040430736	 0.113827
H	-0.6175634649	 1.8969307912	-0.9428101106	 0.111137
H	-0.8132012831	 1.8780414742	 0.8116931356	 0.113154
H	-0.8937153249	-0.4270301852	-0.1087268912	 0.082983
H	 0.7250654196	-0.9134344244	-1.9522458918	 0.044912
H	 3.0848574374	-0.3205017315	-1.7471452607	 0.089759
H	 2.2013318482	 1.1613710304	-1.4511359889	 0.100112
H	 3.8241392934	-0.5451187317	 0.4226139908	 0.104863
H	 3.6686378003	 1.1910243769	 0.4233161417	 0.093052
H	 2.6164698936	-0.3661398372	 2.3749001169	 0.093545
H	 1.8165322743	 1.1232765233	 1.9198831726	 0.099809
H	 0.2737435109	-0.9690794444	 2.0266635235	 0.062957
H	 2.1689783425	-2.2459276887	 0.2197673932	 0.051769
H	 0.2407816036	-3.1941287069	-0.7512591683	 0.277672
138.2122	189.7996	210.6072	274.5167	275.6688	281.1859	320.5292	345.788	439.8984	522.1328	537.1425	618.6701	716.0499	782.7176	809.57	855.3076	864.8436	891.6673	944.2921	950.9005	979.844	1013.6897	1049.325	1059.7999	1092.8232	1100.4715	1132.2784	1134.6372	1150.3906	1167.7114	1207.4811	1238.2458	1248.9275	1274.1587	1291.2332	1312.4607	1326.9097	1335.8637	1357.4866	1371.1448	1374.6326	1396.1614	1412.9673	1429.0319	1487.483	1489.6716	1497.3448	1513.69	1518.1301	2992.1023	3025.0312	3026.8782	3031.3426	3041.5994	3047.1476	3057.5638	3063.3776	3071.7159	3080.2986	3083.9891	3087.6404	3105.7289	3810.3897
CC1C2CCCC1C2O	C[C@H]1[C@H]2CCC[C@@H]1[C@H]2O	
InChI=1S/C8H14O/c1-5-6-3-2-4-7(5)8(6)9/h5-9H,2-4H2,1H3	InChI=1S/C8H14O/c1-5-6-3-2-4-7(5)8(6)9/h5-9H,2-4H2,1H3/t5-,6+,7-,8-
