20
gdb 101561	3.27831	0.82616	0.72723	2.846	73.14	-0.2596	0.031	0.2907	1588.1338	0.168388	-477.42186	-477.411029	-477.410084	-477.458808	37.753	
C	-0.0105594398	 1.5613392888	 0.0980422378	-0.399336
C	-0.0372998302	 0.0379722519	 0.0931137558	 0.121255
C	-1.4376639594	-0.5485021796	-0.0697886459	-0.069958
O	-2.0552105658	-0.1488555587	-1.27949288	-0.420414
O	 0.7001541753	-0.470947839	-1.0504470981	-0.287644
C	 2.0391883162	-0.5861883075	-0.943553704	 0.4005
N	 2.6857468135	-0.2819605444	 0.0986137226	-0.523741
C	 2.6007931266	-1.1282208987	-2.2428583631	-0.165322
O	 3.9995234121	-1.2473507694	-2.1037410199	-0.412653
H	 1.018407778	 1.9222753197	 0.1404533604	 0.140195
H	-0.5057427918	 1.9523906017	-0.7940221061	 0.126873
H	-0.5428161398	 1.9367168278	 0.9780515439	 0.11667
H	 0.4317090283	-0.354514725	 0.9999861872	 0.111351
H	-1.3773275719	-1.6452495575	 0.005025244	 0.090688
H	-2.0768378768	-0.191396626	 0.7442509028	 0.110936
H	-1.4478582342	-0.3974421443	-1.9853118965	 0.288143
H	 3.6757567827	-0.4654387675	-0.0599779043	 0.243376
H	 2.1169356344	-2.0943917019	-2.4527027374	 0.115022
H	 2.3176630395	-0.4407079127	-3.0545804447	 0.115645
H	 4.3612765032	-1.5866568279	-2.9266952146	 0.298412
51.2644	68.7407	90.0097	94.5755	172.3066	180.256	222.3913	259.1396	292.7546	339.4973	400.802	418.558	474.7729	561.7995	616.0144	694.8553	826.86	882.6975	894.5784	928.1801	939.7163	1008.1799	1052.4171	1074.2396	1116.9952	1119.7222	1143.7069	1154.305	1216.2818	1240.2036	1242.1558	1329.7283	1360.3785	1384.9225	1390.4464	1415.8139	1430.3551	1463.83	1490.3314	1493.1145	1502.213	1504.2623	1745.4316	2983.6401	2987.3755	3012.7235	3049.8309	3078.5977	3081.9922	3121.1618	3147.0872	3506.4405	3806.6905	3849.5299
CC(CO)OC(=N)CO	C[C@@H](CO)O[C]([NH])CO	
InChI=1S/C5H11NO3/c1-4(2-7)9-5(6)3-8/h4,6-8H,2-3H2,1H3	InChI=1S/C5H11NO3/c1-4(2-7)9-5(6)3-8/h4,6-8H,2-3H2,1H3/t4-/m0/s1
