18
gdb 106889	2.77372	1.29201	1.06325	3.0289	71.97	-0.2501	-0.0158	0.2343	1172.496	0.146754	-439.065987	-439.057199	-439.056254	-439.099469	32.703	
C	-0.0473714464	 1.6460038749	-0.1294133543	-0.416723
C	 0.0631972949	 0.1424086956	 0.0904413406	-0.206094
C	 1.1321812677	-0.6763110138	-0.6600295736	 0.407468
O	 1.4276350339	-0.8445682497	-1.8006535477	-0.298181
N	 1.6611132039	-1.3299492428	 0.529154393	-0.238454
C	 2.1474652867	-0.2022499766	 1.3987907695	-0.280356
C	 0.702264075	-0.4492237357	 1.357035785	 0.287667
C	-0.0449844643	-1.1160912368	 2.4853677541	-0.160306
O	 0.7721211542	-2.0347032252	 3.1789108507	-0.410878
H	 0.8939908842	 2.1600748854	 0.0836511092	 0.125489
H	-0.3109356927	 1.8510845758	-1.1711314049	 0.143407
H	-0.823117362	 2.08088638	 0.5082972586	 0.127375
H	-0.9066863302	-0.336758137	-0.0950979689	 0.115801
H	 2.6907866814	-0.5706980681	 2.261312258	 0.151167
H	 2.5835907514	 0.6662910073	 0.9138156824	 0.134038
H	-0.3765051937	-0.3716548576	 3.218566656	 0.121838
H	-0.9484540565	-1.6004169907	 2.078948332	 0.095847
H	 1.1407349123	-2.628708195	 2.5116705304	 0.300895
90.301	123.2973	172.0894	193.9078	212.2054	260.4453	344.3264	365.9358	470.1092	510.5899	580.6634	635.8478	656.5016	703.5632	752.3761	802.2542	898.2343	948.8109	999.967	1021.5626	1060.9436	1073.0083	1097.3383	1120.5595	1133.4692	1160.8961	1204.2392	1223.0439	1253.761	1335.7063	1384.4711	1398.7433	1412.9806	1437.972	1492.4744	1496.698	1502.8639	1506.501	1916.4247	2967.7099	3037.0017	3042.8858	3060.4003	3112.5535	3118.4049	3129.4046	3226.3662	3767.8335
CC1C(=O)N2CC12CO	C[C@H]1C(=O)N2C[C@@]12CO	
InChI=1S/C6H9NO2/c1-4-5(9)7-2-6(4,7)3-8/h4,8H,2-3H2,1H3	InChI=1S/C6H9NO2/c1-4-5(9)7-2-6(4,7)3-8/h4,8H,2-3H2,1H3/t4-,6+,7?/m0/s1
