15
gdb 46805	2.71668	1.6601	1.18153	3.7673	73.99	-0.2352	-0.0001	0.2352	1024.8833	0.112408	-416.760377	-416.752472	-416.751528	-416.792641	30.172	
N	-0.07008201	 1.2621598216	 0.3325491961	-0.540386
C	 0.0123540568	 0.0355541528	 0.0079684651	 0.304178
N	 1.1116517239	-0.7492573332	-0.2847500266	-0.349817
C	 0.8186881962	-2.1280225738	-0.651205821	-0.193558
C	-0.689735267	-2.2038473294	-0.5034234692	-0.04793
O	-1.132645978	-1.9539269571	 0.8211010022	-0.286956
C	-1.195409016	-0.8619932864	-0.1375768903	 0.23348
C	-2.4850406508	-0.342698216	-0.4693932962	 0.234586
C	-3.5680674484	 0.0889325621	-0.75650027	-0.363993
H	 0.8509200797	 1.7034332826	 0.3684195646	 0.204613
H	 2.0288055249	-0.4761683604	 0.0268329826	 0.24657
H	 1.1174579351	-2.3504297356	-1.6842994456	 0.117407
H	 1.3140484886	-2.847111883	 0.0131225476	 0.126085
H	-1.272038959	-2.9100423185	-1.0869531869	 0.119672
H	-4.524146076	 0.4820334243	-1.0003302625	 0.19605
114.0616	139.3446	171.9033	262.6017	333.6826	374.6007	404.3055	495.7398	545.6981	579.9987	629.6499	661.8056	677.5791	702.5301	771.041	843.1429	852.633	915.7146	961.0267	1013.4428	1034.3493	1097.2247	1145.0223	1178.5547	1225.2346	1276.2476	1324.002	1372.6051	1434.931	1446.6774	1512.6495	1751.2289	2253.5876	3011.4394	3049.0806	3171.9797	3453.1128	3502.4991	3650.3305
N=C1NCC2OC12C#C	[NH][C]1NC[C@H]2O[C@@]12C#C	
InChI=1S/C6H6N2O/c1-2-6-4(9-6)3-8-5(6)7/h1,4H,3H2,(H2,7,8)	InChI=1S/C6H6N2O/c1-2-6-4(9-6)3-8-5(6)7/h1,4H,3H2,(H2,7,8)/t4-,6-/m1/s1
