19
gdb 74046	2.70584	1.57374	1.06747	2.2876	78.59	-0.2331	0.009	0.2422	1136.7316	0.160238	-423.026688	-423.018536	-423.017592	-423.059553	30.477	
C	-0.0531788113	 1.4549230692	-0.0877702484	-0.497043
C	-0.0536204706	-0.0315588059	 0.0604635234	 0.121582
C	-1.0706327712	-0.8825728093	 0.1509852436	 0.178006
C	-2.5352453011	-0.9287463106	-0.1354716626	-0.166369
O	-2.7506465799	-2.2579551527	-0.6527303512	-0.275701
C	-1.4934391473	-2.9050165232	-0.8914421229	-0.096407
C	-0.5659183165	-2.2973305038	 0.1714179759	 0.050968
O	 0.8182946129	-2.2119864539	-0.112864957	-0.278737
C	 1.2258059427	-0.8506570337	 0.0598056702	-0.152166
H	 0.5305049951	 1.7644328815	-0.9634872691	 0.131385
H	-1.0674179746	 1.8488646293	-0.1926188596	 0.129752
H	 0.4047719454	 1.9422991843	 0.7823737902	 0.135487
H	-3.169835727	-0.8091723585	 0.7522367608	 0.114414
H	-2.8420767722	-0.173832631	-0.8729589282	 0.108996
H	-1.6634740847	-3.980602902	-0.8017908736	 0.109124
H	-1.0974710117	-2.6805668839	-1.8933609475	 0.095534
H	-0.7285153854	-2.8025551246	 1.1382919256	 0.080944
H	 1.8892750114	-0.5672607705	-0.7696605612	 0.109573
H	 1.8059770261	-0.7385392508	 0.9919391214	 0.100659
101.5296	153.1272	167.0788	183.0339	215.7153	286.2555	400.7835	451.2767	572.7606	603.6935	646.1723	687.3717	830.8064	905.1401	921.1088	958.7428	968.2283	1003.6516	1018.213	1057.609	1087.2086	1095.3429	1109.4351	1132.3839	1173.9568	1197.5749	1210.1257	1211.2582	1261.0031	1300.2933	1322.4766	1366.6652	1373.0036	1394.9589	1415.7751	1479.2421	1488.4604	1507.3077	1517.1426	1517.8146	1785.183	2954.1516	2959.2676	2994.4093	3002.3589	3014.6227	3020.8175	3030.7212	3067.2873	3100.3673	3113.4432
CC1=C2COCC2OC1	C[C]1[C]2COC[C@H]2OC1	
InChI=1S/C7H10O2/c1-5-2-9-7-4-8-3-6(5)7/h7H,2-4H2,1H3	InChI=1S/C7H10O2/c1-5-2-9-7-4-8-3-6(5)7/h7H,2-4H2,1H3/t7-/m1/s1
