22
gdb 102581	2.09906	1.34622	1.12949	2.9331	79.11	-0.2346	0.0622	0.2967	1245.0356	0.193558	-441.440953	-441.430917	-441.429973	-441.476121	36.904	
C	-0.7874919815	 1.7912082667	-0.2542577704	-0.236262
O	-0.7881479907	 0.599766114	 0.4965655106	-0.237418
C	-1.5472129261	-0.4614258502	-0.0624103267	 0.103122
C	-0.9627328346	-1.0388878568	-1.3659967125	-0.089222
O	 0.3117134119	-1.6208217566	-1.2256699372	-0.416287
C	-1.7396824288	-1.5155989887	 1.0318185577	-0.060152
N	-1.0378277379	-2.8157587125	 0.9073103757	-0.357292
C	-0.7093488095	-1.9208103066	 2.0318175147	 0.030067
C	 0.6981145887	-1.3801974856	 2.1061611663	-0.399009
H	-0.3145534224	 2.5571733842	 0.365697755	 0.126273
H	-0.2194486245	 1.7048722805	-1.1905735929	 0.118275
H	-1.8116754786	 2.1172940734	-0.4985610366	 0.098295
H	-2.548958964	-0.0725553112	-0.3240372192	 0.05686
H	-1.7027716405	-1.7556039912	-1.7604972907	 0.08061
H	-0.8713608119	-0.2413137219	-2.1113096602	 0.100624
H	 0.1738635691	-2.3647764725	-0.6151444274	 0.294522
H	-2.7637724273	-1.572975904	 1.3937661979	 0.088091
H	-1.6361583353	-3.5844691163	 1.1921421681	 0.235143
H	-1.1238067313	-2.2128193894	 2.9966116919	 0.08413
H	 1.0625367421	-1.1029794031	 1.1172194266	 0.153886
H	 0.7293431582	-0.4922585189	 2.7437665992	 0.120589
H	 1.364150675	-2.1370423432	 2.5358805202	 0.105154
52.7404	89.7691	137.5405	170.3788	215.4224	250.3651	252.5737	283.4688	307.7779	376.9155	392.4199	480.5347	581.2789	700.9792	744.3325	778.7227	799.0341	856.0387	894.1379	948.7332	970.8446	1021.4653	1042.2812	1063.8212	1088.5398	1125.2567	1146.734	1167.5035	1179.8163	1185.9061	1221.612	1244.1563	1260.2247	1291.8975	1347.9093	1377.9191	1397.8722	1412.6064	1431.5533	1455.6424	1473.8171	1475.8353	1484.3667	1497.6762	1501.6294	1503.35	1513.1488	2922.8578	2965.8247	2973.0215	3033.1938	3038.573	3068.9427	3101.9129	3106.1204	3109.7232	3126.5852	3159.7248	3518.9015	3639.9924
COC(CO)C1NC1C	CO[C@@H](CO)[C@H]1N[C@H]1C	
InChI=1S/C6H13NO2/c1-4-6(7-4)5(3-8)9-2/h4-8H,3H2,1-2H3	InChI=1S/C6H13NO2/c1-4-6(7-4)5(3-8)9-2/h4-8H,3H2,1-2H3/t4-,5-,6-/m0/s1
