20
gdb 93706	2.61391	1.21922	1.11538	3.8139	79.11	-0.2579	0.0344	0.2923	1223.0821	0.170468	-403.180379	-403.17095	-403.170006	-403.215211	34.587	
C	 0.0780058094	 1.6197535449	 0.1274693255	-0.403123
C	 0.0900197682	 0.1047612973	 0.012862224	 0.14375
C	 0.8089397533	-0.4570134295	-1.2166692403	-0.258951
C	 1.2394995482	-1.8678516599	-0.7447221459	 0.075605
C	 2.4356528962	-2.4552322837	-1.5114734481	-0.446367
C	 1.5585125461	-1.5749307326	 0.7498585789	-0.08223
O	 0.7930478008	-0.4476548881	 1.1364312586	-0.275993
C	 0.097886934	-2.7892150389	-0.8437694073	 0.273581
N	-0.7962191619	-3.5168680474	-0.9325267836	-0.348662
H	 1.0973709647	 2.017502742	 0.1004371775	 0.118641
H	-0.4947358258	 2.062077749	-0.6938720677	 0.118497
H	-0.3845685045	 1.9247016707	 1.0698961284	 0.133109
H	-0.9450219555	-0.2705749478	 0.0293571354	 0.093067
H	 0.1833477156	-0.4768684617	-2.1111564145	 0.124174
H	 1.7091580752	 0.1295848294	-1.4320498741	 0.106576
H	 3.2826656566	-1.7652140172	-1.4576287012	 0.126886
H	 2.7425761149	-3.4152078386	-1.0866703172	 0.139876
H	 2.185147075	-2.6173123364	-2.5629922939	 0.140336
H	 1.324327199	-2.4278000122	 1.3961212033	 0.122821
H	 2.6303785806	-1.3515731793	 0.8507126925	 0.098407
32.4244	91.214	185.8124	192.4543	224.3365	233.5757	278.7494	346.6588	370.571	440.6469	485.4289	564.4106	615.0629	654.423	761.5424	835.4344	891.252	905.5231	918.4643	956.0618	1015.4524	1038.922	1080.9511	1099.9629	1153.7838	1163.2692	1177.3758	1202.987	1223.4346	1291.4673	1307.615	1360.9334	1392.9844	1396.862	1412.4059	1417.8106	1483.2673	1485.442	1489.1067	1497.5438	1499.6029	1527.4052	2350.4625	2981.8722	2997.9563	3039.2891	3043.7217	3048.8633	3063.4824	3112.1973	3118.8646	3120.666	3122.1903	3124.7186
CC1CC(C)(CO1)C#N	C[C@H]1C[C@@](C)(CO1)C#N	
InChI=1S/C7H11NO/c1-6-3-7(2,4-8)5-9-6/h6H,3,5H2,1-2H3	InChI=1S/C7H11NO/c1-6-3-7(2,4-8)5-9-6/h6H,3,5H2,1-2H3/t6-,7+/m0/s1
