18
gdb 74076	2.71337	1.57108	1.14659	3.3257	79.95	-0.2353	-0.0443	0.191	1104.7272	0.146955	-401.971824	-401.963281	-401.962336	-402.004713	32.145	
C	 0.0401670318	 1.4890475681	 0.0984859738	-0.484123
C	-0.0343108749	 0.0106386825	-0.0610373338	 0.32669
C	-0.0481904876	-0.7333312032	-1.185141989	-0.318246
C	-0.0235576275	-2.1590844052	-0.8200900597	 0.358966
O	-0.0746678001	-3.1389009986	-1.5316142756	-0.354209
C	 0.005530103	-2.1722916349	 0.704262582	 0.191253
C	-0.7911826318	-3.2368004568	 1.411412536	-0.475638
C	 1.1801491843	-1.5058479917	 1.3525597395	-0.278758
N	-0.0883626822	-0.7697258692	 1.1396646446	-0.172146
H	 0.9023351708	 1.762960644	 0.7181771869	 0.142162
H	 0.1224321988	 1.9933657515	-0.8660394372	 0.136078
H	-0.8495226761	 1.8578972704	 0.620505684	 0.152471
H	-0.0413099642	-0.3683336154	-2.2025282473	 0.116528
H	-0.4411980922	-4.221719051	 1.0894566928	 0.145545
H	-0.6897365851	-3.1571831537	 2.4963683895	 0.121677
H	-1.8522109462	-3.1591564758	 1.1558472358	 0.133557
H	 1.4095093966	-1.7536981711	 2.3855072012	 0.128772
H	 2.0276454224	-1.2166331201	 0.7370242765	 0.129419
137.1075	142.1976	158.2952	173.5478	247.0728	280.7758	308.8366	397.0496	491.523	567.2071	591.6967	632.8087	708.51	768.531	816.699	825.4082	859.4967	917.5007	966.1237	1016.6109	1034.727	1063.0356	1089.3992	1098.6079	1128.3843	1134.609	1174.1336	1293.9035	1333.7616	1348.8461	1410.0977	1411.9886	1470.6629	1475.8786	1480.6884	1493.8625	1497.4422	1657.0418	1801.9223	3034.6644	3046.3067	3088.5061	3108.1542	3115.9839	3129.2892	3137.1806	3204.0142	3235.6819
CC1=CC(=O)C2(C)CN12	CC1=CC(=O)[C@@]2(C)CN12	
InChI=1S/C7H9NO/c1-5-3-6(9)7(2)4-8(5)7/h3H,4H2,1-2H3	InChI=1S/C7H9NO/c1-5-3-6(9)7(2)4-8(5)7/h3H,4H2,1-2H3/t7-,8?/m1/s1
