16
gdb 46653	2.37462	1.61385	1.41239	3.8485	74.37	-0.2419	0.0189	0.2608	992.1684	0.125311	-400.746046	-400.738275	-400.737331	-400.778355	29.914	
O	 0.0117876603	-0.0335431272	-0.0830825773	-0.380184
C	 0.0118130565	 1.1757071347	-0.0323193274	 0.412244
N	-1.0932888564	 1.9863710185	 0.0312551745	-0.302314
C	-0.8392604263	 3.4159286632	 0.0193250817	-0.19116
C	 0.6851191818	 3.5028561435	 0.0015707086	-0.076152
C	 1.4176956019	 2.9482629476	 1.2090497906	-0.215046
C	 0.7510942585	 2.6884741536	 2.4512774024	 0.355093
C	 0.1966269914	 2.5008711025	 3.5019484269	-0.464185
C	 1.2121085038	 2.093763835	-0.0442113583	-0.180799
H	-2.0056116663	 1.587833904	 0.1818057166	 0.254059
H	-1.2611765495	 3.8915573544	-0.8751225147	 0.113688
H	-1.2644500012	 3.9085016248	 0.9028572657	 0.125101
H	 1.1480862648	 4.31245707	-0.5480744706	 0.106519
H	 2.4360005865	 3.3121945408	 1.3157539159	 0.124539
H	-0.2836183851	 2.3129025695	 4.4301830965	 0.200981
H	 2.0836529594	 1.7800600451	-0.602742571	 0.117615
92.7868	131.9643	168.5857	261.1453	335.0942	454.9778	460.1735	526.0093	569.953	602.7781	652.7792	662.0519	722.3725	768.0663	785.192	809.1058	870.579	946.3027	992.4854	1000.4249	1024.8253	1070.6043	1097.9674	1109.6876	1184.2851	1226.7922	1252.2941	1316.2301	1332.4395	1359.7388	1403.5257	1453.7199	1521.7702	1833.2807	2237.2615	3013.961	3046.1432	3144.7882	3193.15	3212.3776	3502.9906	3654.3961
O=C1NCC2C(C#C)C12	O=C1NC[C@H]2[C@@H](C#C)[C@@H]12	
InChI=1S/C7H7NO/c1-2-4-5-3-8-7(9)6(4)5/h1,4-6H,3H2,(H,8,9)	InChI=1S/C7H7NO/c1-2-4-5-3-8-7(9)6(4)5/h1,4-6H,3H2,(H,8,9)/t4-,5+,6-/m1/s1
