20
gdb 17061	3.82014	1.51024	1.29592	1.1196	76.09	-0.2456	0.0988	0.3444	1038.3113	0.177203	-348.943281	-348.935256	-348.934312	-348.975596	30.522	
C	 0.2431950522	 1.0810936489	 0.705071527	-0.243506
O	 0.0108682283	-0.2615907241	 1.0661271259	-0.256477
C	-1.2457706793	-0.7314598892	 0.6615470318	 0.193039
C	-1.4387796275	-1.2836701791	-0.7923769757	-0.111398
C	-0.5054976966	-2.4585974843	-0.3702495611	-0.227088
C	-1.4766690357	-2.2505434318	 0.8335850114	-0.107181
C	-2.6227114025	-2.1344411131	-0.2264701102	 0.059259
C	-3.9884344254	-1.539720658	 0.0935877508	-0.444799
H	 1.2154275197	 1.3653886211	 1.1147856318	 0.126018
H	 0.2643853906	 1.2178504265	-0.3864743319	 0.107189
H	-0.5257798764	 1.7519791454	 1.1199574768	 0.103285
H	-2.0264147456	-0.0582515035	 1.0346003166	 0.055666
H	-1.4223133594	-0.7260628059	-1.7307576397	 0.063084
H	-0.6222294292	-3.3910918616	-0.9290916349	 0.083901
H	 0.539856488	-2.2116572184	-0.1946677491	 0.10946
H	-1.4967536286	-2.8045005613	 1.7736617329	 0.067698
H	-2.7560625809	-3.0682815572	-0.7831396404	 0.066969
H	-3.9469437169	-0.6004588186	 0.6497962301	 0.119774
H	-4.5436701382	-1.34885067	-0.8316746059	 0.117027
H	-4.5797102966	-2.2464152158	 0.6865715937	 0.118083
88.1353	164.6128	180.5548	187.2799	275.1087	318.4765	372.6305	444.6701	549.7334	594.4931	755.2887	782.5307	825.0857	874.9878	901.4911	926.4135	1010.2797	1021.3216	1024.2239	1034.995	1078.9115	1096.8702	1111.0252	1135.4578	1151.3935	1170.1635	1184.0645	1201.2963	1213.8826	1231.9309	1250.7088	1260.3331	1273.7851	1402.2023	1423.4147	1428.2715	1481.5979	1488.2762	1497.2797	1502.3712	1508.5696	1516.5959	2973.8725	3022.1864	3029.5374	3036.6993	3043.7412	3064.1615	3088.5938	3092.2763	3101.526	3114.1281	3118.8347	3156.7749
COC1C2CC1C2C	CO[C@H]1[C@H]2C[C@@H]1[C@H]2C	
InChI=1S/C7H12O/c1-4-5-3-6(4)7(5)8-2/h4-7H,3H2,1-2H3	InChI=1S/C7H12O/c1-4-5-3-6(4)7(5)8-2/h4-7H,3H2,1-2H3/t4-,5-,6+,7-
