16
gdb 29798	3.76129	1.18768	0.90782	5.5087	78.06	-0.2046	-0.0358	0.1688	1229.5607	0.124905	-437.940737	-437.932479	-437.931535	-437.973853	30.377	
C	-0.0494604438	 1.4691602851	 0.0018408746	-0.335073
N	-0.0026477893	 0.0212993062	 0.0034938981	 0.020835
C	 0.0735023187	-0.7570064444	-1.1515225829	-0.205675
C	 0.1029288476	-2.0708329018	-0.7577132065	 0.256756
O	 0.1735716038	-3.1620934803	-1.5370802538	-0.435144
C	 0.0431496985	-2.0950707405	 0.6794448273	 0.041317
C	 0.0528937209	-3.3087132774	 1.4409893774	 0.072665
O	 0.1137067773	-4.4213504653	 0.921927207	-0.347578
C	-0.0210827357	-0.7668554016	 1.0980619582	-0.171851
H	 0.8540196862	 1.8851313679	-0.4553608234	 0.14905
H	-0.9207185909	 1.8262361667	-0.5562501163	 0.149097
H	-0.1199815407	 1.8267746812	 1.0302439294	 0.145229
H	 0.0987511433	-0.3039097786	-2.1276609698	 0.128362
H	 0.1739607417	-3.921605664	-0.9200379278	 0.311421
H	 0.0027565035	-3.2138505754	 2.5449453916	 0.080488
H	-0.0774344011	-0.3460367579	 2.0900233169	 0.140102
68.585	131.3894	196.2409	206.0805	287.1371	301.5393	348.2823	455.5273	498.3103	605.4638	609.7653	636.1273	704.8007	736.1373	752.2245	780.7593	828.8699	1017.1751	1028.57	1092.3338	1150.8604	1173.4746	1204.8321	1257.6259	1338.5365	1372.5151	1398.6026	1453.7988	1478.6034	1481.1259	1492.9998	1529.7143	1568.8498	1643.1292	1731.1887	2919.1835	3038.8868	3098.6444	3142.5377	3252.5895	3278.6517	3535.1679
CN1C=C(O)C(C=O)=C1	Cn1cc(O)c(C=O)c1	
InChI=1S/C6H7NO2/c1-7-2-5(4-8)6(9)3-7/h2-4,9H,1H3	InChI=1S/C6H7NO2/c1-7-2-5(4-8)6(9)3-7/h2-4,9H,1H3
