19
gdb 22419	3.62579	1.0783	0.95596	1.8014	79.69	-0.2312	0.0009	0.2322	1269.4326	0.158738	-419.087705	-419.078954	-419.07801	-419.121901	32.697	
C	-0.0481322804	 1.5040427281	 0.0088592029	-0.486029
C	 0.0094601601	 0.0002901462	 0.0123635643	 0.186323
N	 0.0789474856	-0.717421215	 1.0696175176	-0.171792
O	 0.0948811213	 0.072804341	 2.2282857792	-0.396298
C	-0.0132690568	-0.7458340334	-1.2743146915	 0.287146
C	 0.9746027912	-0.6771511871	-2.4730422698	-0.205753
N	-0.0432546628	-1.720266096	-2.9607789254	-0.150117
C	 0.0348789931	-2.2658208075	-1.5196243119	-0.206794
C	-1.0955046198	-0.7560199693	-2.3906600026	-0.205752
H	 0.8340232132	 1.9209977483	 0.5052183549	 0.15004
H	-0.1031777257	 1.8965097896	-1.0083293644	 0.118765
H	-0.9178172826	 1.8540721343	 0.574157124	 0.150031
H	 0.1478826716	-0.589531048	 2.9255069203	 0.307456
H	 0.9926220911	 0.2318406349	-3.080877667	 0.100061
H	 1.9800235161	-1.0803555201	-2.32459859	 0.105783
H	 0.9679778742	-2.7896173945	-1.2996985458	 0.105543
H	-0.8353301134	-2.8583193565	-1.2279321749	 0.105542
H	-2.0524267498	-1.2339952252	-2.1641249635	 0.105782
H	-1.2306973961	 0.1471330503	-2.9923996766	 0.100062
52.8569	72.4722	145.0054	147.7751	277.5469	367.2437	393.0957	426.9871	437.4694	556.6124	598.8861	599.458	723.3651	789.7024	795.828	859.4316	931.9891	962.242	971.3678	976.4863	994.4481	1021.3903	1044.4016	1047.1016	1134.2209	1141.7875	1161.8065	1164.2353	1167.5694	1197.3428	1197.5071	1287.5179	1343.2956	1399.4043	1414.5796	1473.9103	1487.2534	1509.2765	1510.0003	1562.3616	1713.1277	3043.9588	3045.1008	3050.1234	3063.0061	3102.3303	3113.9864	3118.6921	3129.362	3134.5068	3818.5802
CC(=NO)C12CN(C1)C2	CC(=NO)[C@@]12CN(C1)C2	
InChI=1S/C6H10N2O/c1-5(7-9)6-2-8(3-6)4-6/h9H,2-4H2,1H3	InChI=1S/C6H10N2O/c1-5(7-9)6-2-8(3-6)4-6/h9H,2-4H2,1H3
