18
gdb 8416	3.41988	1.85861	1.56339	0.8725	67.43	-0.24	0.0678	0.3078	877.3402	0.152609	-384.903771	-384.895805	-384.89486	-384.935277	31.494	
C	-0.1296021111	 1.5635226483	-0.1198679178	-0.46118
C	 0.0802460239	 0.0555363708	-0.0766707668	 0.429099
O	-1.1494667338	-0.6242207225	-0.3099486557	-0.481927
C	 1.2453014483	-0.5626453004	-0.9277370624	-0.287682
C	 1.7734088012	-1.2709911052	 0.3271347581	-0.090066
C	 2.1379771771	-0.2840509903	 1.3741810065	 0.09589
O	 2.7610398197	 0.9219140777	 1.0195865625	-0.421283
C	 0.6774801509	-0.5843914689	 1.1841309101	-0.147881
H	 0.8100370026	 2.093199598	 0.0459375482	 0.123679
H	-0.5165029361	 1.8662584496	-1.1019827448	 0.100486
H	-0.8590016554	 1.8695882965	 0.637044856	 0.116445
H	-1.5014330376	-0.3065498317	-1.1490057805	 0.270942
H	 0.8427627676	-1.2555686189	-1.6685696746	 0.099138
H	 1.940745781	 0.133897799	-1.4026368962	 0.104042
H	 2.1260792003	-2.2948133458	 0.359643259	 0.086099
H	 2.5458124832	-0.7370842555	 2.2791715195	 0.090718
H	 2.5393255219	 1.5767075646	 1.6902685587	 0.286103
H	 0.0610479362	-0.9913288253	 1.9779348503	 0.08738
151.7234	190.8369	250.2805	274.0283	292.9064	339.2347	378.588	383.8885	431.327	512.9403	626.9215	646.2387	729.6743	797.2344	851.9151	862.8123	935.5321	962.0745	987.0674	996.1718	1011.7461	1030.786	1083.1545	1112.922	1143.6494	1186.385	1218.4328	1229.072	1260.6785	1277.8744	1288.6725	1345.9206	1388.8527	1398.4952	1451.321	1475.7038	1488.6926	1504.5658	3020.3104	3064.3069	3087.6218	3092.2271	3126.5171	3139.2493	3173.2192	3184.2769	3796.3379	3805.1447
CC1(O)CC2C(O)C12	C[C@@]1(O)C[C@H]2[C@@H](O)[C@@H]12	
InChI=1S/C6H10O2/c1-6(8)2-3-4(6)5(3)7/h3-5,7-8H,2H2,1H3	InChI=1S/C6H10O2/c1-6(8)2-3-4(6)5(3)7/h3-5,7-8H,2H2,1H3/t3-,4+,5-,6-/m1/s1
