17
gdb 34347	2.88531	1.60883	1.29352	3.2355	76.07	-0.2408	0.0149	0.2557	999.4426	0.137989	-380.815323	-380.808142	-380.807198	-380.846766	28.775	
N	-0.0152635155	-1.1524870009	 0.0621988074	-0.345626
C	-0.0273204539	 0.0046632934	 0.0466633044	 0.205408
C	-0.0396824603	 1.4449476592	 0.0196885133	 0.173759
C	-0.3995037695	 2.1415066796	-1.3325599681	-0.235621
N	 0.8004769572	 3.0173987724	-1.2105344782	-0.31948
C	 1.2811211367	 2.2793407439	-0.0150123866	-0.058127
C	 0.9326394769	 2.8991382232	 1.3612980848	-0.031464
C	-0.3726743676	 3.6306573101	 1.2849435595	-0.305265
C	-0.396817442	 2.1307032277	 1.3678240272	-0.110327
H	-0.3683364427	 1.4416374697	-2.1735666287	 0.122987
H	-1.3485841992	 2.6865926275	-1.353909704	 0.118047
H	 1.4258812746	 2.9653172207	-2.0047966325	 0.22952
H	 2.2526046238	 1.7897149911	-0.0882792387	 0.093348
H	 1.6407338628	 3.0457475665	 2.1671026898	 0.096207
H	-0.6766582043	 4.1244774612	 2.2020349137	 0.120058
H	-0.6387807016	 4.1596211504	 0.3768354593	 0.139746
H	-0.8823979356	 1.6041891243	 2.1791917772	 0.106832
139.7797	154.7789	222.3381	300.8294	408.967	462.72	531.6111	555.0031	580.8692	646.7539	718.5279	779.8556	816.2172	859.4575	912.5536	931.7928	943.6274	981.5532	997.6969	1009.2994	1031.7274	1045.2076	1059.6701	1086.1898	1121.1018	1158.3358	1176.8018	1188.4809	1226.7865	1270.5775	1291.5929	1342.1985	1358.4314	1381.2122	1485.0772	1507.6881	2345.176	3037.9451	3088.1086	3108.9791	3136.845	3188.716	3199.3872	3222.1893	3557.3707
N#CC12CNC1C1CC21	N#C[C@]12CN[C@H]1[C@H]1C[C@@H]21	
InChI=1S/C7H8N2/c8-2-7-3-9-6(7)4-1-5(4)7/h4-6,9H,1,3H2	InChI=1S/C7H8N2/c8-2-7-3-9-6(7)4-1-5(4)7/h4-6,9H,1,3H2/t4-,5+,6-,7+/m0/s1
