18
gdb 50997	3.39621	1.05277	0.89573	2.1786	74.48	-0.2519	0.0156	0.2675	1309.131	0.145827	-439.031226	-439.022321	-439.021377	-439.065619	32.422	
N	 0.2418049181	 1.3594670533	-0.7117860643	-0.441643
C	 0.1832190771	 0.1524028764	-0.3442817644	 0.109078
O	-0.9300064968	-0.5594407111	-0.5996503437	-0.23736
C	-1.0411412748	-1.9190109412	-0.2185407913	 0.41596
C	 0.1202839356	-2.8715901009	-0.256445065	-0.327948
C	-0.494969727	-2.4559982794	 1.0703679006	-0.332213
C	-2.3776682432	-2.3912258767	-0.7137133058	 0.016006
O	-2.8379367033	-3.6305471918	-0.1886330479	-0.236184
C	-3.5571070621	-2.4379742734	 0.1559291152	-0.171867
H	 1.1400988145	 1.7570376674	-0.4449651116	 0.229194
H	 0.9701277529	-0.3964377116	 0.1826676217	 0.095048
H	-0.076138921	-3.877012956	-0.6118334688	 0.139916
H	 1.1013762711	-2.4869530039	-0.5117974054	 0.123048
H	 0.0693084564	-1.7837603905	 1.7070720234	 0.120985
H	-1.0966706058	-3.1887466721	 1.5954481484	 0.14221
H	-2.5266479508	-2.2594179488	-1.7857074936	 0.108585
H	-3.465700223	-2.1261735949	 1.1942941046	 0.121468
H	-4.551050198	-2.3550937147	-0.2786021418	 0.125717
62.0209	91.4183	104.1525	162.3166	239.7516	249.1979	350.1007	412.3574	423.8231	529.8807	600.9145	726.9043	771.5399	816.5787	856.878	879.1913	896.3925	938.0647	961.039	988.1468	1038.0819	1052.5762	1065.9343	1084.7666	1094.8395	1116.6396	1154.1798	1172.1371	1191.8258	1250.0455	1276.2681	1302.3379	1353.3234	1426.982	1444.8183	1450.1028	1495.0066	1525.9314	1736.6365	3068.2148	3096.749	3112.3454	3138.4032	3140.5782	3188.9732	3221.7203	3233.7678	3516.7931
N=COC1(CC1)C1OC1	[NH][CH]OC1(CC1)[C@H]1OC1	
InChI=1S/C6H9NO2/c7-4-9-6(1-2-6)5-3-8-5/h4-5,7H,1-3H2	InChI=1S/C6H9NO2/c7-4-9-6(1-2-6)5-3-8-5/h4-5,7H,1-3H2/t5-/m0/s1
