18
gdb 95651	2.46279	1.58753	1.13033	2.7691	68.29	-0.2435	0.0013	0.2447	1098.1962	0.148584	-476.252108	-476.243453	-476.242509	-476.285476	32.127	
C	-0.0196454008	 1.5558233521	-0.0977215831	-0.40638
C	 0.054815357	 0.0416027479	-0.0312183026	 0.100116
O	 0.8167070632	-0.430919379	-1.1530160282	-0.242256
C	 0.691361195	-1.8016865868	-1.2842311425	 0.01938
O	 1.136409847	-2.5422314721	-0.1355115528	-0.233773
C	 0.9523821493	-2.0335952247	 1.1126534828	 0.384614
O	 1.0963636176	-2.7438654391	 2.0702757936	-0.331211
C	 0.7252841374	-0.5184638029	 1.2289552664	-0.088312
N	 2.0058834364	 0.156264862	 1.4749786736	-0.513739
H	 0.9767827779	 1.99511374	-0.0371213139	 0.146324
H	-0.4969361373	 1.8650691688	-1.0309980976	 0.123827
H	-0.6099719719	 1.9364921612	 0.7408656484	 0.124707
H	-0.9605374845	-0.3837005958	-0.101093994	 0.079446
H	-0.3559451524	-2.0891571756	-1.470120332	 0.105897
H	 1.325944889	-2.1233434463	-2.1116694154	 0.134234
H	 0.0831284139	-0.3614404376	 2.1003907271	 0.109609
H	 2.4566786086	-0.268244361	 2.2803063887	 0.248279
H	 2.6190963744	 0.0041733391	 0.6780903813	 0.239237
73.3037	124.6501	187.2086	234.9731	272.9472	290.2224	310.5949	345.2549	423.1263	462.1155	525.5569	662.6967	736.5899	748.9779	817.9005	844.0917	912.5647	922.0991	1020.0046	1031.2494	1063.085	1111.4443	1120.5427	1156.2247	1192.6783	1208.4037	1259.5711	1294.608	1297.7388	1373.5255	1386.3698	1412.4746	1418.0688	1458.3298	1483.9775	1490.7332	1521.0629	1649.5976	1841.6181	2964.9474	2978.674	3055.3948	3077.9801	3120.1543	3125.0659	3151.4045	3488.7743	3572.1183
CC1OCOC(=O)C1N	C[C@H]1OCOC(=O)[C@H]1N	
InChI=1S/C5H9NO3/c1-3-4(6)5(7)9-2-8-3/h3-4H,2,6H2,1H3	InChI=1S/C5H9NO3/c1-3-4(6)5(7)9-2-8-3/h3-4H,2,6H2,1H3/t3-,4+/m1/s1
