21
gdb 107322	2.4621	1.53531	1.15677	1.4729	83.41	-0.2245	0.0228	0.2473	1140.6832	0.182713	-387.085283	-387.076408	-387.075464	-387.118519	34.534	
C	-0.2256594133	 1.5287642431	-0.0032075222	-0.397871
C	 0.0115272517	 0.0111674208	-0.036079357	-0.087738
C	 0.882382812	-0.4653561831	-1.1843471857	-0.087824
C	 1.8782748864	-1.2561960654	-0.7794469078	-0.088114
C	 1.8967054848	-1.3992306225	 0.7057539023	-0.147537
C	 2.1416372615	-0.1109194532	 1.4684184763	-0.3165
C	 0.7261402011	-0.5622983342	 1.2014906016	 0.374308
C	-0.1146840122	-1.0111602105	 2.3624533916	-0.187128
O	-0.7099713805	 0.1372825416	 2.9626155542	-0.417775
H	 0.7196122757	 2.0766163642	 0.0603866165	 0.112158
H	-0.7443106431	 1.8619906166	-0.908734799	 0.102461
H	-0.8330055264	 1.7940598461	 0.865205657	 0.1355
H	-0.9774174688	-0.4686684542	-0.1128106028	 0.072805
H	 0.6991589915	-0.1599108392	-2.2092634352	 0.088454
H	 2.6203165788	-1.717109455	-1.4219054088	 0.093098
H	 2.1687088837	-2.3434817367	 1.1666824697	 0.081759
H	 2.4860761659	-0.1901843323	 2.4949226249	 0.108761
H	 2.5487803456	 0.7302137709	 0.9179421808	 0.111709
H	-0.89112297	-1.709620618	 2.0097766803	 0.084525
H	 0.5112434582	-1.5549743623	 3.0885735792	 0.079368
H	-1.3457136826	-0.1637424465	 3.6187238142	 0.285582
80.0654	132.5029	207.0805	232.0648	259.8181	265.0479	307.495	367.7871	408.5747	463.6136	555.2218	653.1814	705.9569	749.4485	791.9855	841.8923	885.9958	906.6258	937.5096	956.5616	971.9615	1013.3347	1037.5613	1052.3267	1062.3197	1071.6032	1074.6919	1105.7535	1119.4198	1151.5002	1218.9354	1230.3066	1251.3406	1291.1418	1321.8643	1335.433	1368.2148	1401.0402	1406.4155	1462.6685	1479.4885	1497.6509	1503.1046	1517.1215	1669.0632	2957.2651	2969.3317	2987.6619	3035.4349	3099.4688	3124.7489	3128.5369	3156.8893	3177.8216	3203.8471	3213.1643	3824.7515
CC1C=CC2CC12CO	C[C@H]1C=C[C@H]2C[C@@]12CO	
InChI=1S/C8H12O/c1-6-2-3-7-4-8(6,7)5-9/h2-3,6-7,9H,4-5H2,1H3	InChI=1S/C8H12O/c1-6-2-3-7-4-8(6,7)5-9/h2-3,6-7,9H,4-5H2,1H3/t6-,7-,8+/m0/s1
