19
gdb 73705	2.68125	2.07163	1.40141	1.5274	74.26	-0.2464	0.0972	0.3436	951.9349	0.16113	-422.980847	-422.973799	-422.972855	-423.011838	29.263	
C	-0.0127240866	 1.531777779	-0.1741297355	-0.473979
C	-0.0304447569	 0.0284846958	 0.0171335293	 0.465965
O	 0.1132638599	-0.5274090287	-1.2872080337	-0.316663
C	-0.3913836086	-1.830648396	-1.371029043	 0.009636
O	 0.0353015292	-2.6248497763	-0.2917879161	-0.27204
C	-0.0836825427	-1.9067544395	 0.9084121646	 0.150843
C	 0.8392736027	-0.6667102119	 1.1188807549	-0.139424
C	-0.2030459772	-0.2040504887	 2.1692202308	-0.26075
C	-1.0646555158	-0.6837959753	 0.9731369285	-0.179903
H	-0.0163320058	 2.0810996453	 0.768131711	 0.119455
H	 0.8851750882	 1.8125190553	-0.7326857242	 0.131951
H	-0.8799370099	 1.844134592	-0.7637603318	 0.124295
H	-1.4949406616	-1.8042163435	-1.3906037007	 0.083125
H	-0.0129647613	-2.2801209677	-2.2919657258	 0.117676
H	-0.131597005	-2.6256078434	 1.7289452213	 0.08449
H	 1.9267712301	-0.6619750475	 1.198359397	 0.075073
H	-0.2710421765	-0.8180319149	 3.0711203177	 0.098986
H	-0.2372010584	 0.8549469745	 2.419262957	 0.104344
H	-2.1538792041	-0.6858751587	 0.9101658587	 0.07692
180.2895	203.86	268.4959	359.4065	367.939	445.0283	465.3169	534.8723	567.5126	648.4768	743.6348	784.5035	796.052	885.0258	898.9352	910.9059	918.4451	995.9976	1007.2346	1026.9916	1081.7081	1084.3005	1086.2768	1096.5585	1142.446	1158.0891	1167.2471	1186.0839	1208.4715	1232.9815	1243.7514	1254.9199	1281.3783	1316.0275	1395.8928	1416.1726	1450.4645	1482.1691	1494.151	1525.1853	1529.0104	2947.4919	3049.843	3070.3025	3091.5108	3102.6704	3103.4926	3111.26	3115.8283	3139.3167	3154.0831
CC12OCOC3C1CC23	C[C@@]12OCO[C@H]3[C@@H]1C[C@@H]23	
InChI=1S/C7H10O2/c1-7-4-2-5(7)6(4)8-3-9-7/h4-6H,2-3H2,1H3	InChI=1S/C7H10O2/c1-7-4-2-5(7)6(4)8-3-9-7/h4-6H,2-3H2,1H3/t4-,5+,6-,7+
