14
gdb 42769	2.69412	1.61996	1.29242	5.1341	67.02	-0.2748	-0.0418	0.2329	974.6138	0.101299	-436.680912	-436.673677	-436.672733	-436.712733	27.183	
O	-0.0420921304	-0.0496702326	-0.0306167409	-0.279531
C	-0.0405255269	 1.1292631167	 0.0693900802	 0.417796
C	-1.0148874428	 2.3234174717	 0.0142636992	-0.044948
C	-0.8077520114	 2.9964144743	 1.3832100517	-0.238368
C	 0.7580782406	 2.9800417508	 1.4195508937	-0.273541
C	 1.001544879	 2.3076172629	 0.046777783	 0.184574
O	 0.0146144501	 2.9599645111	-0.8155000099	-0.311001
C	 2.3367576582	 2.206638896	-0.4816018367	 0.201275
N	 3.4173147723	 2.0924248751	-0.8748999783	-0.322019
H	-1.999104776	 2.2836217912	-0.4450578401	 0.123657
H	-1.209093971	 4.0110378153	 1.3807290975	 0.133405
H	-1.2669034945	 2.4353857212	 2.2006397753	 0.130002
H	 1.1918082375	 3.9807221038	 1.4383085773	 0.141124
H	 1.1748751153	 2.3960887826	 2.242876638	 0.137575
125.9931	149.8434	177.3279	244.9458	381.3962	469.1217	499.1741	531.8865	576.8493	685.459	724.8423	750.3035	837.826	849.2963	909.372	919.1457	956.9647	1003.0257	1019.2314	1071.4756	1144.5384	1175.7435	1230.2092	1253.3674	1262.7116	1308.2285	1327.197	1477.5212	1495.8801	1943.6718	2361.9273	3075.9861	3085.1308	3125.5528	3142.6273	3171.5626
O=C1C2CCC1(O2)C#N	O=C1[C@H]2CC[C@@]1(O2)C#N	
InChI=1S/C6H5NO2/c7-3-6-2-1-4(9-6)5(6)8/h4H,1-2H2	InChI=1S/C6H5NO2/c7-3-6-2-1-4(9-6)5(6)8/h4H,1-2H2/t4-,6-/m1/s1
