23
gdb 53664	4.24344	0.551	0.51279	0.2464	96.02	-0.2378	0.065	0.3028	2233.1705	0.203626	-351.128178	-351.117016	-351.116072	-351.16698	39.038	
C	 0.1266612234	 1.5166955547	 0.0026541603	-0.497079
C	 0.0667072715	 0.0646147126	 0.0962565813	 0.108036
C	 0.0284040994	-1.1364092145	 0.1775848638	 0.022514
C	-0.0555166873	-2.5903390734	 0.2617550398	-0.348402
C	-1.3962974394	-3.1530463218	-0.2611414064	-0.200374
C	-1.4490681427	-4.6632552579	-0.1700307362	 0.015184
C	-1.8591528791	-5.3552358457	 1.1118356002	-0.291895
C	-2.7413496304	-5.4477938916	-0.1107805131	-0.013416
C	-4.1075042356	-4.7967661249	-0.144043384	-0.40378
H	 0.9684254966	 1.8432032619	-0.6184455233	 0.144429
H	-0.7877456875	 1.9263195814	-0.4412341896	 0.144321
H	 0.2477120211	 1.9768862238	 0.9898270927	 0.144281
H	 0.7697258503	-3.0418346104	-0.3056580326	 0.120476
H	 0.0848833117	-2.9136510443	 1.3014977737	 0.12649
H	-2.210572652	-2.7000957607	 0.3128714069	 0.104641
H	-1.5330996222	-2.8292718927	-1.3001200909	 0.105001
H	-0.6485433481	-5.1525283648	-0.7221091425	 0.077413
H	-1.3121925576	-6.2327677137	 1.4393446261	 0.106507
H	-2.2080563017	-4.7239185539	 1.9245941589	 0.106397
H	-2.7074977284	-6.4021866625	-0.6310668125	 0.080701
H	-4.1337319711	-3.866844799	 0.4308356076	 0.117119
H	-4.4154276256	-4.5618692236	-1.169302502	 0.11573
H	-4.8632125852	-5.4647751894	 0.2839836418	 0.115705
15.3517	50.5858	67.3262	81.1661	154.1512	200.0132	211.7772	246.216	292.9539	335.2384	385.3359	417.6938	466.7005	534.3546	745.588	759.0119	774.522	841.3543	877.1335	900.0978	940.483	992.9928	1033.2094	1051.6621	1053.961	1060.0979	1079.6932	1112.2893	1143.6599	1152.4172	1168.1096	1199.3663	1225.2218	1250.5112	1282.532	1314.8661	1364.3809	1395.8157	1415.656	1418.3737	1430.0133	1473.5919	1479.6854	1480.0121	1487.6887	1493.9587	1498.8584	1506.4816	2372.5707	3010.2194	3023.3974	3027.986	3032.3713	3041.7519	3081.4342	3082.4698	3082.5466	3085.4314	3105.0683	3116.0121	3119.9309	3133.7874	3204.2165
CC#CCCC1CC1C	CC#CCC[C@H]1C[C@H]1C	
InChI=1S/C9H14/c1-3-4-5-6-9-7-8(9)2/h8-9H,5-7H2,1-2H3	InChI=1S/C9H14/c1-3-4-5-6-9-7-8(9)2/h8-9H,5-7H2,1-2H3/t8-,9+/m1/s1
