17
gdb 62449	3.7372	1.20389	1.16291	0.7728	75.32	-0.2365	0.0393	0.2758	1108.9124	0.134212	-421.766032	-421.7575	-421.756556	-421.799168	31.817	
C	-0.0000710532	 1.5870560519	-0.0583743697	-0.464543
C	 0.0354790731	 0.0707397518	-0.0316354812	 0.035621
C	-1.0814815731	-0.6047416544	-0.6334843757	 0.257544
C	-2.0087997014	-1.1870242854	-1.1330341833	-0.418765
C	 1.3711909047	-0.6873153479	-0.1517112609	 0.015792
O	 2.5374215685	 0.0760719429	 0.028456496	-0.255039
C	 2.7370378694	 0.136119028	 1.4318467995	 0.013376
O	 1.4520849216	 0.0861631506	 2.0313290409	-0.255042
C	 0.6611859201	-0.6807956323	 1.1586427973	 0.015798
H	-0.0413263953	 1.9461537129	-1.0904622173	 0.129748
H	-0.8857135752	 1.9539405093	 0.4678411007	 0.129749
H	 0.884968699	 2.0067263824	 0.4190253126	 0.13629
H	-2.8323161442	-1.6893153077	-1.5767400437	 0.193743
H	 1.4632188209	-1.5412677614	-0.81290813	 0.119226
H	 3.3508301211	-0.7158837555	 1.7687065911	 0.10035
H	 3.2168313583	 1.0844497197	 1.6871160172	 0.126933
H	 0.1540287857	-1.5292730448	 1.6033552364	 0.119219
98.6251	131.4329	134.4442	192.2827	211.7825	284.2562	414.172	447.314	519.8437	531.4223	586.2948	653.9787	708.5668	740.5781	748.0721	856.8461	871.8622	953.7828	956.9167	1022.8546	1055.729	1077.4218	1086.3516	1109.3477	1128.9434	1185.0201	1214.2553	1219.6594	1282.5045	1285.9622	1376.3085	1414.4827	1421.9509	1481.0827	1495.3592	1539.0498	2229.0907	2965.8813	3052.7007	3099.7827	3115.5507	3155.0001	3172.0442	3180.773	3502.8198
CC1(C#C)C2OCOC12	C[C@@]1(C#C)[C@H]2OCO[C@@H]12	
InChI=1S/C7H8O2/c1-3-7(2)5-6(7)9-4-8-5/h1,5-6H,4H2,2H3	InChI=1S/C7H8O2/c1-3-7(2)5-6(7)9-4-8-5/h1,5-6H,4H2,2H3/t5-,6+,7+
