20
gdb 78520	2.43297	1.80494	1.20171	1.8024	80.45	-0.2027	0.0758	0.2785	1086.2735	0.169237	-403.055118	-403.046451	-403.045507	-403.087549	34.25	
C	 0.0368758359	 1.4940807925	-0.2602395669	-0.334471
N	 0.0317950786	 0.0469730507	-0.0471120208	-0.121585
C	-1.046905096	-0.4958420083	 0.8316337306	-0.130804
C	-0.1624217296	-1.7249486479	 1.2283553794	 0.347833
C	 0.0057387765	-2.9818883527	 0.4266784907	-0.516748
C	-0.4248255799	-1.5470620433	 2.7395515871	-0.38281
C	-0.350389395	-0.1035006973	 2.2035010309	 0.368686
O	-0.4046604946	 1.0773349429	 2.9204262373	-0.465415
C	 0.7582643144	-0.4562582965	 1.1560899133	-0.097265
H	 1.0071825565	 1.7881569053	-0.6751660615	 0.113977
H	-0.7281701175	 1.7453089319	-1.0033424979	 0.111447
H	-0.1478655207	 2.0850604052	 0.6480695391	 0.120307
H	-2.1059335929	-0.4891621273	 0.562965795	 0.070756
H	 0.1890180532	-2.7298081738	-0.6220739671	 0.139349
H	 0.8500786527	-3.5760163953	 0.7927003372	 0.117322
H	-0.8908694588	-3.6090721525	 0.480474915	 0.116051
H	-1.3980596984	-1.8904048562	 3.1079924246	 0.086223
H	 0.3768108737	-1.8597320746	 3.4163609798	 0.096324
H	-1.2102942087	 1.0765284733	 3.4496290844	 0.284418
H	 1.8426301405	-0.4063570162	 1.27464856	 0.076407
189.0469	209.6042	214.0738	223.7154	230.9053	258.4628	269.0901	370.4342	430.3056	442.4315	553.6967	588.9889	687.5743	709.3845	761.7146	831.4353	869.1206	879.3264	907.5597	1006.3305	1011.0514	1033.0486	1061.2018	1083.0811	1095.3888	1113.4568	1140.4205	1155.1564	1175.1843	1180.0479	1205.4975	1225.6135	1278.6677	1294.0477	1341.4171	1395.3869	1413.9371	1447.1957	1490.4087	1491.623	1493.8824	1508.8168	1519.5704	3001.0075	3029.7989	3032.7096	3069.1363	3086.7272	3089.6957	3090.4237	3092.1696	3098.6903	3111.7232	3796.8877
CN1C2C3(C)CC2(O)C13	CN1[C@H]2[C@]3(C)C[C@@]2(O)[C@H]13	
InChI=1S/C7H11NO/c1-6-3-7(9)4(6)8(2)5(6)7/h4-5,9H,3H2,1-2H3	InChI=1S/C7H11NO/c1-6-3-7(9)4(6)8(2)5(6)7/h4-5,9H,3H2,1-2H3/t4-,5+,6-,7-
