15
gdb 6425	3.73515	1.53049	1.31192	3.5383	68.12	-0.2515	0.022	0.2735	951.9095	0.11681	-362.653786	-362.645743	-362.644798	-362.686082	30.115	
C	-0.089721835	 1.5621385635	 0.026341761	-0.433344
C	-0.0224815434	 0.0333436327	-0.0192473803	 0.143348
C	 0.7409355022	-0.576748038	-1.2530685829	-0.432426
C	 1.7358395863	-1.1494752527	-0.2186628411	 0.442155
O	 2.7102811861	-1.8486492572	-0.2515002062	-0.353966
N	 1.0596619189	-0.5395662318	 0.8133116371	-0.342885
C	-1.3302821449	-0.5662769895	 0.2345028683	 0.32055
C	-2.4117431742	-1.0417459798	 0.4562252754	-0.469302
H	 0.8994596472	 1.9848240972	-0.169810897	 0.12577
H	-0.7935515581	 1.9344359349	-0.7233037449	 0.135441
H	-0.4289380285	 1.9050576084	 1.0080726166	 0.130067
H	 0.1881777772	-1.3354970804	-1.8067083717	 0.143899
H	 1.1611118468	 0.160877785	-1.9388500919	 0.133714
H	 1.1098351587	-0.6785534607	 1.8128887522	 0.25269
H	-3.3638853094	-1.4721374914	 0.6478282454	 0.204289
65.0988	174.5603	186.9705	244.7097	316.2646	369.9977	404.4742	456.0274	514.438	557.4234	576.4291	614.9654	635.8025	655.9048	778.7478	882.3128	909.1608	956.0692	977.8669	1069.0314	1100.8404	1162.6209	1190.8644	1239.9135	1256.3366	1361.8704	1407.989	1454.7113	1484.4156	1493.2875	1901.2545	2234.4026	3042.8732	3092.3055	3119.513	3125.5923	3158.7457	3499.5895	3600.4449
CC1(CC(=O)N1)C#C	C[C@]1(CC(=O)N1)C#C	
InChI=1S/C6H7NO/c1-3-6(2)4-5(8)7-6/h1H,4H2,2H3,(H,7,8)	InChI=1S/C6H7NO/c1-3-6(2)4-5(8)7-6/h1H,4H2,2H3,(H,7,8)/t6-/m1/s1
