18
gdb 110733	2.525	1.2922	1.08632	2.1608	73.67	-0.261	0.0157	0.2767	1184.2666	0.146466	-439.052575	-439.043552	-439.042608	-439.086665	33.15	
C	 0.0194183711	 1.591441605	-0.0505160825	-0.494852
C	 0.0177403249	 0.0929138475	 0.0124047318	 0.157484
C	-0.1480057986	-0.7335381988	 1.3012488316	-0.11102
C	-1.2179613453	-1.7788162185	 1.5374780109	-0.101943
O	-0.8249895365	-2.720084817	 2.5240396561	-0.413542
C	 1.0417523181	-0.9474826092	 0.4267396703	 0.021896
O	 0.6888377473	-1.805586987	-0.6926751544	-0.280422
C	-0.199518222	-0.8282101765	-1.150450687	 0.394167
N	-0.853769273	-0.7630320781	-2.2162655589	-0.555469
H	 0.5889516209	 1.9478044933	-0.9141517886	 0.13689
H	-1.0013663944	 1.9758519872	-0.143281066	 0.143192
H	 0.4588077949	 2.021371312	 0.8543331771	 0.123334
H	 0.0827666569	-0.1356220175	 2.1818560441	 0.106846
H	-2.1203865729	-1.296287633	 1.9255753925	 0.117827
H	-1.4879946139	-2.2700167933	 0.5943736608	 0.112304
H	-0.0875248654	-3.2229042539	 2.1625283013	 0.287834
H	 2.0909988932	-0.8748452236	 0.6798721296	 0.123688
H	-0.6982518651	-1.5853020186	-2.8018209587	 0.231785
58.6259	115.5593	153.9139	176.1521	232.9927	261.1883	299.9283	333.4506	417.409	480.2747	598.4048	656.9299	718.1774	737.8386	803.1425	865.3894	891.9882	925.0341	929.6845	939.8738	1001.7741	1039.7259	1051.3439	1068.757	1109.6633	1134.6418	1182.9106	1206.6617	1262.6871	1281.2784	1342.6573	1396.0283	1415.4582	1419.5047	1467.3961	1484.1793	1497.1596	1498.2739	1827.9164	3029.3409	3038.962	3084.382	3104.9392	3113.1994	3133.1554	3210.6545	3479.6781	3812.9191
CC12C(CO)C1OC2=N	C[C@]12[C@@H](CO)[C@H]1O[C]2[NH]	
InChI=1S/C6H9NO2/c1-6-3(2-8)4(6)9-5(6)7/h3-4,7-8H,2H2,1H3	InChI=1S/C6H9NO2/c1-6-3(2-8)4(6)9-5(6)7/h3-4,7-8H,2H2,1H3/t3-,4+,6-/m0/s1
