15
gdb 127726	3.36786	1.46208	1.03253	1.9802	71.99	-0.2543	-0.0905	0.1638	1110.8529	0.112034	-450.139781	-450.131474	-450.13053	-450.173109	29.402	
C	-0.0708365809	 1.4236325668	-0.02853048	-0.317746
N	-0.031321786	-0.0331366725	 0.0084503662	-0.044155
N	-0.15161949	-0.6592909054	-1.1552963935	-0.048012
N	-0.1242029983	-1.9365844452	-1.1853950101	-0.239635
C	 0.0325560735	-2.6115316703	 0.0209619452	 0.383267
C	 0.0529996412	-4.1017171569	-0.1137994105	-0.451891
N	 0.1554818642	-2.0624807197	 1.1912909664	-0.335117
C	 0.1305933247	-0.6842441576	 1.2642798661	 0.465666
O	 0.2317988561	-0.0236547456	 2.2693831174	-0.365826
H	 0.8578487799	 1.8259458064	 0.3818053903	 0.16503
H	-0.1994647543	 1.7227123659	-1.0678413238	 0.158061
H	-0.8980980969	 1.7834746873	 0.5869562819	 0.165044
H	 0.8667875256	-4.4020030546	-0.7817544774	 0.156181
H	 0.1774815363	-4.5685186771	 0.8622958506	 0.152957
H	-0.8766278451	-4.4442248814	-0.5796871188	 0.156175
85.9989	100.1369	138.0128	179.9232	275.8611	303.7358	334.3341	436.0751	505.2734	561.2546	597.654	674.1089	748.3997	792.9562	815.951	922.3214	1022.0073	1060.4003	1077.4934	1121.7091	1151.1923	1240.2695	1304.6622	1341.5084	1408.5867	1430.8922	1459.9389	1469.309	1471.0139	1484.1643	1501.862	1630.8546	1823.248	3050.1653	3065.2583	3107.6576	3136.0195	3169.7171	3177.4981
CN1N=NC(C)=NC1=O	Cn1nnc(C)nc1=O	
InChI=1S/C4H6N4O/c1-3-5-4(9)8(2)7-6-3/h1-2H3	InChI=1S/C4H6N4O/c1-3-5-4(9)8(2)7-6-3/h1-2H3
