23
gdb 59759	2.55736	1.24059	0.96614	1.6754	81.32	-0.2402	0.0643	0.3045	1320.6966	0.205109	-425.433348	-425.423245	-425.422301	-425.468496	37.352	
C	-0.0513010121	 1.5648233932	 0.0485207362	-0.399943
C	 0.0494644348	 0.0324266874	 0.0852883159	 0.026033
C	 0.7286424295	-0.4359277562	 1.37969167	-0.398477
C	-1.3330568551	-0.6141852648	-0.0935699366	 0.006441
C	-2.0500981717	-0.2846461439	-1.4141235904	-0.081399
O	-3.0151477916	-1.3152116619	-1.621999846	-0.266484
C	-2.7290640532	-2.4177094452	-0.7708456083	-0.085951
C	-1.3628794466	-2.1527215382	-0.1295494901	 0.065791
O	-0.2835018585	-2.5874575586	-0.9495056151	-0.436179
H	 0.9364086976	 2.0208927726	 0.1719459079	 0.110675
H	-0.4655438088	 1.9266395307	-0.8976771322	 0.116855
H	-0.6909249287	 1.9381020269	 0.8577917702	 0.109423
H	 0.6720861946	-0.2926432929	-0.756127835	 0.094197
H	 0.8956950043	-1.5163527843	 1.3722907347	 0.123139
H	 1.7020341668	 0.0501558258	 1.5036026287	 0.108324
H	 0.1222995974	-0.1872349152	 2.2594773481	 0.105098
H	-1.9802943701	-0.3021321795	 0.7384181341	 0.072443
H	-2.5744065675	 0.6757307985	-1.3912370909	 0.101391
H	-1.3322953764	-0.2679536513	-2.2476263238	 0.099138
H	-3.5093250184	-2.5100298072	 0.0004094819	 0.090638
H	-2.7273456418	-3.3457753761	-1.3590258505	 0.087216
H	-1.2952415671	-2.5999521049	 0.871553127	 0.066824
H	-0.3831298674	-3.5318251652	-1.1028646156	 0.284805
65.5603	82.1316	124.8721	168.479	227.9904	237.783	260.0647	281.0909	312.336	375.9331	415.0378	438.9046	509.1895	670.2841	763.7796	847.6161	869.7287	889.0023	929.9165	941.6282	967.3088	981.9694	1001.5674	1012.7084	1057.8039	1103.4608	1126.9088	1158.861	1174.276	1193.0079	1201.256	1230.8349	1252.5033	1295.7246	1319.0157	1344.3686	1354.1714	1368.1598	1385.3048	1398.7884	1401.1409	1420.3971	1428.1179	1487.6847	1494.5678	1505.0515	1510.1616	1512.2503	1525.2931	2979.5971	2993.2162	3005.5247	3016.1309	3023.3041	3025.3166	3026.9963	3046.1671	3070.7845	3086.4126	3094.6674	3101.7674	3113.464	3825.2023
CC(C)C1COCC1O	CC(C)[C@H]1COC[C@H]1O	
InChI=1S/C7H14O2/c1-5(2)6-3-9-4-7(6)8/h5-8H,3-4H2,1-2H3	InChI=1S/C7H14O2/c1-5(2)6-3-9-4-7(6)8/h5-8H,3-4H2,1-2H3/t6-,7-/m1/s1
