17
gdb 102899	2.09518	0.9867	0.70238	5.962	74.44	-0.2621	0.0027	0.2648	1539.3054	0.13638	-414.188156	-414.178344	-414.1774	-414.223829	33.956	
N	-0.0058067795	 1.4840497804	-0.0501212901	-0.516244
C	-0.0563897804	 0.0247167745	 0.0120115196	-0.184837
C	 0.8364866928	-0.4577146734	 1.1785021812	-0.094567
N	 0.3444153956	 0.1294180421	 2.4169924312	-0.294377
C	 1.261408108	-0.0132689354	 3.5418694276	-0.274143
C	 0.7432670447	 0.6797792681	 4.723425249	 0.262888
N	 0.3501122627	 1.2450905783	 5.650347798	-0.294899
C	 0.8263673907	-1.9271549164	 1.2588302499	 0.301809
N	 0.8368070805	-3.0811355879	 1.3117725392	-0.320446
H	 0.7941931548	 1.7989347255	-0.5890409919	 0.240434
H	-0.8331606981	 1.8526330907	-0.5037023528	 0.248986
H	-1.0829391122	-0.2817322826	 0.2299278173	 0.143992
H	 0.259166001	-0.485546967	-0.9080543753	 0.116855
H	 1.8810831883	-0.1632984807	 0.9538035526	 0.103446
H	 0.1622359984	 1.1098684665	 2.2146162275	 0.251301
H	 1.3697542178	-1.0775813839	 3.7843711604	 0.176216
H	 2.2789249148	 0.3701351711	 3.3413168968	 0.133586
53.2257	97.8253	116.6667	140.2512	150.1044	237.0295	258.8942	297.6365	338.8864	392.852	473.3565	518.2871	548.6625	626.4817	811.1267	823.6119	893.6453	940.9439	955.5982	1000.8431	1032.5171	1086.9652	1129.389	1163.1245	1194.3758	1253.6027	1320.3699	1326.1891	1372.2143	1390.8608	1414.6883	1491.5542	1493.5424	1495.7745	1660.9121	2361.8677	2371.5249	2903.4555	2939.4643	3012.9679	3054.7584	3102.8901	3498.9479	3516.2397	3599.6583
NCC(NCC#N)C#N	NC[C@@H](NCC#N)C#N	
InChI=1S/C5H8N4/c6-1-2-9-5(3-7)4-8/h5,9H,2-3,7H2	InChI=1S/C5H8N4/c6-1-2-9-5(3-7)4-8/h5,9H,2-3,7H2/t5-/m1/s1
