17
gdb 45441	2.58605	1.73324	1.70841	4.0064	66.33	-0.263	0.0116	0.2745	905.0997	0.139517	-459.018805	-459.012018	-459.011074	-459.050067	26.823	
O	-0.0390143953	-0.0118044507	 0.0000703824	-0.34158
C	 0.0063398193	 1.1847766519	 0.0109677111	 0.444336
O	-1.1297227356	 1.9400049674	 0.0461981126	-0.236479
C	-0.8611383532	 3.3586477328	 0.0391941879	 0.202395
C	-0.0906695453	 3.7174373235	 1.3115544192	-0.239439
C	 1.2328706521	 2.9074077523	 1.2938683307	-0.231507
C	 1.2452803877	 2.0646061765	-0.0030386413	-0.18693
C	 1.1106212047	 3.0281461789	-1.1947610406	-0.079049
O	-0.149902757	 3.7076641231	-1.1154755178	-0.257928
H	-1.8352359588	 3.8419441308	-0.0319235643	 0.106259
H	 0.0889660234	 4.7955174951	 1.3182173866	 0.120241
H	-0.7051511386	 3.4753876647	 2.1823447469	 0.123912
H	 2.1038212037	 3.5694464014	 1.2976526556	 0.113377
H	 1.3148483196	 2.257485696	 2.1683810049	 0.12506
H	 2.1349787399	 1.44129381	-0.0913961537	 0.103208
H	 1.9230870335	 3.7666892853	-1.1781381907	 0.108228
H	 1.1483298399	 2.494785531	-2.1508679594	 0.125895
105.7864	172.5157	287.7453	368.595	399.4804	454.4359	535.3885	601.0154	642.6265	778.6616	797.0271	836.594	860.2235	877.7814	895.9887	949.7412	989.7859	1000.0673	1029.8452	1072.509	1083.0357	1119.7364	1177.8295	1203.2402	1232.0023	1256.0127	1265.4239	1325.6468	1338.4444	1346.7025	1376.2517	1395.015	1415.3918	1478.3133	1501.3954	1527.9052	1874.5616	3014.1277	3054.7054	3065.5979	3068.3165	3096.9966	3118.7374	3121.5719	3128.0057
O=C1OC2CCC1CO2	O=C1O[C@H]2CC[C@@H]1CO2	
InChI=1S/C6H8O3/c7-6-4-1-2-5(9-6)8-3-4/h4-5H,1-3H2	InChI=1S/C6H8O3/c7-6-4-1-2-5(9-6)8-3-4/h4-5H,1-3H2/t4-,5+/m1/s1
