21
gdb 106059	2.70363	1.38031	1.21969	1.6651	82.77	-0.2298	0.0697	0.2994	1144.759	0.182357	-387.040205	-387.031404	-387.03046	-387.073479	33.995	
C	 0.060253162	 1.5844882672	 0.0114437506	-0.504199
C	-0.0463749507	 0.0816702768	 0.0082621654	 0.2505
C	 0.3674681261	-0.7542892365	-1.2398103941	-0.269252
C	-0.6195642466	-1.8063542832	-0.7451247118	-0.108073
C	-0.5396800457	-1.8152675047	 0.7950522386	-0.108073
C	 0.4938907536	-0.7684158742	 1.1970642223	-0.269248
C	-1.3824230621	-0.7962546994	 0.0724668024	 0.343713
C	-2.8325611954	-0.4619050838	 0.1496074066	-0.246297
O	-3.556556395	-1.6863974036	 0.1802329482	-0.418801
H	 1.1112530589	 1.8943707061	-0.0413865421	 0.119395
H	-0.4572015338	 2.0284924354	-0.8463626734	 0.113693
H	-0.3652225896	 2.0182185652	 0.9233521632	 0.113703
H	 0.0213281892	-0.2867459081	-2.167286774	 0.09039
H	 1.4283724653	-1.0168485593	-1.3372094586	 0.082254
H	-1.0298749388	-2.6527679729	-1.2797082566	 0.088899
H	-0.892969261	-2.6680407585	 1.359424824	 0.088918
H	 1.5590167121	-1.0314695495	 1.1811215668	 0.082254
H	 0.2458667284	-0.3118283051	 2.1607191292	 0.0904
H	-3.0369600647	 0.1407847627	 1.051284085	 0.08568
H	-3.1287984038	 0.1508792489	-0.7191519594	 0.085683
H	-4.4936416985	-1.4757528734	 0.2277411477	 0.28846
78.924	134.1791	185.9795	216.0592	239.9429	251.7786	321.1709	371.2202	471.4895	502.1645	592.5321	663.5708	710.413	774.7046	830.5624	872.6652	884.3254	898.0305	948.7623	986.779	998.5351	1013.3399	1030.8023	1055.9417	1082.6337	1100.8436	1115.1315	1124.4126	1149.0894	1207.8141	1212.676	1241.3583	1243.869	1257.5344	1260.3232	1296.2681	1337.4853	1415.1285	1433.8101	1485.806	1487.5794	1491.559	1497.6686	1510.5763	1524.3128	2944.1756	2962.4654	3015.949	3018.2079	3025.0766	3077.6193	3080.2709	3082.787	3088.995	3200.6912	3209.8661	3829.7637
CC12CC3C(C1)C23CO	C[C@@]12C[C@H]3[C@@H](C1)[C@@]23CO	
InChI=1S/C8H12O/c1-7-2-5-6(3-7)8(5,7)4-9/h5-6,9H,2-4H2,1H3	InChI=1S/C8H12O/c1-7-2-5-6(3-7)8(5,7)4-9/h5-6,9H,2-4H2,1H3/t5-,6+,7+,8-
