13
gdb 27511	2.10369	1.98937	1.02286	6.5131	65.06	-0.2616	-0.0264	0.2351	1058.1546	0.090979	-486.146311	-486.138604	-486.13766	-486.178835	28.536	
N	 0.0138090808	 1.3372442851	 0.0674880616	-0.56465
C	-0.0333077036	-0.0125701257	-0.0389972542	 0.509693
N	-1.1730032901	-0.6231009575	 0.1142572764	-0.4041
C	-1.2260886499	-1.976819527	-0.0427429661	 0.433719
O	-2.1878900524	-2.6738762681	 0.051983686	-0.325253
O	 0.0039517645	-2.663045708	-0.3460240519	-0.2544
C	 1.1842797317	-2.0341075156	-0.5102587556	 0.474689
N	 2.2843583195	-2.5826405413	-0.7990868218	-0.571398
N	 1.1320138267	-0.6514277528	-0.334418224	-0.377777
H	 0.8840734685	 1.8119102204	 0.2378660379	 0.270976
H	-0.8272808334	 1.7697987603	 0.4146660648	 0.288514
H	 2.1647525477	-3.5881919936	-0.8990919871	 0.241471
H	 1.99791034	-0.1637897563	-0.5047996459	 0.278515
99.3613	108.3696	187.8185	284.4114	341.6815	383.0538	481.6398	512.2809	544.3045	553.7149	613.8162	667.1536	711.0612	739.6675	777.6275	833.9139	855.4216	971.6613	1033.056	1073.5839	1126.4802	1247.078	1340.8216	1393.7134	1562.1164	1622.7388	1687.9769	1773.5741	1899.1801	3535.4148	3604.4955	3639.4569	3728.618
NC1=NC(=O)OC(=N)N1	NC1=NC(=O)O[C]([NH])N1	
InChI=1S/C3H4N4O2/c4-1-6-2(5)9-3(8)7-1/h(H4,4,5,6,7,8)	InChI=1S/C3H4N4O2/c4-1-6-2(5)9-3(8)7-1/h(H4,4,5,6,7,8)
