16
gdb 13555	4.35913	1.35014	1.16924	2.6798	66.57	-0.233	0.0177	0.2507	1020.262	0.128566	-383.674691	-383.666385	-383.665441	-383.707385	31.328	
O	-0.4690617508	 1.2368947532	 0.0883945809	-0.427494
C	-0.075755856	-0.1452882621	 0.0347959052	-0.072523
C	 0.741448176	-0.4076076935	-1.1506958457	 0.293099
C	 1.4372505415	-0.5981706007	-2.1120605749	-0.438991
C	 0.6247787777	-0.6070394039	 1.3120342606	-0.066306
C	 1.4831126952	 0.348210216	 2.1241465269	-0.338686
C	 0.1520441197	-0.1224040325	 2.6599033163	 0.132664
O	-0.9371093425	 0.7321993027	 2.802719247	-0.433302
H	 0.298371895	 1.7674363942	-0.1533402342	 0.296345
H	-1.0230624142	-0.6911291828	-0.0572823826	 0.132394
H	 2.0413260339	-0.7744959875	-2.9680212806	 0.205787
H	 0.9627112243	-1.637259542	 1.2452701259	 0.101662
H	 2.4052330153	-0.0215206626	 2.5591554203	 0.114727
H	 1.5277887145	 1.3834203016	 1.8003503755	 0.101405
H	 0.1688598379	-0.839483614	 3.4748092897	 0.104815
H	-1.0111436775	 1.2433230439	 1.9838189098	 0.294405
59.4614	138.0213	212.4142	231.0961	278.9843	320.9858	376.1892	433.8219	540.4486	577.0139	587.4819	627.7994	649.034	683.2856	762.0156	803.1022	874.7748	927.8326	990.3279	1011.6228	1027.2955	1068.2543	1124.4458	1126.8553	1145.0177	1228.7134	1258.3523	1319.4227	1353.8705	1370.5019	1419.0503	1457.1224	1493.2766	2234.9152	3035.0125	3129.2111	3147.7482	3161.476	3215.2229	3501.1666	3720.6556	3810.7539
OC(C#C)C1CC1O	O[C@@H](C#C)[C@H]1C[C@H]1O	
InChI=1S/C6H8O2/c1-2-5(7)4-3-6(4)8/h1,4-8H,3H2	InChI=1S/C6H8O2/c1-2-5(7)4-3-6(4)8/h1,4-8H,3H2/t4-,5+,6-/m1/s1
