21
gdb 82973	2.32077	2.00922	1.62893	1.5794	80.39	-0.2367	0.0756	0.3124	960.7102	0.185327	-387.074002	-387.066686	-387.065742	-387.105466	30.162	
C	-0.1004810279	 1.6208076463	-0.0111539074	-0.424217
C	 0.0501653705	 0.105981613	-0.025482132	 0.029406
C	 0.5736116564	-0.6144295582	-1.3087064117	-0.055647
C	 1.735579755	 0.0736993949	-2.066033062	-0.246146
C	 2.7385148882	-0.4591068488	-1.0054746763	 0.111485
O	 3.0889422115	 0.5162006621	-0.0279875784	-0.274077
C	 2.3949432331	 0.2636233703	 1.1930672376	-0.088321
C	 1.1754535297	-0.5753463639	 0.8344055184	-0.067175
C	 1.6223399102	-1.3715766365	-0.4185940824	-0.066451
H	 0.8430805235	 2.1245635656	-0.2400129692	 0.134865
H	-0.8417466263	 1.9444286609	-0.7505781471	 0.111932
H	-0.4387353331	 1.9729972967	 0.9699942291	 0.111011
H	-0.9075705108	-0.3487391336	 0.2489397644	 0.072474
H	-0.1824547448	-1.1152976646	-1.9145273793	 0.061108
H	 1.8985911455	-0.4009336305	-3.0385139787	 0.096335
H	 1.7114522426	 1.1577419265	-2.2021661461	 0.100772
H	 3.6491549721	-0.929341441	-1.3882723177	 0.07238
H	 3.0427044664	-0.2853611623	 1.8950579019	 0.087479
H	 2.1483861741	 1.2296054147	 1.6474557147	 0.104304
H	 0.8051390967	-1.1462340175	 1.6881556854	 0.067642
H	 1.7653584373	-2.450119824	-0.3836216132	 0.060843
107.5665	201.5399	240.2354	268.7536	382.1552	411.6961	504.5195	570.715	636.9109	723.9021	742.2567	786.7765	816.3894	857.7452	867.4829	921.3684	933.7439	952.259	970.7342	987.9964	1023.3872	1029.278	1060.8808	1099.5818	1122.8299	1134.175	1148.1245	1172.1252	1194.2907	1204.4718	1227.4428	1243.4498	1246.7632	1281.3941	1290.879	1314.6676	1333.9062	1347.4534	1358.208	1394.8853	1411.0357	1469.3273	1494.6606	1507.0918	1523.705	2975.396	3027.6451	3039.8367	3048.0944	3059.5787	3063.7018	3087.742	3088.3028	3094.5844	3106.8476	3111.7894	3126.78
CC1C2CC3OCC1C23	C[C@H]1[C@H]2C[C@H]3OC[C@@H]1[C@@H]23	
InChI=1S/C8H12O/c1-4-5-2-7-8(5)6(4)3-9-7/h4-8H,2-3H2,1H3	InChI=1S/C8H12O/c1-4-5-2-7-8(5)6(4)3-9-7/h4-8H,2-3H2,1H3/t4-,5+,6-,7+,8+/m0/s1
