18
gdb 48213	2.02025	1.45814	0.92046	3.8033	72.95	-0.2514	-0.0298	0.2215	1259.5903	0.14522	-439.023372	-439.014251	-439.013307	-439.058754	32.012	
O	-0.4668904877	 0.3306669205	-1.0448303009	-0.241436
C	 0.226489719	 0.5051439089	-0.0795021753	 0.178545
C	 1.1106266506	 1.7333186181	 0.1340622793	-0.102687
C	 0.6669825116	 2.4754199732	 1.3819799658	 0.088065
C	 0.6521614492	 3.9420673716	 1.4480892428	-0.178514
O	-0.5565289341	 3.2001253126	 1.2830641532	-0.23065
N	 2.4749105372	 1.2510644236	 0.3356590037	-0.085162
C	 3.2545018785	 0.9817757465	-0.8724300188	-0.222558
C	 3.5533924251	 2.1689008396	-0.0265497813	-0.221221
H	 0.2936407697	-0.2421757947	 0.7422703985	 0.088486
H	 0.9923507666	 2.385692429	-0.7460622789	 0.082667
H	 0.7966667041	 1.915779294	 2.3089318821	 0.107575
H	 0.769872117	 4.4391738386	 2.4096078472	 0.123143
H	 0.963725732	 4.5227265997	 0.5808659075	 0.11741
H	 3.8893289552	 0.1019673607	-0.8320878721	 0.125652
H	 2.7799204619	 1.1607512256	-1.8350951993	 0.129208
H	 3.2808396474	 3.1440859056	-0.4249819867	 0.116636
H	 4.4105936866	 2.1715980569	 0.6400233732	 0.12484
45.1111	64.6712	82.7391	156.2913	191.1969	232.0275	359.3252	397.1949	422.278	467.6569	517.2502	779.1914	830.7908	871.0927	878.099	906.3571	947.9829	994.1041	1018.3855	1041.029	1086.9083	1114.8242	1116.8289	1124.0024	1143.7382	1161.1536	1173.8563	1179.7187	1192.8757	1270.131	1283.2729	1301.9202	1319.3287	1414.545	1439.7942	1492.0102	1518.18	1527.978	1842.5878	2888.7868	2981.1573	3084.8118	3103.4016	3107.6215	3110.297	3173.2946	3187.1425	3201.2555
O=CC(C1CO1)N1CC1	O=C[C@@H]([C@H]1CO1)N1CC1	
InChI=1S/C6H9NO2/c8-3-5(6-4-9-6)7-1-2-7/h3,5-6H,1-2,4H2	InChI=1S/C6H9NO2/c8-3-5(6-4-9-6)7-1-2-7/h3,5-6H,1-2,4H2/t5-,6+/m0/s1
