18
gdb 49247	2.93316	1.45538	1.07608	5.373	82.14	-0.2041	-0.0278	0.1763	1116.4633	0.149445	-401.964316	-401.956533	-401.955588	-401.996991	29.713	
O	-0.1005034664	 0.1064470404	 0.4718965815	-0.313938
C	 0.0146405237	 1.3113714733	 0.3260738581	 0.055297
C	 1.2467318674	 1.9917838711	 0.028558943	 0.162715
C	 1.3800842092	 3.32933673	-0.1691937159	-0.077014
N	 2.6399321666	 3.7010833794	-0.5464612219	-0.283111
C	 3.5412595962	 2.5553808292	-0.3902665874	 0.003643
C	 4.1489469145	 2.3023839008	 1.0232764455	-0.232583
C	 3.3863338644	 0.9440379199	 1.0989577993	-0.21656
C	 2.5923943446	 1.3257368352	-0.1828568239	-0.123292
H	-0.8704394989	 1.9841728708	 0.4231540579	 0.041551
H	 0.6000618785	 4.0788605337	-0.0962964556	 0.132122
H	 2.968453258	 4.6439396663	-0.4078005507	 0.248766
H	 4.2599441665	 2.5100222207	-1.2111125395	 0.085875
H	 5.2392790126	 2.2492795036	 1.0687437272	 0.103715
H	 3.8078790024	 3.0367473385	 1.7577409512	 0.101988
H	 4.0393061173	 0.0811064315	 0.9459286913	 0.104748
H	 2.7871447022	 0.7704329817	 1.9943931206	 0.115423
H	 2.5542830411	 0.561226694	-0.9627589508	 0.090656
70.7	126.9169	166.2897	252.5157	320.2724	419.2626	438.9084	481.6689	568.4748	661.7435	715.3505	748.2791	782.6932	829.7861	880.1657	915.8972	926.8976	953.1723	997.3514	1025.2199	1043.2036	1080.9883	1114.8737	1153.7765	1185.0175	1223.6349	1245.679	1255.4685	1269.3025	1293.2009	1295.9896	1346.3779	1368.2837	1428.2402	1449.3893	1473.4701	1492.2597	1644.972	1754.8851	2840.8147	3060.2908	3066.1508	3073.4599	3085.0983	3109.8028	3128.7023	3206.1515	3627.7987
O=CC1=CNC2CCC12	O=CC1=CN[C@H]2CC[C@@H]12	
InChI=1S/C7H9NO/c9-4-5-3-8-7-2-1-6(5)7/h3-4,6-8H,1-2H2	InChI=1S/C7H9NO/c9-4-5-3-8-7-2-1-6(5)7/h3-4,6-8H,1-2H2/t6-,7-/m0/s1
