23
gdb 59048	3.0364	1.02529	0.94761	1.2714	88.55	-0.2335	0.0276	0.2611	1403.6679	0.206221	-388.305969	-388.29645	-388.295506	-388.340428	36.144	
C	 0.0130321907	 1.5454523347	 0.1065779194	-0.387451
C	-0.0505886401	 0.0106961964	-0.0231224491	-0.059775
C	-1.5120259277	-0.4767263911	-0.0116287028	-0.391715
C	 0.7161592892	-0.4926986356	-1.2311676364	 0.306698
C	 1.8450610329	-1.1954095676	-1.1177809409	-0.18166
C	 2.6049047686	-1.7205969353	-2.307008632	-0.251017
C	 1.7278294127	-1.6535575352	-3.557626216	-0.079003
O	 1.0905748708	-0.3925606024	-3.6575600283	-0.24401
C	 0.1683291648	-0.1748569396	-2.6081336068	-0.161722
H	 1.0490023013	 1.8963800107	 0.124255475	 0.118634
H	-0.4975618933	 2.0451536245	-0.7236450852	 0.115844
H	-0.4737197309	 1.8712823552	 1.0319804546	 0.111072
H	 0.4454791816	-0.4124327396	 0.859669088	 0.074532
H	-2.0869421644	-0.0480131397	-0.8396859028	 0.11731
H	-1.5677994654	-1.5667790871	-0.0915758272	 0.115553
H	-2.0078379926	-0.1784822913	 0.9179519516	 0.112131
H	 2.2507617715	-1.4061911468	-0.1299888734	 0.07587
H	 3.5246196744	-1.1382654089	-2.4586906404	 0.112388
H	 2.9238858413	-2.7565815311	-2.13294364	 0.099591
H	 2.3163034531	-1.7744378532	-4.4715318165	 0.103453
H	 0.974768812	-2.4592871559	-3.5287107038	 0.085434
H	-0.7527719008	-0.7597016197	-2.787058847	 0.094351
H	-0.1139861995	 0.8815723486	-2.6767987598	 0.113492
47.7062	105.7793	189.4852	215.8607	234.2065	254.1095	284.5621	307.0126	354.8257	446.9301	489.6351	521.3269	550.6663	628.3246	797.189	867.1232	869.7151	903.2243	926.1902	940.3906	961.0539	967.9077	1022.5219	1051.5203	1058.2733	1098.7127	1118.7084	1143.2104	1173.2973	1213.6759	1233.5635	1267.4134	1319.1794	1324.5112	1341.4432	1364.559	1371.1466	1394.8822	1407.8489	1416.8747	1423.9777	1472.5037	1483.927	1487.4048	1493.9914	1501.5092	1503.8507	1510.8388	1733.318	2933.6622	2963.0936	3007.9885	3018.6217	3029.6434	3034.0511	3042.5124	3059.5772	3085.239	3095.0485	3101.225	3105.1432	3110.3853	3138.6332
CC(C)C1=CCCOC1	CC(C)C1=CCCOC1	
InChI=1S/C8H14O/c1-7(2)8-4-3-5-9-6-8/h4,7H,3,5-6H2,1-2H3	InChI=1S/C8H14O/c1-7(2)8-4-3-5-9-6-8/h4,7H,3,5-6H2,1-2H3
