20
gdb 61661	3.03444	0.94029	0.83343	3.4091	80.24	-0.273	0.0209	0.2939	1465.5978	0.16993	-403.147732	-403.138213	-403.137269	-403.183081	34.366	
C	-1.0464211057	 1.5666714184	 0.6342994906	-0.399872
C	 0.0381410318	 0.5411863098	 0.3064878072	-0.001918
O	 0.5300817346	 0.0232932371	 1.5222548079	-0.253766
C	 1.6770866508	-0.7964759874	 1.4013415774	 0.151678
C	 3.0497446533	-0.1303045255	 1.104476122	-0.24844
C	 3.6622174569	-1.0715143117	 2.1803069679	-0.220847
C	 2.2320469513	-1.2954983088	 2.7466696593	-0.248301
C	-0.4973709288	-0.5375414715	-0.5605668491	 0.262505
N	-0.9076844773	-1.3824992277	-1.2337985187	-0.327315
H	-0.610102964	 2.3610671264	 1.2437396933	 0.135294
H	-1.4574209936	 1.9985623987	-0.2812192547	 0.137497
H	-1.8529218944	 1.0915444583	 1.1970776884	 0.148669
H	 0.8479496777	 1.0292352855	-0.2585422844	 0.118418
H	 1.4770972662	-1.6260018683	 0.7097864275	 0.095886
H	 3.4452799714	-0.1807079042	 0.087725197	 0.102564
H	 3.0446771571	 0.9107869566	 1.4417003088	 0.107718
H	 4.0746880531	-1.9816314156	 1.7375794295	 0.111674
H	 4.4070324086	-0.644007812	 2.8532886786	 0.106761
H	 1.9942676263	-0.575164277	 3.5342738208	 0.115038
H	 1.9471170644	-2.2960864812	 3.0766092707	 0.106757
44.3325	70.6875	124.3384	147.2492	213.5645	220.8487	269.6622	348.8143	390.9554	449.029	560.6104	616.8996	647.1819	763.8088	788.0467	804.6489	899.1091	921.31	925.8549	952.4145	983.7174	1057.2892	1065.7485	1113.135	1130.6169	1153.1348	1175.9127	1196.7798	1246.2513	1248.6922	1262.0846	1275.3483	1310.4521	1337.2687	1357.5668	1404.077	1409.9908	1472.3402	1481.7439	1486.7163	1495.4028	1509.2932	2351.7806	2984.8663	3018.053	3056.2008	3057.8923	3067.7231	3071.1856	3111.5613	3120.6403	3133.3704	3140.7141	3143.5181
CC(OC1CCC1)C#N	C[C@@H](OC1CCC1)C#N	
InChI=1S/C7H11NO/c1-6(5-8)9-7-3-2-4-7/h6-7H,2-4H2,1H3	InChI=1S/C7H11NO/c1-6(5-8)9-7-3-2-4-7/h6-7H,2-4H2,1H3/t6-/m1/s1
