20
gdb 96727	1.8421	1.22128	0.88302	4.3271	79.95	-0.2542	-0.016	0.2382	1418.4779	0.167288	-440.31913	-440.308212	-440.307268	-440.356164	37.321	
C	 1.5944156375	-2.8109781659	-1.7976883889	-0.333887
N	 0.7661387121	-2.0123025169	-0.9225260655	-0.297193
C	 0.5937481655	-0.774007809	-1.0693991036	 0.426016
O	-0.2219678796	-0.0990943822	-0.1652345166	-0.224902
C	-0.4374423574	-0.623264084	 1.0797759355	 0.172948
O	-1.2265483707	-0.1283197274	 1.8240628661	-0.263826
C	 1.093028336	 0.2050491334	-2.1122266218	-0.066242
C	-0.0878936958	 0.8219575204	-2.8856650506	-0.391071
C	 1.9706646979	 1.2914324736	-1.4639215797	-0.39413
H	 2.0941218256	-2.268342705	-2.6099864284	 0.114422
H	 2.3630701129	-3.3109182626	-1.1979740922	 0.136949
H	 0.9786339212	-3.6012812247	-2.2411462177	 0.138959
H	 0.1941542163	-1.4968146362	 1.283838637	 0.122185
H	 1.7081999112	-0.3549772859	-2.8210480488	 0.091813
H	-0.6909897156	 0.0508121522	-3.3743347531	 0.122539
H	-0.7384979941	 1.3887807426	-2.2153635738	 0.14567
H	 0.2872810569	 1.5001326477	-3.6580569141	 0.117906
H	 2.8271054881	 0.8550688742	-0.9404892874	 0.119704
H	 2.3539125087	 1.969680139	-2.2322090584	 0.120045
H	 1.3942861532	 1.8795345967	-0.7451681579	 0.142096
43.7066	75.4797	92.6864	102.6529	170.8975	212.1794	221.5376	245.9897	250.7186	283.6792	311.931	399.4603	486.6962	576.4689	616.2793	715.4426	827.6938	901.4036	934.6787	971.0395	1037.6002	1046.6901	1083.9452	1113.2408	1131.0774	1138.9875	1144.5037	1200.1431	1245.6838	1333.5256	1355.317	1395.5161	1396.3158	1420.7063	1450.4187	1485.4914	1487.1923	1493.662	1500.3072	1501.8644	1515.0526	1773.7575	1863.3433	3010.0201	3039.8654	3042.8898	3070.1425	3074.0993	3079.6675	3083.8913	3107.8206	3110.6563	3124.944	3132.0468
CN=C(OC=O)C(C)C	CN=C(OC=O)C(C)C	
InChI=1S/C6H11NO2/c1-5(2)6(7-3)9-4-8/h4-5H,1-3H3	InChI=1S/C6H11NO2/c1-5(2)6(7-3)9-4-8/h4-5H,1-3H3
