14
gdb 27743	2.41454	1.471	0.91932	4.3237	70.71	-0.2391	-0.0535	0.1856	1190.1813	0.100196	-473.881576	-473.873333	-473.872389	-473.915023	29.059	
C	-0.0116692502	 1.4162493692	 0.0636777323	-0.490165
C	 0.0127980511	-0.0632971046	-0.0482960026	 0.401152
N	-0.0366828445	-0.780915369	-1.1418870959	-0.384718
C	 0.0167355019	-2.0741169698	-0.6949831419	 0.287571
O	-0.0108654558	-3.1117602305	-1.5329216748	-0.40586
C	 0.0983743622	-2.1068989018	 0.677007394	 0.135403
O	 0.0942802465	-0.7794983468	 1.0783959856	-0.187129
C	 0.1773885097	-3.1781436857	 1.6370044403	 0.054186
O	 0.2456307556	-3.0455248389	 2.8415047885	-0.298227
H	 0.8937011881	 1.7797242433	 0.5598171819	 0.161622
H	-0.0790599375	 1.853153022	-0.9322766972	 0.160932
H	-0.8675894071	 1.7427464516	 0.6626765788	 0.161624
H	-0.071517153	-2.7548661797	-2.428849409	 0.316287
H	 0.169701693	-4.1778016792	 1.1520727999	 0.087321
69.5843	130.5769	149.7376	205.0764	250.4613	285.1088	397.6156	411.0227	439.7076	572.3975	641.9998	677.7955	696.3529	750.0884	863.2118	1008.7692	1018.4041	1039.4977	1065.0368	1118.8326	1223.5967	1303.0469	1345.5799	1405.3336	1429.7737	1466.5324	1473.1057	1475.9999	1592.8477	1684.2938	1774.163	2902.5373	3050.7283	3108.021	3164.8314	3789.3454
CC1=NC(O)=C(O1)C=O	Cc1nc(O)c(o1)C=O	
InChI=1S/C5H5NO3/c1-3-6-5(8)4(2-7)9-3/h2,8H,1H3	InChI=1S/C5H5NO3/c1-3-6-5(8)4(2-7)9-3/h2,8H,1H3
