19
gdb 83393	2.64938	1.32616	1.13081	2.5486	76.88	-0.2379	-0.0134	0.2245	1164.3069	0.157621	-423.017683	-423.008517	-423.007573	-423.051813	33.968	
C	 0.1367741394	 1.3636833855	 0.5299933873	-0.491789
C	-0.0258374495	 0.0465985563	-0.2063090182	 0.28067
O	 0.8645477443	-0.4174857849	-0.8914402111	-0.324575
C	-1.3217759743	-0.6616823905	-0.048988284	 0.208565
C	-2.4664255331	-0.3818329612	 0.9373200349	-0.307587
C	-2.6391075797	-1.9150752183	 1.1731345086	-0.223955
C	-1.5125759586	-2.2052470018	 0.1756272058	-0.150253
C	-1.7923809977	-1.5823491061	-1.1445431944	 0.071824
O	-3.0879648719	-1.4022241182	-1.6367279814	-0.424158
H	 1.0843838055	 1.8236186299	 0.2479264654	 0.140525
H	-0.6936486925	 2.0414528211	 0.3031406073	 0.139564
H	 0.1235643882	 1.1973621893	 1.6134332556	 0.139875
H	-2.1347197745	 0.1387461487	 1.8374761276	 0.103124
H	-3.3273550228	 0.1421960711	 0.5168182567	 0.116532
H	-2.3854157349	-2.2126946181	 2.1918141224	 0.107376
H	-3.6144650175	-2.3347437747	 0.9132573793	 0.101534
H	-0.7178550321	-2.9318589359	 0.300236626	 0.104706
H	-1.0220980222	-1.747992511	-1.8960749312	 0.117123
H	-3.4178682563	-2.2606703811	-1.9230093964	 0.290898
53.1215	127.9212	149.5073	190.0168	221.8181	249.6899	263.1857	344.2995	447.8675	480.7119	575.1696	593.7248	629.8357	754.5498	791.0417	795.2644	870.2883	931.9576	953.4616	965.873	1002.8455	1021.6447	1049.6241	1064.3975	1110.1542	1139.688	1173.7695	1226.0511	1228.7803	1249.9853	1268.4551	1297.4537	1324.1955	1340.8572	1380.9395	1452.2686	1461.0708	1470.5387	1475.6566	1499.9428	1774.8458	3034.412	3063.6618	3073.3383	3094.3799	3113.0118	3131.1428	3132.4287	3152.8753	3183.2554	3806.4458
CC(=O)C12CCC1C2O	CC(=O)[C@]12CC[C@H]1[C@H]2O	
InChI=1S/C7H10O2/c1-4(8)7-3-2-5(7)6(7)9/h5-6,9H,2-3H2,1H3	InChI=1S/C7H10O2/c1-4(8)7-3-2-5(7)6(7)9/h5-6,9H,2-3H2,1H3/t5-,6+,7+/m0/s1
