14
gdb 69632	3.75993	1.19478	1.16322	4.8277	67.1	-0.2583	-0.0138	0.2446	1062.2291	0.099286	-436.604239	-436.596763	-436.595819	-436.636011	29.022	
O	-0.145155094	 1.4287519397	-0.0558382204	-0.446797
C	-0.0723535742	 0.0565917019	-0.0182874684	 0.358999
C	-0.2960847027	-0.8626124901	-1.1870209316	-0.350376
C	-1.2261486208	-0.9212243697	 0.0089416731	-0.197699
C	-0.5441197518	-1.6551220346	 1.2104781173	 0.319362
O	 0.7849755225	-2.0746247998	 0.8448067618	-0.26164
C	 0.5784532841	-0.7071904243	 1.1923584511	-0.136862
C	-1.2058966626	-2.3171563526	 2.286371977	 0.212624
N	-1.7831983455	-2.8351676876	 3.1444089159	-0.335775
H	 0.6066929855	 1.7636400953	-0.558425546	 0.296422
H	-0.7434372959	-0.3631278663	-2.0407850355	 0.129518
H	 0.3776233074	-1.678927845	-1.4146260947	 0.145785
H	-2.2892284521	-0.7350863865	-0.0422226103	 0.126862
H	 1.1544029802	-0.2809060404	 2.0054676507	 0.139575
118.2838	156.3706	272.6593	317.5167	344.329	404.5587	438.7883	482.2644	533.6673	554.0316	602.5891	660.3776	790.193	812.9906	853.2142	905.1939	918.3189	959.4557	996.8227	1004.7739	1062.1435	1092.5993	1118.231	1169.7742	1204.3823	1266.0494	1294.2835	1403.2909	1415.3789	1484.3641	2355.6797	3141.3091	3197.4849	3227.797	3237.7917	3784.6673
OC12CC1C1(OC21)C#N	O[C@]12C[C@H]1[C@]1(O[C@@H]21)C#N	
InChI=1S/C6H5NO2/c7-2-6-3-1-5(3,8)4(6)9-6/h3-4,8H,1H2	InChI=1S/C6H5NO2/c7-2-6-3-1-5(3,8)4(6)9-6/h3-4,8H,1H2/t3-,4+,5-,6-/m1/s1
