22
gdb 58531	2.03894	1.41897	1.38361	3.3585	81.92	-0.2403	0.0394	0.2797	1156.2659	0.193143	-404.382847	-404.372775	-404.371831	-404.417388	37.73	
C	 0.0078920509	 1.5783965384	-0.0414686088	-0.401434
C	-0.0001430894	 0.0392923644	-0.0166335813	-0.022012
C	 0.589597089	-0.4914902024	-1.3343608052	-0.41141
C	 0.7211075462	-0.5118148421	 1.2366186651	 0.175083
C	 0.2026445325	 0.082594049	 2.5483597446	-0.459843
C	 0.9027571001	-2.0704387816	 1.3029458813	-0.223968
N	 2.3459537921	-1.8419717575	 1.2119995359	-0.3217
C	 2.2762398285	-0.4745503996	 1.1449551221	 0.411954
O	 3.1129521278	 0.3868141323	 1.0512565661	-0.381421
H	 1.0336290289	 1.9566560716	 0.0134281041	 0.14682
H	-0.4403332005	 1.9428287823	-0.9711624988	 0.107564
H	-0.5594839366	 2.0098751433	 0.7868396505	 0.111985
H	-1.0453998679	-0.2976905547	 0.0494851707	 0.070763
H	 1.6193057457	-0.1438830977	-1.4680287085	 0.137994
H	 0.5911324916	-1.5836540991	-1.3912149475	 0.10942
H	 0.0029693595	-0.1225753011	-2.1812694309	 0.112043
H	-0.8850992158	-0.0270106054	 2.6270451043	 0.114665
H	 0.6564273719	-0.419448458	 3.4087283394	 0.117769
H	 0.445622367	 1.1447882466	 2.6231770853	 0.140425
H	 0.5800583287	-2.5233287273	 2.2462502407	 0.106937
H	 0.4846280791	-2.6377682329	 0.466905691	 0.110374
H	 3.1335669307	-2.4732000185	 1.2139294698	 0.247993
74.7884	97.5196	147.3866	219.8247	224.3781	235.9808	251.1021	299.7423	350.5089	380.2512	399.0057	429.7867	489.4426	540.1199	674.3329	744.2797	769.0991	855.3205	871.0614	932.1057	949.717	966.4681	979.5202	1000.5447	1069.2298	1099.5178	1150.4613	1162.3753	1176.6919	1193.6852	1226.2437	1258.4038	1295.5378	1344.4067	1358.9061	1390.7476	1401.9255	1414.5784	1423.7463	1488.6415	1490.4781	1496.3743	1502.5853	1509.8561	1519.1327	1536.8353	1876.8887	2991.3341	3031.619	3037.5871	3041.5289	3043.9269	3090.2901	3096.6697	3103.8122	3109.0599	3111.9337	3119.1764	3127.254	3606.4189
CC(C)C1(C)CNC1=O	CC(C)[C@@]1(C)CNC1=O	
InChI=1S/C7H13NO/c1-5(2)7(3)4-8-6(7)9/h5H,4H2,1-3H3,(H,8,9)	InChI=1S/C7H13NO/c1-5(2)7(3)4-8-6(7)9/h5H,4H2,1-3H3,(H,8,9)/t7-/m1/s1
