19
gdb 92360	2.17806	2.01116	1.5776	2.51	69.85	-0.2472	0.0671	0.3144	956.2229	0.159908	-460.173888	-460.165894	-460.16495	-460.206012	31.576	
C	 0.003471017	 1.445585132	-0.039834525	-0.486934
C	 0.0280124396	-0.0569541901	 0.0240420651	 0.471291
O	 0.5861572292	-0.5991534042	-1.172266352	-0.290764
C	 0.0295672708	-1.9146807157	-1.2846570872	-0.084211
C	-0.8204389909	-2.004391348	-0.0034302401	 0.037705
C	 0.1131962703	-2.1380093562	 1.2139248542	-0.269433
C	 0.7476527	-0.710526236	 1.2389291568	 0.080095
O	 2.14558582	-0.6625829347	 1.045358695	-0.429686
O	-1.2644377042	-0.6388645182	 0.1065844384	-0.286331
H	 1.02945412	 1.820124393	-0.0645236548	 0.144605
H	-0.5185636428	 1.7726781661	-0.9412081233	 0.133622
H	-0.5024582074	 1.8530265079	 0.8389678974	 0.123535
H	-0.5787572416	-1.9813070251	-2.1943219082	 0.103091
H	 0.8259997288	-2.6658366569	-1.3245556772	 0.104224
H	-1.6743087973	-2.6790349538	-0.0453863781	 0.08479
H	-0.4593254298	-2.3464411323	 2.1206901115	 0.102672
H	 0.8785646487	-2.9086066391	 1.0915696105	 0.103446
H	 0.4610427301	-0.1735887706	 2.1529768534	 0.071411
H	 2.5705602494	-0.915862328	 1.8699310836	 0.286873
102.7653	191.0149	238.2915	256.6171	275.2214	319.3493	374.3074	434.5137	532.2702	587.4574	626.4054	654.5839	788.5522	825.5257	859.9883	871.8597	881.8867	916.2725	957.7349	1001.1065	1022.9703	1047.7707	1061.7498	1112.8738	1124.1714	1179.2087	1187.4399	1196.5406	1223.7882	1246.7472	1300.2286	1318.3423	1328.9292	1356.3727	1372.6003	1416.7451	1433.9662	1480.7706	1483.3311	1487.5362	1522.7498	3007.8074	3026.5093	3058.3122	3064.1681	3072.4216	3116.7845	3134.464	3136.5837	3143.756	3830.047
CC12OCC(CC1O)O2	C[C@@]12OC[C@@H](C[C@H]1O)O2	
InChI=1S/C6H10O3/c1-6-5(7)2-4(9-6)3-8-6/h4-5,7H,2-3H2,1H3	InChI=1S/C6H10O3/c1-6-5(7)2-4(9-6)3-8-6/h4-5,7H,2-3H2,1H3/t4-,5-,6+/m1/s1
