15
gdb 36105	3.77102	1.19537	1.06821	3.3332	69.58	-0.2554	0.0296	0.285	1120.1392	0.109426	-420.487037	-420.479257	-420.478313	-420.519811	29.713	
C	 0.0031919381	-1.202327783	 0.1397181616	-0.437967
C	-0.0251151779	-0.0026697417	 0.0897670589	 0.299857
C	-0.0343923629	 1.4558746956	 0.0089904006	-0.480502
C	 1.3448645427	 2.0348541339	-0.1384218485	 0.425064
O	 2.1549264844	 2.2678229131	 1.0077676423	-0.248238
C	 1.9054252571	 3.3616891513	 0.119626965	-0.121531
C	 2.863197389	 3.2044716176	-1.1304458151	-0.01205
O	 3.6555310248	 2.0366377645	-0.9370388194	-0.206905
C	 2.3143295009	 1.8735204819	-1.387508778	-0.061303
H	 0.0252521082	-2.2625168448	 0.1960448391	 0.202849
H	-0.6479273483	 1.7719055817	-0.8453925396	 0.139987
H	-0.4949110108	 1.8855876408	 0.9061179185	 0.151076
H	 1.4685928045	 4.2678066184	 0.5212715465	 0.114636
H	 3.2243879926	 3.9793754743	-1.7944803756	 0.116012
H	 2.1319377476	 1.3260993862	-2.3037990262	 0.119016
56.9792	96.6981	245.6787	270.6814	335.7753	416.3772	433.9912	476.1144	627.6691	645.3103	661.6628	701.353	772.7108	774.7286	826.6348	855.4849	868.1577	932.817	957.748	978.0719	988.7878	1003.6594	1032.2281	1115.2038	1192.0991	1211.6695	1238.7284	1280.0999	1319.1851	1365.0106	1449.2674	1466.7326	2244.0792	3020.0088	3066.1604	3191.65	3197.1198	3210.0173	3505.9501
C#CCC12OC1C1OC21	C#CC[C@]12O[C@H]1[C@H]1O[C@@H]21	
InChI=1S/C7H6O2/c1-2-3-7-5-4(8-5)6(7)9-7/h1,4-6H,3H2	InChI=1S/C7H6O2/c1-2-3-7-5-4(8-5)6(7)9-7/h1,4-6H,3H2/t4-,5+,6-,7+/m0/s1
