19
gdb 107813	3.35132	1.47133	1.27614	1.5659	79.15	-0.2169	0.0227	0.2396	1037.3868	0.160486	-385.853236	-385.845711	-385.844766	-385.884992	30.594	
O	-0.0562357262	 1.4009217811	 0.1693219529	-0.423844
C	 0.0263156588	-0.0056110772	-0.0233042247	-0.199777
C	-1.3810677595	-0.5468921382	-0.068670948	 0.311332
C	-2.23241426	-0.4746159447	 1.265711102	-0.24974
C	-2.7027289595	-1.8962799895	 0.9938766348	-0.079469
C	-3.0440967402	-2.1239325318	-0.5054129066	-0.08071
C	-3.2707081367	-0.9315872349	-1.3715614316	-0.095435
C	-2.2891958586	-0.0460225052	-1.1742492725	-0.136536
C	-1.6163969568	-2.0985884554	-0.034864103	-0.141554
H	 0.8364841128	 1.7581477353	 0.1716349388	 0.288673
H	 0.5459896693	-0.2487589255	-0.964672242	 0.086973
H	 0.583687117	-0.488318463	 0.7963524362	 0.081979
H	-1.5687588372	-0.4541949276	 2.134809736	 0.100283
H	-2.9682415945	 0.3311068864	 1.3444744501	 0.095218
H	-3.0784880794	-2.5952021749	 1.7318980074	 0.083469
H	-3.5143008537	-3.0766430092	-0.72090375	 0.081741
H	-4.1356867996	-0.8067685583	-2.0113300173	 0.09309
H	-2.2119817784	 0.9528359592	-1.5838645553	 0.104566
H	-0.8846388076	-2.8881796965	-0.1637025071	 0.079742
97.4088	172.3508	244.9731	295.1972	368.9118	385.5943	411.3106	553.9115	646.1931	708.0048	729.8254	751.5069	770.5835	792.3537	831.5797	890.5789	926.4944	947.7006	964.9432	971.8627	992.7301	1012.2899	1043.0317	1053.5089	1074.2606	1085.3048	1106.9519	1132.5839	1177.2384	1209.4445	1228.8437	1256.5858	1277.2349	1279.358	1313.2028	1370.069	1379.04	1462.7369	1485.3652	1519.6152	1645.0449	2957.3997	2986.4377	3046.758	3102.105	3166.732	3174.1903	3186.7547	3200.9013	3227.6553	3830.7396
OCC12CC3C(C=C1)C23	OC[C@@]12C[C@H]3[C@@H](C=C1)[C@@H]23	
InChI=1S/C8H10O/c9-4-8-2-1-5-6(3-8)7(5)8/h1-2,5-7,9H,3-4H2	InChI=1S/C8H10O/c9-4-8-2-1-5-6(3-8)7(5)8/h1-2,5-7,9H,3-4H2/t5-,6+,7-,8+/m1/s1
