21
gdb 103432	2.2749	1.39	1.29325	1.8413	77.61	-0.2518	0.0668	0.3186	1154.4644	0.18002	-424.191397	-424.181802	-424.180858	-424.225273	36.498	
C	 0.7143662249	-0.9587062444	 1.2981702353	-0.382856
C	-0.0515023671	-0.3457058588	 0.1211649491	-0.245989
C	 0.6569904009	-0.527152215	-1.2166435837	 0.365327
O	 1.9825024406	-0.020791181	-1.1986095918	-0.486281
C	 0.7252997134	-1.9569937343	-1.7879577506	 0.003637
O	-0.6221852414	-2.3817966094	-2.0131708821	-0.25472
C	 0.0137170383	-1.5627413871	-3.008560272	 0.016153
C	-0.1172838347	-0.1030675784	-2.5486622427	-0.074061
C	-1.5161957203	 0.4943393696	-2.4984519571	-0.418925
H	 0.8104187421	-2.0433309954	 1.1811033594	 0.121821
H	 1.7227987294	-0.5429403699	 1.3697425055	 0.120559
H	 0.1953406473	-0.7718714902	 2.2427882429	 0.109914
H	-1.0473952945	-0.7921023668	 0.0462875045	 0.119571
H	-0.2062716106	 0.7296561737	 0.2936692201	 0.082961
H	 1.939489262	 0.9160931518	-0.9775359419	 0.277858
H	 1.4822540442	-2.7126886487	-1.6135492607	 0.105614
H	 0.0655645498	-1.9658719474	-4.0137496813	 0.100795
H	 0.568854259	 0.5322129861	-3.1182360848	 0.078456
H	-2.2163083782	-0.1892214648	-2.0113870346	 0.134543
H	-1.530052357	 1.4445947304	-1.9539755902	 0.111345
H	-1.8878061182	 0.6910020698	-3.5102822335	 0.11428
94.4345	128.0899	170.7792	202.4115	229.4589	262.449	271.5805	288.3005	326.7392	375.0857	482.2726	533.4132	565.6962	671.4216	747.0805	791.2846	842.9073	865.2798	874.3708	924.0115	968.82	989.8034	1020.6998	1040.1673	1050.7332	1074.9493	1105.0298	1130.7136	1141.4764	1193.568	1226.9759	1240.7115	1258.5289	1284.1423	1352.3594	1369.1949	1385.8397	1403.0789	1409.7464	1411.6311	1477.8741	1492.8932	1495.9818	1506.2334	1507.4337	3003.0084	3033.0492	3040.9404	3059.3159	3085.0667	3091.2542	3105.631	3121.0919	3123.0165	3176.7391	3194.9765	3800.0661
CCC1(O)C2OC2C1C	CC[C@@]1(O)[C@H]2O[C@H]2[C@H]1C	
InChI=1S/C7H12O2/c1-3-7(8)4(2)5-6(7)9-5/h4-6,8H,3H2,1-2H3	InChI=1S/C7H12O2/c1-3-7(8)4(2)5-6(7)9-5/h4-6,8H,3H2,1-2H3/t4-,5+,6+,7+/m1/s1
