16
gdb 70508	2.83933	1.61996	1.17326	5.6045	75.38	-0.2119	-0.0395	0.1724	1024.2502	0.124342	-437.891754	-437.883885	-437.882941	-437.923879	30.4	
O	 0.0645038068	 1.3762760308	-0.0303316019	-0.477797
C	 0.0100671902	-0.006290465	-0.0013422109	 0.34639
C	-0.4705207227	-0.7844252985	-1.2065332508	-0.352539
C	-1.3025971889	-0.7893873293	 0.0658957893	-0.08683
N	-1.052850947	-1.8434431323	 1.017240312	-0.262746
C	 0.2265178902	-1.8067819218	 1.4590919227	-0.082802
C	 0.9089623619	-0.7379530074	 0.9473844441	 0.073226
C	 2.2075426222	-0.266575937	 1.3131788576	 0.055052
O	 2.6866718161	 0.7900427442	 0.9092565391	-0.342933
H	 1.0028689326	 1.5918100505	 0.1104934777	 0.300771
H	-0.8835927119	-0.1750613744	-2.0026329306	 0.12741
H	 0.0394435626	-1.6904779642	-1.5174528193	 0.110048
H	-2.2852303243	-0.3342059127	 0.0865077063	 0.117762
H	-1.6943710367	-2.5947874001	 1.2021895774	 0.262854
H	 0.5899592086	-2.5653596746	 2.1411830429	 0.14372
H	 2.7841582503	-0.9135796082	 2.0085306445	 0.068415
101.938	206.0929	210.0414	249.7664	299.7978	371.1739	407.1378	435.0518	522.8117	527.0225	628.7336	661.5256	695.8508	787.0116	842.7371	870.7137	895.9334	930.9176	982.7289	1018.2557	1029.0749	1058.5356	1087.177	1141.8112	1195.4728	1260.5187	1296.9762	1352.1051	1391.3594	1423.0953	1436.5408	1462.2223	1484.3336	1629.2317	1716.6608	2895.5346	3126.4149	3187.7643	3218.496	3227.2144	3642.9614	3671.0455
OC12CC1NC=C2C=O	O[C@]12C[C@H]1NC=C2C=O	
InChI=1S/C6H7NO2/c8-3-4-2-7-5-1-6(4,5)9/h2-3,5,7,9H,1H2	InChI=1S/C6H7NO2/c8-3-4-2-7-5-1-6(4,5)9/h2-3,5,7,9H,1H2/t5-,6+/m1/s1
