17
gdb 65693	3.06052	0.96878	0.91707	3.5517	76.57	-0.2581	-0.0024	0.2557	1327.2312	0.132232	-421.803063	-421.793626	-421.792682	-421.837405	34.344	
C	 0.0275516606	 1.5520123908	-0.4057967212	-0.452307
C	-0.0087486234	 0.0884138689	-0.046113232	 0.395659
C	 1.2086633527	-0.7660725644	-0.1456423705	-0.327569
C	 0.6341117006	-0.4466345347	 1.2342683049	-0.277975
C	 1.3190973663	 0.4238346546	 2.1417877664	 0.335668
C	 1.8889683282	 1.157479765	 2.9061589987	-0.449339
O	-1.1969996522	-0.5726451959	-0.4605621278	-0.22331
C	-2.3026452886	-0.3886656424	 0.2980000208	 0.154397
O	-3.362984501	-0.8481010881	 0.0006145518	-0.268399
H	 0.9743597064	 1.9983854257	-0.0959744132	 0.142048
H	-0.0854107968	 1.6726543097	-1.4873434709	 0.139276
H	-0.780049551	 2.1024679999	 0.0877321136	 0.129773
H	 1.0768706297	-1.7804049373	-0.5024277729	 0.14107
H	 2.1400254869	-0.2874209576	-0.4231621358	 0.134479
H	 0.096837039	-1.2685849918	 1.6986814599	 0.129792
H	 2.3928686522	 1.8005583063	 3.584498556	 0.202493
H	-2.1068516397	 0.2094076813	 1.2066433723	 0.094242
85.8461	104.3449	136.8064	168.5493	199.7782	233.0364	314.2141	335.6745	392.6667	463.559	513.1103	525.578	595.0343	621.1663	661.642	756.0332	808.2563	919.5688	934.3203	950.8814	1015.1328	1050.2243	1073.1605	1093.5671	1114.4547	1130.565	1173.9257	1236.5562	1327.2172	1386.6589	1419.972	1424.4278	1473.9143	1484.1192	1497.5061	1867.5562	2237.1196	2975.1622	3043.9141	3109.3487	3139.0361	3149.6591	3150.724	3245.8346	3503.1242
CC1(CC1C#C)OC=O	C[C@]1(C[C@H]1C#C)OC=O	
InChI=1S/C7H8O2/c1-3-6-4-7(6,2)9-5-8/h1,5-6H,4H2,2H3	InChI=1S/C7H8O2/c1-3-6-4-7(6,2)9-5-8/h1,5-6H,4H2,2H3/t6-,7-/m1/s1
