21
gdb 113951	3.56463	0.79597	0.70979	1.2742	80.11	-0.241	0.0843	0.3253	1634.465	0.180834	-424.172935	-424.163297	-424.162353	-424.208473	34.773	
C	 0.0533379221	 1.0143589689	-0.2946210971	-0.236251
O	-0.3877466415	-0.0735739378	 0.4944101796	-0.234011
C	 0.6185598369	-0.5970895651	 1.3045970676	 0.111125
C	 0.3845889315	-1.9695423143	 1.8470527036	-0.328999
C	 1.4711028066	-1.743835544	 0.806990053	-0.029664
C	 1.2950763824	-2.299555857	-0.5922790298	-0.253486
C	 1.634566731	-3.7694587421	-0.6676743863	 0.10547
C	 2.2741450628	-4.3706149636	-1.843384993	-0.180559
O	 3.0281570153	-4.1012825976	-0.6599540438	-0.23967
H	 0.858067021	 0.722711941	-0.9839473335	 0.110274
H	-0.8059022187	 1.3614064284	-0.8732858126	 0.127112
H	 0.4177644225	 1.8427834661	 0.3316248021	 0.108298
H	 1.0946027207	 0.1423526965	 1.950983404	 0.082469
H	 0.6620635884	-2.1842452271	 2.8726907648	 0.114552
H	-0.523179362	-2.4601675289	 1.5105289147	 0.121168
H	 2.4942302903	-1.7707636689	 1.171838551	 0.097218
H	 0.259135346	-2.1479563614	-0.9168743355	 0.112695
H	 1.9393764791	-1.7598146673	-1.2969755298	 0.099104
H	 1.0294098509	-4.4192265845	-0.032746154	 0.091839
H	 2.1177685274	-5.4244094197	-2.0708177981	 0.111884
H	 2.513228367	-3.7437653216	-2.702152217	 0.109431
59.5856	77.0384	90.3524	142.6792	170.929	221.7093	272.0284	328.5537	415.4201	441.4071	491.2886	599.2378	776.349	794.6818	812.7992	858.41	866.2811	900.3735	960.2135	988.7379	1041.0673	1062.7723	1075.7902	1098.7851	1122.9652	1132.8485	1157.9151	1159.1632	1164.9026	1181.2063	1184.259	1223.4998	1257.9916	1261.5552	1294.0922	1310.5871	1385.2893	1411.7985	1446.2518	1469.3916	1476.6973	1487.3397	1494.5102	1509.2619	1530.4873	2985.2421	3028.4863	3038.1048	3072.7594	3078.7038	3083.1299	3097.9567	3118.4165	3133.2085	3147.8549	3163.6239	3221.1586
COC1CC1CC1CO1	CO[C@H]1C[C@H]1C[C@H]1CO1	
InChI=1S/C7H12O2/c1-8-7-3-5(7)2-6-4-9-6/h5-7H,2-4H2,1H3	InChI=1S/C7H12O2/c1-8-7-3-5(7)2-6-4-9-6/h5-7H,2-4H2,1H3/t5-,6+,7+/m1/s1
