17
gdb 8782	4.4633	1.28127	1.02715	3.9664	70.68	-0.2356	-0.0049	0.2307	1128.7182	0.141405	-397.210059	-397.200806	-397.199862	-397.244004	32.402	
C	 0.0368106765	 1.3957256577	 0.25206125	-0.337185
N	-0.0077764917	-0.0504305413	 0.2152323326	-0.293805
C	-1.1162951622	-0.6301148148	-0.0207704083	 0.438706
N	-2.3640428545	-0.0303811988	-0.1609017222	-0.569542
N	-1.1265907782	-2.0359337862	-0.1310496195	-0.139145
C	 0.1540432566	-2.7141240454	-0.3298971762	-0.331222
C	-2.2484621399	-2.7995419425	 0.1241826316	 0.14832
O	-2.2826553568	-4.0085850696	 0.070523983	-0.327592
H	 1.078302989	 1.7241996967	 0.2031872596	 0.130284
H	-0.4953748999	 1.8764429113	-0.587389955	 0.097038
H	-0.3859913639	 1.7982200035	 1.1846367196	 0.121801
H	-2.3337967061	 0.9773065823	-0.1878730944	 0.260433
H	-2.9683112764	-0.4169341693	-0.871419629	 0.258835
H	 0.7889367865	-2.60352085	 0.5519716685	 0.147888
H	-0.0641168736	-3.7655138491	-0.5088989164	 0.1581
H	 0.6747825593	-2.2745984188	-1.1819521215	 0.135677
H	-3.1233825847	-2.1893266656	 0.3973785175	 0.10141
70.1551	121.683	130.3196	150.2616	201.3008	272.8185	314.2102	353.0311	356.7532	413.1356	457.13	500.08	571.1704	713.0979	753.4168	841.4781	972.1272	1044.9189	1068.2489	1113.1031	1122.9144	1159.6737	1188.0222	1206.8592	1359.1847	1393.6784	1438.3091	1446.1147	1454.4586	1487.7333	1492.3184	1510.869	1512.5177	1640.9993	1737.7174	1799.5313	2949.6076	3014.1511	3014.5427	3067.144	3095.2794	3133.677	3178.5274	3572.371	3674.8087
CN=C(N)N(C)C=O	CN=C(N)N(C)C=O	
InChI=1S/C4H9N3O/c1-6-4(5)7(2)3-8/h3H,1-2H3,(H2,5,6)	InChI=1S/C4H9N3O/c1-6-4(5)7(2)3-8/h3H,1-2H3,(H2,5,6)
