20
gdb 26411	4.17724	0.94014	0.84485	2.3107	82.32	-0.1855	0.0511	0.2366	1428.078	0.170733	-403.181408	-403.172149	-403.171205	-403.215577	34.987	
C	-0.1199785984	 1.5657127717	 0.1311381836	-0.393234
C	 0.005901929	 0.0527924063	-0.0012046661	 0.1492
C	 0.7524111251	-0.5765915949	 1.1767515228	-0.394476
O	-1.3297088333	-0.4507658546	-0.0895395999	-0.288841
C	-1.5067409415	-1.6834689155	-0.6332916503	 0.350672
C	-0.5867789052	-2.5544625977	-1.1855799284	-0.218407
N	-1.2954860388	-3.6582648922	-1.6214227863	-0.248108
C	-2.6248115525	-3.4989357855	-1.3526267507	-0.062776
C	-2.7944200414	-2.2804865216	-0.7372145745	-0.269795
H	 0.8687551394	 2.0301893685	 0.190717489	 0.11155
H	-0.6522979069	 1.9834711509	-0.727257728	 0.123198
H	-0.6773482196	 1.820562596	 1.0380542847	 0.124499
H	 0.5295604303	-0.1824911252	-0.9399635605	 0.075203
H	 0.7693633115	-1.6660660701	 1.095999979	 0.125624
H	 1.7858351927	-0.2167927882	 1.211287326	 0.110393
H	 0.2618358594	-0.3104260601	 2.1184253568	 0.122224
H	 0.4811165665	-2.497928726	-1.3013176188	 0.112465
H	-0.8842669221	-4.4641905961	-2.0555577275	 0.258997
H	-3.3430097837	-4.2572079126	-1.6198463964	 0.116411
H	-3.7212518707	-1.8457302031	-0.3992193746	 0.095201
59.4007	90.9728	156.5782	206.7109	247.6756	296.5013	315.7744	371.4738	395.0822	448.8211	485.6358	624.1949	629.8613	677.4876	710.8555	744.072	812.5661	842.8476	895.9858	931.1467	940.7727	953.5943	1010.6988	1082.841	1090.4749	1151.5517	1158.5614	1173.8177	1200.5712	1280.8007	1311.8247	1373.0099	1380.1194	1398.831	1412.1824	1422.3855	1479.3837	1480.6706	1487.9353	1493.0815	1511.5503	1530.9545	1614.718	2990.726	3038.9525	3043.798	3108.3204	3117.3317	3123.1099	3125.5299	3255.1766	3273.8664	3283.5707	3698.6058
CC(C)OC1=CNC=C1	CC(C)Oc1c[nH]cc1	
InChI=1S/C7H11NO/c1-6(2)9-7-3-4-8-5-7/h3-6,8H,1-2H3	InChI=1S/C7H11NO/c1-6(2)9-7-3-4-8-5-7/h3-6,8H,1-2H3
