19
gdb 125222	4.29178	0.9899	0.86374	2.3121	83.86	-0.2197	0.0296	0.2494	1384.1986	0.160772	-382.090973	-382.082306	-382.081362	-382.125204	32.072	
C	 0.1131551977	 1.5170178228	 0.1395980395	-0.503736
C	 0.0747983052	 0.0340899777	-0.036005402	 0.395939
C	 0.3918560781	-0.7723936489	-1.1097448145	-0.405415
C	 0.1533683118	-2.1012373684	-0.6708656911	 0.371736
N	-0.2810230139	-2.1167870412	 0.5881571832	-0.309734
N	-0.3194361114	-0.8136974546	 0.9483584836	-0.257475
C	 0.3221414265	-3.3709727488	-1.4043161129	-0.074391
C	 0.0295565383	-3.4557536268	-2.8886782476	-0.26867
C	 1.4483456234	-3.5481027043	-2.4024429123	-0.268739
H	 0.8062314326	 1.816583959	 0.9344288059	 0.135633
H	 0.442621849	 1.9945391114	-0.7853469969	 0.142199
H	-0.8729549297	 1.9239393021	 0.3919213201	 0.135052
H	 0.745248053	-0.4399972063	-2.0731678898	 0.096286
H	-0.6238156919	-0.5769176194	 1.8772271054	 0.265355
H	 0.0613273208	-4.2383382915	-0.8082122768	 0.092797
H	-0.4513761484	-4.3540922277	-3.2597111445	 0.112653
H	-0.2829224277	-2.5437971343	-3.3858568821	 0.113938
H	 2.1027071601	-2.699112136	-2.5683437781	 0.113933
H	 1.9473806767	-4.5102348147	-2.4376387191	 0.112638
55.6679	64.3117	136.3928	148.6476	261.2584	316.7488	428.2513	429.2561	485.8596	573.1376	666.9236	711.6012	728.1433	790.252	797.7262	825.1805	916.4532	919.986	987.5066	1002.1996	1043.5522	1058.0321	1062.549	1064.5061	1074.9988	1137.0028	1167.7907	1179.2541	1201.5993	1220.1156	1307.4632	1356.3718	1413.9589	1438.4893	1459.492	1468.33	1483.2583	1496.7746	1512.6852	1524.0344	1617.8153	3028.6676	3077.7294	3129.3787	3130.8129	3134.8395	3173.8567	3210.303	3226.5187	3252.8019	3672.1457
CC1=CC(=NN1)C1CC1	Cc1cc(n[nH]1)C1CC1	
InChI=1S/C7H10N2/c1-5-4-7(9-8-5)6-2-3-6/h4,6H,2-3H2,1H3,(H,8,9)	InChI=1S/C7H10N2/c1-5-4-7(9-8-5)6-2-3-6/h4,6H,2-3H2,1H3,(H,8,9)
