17
gdb 38854	2.93376	1.92351	1.59374	2.4864	65.27	-0.2538	0.0756	0.3295	875.4393	0.139005	-458.951012	-458.944613	-458.943669	-458.981676	26.04	
C	-0.0058585565	 1.5551355904	-0.0457939364	-0.097418
O	 1.376474917	 1.9286151814	-0.0107799596	-0.265238
C	 2.0900852315	 0.7189173439	 0.2006533077	 0.139284
O	 1.3401236169	-0.2877101195	-0.4255300119	-0.236381
C	 0.0088288387	 0.0041866333	 0.015836862	 0.04643
C	-0.1852742428	-0.5534467387	 1.4321021787	-0.250183
C	 0.9907070297	-0.1649120033	 2.3214237615	 0.042577
O	 2.2130161204	-0.8875256128	 2.1252165583	-0.246404
C	 2.1664705503	 0.4712171613	 1.7064730046	 0.029777
H	-0.5469958479	 2.0012842268	 0.7965839074	 0.10415
H	-0.4417111502	 1.9220809173	-0.9804397581	 0.115242
H	 3.0697280806	 0.7883745454	-0.2786211061	 0.098254
H	-0.6856080597	-0.4480859366	-0.6947739574	 0.092203
H	-1.1172618235	-0.1674843431	 1.8609973861	 0.10405
H	-0.2674028424	-1.6449206755	 1.3979251456	 0.126263
H	 0.7679022903	 0.0388980715	 3.3678271674	 0.098441
H	 2.7800830977	 1.170274538	 2.2730173903	 0.098952
144.3196	235.9113	300.5279	400.3477	424.2231	475.1588	575.2769	690.8972	778.3903	794.4943	822.0099	846.9653	879.1097	894.9449	941.7483	967.1576	993.1318	1018.0109	1026.8296	1044.2555	1085.2527	1100.4579	1136.6489	1152.1415	1210.5918	1226.3069	1271.288	1294.7064	1317.7935	1334.718	1359.4975	1369.0887	1371.3007	1402.3072	1462.7835	1470.4732	1526.4109	3032.2087	3041.2529	3075.6796	3085.1626	3091.1718	3100.5243	3115.0891	3129.7052
C1OC2OC1CC1OC21	C1O[C@@H]2O[C@H]1C[C@H]1O[C@@H]21	
InChI=1S/C6H8O3/c1-3-2-7-6(8-3)5-4(1)9-5/h3-6H,1-2H2	InChI=1S/C6H8O3/c1-3-2-7-6(8-3)5-4(1)9-5/h3-6H,1-2H2/t3-,4+,5+,6+/m0/s1
