20
gdb 59153	2.65762	1.31572	1.09974	3.8295	78.72	-0.2436	-0.0089	0.2347	1196.8647	0.169731	-403.138061	-403.129017	-403.128073	-403.172025	34.039	
C	 0.6440882029	 0.1893560263	-1.2996680194	-0.398855
C	 0.0070689019	 0.0728799119	 0.0930681614	-0.002834
C	 0.0323935998	 1.4116029911	 0.8458789391	-0.390106
C	-1.4216892099	-0.4234235829	-0.0428175798	 0.01728
C	-1.8760472126	-1.8232008728	-0.05253111	-0.056331
C	-1.0568682246	-2.7389221486	 0.8550466857	-0.382264
C	-1.3617340575	-1.7048430978	 1.9512110656	 0.4035
O	-1.1015530112	-1.5833047556	 3.1073370143	-0.301111
N	-2.2416717905	-0.8943576602	 1.1268113849	-0.205922
H	 1.6788014475	 0.5370225457	-1.2234561966	 0.120347
H	 0.6465219984	-0.7725097241	-1.8223187077	 0.116957
H	 0.0980032228	 0.9079792953	-1.9218589354	 0.118502
H	 0.5901665385	-0.6511007277	 0.6736668545	 0.089418
H	-0.4054586358	 1.3107958526	 1.8426895723	 0.144342
H	 1.0591406523	 1.7735744692	 0.9563991372	 0.114776
H	-0.5354196785	 2.1754517438	 0.3020247257	 0.114822
H	-2.0358417525	 0.2438820826	-0.6475325069	 0.106816
H	-2.6634613323	-2.170957773	-0.7109184629	 0.112043
H	-1.5553393751	-3.6886266744	 1.0665591685	 0.144141
H	-0.0104213736	-2.9314133712	 0.6080506792	 0.134479
58.2043	96.6491	173.0284	223.6053	224.2557	248.4089	320.228	395.3746	446.8229	477.3909	507.7722	592.2479	673.5686	738.5219	804.462	848.5259	868.1096	924.6124	934.3147	963.3694	972.5881	999.5267	1027.2267	1067.788	1086.1837	1132.9755	1143.8305	1185.4299	1198.9434	1224.0335	1267.7004	1327.0718	1338.8586	1358.239	1399.1063	1419.659	1448.4274	1458.0434	1487.0861	1491.473	1504.291	1511.0945	1910.9216	3028.9513	3033.1018	3041.8877	3070.9187	3095.5947	3101.3525	3107.7857	3114.0363	3119.6772	3123.551	3186.2736
CC(C)C1C2CC(=O)N12	CC(C)[C@H]1[C@H]2CC(=O)N12	
InChI=1S/C7H11NO/c1-4(2)7-5-3-6(9)8(5)7/h4-5,7H,3H2,1-2H3	InChI=1S/C7H11NO/c1-4(2)7-5-3-6(9)8(5)7/h4-5,7H,3H2,1-2H3/t5-,7+,8?/m1/s1
