17
gdb 43060	3.31401	1.82681	1.59791	3.2688	74.02	-0.2232	-0.0103	0.2129	873.8436	0.138844	-384.669811	-384.663727	-384.662783	-384.700108	25.785	
O	-0.0351128432	 0.0034250824	-0.1370267482	-0.327765
C	-0.0311274966	 1.193998308	 0.0015585074	 0.438904
C	-1.1360251303	 2.2676022718	 0.020522819	-0.186609
C	-1.4413773484	 2.6218885749	 1.4952579118	-0.238628
C	-0.2313775822	 3.4424812895	 1.9075263928	-0.052161
C	 0.313017645	 4.2331551373	 0.7570110177	-0.087433
C	 1.1394750574	 3.0955274198	 1.344054192	-0.080671
C	 1.0476714596	 2.2696406635	 0.0271461293	-0.174228
C	-0.034750007	 3.3116633878	-0.4390743309	-0.049249
H	-2.0188242918	 2.0909260776	-0.5944608766	 0.088971
H	-2.3524179382	 3.2272170998	 1.5711113351	 0.10424
H	-1.5881611751	 1.7235113343	 2.1037961461	 0.118952
H	-0.2111079023	 3.8956785942	 2.8933364142	 0.090993
H	 0.4872934549	 5.3005286721	 0.7428595722	 0.091349
H	 2.0230614561	 3.1363018643	 1.9686820058	 0.0952
H	 1.9994089402	 2.116106579	-0.4821109313	 0.086458
H	-0.0672903582	 3.6823764336	-1.4595047266	 0.081676
128.2308	271.2664	404.5977	455.7406	524.8798	638.2868	670.0748	728.4772	746.4062	795.3566	808.2355	830.5145	854.1607	885.041	914.3983	931.2798	959.8204	997.8372	1004.0004	1018.4038	1041.5335	1051.6428	1069.9677	1084.6778	1125.7274	1170.7155	1186.7007	1190.1724	1220.3548	1233.9015	1261.2441	1266.872	1301.1593	1333.9046	1404.9983	1497.3001	1880.2379	3032.2216	3078.9641	3113.1214	3113.4395	3158.5344	3168.9438	3186.6153	3205.3825
O=C1C2CC3C4C3C1C24	O=C1[C@H]2C[C@@H]3[C@H]4[C@@H]3[C@@H]1[C@@H]24	
InChI=1S/C8H8O/c9-8-3-1-2-4-5(2)7(8)6(3)4/h2-7H,1H2	InChI=1S/C8H8O/c9-8-3-1-2-4-5(2)7(8)6(3)4/h2-7H,1H2/t2-,3+,4+,5-,6+,7-/m1/s1
