17
gdb 17633	3.49549	1.52635	1.2698	2.4927	64.57	-0.2458	-0.0327	0.2131	995.7909	0.141055	-400.989388	-400.98095	-400.980006	-401.02276	30.388	
C	 0.0433532777	 1.3681843268	 0.2654773286	-0.487983
C	 0.0057137175	-0.1106566672	-0.0274397073	 0.380953
O	 1.0077970997	-0.7658521333	-0.2247141192	-0.320124
C	-1.355485973	-0.823851844	-0.0795648957	-0.008832
O	-1.148537571	-2.1845260188	-0.3418007918	-0.434634
C	-2.1351629541	-0.6293623107	 1.2186207127	-0.006999
C	-3.067270265	-1.6810857721	 1.6811735513	-0.239296
N	-1.7900970668	-1.4473441105	 2.3873227357	-0.319904
H	 1.0231683143	 1.7710600903	 0.0066588022	 0.152152
H	-0.7424180181	 1.9030392201	-0.2766589917	 0.14218
H	-0.134045246	 1.5276751821	 1.3353745506	 0.169964
H	-1.9301202797	-0.3536171235	-0.8982114885	 0.097
H	-0.1865728782	-2.2699874337	-0.463662017	 0.297598
H	-2.3661751927	 0.4087086484	 1.4483926743	 0.091668
H	-3.9573223495	-1.4045019551	 2.2387076399	 0.116567
H	-3.151532427	-2.5732162592	 1.0699165143	 0.135074
H	-1.1357541982	-2.1652798596	 2.0776651216	 0.234616
73.9337	80.5512	130.0131	186.7833	253.8855	305.1428	378.1042	423.8152	511.3429	555.754	599.2905	686.2205	770.3313	837.2756	859.043	945.8661	972.2409	982.9473	1000.6999	1056.0846	1108.2621	1144.4849	1156.359	1195.4794	1217.8897	1259.6067	1277.3616	1313.9299	1349.7452	1386.3344	1392.0658	1441.4954	1465.0336	1474.1604	1501.1596	1795.2858	2943.4084	3042.7549	3106.8794	3120.6246	3130.1361	3154.4322	3216.5178	3476.3568	3636.8134
CC(=O)C(O)C1CN1	CC(=O)[C@@H](O)[C@H]1CN1	
InChI=1S/C5H9NO2/c1-3(7)5(8)4-2-6-4/h4-6,8H,2H2,1H3	InChI=1S/C5H9NO2/c1-3(7)5(8)4-2-6-4/h4-6,8H,2H2,1H3/t4-,5-/m1/s1
