18
gdb 62182	5.16713	0.59736	0.55521	0.3375	78.18	-0.2684	0.0068	0.2752	1886.7753	0.147056	-398.145624	-398.135561	-398.134617	-398.181865	34.523	
C	-0.0527577079	 1.582070461	 0.0327457025	-0.384535
C	-0.0203228639	 0.0423977318	 0.0337956802	-0.162482
C	 0.7477643423	-0.5369481907	 1.2435541692	-0.133193
N	 2.1494085481	-0.1400345021	 1.1846079808	-0.30201
C	 2.8936844393	-0.5148657471	 2.3827163718	-0.264116
C	 4.3028267709	-0.1312183363	 2.2629226495	 0.256405
N	 5.417676068	 0.1507132836	 2.157931405	-0.290183
C	-1.3761502408	-0.5146842369	 0.0057929599	 0.266007
N	-2.445882743	-0.9518853698	 0.0007075446	-0.315696
H	 0.9687128417	 1.9618874426	 0.0876281934	 0.147946
H	-0.5313118917	 1.9610798888	-0.8729752656	 0.137964
H	-0.611240566	 1.9544294251	 0.8963229356	 0.136027
H	 0.4822850426	-0.3017219495	-0.8808792569	 0.128418
H	 0.3146614323	-0.1300611579	 2.1652748423	 0.128555
H	 0.604602898	-1.6300680296	 1.2796539642	 0.111654
H	 2.5950530307	-0.5541950654	 0.3712223091	 0.236062
H	 2.4632656882	 0.0106443602	 3.244027002	 0.163572
H	 2.8531116313	-1.5930059179	 2.6214029525	 0.139607
43.2793	74.5444	94.1918	138.304	155.2699	218.2015	235.897	313.8897	322.2122	391.6754	399.2977	538.3114	561.2606	598.237	777.8689	828.6661	916.7375	922.5061	961.3444	999.3115	1038.861	1100.888	1126.2599	1145.8763	1167.6585	1230.2988	1294.5021	1311.3273	1338.9698	1364.8803	1402.0364	1423.4292	1489.3505	1493.1055	1500.4931	1502.2321	1513.6807	2359.4487	2370.9309	2946.468	2963.2042	3017.4558	3052.7444	3055.0131	3058.8102	3129.1306	3149.4184	3512.4957
CC(CNCC#N)C#N	C[C@@H](CNCC#N)C#N	
InChI=1S/C6H9N3/c1-6(4-8)5-9-3-2-7/h6,9H,3,5H2,1H3	InChI=1S/C6H9N3/c1-6(4-8)5-9-3-2-7/h6,9H,3,5H2,1H3/t6-/m1/s1
