19
gdb 32092	2.77819	1.27446	0.93352	0.8386	86.07	-0.2384	-0.0431	0.1954	1301.935	0.16	-382.138854	-382.129921	-382.128977	-382.173737	32.19	
C	-0.2858514969	 1.4598652952	-0.1105754101	-0.370307
C	 0.1729171788	 0.0024094985	 0.0577690323	-0.271919
C	 0.8513178725	-0.531190659	-1.1789105199	 0.306272
C	 2.2180373918	-0.8267621618	-1.2095022632	-0.069254
N	 2.826149028	-1.2838303512	-2.3030201441	-0.235484
C	 2.0586640355	-1.4481794205	-3.3794551975	-0.060669
C	 0.6897922675	-1.1616396519	-3.376131305	 0.307424
C	-0.1682298307	-1.3561466802	-4.5962805099	-0.472655
N	 0.0960355932	-0.7028609433	-2.2692356088	-0.348439
H	 0.5673058252	 2.1253227398	-0.2777122349	 0.117427
H	-0.9570476871	 1.5472353162	-0.9691300684	 0.137154
H	-0.8166479193	 1.8057085876	 0.7812497897	 0.114467
H	 0.8520911446	-0.0836124335	 0.912732239	 0.10297
H	-0.6988353718	-0.6263003555	 0.2716978655	 0.11958
H	 2.8336754614	-0.6906971056	-0.3233673654	 0.107134
H	 2.5437167405	-1.8216462701	-4.2782142438	 0.107137
H	-0.9654052436	-2.0780915168	-4.3919288734	 0.142861
H	-0.6524479883	-0.4154733661	-4.8766298071	 0.142369
H	 0.4174431989	-1.7152122618	-5.446065345	 0.123933
34.086	61.6087	133.9456	197.7907	209.7564	281.4592	320.4709	409.7267	468.6508	545.2709	564.8959	629.29	711.745	781.671	800.2881	900.6127	926.1548	967.3087	988.6981	1017.8759	1044.7717	1060.2701	1084.6196	1091.6049	1202.8389	1231.9146	1258.7167	1295.3145	1297.4179	1361.3	1402.3961	1410.147	1445.3395	1464.1675	1475.8455	1479.6295	1496.0451	1497.5716	1509.4316	1583.3619	1615.6561	3038.0364	3039.8961	3042.3427	3078.1128	3103.3411	3109.8479	3124.2611	3126.4881	3152.9061	3157.0564
CCC1=CN=CC(C)=N1	CCc1cncc(C)n1	
InChI=1S/C7H10N2/c1-3-7-5-8-4-6(2)9-7/h4-5H,3H2,1-2H3	InChI=1S/C7H10N2/c1-3-7-5-8-4-6(2)9-7/h4-5H,3H2,1-2H3
