17
gdb 116549	1.86058	1.28171	0.79067	4.6882	82.94	-0.2421	-0.0456	0.1965	1427.3541	0.13311	-417.995682	-417.985587	-417.984643	-418.032269	34.885	
C	 0.0144466834	 1.6430443264	 0.1065174334	-0.361646
C	 0.0847833684	 0.1205247256	-0.0447512404	-0.147877
N	-1.245484735	-0.4485928509	 0.03436095	-0.245548
C	-1.7037891625	-1.1660198764	-0.9049437997	 0.275636
N	-2.9980754575	-1.7218590009	-0.8563685075	-0.355154
C	-3.9671282546	-1.6112585904	 0.1266137506	 0.158591
O	-3.8948377503	-1.0031787937	 1.1597603996	-0.262898
C	-1.0182354765	-1.5263584062	-2.1263317275	 0.264886
C	-0.4645109503	-1.8364783854	-3.1486800507	-0.459291
H	 1.0219471752	 2.0696091841	 0.1322713363	 0.110676
H	-0.5272611874	 2.0919222151	-0.7317127629	 0.118376
H	-0.5064730165	 1.911428556	 1.0291750422	 0.13719
H	 0.6159306169	-0.1459226633	-0.9701512898	 0.097529
H	 0.6606647341	-0.2929662815	 0.7935244281	 0.115878
H	-3.2514631942	-2.2787117068	-1.6582363278	 0.261054
H	-4.8657519667	-2.1867189916	-0.1798185497	 0.076915
H	 0.0367841235	-2.1032472	-4.0472370043	 0.215684
32.8276	44.7389	122.1042	141.3733	167.9242	221.365	236.0014	297.8221	327.4818	420.1812	457.2881	576.042	595.6966	644.3916	673.2092	712.0192	724.6084	812.578	845.1764	959.5486	1021.7466	1070.4808	1099.042	1139.8605	1177.4781	1234.3373	1300.1548	1380.8419	1404.2836	1450.9539	1487.6002	1490.1501	1509.9236	1523.4891	1714.2967	1843.5043	2218.7719	2912.4083	2995.0366	3038.7733	3042.312	3112.222	3126.4412	3493.8465	3627.9879
CCN=C(NC=O)C#C	CCN=C(NC=O)C#C	
InChI=1S/C6H8N2O/c1-3-6(7-4-2)8-5-9/h1,5H,4H2,2H3,(H,7,8,9)	InChI=1S/C6H8N2O/c1-3-6(7-4-2)8-5-9/h1,5H,4H2,2H3,(H,7,8,9)
