17
gdb 45255	3.19075	1.61379	1.33747	3.9225	71.04	-0.2382	-0.0169	0.2213	967.3423	0.136995	-421.82697	-421.82004	-421.819096	-421.85841	27.681	
O	 0.1181794849	 0.328897815	-1.1635949665	-0.299938
C	 0.0804007993	 1.225936239	-0.3751653446	 0.432804
C	-1.0172300413	 1.8244686335	 0.5160403679	-0.359748
C	-0.104844489	 3.0763920353	 0.7258386539	-0.024836
C	 0.3376600974	 3.4502041171	 2.1562742511	-0.26659
C	 1.5640632996	 2.600020558	 2.4243121425	 0.057249
O	 1.3431225524	 1.1984582637	 2.2207301269	-0.257109
C	 2.0087746568	 1.9398806525	 1.1837546289	 0.027536
C	 1.0922089699	 2.3228071091	 0.0352408283	-0.187877
H	-1.9830710066	 1.9794643495	 0.0279219389	 0.122146
H	-1.1603121085	 1.233660383	 1.424984201	 0.144989
H	-0.4671268382	 3.9390756056	 0.1658078662	 0.086027
H	 0.614177059	 4.509242841	 2.2174010389	 0.108015
H	-0.450102813	 3.2753510499	 2.896967533	 0.118092
H	 2.245231387	 2.8460140068	 3.2361223063	 0.099252
H	 3.0376911607	 1.6462659437	 0.9961517957	 0.107171
H	 1.6390542898	 2.8041469972	-0.7792014985	 0.092816
86.6559	180.5143	274.3411	363.9723	404.8887	431.0235	547.9246	616.1109	687.9089	709.2958	769.9133	813.0585	835.1246	863.8238	873.8792	932.2997	947.0687	984.0651	1032.6315	1042.8379	1064.1497	1081.3124	1093.8789	1131.2216	1170.8794	1202.5824	1230.1969	1235.2605	1261.2028	1269.1055	1300.7661	1321.471	1355.9771	1417.2544	1433.6244	1477.141	1895.2327	3039.7314	3062.6787	3081.1079	3087.6345	3102.7782	3123.3791	3138.5359	3159.5699
O=C1CC2CC3OC3C12	O=C1C[C@H]2C[C@H]3O[C@H]3[C@@H]12	
InChI=1S/C7H8O2/c8-4-1-3-2-5-7(9-5)6(3)4/h3,5-7H,1-2H2	InChI=1S/C7H8O2/c8-4-1-3-2-5-7(9-5)6(3)4/h3,5-7H,1-2H2/t3-,5+,6+,7+/m0/s1
