18
gdb 81184	2.99903	1.25741	1.04389	4.4558	74.95	-0.2539	0.0267	0.2806	1178.6638	0.147399	-439.0283	-439.019906	-439.018962	-439.061771	31.605	
O	-0.0390721124	 1.473242271	-0.0410574753	-0.438499
C	-0.0074485492	 0.068831042	 0.0021236787	 0.083685
C	-0.0741161253	-0.6730479985	 1.376244832	-0.111563
C	-1.5282081068	-0.138414787	 1.5371687653	-0.287096
C	-1.3935786168	-0.6252476082	 0.0579554044	 0.407162
C	-0.6686293888	-1.8771201703	 0.5871857936	-0.285627
O	-2.3725592337	-0.6829265651	-0.9296606172	-0.243342
C	-2.8355943771	 0.5031259591	-1.3991245085	 0.088892
N	-3.753149419	 0.5053763266	-2.2648801075	-0.444859
H	 0.858762698	 1.8056235837	 0.0528508647	 0.291695
H	 0.7002689261	-0.3462303083	-0.726708834	 0.076078
H	 0.6992520601	-0.7104916508	 2.1390318543	 0.085858
H	-2.1913446833	-0.7277829515	 2.1736454589	 0.10105
H	-1.6378423963	 0.9329537012	 1.6978965318	 0.11405
H	-0.0071638475	-2.3961321184	-0.1113602531	 0.10116
H	-1.2800734115	-2.5715010175	 1.1647913539	 0.110634
H	-2.3327801676	 1.3730625596	-0.9655349373	 0.122471
H	-3.981926669	 1.4651556625	-2.5168123248	 0.22825
66.6541	97.4298	143.9432	231.6585	285.3287	315.4894	402.1636	419.0542	490.116	534.5183	633.2744	738.9433	777.531	830.75	838.4048	895.0076	931.8712	958.867	978.6159	1018.6204	1047.7107	1052.5197	1072.3249	1075.7055	1128.7115	1149.2516	1167.167	1176.7529	1206.2484	1219.2174	1238.6788	1278.4818	1293.563	1318.494	1429.0008	1436.4329	1491.5102	1538.7292	1743.4368	3027.7731	3066.1273	3079.5145	3084.9328	3139.3134	3152.7972	3160.1418	3512.195	3825.5623
OC1C2CC1(C2)OC=N	O[C@H]1[C@H]2C[C@@]1(C2)O[CH][NH]	
InChI=1S/C6H9NO2/c7-3-9-6-1-4(2-6)5(6)8/h3-5,7-8H,1-2H2	InChI=1S/C6H9NO2/c7-3-9-6-1-4(2-6)5(6)8/h3-5,7-8H,1-2H2/t4-,5-,6-/m0/s1
