16
gdb 82015	2.59345	1.4456	1.31969	2.2831	69.95	-0.2382	0.0075	0.2458	1024.2135	0.124457	-434.01541	-434.006925	-434.005981	-434.048197	32.047	
N	-0.1176191183	 1.4705443759	 0.1348853756	-0.499704
C	-0.0227838643	 0.0496356525	 0.0130555128	-0.07867
C	-1.356483117	-0.6969349049	 0.0277694155	-0.013411
N	-2.1091249458	-0.1716457894	-1.1305550701	-0.343181
C	-1.1396058468	-1.26935239	-1.3317096196	-0.103036
C	 0.2349245883	-0.6140722712	-1.4616476177	 0.271935
O	 0.3552420103	 0.2575529634	-2.5525237968	-0.453761
C	 1.3255325287	-1.5901053252	-1.4167386761	 0.211831
N	 2.2192571351	-2.3226812693	-1.3594836652	-0.336655
H	 0.7835568029	 1.9230338244	 0.0294344243	 0.229167
H	-0.744759372	 1.8287062175	-0.5789069108	 0.256055
H	 0.6938141662	-0.354750165	 0.7307179301	 0.102979
H	-1.8609893553	-1.1260217794	 0.8833066031	 0.107533
H	-3.0371521483	-0.5915540852	-1.1194695525	 0.241691
H	-1.4366389174	-2.2230091524	-1.7472512843	 0.116373
H	 1.2491725936	 0.618249398	-2.5620968783	 0.290855
115.8734	148.3994	181.835	215.4966	234.5567	285.2055	340.0618	430.9439	476.8789	512.2794	565.4633	625.9688	669.6883	755.2585	827.5808	849.7479	859.2618	917.0093	921.8726	947.7774	1026.6866	1052.8815	1097.5861	1131.3271	1142.6909	1157.5213	1211.6999	1248.526	1288.2322	1309.7943	1365.8974	1390.0192	1428.325	1647.1023	2339.3209	3097.4456	3202.087	3213.9091	3491.8541	3508.3521	3594.4945	3803.6048
NC1C2NC2C1(O)C#N	N[C@H]1[C@H]2N[C@H]2[C@]1(O)C#N	
InChI=1S/C5H7N3O/c6-1-5(9)3(7)2-4(5)8-2/h2-4,8-9H,7H2	InChI=1S/C5H7N3O/c6-1-5(9)3(7)2-4(5)8-2/h2-4,8-9H,7H2/t2-,3+,4-,5+/m1/s1
