16
gdb 126053	3.87987	1.12889	1.04187	2.1938	70.93	-0.2578	-0.0264	0.2314	1171.5514	0.125511	-434.040698	-434.032979	-434.032035	-434.073804	28.238	
C	 0.1128943006	 1.5209370603	-0.3261419672	-0.407633
C	-0.0161546148	 0.0578665693	 0.0104008521	 0.012495
N	 1.18796908	-0.7652840066	-0.1009982276	-0.318225
C	 0.5970417707	-0.5717548479	 1.2310586513	-0.154935
C	 1.3673998935	 0.1753294811	 2.2445303629	 0.41126
N	 2.385948036	 0.9589715384	 1.9904479229	-0.185257
O	 2.7491689965	 1.4413249884	 3.2567875502	-0.14731
C	 1.9061279856	 0.882774356	 4.1224294851	 0.105713
N	 1.0307446113	 0.0964965452	 3.5858707234	-0.316046
H	 1.0619617722	 1.9205431438	 0.036277583	 0.159396
H	 0.0733354103	 1.661587343	-1.4114021231	 0.123199
H	-0.7073902711	 2.0934620434	 0.1197578639	 0.116781
H	-0.957899509	-0.4006608511	-0.2914620646	 0.091375
H	 0.9730269407	-1.6981065052	-0.4418408541	 0.238777
H	 0.0365005596	-1.3874518203	 1.6796814205	 0.103982
H	 2.033229908	 1.1314894723	 5.1659783612	 0.166428
45.7473	126.9297	178.4652	209.1976	288.1328	385.9022	438.412	497.5458	630.2397	689.1937	776.9534	795.9621	861.6456	903.2589	910.9114	936.6158	982.3554	994.4107	1017.4544	1026.4862	1079.7066	1145.8572	1151.9369	1192.7631	1241.3646	1248.3917	1272.1485	1323.0253	1402.221	1436.4572	1466.4306	1493.6193	1498.0566	1535.5376	1599.0591	3038.6357	3100.1647	3104.059	3141.3005	3149.6791	3265.5709	3511.0036
CC1NC1C1=NOC=N1	C[C@H]1N[C@H]1c1nocn1	
InChI=1S/C5H7N3O/c1-3-4(7-3)5-6-2-9-8-5/h2-4,7H,1H3	InChI=1S/C5H7N3O/c1-3-4(7-3)5-6-2-9-8-5/h2-4,7H,1H3/t3-,4-/m1/s1
