21
gdb 115667	2.24591	1.04736	0.79778	0.991	88.66	-0.2319	0.0575	0.2894	1541.3393	0.180425	-387.046227	-387.035747	-387.034803	-387.083709	36.36	
C	-0.3823183604	 1.5926625745	-0.2514777215	-0.238701
O	-0.4541107	 0.447434953	 0.5672288674	-0.232188
C	-1.2953552431	-0.5415903389	 0.0581008988	 0.180298
C	-0.8371329075	-1.4082962566	-1.1461520989	-0.252849
C	-1.4588268437	-2.634044785	-0.4272009547	-0.225856
C	-1.4139128819	-1.8368502642	 0.9248457753	-0.256235
C	-0.2514322668	-2.1324763648	 1.7418252448	 0.144194
C	 0.708847301	-2.4021988552	 2.4169877858	 0.022154
C	 1.8701212503	-2.711504604	 3.2386801764	-0.496983
H	 0.2769415571	 2.3070832685	 0.2471032555	 0.127724
H	 0.0306179228	 1.3644947828	-1.2455355003	 0.10825
H	-1.3719716512	 2.0573588278	-0.3889083693	 0.102177
H	-2.302718474	-0.1331622466	-0.1270718007	 0.062076
H	-1.2065000332	-1.1521352181	-2.1414077245	 0.093739
H	 0.2541111218	-1.4726453023	-1.1656745121	 0.118232
H	-2.4885792683	-2.8233702658	-0.740518085	 0.1026
H	-0.8990468647	-3.5688547507	-0.4509699783	 0.112647
H	-2.322301036	-1.8907133169	 1.5325887933	 0.094302
H	 1.5785235008	-2.9555804291	 4.2664864703	 0.144401
H	 2.4261824282	-3.5684923454	 2.8418283338	 0.142517
H	 2.5610565889	-1.8621815328	 3.2848447239	 0.1475
20.1518	68.3957	81.0796	98.2629	157.5104	193.4622	213.9038	289.1674	306.414	398.9119	438.2229	462.6062	581.0184	668.6302	734.1887	762.4879	901.2681	917.9967	957.4006	983.5599	1039.3115	1051.7841	1053.5022	1072.232	1090.5044	1167.6875	1168.7239	1183.7563	1211.6441	1230.0676	1242.6221	1259.1886	1261.8438	1288.6527	1356.9298	1392.3991	1414.6875	1476.9041	1478.9289	1479.3839	1481.7888	1487.0797	1495.9614	1509.291	2369.1595	2959.3662	2972.7431	3020.0585	3023.0397	3051.5587	3063.15	3072.0235	3081.6017	3083.3397	3114.9657	3118.5563	3138.5222
COC1CCC1C#CC	CO[C@H]1CC[C@H]1C#CC	
InChI=1S/C8H12O/c1-3-4-7-5-6-8(7)9-2/h7-8H,5-6H2,1-2H3	InChI=1S/C8H12O/c1-3-4-7-5-6-8(7)9-2/h7-8H,5-6H2,1-2H3/t7-,8+/m1/s1
