19
gdb 84221	2.9507	1.52895	1.29323	1.7344	82.53	-0.2079	-0.0321	0.1759	1048.5152	0.158673	-385.786842	-385.779022	-385.778077	-385.818561	31.931	
C	-0.0030864503	 1.5764266873	-0.2178080446	-0.397207
C	-0.0182248836	 0.0594702643	 0.0031159321	-0.019056
C	 0.7646600601	-0.6617518756	-1.1009071228	-0.105281
C	 1.5541830712	-1.614093065	-0.5675875319	 0.041722
C	 2.9994299565	-1.2300546696	-0.2439026193	-0.322898
C	 2.3417287987	-0.9004497627	 1.1572780618	 0.362069
O	 3.0823490803	-0.8440204405	 2.3258174943	-0.449829
C	 0.8022070332	-0.4454870224	 1.2090178397	-0.114696
C	 1.2181176326	-1.8464745098	 0.9199050628	-0.176128
H	 1.0170410617	 1.9413078267	-0.3802674127	 0.112463
H	-0.6070249984	 1.8599229302	-1.0859981762	 0.116273
H	-0.4093571838	 2.0944732653	 0.6574927383	 0.114915
H	-1.0644879909	-0.2600991538	 0.1274730979	 0.07819
H	 1.0310805025	-0.1230240178	-2.0072898206	 0.092222
H	 3.7128512655	-2.0474355588	-0.086757608	 0.110161
H	 3.4519933988	-0.4352473209	-0.8448270278	 0.094357
H	 3.448124254	 0.0435795879	 2.4074433285	 0.286862
H	 0.5153906153	-0.1688379588	 2.2226904916	 0.079314
H	 0.9548107965	-2.7725600259	 1.4141462768	 0.096549
131.1752	207.6409	227.395	315.4376	339.2698	365.5414	390.737	430.5588	518.7482	545.6596	624.6244	682.862	719.8985	795.006	854.849	878.8065	898.7187	912.2417	933.8778	958.042	995.4582	1023.3047	1034.603	1052.3187	1086.2817	1106.6913	1116.3525	1163.4756	1190.2209	1213.5594	1247.7621	1262.613	1275.0251	1311.9529	1341.1643	1403.0163	1419.8803	1492.9343	1497.1729	1498.5626	1597.9999	2973.0694	3026.2408	3027.868	3090.6814	3097.1354	3100.2932	3126.6226	3151.7473	3197.562	3796.6478
CC1C=C2CC3(O)C1C23	C[C@H]1[CH][C]2C[C@@]3(O)[C@@H]1[C@@H]23	
InChI=1S/C8H10O/c1-4-2-5-3-8(9)6(4)7(5)8/h2,4,6-7,9H,3H2,1H3	InChI=1S/C8H10O/c1-4-2-5-3-8(9)6(4)7(5)8/h2,4,6-7,9H,3H2,1H3/t4-,6-,7+,8+/m0/s1
