17
gdb 7606	3.37974	1.60668	1.32096	5.4372	64.57	-0.2462	0.0231	0.2693	971.5596	0.142047	-401.028378	-401.02004	-401.019096	-401.061039	31.024	
C	-0.1259269287	 1.4941112288	-0.1289872458	-0.424355
C	 0.054599923	-0.0029339958	-0.0422337832	-0.000471
C	 1.3988671166	-0.6391619021	-0.2045197198	-0.311063
C	 0.738395736	-0.6418206623	 1.1648827516	 0.114801
N	 1.2691752167	 0.146029215	 2.2589094216	-0.609187
H	 2.2499069676	 0.369156381	 2.1425374942	 0.247543
H	 0.7588021424	 1.0095648484	 2.4038382843	 0.248688
H	 0.713256059	-1.3910563017	 3.2736430638	 0.302028
C	 0.1650319184	-1.9720969154	 1.6036171468	 0.432035
O	 0.2653138941	-2.189729176	 2.9215238956	-0.381271
O	-0.335491595	-2.762885862	 0.8438709686	-0.362429
H	 0.7431917104	 2.0348732741	 0.2593936761	 0.107402
H	-0.260862736	 1.8016957463	-1.1709653402	 0.133667
H	-1.0093561227	 1.8263528212	 0.4281819945	 0.125047
H	-0.7762517061	-0.5962454197	-0.4109676201	 0.123324
H	 1.4613474701	-1.5945623913	-0.7113387147	 0.145718
H	 2.2593877142	 0.0133505014	-0.3214358733	 0.108524
73.2749	163.0587	177.8531	211.8644	271.7102	295.6204	363.6872	399.4696	456.5974	517.6798	586.8476	731.0309	747.6577	812.9977	824.6972	845.3866	891.4146	913.5986	954.058	1031.7191	1058.5079	1084.6702	1131.6868	1188.5866	1193.9658	1229.9029	1263.2317	1327.4604	1394.2902	1419.9156	1432.6923	1472.4813	1493.7065	1503.569	1651.4927	1851.922	3029.6698	3092.4489	3100.2683	3128.0315	3169.1309	3229.863	3504.8268	3525.0172	3603.8436
CC1CC1([NH3+])C([O-])=O	C[C@H]1C[C@]1(N)C(=O)O	
InChI=1S/C5H9NO2/c1-3-2-5(3,6)4(7)8/h3H,2,6H2,1H3,(H,7,8)	InChI=1S/C5H9NO2/c1-3-2-5(3,6)4(7)8/h3H,2,6H2,1H3,(H,7,8)/t3-,5+/m0/s1
