24
gdb 118097	2.66806	0.9348	0.86676	2.145	86.38	-0.24	0.0726	0.3127	1532.8791	0.21489	-405.524684	-405.513648	-405.512704	-405.561311	40.075	
C	 0.1750033397	 1.5731987758	 0.1024374118	-0.382047
C	 0.2506853185	 0.0622285113	-0.0460991894	-0.035063
O	 0.6911379904	-0.4804696736	 1.1835489233	-0.260103
C	 0.642059522	-1.896735261	 1.2842478059	 0.069386
C	 1.7079799241	-2.580905864	 0.4188644411	-0.416537
C	 0.7782052764	-2.2327544888	 2.7647342294	 0.361974
C	 2.057710839	-1.7871649864	 3.4403457406	-0.455449
C	-0.4775534793	-2.3089670461	 3.5507264705	-0.282881
N	 0.2619473926	-3.5417974585	 3.2074778473	-0.366364
H	 1.1573747956	 1.9815266448	 0.3564803614	 0.127125
H	-0.1602229856	 2.0327022118	-0.8322965491	 0.113381
H	-0.5244168201	 1.8463015976	 0.8975007275	 0.125637
H	-0.738883438	-0.3505696402	-0.3069499789	 0.082356
H	 0.9366343521	-0.2022618182	-0.8656566552	 0.089908
H	-0.3533318757	-2.2458723341	 0.9535972823	 0.049596
H	 2.7014046802	-2.184418981	 0.6453266101	 0.129375
H	 1.714723972	-3.6594337041	 0.6057402753	 0.122206
H	 1.5148798745	-2.429371729	-0.6465701354	 0.116498
H	 2.1909567796	-0.7082308114	 3.323540631	 0.13079
H	 2.0253547424	-2.0299863158	 4.5050433346	 0.120479
H	 2.9313540219	-2.2904944243	 3.0136390593	 0.115787
H	-0.4708791485	-2.0539011767	 4.6068830291	 0.114072
H	-1.4169474498	-2.1041136987	 3.0434442891	 0.106106
H	-0.2068298141	-4.0148102594	 2.4369595983	 0.223768
50.1276	61.9711	97.6016	138.3849	190.7655	227.7947	243.2264	245.6396	293.2798	317.0466	338.2338	373.5447	457.8997	515.8215	542.1119	725.2345	823.5676	834.898	856.6184	888.7413	918.6947	960.5945	979.7778	1000.5826	1055.6429	1059.5178	1099.7281	1106.9164	1120.7355	1142.2922	1152.0598	1160.195	1188.7585	1265.213	1300.1115	1312.9111	1350.7084	1360.5523	1396.8439	1400.9068	1404.7598	1422.6586	1438.516	1482.5574	1482.9859	1490.5944	1494.9289	1500.2721	1506.3832	1513.7805	1530.6952	2929.4519	2958.3004	2994.7723	3041.7511	3044.4031	3045.583	3104.4315	3108.4428	3112.7244	3118.4883	3121.8879	3124.1544	3130.0107	3188.6202	3479.3153
CCOC(C)C1(C)CN1	CCO[C@@H](C)[C@@]1(C)CN1	
InChI=1S/C7H15NO/c1-4-9-6(2)7(3)5-8-7/h6,8H,4-5H2,1-3H3	InChI=1S/C7H15NO/c1-4-9-6(2)7(3)5-8-7/h6,8H,4-5H2,1-3H3/t6-,7+/m0/s1
