19
gdb 110993	2.70466	1.52493	1.25048	0.9605	76.29	-0.2223	0.0137	0.2359	1073.9425	0.1587	-422.978412	-422.970079	-422.969135	-423.011094	32.613	
C	 0.361776979	 1.1964496343	-0.2543667362	-0.253017
O	-0.3003343977	 0.0793737611	 0.3089120246	-0.268024
C	 0.4441734283	-0.5560692038	 1.3114943769	 0.128962
C	-0.3377757271	-1.6992911532	 2.0496719189	-0.129431
C	-0.0578681965	-2.5884601746	 0.7924866516	-0.283995
C	 1.3038746423	-1.8162898853	 0.8413886073	 0.331133
O	 2.218911501	-1.7856072678	-0.2047270527	-0.49223
C	 1.8433975689	-2.2433017113	 2.1976099542	-0.116389
C	 0.7706453917	-2.165659187	 2.9946000412	-0.097418
H	 1.3251040933	 0.9212373181	-0.7049629919	 0.113706
H	-0.2930697667	 1.6033249739	-1.0285560864	 0.127415
H	 0.546777779	 1.974928326	 0.5008795341	 0.113029
H	 0.9623965851	 0.1721731531	 1.9498635557	 0.06208
H	-1.3425578369	-1.536110108	 2.4326427102	 0.071663
H	-0.0223869571	-3.6700702602	 0.9375014021	 0.094452
H	-0.6741502725	-2.3109274817	-0.0666845795	 0.103147
H	 1.7309132223	-1.6093398521	-1.0154830267	 0.285738
H	 2.8746215285	-2.4844933907	 2.4121705253	 0.106581
H	 0.6821737951	-2.3332786907	 4.0582497312	 0.102598
88.8903	145.5909	183.8006	228.3877	325.2297	350.98	393.2403	410.29	459.8661	529.008	589.4945	655.7847	695.3879	703.0575	864.1497	870.0444	907.8334	929.4375	948.2375	981.3639	1000.3175	1025.484	1051.8382	1082.872	1105.5338	1127.375	1169.6076	1182.665	1202.1114	1215.3043	1230.9544	1251.13	1275.9432	1309.2459	1378.7062	1399.8321	1478.0916	1486.7658	1489.0624	1514.1467	1620.684	2986.9882	3019.5582	3041.989	3063.0483	3117.7199	3134.0881	3146.1823	3223.4852	3249.6102	3821.0469
COC1C2CC1(O)C=C2	CO[C@H]1[C@H]2C[C@]1(O)C=C2	
InChI=1S/C7H10O2/c1-9-6-5-2-3-7(6,8)4-5/h2-3,5-6,8H,4H2,1H3	InChI=1S/C7H10O2/c1-9-6-5-2-3-7(6,8)4-5/h2-3,5-6,8H,4H2,1H3/t5-,6+,7-/m1/s1
