19
gdb 88287	3.27394	1.0373	1.01015	4.1911	78.56	-0.2441	-0.0024	0.2418	1293.5369	0.158909	-419.177346	-419.168281	-419.167337	-419.211876	32.971	
C	 0.1708389264	 1.5585492877	-0.4965224028	-0.403953
C	-0.0121029521	 0.1224169038	-0.0722145924	 0.006592
N	 1.1837959216	-0.7086684965	 0.0037840794	-0.310726
C	 0.455172578	-0.4224250663	 1.2524447601	-0.141789
C	 1.1482643891	 0.4362625792	 2.2691897872	 0.392489
O	 2.023192256	 1.2345148707	 2.0207711484	-0.338914
N	 0.7121438443	 0.1824829041	 3.5767551977	-0.086722
C	-0.6214130299	 0.51201857	 4.0604235786	-0.234899
C	 0.5950128641	 1.2394807769	 4.5514324665	-0.214957
H	 1.0837393266	 1.9689718548	-0.0640655751	 0.167472
H	 0.2404279562	 1.6181724822	-1.5878890733	 0.118832
H	-0.6826858091	 2.1685136358	-0.1806311401	 0.10719
H	-0.9220182284	-0.3515087762	-0.442177023	 0.086296
H	 0.9894269945	-1.6629109389	-0.2874791027	 0.236331
H	-0.1483508837	-1.2166341912	 1.6842012677	 0.090798
H	-1.2869860702	 1.0473317493	 3.3873526054	 0.131113
H	-1.1023569464	-0.2367790388	 4.6838531183	 0.12727
H	 0.9889059226	 1.0192471242	 5.5391753003	 0.127946
H	 0.7652683704	 2.2525877891	 4.1975348397	 0.139631
45.3194	87.7086	162.3182	175.8383	208.3613	246.5762	285.2522	362.218	431.0127	447.1007	604.8265	726.9773	787.9802	811.1543	821.4368	861.6499	902.9299	958.5688	970.0952	1008.578	1019.7247	1046.4594	1082.6496	1118.4529	1129.7356	1134.0381	1154.179	1172.4233	1177.8257	1193.4191	1244.2678	1256.6423	1360.373	1398.3649	1434.9586	1463.5271	1495.3449	1496.4931	1499.9178	1522.204	1791.9133	3036.6971	3095.1037	3096.2853	3105.3421	3118.0516	3140.7358	3155.6331	3190.5743	3209.0551	3506.7381
CC1NC1C(=O)N1CC1	C[C@H]1N[C@H]1C(=O)N1CC1	
InChI=1S/C6H10N2O/c1-4-5(7-4)6(9)8-2-3-8/h4-5,7H,2-3H2,1H3	InChI=1S/C6H10N2O/c1-4-5(7-4)6(9)8-2-3-8/h4-5,7H,2-3H2,1H3/t4-,5-/m1/s1
