16
gdb 27762	2.15457	1.96519	1.04678	1.6699	73.55	-0.1681	0.0563	0.2243	1093.135	0.126733	-434.066037	-434.058055	-434.057111	-434.098704	29.947	
N	 0.0299120143	 1.4056687746	-0.1367788244	-0.600624
C	-0.0300765633	 0.0119187916	-0.0210537333	 0.133456
C	-1.0926811518	-0.8500815189	 0.0190813186	 0.22171
C	-2.4937845145	-1.3750988012	-0.261184654	-0.375726
C	-1.817195401	-2.797914077	-0.3077462855	-0.167719
N	-0.5455070255	-2.1319413447	 0.058542197	-0.071334
C	 0.7910592824	-2.0011185097	-0.0046795306	 0.407557
O	 1.6231518934	-3.0575120693	-0.0134273928	-0.427508
N	 1.1455259728	-0.7307835576	 0.0108241677	-0.421119
H	 0.9479921404	 1.7400637159	 0.1276558501	 0.246245
H	-0.6764818336	 1.8786260109	 0.4112141994	 0.240463
H	-3.2333448022	-1.2567488633	 0.53644755	 0.116406
H	-2.9440769058	-1.063924224	-1.2076160242	 0.124536
H	-2.1585343312	-3.5259260882	 0.4313438264	 0.128586
H	-1.7903584702	-3.2569174576	-1.2987273754	 0.134726
H	 2.5168990058	-2.6929837917	-0.022295169	 0.310345
73.0374	176.9806	190.8801	257.9352	282.4225	301.1414	391.6313	405.1661	621.0634	633.752	653.5978	691.5389	692.4122	724.2725	779.771	801.1814	906.7968	955.5755	1045.3986	1064.6207	1136.3019	1173.2651	1189.4764	1214.2078	1229.7222	1272.5062	1285.5372	1335.0911	1383.2701	1487.1226	1508.5791	1535.3317	1593.5384	1637.1734	1685.5195	3049.7132	3067.7953	3092.0004	3125.1861	3538.8874	3632.6373	3807.3289
NC1=C2CCN2C(O)=N1	Nc1c2CCn2c(O)n1	
InChI=1S/C5H7N3O/c6-4-3-1-2-8(3)5(9)7-4/h1-2,6H2,(H,7,9)	InChI=1S/C5H7N3O/c6-4-3-1-2-8(3)5(9)7-4/h1-2,6H2,(H,7,9)
