19
gdb 77168	3.37475	1.07679	0.86713	3.4479	78.	-0.2432	0.0347	0.2779	1328.7231	0.159596	-419.201192	-419.192169	-419.191225	-419.235654	32.43	
C	 0.1277538181	 1.4659412661	 0.1025490372	-0.350144
N	 0.057191911	 0.0274936006	 0.0951366391	-0.064876
C	-1.0745677092	-0.9091832038	 0.0826308871	 0.006552
C	-0.022407645	-2.0572597626	-0.0270883595	-0.413795
C	 1.035592048	-0.931166769	-0.029727383	 0.41227
O	 2.232804784	-0.8504281824	-0.1148289654	-0.371262
C	-1.9460813057	-0.8838309934	 1.3114184301	 0.015661
C	-3.2083712824	-0.0997709827	 1.3173724477	-0.247899
N	-3.2459409315	-1.5709205136	 1.29959676	-0.315484
H	 1.1844914785	 1.7424378842	 0.0759324374	 0.163835
H	-0.3721841704	 1.8992191706	-0.7731791773	 0.12567
H	-0.3266109987	 1.8880974656	 1.0058173548	 0.133019
H	-1.7031993176	-0.8029604295	-0.8148419256	 0.069751
H	 0.0252279558	-2.723746176	 0.8364459269	 0.136849
H	-0.0578555297	-2.6465427647	-0.9448901727	 0.131665
H	-1.4006397918	-0.9960836693	 2.2472086674	 0.098697
H	-3.562519136	 0.3565674613	 2.2370238214	 0.125845
H	-3.4751937031	 0.4401941	 0.4115301587	 0.111845
H	-3.4548177943	-1.9004575513	 0.3589890756	 0.2318
77.4416	81.4605	115.6365	145.1459	212.879	239.2513	315.581	375.2605	393.7118	544.6098	570.4937	718.0707	787.6269	803.2197	856.0558	895.5931	955.0842	959.5417	986.7105	1020.4003	1052.4017	1074.0671	1103.9353	1140.8067	1149.2142	1161.6303	1192.9721	1226.1605	1242.0144	1255.7011	1287.2981	1295.0966	1334.3692	1407.4983	1438.1936	1446.1625	1468.1446	1482.6946	1511.1829	1518.0131	1881.2545	2984.2239	3015.5161	3070.6842	3085.333	3105.4877	3121.6286	3130.4303	3143.4443	3192.6042	3482.7242
CN1C(CC1=O)C1CN1	CN1[C@@H](CC1=O)[C@H]1CN1	
InChI=1S/C6H10N2O/c1-8-5(2-6(8)9)4-3-7-4/h4-5,7H,2-3H2,1H3	InChI=1S/C6H10N2O/c1-8-5(2-6(8)9)4-3-7-4/h4-5,7H,2-3H2,1H3/t4-,5+/m1/s1
