19
gdb 39336	2.70965	1.90498	1.41536	2.9408	74.01	-0.2528	0.0831	0.3359	961.9143	0.162335	-423.029587	-423.022518	-423.021574	-423.06102	28.382	
C	 0.001775828	 1.4778856475	 0.049327885	-0.386391
C	 1.3155662868	 0.7326363061	-0.042037235	-0.094048
C	 2.0409668268	 0.3611771732	 1.2356867257	-0.103841
O	 1.0660359291	-0.2699117547	 2.0718020931	-0.261684
C	 0.0094753579	-0.7765112241	 1.294033103	 0.202075
O	 0.1443764962	-2.1425287503	 0.9222274888	-0.27992
C	 0.1717133924	-2.2806326039	-0.5026151387	-0.071805
C	-0.4525812684	-0.9928528563	-1.0738242861	-0.342965
C	 0.0022696347	-0.0157654145	-0.0215822035	 0.292787
H	-0.2719621729	 1.9417275564	 0.9931290313	 0.123024
H	-0.3087185255	 2.0316208519	-0.8305256397	 0.116606
H	 1.889297744	 0.8086276587	-0.9587827176	 0.092222
H	 2.8692986361	-0.3266201192	 1.012281493	 0.102996
H	 2.4439611152	 1.2116447945	 1.7965430373	 0.108557
H	-0.8850728541	-0.6900656014	 1.9216056637	 0.082919
H	 1.2080140073	-2.3948517302	-0.8531512832	 0.095578
H	-0.3799802876	-3.1878266191	-0.7654476484	 0.107842
H	-0.0941218347	-0.760185327	-2.0796083296	 0.10622
H	-1.5456458412	-1.0692044075	-1.107545819	 0.109829
122.1068	157.1725	220.2574	333.8508	375.4344	449.5319	528.4078	594.1039	665.1843	723.5617	804.3842	834.553	880.2029	909.7036	924.4336	928.4286	955.0626	973.601	982.2465	1038.4537	1043.8754	1066.478	1089.5353	1102.7965	1121.4852	1129.4564	1183.547	1226.843	1232.3533	1260.7186	1297.1025	1309.1757	1344.8017	1372.9418	1390.7178	1398.8777	1427.6183	1490.023	1491.5582	1522.8482	1526.7504	2993.874	3000.9132	3038.6102	3043.9651	3062.0769	3081.242	3103.1539	3119.5282	3175.5246	3207.8853
C1C2COC3OCCC123	C1[C@H]2CO[C@@H]3OCC[C@]123	
InChI=1S/C7H10O2/c1-2-8-6-7(1)3-5(7)4-9-6/h5-6H,1-4H2	InChI=1S/C7H10O2/c1-2-8-6-7(1)3-5(7)4-9-6/h5-6H,1-4H2/t5-,6-,7-/m0/s1
