13
gdb 132807	2.31522	1.80506	1.01428	0.8546	64.13	-0.2331	-0.0034	0.2297	1040.1168	0.088681	-505.873597	-505.866516	-505.865571	-505.905027	27.504	
O	 0.0806463153	 1.3658076879	 0.0792249567	-0.43634
C	 0.0561579629	 0.00967174	 0.0541073305	 0.301125
C	 0.050709965	-0.6762217362	-1.1600860575	 0.011268
F	 0.0703339204	 0.0433231668	-2.2961419624	-0.081175
C	 0.0257161705	-2.0631113811	-1.1939589535	 0.193684
F	 0.0214878129	-2.6730055036	-2.3795126446	-0.061799
C	 0.0056320817	-2.7942452192	-0.0153145161	-0.272276
C	 0.0110918909	-2.1079914835	 1.1979367755	-0.082887
C	 0.0360829112	-0.717737134	 1.2427415125	-0.221718
H	 0.0916508383	 1.6827957459	-0.8325997136	 0.306537
H	-0.0137080627	-3.8754855691	-0.0670657948	 0.1178
H	-0.0044683932	-2.6699420563	 2.1248160026	 0.109684
H	 0.0404577568	-0.1784239576	 2.1820253147	 0.116097
159.64	253.3774	280.4794	305.4415	307.072	449.2246	492.7157	508.4669	542.7939	581.7433	594.0309	695.5582	706.3996	781.1597	831.0614	874.0835	945.298	1049.0048	1076.1968	1176.3922	1203.6346	1264.6823	1300.0754	1348.5968	1402.1781	1521.9923	1549.7187	1652.8037	1659.9574	3191.8079	3210.368	3217.7208	3792.8412
OC1=C(F)C(F)=CC=C1	Oc1c(F)c(F)ccc1	
InChI=1S/C6H4F2O/c7-4-2-1-3-5(9)6(4)8/h1-3,9H	InChI=1S/C6H4F2O/c7-4-2-1-3-5(9)6(4)8/h1-3,9H
