17
gdb 11874	4.39591	1.66172	1.38174	3.0638	70.1	-0.2442	0.0306	0.2748	922.598	0.143436	-363.874942	-363.86792	-363.866976	-363.9062	27.445	
N	-0.0714045038	 1.175369662	 0.4406101307	-0.542523
C	-0.0290373456	 0.0153521662	-0.0538534528	 0.405008
C	-1.1342153911	-1.0194724256	 0.0006348448	-0.299042
C	-0.7471762384	-1.9970550439	-1.1198249211	-0.303043
C	 0.7624567477	-1.8371128694	-1.1507378545	 0.448067
C	 1.735620322	-2.8956962306	-0.7182190379	-0.323385
C	 1.6839101602	-2.4214540153	-2.1638911008	-0.334934
O	 1.0416165583	-0.5018613281	-0.7347886196	-0.26757
H	 0.8100030159	 1.6659690005	 0.2790997788	 0.220264
H	-1.1082668647	-1.5088853868	 0.9807445118	 0.134316
H	-2.1135798522	-0.5549835533	-0.112915812	 0.136164
H	-1.0556024239	-3.027290596	-0.9328652778	 0.112654
H	-1.1807284237	-1.6782835146	-2.0742742158	 0.11795
H	 2.5824373918	-2.5743486759	-0.1226533606	 0.128364
H	 1.3552127791	-3.8837326591	-0.4810060456	 0.116656
H	 1.2657172901	-3.0824573369	-2.9158137415	 0.119825
H	 2.4976371282	-1.7948064731	-2.5107286562	 0.13123
97.6959	134.9411	262.2293	313.2395	448.0639	461.0226	512.7354	524.7689	649.2176	754.0767	764.2636	818.6626	883.4039	891.7736	910.8564	923.4589	949.4259	982.154	998.2355	1050.895	1074.5734	1079.2743	1097.0344	1170.4693	1186.221	1192.17	1237.5879	1305.1852	1311.6922	1349.3473	1384.1476	1451.6425	1471.9445	1497.3124	1502.5405	1781.7315	3045.4755	3054.9071	3113.3566	3132.0052	3135.0036	3136.2019	3217.6196	3231.1849	3471.4621
N=C1CCC2(CC2)O1	[NH][C]1CCC2(CC2)O1	
InChI=1S/C6H9NO/c7-5-1-2-6(8-5)3-4-6/h7H,1-4H2	InChI=1S/C6H9NO/c7-5-1-2-6(8-5)3-4-6/h7H,1-4H2
