14
gdb 5540	3.38079	1.90111	1.29041	0.9672	60.97	-0.192	0.0109	0.2029	911.1345	0.107874	-415.875088	-415.867437	-415.866493	-415.907581	27.173	
C	 0.281579447	 1.3751703288	 0.177549847	-0.331439
N	-0.4198549245	 0.2524771506	-0.4567000486	-0.394903
C	 0.3402441144	-0.6083753956	-1.2291312123	 0.268691
C	 0.7326081857	-1.907983152	-1.1389210388	 0.242064
O	 0.5067368502	-2.7604671161	-0.1117796178	-0.442252
N	 1.4016392314	-2.287106697	-2.2825598446	-0.333445
C	 1.4105067877	-1.2133100644	-3.0097713219	 0.069532
O	 0.7822984341	-0.1575353921	-2.4593912774	-0.162887
H	 1.0708714862	 1.0609964729	 0.8765746251	 0.1143
H	 0.7356650582	 1.9956388937	-0.598935798	 0.14337
H	-0.4464140565	 1.9876693512	 0.7154613984	 0.124995
H	-0.9715206857	-0.2738348677	 0.2080784025	 0.247983
H	 0.8789747251	-3.6110188062	-0.3718100696	 0.305067
H	 1.8694674368	-1.0650990961	-3.973875144	 0.148923
51.2839	153.457	169.5772	272.0136	275.101	311.5766	418.7926	497.7371	622.8456	653.9394	670.0962	723.4753	778.2933	793.3938	954.2651	1036.6791	1068.5323	1140.7696	1147.617	1168.9493	1232.6224	1315.1729	1345.2799	1419.0062	1467.7881	1474.2715	1494.5678	1514.3657	1554.1533	1739.9246	2992.947	3090.2907	3128.4672	3279.0866	3578.72	3816.3136
CNC1=C(O)N=CO1	CNc1c(O)nco1	
InChI=1S/C4H6N2O2/c1-5-4-3(7)6-2-8-4/h2,5,7H,1H3	InChI=1S/C4H6N2O2/c1-5-4-3(7)6-2-8-4/h2,5,7H,1H3
