19
gdb 71159	2.60597	1.86315	1.45623	2.4893	78.35	-0.2337	0.0626	0.2963	970.891	0.160016	-381.971278	-381.96371	-381.962766	-382.002817	30.624	
C	 0.027743747	 1.5793447072	 0.0344115503	-0.527917
C	 0.0418991258	 0.0765729698	 0.0711886119	 0.181646
C	-1.2207679043	-0.7968188928	-0.0760059187	-0.178221
N	-0.5526003719	-1.8938658215	 0.7054070807	-0.157504
C	 0.8860397217	-1.8563204075	 0.2615412557	-0.124471
C	 0.3898526333	-0.8982620058	 1.2804885371	-0.100456
C	 1.0487654062	-0.7529965518	-0.7553236587	 0.387326
C	 1.349518678	-0.7311150955	-2.1976838801	-0.326561
N	 2.365911008	-0.3156868739	-1.1920819726	-0.394647
H	 1.014053135	 2.0007376699	 0.2605719102	 0.123443
H	-0.275278162	 1.9442339415	-0.9546418459	 0.124481
H	-0.6794422376	 1.9858783719	 0.7646338269	 0.128422
H	-2.0729232159	-0.4344703068	 0.5062076255	 0.103016
H	-1.5448893974	-1.0679757816	-1.0879265381	 0.097264
H	 1.4654206253	-2.7613580782	 0.3829128129	 0.103924
H	 0.5875953968	-0.7687900247	 2.3364934339	 0.09934
H	 1.5875385467	-1.6474825603	-2.7310647411	 0.122497
H	 0.8839006901	 0.0391847044	-2.8090598525	 0.109272
H	 2.4317797954	 0.7002050459	-1.1705936973	 0.229145
158.7631	188.5239	221.5556	238.0714	304.6725	371.6275	449.9807	523.2855	604.3995	632.4957	744.0244	777.2251	794.1653	841.8456	879.1754	905.6818	912.6825	927.7008	958.7174	971.9576	984.5625	1005.5065	1026.2449	1065.4067	1119.953	1133.1728	1148.744	1168.9316	1187.3259	1204.5711	1227.3681	1260.2058	1277.8779	1306.0775	1360.7721	1414.361	1432.2499	1487.9588	1494.0323	1506.5893	1518.4071	3021.1535	3030.0325	3082.8471	3093.3715	3096.034	3098.9777	3183.8687	3197.7949	3217.6197	3480.3453
CC12CN3C(C13)C21CN1	C[C@]12CN3[C@H]([C@@H]13)[C@]12CN1	
InChI=1S/C7H10N2/c1-6-3-9-4(6)5(9)7(6)2-8-7/h4-5,8H,2-3H2,1H3	InChI=1S/C7H10N2/c1-6-3-9-4(6)5(9)7(6)2-8-7/h4-5,8H,2-3H2,1H3/t4-,5+,6-,7-,9?/m0/s1
