19
gdb 92751	3.24761	1.05381	0.88195	3.4126	79.59	-0.2386	-0.0446	0.1939	1343.9523	0.157993	-423.061229	-423.052044	-423.051099	-423.095739	33.808	
C	-0.1412788174	 1.4858578228	-0.0517030709	-0.48957
C	-0.2652855442	-0.0273692757	-0.0572975786	 0.282951
O	-0.5974376494	-0.638951378	 0.9393525939	-0.309471
C	 0.0334572386	-0.7282662506	-1.335851893	 0.244596
C	-0.0419526324	-2.0586669926	-1.47447363	-0.123822
C	 0.3392526216	-2.5097352945	-2.8550682233	-0.288101
C	 0.356277971	-1.1928490555	-3.6786707247	 0.117798
O	-0.8797355896	-0.9756074921	-4.3485735313	-0.436468
C	 0.4841141972	-0.0695630408	-2.6254491689	-0.335854
H	 0.8641198473	 1.794560967	-0.3603145072	 0.134705
H	-0.841544742	 1.9289862624	-0.7692773444	 0.142189
H	-0.3534983542	 1.8655162344	 0.9480792214	 0.138654
H	-0.3258697234	-2.728546165	-0.6715864638	 0.123112
H	 1.3256583477	-2.9955741319	-2.8467298733	 0.11506
H	-0.3610181781	-3.2396611117	-3.2801197719	 0.105452
H	 1.1860083694	-1.1746287138	-4.3982236871	 0.065158
H	-1.0101228469	-1.6945926171	-4.9751697536	 0.28147
H	-0.1301119635	 0.7836465819	-2.9285352248	 0.124347
H	 1.5190674082	 0.2886698308	-2.5499156786	 0.107797
54.2244	77.9168	154.9208	186.438	192.9979	302.0748	353.6862	381.0521	405.6396	421.7058	494.9322	603.2217	616.6454	770.4868	812.726	845.4041	884.7895	905.8972	951.4993	968.9804	993.1429	1025.1976	1043.3113	1068.0266	1084.9262	1167.8976	1206.3663	1227.9596	1270.0604	1270.5328	1309.8287	1332.6093	1369.4558	1380.8719	1420.3842	1457.9752	1461.8123	1473.5168	1477.6625	1668.0637	1775.5015	2997.3057	3012.3461	3028.0438	3033.7491	3047.8217	3084.5786	3092.8255	3153.8141	3214.6407	3815.4052
CC(=O)C1=CCC(O)C1	CC(=O)C1=CC[C@@H](O)C1	
InChI=1S/C7H10O2/c1-5(8)6-2-3-7(9)4-6/h2,7,9H,3-4H2,1H3	InChI=1S/C7H10O2/c1-5(8)6-2-3-7(9)4-6/h2,7,9H,3-4H2,1H3/t7-/m1/s1
