18
gdb 79482	2.28967	1.84571	1.21015	1.2344	83.25	-0.2402	0.0315	0.2717	1062.7264	0.146705	-364.685361	-364.677403	-364.676459	-364.717537	31.431	
C	-0.1215895572	 1.5703933908	-0.0278933068	-0.424079
C	-0.0002604754	 0.0632829303	 0.0475041775	 0.002597
N	 1.1945939838	-0.5637699251	-0.6698328706	-0.191347
C	 2.0961557512	-0.2914287103	 0.5661104604	-0.053215
C	 2.5769041352	-1.743054439	 0.5931399215	-0.269767
C	 1.0861042747	-1.7981432918	 0.2606615383	-0.038719
C	 0.7071624123	-0.6202169336	 1.229192197	 0.260609
C	 0.3635647497	-0.6721867191	 2.621744171	 0.039861
C	 0.0674344913	-0.7083206034	 3.7879722661	-0.364523
H	 0.7982716822	 2.0738211157	 0.2837708996	 0.118729
H	-0.3473459163	 1.8803175996	-1.0532871826	 0.129714
H	-0.9326834716	 1.9204173298	 0.6189847135	 0.12632
H	-0.9367619955	-0.4194900016	-0.2594826556	 0.075627
H	 2.6687178633	 0.6314961868	 0.6576758716	 0.091669
H	 3.2569147298	-2.0352619221	-0.2106105077	 0.111992
H	 2.8840448559	-2.1442346509	 1.561056561	 0.111772
H	 0.447665954	-2.6408443397	-0.0103879398	 0.089539
H	-0.1931212275	-0.7410468063	 4.8170396054	 0.183221
115.7644	157.0144	194.1999	241.0505	264.9602	387.6046	469.5681	526.1841	548.0067	556.3135	628.906	653.3874	730.7347	736.6307	853.3406	876.7919	888.5024	923.2775	925.5977	947.0376	1017.5081	1041.6441	1073.8774	1078.8804	1121.31	1142.7491	1144.0552	1183.3944	1194.4415	1226.841	1242.2114	1269.2235	1315.0839	1400.0552	1417.6055	1488.294	1491.6278	1491.9195	2223.9001	3027.7104	3038.5055	3065.3851	3103.3301	3106.3222	3111.5218	3120.2299	3134.1645	3499.2454
CC1N2C3CC2C13C#C	C[C@H]1N2[C@@H]3C[C@H]2[C@]13C#C	
InChI=1S/C8H9N/c1-3-8-5(2)9-6(8)4-7(8)9/h1,5-7H,4H2,2H3	InChI=1S/C8H9N/c1-3-8-5(2)9-6(8)4-7(8)9/h1,5-7H,4H2,2H3/t5-,6-,7+,8-/m1/s1
