18
gdb 127147	4.3691	0.91882	0.89055	4.402	75.39	-0.2307	-0.0386	0.1921	1363.5879	0.146597	-435.227527	-435.218645	-435.217701	-435.262201	31.684	
C	-0.1187861718	 1.4686264305	-0.0694505753	-0.317096
N	-0.0191150585	 0.0185215524	-0.0164300017	-0.046705
C	 0.9498428384	-0.4196476673	 0.9775743616	-0.324466
C	-1.3259979917	-0.5981388398	 0.1664298337	-0.265224
C	-1.3158254619	-2.0705097643	-0.0914754085	 0.413113
C	-1.6429108748	-3.1487354921	 0.672159404	-0.205834
N	-1.4786906106	-4.2654898954	-0.1118693961	-0.111142
N	-1.085871341	-3.9433408004	-1.2613225356	-0.009038
O	-0.9656111554	-2.5150216459	-1.2983904652	-0.202097
H	 0.8672764429	 1.8930597497	-0.2792584806	 0.126606
H	-0.7952262016	 1.7671143588	-0.8762968902	 0.12346
H	-0.4875491015	 1.9173895017	 0.8730473957	 0.094517
H	 0.6771799267	-0.1199973013	 2.008134815	 0.092448
H	 1.0477581246	-1.5083077226	 0.9557081427	 0.131799
H	 1.9277636371	 0.0120134656	 0.7468236132	 0.127667
H	-1.7419656465	-0.4370094168	 1.1802402441	 0.098241
H	-2.0217759577	-0.131059072	-0.540440028	 0.133519
H	-1.9734425569	-3.207697441	 1.6948866013	 0.140234
38.2941	73.9356	113.7076	239.3345	247.8688	293.4814	322.2543	350.7013	370.2831	462.8285	649.5799	670.9119	704.4486	785.962	828.7098	861.6258	987.0107	992.4452	1041.4567	1065.4225	1070.5784	1119.3748	1122.1925	1172.2759	1207.8222	1247.245	1291.8743	1305.2707	1383.9925	1394.2826	1444.9031	1455.5204	1472.4604	1480.133	1483.2423	1497.552	1500.1419	1512.5654	1609.4264	2914.3938	2920.1061	2930.6535	3053.9333	3064.5124	3074.2112	3109.9032	3118.6668	3291.3468
CN(C)CC1=CN=NO1	CN(C)Cc1cnno1	
InChI=1S/C5H9N3O/c1-8(2)4-5-3-6-7-9-5/h3H,4H2,1-2H3	InChI=1S/C5H9N3O/c1-8(2)4-5-3-6-7-9-5/h3H,4H2,1-2H3
