15
gdb 124037	3.77664	1.63077	1.16157	3.1358	75.49	-0.1972	-0.0277	0.1695	986.0132	0.116563	-416.824491	-416.817916	-416.816972	-416.855398	25.965	
C	 0.0158797732	 1.471093645	 0.1161140371	-0.145651
O	 1.3217281696	 2.0757887789	 0.0679848195	-0.283494
C	 2.1444077957	 1.4735339421	-0.828118818	 0.249851
C	 2.015540103	 0.1429252648	-1.192738901	 0.271426
N	 3.0624997799	-0.1036657385	-2.0264535514	-0.309445
N	 3.843770187	 0.9733566997	-2.2199519863	-0.221747
C	 3.2962401919	 1.9439129989	-1.4776149819	-0.126295
C	 0.9919783693	-0.6881187306	-0.6117305646	-0.161299
C	 0.0401367641	-0.0423814452	 0.0799999311	-0.108582
H	-0.4379446354	 1.8380827523	 1.0396737695	 0.124694
H	-0.5828577593	 1.8585380358	-0.72811451	 0.109482
H	 3.2722791379	-0.9503411372	-2.5269557236	 0.272808
H	 3.7471202152	 2.9233038501	-1.4442316912	 0.118668
H	 1.0279003512	-1.7698011322	-0.6829997891	 0.102811
H	-0.7522309432	-0.5726397039	 0.59625864	 0.106772
140.8343	174.4127	342.7888	403.2508	439.6981	457.5662	521.1233	604.5331	671.036	684.7568	722.1726	755.6299	837.9635	865.1769	917.5398	958.9029	963.8163	1029.3273	1040.8003	1121.4638	1177.7468	1208.2989	1248.6464	1275.9945	1298.7035	1366.8153	1386.2017	1428.7207	1444.4648	1488.9767	1564.8355	1604.7532	1669.232	2934.77	3096.7223	3181.5785	3202.0598	3260.6425	3673.2836
C1OC2=C(NN=C2)C=C1	C1Oc2c([nH]nc2)C=C1	
InChI=1S/C6H6N2O/c1-2-5-6(9-3-1)4-7-8-5/h1-2,4H,3H2,(H,7,8)	InChI=1S/C6H6N2O/c1-2-5-6(9-3-1)4-7-8-5/h1-2,4H,3H2,(H,7,8)
