13
gdb 50052	3.27046	0.78379	0.65966	2.2879	83.24	-0.2587	-0.0557	0.203	1588.0138	0.085416	-419.347625	-419.338876	-419.337931	-419.382048	30.745	
O	-0.2076199939	 0.3275771758	 0.8462061628	-0.238383
C	 0.3286075117	 0.7452430938	-0.1467298918	 0.146006
C	 1.3873036649	 1.8036834756	-0.1129566087	-0.041221
O	 2.3156817926	 1.7865817915	-1.1956083357	-0.216755
C	 1.4038529119	 2.8835853593	-1.1451376646	-0.22782
C	 0.4177758583	 2.9952703967	-2.1808975888	 0.430455
C	-0.4023069238	 3.1479605375	-3.0581869401	-0.176252
C	-1.3272560757	 3.3081392248	-4.0410011741	 0.293852
C	-2.1487129907	 3.4511504378	-4.914122139	-0.54516
H	 0.088311741	 0.3768418221	-1.165459981	 0.10735
H	 1.7956000818	 2.0286273638	 0.8711780323	 0.127199
H	 1.8574915102	 3.8250603825	-0.8351312914	 0.137962
H	-2.8719841985	 3.5752602889	-5.6822293999	 0.202766
54.6216	96.6236	117.4843	194.5026	243.8225	314.4898	326.0548	457.8109	477.3242	520.5875	535.3051	564.2701	606.0152	620.6907	732.0811	854.8453	863.7571	996.6306	1027.2476	1097.7693	1146.7193	1179.8406	1261.5892	1330.2194	1390.3128	1430.7806	1828.4897	2184.3807	2358.4885	2929.8221	3111.7973	3138.8387	3500.042
O=CC1OC1C#CC#C	O=C[C@H]1O[C@H]1C#CC#C	
InChI=1S/C7H4O2/c1-2-3-4-6-7(5-8)9-6/h1,5-7H	InChI=1S/C7H4O2/c1-2-3-4-6-7(5-8)9-6/h1,5-7H/t6-,7+/m0/s1
