18
gdb 117325	4.35386	0.67259	0.60915	3.2076	70.3	-0.2467	-0.033	0.2137	1771.5737	0.145326	-476.272385	-476.26219	-476.261245	-476.309244	35.573	
N	 0.6575512121	 0.2543094546	-0.5013047193	-0.509546
C	-0.2554852248	 0.1818919142	 0.503137755	 0.383492
O	-0.2178533825	 0.8524142638	 1.5145785606	-0.353549
C	-1.4275761838	-0.7819410692	 0.240243915	-0.401641
C	-1.0737327509	-2.1526245791	-0.3258420491	 0.365458
O	-0.2552031207	-2.2929394606	-1.2145846787	-0.323197
C	-1.8150531747	-3.3306447937	 0.2646376371	-0.279606
C	-1.4960283485	-4.6583736544	-0.4063261194	-0.076799
O	-2.2696118117	-5.6489269474	 0.2518231516	-0.422346
H	 1.4893671731	 0.7947596873	-0.3237465954	 0.257445
H	 0.6812657034	-0.4894137115	-1.1863125104	 0.275233
H	-1.9923741939	-0.8652972651	 1.1692059612	 0.140307
H	-2.0838659805	-0.3041965229	-0.5004223348	 0.16098
H	-1.5805766287	-3.3821966812	 1.3369227767	 0.146438
H	-2.8942091523	-3.1312490904	 0.2192933224	 0.139335
H	-1.7352350358	-4.5976514456	-1.4779760612	 0.102279
H	-0.4185762133	-4.8607236407	-0.328604651	 0.105553
H	-2.0721326664	-6.4995548981	-0.1505747604	 0.290163
29.864	65.2067	87.8131	104.5289	144.0912	251.6214	269.4341	318.6979	382.6704	407.1672	470.3974	489.88	551.3684	570.6042	674.5064	738.3689	767.4661	867.1959	883.0882	930.5686	1019.6018	1058.5722	1063.9498	1106.7271	1145.0415	1175.8287	1220.5355	1252.5495	1300.9682	1306.9146	1345.6289	1369.2647	1442.1854	1445.2407	1470.3359	1522.7283	1615.9928	1778.8019	1811.2924	2994.902	3023.3619	3026.3521	3033.8832	3060.2746	3134.3356	3537.3682	3690.6504	3832.9936
NC(=O)CC(=O)CCO	NC(=O)CC(=O)CCO	
InChI=1S/C5H9NO3/c6-5(9)3-4(8)1-2-7/h7H,1-3H2,(H2,6,9)	InChI=1S/C5H9NO3/c6-5(9)3-4(8)1-2-7/h7H,1-3H2,(H2,6,9)
