18
gdb 70535	2.79165	1.49986	1.12188	4.2138	72.19	-0.2417	0.0336	0.2753	1103.4859	0.148373	-439.122014	-439.113783	-439.112839	-439.154835	31.332	
C	-0.0658287399	 1.5278391437	 0.0612326494	-0.464735
C	-0.012961574	 0.0188733627	 0.0687675529	 0.380104
C	-1.1115529914	-0.6953840591	-0.6895598146	-0.388213
C	-1.0603740122	-2.2189175396	-0.6472144748	 0.394078
O	-1.5606520312	-2.8973122381	-1.5238828481	-0.37466
N	-0.4625994382	-2.7825926324	 0.4444613064	-0.309672
C	 0.2346200358	-2.1114643876	 1.5235450099	-0.192873
C	 0.6569224897	-0.7097903691	 1.1517181289	 0.001747
O	 1.3021346564	-0.5469944367	-0.1108221078	-0.288011
H	 0.7836537966	 1.9457501332	 0.6068529932	 0.130742
H	-0.0321035298	 1.9057219614	-0.9662402929	 0.133284
H	-0.991804573	 1.8890197179	 0.5210926062	 0.123952
H	-2.0859996524	-0.3848998728	-0.2895246345	 0.130967
H	-1.1052862426	-0.4103923557	-1.7458441142	 0.140533
H	-0.4430046762	-3.7911709436	 0.4183191071	 0.24984
H	-0.3855404558	-2.0499329982	 2.4319308808	 0.113814
H	 1.1242811519	-2.6967390925	 1.787503334	 0.126082
H	 1.1025169963	-0.1472591635	 1.9730888983	 0.093022
78.5081	141.2935	188.0292	235.0734	286.1859	348.4114	398.9915	450.4958	496.1336	507.409	554.785	643.5836	707.0622	740.2596	835.8454	867.4022	908.0813	948.7178	978.822	986.46	1052.3088	1099.3019	1111.2505	1146.2193	1218.4664	1228.9477	1275.6669	1319.066	1340.9219	1355.5096	1399.9709	1414.9866	1453.2951	1469.9635	1484.4888	1490.2151	1511.0724	1528.0744	1794.5225	2980.0109	3032.3414	3037.8357	3040.5256	3091.9301	3101.1739	3105.2269	3125.1182	3618.3995
CC12CC(=O)NCC1O2	C[C@]12CC(=O)NC[C@H]1O2	
InChI=1S/C6H9NO2/c1-6-2-5(8)7-3-4(6)9-6/h4H,2-3H2,1H3,(H,7,8)	InChI=1S/C6H9NO2/c1-6-2-5(8)7-3-4(6)9-6/h4H,2-3H2,1H3,(H,7,8)/t4-,6+/m1/s1
