20
gdb 111454	2.54069	1.49335	1.04571	1.2815	80.85	-0.2207	0.0221	0.2427	1175.8451	0.171513	-403.127247	-403.11844	-403.117496	-403.160554	33.632	
C	 0.0221264391	 1.5018972801	-0.0302381502	-0.47471
C	-0.013537952	 0.0064057971	-0.0377143839	 0.310697
C	-0.1337582457	-0.7825382197	-1.1129501428	-0.163008
C	-0.078052462	-2.2237979446	-0.7423697254	-0.080464
N	 1.2276164093	-2.6128051485	-0.1247263987	-0.338343
C	 0.0693086046	-2.2614575919	 0.7328636258	-0.076322
C	 0.0927663608	-0.8215751047	 1.2459259609	-0.081313
C	 1.3306718776	-0.5390956393	 2.1025218849	-0.082518
O	 1.1905302422	 0.747144367	 2.6956885339	-0.422853
H	 0.9605480176	 1.8760085301	 0.3901077465	 0.134952
H	-0.0996835894	 1.9043919477	-1.0399218306	 0.109741
H	-0.7725034176	 1.9102257601	 0.6064190022	 0.124088
H	-0.2247678781	-0.4313854068	-2.1346797492	 0.086586
H	-0.6290433989	-2.9764164025	-1.2963324479	 0.085163
H	 1.3026142267	-3.6293341455	-0.1425892996	 0.223269
H	-0.3781621987	-3.0395991435	 1.3422928627	 0.083408
H	-0.7840506958	-0.6353883168	 1.8832623811	 0.082978
H	 1.4108847913	-1.3178511185	 2.8781356117	 0.08158
H	 2.2269020113	-0.6039859113	 1.4727260781	 0.110981
H	 2.0149808176	 0.9610965114	 3.1417229305	 0.286085
95.213	130.1718	185.2138	195.4746	225.2336	264.9607	330.5234	366.8591	459.3112	464.776	587.2807	654.8395	714.4304	797.1884	805.6107	836.9796	873.1687	901.2066	969.0507	978.3722	1022.4298	1031.8611	1057.2606	1067.0739	1082.384	1109.6596	1129.5325	1166.1276	1190.8173	1227.4661	1249.4127	1269.1771	1286.1546	1323.1378	1346.8181	1375.5155	1410.3761	1418.7102	1447.5957	1473.0425	1482.2532	1523.7012	1697.5047	2969.0119	3002.502	3028.022	3043.9185	3084.6291	3114.4151	3158.3091	3168.7352	3193.7408	3466.9248	3831.3923
CC1=CC2NC2C1CO	CC1=C[C@H]2N[C@H]2[C@H]1CO	
InChI=1S/C7H11NO/c1-4-2-6-7(8-6)5(4)3-9/h2,5-9H,3H2,1H3	InChI=1S/C7H11NO/c1-4-2-6-7(8-6)5(4)3-9/h2,5-9H,3H2,1H3/t5-,6+,7-/m0/s1
