14
gdb 132275	2.1089	1.77437	0.96939	4.2267	69.62	-0.2378	-0.0596	0.1782	1122.4341	0.100364	-478.017902	-478.010206	-478.009262	-478.050566	28.273	
C	 0.0856541481	 1.47533073	 0.0282856718	-0.474947
C	-0.049123864	-0.0089218284	-0.0059406205	 0.433468
C	-1.2029918375	-0.7023537142	-0.1422479081	-0.398507
C	-1.0572242186	-2.1228007472	-0.1456309765	 0.355679
F	-2.1703711897	-2.8260123472	-0.2775868409	-0.053752
N	 0.0406193059	-2.7674892809	-0.033742821	-0.373405
C	 1.2126358881	-2.0433285669	 0.104901372	 0.430498
N	 2.3842966833	-2.4963179398	 0.227355299	-0.525435
O	 1.1273974179	-0.6351070075	 0.1149298055	-0.232892
H	 0.7416362614	 1.8097515079	-0.7818927932	 0.163751
H	-0.8874647092	 1.9574474614	-0.0719643896	 0.143465
H	 0.550151417	 1.7873083533	 0.9692558193	 0.163725
H	-2.1644431195	-0.2229215049	-0.241338422	 0.129838
H	 2.3413266066	-3.5134028156	 0.2087183143	 0.238515
88.6372	139.3582	180.5625	221.2989	290.5732	367.7057	510.186	527.497	571.5558	571.83	644.1115	709.1254	758.2532	789.623	854.446	858.7314	962.9024	1020.8154	1048.2882	1063.3541	1130.2292	1171.6085	1245.4053	1352.2164	1413.4045	1432.3644	1466.8131	1483.5122	1628.674	1711.1105	1753.1483	3047.2443	3107.1222	3150.9887	3254.2247	3527.8157
CC1=CC(F)=NC(=N)O1	C[C@H]1C=C(F)N=C([NH])O1	
InChI=1S/C5H5FN2O/c1-3-2-4(6)8-5(7)9-3/h2,7H,1H3	InChI=1S/C5H6FN2O/c1-3-2-4(6)8-5(7)9-3/h2-3,7H,1H3/t3-/m0/s1
