14
gdb 19799	3.15118	2.75745	1.93115	3.2556	54.92	-0.2545	0.0423	0.2968	701.0756	0.107836	-419.625517	-419.619413	-419.618468	-419.655592	24.045	
O	-0.0058566134	 1.3924625345	 0.0796776638	-0.43314
C	 0.0404455932	-0.0111787329	-0.0410167637	 0.096965
C	 0.7759372744	-0.688370551	 1.1283977874	-0.009782
O	 0.2151256135	-0.3527744514	 2.4027806308	-0.239718
C	-0.1368943864	-1.6100167768	 1.8199014413	 0.009848
C	-1.472125958	-1.5908555231	 1.0848169921	 0.009848
O	-2.1250551622	-0.3191928561	 1.1144430034	-0.239717
C	-1.3556049398	-0.6577803587	-0.045078813	-0.009781
H	-0.4629318453	 1.5624132731	 0.9143878463	 0.301184
H	 0.5554313026	-0.2318386387	-0.9822054212	 0.092214
H	 1.8574687349	-0.7976142979	 1.1085311458	 0.106234
H	 0.1827077486	-2.4958894353	 2.3605615033	 0.104806
H	-2.1192516995	-2.4628568075	 1.0932624106	 0.104806
H	-1.9193916325	-0.743411898	-0.9707413168	 0.106234
151.0649	212.1201	331.9663	427.2592	479.1047	560.7905	569.4986	704.7098	743.6892	826.6336	859.5985	862.5106	889.1828	891.9822	960.2435	972.258	1051.669	1073.2186	1091.6277	1097.0059	1117.0001	1240.6479	1264.2497	1282.7955	1287.1756	1306.1354	1340.2316	1413.972	1432.4996	1441.5527	3063.6785	3142.6538	3145.5748	3157.8636	3170.7984	3771.4692
OC1C2OC2C2OC12	O[C@H]1[C@H]2O[C@H]2[C@H]2O[C@@H]12	
InChI=1S/C5H6O3/c6-1-2-4(7-2)5-3(1)8-5/h1-6H	InChI=1S/C5H6O3/c6-1-2-4(7-2)5-3(1)8-5/h1-6H/t1-,2+,3-,4+,5-
