13
gdb 45464	2.84298	1.74762	1.24116	5.0594	58.81	-0.2574	-0.0982	0.1592	944.4499	0.089567	-493.712169	-493.705275	-493.704331	-493.744079	25.197	
O	-0.0687104852	 0.0429942849	 0.2923491067	-0.297659
C	-0.0305210153	 1.2031256663	 0.0254764325	 0.342289
O	-1.1247965021	 1.9370126201	-0.3219202784	-0.224868
C	-0.8178934133	 3.3195141631	-0.5577393915	 0.042508
C	-1.0205288813	 4.2007908108	 0.6811177886	-0.093634
O	 0.4045539881	 4.1891332547	 0.9559941663	-0.279143
C	 0.687376122	 3.5217158063	-0.2995431967	-0.0276
C	 1.2134340594	 2.1231243524	-0.0343900048	 0.291871
O	 2.3411531484	 1.7521270153	 0.1125887761	-0.255939
H	-1.2710267638	 3.6168445871	-1.5017426825	 0.122994
H	-1.3766675905	 5.2144487259	 0.4652160346	 0.124203
H	-1.6102583165	 3.753653174	 1.4861450679	 0.1386
H	 1.2909174402	 4.1192610492	-0.9860710087	 0.116378
80.8258	131.522	212.7736	325.1285	384.481	454.0452	524.9486	613.2149	652.6988	724.2448	816.4962	861.1516	895.3787	901.3059	978.8718	1009.2529	1051.5916	1072.8762	1103.8229	1165.3914	1208.2666	1245.3178	1259.2319	1284.133	1341.6766	1369.4028	1506.5746	1874.639	1892.0342	3039.0242	3095.1533	3105.2479	3134.7562
O=C1OC2COC2C1=O	O=C1O[C@H]2CO[C@H]2C1=O	
InChI=1S/C5H4O4/c6-3-4-2(1-8-4)9-5(3)7/h2,4H,1H2	InChI=1S/C5H4O4/c6-3-4-2(1-8-4)9-5(3)7/h2,4H,1H2/t2-,4+/m0/s1
