20
gdb 61565	3.24391	0.9788	0.83176	3.7719	76.5	-0.234	0.056	0.29	1419.1681	0.171335	-436.468338	-436.458337	-436.457393	-436.504522	35.673	
C	-0.1544581958	 1.3825310069	 0.1562959239	-0.341292
N	 0.0855513897	-0.0441795221	 0.022703267	-0.097355
C	 0.040353679	-0.8840148688	 1.2162453568	-0.210379
C	-1.3604434265	-1.1559396291	 1.7244858194	 0.035342
C	-1.585122654	-1.4897601986	 3.1498054191	-0.244044
N	-2.0591539069	-0.2019118628	 2.6075538853	-0.318634
C	 0.0184143377	-0.6900058469	-1.1969214159	 0.45616
N	-0.0909468437	 0.1358059545	-2.3065328495	-0.56702
O	 0.0165842567	-1.9062373297	-1.3032964957	-0.415967
H	 0.5662918653	 1.9704595864	-0.4264243079	 0.120898
H	-1.1675502082	 1.6773363002	-0.1442466934	 0.144314
H	-0.0132913967	 1.6675948451	 1.2005378898	 0.128402
H	 0.5166200248	-1.8298570785	 0.9516788966	 0.150976
H	 0.636107674	-0.4039594714	 2.0040586776	 0.086191
H	-2.0120075559	-1.6099836045	 0.9816638978	 0.113183
H	-2.36811459	-2.1879067602	 3.4303404821	 0.122598
H	-0.7248815388	-1.4879736297	 3.815777955	 0.108353
H	-1.4188468343	 0.5347717018	 2.8972009983	 0.220232
H	 0.2960640042	 1.0650970217	-2.277695486	 0.247699
H	 0.0774743794	-0.3641075944	-3.1657529602	 0.260341
40.7117	58.4529	100.0992	108.3706	148.1884	260.8767	290.2644	365.0284	391.2843	401.2675	466.146	538.0919	566.4358	598.7141	773.1032	784.7947	796.2562	830.967	927.507	941.7817	985.5234	1047.5659	1054.322	1098.3189	1126.0117	1137.064	1146.7994	1173.6516	1244.0062	1260.4146	1275.8572	1300.1946	1332.1488	1377.9136	1419.6867	1429.0287	1454.395	1489.2072	1493.7868	1514.1751	1518.1369	1623.4214	1776.5302	3007.6541	3017.8335	3057.3779	3105.4967	3119.3766	3123.2851	3144.6727	3191.2917	3481.512	3588.6772	3703.8976
CN(CC1CN1)C(N)=O	CN(C[C@H]1CN1)C(=O)N	
InChI=1S/C5H11N3O/c1-8(5(6)9)3-4-2-7-4/h4,7H,2-3H2,1H3,(H2,6,9)	InChI=1S/C5H11N3O/c1-8(5(6)9)3-4-2-7-4/h4,7H,2-3H2,1H3,(H2,6,9)/t4-/m1/s1
