14
gdb 29180	2.4295	1.81742	1.04077	5.8698	67.76	-0.1908	-0.0158	0.175	1051.1665	0.101101	-470.036627	-470.028452	-470.027508	-470.069325	30.234	
O	-0.0704707249	 1.3510936228	 0.0352761082	-0.40171
C	 0.0793551151	 0.0171161579	 0.0260426046	 0.390191
C	 1.1584939881	-0.7808336216	-0.0025719399	-0.245086
N	 0.7006619926	-2.1195606941	-0.1086577273	-0.375933
C	-0.6817082793	-2.1557458085	-0.0108272875	 0.464318
N	-1.5124907871	-3.1200642742	 0.0543757823	-0.589207
N	-1.0758809019	-0.7895095279	 0.004893288	-0.177007
C	-2.4196250181	-0.4037411017	 0.0018048656	 0.168338
O	-2.8095384383	 0.7336503976	 0.0332882321	-0.297016
H	 0.8030051721	 1.7577411701	 0.0267804829	 0.311964
H	 2.2036999009	-0.5312911221	-0.0561403514	 0.134319
H	 1.2409722523	-2.8969403461	 0.2326490956	 0.2601
H	-1.0434853501	-4.020734069	 0.0105317134	 0.214724
H	-3.0603847015	-1.2972951433	-0.0343963765	 0.142004
80.3835	178.9095	219.6534	230.7961	289.5132	321.3425	350.5149	381.9869	446.6199	568.3776	599.223	659.9868	668.7318	717.4999	735.7708	762.2298	826.0629	1039.9353	1048.0298	1101.4045	1107.1177	1186.0408	1237.7449	1295.6516	1375.5676	1396.1916	1423.289	1487.4925	1719.0862	1761.1144	1825.437	3042.7288	3283.8468	3529.5401	3656.9872	3823.5782
OC1=CNC(=N)N1C=O	OC1=CN[C@H]([NH])N1C=O	
InChI=1S/C4H5N3O2/c5-4-6-1-3(9)7(4)2-8/h1-2,9H,(H2,5,6)	InChI=1S/C4H6N3O2/c5-4-6-1-3(9)7(4)2-8/h1-2,4-6,9H/t4-/m0/s1
