17
gdb 34806	4.19239	1.31072	1.24218	3.5484	76.54	-0.2497	0.027	0.2767	1024.1765	0.139069	-380.823319	-380.816673	-380.815729	-380.854206	27.268	
N	 0.0363116286	-1.2259837283	 0.002500128	-0.335141
C	 0.0036889508	-0.0695533922	 0.0069062141	 0.255552
C	-0.0530280072	 1.3791967813	-0.0210698311	-0.163848
C	-0.1244189661	 2.0681212541	 1.3820033171	-0.055507
C	 1.4085523645	 1.7425302477	 1.4994870614	-0.231285
C	 1.3563140139	 2.0870428651	-0.0187877606	 0.003713
N	 1.1186592226	 3.5563679061	 0.0592960498	-0.104711
C	-0.2066810921	 4.0444453851	-0.3593574655	-0.252762
C	-0.0154107795	 3.5579793687	 1.0318511572	-0.034507
H	-0.7835753205	 1.6695516463	-0.7757472939	 0.114632
H	-0.8562662684	 1.7608550472	 2.1265258042	 0.091733
H	 2.0152052477	 2.4058245434	 2.1179153734	 0.115322
H	 1.6201002254	 0.6944974405	 1.7127388331	 0.137327
H	 2.1313504257	 1.8096700053	-0.7301490191	 0.098555
H	-0.2222358387	 5.1198775655	-0.5132693783	 0.126479
H	-0.8033969662	 3.5007178588	-1.0824445583	 0.12549
H	 0.0347286393	 4.2649429154	 1.8555502884	 0.108958
153.165	163.104	346.3248	376.1342	459.3272	522.1483	532.4775	563.1481	640.5781	746.7483	788.8136	846.0265	856.7891	885.7265	893.6979	901.4589	993.6762	1007.6279	1031.9394	1052.1668	1062.8011	1075.7317	1099.9798	1109.2276	1118.31	1162.4159	1196.1449	1230.2949	1230.8314	1250.9697	1255.8232	1267.9897	1354.3222	1370.1012	1501.0939	1520.2853	2349.4763	3086.368	3112.0518	3130.1256	3138.7843	3145.8181	3149.6225	3156.2645	3208.1509
N#CC1C2CC1N1CC21	N#C[C@H]1[C@H]2C[C@@H]1N1C[C@@H]21	
InChI=1S/C7H8N2/c8-2-5-4-1-6(5)9-3-7(4)9/h4-7H,1,3H2	InChI=1S/C7H8N2/c8-2-5-4-1-6(5)9-3-7(4)9/h4-7H,1,3H2/t4-,5+,6+,7+,9?/m1/s1
