16
gdb 17737	6.25061	1.72502	1.64241	2.659	69.85	-0.228	0.0785	0.3065	814.0718	0.132094	-342.641654	-342.635695	-342.634751	-342.67144	24.341	
C	 0.0266287753	 1.5737919859	-0.030208537	-0.339456
N	 1.2705075071	 0.7576583955	 0.0360639639	-0.381861
C	-0.0166184371	 0.1041076777	 0.0153615501	 0.455179
C	-0.5654761021	-0.9446079248	 0.9614786975	-0.114304
C	-1.8183001568	-1.2042614931	 0.0654222701	-0.054625
C	-1.4834408616	-2.690471577	 0.0560884268	-0.187835
N	-0.0794844797	-2.092135456	 0.0154993628	-0.158898
C	-0.6169965023	-0.9456446003	-0.8989487474	-0.13645
H	-0.1718217659	 2.1664616442	 0.8586380028	 0.123202
H	-0.2264497999	 2.064721515	-0.967169006	 0.113882
H	 1.7198794627	 0.7111312189	-0.8753149126	 0.235054
H	-0.4772520281	-1.044308559	 2.0434031832	 0.090457
H	-2.7794502885	-0.6802357831	 0.0903682456	 0.068986
H	-1.682331176	-3.2721721376	 0.9619728986	 0.103002
H	-1.7350645281	-3.2735204368	-0.8359280889	 0.100897
H	-0.594001879	-1.0461699096	-1.9857955495	 0.082769
165.1238	258.3287	296.2741	464.5207	503.4427	589.9116	714.802	784.1089	825.3662	832.2036	869.1349	876.6086	905.3821	925.0297	944.0439	968.4024	1030.8198	1034.7115	1049.9154	1066.6214	1100.8112	1111.2345	1129.8307	1156.6832	1170.8789	1186.293	1229.3928	1252.5486	1269.2189	1273.2624	1287.5614	1462.0288	1520.9461	1535.1116	3035.0178	3050.76	3095.508	3100.2067	3102.8584	3122.0003	3187.097	3498.7517
C1NC11C2C3CN2C13	C1N[C@]21[C@H]1[C@@H]3CN1[C@H]23	
InChI=1S/C6H8N2/c1-3-4-6(2-7-6)5(3)8(1)4/h3-5,7H,1-2H2	InChI=1S/C6H8N2/c1-3-4-6(2-7-6)5(3)8(1)4/h3-5,7H,1-2H2/t3-,4+,5-,6+
