15
gdb 34108	3.54868	1.54942	1.33472	3.6144	68.1	-0.2387	0.0053	0.244	938.1531	0.114926	-416.763401	-416.756787	-416.755843	-416.794361	26.24	
N	 0.0329741064	-1.1209128428	 0.054606607	-0.33138
C	 0.009803291	 0.0335386532	 0.0191768381	 0.217498
C	-0.0561787169	 1.4849364095	-0.0125886197	 0.168218
C	-1.0200417967	 2.1231905588	 1.0026674529	-0.121134
O	-1.0373485181	 3.4996196992	 0.6253000865	-0.266091
C	-0.6252341602	 3.5709579855	-0.7231213902	 0.086489
C	 0.7857154195	 3.0990970474	-1.0440113806	-0.048309
N	 1.2678474257	 2.1902283393	 0.0007586998	-0.34164
C	-0.4186101962	 2.2235037855	-1.3352432449	-0.192717
H	-2.0224507295	 1.6754792496	 0.9369079848	 0.117982
H	-0.6573209416	 2.0431288033	 2.0321546156	 0.129103
H	-1.0705978674	 4.3862517985	-1.2797352171	 0.119956
H	 1.469430472	 3.6011743499	-1.7185810298	 0.110058
H	 1.4519349192	 2.6527084689	 0.8914279872	 0.229008
H	-0.8329268971	 1.8011620642	-2.2383558596	 0.12296
151.3447	160.8423	261.4081	391.9682	475.6636	522.0715	536.4225	579.7111	678.4208	733.4778	764.0582	805.9435	834.7418	891.5764	957.265	982.0981	995.1666	1030.4077	1048.4149	1069.3457	1081.1733	1097.3748	1114.6819	1153.8416	1187.4139	1230.9738	1245.9877	1297.7969	1357.1447	1387.7726	1398.3266	1509.9205	2364.2876	3001.7658	3085.8354	3181.444	3200.4053	3232.0258	3448.34
N#CC12COC3C(N1)C23	N#C[C@@]12CO[C@H]3[C@@H](N1)[C@@H]23	
InChI=1S/C6H6N2O/c7-1-6-2-9-5-3(6)4(5)8-6/h3-5,8H,2H2	InChI=1S/C6H6N2O/c7-1-6-2-9-5-3(6)4(5)8-6/h3-5,8H,2H2/t3-,4+,5-,6+/m1/s1
