16
gdb 30052	2.75694	1.63204	1.03171	1.5636	73.86	-0.2311	-0.02	0.2112	1097.9746	0.1261	-434.148726	-434.140151	-434.139207	-434.182429	30.78	
C	-0.0299609985	 1.4717150971	 0.0084887256	-0.323026
N	-0.01048142	 0.0135244178	 0.0301660681	-0.049403
C	-0.0227680608	-0.7999136999	-1.0719813394	-0.121761
C	 0.0041315421	-2.0919058818	-0.5999351503	-0.103118
N	 0.0325964433	-2.0905795969	 0.7629982185	-0.322462
C	 0.023297302	-0.814083258	 1.1190339081	 0.269546
C	 0.0463116601	-0.3274562897	 2.5181490392	 0.335225
N	 0.0779376848	-1.3357306798	 3.424864804	-0.528306
O	 0.0372019614	 0.8612149344	 2.8077235622	-0.398276
H	 0.8576524255	 1.8721511158	 0.499061696	 0.163059
H	-0.0584230591	 1.795946837	-1.0332078593	 0.127609
H	-0.9038475301	 1.8491079989	 0.5401530561	 0.163251
H	-0.0490365388	-0.3922316554	-2.069355774	 0.134365
H	 0.0042552695	-3.0084178164	-1.1699956524	 0.114544
H	 0.0842672541	-2.2909379343	 3.106000679	 0.277181
H	 0.0964086846	-1.110713789	 4.4040871387	 0.261572
66.0383	84.5175	178.861	208.8314	210.6659	252.9751	332.5265	420.4434	518.6575	597.8116	636.6594	675.0717	690.0906	713.3228	758.5334	804.8152	853.4978	935.0227	1064.8579	1092.5966	1104.1417	1154.9586	1173.4295	1199.2945	1314.1869	1353.4604	1395.7491	1450.0211	1463.0271	1474.8092	1496.6522	1518.3678	1547.1412	1599.3003	1770.6999	3069.1956	3152.244	3154.1074	3247.447	3274.6366	3597.3303	3745.388
CN1C=CN=C1C(N)=O	Cn1ccnc1C(=O)N	
InChI=1S/C5H7N3O/c1-8-3-2-7-5(8)4(6)9/h2-3H,1H3,(H2,6,9)	InChI=1S/C5H7N3O/c1-8-3-2-7-5(8)4(6)9/h2-3H,1H3,(H2,6,9)
