20
gdb 58379	1.72913	1.33169	0.9507	3.7928	82.21	-0.2445	0.0218	0.2663	1351.6786	0.167897	-403.139218	-403.128624	-403.12768	-403.176139	37.664	
C	 0.1707180251	 1.2134037592	 0.2936659647	-0.381087
C	-0.1469333024	-0.2172206668	-0.1641165576	 0.037971
C	-1.6559185594	-0.4837919964	-0.2394833462	-0.400108
N	 0.5529701101	-0.5539296821	-1.4176849672	-0.052968
C	 1.8168600679	-1.2852723185	-1.337086667	-0.32931
C	 1.6688253644	-2.6199634741	-0.7607206181	 0.315307
C	 1.5511112224	-3.7096019136	-0.2677463478	-0.455914
C	 0.1668751989	-0.0727518326	-2.6328441115	 0.157775
O	 0.7593132213	-0.2441983114	-3.6806864364	-0.348673
H	 1.250614741	 1.3753862012	 0.3628509906	 0.122274
H	-0.2373777668	 1.9486178144	-0.4077386985	 0.123546
H	-0.2648458565	 1.4079251523	 1.2788797073	 0.121354
H	 0.2604468274	-0.9151580437	 0.5740499565	 0.108302
H	-2.1725434621	 0.2219176041	-0.8965654725	 0.125637
H	-1.8512703205	-1.4975309708	-0.5985544042	 0.134728
H	-2.0946182041	-0.3799928386	 0.7575628211	 0.122552
H	 2.1970022267	-1.3447369272	-2.3609413425	 0.180115
H	 2.5478255074	-0.7128138988	-0.7486346295	 0.134646
H	 1.4517556168	-4.6806319405	 0.1508825287	 0.203798
H	-0.7716303675	 0.5057923339	-2.5755907201	 0.080055
20.8676	54.1542	100.2757	168.5929	217.1314	244.9207	257.5616	292.653	323.6884	334.0176	342.5704	429.3225	465.0163	602.1898	618.0441	638.1937	667.9027	809.3462	897.7131	929.0596	948.1711	961.0429	1000.6489	1035.394	1104.5448	1142.8984	1161.8039	1211.8331	1259.7957	1337.5177	1353.6529	1372.9824	1401.0803	1419.7214	1439.2713	1468.0334	1480.1699	1483.5439	1491.2371	1503.9446	1510.0015	1781.0246	2238.8401	2978.8673	3004.7745	3035.4274	3044.6427	3057.6032	3094.6955	3106.3545	3110.8848	3115.0067	3125.6102	3504.0763
CC(C)N(CC#C)C=O	CC(C)N(CC#C)C=O	
InChI=1S/C7H11NO/c1-4-5-8(6-9)7(2)3/h1,6-7H,5H2,2-3H3	InChI=1S/C7H11NO/c1-4-5-8(6-9)7(2)3/h1,6-7H,5H2,2-3H3
