22
gdb 22532	2.23761	1.20165	1.04236	0.494	85.31	-0.2365	0.0127	0.2492	1320.0112	0.19203	-404.304525	-404.294159	-404.293215	-404.340057	38.688	
C	-0.2509835174	 1.6992121593	-0.2697349872	-0.376956
C	-0.0952481509	 0.2008335333	 0.0550428596	-0.265054
C	-1.4152340101	-0.5380811884	 0.0245540664	 0.268506
N	-2.0043111584	-0.8928474234	-1.0549556629	-0.177416
O	-1.2803796375	-0.5144524001	-2.202491851	-0.400008
C	-2.1123863746	-0.8652931798	 1.3123450261	 0.295529
C	-1.3237881092	-1.7439724614	 2.2723007657	-0.469761
C	-2.9962784574	 0.2170760244	 1.9126393793	-0.294802
C	-3.610624724	-1.0189395239	 1.3037658537	-0.298148
H	 0.724645851	 2.1949157225	-0.2554540246	 0.11205
H	-0.689884461	 1.8316585369	-1.2606820865	 0.139675
H	-0.8915011876	 2.1991002965	 0.4630725091	 0.118684
H	 0.5757280853	-0.2547414741	-0.679385043	 0.125196
H	 0.3661425431	 0.0890306143	 1.0395819153	 0.097289
H	-1.829695661	-0.8696460982	-2.9086659979	 0.304191
H	-0.3694882977	-1.2924803963	 2.5627093019	 0.119458
H	-1.8966027239	-1.9144671676	 3.1889088287	 0.116052
H	-1.1107430414	-2.7202839721	 1.8232570334	 0.124647
H	-2.9973891278	 0.3249274426	 2.9925951804	 0.10761
H	-3.1035893605	 1.1496889028	 1.3697915078	 0.116901
H	-4.1206826149	-0.9213223926	 0.3546659581	 0.129857
H	-4.0365507042	-1.7586310849	 1.9731197175	 0.1065
36.3445	83.5313	157.7578	205.7673	211.4538	226.376	266.2499	298.5459	338.5071	344.9803	384.9735	433.3796	484.3771	525.3892	658.8413	737.8267	790.2217	804.8211	839.8838	872.1057	935.2244	954.0382	968.4407	983.7116	1038.3863	1067.6902	1071.4267	1080.4066	1090.6339	1125.5807	1177.2782	1190.7137	1288.7315	1296.73	1341.4023	1350.0214	1400.3566	1414.8266	1421.0447	1466.8124	1479.4152	1491.3953	1498.6621	1499.9558	1506.3398	1512.2176	1710.5525	3030.5291	3043.5209	3056.7822	3093.0278	3099.3741	3104.0124	3110.1928	3129.0008	3137.8779	3145.2335	3213.3822	3240.5215	3824.6335
CCC(=NO)C1(C)CC1	CCC(=NO)C1(C)CC1	
InChI=1S/C7H13NO/c1-3-6(8-9)7(2)4-5-7/h9H,3-5H2,1-2H3	InChI=1S/C7H13NO/c1-3-6(8-9)7(2)4-5-7/h9H,3-5H2,1-2H3
