18
gdb 115199	4.47194	0.96936	0.82557	4.5217	78.21	-0.2455	-0.0293	0.2162	1355.6912	0.148837	-439.098469	-439.089999	-439.089054	-439.131838	31.6	
O	-0.1402988574	 1.4759048124	-0.0712583184	-0.417449
C	-0.0010900973	 0.0649795193	-0.0967031416	-0.092987
C	-1.3996738135	-0.5381723679	 0.0546814516	-0.064287
C	-1.3538040359	-2.0593651857	-0.0797447074	-0.10446
O	-2.6078509407	-2.6766941403	 0.2254277712	-0.263543
C	-3.2039190717	-2.3368194221	 1.4105798356	 0.376332
N	-4.1006080992	-3.0688693771	 1.9359328857	-0.522311
C	-2.8222721299	-1.0530574399	 2.0100009263	-0.120844
C	-2.0231687902	-0.1894809684	 1.3792844256	-0.067389
H	 0.7373012479	 1.8686978999	-0.0710877498	 0.292863
H	 0.4463002052	-0.2756181291	-1.0443000397	 0.093297
H	 0.6444636922	-0.289509647	 0.7225514271	 0.094792
H	-2.0155448522	-0.1176288328	-0.7536366861	 0.112585
H	-1.1206770172	-2.3696276419	-1.1012606343	 0.118929
H	-0.5809799707	-2.4664595247	 0.5886205028	 0.106547
H	-4.240417078	-3.90625584	 1.3661803553	 0.218832
H	-3.2852843697	-0.8365834739	 2.9649921604	 0.119331
H	-1.8015379414	 0.7880675791	 1.7946407356	 0.119763
74.439	112.2389	193.863	207.5892	262.9582	279.9851	356.969	416.0085	460.7205	520.7641	570.982	687.3395	754.7259	805.6739	834.2419	886.1064	909.5626	966.368	1007.6693	1021.0698	1079.1646	1084.4167	1099.4906	1107.2409	1146.1196	1192.3702	1232.68	1252.7082	1287.3312	1309.2131	1318.4379	1372.2172	1407.605	1435.2808	1459.5324	1505.2107	1522.4291	1683.0178	1732.5907	2965.575	2992.9147	2999.4236	3015.5577	3098.5211	3188.8598	3216.8729	3463.0993	3834.8533
OCC1COC(=N)C=C1	OC[C@H]1COC(=C[CH]1)[NH]	
InChI=1S/C6H9NO2/c7-6-2-1-5(3-8)4-9-6/h1-2,5,7-8H,3-4H2	InChI=1S/C6H9NO2/c7-6-2-1-5(3-8)4-9-6/h1-2,5,7-8H,3-4H2/t5-/m0/s1
