16
gdb 27355	2.00018	1.84217	0.97051	5.7051	74.96	-0.2417	-0.036	0.2057	1179.3382	0.12345	-437.957748	-437.94925	-437.948306	-437.991172	30.66	
C	 0.1240594589	 1.4732910803	 0.0140475976	-0.476281
C	-0.0368564411	-0.0086434175	-0.0240672966	 0.384098
C	-1.1787485427	-0.7059816311	-0.1156490876	-0.319037
C	-1.1607573205	-2.1701907257	-0.1408416136	 0.381806
O	-2.1567298931	-2.8548922243	-0.2203024424	-0.345195
N	 0.1287491772	-2.7647880296	-0.0647495265	-0.339466
C	 1.1606546636	-2.0247364071	 0.0199794422	 0.394256
C	 2.5535466071	-2.5625853917	 0.1039461177	-0.468813
O	 1.1657637291	-0.6551208471	 0.0469480105	-0.248098
H	 0.7449401432	 1.8132655696	-0.8217893501	 0.151318
H	-0.8484478862	 1.9639657636	-0.0433940425	 0.147022
H	 0.6252076666	 1.7813877616	 0.9379430326	 0.151317
H	-2.1331033733	-0.1988618688	-0.1721320812	 0.122172
H	 2.5205286443	-3.6504978617	 0.0859139213	 0.163934
H	 3.1529168251	-2.194884112	-0.7350864291	 0.150562
H	 3.0375519918	-2.2199081785	 1.0240442677	 0.150406
103.9323	113.6272	155.3165	168.7163	208.0506	270.7898	336.7488	497.0053	521.7997	559.7492	577.467	608.6991	616.0976	786.7011	888.5202	895.881	901.6756	967.4719	1045.454	1064.1399	1067.0731	1079.2252	1130.785	1215.1064	1294.5791	1360.0448	1406.5394	1418.1228	1469.0674	1469.337	1475.773	1480.8115	1659.721	1733.608	1796.3853	3041.5041	3050.2559	3098.157	3108.4464	3147.8078	3176.0642	3222.0372
CC1=CC(=O)N=C(C)O1	Cc1cc(=O)nc(C)o1	
InChI=1S/C6H7NO2/c1-4-3-6(8)7-5(2)9-4/h3H,1-2H3	InChI=1S/C6H7NO2/c1-4-3-6(8)7-5(2)9-4/h3H,1-2H3
