15
gdb 67186	3.0142	1.55506	1.49385	3.3125	63.92	-0.2571	0.0062	0.2633	923.5785	0.113653	-457.760697	-457.753907	-457.752963	-457.791707	27.128	
O	-0.2052909433	 1.4122570825	-0.0259519456	-0.457428
C	 0.0013400408	 0.0574359577	-0.014711029	 0.356347
C	-1.0064644394	-1.0771967608	 0.0997364967	-0.144825
C	-0.4121521298	-1.7650509433	-1.1225249691	-0.232565
C	 0.8380513459	-0.811479497	-1.0129530837	-0.280189
C	 1.8448951906	-1.5322288706	-0.1365211025	 0.439704
O	 2.9146144935	-1.9949968966	-0.3988334776	-0.340594
O	 1.2689080368	-1.6605874962	 1.1106777756	-0.227918
C	 0.0946523283	-0.8680884178	 1.1451004474	 0.002727
H	 0.5452095367	 1.8488805925	 0.3945206168	 0.29623
H	-2.0484278795	-1.0510509357	 0.3944945677	 0.104701
H	-0.2211278022	-2.8409183473	-1.0707527409	 0.123148
H	-0.9807357726	-1.535722198	-2.0251979118	 0.126938
H	 1.2453124715	-0.3913494126	-1.9273859653	 0.108918
H	-0.1897101073	-0.5709664868	 2.1454323615	 0.124806
140.8381	243.1576	307.7377	320.7506	336.3752	466.1043	506.1275	586.7351	619.5677	731.3288	758.501	792.7758	824.8747	860.3314	917.1391	925.3737	968.6738	981.6523	1022.3392	1054.0457	1071.795	1123.6608	1143.3988	1151.2847	1185.0396	1221.794	1273.5237	1291.0629	1313.9572	1323.0384	1475.0003	1506.8852	1889.1831	3060.9008	3125.369	3173.1579	3192.9465	3219.9905	3781.3464
OC12C3CC1C(=O)OC23	O[C@@]12[C@H]3C[C@@H]1C(=O)O[C@@H]23	
InChI=1S/C6H6O3/c7-5-3-1-2-4(9-5)6(2,3)8/h2-4,8H,1H2	InChI=1S/C6H6O3/c7-5-3-1-2-4(9-5)6(2,3)8/h2-4,8H,1H2/t2-,3+,4+,6-/m0/s1
