21
gdb 41683	3.65163	1.43484	1.22465	0.3533	86.78	-0.221	0.0261	0.2471	1088.1194	0.18629	-349.974918	-349.967811	-349.966867	-350.005957	30.033	
C	 0.2887564365	 1.3475861166	-0.5009541649	-0.222223
C	 1.4267439912	 1.9808439032	 0.3357918372	-0.229181
C	 2.0976620622	 0.8104249911	 1.0417491185	-0.06942
C	 2.4748910672	-0.3985148006	 0.2017130563	-0.13247
C	 3.2940357509	-1.4227202249	 0.9109536859	-0.08616
C	 2.6273953114	-1.9843879642	 1.9234056072	-0.077147
C	 1.2076349434	-1.4659500096	 2.0266354596	-0.372395
C	 1.1527708427	-0.372264849	 0.9671110584	 0.37451
C	-0.1196952273	 0.0737262048	 0.2734009529	-0.304634
H	-0.5479584795	 2.0331949881	-0.6581270853	 0.0946
H	 0.6613259772	 1.0733849299	-1.4933033609	 0.104645
H	 2.1147777087	 2.5710582542	-0.2797775736	 0.094961
H	 1.0122830877	 2.65902103	 1.0920302861	 0.097704
H	 2.6885646937	 1.0021964532	 1.9323130701	 0.07549
H	 2.5414596939	-0.3020499641	-0.8782421648	 0.076904
H	 4.3189777899	-1.6458710605	 0.6356254551	 0.090183
H	 3.0311459463	-2.719339054	 2.6106475196	 0.089377
H	 0.4764105341	-2.2630921515	 1.824934424	 0.101911
H	 0.9737565484	-1.0850678461	 3.0299417772	 0.104595
H	-0.881056014	 0.3088684713	 1.0293933563	 0.095266
H	-0.5474075846	-0.693450138	-0.3822609149	 0.093485
191.14	213.0513	236.5073	302.6148	374.09	436.6803	478.8423	619.5845	644.4349	712.3459	745.3054	792.1279	841.8538	863.7953	885.8892	907.8912	932.815	953.6628	956.1263	960.407	987.0066	1012.9564	1040.6466	1054.4428	1070.7156	1099.1214	1130.8885	1156.2293	1169.4313	1197.9613	1221.3088	1254.7007	1261.3456	1275.6678	1312.1013	1329.045	1337.3147	1360.3473	1378.1211	1411.5641	1477.7247	1491.3449	1492.8079	1510.896	1666.3049	2994.6522	3014.6541	3026.9919	3029.5747	3045.1669	3060.0833	3067.1516	3097.6409	3144.9467	3152.5334	3182.0281	3207.312
C1CC2C3C=CCC23C1	C1C[C@@H]2[C@H]3C=CC[C@@]23C1	
InChI=1S/C9H12/c1-3-7-8-4-2-6-9(7,8)5-1/h1,3,7-8H,2,4-6H2	InChI=1S/C9H12/c1-3-7-8-4-2-6-9(7,8)5-1/h1,3,7-8H,2,4-6H2/t7-,8-,9+/m1/s1
