21
gdb 13722	4.5805	0.97999	0.88225	2.0406	76.84	-0.2235	0.0818	0.3053	1388.0492	0.186928	-366.221243	-366.211665	-366.210721	-366.256288	33.835	
C	-0.3500432587	 1.334372392	-0.2595797077	-0.384114
C	 0.148706024	-0.075304558	 0.0088992999	-0.024417
O	 0.6051658147	-0.6319427247	-1.2069390299	-0.245522
C	 1.101111162	-1.9477150105	-1.0659910613	-0.080662
C	 1.6268509068	-2.4063525777	-2.4016121531	 0.0068
C	 1.5705227744	-3.8493030231	-2.7785809232	-0.261411
N	 0.7596869987	-2.867621946	-3.4835790585	-0.069614
C	-0.6829911304	-2.8987644369	-3.2908075425	-0.309745
H	 0.4543204662	 1.9545829592	-0.6650071482	 0.127742
H	-1.1688282058	 1.3198309079	-0.9845206224	 0.12668
H	-0.7120790802	 1.7939977182	 0.6649520669	 0.113904
H	 0.9654664004	-0.0625612954	 0.7510703304	 0.08431
H	-0.6582162241	-0.6972317098	 0.4336830067	 0.08344
H	 1.9211236415	-1.9726235549	-0.3270591061	 0.089269
H	 0.3141032574	-2.6191667839	-0.6884023249	 0.0841
H	 2.4650950456	-1.8083733308	-2.7560287209	 0.094208
H	 2.3777094694	-4.3084738968	-3.3435934333	 0.114295
H	 1.0670267007	-4.5220207589	-2.0830267865	 0.101991
H	-1.0086866006	-3.3219076866	-2.3274822033	 0.095312
H	-1.0747401907	-1.8806784183	-3.366913926	 0.133756
H	-1.1276435712	-3.504999705	-4.0864684961	 0.119676
49.6003	79.4898	112.5846	136.8228	186.0091	242.7912	271.8307	314.3283	362.5098	392.6676	490.0591	547.5173	755.8429	804.6184	820.8102	893.7417	918.859	1010.8203	1038.5766	1041.2626	1085.8656	1115.4468	1128.5415	1142.3743	1158.2721	1166.7864	1183.4339	1199.5673	1205.985	1265.2564	1294.6475	1339.8895	1360.9973	1399.5143	1418.003	1449.2779	1458.5771	1482.8937	1487.0051	1496.396	1499.5776	1510.6078	1519.4464	1535.5284	2945.6769	2957.4746	2972.1786	2975.0042	2993.765	3045.0857	3069.0197	3079.0228	3113.4568	3117.075	3119.2719	3121.8187	3168.2793
CCOCC1CN1C	CCOC[C@H]1CN1C	
InChI=1S/C6H13NO/c1-3-8-5-6-4-7(6)2/h6H,3-5H2,1-2H3	InChI=1S/C6H13NO/c1-3-8-5-6-4-7(6)2/h6H,3-5H2,1-2H3/t6-,7?/m1/s1
