21
gdb 97672	3.56721	0.71763	0.68951	2.0225	88.63	-0.2464	0.0458	0.2922	1769.2303	0.180724	-387.0499	-387.03958	-387.038636	-387.087566	36.446	
C	 0.0729932624	 1.5879373323	 0.1510167239	-0.363581
C	-0.207831649	 0.0971778522	-0.1135150962	-0.316802
C	 0.5317669101	-0.4299178904	-1.2562882094	 0.093174
C	 1.1551506657	-0.8444079819	-2.2013625937	-0.003792
C	 1.9064751921	-1.3509291969	-3.3369324719	 0.102235
C	 1.3937809721	-0.7867188285	-4.668292613	-0.449516
C	 3.4615166348	-1.3086884427	-3.2197764844	-0.102336
O	 3.5667040945	-2.7102388886	-3.5275213219	-0.271107
C	 2.1464532397	-2.8916932283	-3.3851862443	-0.102688
H	 1.1347944969	 1.7533032801	 0.3527536583	 0.127832
H	-0.2038484834	 2.194981359	-0.7151788273	 0.127477
H	-0.5007749027	 1.9367750627	 1.0147783005	 0.114787
H	 0.0411658223	-0.4862689325	 0.7822792608	 0.129029
H	-1.2833892562	-0.0486277657	-0.2772691085	 0.128625
H	 1.4715251865	 0.3044660663	-4.6818729678	 0.12472
H	 1.9818712656	-1.1882123367	-5.4996525739	 0.124336
H	 0.3442467452	-1.0539380911	-4.8231048403	 0.125098
H	 3.982843731	-0.6812338005	-3.952227961	 0.103145
H	 3.8242066913	-1.0777922823	-2.2107911624	 0.102726
H	 1.8862006705	-3.4115402644	-2.4551504315	 0.103362
H	 1.7067149006	-3.420123272	-4.2391124461	 0.103275
9.6269	74.7253	84.1709	119.7835	186.1001	215.659	262.9439	318.2688	325.8518	349.1605	455.3051	499.4819	537.0971	577.2421	786.2175	818.0815	846.1699	912.1583	928.5049	956.7682	974.1864	1014.5659	1039.4353	1066.7789	1098.4841	1104.9615	1153.6943	1162.9004	1163.6033	1211.8907	1286.3872	1303.6267	1305.1213	1351.0894	1368.7829	1408.2392	1409.213	1476.4396	1489.6549	1494.7324	1495.6132	1505.8556	1509.5289	1533.4607	2359.3721	3010.6051	3019.0113	3021.072	3035.7311	3044.3262	3045.9999	3066.448	3067.7913	3111.536	3113.8015	3117.7138	3123.5511
CCC#CC1(C)COC1	CCC#CC1(C)COC1	
InChI=1S/C8H12O/c1-3-4-5-8(2)6-9-7-8/h3,6-7H2,1-2H3	InChI=1S/C8H12O/c1-3-4-5-8(2)6-9-7-8/h3,6-7H2,1-2H3
