19
gdb 116144	2.48659	1.30299	0.89903	3.6221	74.98	-0.234	0.0171	0.2511	1280.0406	0.160992	-456.349466	-456.34079	-456.339846	-456.382795	33.203	
N	-0.0822739152	 1.3249314673	-0.1234980609	-0.541136
C	-0.1121924138	-0.0494232116	-0.0065696783	 0.330892
N	-1.2207040902	-0.6783381929	-0.0136075237	-0.316744
C	-1.206510086	-2.1413371454	-0.0385547073	 0.019357
C	-2.3406612586	-2.5839825257	-0.975842862	-0.054702
O	-3.5578036651	-1.9766799443	-0.607161124	-0.425602
C	 0.1510173691	-2.7111495584	-0.434428038	-0.113174
O	 1.1822873747	-2.0832787523	 0.3196615214	-0.241484
C	 1.2563122541	-0.7106285893	 0.0350097629	-0.154812
H	 0.6767366155	 1.8090475545	 0.3317097093	 0.252034
H	-0.9830036445	 1.7679809036	-0.0077045718	 0.254681
H	-1.4609052506	-2.4922753106	 0.9717350522	 0.091415
H	-2.0631079989	-2.3337511452	-2.0149599525	 0.076296
H	-2.4811847333	-3.6697144191	-0.9205347228	 0.097876
H	-3.3155398054	-1.0612571527	-0.4041528679	 0.2832
H	 0.2179889658	-3.7798856367	-0.2147612376	 0.115322
H	 0.3297691324	-2.5670437611	-1.5135417981	 0.089953
H	 1.7621895323	-0.523075849	-0.9288255392	 0.116662
H	 1.8710887277	-0.2546015813	 0.8203010482	 0.119964
92.0386	127.6936	165.8323	208.4515	293.1209	360.8243	385.1931	410.2109	471.943	488.3932	529.2103	540.3403	549.9827	616.0908	664.4356	845.1077	898.5708	941.086	972.2124	1024.141	1060.2073	1089.569	1097.6117	1126.0015	1160.1958	1204.2524	1234.6239	1246.5391	1284.954	1312.5883	1330.7468	1362.2925	1381.0178	1396.0601	1434.0197	1455.5625	1480.8139	1494.7466	1509.9045	1631.2646	1745.4296	2946.7073	2952.5912	2966.517	3008.3917	3054.0205	3058.2526	3095.5389	3562.3008	3675.8672	3723.8632
NC1=NC(CO)COC1	NC1=N[C@@H](CO)COC1	
InChI=1S/C5H10N2O2/c6-5-3-9-2-4(1-8)7-5/h4,8H,1-3H2,(H2,6,7)	InChI=1S/C5H10N2O2/c6-5-3-9-2-4(1-8)7-5/h4,8H,1-3H2,(H2,6,7)/t4-/m0/s1
