17
gdb 33096	4.58926	0.89171	0.75366	1.3028	71.95	-0.1806	0.0572	0.2378	1474.9279	0.13599	-455.183348	-455.174356	-455.173412	-455.21786	32.609	
C	-0.010369739	 1.4656380866	-0.001812551	-0.389006
C	 0.0266481359	-0.0514670778	 0.0212913112	-0.032988
O	 0.6548793874	-0.4817332479	-1.1881892535	-0.28545
C	 0.7874313601	-1.8113716972	-1.359569714	 0.377474
C	 1.3598033972	-2.41985492	-2.4421617932	-0.244012
N	 1.2599700394	-3.7898210163	-2.1559177052	-0.303948
C	 0.653388031	-3.8933957209	-0.9587313495	 0.457946
O	 0.4191628397	-5.1029072928	-0.4190305147	-0.425254
N	 0.3457953717	-2.7325982676	-0.4320928758	-0.448648
H	 1.001124016	 1.8775055788	-0.0617767377	 0.125784
H	-0.5790478134	 1.8269181552	-0.8634492361	 0.125785
H	-0.484733979	 1.8425514505	 0.909368659	 0.114878
H	 0.590213015	-0.4258316683	 0.8844595208	 0.108134
H	-0.9824388855	-0.4763441044	 0.0854854219	 0.108093
H	 1.8068499061	-2.0450371994	-3.3441446666	 0.126331
H	 1.5760821947	-4.5549232077	-2.7254262172	 0.271459
H	-0.0172179973	-4.9403723008	 0.4262409415	 0.313423
52.4055	61.3448	143.0744	233.9207	249.4324	311.6216	326.8524	385.5851	399.1954	457.1299	520.7141	597.2086	663.1378	687.3478	734.1293	780.6911	811.9307	916.9766	1014.4854	1036.8008	1085.1744	1097.948	1134.7222	1183.835	1195.1804	1275.996	1291.1467	1322.4319	1389.3231	1400.0078	1418.6935	1482.9697	1498.2328	1524.7768	1573.5629	1623.3984	1645.5429	3024.4397	3043.8633	3058.9332	3117.863	3121.4636	3302.4208	3684.6574	3812.242
CCOC1=CNC(O)=N1	CCOc1c[nH]c(O)n1	
InChI=1S/C5H8N2O2/c1-2-9-4-3-6-5(8)7-4/h3H,2H2,1H3,(H2,6,7,8)	InChI=1S/C5H8N2O2/c1-2-9-4-3-6-5(8)7-4/h3H,2H2,1H3,(H2,6,7,8)
