18
gdb 81097	2.14061	1.52315	1.4499	1.1645	73.86	-0.2157	-0.0429	0.1728	1045.1565	0.145442	-439.001798	-438.992891	-438.991947	-439.035662	32.88	
C	-0.0781412096	 1.5732874689	 0.0668463805	-0.343313
N	-0.1356519473	 0.1081868582	-0.0050019859	-0.149155
C	-1.2002715318	-0.6582414169	 0.7625898272	-0.060731
C	-0.3094655785	-1.9084194937	 0.5112605104	-0.256487
C	 0.6154755639	-0.7497945429	 1.007299506	 0.198921
C	 2.09865331	-0.7465887447	 1.1392850285	 0.024092
O	 2.6639337653	-0.7639438646	 2.2064438093	-0.256869
C	-0.457687351	-0.5073172415	 2.1203270853	 0.111539
O	-0.5436455124	 0.7133739479	 2.7961467923	-0.431538
H	-0.183774301	 2.0112776375	 1.0611299497	 0.136616
H	 0.8734235524	 1.8947391656	-0.3709273084	 0.115395
H	-0.8739275435	 1.9611886889	-0.5785458085	 0.120338
H	-2.2631228078	-0.5353855514	 0.5510390686	 0.091513
H	-0.4289566388	-2.7670791264	 1.1725801135	 0.109421
H	-0.1811759145	-2.1680978366	-0.5368219493	 0.12211
H	 2.6601194252	-0.723529035	 0.1791740441	 0.090579
H	-0.5895520714	-1.3487714078	 2.8148643996	 0.080191
H	 0.1494697308	 0.7235073643	 3.4654547069	 0.29738
52.9134	121.5089	135.5368	204.1804	281.035	290.2667	305.6319	342.5589	414.0318	485.3986	523.1226	670.5476	691.6463	731.1948	787.6084	848.3146	900.9394	909.4843	960.3629	1022.1345	1055.638	1097.6748	1125.1116	1141.8244	1165.0444	1175.3263	1184.2597	1195.3305	1213.0364	1244.5009	1314.4952	1317.7628	1409.9408	1431.8572	1451.169	1483.1599	1495.4545	1518.5728	1807.5874	2890.5672	2997.9186	3030.6778	3089.537	3092.8717	3114.0753	3125.9476	3185.2734	3808.4825
CN1C2CC1(C=O)C2O	CN1[C@H]2C[C@]1(C=O)[C@H]2O	
InChI=1S/C6H9NO2/c1-7-4-2-6(7,3-8)5(4)9/h3-5,9H,2H2,1H3	InChI=1S/C6H9NO2/c1-7-4-2-6(7,3-8)5(4)9/h3-5,9H,2H2,1H3/t4-,5-,6-/m0/s1
