15
gdb 48671	3.67587	1.22385	1.09342	1.6207	69.64	-0.2653	-0.0519	0.2135	1092.6904	0.113368	-453.940479	-453.932982	-453.932038	-453.972767	27.92	
N	-0.1217398638	 1.2260739284	 0.3555277948	-0.545967
C	-0.0331195363	 0.0123774625	 0.0267841119	 0.482314
O	 1.1159865622	-0.6498845104	-0.2963306545	-0.252367
C	 0.8459719128	-1.9370981143	-0.8862051668	-0.13361
C	-0.6369087161	-2.1758484163	-0.7012686409	 0.207403
N	-1.032663557	-2.1313487777	 0.7212302393	-0.351791
C	-1.1931772303	-0.921874103	-0.0904757071	-0.19879
C	-1.4304702028	-2.959700996	-1.6717223305	 0.080569
O	-0.9821928181	-3.4558772128	-2.6744104022	-0.253925
H	 0.7948465795	 1.6764287979	 0.3317902031	 0.231242
H	 1.1039137351	-1.9146031284	-1.9489093359	 0.14183
H	 1.4594769596	-2.6813669325	-0.3733148043	 0.137232
H	-1.9439061259	-2.5753230638	 0.8418086365	 0.246794
H	-2.1770347802	-0.5248160775	-0.306766092	 0.132839
H	-2.5056052487	-3.062862566	-1.3923825214	 0.076226
88.2539	157.5873	193.3669	217.5428	338.5795	393.6326	439.2191	484.5674	611.9833	686.4626	720.337	794.7743	836.0517	854.8169	898.5435	961.5445	981.1576	990.0507	1039.5082	1069.1497	1093.5818	1099.5286	1153.6702	1220.5479	1260.2426	1278.5504	1352.6826	1399.3947	1420.0548	1435.7636	1507.9224	1785.1583	1814.5785	2856.0664	3065.5394	3118.5544	3206.1093	3460.6174	3476.9154
N=C1OCC2(NC12)C=O	[NH][C]1OC[C@]2(N[C@@H]12)C=O	
InChI=1S/C5H6N2O2/c6-4-3-5(1-8,7-3)2-9-4/h1,3,6-7H,2H2	InChI=1S/C5H6N2O2/c6-4-3-5(1-8,7-3)2-9-4/h1,3,6-7H,2H2/t3-,5+/m0/s1
