18
gdb 30353	3.01205	1.62517	1.0893	1.8542	79.	-0.1852	0.0283	0.2135	1090.9137	0.150198	-401.965522	-401.957977	-401.957033	-401.997386	29.398	
C	-0.1552727458	 1.4881983074	-0.034100326	-0.334551
N	 0.1164781082	 0.0673588575	 0.0061829581	-0.173925
C	 0.7699121242	-0.5200817017	-1.1828322636	-0.161825
C	 1.314159399	-1.9025762417	-0.717114697	-0.369551
C	 1.5006770296	-1.6529634552	 0.753145367	 0.195845
C	 2.0687991206	-2.1097328319	 1.8933186701	-0.153425
O	 1.7542991963	-1.2855776165	 2.9322046996	-0.167118
C	 0.9562877895	-0.2705774019	 2.4394031901	-0.161926
C	 0.7772771718	-0.4734955836	 1.1090265025	 0.274419
H	 0.7624441865	 2.1005921489	-0.0837745241	 0.104957
H	-0.771423845	 1.7209634209	-0.9079413139	 0.122794
H	-0.7159452933	 1.7816467796	 0.8581214781	 0.129971
H	 0.0599015884	-0.5955232176	-2.0120740657	 0.105906
H	 1.608859311	 0.1172632928	-1.5125837501	 0.09272
H	 0.5706567538	-2.6887020755	-0.8956227434	 0.121795
H	 2.22317819	-2.1810603581	-1.2559873517	 0.117221
H	 2.699548574	-2.9477070677	 2.1407261732	 0.132741
H	 0.6420510112	 0.4664788541	 3.1565693566	 0.123951
135.8636	163.0583	220.6854	244.5916	275.3677	376.8235	501.2209	583.4305	585.7128	627.319	648.6274	700.4436	731.6165	757.3985	836.6879	924.6851	948.2069	997.6047	1037.0864	1073.2441	1085.2271	1139.6239	1150.369	1182.7103	1202.8914	1232.0848	1256.6227	1263.5084	1303.9926	1327.4404	1387.9405	1419.911	1459.1582	1486.4476	1490.7774	1500.3185	1516.352	1618.317	1692.1107	2948.0614	2952.683	3032.6495	3068.2636	3073.7607	3095.1858	3110.1122	3271.123	3291.8731
CN1CCC2=COC=C12	CN1CCc2cocc12	
InChI=1S/C7H9NO/c1-8-3-2-6-4-9-5-7(6)8/h4-5H,2-3H2,1H3	InChI=1S/C7H9NO/c1-8-3-2-6-4-9-5-7(6)8/h4-5H,2-3H2,1H3
