18
gdb 58031	1.93097	1.54147	1.04306	4.8634	73.86	-0.2518	0.009	0.2608	1197.5832	0.14514	-439.067549	-439.057777	-439.056833	-439.102126	35.498	
C	 0.3291883838	 0.704961236	 0.7999686536	-0.339323
N	-0.3426518667	-0.1861661967	-0.1527739012	-0.098881
H	-0.1086809235	-1.8982985386	 0.6756018515	 0.30092
C	-1.4907090328	 0.465836927	-0.7814777793	-0.328897
C	 0.5803022138	-0.7891432383	-1.1329369181	-0.346694
C	 1.4682401089	 0.1476341868	-1.81789265	 0.383228
C	 2.1547786277	 0.9678776559	-2.364849096	-0.453875
C	 1.3486223265	-1.9699871623	-0.4679693397	 0.441368
O	 2.3897124521	-2.4020035323	-0.8689010144	-0.322752
O	 0.6698572129	-2.4889007187	 0.5634745695	-0.370649
H	 1.1528984582	 0.1758603509	 1.2865508141	 0.143896
H	 0.732201371	 1.6082199466	 0.3202112405	 0.130393
H	-0.3886680366	 1.0030573053	 1.5687413711	 0.128205
H	-1.2013654477	 1.3373932742	-1.3891790091	 0.123536
H	-2.0163881458	-0.2473436461	-1.4228209074	 0.128697
H	-2.1821880928	 0.8019969081	-0.0039392874	 0.130033
H	-0.0507333943	-1.2792789017	-1.8880578032	 0.144428
H	 2.7845162154	 1.6690793337	-2.8550715844	 0.206367
70.534	117.9681	137.3226	177.5692	196.3644	244.6401	255.776	353.0805	367.7928	379.334	432.9688	501.8395	569.3728	610.5733	640.9094	672.3007	718.5999	858.8447	874.8274	915.0912	1015.824	1056.2727	1064.2751	1122.4935	1179.5104	1190.5685	1208.9448	1281.4435	1296.6133	1356.4733	1414.5638	1445.2877	1476.7082	1481.6245	1498.5426	1502.4697	1517.5765	1888.1976	2236.3371	2988.1567	3007.1794	3014.0166	3078.7927	3088.3815	3116.8641	3123.719	3461.5654	3501.0359
C[NH+](C)C(C#C)C([O-])=O	CN(C)[C@@H](C#C)C(=O)O	
InChI=1S/C6H9NO2/c1-4-5(6(8)9)7(2)3/h1,5H,2-3H3,(H,8,9)	InChI=1S/C6H9NO2/c1-4-5(6(8)9)7(2)3/h1,5H,2-3H3,(H,8,9)/t5-/m0/s1
