15
gdb 14825	3.64533	1.40751	1.07355	2.954	64.69	-0.2524	-0.0478	0.2046	1046.4729	0.117872	-399.811748	-399.803764	-399.80282	-399.845441	26.984	
O	-0.6875312779	 0.9221023839	-1.074973559	-0.232344
C	 0.0974404851	 0.8261744656	-0.1698978106	 0.15232
C	 1.343122836	 1.6809409637	-0.0318963053	-0.062233
C	 1.30089946	 2.6874165674	 1.1733148007	-0.269247
C	 2.5638343796	 1.9813537067	 1.7436648436	-0.162697
N	 2.4700623561	 1.027555528	 0.6370428806	-0.04806
C	 3.36058892	 0.090666189	 0.2270413199	 0.129053
O	 4.3606757222	-0.2108799715	 0.8414450384	-0.318141
H	-0.0454642756	 0.1051958008	 0.6681348548	 0.087717
H	 1.5774396869	 2.1375043917	-0.9989467333	 0.113619
H	 1.4231674867	 3.7305664282	 0.885992535	 0.136918
H	 0.4115741198	 2.5884468476	 1.7980320815	 0.129747
H	 3.4843932979	 2.5731098295	 1.72480287	 0.132975
H	 2.4565954047	 1.5273936087	 2.7327697398	 0.132525
H	 3.0597170985	-0.3771160592	-0.7332167961	 0.07785
53.8746	74.1313	102.6424	192.3686	284.7419	315.7858	345.459	435.9454	568.0528	773.5982	807.1586	885.4054	901.9054	946.5813	988.389	1035.0777	1053.6471	1136.834	1161.141	1188.1305	1213.6109	1251.9233	1261.5059	1305.0183	1321.6738	1390.0565	1409.6222	1438.241	1488.4872	1523.0797	1796.5366	1836.4703	2871.8203	2923.7617	3050.9183	3062.4443	3090.4533	3097.3819	3156.0687
O=CC1CCN1C=O	O=C[C@H]1CCN1C=O	
InChI=1S/C5H7NO2/c7-3-5-1-2-6(5)4-8/h3-5H,1-2H2	InChI=1S/C5H7NO2/c7-3-5-1-2-6(5)4-8/h3-5H,1-2H2/t5-/m1/s1
