17
gdb 110404	5.95323	0.97908	0.96312	3.6477	73.94	-0.2435	0.0075	0.251	1239.7085	0.135371	-421.756314	-421.748611	-421.747667	-421.788955	28.875	
C	 0.1897711173	 1.3290567312	 0.1787175351	-0.244112
O	-0.2837702684	 0.0597943151	-0.2218449368	-0.252987
C	 0.4663810377	-0.5178172507	-1.2484978873	 0.135712
C	 1.7204148872	-1.3474508637	-0.8846774458	-0.081198
C	 0.8367553638	-2.5375253264	-0.3314861167	-0.196287
C	 0.0745167971	-1.9568942119	-1.5887972903	-0.079952
C	 1.516218571	-2.265941373	-2.1530188012	-0.211165
C	 1.5900957259	-3.4951912912	-1.2491523792	 0.448737
O	 2.0189372561	-4.6078814482	-1.2603703372	-0.329815
H	 1.20039648	 1.2745958281	 0.6093285707	 0.110555
H	 0.2101009134	 2.036839518	-0.6640838079	 0.109239
H	-0.497156672	 1.7055279777	 0.9396752129	 0.133234
H	 0.5799237305	 0.1799952543	-2.0929820529	 0.069708
H	 2.6874528038	-1.0433643331	-0.4852526216	 0.092609
H	 0.4421952127	-2.6413896941	 0.6748910292	 0.104214
H	-0.8596799486	-2.3430924141	-1.9943833655	 0.095882
H	 1.8749506524	-2.0710380182	-3.1613301952	 0.095625
75.4626	135.2195	158.1153	189.4343	282.5773	414.2577	451.0191	553.2335	674.552	702.4678	801.2986	803.3118	815.2083	829.6143	916.9461	950.7198	964.8482	1001.5255	1014.5907	1020.5241	1106.896	1113.1308	1117.8255	1134.3062	1148.9638	1174.5476	1180.8133	1189.2529	1219.5203	1244.6808	1247.5019	1297.7566	1406.0726	1483.6158	1491.1676	1508.5791	1916.0989	2977.6243	2986.6142	3030.5439	3119.9503	3122.2199	3126.5631	3149.6169	3172.3659
COC1C2C3C1C2C3=O	CO[C@H]1[C@H]2[C@H]3[C@@H]1[C@@H]2C3=O	
InChI=1S/C7H8O2/c1-9-7-4-2-5(7)3(4)6(2)8/h2-5,7H,1H3	InChI=1S/C7H8O2/c1-9-7-4-2-5(7)3(4)6(2)8/h2-5,7H,1H3/t2-,3+,4-,5+,7-
