22
gdb 59117	3.53707	1.20164	1.03495	1.8347	84.81	-0.2336	0.0788	0.3125	1247.7719	0.194663	-367.148703	-367.140224	-367.13928	-367.181689	33.448	
C	 0.1138986284	 1.5698264489	-0.0092288894	-0.395486
C	 0.0494312715	 0.0348651048	-0.0103290865	 0.020547
C	 0.7505061027	-0.5290688631	-1.2552125278	-0.394564
C	 0.6518980796	-0.5470779098	 1.2745576852	 0.019482
C	-0.1550389866	-0.2371206982	 2.5403677745	-0.049904
C	-0.906863503	-1.5102242975	 2.4549397292	-0.050907
C	 0.2883638451	-2.0355367422	 1.5673801566	-0.10178
C	 0.9949230146	-2.2879144697	 2.9072959179	-0.157669
N	 0.0611420307	-1.3161844769	 3.5711167099	-0.159668
H	 1.1518257728	 1.9172097683	 0.0598129186	 0.113146
H	-0.3106031852	 1.9797397105	-0.9314679628	 0.110752
H	-0.4383718029	 2.0007257297	 0.8310793656	 0.115459
H	-1.0090123758	-0.2606987517	-0.0471453939	 0.071928
H	 1.8117255365	-0.2527784943	-1.2638289344	 0.112899
H	 0.6908833455	-1.6207811129	-1.2997485105	 0.111815
H	 0.2993853619	-0.1333690074	-2.1711127178	 0.111194
H	 1.7263731092	-0.3161230631	 1.3102665284	 0.058989
H	-0.472615132	 0.7212427148	 2.9299705015	 0.096441
H	-1.946132218	-1.7796210386	 2.5874360496	 0.094626
H	 0.2551658655	-2.7731524234	 0.7677186736	 0.072394
H	 0.8071971077	-3.2800815361	 3.3258739544	 0.105913
H	 2.061907702	-2.045952022	 2.9860830082	 0.094393
74.6211	162.1348	174.5091	214.367	240.0474	310.5924	411.1905	428.4215	450.0931	485.434	749.6458	761.0155	788.4704	823.3765	850.2896	875.8765	921.8218	928.6343	936.0521	958.0327	966.6206	970.9023	1000.6153	1019.2893	1055.76	1068.4293	1122.5294	1151.2446	1154.0004	1168.475	1188.214	1198.137	1206.4929	1232.5895	1269.9445	1298.0324	1303.5835	1337.5042	1349.1192	1397.4079	1400.6134	1421.995	1487.1352	1492.0264	1504.8748	1509.9371	1511.516	2994.4145	3007.0221	3025.3033	3029.0358	3031.0005	3088.9386	3095.3982	3099.0425	3102.5671	3106.5335	3130.9552	3195.4912	3209.754
CC(C)C1C2C3C1CN23	CC(C)[C@H]1[C@H]2[C@H]3[C@@H]1CN23	
InChI=1S/C8H13N/c1-4(2)6-5-3-9-7(5)8(6)9/h4-8H,3H2,1-2H3	InChI=1S/C8H13N/c1-4(2)6-5-3-9-7(5)8(6)9/h4-8H,3H2,1-2H3/t5-,6-,7-,8+,9?/m1/s1
