15
gdb 133725	3.8293	0.77274	0.74464	2.6711	59.25	-0.2631	0.015	0.2781	1508.731	0.107012	-585.443361	-585.434082	-585.433138	-585.478953	31.663	
C	-0.4932960566	 0.804481786	 0.0417511122	-0.31719
N	 0.6246270687	-0.1150238132	-0.0018593849	-0.197063
C	 0.7358847434	-0.8465478271	-1.0123767859	 0.134255
O	 1.789567197	-1.7022225166	-1.1206318652	-0.196382
C	 1.7713182143	-2.5936048957	-2.2096710284	-0.224471
C	 1.0006928529	-3.8674510241	-1.8742904185	 0.277688
F	-0.2770177178	-3.5931870192	-1.572305811	-0.078702
F	 1.0090940111	-4.6893381376	-2.9341968069	-0.073642
F	 1.5354264678	-4.5145108596	-0.8391233315	-0.062415
H	-0.1192065186	 1.8296015958	 0.1394212852	 0.132548
H	-1.1491847782	 0.7565554055	-0.8424521839	 0.099525
H	-1.0981723566	 0.5995433645	 0.931755676	 0.134569
H	 0.0515042724	-0.8619591698	-1.8732512575	 0.084805
H	 1.3215806465	-2.1509546473	-3.1067562712	 0.134185
H	 2.8057070336	-2.8664477616	-2.4285214085	 0.15229
48.4111	58.4002	95.6924	195.5012	210.8385	227.7979	307.2411	336.6218	371.8168	469.1374	525.7452	531.2444	598.4118	681.3181	843.0086	966.8642	971.7331	1047.4965	1076.8083	1141.2192	1161.5557	1185.1245	1197.3652	1237.8458	1303.7472	1344.9188	1399.2311	1428.3657	1450.1336	1480.4209	1481.3979	1504.5175	1789.3427	2972.7547	3009.6448	3044.0656	3065.0243	3085.4505	3126.6652
CN=COCC(F)(F)F	CN=COCC(F)(F)F	
InChI=1S/C4H6F3NO/c1-8-3-9-2-4(5,6)7/h3H,2H2,1H3	InChI=1S/C4H6F3NO/c1-8-3-9-2-4(5,6)7/h3H,2H2,1H3
