16
gdb 69127	2.81208	1.55982	1.18339	5.0972	72.22	-0.2524	-0.0647	0.1876	1050.595	0.123863	-437.905616	-437.897806	-437.896862	-437.93785	29.979	
C	-0.0143451535	 1.4608869107	-0.1484763178	-0.469881
C	-0.0224991367	-0.0204755612	 0.0801980995	 0.411256
C	-0.7859368773	-0.7164312315	 1.1511853234	-0.344689
C	 0.754896097	-0.7621020194	 1.1392674099	-0.231378
C	 1.3589850822	-1.9320124654	 0.4428205587	 0.360997
O	 2.1696501163	-2.7159098423	 0.8553654641	-0.290699
C	 0.796310857	-1.9027993016	-0.9798870279	 0.278355
N	 1.003296955	-2.7847019738	-1.8557611322	-0.496429
O	 0.0545801014	-0.7668774942	-1.1415240495	-0.269686
H	 0.9020415857	 1.7695206763	-0.6598271185	 0.139374
H	-0.8694866474	 1.7571196375	-0.7639008437	 0.141885
H	-0.077883122	 1.9913203823	 0.8051746036	 0.13043
H	-1.2217216111	-0.119934101	 1.9446644073	 0.137676
H	-1.3353546368	-1.6165571382	 0.8967855196	 0.143151
H	 1.3026868882	-0.2801949213	 1.9379820798	 0.126542
H	 0.529456832	-2.549710287	-2.7307845763	 0.233097
104.5913	138.0145	212.8695	287.6302	321.636	348.2208	424.8575	444.3685	519.5849	596.8639	621.8491	712.4863	728.029	799.3921	864.0801	902.1788	924.4746	934.5994	963.53	1009.4472	1045.0703	1065.4295	1079.6263	1125.9287	1154.0727	1223.2967	1269.076	1312.7724	1394.6013	1432.8443	1478.4633	1484.115	1502.2848	1763.7184	1853.9249	3044.2966	3114.1477	3126.4095	3136.0946	3209.2388	3229.4842	3465.9453
CC12CC1C(=O)C(=N)O2	C[C@]12C[C@H]1C(=O)[C]([NH])O2	
InChI=1S/C6H7NO2/c1-6-2-3(6)4(8)5(7)9-6/h3,7H,2H2,1H3	InChI=1S/C6H7NO2/c1-6-2-3(6)4(8)5(7)9-6/h3,7H,2H2,1H3/t3-,6-/m0/s1
