25
gdb 81030	2.30242	1.65823	1.23869	0.0735	91.54	-0.2659	0.0806	0.3466	1169.0801	0.231083	-352.37098	-352.362159	-352.361214	-352.403456	36.277	
C	-0.1532367381	 1.4882390774	-0.078270493	-0.436382
C	 0.0348509419	-0.0234949373	 0.0033035637	 0.026783
C	 1.2209626599	-0.5836111887	-0.8369922375	-0.006349
C	 2.1112052461	-0.4241750708	 0.4293776393	-0.278834
C	 0.797729206	-0.5784784278	 1.258326929	 0.347712
C	 0.6765522768	 0.1422803159	 2.5910461343	-0.4831
C	 0.4415164306	-2.0779255259	 1.3785425954	-0.239023
C	 0.9381166051	-2.8938756709	 0.16079269	-0.206883
C	 0.9679639224	-2.0668598865	-1.1471010353	-0.212273
H	 0.7826916827	 2.0351563493	 0.076572119	 0.113979
H	-0.5353251795	 1.7703483188	-1.0658274402	 0.110546
H	-0.8717043794	 1.8447606518	 0.6678158266	 0.112632
H	-0.9297997561	-0.5120238857	-0.1864977086	 0.04832
H	 1.5018441843	-0.0214906626	-1.7326454029	 0.050757
H	 2.9191032047	-1.142802746	 0.5949523203	 0.085229
H	 2.5244665168	 0.5837823845	 0.5154896458	 0.090769
H	 0.8818188369	 1.2130929288	 2.4960896391	 0.109031
H	-0.3293877077	 0.0308093499	 3.0144502641	 0.108875
H	 1.3853733333	-0.267551708	 3.3204419237	 0.109634
H	 0.8785069595	-2.496422284	 2.2938848674	 0.08474
H	-0.6471936104	-2.1652015735	 1.4905536599	 0.091107
H	 1.9554657224	-3.2388648599	 0.3721824816	 0.102417
H	 0.3390856075	-3.8011547608	 0.0342148548	 0.090405
H	 0.0184743079	-2.156500939	-1.6900184799	 0.0921
H	 1.7441647364	-2.4644003689	-1.8115183367	 0.087809
162.1878	203.3882	217.5906	234.7707	247.8473	272.8828	316.0439	383.2209	417.1611	457.2481	470.93	597.6001	643.6017	774.2064	797.3202	817.7555	834.6805	877.6745	895.469	910.6066	920.0936	965.2074	1017.542	1039.235	1043.6871	1060.5436	1068.2631	1087.0786	1118.6611	1141.1113	1189.2629	1204.2373	1222.177	1232.9714	1245.7958	1268.2379	1285.6598	1308.2766	1318.192	1356.3414	1368.4426	1372.7468	1389.0571	1406.5948	1412.1924	1485.8012	1487.6837	1489.1629	1493.719	1494.414	1501.3757	1505.0822	1519.2566	3006.1701	3011.8607	3018.493	3019.6583	3027.0226	3035.493	3048.5907	3051.9829	3054.6434	3063.2962	3077.6286	3082.0182	3088.5885	3095.5565	3096.768	3105.7469
CC1C2CC1(C)CCC2	C[C@H]1[C@H]2C[C@]1(C)CCC2	
InChI=1S/C9H16/c1-7-8-4-3-5-9(7,2)6-8/h7-8H,3-6H2,1-2H3	InChI=1S/C9H16/c1-7-8-4-3-5-9(7,2)6-8/h7-8H,3-6H2,1-2H3/t7-,8+,9-/m0/s1
