13
gdb 130546	3.69559	1.24605	0.93185	4.4792	73.88	-0.2608	-0.0645	0.1963	1153.3484	0.090042	-415.605359	-415.597771	-415.596827	-415.637996	27.653	
O	 0.0101479336	-0.032271941	 0.0032719385	-0.30726
C	-0.0371602533	 1.1843350099	 0.0066426626	 0.142178
C	 1.1719021641	 1.9893145388	 0.0006395277	 0.29901
C	 2.2012181388	 2.6120025364	-0.0046177511	-0.422427
C	-1.3237123549	 1.9042386351	 0.0171290547	 0.268327
N	-1.3907222001	 3.2405160305	 0.0209577807	-0.290969
N	-2.6987836131	 3.5010727679	 0.0304309112	-0.174461
C	-3.4766888028	 2.3825222118	 0.0328513222	-0.025673
C	-2.6125935209	 1.3155189797	 0.0243019658	-0.264837
H	 3.1086525491	 3.164812177	-0.0091485797	 0.209424
H	-3.0026894027	 4.4612396231	 0.0349107337	 0.284546
H	-4.5532456542	 2.4436244972	 0.0402697161	 0.146126
H	-2.8454464635	 0.2646922438	 0.0231975575	 0.136017
70.4607	121.506	182.2456	238.1684	282.4557	444.5467	495.4476	568.2584	637.5095	646.9047	680.8854	693.1602	703.1337	776.158	819.0677	883.1632	943.4897	956.6235	1044.1826	1084.9736	1122.2391	1216.0489	1325.4607	1401.6046	1462.7645	1490.845	1560.4751	1732.7249	2218.7735	3266.3197	3295.864	3498.4619	3659.743
O=C(C#C)C1=NNC=C1	O=C(C#C)c1n[nH]cc1	
InChI=1S/C6H4N2O/c1-2-6(9)5-3-4-7-8-5/h1,3-4H,(H,7,8)	InChI=1S/C6H4N2O/c1-2-6(9)5-3-4-7-8-5/h1,3-4H,(H,7,8)
