19
gdb 61662	4.0692	0.84519	0.73701	2.1988	78.35	-0.2489	0.031	0.2799	1522.9293	0.156247	-422.952498	-422.942848	-422.941904	-422.988031	34.585	
C	 0.0787223016	 1.4846092906	 0.1050366009	-0.395359
C	-0.011877118	-0.0439108904	-0.0249636815	-0.051054
O	 0.6492593521	-0.7221887024	 1.042528245	-0.260602
C	 2.0487620834	-0.6927286047	 0.9941680964	 0.103086
C	 2.8119682818	 0.3640455321	 1.8337087152	-0.097167
O	 3.5614218776	-0.6714929012	 2.5001373805	-0.273215
C	 2.7206237947	-1.7019616537	 1.939560057	-0.104674
C	-1.403423725	-0.492897158	-0.0404002624	 0.313189
C	-2.5556841347	-0.8292326263	-0.0738910846	-0.43358
H	 1.1209820601	 1.8131465733	 0.0576135235	 0.121809
H	-0.4690780871	 1.9643623077	-0.7104947378	 0.131605
H	-0.3543508161	 1.8056691291	 1.0554359054	 0.138706
H	 0.459575904	-0.3434432248	-0.9764826564	 0.100399
H	 2.4057390318	-0.7577469321	-0.0426058083	 0.079447
H	 3.4636781911	 1.0682317908	 1.3033898388	 0.100893
H	 2.1547435221	 0.9115981831	 2.5219547658	 0.104978
H	 2.0155882509	-2.1136387221	 2.6731502377	 0.113868
H	 3.3015170775	-2.5130613371	 1.488139113	 0.106978
H	-3.5713144178	-1.1388792437	-0.0998030783	 0.200692
45.6885	71.3326	91.1864	155.0179	193.5623	238.4473	299.3862	321.897	383.42	455.9807	541.4848	554.5764	626.5249	674.4875	741.5779	828.8104	873.1909	886.6007	933.8912	1003.7944	1024.8325	1035.4051	1062.497	1095.0874	1131.8039	1145.5578	1153.6216	1166.9547	1201.9806	1270.1119	1300.3412	1333.9942	1347.6298	1364.8342	1399.7117	1428.7086	1487.7981	1490.7903	1499.7477	1528.1703	2245.7197	2956.7142	3008.0127	3009.8013	3023.9275	3046.3412	3065.0804	3078.1452	3121.2943	3134.9579	3504.1546
CC(OC1COC1)C#C	C[C@@H](OC1COC1)C#C	
InChI=1S/C7H10O2/c1-3-6(2)9-7-4-8-5-7/h1,6-7H,4-5H2,2H3	InChI=1S/C7H10O2/c1-3-6(2)9-7-4-8-5-7/h1,6-7H,4-5H2,2H3/t6-/m1/s1
