17
gdb 82068	2.62827	1.54673	1.19575	3.2662	67.66	-0.2425	-0.0154	0.2271	1058.2201	0.133844	-458.934787	-458.926266	-458.925322	-458.968368	31.533	
C	-0.0639234126	 1.4112350837	 0.3892108531	-0.486831
C	-0.0092459111	 0.0555837903	-0.2829493116	 0.381123
O	 0.937039434	-0.3154571076	-0.9382043569	-0.29633
C	-1.2270958023	-0.8335954303	-0.0867765344	-0.206609
C	-1.0977605481	-2.3078120988	-0.4608929767	 0.034246
O	-0.181729188	-2.9072517322	 0.4686144534	-0.251472
C	-1.5510733391	-2.7528687581	 0.8675076913	-0.020433
C	-1.6352312176	-1.3083281229	 1.3878495938	 0.099259
O	-0.7785392652	-0.9959307642	 2.4482005072	-0.422132
H	-0.1354056741	 1.2644679009	 1.4726270748	 0.163543
H	 0.8284086438	 1.9879114672	 0.1428344911	 0.13931
H	-0.9602633382	 1.9611174462	 0.0797398166	 0.130351
H	-2.097301427	-0.3610223094	-0.5572699165	 0.102519
H	-1.1983860763	-2.7841128927	-1.4273818548	 0.11962
H	-2.0831159988	-3.6402789676	 1.1891130265	 0.114854
H	-2.6381329196	-0.9791954156	 1.6656357953	 0.099847
H	 0.0471286801	-1.4683884191	 2.2705643778	 0.299135
59.2156	118.7488	157.6921	170.2709	213.1169	308.447	399.2874	454.1062	527.9724	572.4027	593.2309	673.7225	747.0026	765.026	859.931	887.3686	894.1778	917.0608	955.0108	989.3068	1028.5409	1031.4885	1058.4286	1109.2791	1158.2671	1189.581	1218.1885	1237.4644	1261.3109	1303.9491	1337.6108	1376.4763	1388.5568	1441.5179	1468.8456	1476.3945	1808.4626	3034.6817	3049.8309	3099.7239	3103.8993	3152.5848	3190.1186	3212.9461	3749.4332
CC(=O)C1C2OC2C1O	CC(=O)[C@H]1[C@H]2O[C@H]2[C@H]1O	
InChI=1S/C6H8O3/c1-2(7)3-4(8)6-5(3)9-6/h3-6,8H,1H3	InChI=1S/C6H8O3/c1-2(7)3-4(8)6-5(3)9-6/h3-6,8H,1H3/t3-,4+,5-,6+/m1/s1
