17
gdb 79100	2.53106	2.12849	1.56466	4.6696	70.41	-0.2273	0.0236	0.251	891.489	0.137713	-417.991765	-417.98459	-417.983646	-418.023052	28.699	
C	 0.0994451052	 1.572890107	 0.0059003577	-0.411192
C	 0.1038177197	 0.0550594464	-0.051088502	 0.038895
C	 0.694915586	-0.7081817407	-1.2308020833	-0.131562
C	 2.2202904861	-0.8771408756	-1.0605146047	-0.015276
N	 2.9458684952	-0.0444507761	-0.1441459885	-0.322467
C	 2.230569707	 0.0799927872	 1.0344593844	 0.405803
O	 2.4831082619	 0.8030663397	 1.9611790055	-0.372282
N	 1.0310928937	-0.7447688396	 0.9064684443	-0.220167
C	 1.293405051	-1.6822313059	-0.2342012152	-0.038352
H	 1.0576176576	 2.0112632033	-0.2814586832	 0.124057
H	-0.664459471	 1.950117495	-0.6821987339	 0.116403
H	-0.1458993548	 1.9177917674	 1.0144703657	 0.148437
H	-0.9016180507	-0.3189635247	 0.1609049715	 0.103246
H	 0.2155744162	-0.9131325875	-2.1810676908	 0.095415
H	 2.7714192086	-1.3257272789	-1.8770938797	 0.117027
H	 3.5854110302	 0.684125742	-0.4175754191	 0.256021
H	 1.243214258	-2.7562000691	-0.1111411687	 0.105993
142.7719	175.4797	214.2722	291.4832	399.8054	446.154	479.0245	565.9054	644.1989	698.027	750.6672	754.0682	795.0465	819.0869	852.392	901.7799	916.4861	975.9953	1005.2405	1013.6044	1032.7093	1065.2949	1095.263	1102.2929	1139.2247	1158.6548	1170.8563	1231.3617	1284.3732	1324.714	1361.871	1390.5404	1410.3563	1421.6068	1485.1746	1494.1399	1862.5692	3043.6091	3063.2723	3112.2015	3131.0144	3179.2406	3194.0152	3206.589	3646.711
CC1C2C3NC(=O)N1C23	C[C@H]1[C@H]2[C@H]3NC(=O)N1[C@@H]23	
InChI=1S/C6H8N2O/c1-2-3-4-5(3)8(2)6(9)7-4/h2-5H,1H3,(H,7,9)	InChI=1S/C6H8N2O/c1-2-3-4-5(3)8(2)6(9)7-4/h2-5H,1H3,(H,7,9)/t2-,3-,4+,5-/m0/s1
