14
gdb 132198	2.00679	1.80953	0.95239	3.433	70.91	-0.2104	-0.0077	0.2026	1126.3889	0.101659	-477.999563	-477.992035	-477.99109	-478.031531	29.015	
N	 0.1363503915	 1.3372958447	 0.157445742	-0.570759
C	-0.033027474	-0.0251732549	 0.0484997246	 0.428327
C	-1.1868689392	-0.7180295208	 0.0150507388	-0.262587
C	-1.208236769	-2.173116807	-0.0054031886	 0.329679
N	-2.3275452108	-2.8101611875	-0.027276274	-0.554029
C	 0.1308552288	-2.7736342866	-0.0079012597	-0.442267
C	 1.2058167773	-1.9854852598	 0.0093094026	 0.390126
F	 2.4505752026	-2.4080946344	-0.0007122793	-0.042054
O	 1.1960519659	-0.6407245855	 0.0403914489	-0.237765
H	 0.9852635142	 1.6877211536	-0.2637965145	 0.26497
H	-0.6790566484	 1.8802966195	-0.0828459275	 0.268395
H	-2.1326034149	-0.1917841338	 0.0105620754	 0.106026
H	-2.1596635449	-3.8178880161	-0.0442273266	 0.201684
H	 0.2641698109	-3.8473287815	-0.0297356622	 0.120253
156.3749	178.7383	204.5022	282.8889	333.4343	356.1329	501.2102	512.9858	569.3621	574.8208	627.5999	637.4424	668.9273	702.1013	803.351	848.2987	884.848	939.3641	956.4282	1029.5803	1127.5661	1154.2135	1239.6337	1278.85	1323.0388	1405.2166	1440.9625	1629.1686	1660.9322	1693.6128	1765.9934	3218.1228	3219.8875	3447.1321	3570.4057	3680.2323
NC1=CC(=N)C=C(F)O1	N[C@@H]1C=C([NH])C=C(F)O1	
InChI=1S/C5H5FN2O/c6-4-1-3(7)2-5(8)9-4/h1-2,7H,8H2	InChI=1S/C5H6FN2O/c6-4-1-3(7)2-5(8)9-4/h1-2,5,7H,8H2/t5-/m0/s1
