18
gdb 74545	3.33402	1.49243	1.34711	0.7149	78.67	-0.2226	0.0018	0.2244	1019.8327	0.147431	-401.791481	-401.784094	-401.78315	-401.822922	29.949	
C	 0.057234257	 1.4943094061	 0.0111079002	-0.521402
C	 0.0168501183	 0.0072483034	 0.0011549147	 0.413029
C	 0.0165498249	-0.8967351936	-0.979535176	-0.19932
C	-0.0090599435	-2.2411672429	-0.2517931616	 0.188097
C	-1.0496198131	-3.2114236004	-0.8724521405	-0.189029
O	-2.0928034911	-2.4201992849	-0.1694567744	-0.31286
C	-1.0307091253	-2.0596898688	 0.7982764287	 0.127775
C	-0.0210037212	-0.8928733994	 1.2286335121	-0.206901
N	 1.0866331156	-1.9253822292	 0.8456227928	-0.390517
H	 0.9507356653	 1.8666185849	 0.5279552153	 0.133609
H	 0.0608631133	 1.8962914736	-1.0055852621	 0.130301
H	-0.8091083934	 1.9137610322	 0.5379319434	 0.131134
H	 0.0488714073	-0.7702462646	-2.0525623299	 0.097735
H	-1.1881059363	-3.180651743	-1.9565959946	 0.120535
H	-1.0298613088	-4.2428193527	-0.5034429787	 0.111698
H	-1.0571997486	-2.8176445596	 1.5917782919	 0.079149
H	 0.0343291351	-0.4691095606	 2.2328962346	 0.074737
H	 1.0619411046	-2.6734954606	 1.5482000841	 0.212229
145.4608	171.866	257.697	307.1033	310.5166	391.8369	515.4532	545.038	570.1248	627.8655	717.769	774.0849	786.4104	811.5333	854.793	875.7719	883.9804	905.2299	934.7673	1007.1246	1038.0036	1060.9126	1073.9657	1080.5547	1121.368	1143.5403	1155.5153	1182.3461	1243.9627	1257.8031	1281.4544	1291.0784	1335.2374	1393.3919	1414.5482	1478.3681	1486.3794	1497.8056	1703.163	3016.8172	3018.4485	3037.1264	3064.7981	3108.5229	3110.148	3112.5249	3229.806	3382.7485
CC1=CC23COC2C1N3	CC1=C[C@]23CO[C@@H]2[C@H]1N3	
InChI=1S/C7H9NO/c1-4-2-7-3-9-6(7)5(4)8-7/h2,5-6,8H,3H2,1H3	InChI=1S/C7H9NO/c1-4-2-7-3-9-6(7)5(4)8-7/h2,5-6,8H,3H2,1H3/t5-,6+,7-/m0/s1
