17
gdb 66982	2.62489	1.53761	1.17212	3.0414	72.33	-0.2383	-0.0295	0.2089	1059.4001	0.135224	-421.771148	-421.763387	-421.762443	-421.803884	29.959	
O	-0.1607588806	 1.342161824	 0.0810142266	-0.457562
C	 0.0183826622	-0.0209386426	 0.0411273478	 0.363963
C	-0.206111136	-0.8410220992	-1.2496800139	-0.133246
C	 0.4548831232	-2.2006973641	-1.0598513972	-0.244234
C	 0.0250023239	-2.0727288971	 0.431342411	-0.096631
C	-1.0806587396	-1.0372776801	-0.0237991393	-0.12865
C	 0.8404872154	-0.8696757631	 1.0270652794	-0.130936
C	 2.3441870764	-0.8565926771	 0.9804167478	 0.13019
O	 3.0489283994	-0.6424434215	 1.9363169041	-0.252245
H	 0.5463222313	 1.7655215615	-0.4187084621	 0.291464
H	-0.4722769353	-0.3275962593	-2.1650212622	 0.092351
H	-0.1171315347	-2.9898472468	-1.5564665066	 0.10853
H	 1.5169296851	-2.3257986329	-1.2950963123	 0.095429
H	-0.1392152629	-2.9511436427	 1.0497961964	 0.087818
H	-2.1454700396	-0.9619957358	 0.1356426386	 0.106362
H	 0.518215848	-0.6642215977	 2.0517021763	 0.097993
H	 2.7958556536	-1.0430366855	-0.0206885743	 0.069404
44.8692	166.5663	214.0321	280.2336	339.0451	356.57	440.6263	465.69	531.5192	611.7572	718.8265	760.1513	806.0336	837.8692	873.0534	924.0086	929.5273	963.0253	994.1267	1005.3104	1043.4075	1069.9868	1096.5013	1112.6305	1133.2424	1145.1977	1186.388	1201.2539	1243.9032	1258.3404	1292.8397	1309.5468	1323.0987	1434.3741	1449.6676	1511.1891	1817.6114	2867.0646	3042.1771	3083.516	3093.65	3151.1812	3196.9576	3237.7732	3792.0412
OC12C3CC(C13)C2C=O	O[C@]12[C@H]3C[C@H]([C@@H]13)[C@H]2C=O	
InChI=1S/C7H8O2/c8-2-5-3-1-4-6(3)7(4,5)9/h2-6,9H,1H2	InChI=1S/C7H8O2/c8-2-5-3-1-4-6(3)7(4,5)9/h2-6,9H,1H2/t3-,4-,5+,6+,7-/m0/s1
