15
gdb 12997	2.81964	2.7078	1.6438	2.3747	62.44	-0.2467	0.0169	0.2635	783.4389	0.11985	-399.802033	-399.795191	-399.794247	-399.832777	26.561	
O	 0.1288105032	 1.3564572994	-0.1091117139	-0.471546
C	 0.0051387638	-0.0153192189	-0.0314983774	 0.373645
C	-0.4706584282	-0.8308145697	-1.2105468242	-0.341411
C	-1.2953979049	-0.7820826383	 0.0558272683	-0.142022
C	-1.037421968	-1.9081830982	 1.036999861	-0.105582
O	 0.3858756018	-1.8873043281	 1.3182910834	-0.245475
C	 0.9306373753	-0.7159181281	 0.8984691506	 0.364359
N	 2.0421987384	-0.2254152509	 1.2459313788	-0.579264
H	 0.998073788	 1.5514598209	 0.2731307488	 0.300642
H	-0.8363082724	-0.2377213295	-2.0411422445	 0.132089
H	 0.0402932702	-1.7498874472	-1.4830230358	 0.123008
H	-2.2551307148	-0.2817564595	 0.0587813799	 0.113713
H	-1.5759127412	-1.7614231284	 1.9798966095	 0.12304
H	-1.272878531	-2.901824983	 0.6438079695	 0.12402
H	 2.5159215099	-0.7990063305	 1.942856466	 0.230783
133.9365	204.0148	289.914	323.8742	327.7549	435.7026	474.7283	570.1887	690.4387	696.9196	753.2895	844.7243	861.3286	877.9161	933.1844	941.502	965.0648	1033.3953	1048.386	1075.237	1093.6414	1119.9521	1180.6538	1228.0862	1259.9069	1316.5332	1374.1035	1424.6326	1441.3647	1495.9306	1517.6458	1776.5125	3040.5369	3088.4084	3122.1531	3201.598	3223.2905	3500.899	3720.7204
OC12CC1COC2=N	O[C@]12C[C@H]1CO[C]2[NH]	
InChI=1S/C5H7NO2/c6-4-5(7)1-3(5)2-8-4/h3,6-7H,1-2H2	InChI=1S/C5H7NO2/c6-4-5(7)1-3(5)2-8-4/h3,6-7H,1-2H2/t3-,5+/m0/s1
