19
gdb 67670	2.52594	1.83481	1.34907	3.3719	79.07	-0.2288	0.0068	0.2355	1013.5549	0.160591	-385.90609	-385.898321	-385.897377	-385.938172	30.438	
C	-0.0428876753	 1.531105732	 0.0217012002	-0.506385
C	-0.0084861754	 0.031444871	-0.0356751028	 0.201593
C	-0.8995673993	-0.864545993	 0.8391248683	-0.080253
C	-1.5699943055	-2.0934301987	 0.2206961143	-0.247265
C	-0.3827017514	-2.9760409599	-0.2500084952	-0.215033
C	 0.8190398514	-2.0155675523	-0.2347123478	-0.166806
C	 0.5724166301	-1.036961319	 0.9479006058	-0.126818
C	 0.5798261171	-0.7834066938	-1.1401981419	 0.37493
O	 0.9611067597	-0.4922274988	-2.2432873301	-0.343428
H	 0.8949952063	 1.9557138239	-0.3494846812	 0.136347
H	-0.8538813188	 1.9281827855	-0.5983041814	 0.134315
H	-0.2012471788	 1.8863999956	 1.0448327796	 0.119305
H	-1.4231354588	-0.3084529171	 1.6106056908	 0.092425
H	-2.1869877937	-2.6099636194	 0.9621374399	 0.10383
H	-2.2274904185	-1.8146085335	-0.6089194152	 0.11143
H	-0.2095976368	-3.8007441045	 0.4496077284	 0.103804
H	-0.5445243306	-3.4107442176	-1.2402095192	 0.115085
H	 1.7988793127	-2.479182727	-0.3471255721	 0.088506
H	 1.2066129555	-0.8583311634	 1.8047888896	 0.104419
119.1288	151.1902	203.0988	227.4586	235.9657	385.1196	444.1015	542.6726	626.5834	673.9956	704.6052	784.7451	811.2081	829.2253	853.8993	884.1847	895.2476	905.9872	950.7529	987.19	1020.5516	1036.179	1058.817	1092.078	1097.5331	1145.7651	1203.669	1205.1427	1225.2536	1258.0036	1266.3845	1299.1545	1330.9739	1346.6021	1410.4493	1428.1378	1481.5742	1487.3755	1495.8772	1506.2518	1856.4592	3033.2202	3043.2105	3051.319	3083.1769	3096.8905	3102.2407	3107.6626	3124.2322	3162.9787	3217.9683
CC12C3CCC(C13)C2=O	C[C@]12[C@H]3CC[C@H]([C@@H]13)C2=O	
InChI=1S/C8H10O/c1-8-5-3-2-4(6(5)8)7(8)9/h4-6H,2-3H2,1H3	InChI=1S/C8H10O/c1-8-5-3-2-4(6(5)8)7(8)9/h4-6H,2-3H2,1H3/t4-,5+,6-,8+/m1/s1
