16
gdb 48724	4.41148	1.28922	1.15655	2.2318	69.01	-0.2361	-0.0477	0.1883	1044.6519	0.124276	-437.843092	-437.835846	-437.834902	-437.874945	27.778	
O	-0.0558345104	 0.1404086835	-0.6688298394	-0.247738
C	 0.1414393991	 0.9966525264	 0.1530042596	 0.076334
C	 1.3222061544	 1.9151415093	 0.1408825713	 0.29702
C	 1.7238669537	 2.7461715326	 1.3523628238	-0.264482
N	 2.3012859365	 4.0241519048	 0.8731865305	-0.102732
C	 3.5651669248	 3.9326695657	 0.134818696	-0.242469
C	 2.279345458	 4.0086863368	-0.608621875	-0.056947
C	 1.6880927877	 2.7024609781	-1.0716926073	-0.013066
O	 2.4167370088	 1.5407972286	-0.7020715437	-0.262475
H	-0.5719036084	 1.1860664309	 0.9862239056	 0.081429
H	 0.8343001812	 2.9771502796	 1.9501015295	 0.120492
H	 2.4335862408	 2.2188519997	 1.9976689974	 0.130397
H	 4.1936913114	 4.8150734037	 0.2164414883	 0.120463
H	 4.0894035404	 2.982708223	 0.1055016655	 0.139954
H	 1.9554442946	 4.9132309305	-1.1143215207	 0.101065
H	 1.1277279875	 2.6322591967	-1.9995966014	 0.122755
85.6518	169.2816	209.2432	298.5901	332.828	424.5381	445.0831	566.8858	695.9888	735.6896	752.1306	768.434	821.8476	857.8522	912.5656	948.0535	967.6749	1016.1622	1043.8621	1054.8123	1080.9525	1107.0419	1127.9596	1149.2169	1184.7858	1234.5117	1264.7349	1290.6702	1332.7235	1365.7001	1412.808	1429.837	1482.542	1497.3004	1826.8076	2881.4684	3039.0196	3086.7272	3114.9669	3155.092	3169.8361	3209.008
O=CC12CN3CC3C1O2	O=C[C@]12CN3C[C@H]3[C@H]1O2	
InChI=1S/C6H7NO2/c8-3-6-2-7-1-4(7)5(6)9-6/h3-5H,1-2H2	InChI=1S/C6H7NO2/c8-3-6-2-7-1-4(7)5(6)9-6/h3-5H,1-2H2/t4-,5+,6+,7?/m0/s1
