18
gdb 43636	3.25225	1.29073	1.09257	4.0628	79.74	-0.2453	-0.0321	0.2132	1149.4451	0.149146	-401.955574	-401.947834	-401.94689	-401.988257	29.9	
N	-0.3220366436	 1.2475840803	-0.1865696863	-0.525729
C	-0.0646466925	 0.0115992507	-0.0795531964	 0.389105
O	-1.0794935012	-0.9035142833	-0.1765859548	-0.228406
C	-0.5693189922	-2.2343083141	-0.0322469109	 0.025895
C	 0.9100418784	-2.0389497399	 0.1690643291	-0.078871
C	 1.187078889	-0.7369519869	 0.1450522676	-0.193306
C	-1.2639052804	-2.9673608171	 1.1038718241	-0.002891
C	-1.6363360896	-2.253905072	 2.3753178258	-0.266082
C	-2.7125358763	-2.7006650269	 1.4147411185	-0.268717
H	 0.5354534719	 1.7889652709	-0.0949821205	 0.220445
H	-0.7673289714	-2.7696071447	-0.9738745646	 0.105421
H	 1.5972053044	-2.8620645992	 0.3158501596	 0.123591
H	 2.1469628998	-0.2542465712	 0.2656640498	 0.119874
H	-0.9248091046	-3.9958709549	 1.1973703293	 0.08657
H	-1.5194155074	-2.7868329408	 3.3121910721	 0.11035
H	-1.4386095091	-1.1898198455	 2.4320531442	 0.1334
H	-3.2080750656	-1.9276466421	 0.8395811856	 0.138409
H	-3.3390910197	-3.5423017532	 1.6880688879	 0.110944
86.5405	90.7876	172.9172	245.2888	328.299	400.1959	473.3849	560.3143	664.988	716.1369	773.8693	785.7061	796.8749	826.8898	835.3459	857.7154	912.7619	927.2982	960.8405	984.3321	1019.8053	1042.3822	1068.0449	1070.1515	1092.2513	1099.9689	1135.1887	1166.2278	1200.2969	1233.5819	1268.7487	1328.9531	1347.1	1376.7679	1404.9903	1461.2916	1503.8523	1659.6017	1745.555	2985.5809	3138.6085	3140.3328	3145.8407	3217.5491	3223.7893	3237.2958	3243.2065	3510.2258
N=C1OC(C=C1)C1CC1	[NH]C1=C[CH][C@H](O1)C1CC1	
InChI=1S/C7H9NO/c8-7-4-3-6(9-7)5-1-2-5/h3-6,8H,1-2H2	InChI=1S/C7H9NO/c8-7-4-3-6(9-7)5-1-2-5/h3-6,8H,1-2H2/t6-/m0/s1
