16
gdb 64689	5.04742	0.86759	0.82115	4.6001	76.58	-0.2757	0.0012	0.2769	1369.1339	0.120979	-400.711411	-400.702047	-400.701103	-400.745881	33.661	
C	-0.1704638566	 1.6802101149	 0.1486948086	-0.470417
C	-0.1199420247	 0.1721825213	 0.1155513444	 0.386129
C	-1.3428737438	-0.532943878	-0.476367991	-0.400978
C	-1.6331884309	-0.1019913436	-1.8440313616	 0.275357
N	-1.8612945906	 0.2523640495	-2.9196304129	-0.305312
O	 1.12433027	-0.4106718055	-0.2598508609	-0.263673
C	 0.680886308	-0.600493465	 1.0979310669	-0.23568
C	 1.4387660693	 0.0230953769	 2.1476988843	 0.330519
C	 2.0630225575	 0.5150495268	 3.0492864101	-0.396746
H	 0.7244919493	 2.0800059001	 0.6265662305	 0.149069
H	-0.2361069013	 2.0758198583	-0.8691677772	 0.156416
H	-1.0489870693	 2.0242928752	 0.7044710399	 0.127927
H	-1.1770289191	-1.6144363017	-0.4769579647	 0.162079
H	-2.2230709953	-0.3321888141	 0.1456813373	 0.159597
H	 0.3632123112	-1.6209769479	 1.3148565198	 0.116851
H	 2.6197795262	 0.9527386529	 3.8412816665	 0.208862
51.5413	98.2216	141.0852	177.041	186.9995	300.7766	339.7073	374.3148	386.4484	391.0104	459.701	559.6335	629.2755	647.1562	677.128	736.9582	835.5594	891.0809	919.5664	943.0047	997.5236	1051.3584	1095.2398	1116.385	1211.6404	1254.4442	1315.8365	1358.6823	1420.2355	1439.2697	1448.4294	1486.4552	1497.0085	2241.7172	2364.9921	3045.3929	3048.8011	3097.2717	3102.3006	3112.9451	3151.0668	3500.2477
CC1(CC#N)OC1C#C	C[C@@]1(CC#N)O[C@H]1C#C	
InChI=1S/C7H7NO/c1-3-6-7(2,9-6)4-5-8/h1,6H,4H2,2H3	InChI=1S/C7H7NO/c1-3-6-7(2,9-6)4-5-8/h1,6H,4H2,2H3/t6-,7-/m0/s1
