18
gdb 10534	3.142	1.26451	1.02386	1.2231	63.48	-0.2565	0.0747	0.3312	1163.4329	0.152099	-422.041135	-422.032006	-422.031062	-422.075757	32.363	
O	-1.8156012916	 1.770329863	 0.2997875932	-0.417747
C	-1.7479332983	 0.503894109	-0.3376606805	-0.074442
C	-1.4694040161	-0.6214108525	 0.6622694954	-0.284409
C	-1.3115646032	-2.0111120015	 0.0728318936	 0.355526
C	-0.7517981333	-3.0517905669	 1.0265112731	-0.117303
O	 0.5765523914	-2.7350923054	 1.4065159996	-0.415325
C	-2.0585859402	-2.4713226178	-1.1061184727	-0.227054
O	-0.6827731303	-2.0907472835	-1.2266741967	-0.277305
H	-0.943743512	 1.9643877152	 0.6585877996	 0.281644
H	-2.7262014986	 0.3697258243	-0.810624853	 0.108247
H	-0.993645946	 0.4866146021	-1.1355679848	 0.109868
H	-0.5415954001	-0.3952178415	 1.2044186868	 0.11105
H	-2.2684595527	-0.6427367992	 1.4135741221	 0.113804
H	-1.3385773756	-3.0805537086	 1.9509292454	 0.112739
H	-0.8075590473	-4.0440306053	 0.555465681	 0.091815
H	 1.091546897	-2.7029752547	 0.5916682559	 0.293466
H	-2.2604419473	-3.5342081945	-1.2350519686	 0.114079
H	-2.7679829658	-1.8101839221	-1.5992606796	 0.121348
45.7647	85.2923	100.4272	162.0194	246.3699	294.4973	327.927	355.3606	380.2629	447.3511	471.573	584.317	736.3417	779.9369	865.1229	895.583	952.2057	978.5126	1036.3595	1070.3403	1080.3844	1092.0311	1126.746	1170.4655	1181.2698	1193.3226	1246.9936	1313.3771	1340.1473	1360.5878	1402.6961	1417.9858	1426.3827	1436.1603	1485.3172	1491.2341	1518.7595	1533.1376	2998.4906	3017.4159	3024.7309	3057.797	3077.0751	3082.1901	3089.1991	3173.7976	3795.2841	3815.2196
OCCC1(CO)CO1	OCC[C@@]1(CO)CO1	
InChI=1S/C5H10O3/c6-2-1-5(3-7)4-8-5/h6-7H,1-4H2	InChI=1S/C5H10O3/c6-2-1-5(3-7)4-8-5/h6-7H,1-4H2/t5-/m1/s1
