23
gdb 41150	2.72078	1.7815	1.36187	0.1431	88.65	-0.2611	0.0863	0.3474	1046.7353	0.210028	-351.14396	-351.136801	-351.135857	-351.174909	31.24	
C	-0.0243989227	 1.5743872687	-0.1041679179	-0.261383
C	 1.532918673	 1.5788968276	 0.0455288255	-0.347037
C	 1.4031998326	 0.2224286758	 0.7660739695	 0.384282
C	 2.1917410356	-1.1014630407	 0.8018354859	-0.310726
C	 1.3042790937	-1.4289467517	 2.0493865927	-0.000602
C	 1.276040624	 0.1040189501	 2.3074329553	-0.271958
C	-0.1082777669	-1.9218483735	 1.6427797679	-0.20279
C	-0.9352944828	-0.8025500773	 0.9467677504	-0.250965
C	 0.019634374	 0.0338331176	 0.096722777	 0.039972
H	-0.5076766988	 2.0810303352	 0.7371428842	 0.098859
H	-0.4497907921	 1.9585020433	-1.0342916306	 0.092026
H	 2.0299198356	 1.4880452174	-0.9258530466	 0.098738
H	 1.9919766414	 2.4027796728	 0.5987937916	 0.091506
H	 2.1178888374	-1.75310032	-0.0754389277	 0.081418
H	 3.2431538485	-0.9853493306	 1.0854102215	 0.088064
H	 1.7429746285	-2.073845879	 2.8143157351	 0.056794
H	 2.1918777009	 0.4434043382	 2.8015079169	 0.08894
H	 0.4138489429	 0.5440029517	 2.8158918706	 0.087437
H	-0.0068694943	-2.7884481818	 0.9771772513	 0.094814
H	-0.6468863269	-2.2757495883	 2.5293146648	 0.092553
H	-1.7548696328	-1.2331894543	 0.3621962792	 0.087833
H	-1.4034309276	-0.1704836433	 1.7094207185	 0.097653
H	 0.1738169571	-0.4431053878	-0.8802760551	 0.064574
176.0486	225.0854	320.9661	353.5695	375.6869	439.88	477.9269	515.45	559.7621	677.9174	762.1482	787.4998	803.3364	854.5547	864.439	868.568	913.5311	941.1117	944.2284	959.7761	972.9471	980.2878	1017.0652	1054.775	1091.5315	1111.073	1119.1766	1128.8158	1180.5666	1189.0553	1190.6807	1218.6461	1227.1094	1250.0075	1256.6813	1262.5939	1276.4666	1296.4292	1310.5954	1326.6033	1349.3232	1362.8435	1385.5506	1476.8216	1479.4846	1490.4231	1495.6977	1498.7298	1522.759	3009.9869	3021.5732	3030.7753	3036.4723	3045.7531	3047.7204	3053.0907	3057.9009	3076.2625	3077.942	3086.7477	3094.2914	3097.9466	3111.0327
C1CC23CC(C2)CCC13	C1C[C@@]23C[C@@H](C2)CC[C@@H]13	
InChI=1S/C9H14/c1-2-8-3-4-9(8)5-7(1)6-9/h7-8H,1-6H2	InChI=1S/C9H14/c1-2-8-3-4-9(8)5-7(1)6-9/h7-8H,1-6H2/t7-,8-,9+/m0/s1
