21
gdb 77419	1.91209	1.61825	1.60824	1.9174	82.26	-0.2167	0.065	0.2817	1084.3086	0.179651	-387.017916	-387.008363	-387.007419	-387.05191	35.961	
C	-0.023021102	 1.6299944814	-0.0105127989	-0.405837
C	 0.1526445357	 0.1131228774	 0.0563128759	-0.103304
C	 1.3838132252	-0.7291449449	-0.2092321303	 0.232249
C	 1.4762497251	-1.8038108438	-1.2548174483	-0.495027
C	 2.6649593752	-0.14760178	 0.4720568844	-0.035654
O	 2.3647239118	 1.0802845267	 1.1504227507	-0.242003
C	 2.0244456583	-0.1631320484	 1.7799766275	-0.035747
C	 0.7066184371	-0.7464277547	 1.1742504866	 0.232247
C	-0.0514417658	-1.842933795	 1.8668873628	-0.495064
H	 0.7627717216	 2.1071500943	-0.5988629154	 0.125028
H	-0.9852525266	 1.8695267814	-0.4759114019	 0.095518
H	-0.0055695875	 2.0878435536	 0.9800711051	 0.125139
H	-0.7049576334	-0.4098023292	-0.3700122851	 0.083105
H	 1.8033040321	-1.3959671881	-2.2197164873	 0.122098
H	 2.1910985687	-2.5857340685	-0.9701049821	 0.115543
H	 0.5060075684	-2.2851715366	-1.4133420692	 0.119546
H	 3.6917477854	-0.3186081086	 0.169116413	 0.102468
H	 2.4164020789	-0.3495201426	 2.7734234327	 0.102467
H	-0.616797047	-1.4578825851	 2.725045778	 0.122101
H	-0.7670409295	-2.3179818568	 1.1883261682	 0.119571
H	 0.6197972884	-2.6258134925	 2.2410704237	 0.115556
62.9642	155.8441	177.381	183.5475	206.0167	239.1649	259.6779	289.1904	317.3189	428.3016	548.9348	584.2027	584.4717	700.3795	754.3625	774.0722	826.4395	856.2734	871.2631	916.731	972.5087	994.4504	1043.5549	1067.9954	1072.2344	1091.2564	1115.5422	1116.9256	1184.948	1185.2835	1202.0483	1270.1609	1313.2438	1334.0125	1377.0008	1411.994	1418.1414	1422.7117	1476.3698	1481.6774	1487.073	1494.047	1494.0921	1496.0117	1505.9387	3012.8452	3015.3344	3040.3307	3066.5253	3067.5599	3089.977	3093.5648	3097.9709	3114.2928	3132.6035	3172.7612	3188.288
CC1C2(C)C3OC3C12C	C[C@H]1[C@@]2(C)[C@H]3O[C@H]3[C@@]12C	
InChI=1S/C8H12O/c1-4-7(2)5-6(9-5)8(4,7)3/h4-6H,1-3H3	InChI=1S/C8H12O/c1-4-7(2)5-6(9-5)8(4,7)3/h4-6H,1-3H3/t4-,5-,6+,7-,8+
