24
gdb 117690	3.81079	0.73517	0.7233	4.0791	89.98	-0.3099	0.0323	0.3422	1704.7308	0.21501	-368.448891	-368.437659	-368.436714	-368.48519	41.048	
C	 0.0335786445	 1.6626086128	-0.0864649976	-0.377141
C	-0.0101614821	 0.1346995349	 0.0220679754	-0.1966
C	 0.6697068955	-0.5477608724	-1.1719420892	-0.177446
C	 0.688636853	-2.0972952051	-1.1743966195	 0.240369
C	 1.460136998	-2.6470506741	 0.0382236855	-0.418993
C	-0.7386050418	-2.6719530225	-1.199859641	-0.418993
C	 1.4295505751	-2.5123995323	-2.4818316804	-0.357965
C	 1.5499941551	-3.9571103528	-2.6664168309	 0.269835
N	 1.6381797542	-5.1020609773	-2.7999140269	-0.324202
H	 1.0657067779	 2.0282019982	-0.1258982546	 0.115375
H	-0.4743598424	 2.0107136559	-0.992733296	 0.115376
H	-0.4545063355	 2.1354031574	 0.7711565909	 0.114635
H	 0.4745122694	-0.1733026626	 0.9556297573	 0.102929
H	-1.0542486337	-0.1906640783	 0.0950897008	 0.102926
H	 0.1778653157	-0.2059323456	-2.0938701829	 0.090128
H	 1.7070060512	-0.1886187889	-1.2330557279	 0.090127
H	 0.9482137428	-2.4088994008	 0.9743314774	 0.120899
H	 1.5540072844	-3.7357809161	-0.0182343257	 0.138477
H	 2.4699761109	-2.2243971722	 0.0905944326	 0.110928
H	-1.3141047738	-2.2672995151	-2.0402225019	 0.110928
H	-0.7202741713	-3.7615434047	-1.2987932033	 0.138475
H	-1.2777107222	-2.434060644	-0.2790709711	 0.1209
H	 0.9046638292	-2.1001317575	-3.3515992047	 0.144518
H	 2.4381258061	-2.082631507	-2.4881451265	 0.144516
68.4303	77.6588	112.0046	112.642	196.4688	236.524	253.9218	262.7631	312.5268	316.7532	320.751	398.6012	398.7572	401.5055	443.246	614.0198	745.2556	755.5371	861.002	869.1146	889.4316	935.6905	949.6827	963.9316	992.0678	1017.3421	1054.2675	1084.1661	1109.8275	1189.1516	1203.1823	1240.2501	1255.9627	1309.4254	1323.6681	1331.0068	1358.3727	1397.0929	1403.5626	1412.2289	1427.0863	1457.5893	1478.0417	1484.3051	1492.9927	1496.0751	1500.2499	1508.1704	1508.8068	1515.3609	2356.3166	2995.6822	3028.6787	3029.7502	3031.0241	3032.3958	3036.3815	3038.8347	3068.4717	3075.9487	3098.9353	3100.4074	3102.8433	3104.6836	3113.822	3117.7259
CCCC(C)(C)CC#N	CCCC(C)(C)CC#N	
InChI=1S/C8H15N/c1-4-5-8(2,3)6-7-9/h4-6H2,1-3H3	InChI=1S/C8H15N/c1-4-5-8(2,3)6-7-9/h4-6H2,1-3H3
