23
gdb 117248	4.44106	0.70873	0.66622	2.4146	87.29	-0.2371	-0.0086	0.2285	1814.1396	0.20466	-388.310134	-388.29989	-388.298946	-388.347048	36.681	
C	-0.0098187546	 1.7223244341	 0.2904082658	-0.386286
C	-0.0195830149	 0.2104646145	 0.0524578464	-0.161049
C	 0.676777113	-0.5686873496	 1.1671254354	-0.288336
C	 0.729537202	-2.0733161173	 0.9447505721	 0.357319
O	 0.353510726	-2.5844076194	-0.0883796231	-0.314671
C	 1.2389642468	-2.9095148879	 2.1019053849	-0.060217
C	 0.1280199492	-3.5627152002	 3.0005320597	-0.220215
C	 0.9687621684	-4.865770976	 3.0249768963	-0.209686
C	 1.7583060595	-4.3390833786	 1.7981478298	-0.229491
H	 1.013548551	 2.1100348799	 0.3518035608	 0.112042
H	-0.5170951032	 2.2534504889	-0.5208069539	 0.115018
H	-0.5166837557	 1.9839708899	 1.2263239187	 0.111399
H	-1.050153711	-0.1492077945	-0.0437793145	 0.108034
H	 0.4644265944	-0.0273767412	-0.9003831791	 0.114992
H	 1.7147101701	-0.2242150698	 1.2949165269	 0.119668
H	 0.2015386344	-0.3832715674	 2.1418093714	 0.116188
H	 1.9341617264	-2.3319749336	 2.7186560491	 0.070023
H	-0.0952582009	-3.0744432448	 3.9517122699	 0.100448
H	-0.8007942086	-3.6896119454	 2.4377179748	 0.117451
H	 1.5943051964	-4.9257978487	 3.9201801355	 0.101641
H	 0.4314036691	-5.8103106392	 2.9141893973	 0.10144
H	 1.3373250571	-4.6874596157	 0.852272136	 0.12785
H	 2.8407713152	-4.483891108	 1.7860832399	 0.096435
26.4781	66.083	90.2402	98.9659	154.5395	215.3505	245.9314	293.5474	313.4192	374.9593	558.8981	602.6545	695.3659	742.809	782.6688	783.882	868.0789	879.9915	896.4662	935.1697	938.7218	953.3965	1007.9187	1017.1019	1048.2426	1066.0792	1118.7983	1140.0799	1145.3298	1209.5524	1237.51	1248.5954	1254.9517	1260.5948	1279.6637	1281.7513	1311.0206	1320.9855	1371.1871	1396.795	1414.6347	1449.0476	1475.7784	1486.5442	1486.8315	1500.4337	1507.2806	1507.6818	1795.4685	2999.1073	3025.5845	3027.153	3047.5435	3057.1259	3060.4963	3060.7825	3070.1818	3074.2831	3099.0344	3102.6368	3102.7241	3119.4238	3131.8348
CCCC(=O)C1CCC1	CCCC(=O)C1CCC1	
InChI=1S/C8H14O/c1-2-4-8(9)7-5-3-6-7/h7H,2-6H2,1H3	InChI=1S/C8H14O/c1-2-4-8(9)7-5-3-6-7/h7H,2-6H2,1H3
