23
gdb 58805	3.4823	1.0259	0.92312	1.495	85.76	-0.2443	0.0775	0.3219	1381.3949	0.204633	-388.268254	-388.258471	-388.257526	-388.302602	37.641	
C	 0.1658016365	 1.5658924479	-0.107949415	-0.383695
C	 0.021616087	 0.0386156421	 0.0063616523	-0.081685
C	 0.4937684682	-0.6551205827	-1.2778476365	-0.400665
C	 0.7131332322	-0.4656779441	 1.2534677081	 0.398704
C	 2.1674880879	-0.8284474597	 1.3635962875	-0.325576
C	 1.1354982818	-1.883986236	 1.6730769166	-0.130847
C	 0.5656976467	-1.6658400114	 3.0646768646	 0.126446
O	 1.5051531656	-1.8678155058	 4.1007881308	-0.434709
C	 0.1830507322	-0.1953091344	 2.6727774749	-0.348209
H	 1.2168170268	 1.8467215569	-0.2389099605	 0.116099
H	-0.3959505132	 1.9506761915	-0.9656514811	 0.10664
H	-0.2049825213	 2.0711115151	 0.7896899988	 0.114355
H	-1.0496157026	-0.184065351	 0.1255661592	 0.068087
H	 1.5370350247	-0.410814118	-1.505225446	 0.116906
H	 0.4084825189	-1.7437966814	-1.202604197	 0.11421
H	-0.1104618841	-0.3306721496	-2.1310526237	 0.111373
H	 2.6953921036	-0.9795328823	 0.4280950862	 0.107419
H	 2.7826359396	-0.4243902772	 2.1627709781	 0.113699
H	 1.0916724866	-2.8138643666	 1.1182542613	 0.080067
H	-0.3355655876	-2.2714043847	 3.2310399004	 0.06567
H	 1.078627693	-1.6547689142	 4.937023759	 0.280426
H	 0.6989696878	 0.5892671989	 3.2363049166	 0.091939
H	-0.8953625404	-0.0154062036	 2.7122864355	 0.093345
65.2776	106.8427	158.652	215.7304	246.1105	265.5051	286.8053	297.2468	324.9268	421.9362	440.2618	467.6794	566.7707	634.3088	686.712	827.0435	851.5447	862.7021	911.1601	928.017	959.7214	964.8133	976.4374	983.6074	1024.9432	1053.5081	1077.9569	1101.146	1119.4477	1132.88	1160.8445	1184.0757	1212.1759	1220.4744	1246.9795	1284.2281	1324.4833	1346.8187	1372.2109	1396.3204	1400.0029	1421.1279	1423.213	1474.7806	1487.2232	1491.2284	1501.1264	1506.7668	1512.4578	2985.037	3002.2347	3027.5839	3033.1874	3038.4361	3093.7484	3095.1593	3099.9492	3101.0577	3103.8765	3119.6287	3176.9291	3206.8295	3813.5313
CC(C)C12CC1C(O)C2	CC(C)[C@]12C[C@H]1[C@@H](O)C2	
InChI=1S/C8H14O/c1-5(2)8-3-6(8)7(9)4-8/h5-7,9H,3-4H2,1-2H3	InChI=1S/C8H14O/c1-5(2)8-3-6(8)7(9)4-8/h5-7,9H,3-4H2,1-2H3/t6-,7-,8+/m0/s1
