18
gdb 7005	2.61202	1.88498	1.51568	2.0833	63.75	-0.249	0.0671	0.316	918.437	0.150992	-422.058971	-422.049831	-422.048887	-422.091847	34.188	
C	-0.0993173045	 1.5271274533	-0.0085678046	-0.43645
C	-0.0192940185	 0.0056696267	-0.0009203047	 0.349643
O	-1.294177824	-0.5844224368	-0.1699119362	-0.480767
C	 1.1251983569	-0.5681144543	-0.8895952944	 0.083703
O	 1.5194737853	 0.2684248247	-1.9525744739	-0.434339
C	 2.0205709835	-0.6715728526	 0.375431516	-0.332057
C	 0.7216912451	-0.579068978	 1.2257506102	 0.107048
O	 0.7041116685	 0.2435042356	 2.3672053436	-0.429299
H	 0.8736902994	 1.989903633	 0.1662906165	 0.128656
H	-0.4574677352	 1.8764060089	-0.9828622463	 0.112544
H	-0.7860155498	 1.8590906481	 0.7731838001	 0.13041
H	-1.7509061214	-0.1115776634	-0.8739218908	 0.276607
H	 0.8275813195	-1.5627180008	-1.2483525286	 0.071493
H	 2.2493323115	-0.1537516293	-2.4161168369	 0.284675
H	 2.6519913556	-1.5551491408	 0.4919538667	 0.09138
H	 2.6222463131	 0.2330502305	 0.4969145194	 0.112407
H	 0.3139507099	-1.5755293648	 1.4401576505	 0.079186
H	 1.144104485	-0.2233693	 3.0838358632	 0.28516
107.6616	202.2102	219.2306	225.9518	235.43	245.2052	251.7499	284.9338	354.0124	405.3217	479.0694	512.3732	559.2501	595.7736	736.2075	835.9297	894.9614	901.3646	974.4479	1054.5335	1057.4784	1094.813	1127.696	1146.234	1168.2067	1183.6704	1197.0321	1226.6664	1286.0708	1297.1132	1326.4108	1380.0462	1405.6904	1415.1996	1443.5198	1485.8986	1487.0574	1496.6811	3009.0741	3021.2344	3045.3679	3062.9435	3118.4092	3124.2834	3142.6503	3806.3267	3819.6079	3826.7043
CC1(O)C(O)CC1O	C[C@@]1(O)[C@@H](O)C[C@H]1O	
InChI=1S/C5H10O3/c1-5(8)3(6)2-4(5)7/h3-4,6-8H,2H2,1H3	InChI=1S/C5H10O3/c1-5(8)3(6)2-4(5)7/h3-4,6-8H,2H2,1H3/t3-,4+,5+
