18
gdb 45175	2.84849	1.85027	1.60813	1.5725	74.12	-0.2261	-0.0166	0.2095	900.6624	0.150761	-401.925913	-401.919449	-401.918504	-401.956593	27.098	
O	 0.0140076361	-0.0097730576	-0.1035606448	-0.331019
C	 0.003689069	 1.1926279377	-0.0100694557	 0.419849
C	-1.2695199431	 2.04010742	 0.1038905118	-0.3378
C	-0.9069533813	 3.3466573653	 0.8209045112	-0.002867
C	-0.1037994549	 2.9985937328	 2.1013621059	-0.251345
C	 1.1186800386	 3.1158790618	 1.1866357323	 0.014572
C	 1.2391740657	 2.0714984287	 0.0072196841	-0.153678
C	 0.9369411413	 3.2964242155	-0.9038598162	-0.188748
N	 0.3445454719	 4.0298992058	 0.2567093953	-0.136111
H	-1.6662388637	 2.2254369192	-0.9019259781	 0.130888
H	-2.0339814323	 1.47937897	 0.649501069	 0.127973
H	-1.7555302079	 4.0274447902	 0.9049504392	 0.083009
H	-0.1127761906	 3.8075757312	 2.8345122019	 0.11881
H	-0.3171499204	 2.047055655	 2.5948632531	 0.111779
H	 2.0768507125	 3.4710056558	 1.574856221	 0.082133
H	 2.1552140455	 1.4928364103	-0.1156834303	 0.082848
H	 1.8447034872	 3.8200196518	-1.2171560621	 0.119049
H	 0.2956595664	 3.1527419565	-1.7786353074	 0.11066
108.2686	315.8397	374.1788	384.1153	444.0202	471.2056	558.2814	638.5007	712.1465	727.2512	761.5646	819.8183	835.6004	890.0396	910.2041	952.1102	972.038	976.5926	988.9095	1036.5433	1063.6193	1080.662	1089.3396	1154.5306	1166.2162	1196.8447	1211.6766	1221.2846	1248.9431	1257.5832	1281.8931	1289.0326	1306.4618	1344.0523	1357.2177	1450.4945	1484.7564	1509.5519	1832.5308	3037.9665	3050.3611	3063.4876	3074.4988	3091.8374	3095.8529	3100.1225	3111.9342	3126.5806
O=C1CC2CC3C1CN23	O=C1C[C@H]2C[C@H]3[C@@H]1CN23	
InChI=1S/C7H9NO/c9-7-2-4-1-6-5(7)3-8(4)6/h4-6H,1-3H2	InChI=1S/C7H9NO/c9-7-2-4-1-6-5(7)3-8(4)6/h4-6H,1-3H2/t4-,5+,6+/m1/s1
