23
gdb 113944	3.72254	0.74357	0.73235	1.6414	86.64	-0.2544	0.0956	0.3501	1717.4207	0.204649	-388.263567	-388.253584	-388.25264	-388.299656	36.631	
C	 0.6561739214	 1.214822333	 0.3126024426	-0.374032
C	-0.2627993028	 0.1219016035	-0.2477477141	-0.212636
C	 0.3684870329	-0.5924265368	-1.419578524	 0.072196
O	 1.4470329302	-1.4965382334	-1.1387424622	-0.26517
C	 0.2480560609	-2.0296966519	-1.7168566359	 0.072041
C	-0.5357207781	-3.032010272	-0.8986061552	-0.258889
C	 0.0716697152	-4.4207524625	-0.9607711951	 0.037318
C	 1.2547845976	-4.7617164055	-0.091599449	-0.243235
C	-0.0935248807	-5.3780558923	 0.1921655641	-0.282519
H	 1.6017867556	 0.7819602779	 0.6520488615	 0.134222
H	 0.8869786901	 1.9679897212	-0.4487560948	 0.114841
H	 0.1899626111	 1.7269544154	 1.1594164519	 0.112154
H	-0.5068008556	-0.594092164	 0.5421540207	 0.103577
H	-1.2107744206	 0.564137801	-0.5815255192	 0.099352
H	 0.5724410124	 0.0622686302	-2.2720098955	 0.080723
H	 0.3692243808	-2.318116979	-2.7648948301	 0.081398
H	-0.580245336	-2.7026621275	 0.1439544027	 0.10032
H	-1.5694961993	-3.0595286302	-1.2706794133	 0.099083
H	 0.0668319461	-4.8663721782	-1.9528395908	 0.080259
H	 2.0336142646	-5.3940888755	-0.5029170791	 0.109288
H	 1.6181371604	-3.9906169794	 0.5783613734	 0.122607
H	-0.638270117	-5.0309532684	 1.0644750387	 0.107794
H	-0.2364936989	-6.4305063957	-0.0269908172	 0.109306
44.2739	65.2523	87.5534	115.6843	194.3438	225.0474	271.0895	325.7555	356.7563	446.8307	487.6903	553.4257	746.941	773.2639	793.1315	817.1344	821.7147	838.685	907.3056	928.767	959.2388	972.537	1021.8298	1035.3451	1054.5521	1074.4463	1083.9954	1112.5262	1135.4941	1144.872	1183.5079	1190.8762	1196.4651	1229.3851	1269.9299	1292.9777	1301.7396	1321.8041	1346.4691	1408.1881	1409.9043	1421.5799	1464.6881	1472.4886	1477.0144	1495.6988	1498.5733	1508.8158	1510.5032	3014.8381	3027.4944	3036.4242	3055.6709	3069.3127	3079.4048	3090.3308	3108.2957	3117.1993	3128.6879	3131.9753	3140.2181	3208.1716	3226.2709
CCC1OC1CC1CC1	CC[C@H]1O[C@H]1CC1CC1	
InChI=1S/C8H14O/c1-2-7-8(9-7)5-6-3-4-6/h6-8H,2-5H2,1H3	InChI=1S/C8H14O/c1-2-7-8(9-7)5-6-3-4-6/h6-8H,2-5H2,1H3/t7-,8+/m1/s1
