21
gdb 76899	2.21745	1.77112	1.38861	0.4879	76.61	-0.245	0.0486	0.2935	1044.7984	0.183588	-424.220981	-424.212353	-424.211409	-424.254083	33.245	
C	 0.3179802848	 1.606289643	 0.2167244628	-0.413969
C	 0.1281922634	 0.1081825368	 0.0234067924	-0.037623
C	 1.0702680611	-0.657642424	-0.9687986791	 0.090128
O	 2.1277615676	 0.0519298546	-1.5754247114	-0.424041
C	 1.429459736	-1.6779065474	 0.1676007143	-0.06681
C	 2.8532621597	-1.6264449562	 0.7278297359	-0.243694
C	 2.8141408728	-0.4134554605	 1.6727982819	-0.091093
O	 1.473173908	-0.2957313513	 2.1336585043	-0.252728
C	 0.5819281591	-0.8467070235	 1.1745853816	 0.082924
H	 1.3309949244	 1.8623215366	 0.5425327075	 0.112203
H	 0.1113400753	 2.1492921804	-0.7106095719	 0.122999
H	-0.3592631833	 1.9805698775	 0.9903120274	 0.125629
H	-0.9176105691	-0.0900868413	-0.2347241394	 0.07305
H	 0.5336974444	-1.1223760509	-1.7996690839	 0.086424
H	 2.5070148097	 0.6607461066	-0.9334951441	 0.28193
H	 1.0910335186	-2.6954598436	-0.0334527205	 0.070478
H	 3.0689991185	-2.5396959656	 1.2892976403	 0.107943
H	 3.6061006405	-1.5174802039	-0.0566430698	 0.116747
H	 3.4607121725	-0.5199857803	 2.5488811338	 0.111769
H	 3.1274389578	 0.5060174468	 1.1493155563	 0.07366
H	-0.2242571116	-1.3387061037	 1.7243796818	 0.074073
77.6802	168.3986	190.7459	211.4904	222.193	250.4813	261.1798	495.5281	508.5889	514.0546	605.774	684.265	760.8573	781.2826	840.4224	868.6008	886.6907	897.1481	949.2811	964.0776	1014.5956	1030.0316	1060.3651	1076.88	1129.9647	1140.4146	1162.6301	1171.5695	1212.1817	1216.6489	1259.1512	1263.3703	1267.6409	1286.7078	1314.1189	1331.1325	1351.8288	1356.9328	1395.4245	1411.7306	1438.111	1482.9728	1489.2816	1499.0799	1529.3985	2945.4313	3039.0752	3041.4952	3059.4304	3073.2393	3075.2713	3078.8101	3099.6754	3103.7191	3111.2816	3114.4151	3813.0151
CC1C(O)C2CCOC12	C[C@H]1[C@@H](O)[C@H]2CCO[C@@H]12	
InChI=1S/C7H12O2/c1-4-6(8)5-2-3-9-7(4)5/h4-8H,2-3H2,1H3	InChI=1S/C7H12O2/c1-4-6(8)5-2-3-9-7(4)5/h4-8H,2-3H2,1H3/t4-,5+,6+,7-/m0/s1
