16
gdb 46104	3.35644	1.10086	0.89275	1.6048	71.86	-0.2642	0.0163	0.2805	1269.9724	0.123303	-437.864128	-437.855607	-437.854663	-437.898396	30.77	
N	 0.0832343296	 1.2095283042	-0.0628663864	-0.531902
C	 0.0409725972	-0.0456958394	 0.0113263512	 0.382472
C	-1.0924320025	-0.9312436655	-0.4557192032	-0.176308
O	-0.7551497184	-2.2230767524	 0.02747942	-0.255124
C	 0.6111101735	-2.223199167	 0.3723230614	 0.200995
C	 1.4586078114	-2.9172263732	-0.7084786516	-0.377783
C	 2.8653978495	-3.0108610473	-0.3483005216	 0.300176
C	 4.0190356658	-3.0879576889	-0.0227770638	-0.436276
O	 1.0056887254	-0.8621657815	 0.5266775775	-0.226964
H	 0.9631456266	 1.571324509	 0.3066864393	 0.232618
H	-2.0498273258	-0.619829868	-0.0310610317	 0.149523
H	-1.1730179274	-0.9125486611	-1.5508639005	 0.134159
H	 0.7344364285	-2.7252254496	 1.3376241597	 0.117364
H	 1.0331883589	-3.9163894388	-0.8592316583	 0.14775
H	 1.3341617954	-2.3701121361	-1.6510949011	 0.137125
H	 5.0418243525	-3.1532983546	 0.2551345291	 0.202174
51.2414	83.6507	101.6384	144.9161	319.1967	352.1062	416.2609	445.2187	516.6997	533.7633	632.5554	657.7241	663.7895	765.9639	850.9834	888.3467	905.5123	972.1165	994.1568	1027.6191	1037.3831	1058.9103	1066.6092	1166.1844	1204.1965	1229.5418	1288.2619	1303.2988	1352.4844	1395.3172	1402.7851	1457.6905	1508.5203	1800.4275	2244.919	3020.7061	3031.9005	3059.3146	3078.2951	3100.5833	3486.709	3506.4202
N=C1COC(CC#C)O1	[NH][C]1CO[C@@H](CC#C)O1	
InChI=1S/C6H7NO2/c1-2-3-6-8-4-5(7)9-6/h1,6-7H,3-4H2	InChI=1S/C6H7NO2/c1-2-3-6-8-4-5(7)9-6/h1,6-7H,3-4H2/t6-/m1/s1
