15
gdb 7228	4.77064	1.30732	1.03257	2.0758	66.23	-0.2476	-0.0634	0.1842	1089.4325	0.118755	-396.016701	-396.008317	-396.007373	-396.050056	29.275	
C	-0.1074361933	 1.6847561068	 0.0848250243	-0.46932
C	-0.0637209035	 0.1832754774	 0.0030973527	 0.378554
O	 0.9673122483	-0.4576863714	-0.0365112252	-0.326402
C	-1.3969692303	-0.5485263669	-0.0306087511	 0.258673
N	-2.4836407611	 0.1128892469	 0.0104556595	-0.500541
N	-1.2077353149	-1.9236679119	-0.10662469	-0.316824
C	-2.1750045495	-2.8958035257	-0.1545739036	 0.101128
N	-3.4240060759	-2.6368316464	-0.1347152091	-0.453394
H	 0.9093027205	 2.0773671849	 0.1056629897	 0.136107
H	-0.6606788193	 2.0886267373	-0.76783133	 0.162178
H	-0.6609049875	 1.9944012344	 0.975768109	 0.162304
H	-3.2852571291	-0.5227516986	-0.0207101314	 0.259566
H	-0.2322648532	-2.1923067359	-0.1253292283	 0.269406
H	-1.7405550287	-3.9003728537	-0.2109981266	 0.105684
H	-3.9679539224	-3.4946924472	-0.1785633498	 0.232881
72.4804	96.6625	121.5526	191.2182	224.3795	298.4901	351.4846	421.241	499.4495	569.6536	669.7139	676.584	705.7279	818.7432	893.7585	945.4123	972.7675	1036.7827	1052.7957	1060.9496	1159.5857	1223.8022	1262.6416	1364.7542	1393.5704	1420.2856	1452.187	1459.162	1550.6269	1690.4601	1738.9142	1789.1034	3056.8888	3058.1267	3122.4114	3164.2652	3439.6587	3522.3695	3578.9512
CC(=O)C(=N)NC=N	CC(=O)C(=N)NC=N	
InChI=1S/C4H7N3O/c1-3(8)4(6)7-2-5/h2H,1H3,(H3,5,6,7)	InChI=1S/C4H7N3O/c1-3(8)4(6)7-2-5/h2H,1H3,(H3,5,6,7)
