20
gdb 55467	3.37694	1.01799	0.94142	4.1305	75.56	-0.241	0.0316	0.2727	1311.638	0.172599	-440.331945	-440.322911	-440.321967	-440.366741	33.413	
N	 0.1564685105	 1.1436668836	 0.6222134219	-0.528191
C	-0.0132505107	 0.1215971868	-0.2659238874	 0.401278
O	 0.8286693241	-0.1645068402	-1.0966281013	-0.373329
C	-1.3325294612	-0.6411488316	-0.1510290729	-0.09466
C	-2.1245097399	-0.5333732108	-1.4692592478	-0.197458
C	-3.3536315168	-1.4433623518	-1.4338279581	-0.085185
O	-3.0101580598	-2.7908880651	-1.1662081027	-0.238462
C	-2.35907726	-2.935775687	 0.0829824586	-0.085198
C	-1.0616946657	-2.1281958044	 0.1517805234	-0.197449
H	 1.0131660639	 1.6719746727	 0.5862312766	 0.260246
H	-0.531550572	 1.3798167181	 1.3142219619	 0.257821
H	-1.9403712293	-0.2195720455	 0.6620187082	 0.054824
H	-2.4363202014	 0.5018993179	-1.6515937481	 0.093745
H	-1.4663863655	-0.8306407391	-2.2917384449	 0.132369
H	-4.0691703276	-1.0789951478	-0.6743625749	 0.078076
H	-3.8658464224	-1.4439160583	-2.4004870869	 0.108764
H	-3.037341975	-2.6274391117	 0.899341835	 0.078052
H	-2.1592514246	-4.0047264071	 0.2021892488	 0.108758
H	-0.3495595661	-2.5062351257	-0.5884263825	 0.132416
H	-0.6050849605	-2.2462659729	 1.1416578828	 0.093581
25.9616	113.6646	133.769	187.0494	239.2768	285.8114	310.1553	385.9021	477.5788	493.006	560.1249	591.2076	644.5539	762.8742	821.4095	822.6346	862.8823	925.0779	935.214	997.8206	1019.9683	1050.3723	1079.9452	1099.6055	1146.569	1155.7767	1191.521	1255.2139	1265.9235	1288.318	1320.971	1327.9373	1358.5858	1369.7023	1386.6448	1412.2056	1426.8662	1474.6686	1487.9747	1493.178	1504.3881	1615.3212	1791.4911	2938.9528	2945.5089	3001.121	3037.4765	3038.5387	3080.1921	3082.9631	3094.2383	3098.5786	3602.5939	3742.9714
NC(=O)C1CCOCC1	NC(=O)C1CCOCC1	
InChI=1S/C6H11NO2/c7-6(8)5-1-3-9-4-2-5/h5H,1-4H2,(H2,7,8)	InChI=1S/C6H11NO2/c7-6(8)5-1-3-9-4-2-5/h5H,1-4H2,(H2,7,8)
