19
gdb 113152	3.12843	0.82473	0.79531	1.9707	83.3	-0.2194	0.0366	0.2559	1572.8246	0.15514	-422.967507	-422.956757	-422.955813	-423.004987	37.297	
C	-0.421322566	 1.0085144988	-0.2543643414	-0.237639
O	 0.5565035278	 0.0324745483	 0.0704280587	-0.232823
C	 1.020591501	-0.654765053	-1.0340463584	 0.092104
C	 1.4957540005	-2.0533419426	-0.8008311376	-0.383084
C	 0.2044399284	-1.8213554109	-1.5880240589	 0.148324
O	-1.0046226343	-2.0450391817	-0.9139736386	-0.439857
C	 0.1929707407	-2.0631377077	-3.0057784923	 0.066695
C	 0.1692720667	-2.2829780912	-4.1911793675	 0.045344
C	 0.1353551921	-2.5375684633	-5.6237247218	-0.5007
H	-0.0237456314	 1.754088114	-0.9593640868	 0.102754
H	-1.3144336842	 0.5450293946	-0.6886356185	 0.133645
H	-0.6873490375	 1.5108791388	 0.6783300277	 0.125278
H	 1.5383067902	-0.0461441376	-1.7773513049	 0.09393
H	 2.3743388051	-2.4128641504	-1.3230708026	 0.12091
H	 1.3478374338	-2.4270701355	 0.2062876931	 0.130894
H	-1.207711396	-2.9843232404	-0.9845627065	 0.286184
H	-0.8926251922	-2.6929188844	-5.9696533663	 0.151346
H	 0.5469725323	-1.6930191043	-6.1877134764	 0.149687
H	 0.7133475931	-3.4294563713	-5.890658821	 0.147007
15.681	75.138	95.951	121.4934	176.2862	198.1161	246.7922	256.9534	311.0421	332.797	356.9349	460.1351	474.8577	555.9837	567.6196	690.4262	793.1798	858.7266	893.4676	987.5449	1050.5461	1052.7902	1053.9735	1062.8788	1068.5063	1132.431	1173.1033	1187.1883	1239.0649	1257.4244	1286.9115	1342.3176	1400.7902	1414.4825	1458.5693	1475.8582	1479.5465	1486.5101	1491.2815	1507.7024	2358.5273	2990.997	3025.1555	3068.0864	3084.1862	3087.5367	3089.3493	3125.1283	3139.9155	3239.4804	3799.4412
COC1CC1(O)C#CC	CO[C@H]1C[C@]1(O)C#CC	
InChI=1S/C7H10O2/c1-3-4-7(8)5-6(7)9-2/h6,8H,5H2,1-2H3	InChI=1S/C7H10O2/c1-3-4-7(8)5-6(7)9-2/h6,8H,5H2,1-2H3/t6-,7+/m0/s1
