21
gdb 34295	3.14572	1.39029	1.2427	0.8738	87.55	-0.251	0.0562	0.3072	1103.6436	0.185271	-349.951878	-349.944062	-349.943118	-349.983771	32.328	
C	 0.0400813011	-1.1612266463	 0.0162197191	-0.365269
C	 0.0094594657	 0.041385825	 0.0079669767	 0.093394
C	-0.0207930026	 1.4902758077	 0.007542458	 0.233342
C	-0.8119663398	 2.1153618386	 1.195751644	-0.245459
C	-1.1099865382	 3.5667500751	 0.7072055415	-0.217641
C	-0.4535405041	 3.6124575884	-0.6909228936	-0.020541
C	 1.0813529434	 3.6122072024	-0.5123763611	-0.217612
C	 1.3854557076	 2.1609281091	-0.0272588622	-0.245504
C	-0.7089397544	 2.1820744864	-1.203129367	-0.244557
H	 0.0643907656	-2.2225311444	 0.0209455945	 0.177041
H	-1.732562705	 1.5527200803	 1.3698417056	 0.106812
H	-0.2292401897	 2.0814866663	 2.1200320344	 0.101622
H	-2.1879649219	 3.7405726913	 0.6372608199	 0.096856
H	-0.7011572191	 4.3296065885	 1.3762592697	 0.094586
H	-0.8233823079	 4.4202489417	-1.3253472855	 0.056624
H	 1.5840079599	 3.8188598817	-1.4619949936	 0.096858
H	 1.4103391738	 4.373382893	 0.20113907	 0.094587
H	 1.8650180623	 2.1248830903	 0.954439111	 0.101619
H	 2.0358409722	 1.6308889029	-0.7275680955	 0.106828
H	-0.2128533717	 1.9567770718	-2.151563858	 0.098209
H	-1.7687706771	 1.92450485	-1.285617348	 0.098203
128.8511	148.525	173.8397	326.4192	388.0688	432.183	504.889	521.0437	525.7983	550.6658	623.0017	624.7806	756.5492	777.3716	800.4419	825.1285	862.1412	924.2724	929.848	953.0664	962.1219	969.925	996.0341	1019.8104	1041.4928	1104.8284	1134.5351	1156.5627	1183.7787	1212.6113	1233.8367	1257.8904	1267.7096	1271.3936	1296.8146	1304.7676	1333.5693	1341.548	1357.8962	1483.1016	1493.2446	1496.5198	1498.8763	1525.4889	2233.8748	3046.905	3047.2788	3054.9764	3062.0987	3064.8942	3081.9641	3085.2194	3095.8957	3104.5051	3109.8961	3112.2514	3503.5513
C#CC12CCC(CC1)C2	C#C[C@@]12CC[C@@H](CC1)C2	
InChI=1S/C9H12/c1-2-9-5-3-8(7-9)4-6-9/h1,8H,3-7H2	InChI=1S/C9H12/c1-2-9-5-3-8(7-9)4-6-9/h1,8H,3-7H2/t8-,9+
