16
gdb 68973	2.61534	1.64311	1.24632	3.9512	74.97	-0.245	-0.0083	0.2367	1013.3575	0.12418	-400.757008	-400.749016	-400.748072	-400.789403	30.613	
O	 0.1259587254	 1.3567941294	 0.0994485383	-0.455195
C	 0.0343620076	-0.0218138288	 0.049205952	 0.385812
C	-0.3760109468	-0.7565857565	-1.1801846971	-0.375945
C	-1.3065626338	-0.8089125598	 0.0538172653	 0.094202
C	-1.0789571378	-1.9583707494	 0.9819562195	-0.142089
C	 0.1538235305	-1.9333561485	 1.4919914037	-0.081161
C	 0.9477197299	-0.7275497497	 1.0447834908	-0.319572
C	-2.5593272803	-0.1267634267	-0.0274842219	 0.191117
N	-3.5533967373	 0.4623412155	-0.1074381624	-0.351275
H	-0.5030774192	 1.7491374032	-0.5164186164	 0.297377
H	-0.7321914602	-0.1567190705	-2.0126719379	 0.132598
H	 0.1164200395	-1.6826982515	-1.4592193615	 0.132129
H	-1.8364973664	-2.7090900666	 1.1692146693	 0.118838
H	 0.5693338301	-2.6873836531	 2.1494303559	 0.110934
H	 1.9075474902	-0.9988109161	 0.5903366831	 0.125257
H	 1.1696103486	-0.0513930708	 1.8794696693	 0.136973
94.5921	144.4099	185.63	226.5617	329.4707	393.1556	421.7091	459.0654	509.6339	570.3699	606.596	670.2322	717.4638	738.4649	784.3392	894.8179	921.0602	951.1867	955.9709	968.1387	997.0751	1068.3614	1073.3813	1142.6942	1158.217	1188.4682	1256.6148	1293.243	1354.3532	1375.7685	1426.6416	1464.7819	1480.2889	1669.0337	2339.6869	3036.5042	3070.9259	3120.3583	3201.5137	3214.3175	3224.4879	3809.0966
OC12CC1(C=CC2)C#N	O[C@]12C[C@]1(C=CC2)C#N	
InChI=1S/C7H7NO/c8-5-6-2-1-3-7(6,9)4-6/h1-2,9H,3-4H2	InChI=1S/C7H7NO/c8-5-6-2-1-3-7(6,9)4-6/h1-2,9H,3-4H2/t6-,7-/m1/s1
