15
gdb 32028	2.88395	1.43331	0.96386	5.5828	77.66	-0.2082	-0.0554	0.1527	1157.8958	0.112675	-453.991531	-453.983213	-453.982269	-454.02508	29.732	
C	-0.1056559809	 1.4885211606	 0.0312273204	-0.329661
N	-0.0567373686	 0.0389484427	-0.0689136393	-0.35326
C	-1.1494453355	-0.756680933	-0.0175936835	 0.462429
C	-1.1417072928	-2.1358851438	 0.0388552216	-0.179292
N	-2.2977201106	-2.8303930551	 0.0569441866	-0.188425
C	-3.4403485582	-2.2014574826	 0.0198040807	-0.155154
C	-3.5703414328	-0.7647953528	-0.0381980182	 0.37439
O	-4.5486853783	-0.0746593303	-0.075460924	-0.329528
O	-2.3044907993	-0.0898310053	-0.0461361614	-0.244437
H	 0.8752095181	 1.8850277273	-0.2360207821	 0.137464
H	-0.8470245824	 1.887760582	-0.6631429612	 0.166478
H	-0.3633220909	 1.8296723136	 1.0416129501	 0.142751
H	 0.8289392551	-0.4177941015	 0.0698123948	 0.265717
H	-0.2092467219	-2.6868049412	 0.066882136	 0.101714
H	-4.3639088608	-2.7702698005	 0.0352565594	 0.128813
70.9947	99.0214	152.6295	188.5956	190.5656	382.8921	436.9378	465.0678	493.6482	507.5835	614.9808	708.3149	712.2739	759.7999	789.8763	865.5152	872.365	1008.6361	1033.9446	1117.5468	1149.6712	1167.3153	1202.9184	1324.061	1387.5653	1429.4498	1458.5258	1483.4778	1496.8816	1516.3292	1545.4647	1649.0822	1856.0236	3027.0784	3108.4476	3148.3961	3185.4586	3192.6262	3658.8448
CNC1=CN=CC(=O)O1	CNc1cncc(=O)o1	
InChI=1S/C5H6N2O2/c1-6-4-2-7-3-5(8)9-4/h2-3,6H,1H3	InChI=1S/C5H6N2O2/c1-6-4-2-7-3-5(8)9-4/h2-3,6H,1H3
