21
gdb 122498	4.21219	0.59848	0.5505	4.0927	82.38	-0.2458	-0.0175	0.2283	2009.5594	0.180268	-424.212358	-424.202101	-424.201157	-424.248908	35.804	
C	-0.0439052522	 1.4207126999	-0.2117682807	-0.229687
O	-0.0325902412	 0.0563994188	 0.1324856352	-0.230441
C	-1.282883975	-0.5672767811	-0.0486402939	-0.042651
C	-1.1497065773	-2.0337790925	 0.3520176157	-0.238284
C	-2.4640139642	-2.772957315	 0.2005720581	-0.00108
C	-2.8549574305	-3.4363388492	-1.0779580326	-0.297363
C	-2.5645673608	-4.2990440419	 0.1468032243	-0.121831
C	-1.3593443861	-5.1572406592	 0.1435997483	 0.165959
O	-1.285488202	-6.2257839721	 0.7000506411	-0.270729
H	 0.9617021312	 1.8109275329	-0.0376072425	 0.128915
H	-0.3060051734	 1.5738053931	-1.2709141289	 0.103441
H	-0.7580227426	 1.9921316586	 0.4025763015	 0.103812
H	-2.0554446994	-0.070854696	 0.5655434144	 0.083683
H	-1.6098491751	-0.4858783161	-1.0998387527	 0.088176
H	-0.3668072144	-2.4863571739	-0.2642443935	 0.112148
H	-0.801542029	-2.0820903122	 1.3901978364	 0.118728
H	-3.2814112184	-2.3267423065	 0.7626460766	 0.100204
H	-3.8822671615	-3.3932026687	-1.420534701	 0.127882
H	-2.1171908408	-3.4633769215	-1.8749356088	 0.124456
H	-3.4091020261	-4.746973562	 0.6590209469	 0.107224
H	-0.4974386013	-4.7563874052	-0.4373427538	 0.067437
54.2758	72.5871	88.0205	121.4513	131.648	221.8611	234.251	262.2	332.7802	377.5907	415.5538	485.7737	544.8676	793.2493	815.5894	844.723	872.9574	926.6392	970.0062	997.6517	1047.9828	1051.7751	1072.1727	1085.6143	1139.5208	1164.0112	1171.8549	1189.9485	1197.3336	1226.8201	1231.8711	1248.7265	1309.4029	1314.1851	1346.8781	1414.7897	1427.8568	1451.8965	1482.2598	1486.1712	1487.0161	1494.8749	1505.411	1532.3441	1815.1875	2866.8452	2941.4109	2968.6292	2971.0869	3011.8801	3045.3631	3090.3994	3115.1611	3128.5413	3133.4301	3177.377	3218.7369
COCCC1CC1C=O	COCC[C@H]1C[C@H]1C=O	
InChI=1S/C7H12O2/c1-9-3-2-6-4-7(6)5-8/h5-7H,2-4H2,1H3	InChI=1S/C7H12O2/c1-9-3-2-6-4-7(6)5-8/h5-7H,2-4H2,1H3/t6-,7-/m0/s1
