21
gdb 50591	3.00954	1.24472	1.01517	3.0075	82.21	-0.2419	-0.0186	0.2233	1223.3212	0.184201	-387.105889	-387.097646	-387.096702	-387.139444	31.593	
O	 0.1529938154	-0.1191132913	-0.2185835831	-0.255021
C	 0.0741699959	 1.0800275562	-0.1227020338	 0.145829
C	 1.2502615078	 2.0227242188	-0.0894751324	-0.061629
C	 1.1959333419	 3.122618278	-1.1750139001	-0.241111
C	 2.2388746174	 4.1520835848	-0.694787286	-0.222356
C	 2.1201455156	 4.1645640443	 0.8388673222	-0.002637
C	 0.9305946385	 4.97317948	 1.4322568175	-0.220587
C	 0.1644216746	 3.6536927269	 1.7239678115	-0.236988
C	 1.3927174822	 2.8251441712	 1.2263418091	-0.028941
H	-0.9219067837	 1.5764580887	-0.0549876487	 0.067937
H	 2.1502390896	 1.4134744421	-0.2282341033	 0.090941
H	 1.403434058	 2.7346804976	-2.1758169714	 0.109695
H	 0.1946500827	 3.5711245698	-1.2046933605	 0.104257
H	 3.2402413833	 3.8149266904	-0.9859320007	 0.10176
H	 2.090037184	 5.1419468857	-1.1382849174	 0.098703
H	 3.0811080197	 4.3543930708	 1.3212212459	 0.067866
H	 1.1898856689	 5.5415764245	 2.3285403507	 0.102347
H	 0.4412938119	 5.6561450238	 0.7310292818	 0.096097
H	-0.0914100447	 3.4874121547	 2.7726278683	 0.10533
H	-0.7492649652	 3.5294777192	 1.1379590225	 0.101434
H	 1.8593474462	 2.2273952037	 2.0110086381	 0.077072
61.5127	73.4683	146.3251	235.8606	300.7464	353.4252	407.2067	445.1176	576.9854	629.5949	731.1046	744.1871	809.6217	837.9897	870.8735	891.7557	938.8039	949.4572	963.5979	983.7089	993.2704	1035.3541	1063.1798	1079.3642	1111.2332	1155.5661	1176.5068	1185.6633	1223.2718	1238.2139	1257.4271	1268.7119	1275.3774	1292.2869	1303.9496	1330.9956	1332.5283	1347.8616	1355.768	1435.6284	1475.0786	1487.0216	1490.3251	1503.9739	1824.6207	2857.1833	3028.6139	3035.9777	3050.8094	3052.3846	3067.4199	3076.2209	3081.4757	3092.5082	3097.9658	3099.0631	3120.6284
O=CC1CCC2CCC12	O=C[C@H]1CC[C@H]2CC[C@@H]12	
InChI=1S/C8H12O/c9-5-7-2-1-6-3-4-8(6)7/h5-8H,1-4H2	InChI=1S/C8H12O/c9-5-7-2-1-6-3-4-8(6)7/h5-8H,1-4H2/t6-,7+,8+/m0/s1
