21
gdb 105400	2.27449	1.14614	0.97877	2.8323	79.71	-0.2431	-0.0185	0.2245	1339.6464	0.178859	-424.214067	-424.203607	-424.202663	-424.250229	37.172	
C	 0.7635716253	 1.0296816645	 0.4289788815	-0.255398
O	 0.0214785671	-0.0687861722	-0.0736826346	-0.281851
C	 0.4986436777	-0.6032230891	-1.2779051018	 0.414427
C	 0.2735940254	 0.2958263001	-2.4823141343	-0.351514
C	-1.1804491894	 0.7157843567	-2.5837819235	 0.175311
O	-1.5536964439	 1.8503972115	-2.7300676738	-0.244582
C	 1.7163397234	-1.4966725161	-1.2121728034	-0.361965
C	 0.336225336	-2.0968228123	-1.4099403625	-0.054759
C	-0.3097622323	-2.9188833051	-0.3173419631	-0.403241
H	 1.8301526518	 0.7842908721	 0.5248137629	 0.109373
H	 0.6604659819	 1.9217849812	-0.2026872486	 0.124164
H	 0.3575616083	 1.2550981131	 1.4176096192	 0.130717
H	 0.8940080699	 1.1970550757	-2.4554486544	 0.119639
H	 0.5338013258	-0.2566859008	-3.3947004674	 0.121571
H	-1.9062750363	-0.1260532562	-2.513799815	 0.078693
H	 2.4216531573	-1.4940583895	-2.0364149142	 0.111025
H	 2.1649798269	-1.6249470411	-0.2324468651	 0.119241
H	 0.1226769002	-2.4431153119	-2.4185271314	 0.083799
H	-0.1249314929	-2.4764152174	 0.6634422868	 0.131044
H	-1.3947851915	-2.9757164101	-0.4556480125	 0.119137
H	 0.0828691993	-3.9412376632	-0.3180786747	 0.115168
41.5484	77.4983	119.0161	147.5878	176.2457	196.1522	213.2606	268.8891	291.0683	361.6291	431.6925	457.2625	512.7204	580.7042	716.4094	794.321	798.9962	886.5848	907.8004	946.2875	989.2828	1025.5889	1045.6382	1082.9406	1096.2881	1114.3523	1139.6351	1184.6368	1188.8622	1192.5577	1220.1636	1256.4512	1301.0231	1322.312	1404.0193	1423.2338	1424.5475	1455.2389	1474.5833	1484.2471	1493.837	1499.3244	1503.6397	1509.3285	1836.154	2875.4546	2999.9616	3032.0544	3037.052	3056.8803	3090.0196	3094.0895	3121.6451	3123.2957	3128.9667	3140.4479	3216.5803
COC1(CC=O)CC1C	CO[C@@]1(CC=O)C[C@H]1C	
InChI=1S/C7H12O2/c1-6-5-7(6,9-2)3-4-8/h4,6H,3,5H2,1-2H3	InChI=1S/C7H12O2/c1-6-5-7(6,9-2)3-4-8/h4,6H,3,5H2,1-2H3/t6-,7+/m1/s1
