16
gdb 30371	4.53846	1.04385	0.85386	1.4836	74.97	-0.22	-0.0158	0.2041	1302.3991	0.125392	-434.104375	-434.096022	-434.095078	-434.137619	30.516	
C	-0.0412665204	 1.4376052492	 0.018336343	-0.338119
N	-0.0579911782	-0.0117490638	 0.0294760719	-0.297423
C	 0.5504218391	-0.6119032951	-0.9248422302	 0.249799
N	 1.2478861264	-0.0384598416	-1.9637234196	-0.570833
C	 0.5689375337	-2.0841101116	-0.9366272581	 0.263162
C	 0.0746872557	-2.9529474738	-0.0191335374	-0.096452
O	 0.3185051393	-4.2192833503	-0.4644007084	-0.137359
C	 0.9569956692	-4.0483984359	-1.6435916501	 0.069784
N	 1.1367029283	-2.8145833732	-1.9798863915	-0.329673
H	 0.9813987281	 1.8482114142	 0.0209615816	 0.11184
H	-0.558645009	 1.8603549416	-0.8602961013	 0.102009
H	-0.5550086764	 1.8157214244	 0.9057934271	 0.121037
H	 1.0479690375	 0.9177358407	-2.2028622106	 0.255044
H	 1.5010703737	-0.6510633427	-2.7238958791	 0.269137
H	-0.434962758	-2.8448984058	 0.9205518749	 0.171687
H	 1.246747461	-4.9406127063	-2.1755480123	 0.156359
81.0411	141.0673	146.8753	160.3838	294.0276	307.5074	384.2354	401.0956	489.2352	532.6628	631.7558	668.4427	737.1299	758.9035	817.6817	849.7382	936.2327	960.3255	1011.2083	1094.0606	1103.2043	1111.8714	1134.5349	1190.0684	1209.3001	1250.4224	1344.0988	1384.0193	1435.4955	1491.2264	1503.2166	1557.3198	1613.1396	1642.6166	1722.5536	2950.0093	2996.6672	3097.3211	3279.3017	3318.1145	3588.656	3713.9283
CN=C(N)C1=COC=N1	CN=C(N)c1cocn1	
InChI=1S/C5H7N3O/c1-7-5(6)4-2-9-3-8-4/h2-3H,1H3,(H2,6,7)	InChI=1S/C5H7N3O/c1-7-5(6)4-2-9-3-8-4/h2-3H,1H3,(H2,6,7)
