16
gdb 21224	3.22012	1.89336	1.2124	3.5463	67.61	-0.217	0.0129	0.2299	979.5832	0.130813	-379.918201	-379.910149	-379.909205	-379.950672	28.851	
C	-0.0197550062	 1.4264703449	 0.0189216747	-0.319395
N	-0.1280715227	-0.0232784313	 0.0902684247	-0.37801
C	 0.5906619986	-0.6947164979	 1.0522087672	 0.388784
N	 1.1856656542	-0.0626653914	 2.0436389994	-0.241154
O	 1.7371845468	-1.0757960529	 2.8435426517	-0.186889
C	 1.4607176586	-2.2609336689	 2.2840046778	 0.00975
C	 0.7390340561	-2.1218861156	 1.1457455381	 0.068901
C	 0.2001726394	-3.1571103015	 0.2130437857	-0.522918
H	 1.0039971616	 1.7725395347	-0.180843366	 0.125101
H	-0.683876202	 1.7919443873	-0.7674780028	 0.118658
H	-0.3335136601	 1.8570223352	 0.9728646582	 0.155902
H	-0.1534258683	-0.4928359782	-0.8019832269	 0.241199
H	 1.8358113937	-3.1282854789	 2.8070685962	 0.142425
H	-0.8878798896	-3.073530367	 0.1079288736	 0.137376
H	 0.630373741	-3.0666989806	-0.7926865783	 0.126473
H	 0.4238772989	-4.1649254878	 0.5719557868	 0.133796
109.9868	141.8996	157.6848	179.5677	244.6616	274.9678	365.3598	474.253	536.1104	586.0345	626.5859	736.26	767.1293	840.7689	918.7881	945.6086	1015.0243	1067.9369	1075.2019	1147.251	1161.3989	1183.8228	1237.6155	1307.0243	1391.0543	1422.441	1453.5645	1479.6027	1482.5509	1497.3009	1510.2626	1523.301	1579.1824	1680.107	3008.1114	3019.2147	3067.4917	3092.4793	3114.8603	3133.7686	3252.1214	3611.9661
CNC1=NOC=C1C	CNc1nocc1C	
InChI=1S/C5H8N2O/c1-4-3-8-7-5(4)6-2/h3H,1-2H3,(H,6,7)	InChI=1S/C5H8N2O/c1-4-3-8-7-5(4)6-2/h3H,1-2H3,(H,6,7)
