20
gdb 107073	4.41577	0.92676	0.90377	1.3452	85.84	-0.249	0.0433	0.2923	1383.6133	0.170012	-365.945516	-365.936365	-365.935421	-365.979525	34.725	
C	 0.1822050546	 1.5006260732	 0.2399874503	-0.379511
C	-0.1330451864	 0.0258245856	-0.044411539	-0.278979
C	 0.5141927593	-0.4661962722	-1.3073715863	 0.366398
C	 0.0893469986	-0.1017853552	-2.7421374773	-0.314401
C	 0.5209523401	-1.5460327359	-3.2084608075	-0.187995
C	 1.5511630972	-1.6543352773	-4.2249566836	 0.321328
C	 2.430086454	-1.7156538133	-5.0445404909	-0.463581
C	 0.9434283716	-1.8380935689	-1.7465232972	-0.115392
N	 1.9191063551	-0.8680338802	-1.2753712679	-0.357315
H	 1.2614932509	 1.6499287664	 0.3419954376	 0.12937
H	-0.1724736586	 2.1482901813	-0.5692641579	 0.114716
H	-0.2961011519	 1.8336389675	 1.1658484728	 0.112998
H	 0.2182970763	-0.594275799	 0.7872139772	 0.110893
H	-1.2191111321	-0.1164895262	-0.1159987832	 0.093681
H	-0.9864509279	 0.0517383997	-2.857119158	 0.110144
H	 0.6210562781	 0.7339527915	-3.2056017131	 0.106802
H	-0.358634744	-2.1313078016	-3.4926326387	 0.107043
H	 3.1970007036	-1.7841285772	-5.7757727601	 0.197608
H	 0.8841101154	-2.8029056157	-1.2549033584	 0.096673
H	 2.4819897762	-0.4824427625	-2.0325425688	 0.22952
74.5844	85.8576	128.4681	202.1057	220.762	280.1393	343.6533	389.1571	439.7894	504.9118	594.4167	622.1334	633.826	665.1535	736.4108	787.1783	810.4228	855.7771	914.3123	947.0707	976.2293	987.8055	1010.8971	1045.1766	1069.305	1105.3324	1125.7009	1135.3634	1186.8294	1195.0857	1237.8173	1262.2827	1271.4388	1321.101	1334.2212	1353.6349	1406.9532	1448.685	1475.5805	1490.2281	1499.4528	1509.7534	2228.3503	3024.9284	3035.1246	3056.3779	3062.5485	3071.7633	3103.9334	3112.8019	3113.8692	3172.5515	3456.6478	3502.7387
CCC12CC(C#C)C1N2	CC[C@]12C[C@@H](C#C)[C@H]1N2	
InChI=1S/C8H11N/c1-3-6-5-8(4-2)7(6)9-8/h1,6-7,9H,4-5H2,2H3	InChI=1S/C8H11N/c1-3-6-5-8(4-2)7(6)9-8/h1,6-7,9H,4-5H2,2H3/t6-,7-,8+/m1/s1
