17
gdb 31840	5.01278	0.9941	0.83633	2.809	82.06	-0.1863	-0.0127	0.1737	1340.942	0.137484	-418.065944	-418.057571	-418.056627	-418.098832	31.595	
C	 0.0319897345	 1.4304676763	-0.1212193182	-0.322271
N	-0.1398345072	 0.0194829098	 0.1374237597	-0.345914
C	 0.5772819423	-0.6488592777	 1.1106432182	 0.39297
N	 0.587933774	-1.9862894927	 1.0023146065	-0.340845
C	 1.2229959789	-2.6992795444	 1.9270276404	-0.055965
C	 1.8921732899	-2.1350321629	 3.0130713336	 0.322765
O	 2.5112431968	-2.9735453486	 3.8994847323	-0.44909
C	 1.89114796	-0.7467723598	 3.1192104338	-0.212149
C	 1.2322130793	 0.0129960656	 2.1619211395	-0.189972
H	 1.0789760579	 1.7166280218	-0.3104343578	 0.11454
H	-0.5613163086	 1.7030859712	-0.9965419323	 0.128084
H	-0.3329793779	 2.0317376538	 0.7201881021	 0.129654
H	-0.3524034928	-0.5700069894	-0.6522521191	 0.241902
H	 1.2144759539	-3.7807540381	 1.8136808024	 0.110186
H	 2.9258819363	-2.4484910148	 4.591111714	 0.294341
H	 2.4044598346	-0.257355765	 3.9435149485	 0.089
H	 1.2246424381	 1.0931633747	 2.2347755761	 0.092766
82.6824	147.8004	198.5239	210.681	288.5925	362.1738	379.3925	435.1984	448.0115	460.5918	544.0249	576.9899	662.3545	764.4979	775.2031	829.4285	863.5237	932.2128	947.6585	1024.5218	1091.2727	1144.1125	1155.9908	1178.6768	1201.8527	1286.6153	1298.8637	1330.3319	1357.9507	1437.7086	1468.1094	1483.9157	1497.1594	1523.6545	1552.8163	1622.8004	1663.8913	2975.7286	3046.8177	3121.4195	3153.8867	3158.0154	3207.7121	3627.1399	3828.1915
CNC1=NC=C(O)C=C1	CNc1ncc(O)cc1	
InChI=1S/C6H8N2O/c1-7-6-3-2-5(9)4-8-6/h2-4,9H,1H3,(H,7,8)	InChI=1S/C6H8N2O/c1-7-6-3-2-5(9)4-8-6/h2-4,9H,1H3,(H,7,8)
