19
gdb 96439	2.8009	1.2338	1.01196	2.7144	71.66	-0.2399	-0.0231	0.2169	1199.5174	0.159857	-460.174203	-460.165664	-460.16472	-460.207887	32.04	
O	 0.1030618636	 1.4094001628	-0.0486793558	-0.441992
C	 0.0647784101	-0.010670482	-0.0102631488	 0.107864
C	 0.747780771	-0.5118485528	 1.2626961163	-0.119879
O	 0.0584791244	-0.0048179958	 2.398041959	-0.257736
C	-1.265795286	-0.5226519037	 2.4816727236	-0.083727
C	-2.1091031347	-0.1336161242	 1.2643753062	-0.237743
C	-1.3917882169	-0.542090827	-0.0427512878	-0.084389
C	-2.1513012801	-0.0217413354	-1.2464454944	 0.138835
O	-2.7875048451	-0.7174007673	-1.9976479484	-0.254513
H	 0.015274088	 1.706629624	 0.8660438363	 0.290301
H	 0.6104971139	-0.3651737291	-0.8919003101	 0.093043
H	 0.7817893387	-1.6126278291	 1.2844201364	 0.09727
H	 1.7687838615	-0.1247020458	 1.3222085276	 0.120548
H	-1.2254522859	-1.6201839047	 2.5769341938	 0.097683
H	-1.693259707	-0.1178600477	 3.4030573303	 0.117039
H	-3.0920183523	-0.6124257987	 1.3239259224	 0.117931
H	-2.2764470244	 0.9500856768	 1.2698692527	 0.11294
H	-1.3717138178	-1.6353680337	-0.122125685	 0.090013
H	-2.0897400109	 1.0784610934	-1.3855206541	 0.096511
49.214	117.4086	170.4701	230.9036	295.4222	319.9203	355.3991	420.6795	457.0825	461.9911	543.1513	608.0614	722.198	821.2651	864.8274	879.4666	918.1125	975.9624	1004.4927	1025.5039	1048.0875	1065.163	1107.6806	1154.5503	1158.7052	1218.5217	1233.492	1268.3949	1281.8698	1329.2014	1333.4603	1342.2613	1379.7576	1384.249	1416.0148	1420.9119	1430.832	1482.621	1486.6952	1500.5816	1825.9456	2914.4315	2975.2715	2987.6091	3036.7334	3046.4032	3055.4633	3085.9307	3092.4421	3094.9545	3769.5054
OC1COCCC1C=O	O[C@H]1COCC[C@H]1C=O	
InChI=1S/C6H10O3/c7-3-5-1-2-9-4-6(5)8/h3,5-6,8H,1-2,4H2	InChI=1S/C6H10O3/c7-3-5-1-2-9-4-6(5)8/h3,5-6,8H,1-2,4H2/t5-,6-/m0/s1
