18
gdb 108992	3.19484	1.18953	1.11064	3.3771	78.82	-0.2335	-0.0006	0.233	1182.147	0.148182	-401.926026	-401.917954	-401.91701	-401.959123	30.689	
C	-0.283069308	 1.4621417619	-0.0314742375	-0.374953
C	 0.1462201132	-0.0158178023	-0.0315652984	-0.315042
C	 0.8417727387	-0.429718273	-1.286967605	 0.34176
C	 2.0793344286	-0.9351783796	-1.4947892416	-0.214957
C	 2.0792132919	-1.3007055986	-2.9687895506	-0.17129
N	 1.3115386324	-0.2001601961	-3.6298941978	-0.288931
C	 0.2108690057	-0.5295564938	-2.6744943249	-0.229241
C	 0.6652806453	-2.0287096156	-2.9637366434	 0.458264
O	 0.1969107602	-3.1059982484	-3.0860572835	-0.298101
H	 0.5852722981	 2.1212182765	-0.1271756583	 0.122014
H	-0.9614677056	 1.6799127741	-0.8623937888	 0.122676
H	-0.8009685914	 1.7142215163	 0.8985993264	 0.119363
H	 0.7986071468	-0.2128090279	 0.8264112463	 0.110231
H	-0.7442825985	-0.6445479845	 0.1072504863	 0.119909
H	 2.8425205153	-1.1791306487	-0.7685259304	 0.112458
H	 2.9724446807	-1.6851330935	-3.4555617052	 0.090722
H	 1.723650354	 0.7088232914	-3.4012034809	 0.206905
H	-0.7871148875	-0.1407484483	-2.8668207129	 0.088211
61.9928	107.3608	179.144	213.4699	289.4315	366.0611	430.1405	517.2982	573.3102	588.5907	676.4595	750.3288	786.9779	811.8124	830.0205	854.9846	901.2831	939.2385	950.6238	989.0525	1045.0958	1054.682	1066.5469	1086.4003	1088.4684	1185.5965	1192.3655	1230.6242	1266.8539	1279.8629	1314.9508	1327.3866	1350.9348	1409.3616	1474.8549	1498.5916	1504.9589	1629.4703	1938.8361	3013.876	3038.6373	3062.9609	3110.8104	3113.0151	3147.1893	3154.5901	3227.7565	3412.1986
CCC1=CC2NC1C2=O	CCC1=C[C@@H]2N[C@H]1C2=O	
InChI=1S/C7H9NO/c1-2-4-3-5-7(9)6(4)8-5/h3,5-6,8H,2H2,1H3	InChI=1S/C7H9NO/c1-2-4-3-5-7(9)6(4)8-5/h3,5-6,8H,2H2,1H3/t5-,6+/m0/s1
