19
gdb 67447	2.54213	1.70613	1.6289	1.0638	79.39	-0.2186	0.0206	0.2392	958.0523	0.161334	-385.872788	-385.865514	-385.86457	-385.903898	30.3	
O	-0.0823910384	 1.4040534071	-0.0086302353	-0.46807
C	-0.0024394328	 0.0225809884	-0.0165562316	 0.377339
C	-1.1311789322	-0.9749779431	 0.082006802	-0.122791
C	-0.5565416436	-1.7914944106	-1.0731003249	-0.239794
C	 0.6760807376	-0.8181586686	-1.1248846202	-0.092675
C	 2.0243732697	-1.436302456	-0.7439764273	-0.274273
C	 1.9569338379	-2.0962418086	 0.6144285	-0.084909
C	 0.9843871804	-1.8290438996	 1.4905474241	-0.046228
C	-0.0806895457	-0.8329634557	 1.2107248283	-0.158198
H	 0.6597615026	 1.7486585772	 0.4999593324	 0.284597
H	-2.1787156614	-0.8033375437	 0.2986887321	 0.089666
H	-0.3274837324	-2.8403179038	-0.8633306962	 0.099326
H	-1.1705380799	-1.7317559434	-1.9746090168	 0.102748
H	 0.7321668066	-0.2735401617	-2.0700131208	 0.075233
H	 2.32291428	-2.1748110044	-1.5001149997	 0.103543
H	 2.8162591736	-0.6708294519	-0.7566140456	 0.101026
H	 2.7304164242	-2.8180835535	 0.8629161413	 0.084222
H	 0.9566625056	-2.3399943429	 2.4496057478	 0.082866
H	-0.5036935016	-0.3228949452	 2.0719735604	 0.086374
184.8984	206.1331	261.8787	311.4205	377.6186	381.8467	494.8848	508.7777	556.3421	643.2223	664.6985	755.2282	811.4973	818.2316	851.5101	889.0672	902.0352	927.8376	975.737	994.1437	1016.2741	1029.0613	1049.5748	1075.9064	1085.4299	1139.8069	1164.7026	1187.4938	1212.7662	1219.499	1244.5353	1286.2541	1310.8836	1316.3756	1325.9581	1368.2309	1416.3599	1466.8734	1472.9256	1497.5236	1702.6546	2984.9579	3026.5331	3056.1225	3083.2975	3110.9778	3144.088	3153.1388	3171.3197	3185.8513	3795.2008
OC12C3CC1CC=CC23	O[C@@]12[C@H]3C[C@@H]1CC=C[C@@H]23	
InChI=1S/C8H10O/c9-8-5-2-1-3-6(8)7(8)4-5/h1,3,5-7,9H,2,4H2	InChI=1S/C8H10O/c9-8-5-2-1-3-6(8)7(8)4-5/h1,3,5-7,9H,2,4H2/t5-,6+,7-,8-/m0/s1
