15
gdb 37759	3.06327	1.73053	1.17226	2.0978	72.07	-0.2097	-0.0375	0.1722	986.7712	0.114817	-416.834534	-416.8277	-416.826756	-416.865867	26.711	
C	-0.0349386765	 1.7700473792	-0.399568396	-0.273531
N	 1.2517550273	 1.7505755815	 0.3083420572	-0.360831
C	 1.7039217011	 0.4607321146	 0.3859927109	 0.395034
N	 2.4169108451	-0.1468776487	 1.2723145687	-0.344018
C	 2.2349709024	-1.5254473768	 0.9615619003	-0.017349
C	 1.380328247	-1.7748243512	-0.0532921541	-0.186985
O	-1.4076205173	-0.1584093958	-1.0347772496	-0.28026
C	-0.3362655906	 0.2777880874	-0.7324136472	 0.352046
C	 1.0204316994	-0.4298445522	-0.6158026548	-0.206809
H	-0.8420336691	 2.1906889421	 0.2084441844	 0.147812
H	 0.0117783651	 2.3411909441	-1.3358638275	 0.145141
H	 1.3596505987	 2.3280372377	 1.1296391771	 0.259433
H	 2.7593282395	-2.2548329321	 1.5662644575	 0.109276
H	 1.1174707671	-2.7293766246	-0.4810691942	 0.110469
H	 1.4697842707	-0.2985522351	-1.6152936528	 0.150571
107.8519	164.8986	275.2999	348.966	434.2769	484.1464	572.1481	589.4867	625.3269	666.4978	711.706	753.812	793.1046	869.3998	932.7512	945.495	956.6311	1012.4309	1034.355	1066.011	1096.6363	1139.2147	1165.283	1199.5132	1233.6473	1284.1547	1333.9452	1392.9252	1411.5572	1485.4177	1576.3446	1677.085	1877.9471	2982.476	3026.7099	3085.194	3216.5418	3262.9673	3606.5656
C1NC2=NC3C4OC13C24	C1NC2=NC=C[C@H]2C1=O	
InChI=1S/C6H6N2O/c1-6-2-3(9-6)4(6)8-5(2)7-1/h2-4H,1H2,(H,7,8)	InChI=1S/C6H6N2O/c9-5-3-8-6-4(5)1-2-7-6/h1-2,4H,3H2,(H,7,8)/t4-/m0/s1
