18
gdb 90279	3.32175	1.38114	1.2247	3.8364	81.49	-0.237	-0.031	0.206	1074.0069	0.148874	-401.94608	-401.938412	-401.937468	-401.978103	30.085	
C	 0.0483368909	 1.5512587627	 0.0464593095	-0.394436
C	 0.0305858968	 0.0318268011	-0.0060426458	-0.040382
C	 1.2176747673	-0.6156235886	-0.838448959	-0.322542
C	 1.8990580376	-0.7455803045	 0.502417502	 0.219432
C	 2.8816851635	-0.2077214916	 1.2282357342	-0.287712
C	 2.3151376601	 0.144647124	 2.5489938321	 0.404727
N	 2.9298649477	 0.6318124338	 3.5407824565	-0.545036
O	 0.9356118281	-0.0659346688	 2.5058587508	-0.259843
C	 0.6297779462	-0.6945379545	 1.2734643012	 0.063193
H	 1.0419404057	 1.9301554371	 0.3050692777	 0.132513
H	-0.2332842	 1.9735815595	-0.9230479579	 0.11959
H	-0.6555569319	 1.9215906139	 0.7973852959	 0.131507
H	-0.9594552941	-0.3409746919	-0.2813528182	 0.084452
H	 0.9255296027	-1.5657905366	-1.2930712459	 0.122491
H	 1.7108491224	 0.0098306681	-1.5847781762	 0.1237
H	 3.8756811624	 0.0989614125	 0.9376289502	 0.124146
H	 2.2783335428	 0.8515626321	 4.2952227971	 0.223157
H	 0.1108087819	-1.6383066784	 1.4688568157	 0.101045
105.182	172.0676	213.9358	228.2096	316.0069	371.9856	424.0001	520.4614	614.2048	677.4885	715.1036	768.6364	795.2047	818.6743	848.8651	865.8052	879.2742	902.3831	946.676	1004.3816	1027.2219	1046.4487	1075.3082	1116.0247	1123.8888	1148.0081	1189.1919	1222.597	1250.8449	1276.0354	1313.073	1348.2367	1369.5784	1417.068	1477.7724	1494.3301	1497.0482	1694.2022	1755.5359	3040.7626	3054.3437	3064.2559	3074.7216	3110.2633	3115.1196	3126.0576	3247.9305	3483.6539
CC1CC2=CC(=N)OC12	C[C@H]1C[C]2C=C([NH])O[C@@H]12	
InChI=1S/C7H9NO/c1-4-2-5-3-6(8)9-7(4)5/h3-4,7-8H,2H2,1H3	InChI=1S/C7H9NO/c1-4-2-5-3-6(8)9-7(4)5/h3-4,7-8H,2H2,1H3/t4-,7-/m0/s1
