19
gdb 106293	3.73839	1.22521	1.1378	1.1637	75.86	-0.2315	0.0075	0.239	1136.7941	0.157994	-422.977415	-422.969019	-422.968075	-423.009959	33.258	
C	 0.1051881054	 1.3362673016	 0.1325659075	-0.26307
O	-0.1128344448	-0.0434130963	-0.0876466248	-0.297997
C	 0.5800921607	-0.5592122003	-1.1697097765	 0.409374
C	 2.1549069222	-0.5368642042	-1.2941203169	-0.309872
C	 1.8285484823	-1.6698834412	-2.3104542451	 0.37016
O	 2.8565319582	-2.5118603287	-2.7177779641	-0.483177
C	 0.6841226695	-2.1060131564	-1.3176857684	-0.331581
C	 1.0043404773	-0.8925797766	-3.3569201507	-0.170909
C	 0.1810053953	-0.1580102424	-2.607768596	-0.159173
H	 1.1594176022	 1.5470857151	 0.3621541398	 0.114875
H	-0.1871187403	 1.9438758885	-0.7358891129	 0.109401
H	-0.509674085	 1.624092457	 0.9880421263	 0.128563
H	 2.631381241	 0.3626459048	-1.6877374193	 0.095969
H	 2.6577594072	-0.9053199092	-0.3953849531	 0.103516
H	 2.4862488106	-3.1826239293	-3.3015702007	 0.279989
H	 1.0659072012	-2.5943766696	-0.4166897735	 0.102959
H	-0.1814599626	-2.6289972154	-1.7296015419	 0.091701
H	 1.1111105704	-0.967353061	-4.4309086681	 0.102542
H	-0.6002541008	 0.5354848137	-2.8857016515	 0.106729
95.3793	178.9232	185.442	238.0731	302.8772	329.9436	407.028	425.0477	477.0435	545.2324	560.6696	613.1529	631.5842	679.0183	702.4798	858.2474	884.3596	903.6576	925.8776	949.8613	1009.9871	1038.0505	1038.9214	1071.7859	1073.2544	1135.1464	1166.2772	1175.6102	1177.6553	1183.8001	1229.2702	1240.4335	1313.7373	1341.1682	1369.1572	1473.9989	1483.7127	1488.0348	1507.5904	1520.1223	1630.3085	2990.1956	3040.6376	3053.426	3064.262	3121.7837	3129.0214	3135.8987	3209.6487	3239.2492	3805.463
COC12CC(O)(C1)C=C2	CO[C@@]12C[C@@](O)(C1)C=C2	
InChI=1S/C7H10O2/c1-9-7-3-2-6(8,4-7)5-7/h2-3,8H,4-5H2,1H3	InChI=1S/C7H10O2/c1-9-7-3-2-6(8,4-7)5-7/h2-3,8H,4-5H2,1H3/t6-,7+
