23
gdb 89524	2.16231	1.76626	1.28183	1.5118	84.56	-0.2373	0.0816	0.319	1127.4736	0.206606	-388.309999	-388.301236	-388.300291	-388.342715	35.06	
C	 0.3732206317	 1.5957002633	-0.0844785529	-0.41708
C	 0.1666014119	 0.1004517423	 0.0479714568	 0.161645
O	 1.0368618577	-0.6762778235	-0.8107764719	-0.355591
C	 1.3294288049	-1.622979145	 0.2618852592	 0.456359
C	 0.7179705067	-2.9815419978	-0.0253446033	-0.463427
C	 2.8238085265	-1.6269875597	 0.5906325463	-0.244418
C	 3.0637795804	-0.2927577627	 1.3192619968	-0.218174
C	 1.7731178561	-0.0772978706	 2.141242553	-0.226189
C	 0.6378929907	-0.681603931	 1.2975293458	-0.128081
H	 1.3933637845	 1.8960740433	 0.1671916704	 0.122399
H	 0.1747780785	 1.9049756483	-1.1158162608	 0.1261
H	-0.320731634	 2.1357820666	 0.5690750968	 0.113909
H	-0.8845421294	-0.1323663341	-0.1837500478	 0.065485
H	 1.1913187167	-3.4357467872	-0.9023915473	 0.122817
H	 0.8521088242	-3.659357547	 0.8245843593	 0.110795
H	-0.3531264495	-2.8925898029	-0.2302195562	 0.117044
H	 3.043721584	-2.472890263	 1.254098506	 0.091193
H	 3.4294859396	-1.7449711439	-0.3129230584	 0.103719
H	 3.9616631986	-0.3030029344	 1.9433455815	 0.09183
H	 3.1880051112	 0.5071763781	 0.5833996238	 0.112664
H	 1.8406484656	-0.6294687003	 3.0860570796	 0.096225
H	 1.6040183138	 0.9721086923	 2.4020860004	 0.09753
H	-0.1659143404	-1.101912961	 1.9050141931	 0.063247
116.3777	198.3499	204.2247	218.0891	255.3554	267.0956	309.5361	375.5553	425.2042	485.332	573.551	580.9809	663.1073	753.897	821.982	846.5888	888.3837	895.2319	907.5388	930.3492	935.1741	977.7765	1008.9032	1026.4415	1077.988	1089.3046	1113.4275	1121.0794	1163.9903	1190.4827	1222.8405	1239.2118	1243.0469	1282.9377	1305.5444	1324.4772	1342.9834	1347.4204	1371.4729	1396.9555	1407.4975	1413.0416	1468.4516	1477.7576	1484.4981	1488.8399	1493.0161	1495.1354	1506.1584	2970.0425	3028.202	3033.4783	3035.0351	3037.9119	3056.8408	3080.0575	3086.3344	3089.5998	3100.4316	3103.0081	3104.4098	3107.6235	3124.0224
CC1OC2(C)CCCC12	C[C@H]1O[C@@]2(C)CCC[C@@H]12	
InChI=1S/C8H14O/c1-6-7-4-3-5-8(7,2)9-6/h6-7H,3-5H2,1-2H3	InChI=1S/C8H14O/c1-6-7-4-3-5-8(7,2)9-6/h6-7H,3-5H2,1-2H3/t6-,7+,8+/m1/s1
