18
gdb 9859	4.83767	0.9861	0.95717	1.6549	76.57	-0.2436	0.0495	0.2931	1301.6428	0.151319	-347.767747	-347.758445	-347.7575	-347.802881	33.158	
C	-0.0185348786	 1.447565442	-0.2141454963	-0.497775
C	-0.0096699716	 0.00075318	-0.0455582222	 0.081505
C	 0.0297945887	-1.1962348708	 0.0880379714	 0.03174
C	 0.0038688926	-2.6481519225	 0.2610823289	-0.407458
C	-1.4014450129	-3.2083578881	 0.0633141234	 0.440689
O	-2.3501695019	-2.6636828977	 0.9358125466	-0.468467
C	-1.8597127958	-3.6111511637	-1.3154917693	-0.310665
C	-1.5930077735	-4.6572170739	-0.2441358991	-0.314109
H	 0.9422692854	 1.8053811244	-0.6004016837	 0.150646
H	-0.7951407264	 1.7633585445	-0.9194742387	 0.147829
H	-0.2044397036	 1.9607270429	 0.7357844074	 0.148405
H	 0.6950572674	-3.127849379	-0.4421936927	 0.122483
H	 0.3479385147	-2.9058743414	 1.2712780363	 0.132597
H	-2.3375144692	-1.707785341	 0.7971220716	 0.282376
H	-2.8960091087	-3.4105948191	-1.5617897852	 0.115286
H	-1.1662377812	-3.5306315986	-2.1458951031	 0.109848
H	-0.7168228121	-5.2892744731	-0.3422527464	 0.110423
H	-2.4524496033	-5.1366095148	 0.209876551	 0.124648
29.1397	61.5645	84.3765	209.5377	246.434	305.1073	331.4139	373.5594	387.0091	414.038	449.5761	519.0274	737.3418	765.9564	776.2409	883.0579	918.8765	931.3879	977.1551	1006.939	1045.7142	1053.6346	1055.3666	1076.125	1159.9605	1186.2022	1193.738	1275.7356	1307.6183	1320.1917	1411.598	1416.2612	1451.4527	1463.9938	1478.493	1479.8016	1506.3059	2366.6244	3020.1661	3027.4139	3059.4932	3087.8243	3088.5747	3132.0309	3136.4856	3218.2458	3231.898	3762.7045
CC#CCC1(O)CC1	CC#CCC1(O)CC1	
InChI=1S/C7H10O/c1-2-3-4-7(8)5-6-7/h8H,4-6H2,1H3	InChI=1S/C7H10O/c1-2-3-4-7(8)5-6-7/h8H,4-6H2,1H3
