19
gdb 70823	2.32661	1.68539	1.51152	2.3042	75.7	-0.2414	0.0671	0.3085	1000.3377	0.157489	-422.956558	-422.947916	-422.946972	-422.98891	34.166	
C	-0.0095210374	 1.4603154113	-0.0074032719	-0.525224
C	 0.031341968	-0.0415936673	-0.0646845728	 0.267987
C	 0.571474852	-0.9617160286	-1.1870502504	-0.323347
C	 0.0731743943	-1.9506650527	-0.116226265	-0.19586
C	 0.537074036	-1.0117175786	 1.056962521	 0.387919
O	 1.8016770335	-0.906961437	 1.6004794796	-0.480256
C	-0.8312423796	-1.060971996	 1.7756250111	-0.410325
C	-1.1423855106	-1.0270551676	 0.2612771655	 0.38792
O	-2.3653480211	-0.9450008189	-0.3737338883	-0.480256
H	 0.9996706209	 1.8799809873	-0.0757652629	 0.126045
H	-0.6020874614	 1.8653355943	-0.8344970467	 0.126047
H	-0.4561279504	 1.8133954866	 0.9286144691	 0.11948
H	 0.0223965461	-0.9462324997	-2.1328242965	 0.096268
H	 1.6507857859	-0.9313803754	-1.3613538035	 0.096273
H	 0.0799789094	-3.042711699	-0.1095589156	 0.059636
H	 1.9774157457	-1.6955345029	 2.1249576992	 0.284723
H	-1.0754345351	-1.9874763642	 2.3089095193	 0.078623
H	-1.1178559164	-0.1836916632	 2.3636731389	 0.099624
H	-2.87044396	-1.7401125284	-0.1725259103	 0.284723
173.1653	198.2261	227.0293	235.7854	238.9024	273.0676	290.6151	339.6483	452.5818	496.5071	521.2433	607.2426	659.0786	668.7684	689.1272	793.7049	877.3629	897.3288	922.9179	953.5842	1004.4836	1035.1335	1048.634	1077.5521	1114.6948	1127.5579	1134.2249	1148.3065	1170.1213	1218.8776	1247.7718	1256.1853	1288.5034	1344.2552	1345.109	1409.7035	1426.2672	1486.4529	1494.1729	1502.6105	1523.3791	3028.103	3030.8501	3049.6946	3091.582	3094.3043	3097.7152	3099.0787	3109.1098	3804.3744	3805.0441
CC12CC3C1(O)CC23O	C[C@@]12C[C@H]3[C@]1(O)C[C@@]23O	
InChI=1S/C7H10O2/c1-5-2-4-6(5,8)3-7(4,5)9/h4,8-9H,2-3H2,1H3	InChI=1S/C7H10O2/c1-5-2-4-6(5,8)3-7(4,5)9/h4,8-9H,2-3H2,1H3/t4-,5+,6+,7-
