15
gdb 13472	3.43891	1.95145	1.26772	0.5572	65.4	-0.2354	-0.0047	0.2306	913.7218	0.12033	-396.02195	-396.014377	-396.013433	-396.053913	27.959	
N	-0.0776704535	 1.3317872548	 0.1511702116	-0.564882
C	 0.0718277469	-0.0304194117	 0.021971497	 0.406471
N	 1.1324465333	-0.7339614667	-0.0840344565	-0.548156
N	-1.1521940661	-0.7046821049	 0.062809131	-0.103151
C	-1.4543200299	-2.1402182952	 0.0489241992	-0.153612
C	-2.9637713025	-1.7494769948	 0.0361555411	-0.375954
C	-2.4705451483	-0.2921592024	 0.030711788	 0.42911
O	-2.9584452866	 0.8115404208	-0.0005114694	-0.3814
H	 0.6909918593	 1.9012212982	-0.1609267999	 0.252828
H	-1.0080804238	 1.7082711353	 0.0152157029	 0.277888
H	 1.9640585164	-0.1457848715	-0.0879982423	 0.208658
H	-1.0869112327	-2.6472445431	-0.8453295713	 0.135626
H	-1.1018426047	-2.6631043814	 0.940185728	 0.133156
H	-3.52109435	-2.0353977455	-0.8574033446	 0.14145
H	-3.5324349379	-2.0255503321	 0.9257033653	 0.141969
100.751	122.4005	199.2532	201.3526	373.817	396.455	443.757	523.9521	568.4354	583.8709	701.5013	720.1092	789.0239	796.8508	811.8397	932.8342	1049.6149	1051.0341	1101.5112	1123.8888	1157.5051	1180.7565	1181.66	1235.1384	1252.9154	1375.1629	1452.5728	1472.7852	1525.3566	1644.9267	1726.5296	1851.77	3077.4117	3090.8818	3127.4479	3148.8683	3500.9543	3531.7589	3692.2342
NC(=N)N1CCC1=O	NC(=N)N1CCC1=O	
InChI=1S/C4H7N3O/c5-4(6)7-2-1-3(7)8/h1-2H2,(H3,5,6)	InChI=1S/C4H7N3O/c5-4(6)7-2-1-3(7)8/h1-2H2,(H3,5,6)
