18
gdb 97001	4.8156	1.11168	0.96637	3.2496	85.71	-0.2266	-0.0277	0.1989	1243.8602	0.148314	-401.937748	-401.929741	-401.928797	-401.970773	30.103	
C	-0.032791235	 1.4141382277	-0.1302458037	-0.328076
N	-0.0444635694	-0.0311228463	-0.2751763852	-0.328055
C	-1.0933357433	-0.6725941633	 0.0058385333	 0.435763
O	-2.2798507316	-0.08955279	 0.4703607656	-0.273496
C	-3.204624602	-1.1319097999	 0.7145463973	 0.075298
C	-4.3759820529	-1.5601577707	-0.2483827071	-0.257342
C	-3.850092963	-3.0457210949	-0.1322988616	-0.308041
C	-2.5484084395	-2.3944089467	 0.2746621511	 0.217283
C	-1.3273176336	-2.1195517874	-0.1873345643	-0.314414
H	 0.390032283	 1.689312566	 0.8450562024	 0.124059
H	 0.6214373488	 1.8437826535	-0.895272082	 0.117839
H	-1.0252460695	 1.8745767588	-0.2058863884	 0.120465
H	-3.5490344589	-1.0736275144	 1.7526679652	 0.101114
H	-5.3931884916	-1.3594714865	 0.0942939107	 0.112907
H	-4.2234304706	-1.1649078244	-1.2536437292	 0.130755
H	-4.3508236819	-3.5877107564	 0.6749344573	 0.124962
H	-3.8433875481	-3.6612009357	-1.0324164628	 0.12675
H	-0.6434577108	-2.7304973993	-0.7578311787	 0.12223
62.1491	99.4907	191.2036	213.0935	284.6324	354.191	389.4326	483.4066	645.3251	680.7121	710.516	722.8465	799.256	820.9954	845.1117	878.5792	912.0439	948.7942	997.8842	1033.2182	1073.6565	1106.5154	1112.5435	1120.2425	1144.1284	1169.806	1190.4074	1212.5081	1245.4332	1252.1316	1304.1847	1364.6177	1437.5481	1469.3761	1485.6648	1489.1886	1497.7256	1695.3428	1776.7659	3008.156	3050.6105	3063.1215	3066.6186	3074.5309	3090.287	3130.033	3149.5756	3248.5854
CN=C1OC2CCC2=C1	C[N]C1=C[C]2[C@@H](O1)CC2	
InChI=1S/C7H9NO/c1-8-7-4-5-2-3-6(5)9-7/h4,6H,2-3H2,1H3	InChI=1S/C7H9NO/c1-8-7-4-5-2-3-6(5)9-7/h4,6H,2-3H2,1H3/t6-/m0/s1
