16
gdb 64531	4.31858	1.32067	1.15126	2.1938	70.12	-0.244	-0.043	0.201	1042.6039	0.123768	-437.786175	-437.779008	-437.778064	-437.817703	28.214	
O	 0.0708527191	 1.4626733741	-0.0517408062	-0.496602
C	 0.0356982532	 0.0777435434	-0.0225009521	 0.359926
C	 0.9922807924	-0.5151436786	-1.0244220834	 0.088505
O	 1.6711614329	 0.199300725	-1.7281586085	-0.282128
C	-0.0152827995	-0.6069467534	 1.3658344594	-0.08084
C	-1.5164523238	-0.2570840632	 1.5971801382	-0.065624
C	-1.788684677	-1.7325417582	 1.8731341182	-0.187282
N	-0.735446455	-1.8479034604	 0.7722494214	-0.176869
C	-1.3527932856	-0.5996336147	 0.0854641789	-0.080792
H	 0.7261804828	 1.687917901	-0.7328658623	 0.295962
H	 1.0365776782	-1.6162001855	-1.077584131	 0.130645
H	 0.7736588703	-0.7216051738	 2.1110947161	 0.09342
H	-1.9364353417	 0.6478362903	 2.0410634836	 0.090351
H	-1.4623891036	-2.150823292	 2.8307417921	 0.108956
H	-2.7619807481	-2.143712789	 1.5866445459	 0.108958
H	-2.1324213644	-0.7057273249	-0.6707856902	 0.093414
110.0604	171.6359	264.7923	318.9277	338.0476	445.7184	477.4422	535.9943	540.6008	718.6534	787.175	832.754	850.6873	853.9555	881.6899	906.8704	928.7219	1004.0447	1027.2177	1046.5931	1071.5813	1078.5796	1116.1293	1141.0776	1162.2017	1184.6857	1186.1411	1231.112	1266.624	1281.0038	1314.619	1367.5207	1453.1515	1522.0526	1795.1004	3000.755	3040.7935	3087.1455	3100.3546	3103.4751	3110.5366	3671.775
OC1(C=O)C2C3CN2C13	O[C@@]1(C=O)[C@H]2[C@@H]3CN2[C@H]13	
InChI=1S/C6H7NO2/c8-2-6(9)4-3-1-7(4)5(3)6/h2-5,9H,1H2	InChI=1S/C6H7NO2/c8-2-6(9)4-3-1-7(4)5(3)6/h2-5,9H,1H2/t3-,4+,5-,6-
