20
gdb 17057	3.64779	1.44338	1.24067	1.6301	75.17	-0.251	0.073	0.324	1063.7785	0.177502	-348.951391	-348.943417	-348.942473	-348.983668	30.999	
C	-0.0272592097	 1.5796193567	 0.0249083803	-0.373735
C	 0.006088433	 0.0570445647	 0.2070830538	-0.238177
C	-1.3737478954	-0.5733253447	 0.0498705239	 0.061766
C	-2.050734987	-0.7784971693	-1.3516358262	-0.107787
C	-1.099582198	-1.9889526891	-1.5696456688	-0.230418
C	-1.5779735599	-2.119495199	-0.0953300308	-0.123206
C	-3.0039402042	-1.8080960978	-0.6594645786	 0.193879
O	-4.0681159266	-1.4173833596	 0.1574691337	-0.450429
H	 0.9613786349	 2.0204993468	 0.1850477754	 0.113032
H	-0.3547646148	 1.8507723316	-0.9843666119	 0.119155
H	-0.71906733	 2.0492205006	 0.7334250113	 0.112478
H	 0.7282501764	-0.3755353415	-0.4918436878	 0.100355
H	 0.3799161357	-0.1795602815	 1.2121953154	 0.097359
H	-2.0298216095	-0.1025577881	 0.7956308196	 0.031818
H	-2.3219927143	-0.0110732782	-2.0788125594	 0.068686
H	-1.4456527944	-2.7604106619	-2.2635910399	 0.091747
H	-0.0458558215	-1.7697588585	-1.7312544331	 0.100229
H	-1.3021724825	-2.8929101138	 0.6240807045	 0.067789
H	-3.4102399133	-2.5741974885	-1.3246769345	 0.080724
H	-3.772278389	-0.7336024289	 0.7665525631	 0.284735
76.591	157.3461	208.6632	231.4759	281.4611	374.7387	382.9603	418.1498	543.516	614.3036	739.1004	758.4277	832.137	834.2375	876.9807	884.0168	898.6017	964.0154	1014.7276	1025.6009	1035.501	1066.5332	1096.8594	1116.9525	1122.7693	1136.9332	1175.3545	1185.411	1199.2611	1238.8885	1246.8498	1273.3536	1286.5565	1296.4693	1349.9979	1410.9209	1444.8659	1462.2276	1483.8732	1500.8629	1505.7232	1530.728	2991.2865	3022.7412	3030.4874	3062.3783	3073.3033	3082.5438	3093.6218	3099.6101	3102.4105	3105.0545	3148.9895	3817.9952
CCC1C2CC1C2O	CC[C@H]1[C@H]2C[C@@H]1[C@H]2O	
InChI=1S/C7H12O/c1-2-4-5-3-6(4)7(5)8/h4-8H,2-3H2,1H3	InChI=1S/C7H12O/c1-2-4-5-3-6(4)7(5)8/h4-8H,2-3H2,1H3/t4-,5+,6-,7-
