20
gdb 108143	3.56441	1.34531	1.23177	2.036	77.98	-0.2147	0.0876	0.3023	1098.4204	0.172434	-403.094109	-403.086285	-403.085341	-403.126437	30.744	
C	 0.0769686754	 1.2970939992	-0.2713259005	-0.258107
O	-0.0523012633	-0.0233426489	 0.2311866566	-0.283216
C	-1.3335740455	-0.5151571708	 0.1535902241	 0.42177
C	-2.4595429073	-0.2710675427	 1.1514841	-0.254506
N	-2.992592352	-1.654004212	 0.8444893953	-0.114613
C	-4.0538635906	-1.5571096448	-0.1793638632	-0.160676
C	-3.4077842103	-0.8867773977	-1.4309483054	-0.255946
C	-1.9213036737	-1.0768064226	-1.1480792305	-0.114157
C	-1.7477764496	-1.9514661102	 0.0731519495	-0.138104
H	 1.1277113946	 1.575974489	-0.1682044113	 0.129244
H	-0.2110185872	 1.352246976	-1.3302424226	 0.112123
H	-0.5376061935	 2.0099512538	 0.2961409441	 0.112692
H	-2.0998655484	-0.2233308098	 2.1834405537	 0.113557
H	-3.1659983759	 0.5480840252	 0.9714232153	 0.092818
H	-4.3876480681	-2.5720776603	-0.4187679589	 0.105843
H	-4.9102709621	-1.0066714481	 0.219701938	 0.103165
H	-3.7048420288	-1.379339569	-2.3622203143	 0.100324
H	-3.686461443	 0.1685586237	-1.5210137894	 0.099121
H	-1.2035765844	-1.1754933983	-1.9549772468	 0.091407
H	-1.2101299463	-2.8868469016	 0.1565473064	 0.097262
86.7677	154.3361	179.8937	232.0951	345.5223	349.0336	437.8704	465.7645	598.6998	680.1621	704.5612	748.6117	826.9746	855.03	879.338	910.2011	931.0327	943.3627	988.2684	1004.481	1018.3828	1039.8918	1069.9246	1110.7929	1117.5121	1175.702	1179.8835	1186.6033	1207.2636	1216.3894	1243.7759	1253.4636	1256.5179	1295.0942	1313.7849	1343.5239	1417.2647	1485.5323	1489.5908	1491.8573	1500.9474	1506.1466	1517.7738	2993.515	3025.5809	3040.8821	3047.9154	3049.9382	3077.0342	3086.6	3103.6617	3124.6259	3180.8846	3199.6778
COC12CN3CCC1C23	CO[C@@]12CN3CC[C@@H]1[C@@H]23	
InChI=1S/C7H11NO/c1-9-7-4-8-3-2-5(7)6(7)8/h5-6H,2-4H2,1H3	InChI=1S/C7H11NO/c1-9-7-4-8-3-2-5(7)6(7)8/h5-6H,2-4H2,1H3/t5-,6+,7+/m1/s1
