17
gdb 49809	3.43177	1.30027	0.97527	2.3219	80.5	-0.2416	-0.0232	0.2184	1178.9134	0.138948	-414.195528	-414.187688	-414.186743	-414.228498	29.185	
N	-0.1249196849	 1.2946650532	-0.8158660704	-0.465302
C	-0.0725757477	 0.0721268497	-0.4869660458	 0.113186
N	-1.0727965052	-0.5578216165	 0.2728567924	-0.123763
C	-2.1437311902	 0.2505869796	 0.7413114262	 0.112927
N	-3.2579593701	-0.0829472366	 1.2322349499	-0.246952
C	-3.6692000965	-1.4639870935	 1.3781705568	-0.17621
C	-2.6479306332	-2.3706091193	 2.0857386192	-0.172505
N	-1.4934409125	-2.7366462037	 1.2931985152	-0.262085
C	-0.8750145901	-1.9291156838	 0.5475681714	 0.119098
H	 0.7009376443	 1.55582529	-1.3494277918	 0.238744
H	 0.7347740142	-0.6194136786	-0.7462917622	 0.113295
H	-1.9073042914	 1.3017198601	 0.606601079	 0.162305
H	-4.6035666417	-1.4741371785	 1.9495458709	 0.112126
H	-3.8964652498	-1.8930255712	 0.392662523	 0.121294
H	-2.3181222645	-1.8758501499	 3.0086371297	 0.125441
H	-3.1462194853	-3.297955237	 2.3897252384	 0.111688
H	-0.0098087954	-2.3079797841	 0.0012006182	 0.116711
46.9219	150.1224	203.1713	248.0772	278.2558	336.2894	417.9909	497.4237	561.0853	594.9291	691.3752	726.6795	814.8064	846.7522	907.0395	915.5857	939.3041	964.0791	1041.3958	1055.8193	1062.4286	1094.0502	1141.4104	1205.4701	1236.9746	1301.5607	1329.994	1340.6164	1391.7813	1424.8912	1448.4174	1488.2386	1490.8301	1494.4328	1715.5169	1744.9373	1786.5484	3015.7618	3023.3952	3061.4345	3065.1216	3069.3104	3112.8992	3188.4115	3519.5355
N=CN1C=NCCN=C1	[NH][CH]N1C=NCCN=C1	
InChI=1S/C5H8N4/c6-3-9-4-7-1-2-8-5-9/h3-6H,1-2H2	InChI=1S/C5H8N4/c6-3-9-4-7-1-2-8-5-9/h3-6H,1-2H2
