14
gdb 9989	2.87127	1.36092	0.95623	2.2395	69.75	-0.2533	-0.0322	0.2211	1142.7479	0.102744	-345.334526	-345.325648	-345.324704	-345.368768	30.894	
O	-0.0215749091	-0.1111677386	-0.0247681966	-0.236976
C	 0.0089126555	 1.0889144213	-0.1154348137	 0.147327
C	 1.2891525238	 1.9003859589	-0.1218661204	-0.276581
C	 1.3026735368	 3.0143355877	-1.2131517914	-0.362613
C	 0.2268852995	 3.9909232341	-1.0058953758	 0.33924
C	-0.6608744523	 4.778773116	-0.8231679019	-0.456501
C	 2.6142201278	 3.6665545473	-1.25611387	 0.326625
C	 3.7016193234	 4.1748475426	-1.2781073817	-0.42507
H	-0.9248569242	 1.6873231198	-0.1898321069	 0.096552
H	 1.3944014339	 2.3825472894	 0.8580576313	 0.14581
H	 2.1359184343	 1.2258048208	-0.2640935244	 0.13932
H	 1.1372443611	 2.5277813185	-2.1857305056	 0.149677
H	-1.4412491557	 5.4831249283	-0.6703393815	 0.208437
H	 4.6585296252	 4.6350008039	-1.3048159313	 0.204753
52.354	83.1165	129.313	142.2539	195.6734	296.8401	338.4758	440.0922	481.3167	562.6426	570.109	642.2271	644.6081	655.6903	657.9758	801.9826	828.1036	990.962	1017.1247	1072.1475	1097.2072	1202.7082	1267.0406	1315.2322	1335.2096	1426.835	1455.3274	1832.586	2240.0433	2246.8391	2905.2534	2998.8262	3044.2201	3123.6933	3501.7314	3503.5013
O=CCC(C#C)C#C	O=CCC(C#C)C#C	
InChI=1S/C7H6O/c1-3-7(4-2)5-6-8/h1-2,6-7H,5H2	InChI=1S/C7H6O/c1-3-7(4-2)5-6-8/h1-2,6-7H,5H2
