18
gdb 40975	3.98566	1.24599	1.23278	2.1942	77.42	-0.2425	0.0071	0.2496	1078.4131	0.150079	-401.978966	-401.971577	-401.970633	-402.011525	28.446	
C	-0.1113220949	 1.4499477808	 0.2066554105	-0.262585
C	 1.3268605066	 1.9696600267	-0.0442267108	-0.288713
C	 2.1020208114	 0.7924193022	-0.6871252595	 0.388019
C	 2.5045892209	 0.9559416301	-2.1881692819	-0.247133
N	 3.9725315762	 1.0327148939	-2.2093945627	-0.263584
C	 4.3347495983	 0.8441876314	-1.0102325814	 0.106991
O	 3.413639281	 0.6535909288	-0.0403413553	-0.260507
C	 1.2317356054	-0.3982848701	-0.3929217866	-0.132835
C	 0.0360310102	-0.0458595058	 0.0730367848	-0.066398
H	-0.502117798	 1.7482056334	 1.1860142775	 0.111745
H	-0.8218808669	 1.8374408513	-0.5353419733	 0.113858
H	 1.3555403789	 2.8705839058	-0.6619295449	 0.104916
H	 1.8149853645	 2.2051580358	 0.904928858	 0.124707
H	 2.1736724322	 0.1041625011	-2.7931884649	 0.115812
H	 2.0682830982	 1.8574680241	-2.6304805496	 0.115114
H	 5.3624440117	 0.816830673	-0.6632984052	 0.135393
H	 1.5696851039	-1.4069088743	-0.6020202983	 0.103295
H	-0.7681695596	-0.7344558282	 0.3085201336	 0.101907
59.3378	77.6986	225.1038	328.0973	403.6754	420.9806	492.4511	522.3	685.3829	755.6973	772.7213	806.8032	845.6926	878.6152	922.9089	944.2125	956.7466	971.7842	978.8736	991.8865	1004.4123	1059.7221	1099.8672	1142.1106	1152.9634	1166.1488	1199.7329	1240.6346	1266.6745	1292.3992	1315.5246	1327.5235	1336.3864	1385.9178	1480.0614	1494.9485	1501.838	1687.5064	1708.1768	3022.9332	3035.3174	3056.1481	3068.7284	3071.6875	3114.4164	3185.3527	3208.0804	3210.7765
C1CC2(CN=CO2)C=C1	C1C[C@]2(CN=CO2)C=C1	
InChI=1S/C7H9NO/c1-2-4-7(3-1)5-8-6-9-7/h1,3,6H,2,4-5H2	InChI=1S/C7H9NO/c1-2-4-7(3-1)5-8-6-9-7/h1,3,6H,2,4-5H2/t7-/m0/s1
