21
gdb 37802	2.38321	2.05469	1.59486	1.2451	79.76	-0.2218	0.0731	0.2949	954.834	0.187363	-387.097938	-387.091092	-387.090148	-387.128759	29.167	
C	-0.0073854753	 1.5436260484	 0.035367362	-0.248117
C	 1.4481119302	 1.9587250467	-0.0661536314	-0.101095
C	 2.4271826745	 1.2867601019	 0.8873154697	-0.059079
C	 2.0183412604	 0.6377712129	 2.208312505	-0.232094
C	 1.305639373	-0.7185597553	 2.0982701665	-0.185769
C	-0.0418183184	-0.6893590353	 1.3640965382	-0.208485
C	 0.0353680545	-0.0074524524	-0.0144726584	 0.088945
O	 1.2712385849	-0.3453606325	-0.6660573675	-0.260874
C	 2.1750102937	 0.7159365916	-0.4945615233	 0.083182
H	-0.5091477754	 1.9013843149	 0.9398920747	 0.101111
H	-0.5584319339	 1.9397871193	-0.8236907634	 0.10351
H	 1.6820863029	 2.938521208	-0.4664148854	 0.081854
H	 3.3739662074	 1.8187758622	 0.9476618435	 0.082044
H	 2.9266558863	 0.4907847942	 2.8038195901	 0.09824
H	 1.3974509465	 1.3394461069	 2.7833357104	 0.094618
H	 1.9675668381	-1.4182892199	 1.578243567	 0.11441
H	 1.1510381118	-1.1204413439	 3.1062895563	 0.086665
H	-0.3873774639	-1.7214473479	 1.2349520186	 0.096718
H	-0.8051541084	-0.1808738309	 1.9669568337	 0.090853
H	-0.766873483	-0.3953549178	-0.6504350539	 0.080195
H	 2.9645637941	 0.6912450289	-1.2369959226	 0.093168
159.4754	240.8428	272.212	375.1725	386.7259	448.6593	553.8713	641.8857	690.7167	714.0956	756.2137	782.0638	801.4886	845.7878	869.9077	901.7015	921.5722	953.7277	997.4825	1020.4676	1028.4394	1046.9312	1051.6188	1098.999	1117.1885	1126.7744	1142.6512	1192.7134	1203.2103	1206.4942	1244.0632	1278.0142	1302.565	1310.894	1345.6839	1355.837	1368.4258	1379.3056	1391.9306	1402.6578	1432.2661	1479.8446	1486.8801	1490.7739	1505.0934	3004.568	3021.6187	3035.8567	3040.6623	3053.5436	3054.5217	3063.0753	3084.2505	3088.1492	3127.0708	3166.8047	3179.3982
C1C2C3CCCC1OC23	C1[C@H]2[C@H]3CCC[C@@H]1O[C@@H]23	
InChI=1S/C8H12O/c1-2-5-4-7-6(3-1)8(7)9-5/h5-8H,1-4H2	InChI=1S/C8H12O/c1-2-5-4-7-6(3-1)8(7)9-5/h5-8H,1-4H2/t5-,6+,7-,8+/m0/s1
