19
gdb 70525	2.53856	1.70749	1.25007	1.42	74.72	-0.2377	0.0114	0.2491	1044.3414	0.161475	-419.184593	-419.176606	-419.175662	-419.216796	31.111	
C	 0.0909402715	 1.5029185143	-0.1502575782	-0.450737
C	 0.0240352543	-0.002460827	-0.0237057196	 0.311308
C	-1.2459571245	-0.64310174	-0.5425582156	-0.15035
O	-2.3408842021	-0.4706393667	 0.3747671001	-0.226385
C	-2.2867453211	-1.078963273	 1.5922464278	 0.141735
N	-1.3909004822	-1.7181887567	 2.2095295935	-0.263
C	-0.0326623955	-1.9382018784	 1.7092832359	-0.202643
C	 0.6455163755	-0.701976472	 1.1309536725	-0.052055
N	 1.3064312943	-0.7158967922	-0.1902557484	-0.384061
H	 1.0001747715	 1.8867906404	 0.3175778768	 0.129805
H	 0.0998581929	 1.8048947685	-1.2038117905	 0.11883
H	-0.7757722676	 1.9689695646	 0.3299566511	 0.128925
H	-1.5851942882	-0.1666904551	-1.4663451449	 0.119521
H	-1.1096624923	-1.7100933124	-0.7463348866	 0.108266
H	-3.2565701415	-0.9378671519	 2.0705962331	 0.12364
H	 0.5600925912	-2.3047548328	 2.5534414249	 0.116546
H	-0.0322710271	-2.7565711837	 0.977664612	 0.105499
H	 1.1695591738	-0.0885561995	 1.8608951514	 0.101293
H	 1.1613645772	-1.6173532764	-0.6414537354	 0.223861
123.3829	178.7364	194.5366	218.5457	336.766	364.446	369.0423	414.8526	471.6892	532.3249	590.6317	742.0495	780.6797	828.1804	883.661	928.836	933.1936	964.5953	986.5749	989.2677	1017.0409	1044.3291	1104.7988	1121.8242	1134.0708	1156.4557	1197.0449	1268.3993	1270.8242	1322.4515	1349.1256	1370.8851	1402.6991	1418.1041	1432.8551	1456.7737	1486.776	1490.9008	1499.926	1520.9901	1746.2142	3013.6598	3033.2798	3053.1546	3063.1042	3096.9754	3102.0526	3126.7864	3131.156	3135.8629	3478.8643
CC12COC=NCC1N2	C[C@]12COC=NC[C@H]1N2	
InChI=1S/C6H10N2O/c1-6-3-9-4-7-2-5(6)8-6/h4-5,8H,2-3H2,1H3	InChI=1S/C6H10N2O/c1-6-3-9-4-7-2-5(6)8-6/h4-5,8H,2-3H2,1H3/t5-,6+/m1/s1
