21
gdb 91029	2.09995	1.83141	1.54028	1.202	81.45	-0.2274	0.0709	0.2983	1023.2981	0.182531	-387.035835	-387.027542	-387.026598	-387.067892	33.799	
C	-0.0807932154	 1.4891087754	-0.0281455332	-0.498529
C	-0.0012095293	-0.0223177536	-0.0104197188	 0.359486
C	-1.2226623808	-0.7073913836	 0.6537858283	-0.087908
C	-1.1509642311	-2.2046715546	 0.6975306157	-0.297404
C	-0.2962661413	-1.4213081078	 1.6532135921	-0.061752
C	 0.9394220258	-0.7927208751	 0.9708347566	-0.065752
C	 1.5996498835	-1.5398112434	-0.2242293382	-0.299217
C	 0.7000565143	-0.7208382143	-1.2160422816	 0.050336
O	-0.1668436068	-1.4146740463	-2.087625912	-0.425348
H	 0.8831798241	 1.9392241073	-0.2904750555	 0.107684
H	-0.822707676	 1.833683536	-0.7593210576	 0.12048
H	-0.3768026833	 1.8779769416	 0.9526801198	 0.115795
H	-2.1535191597	-0.1824293131	 0.83864655	 0.076841
H	-2.0146915278	-2.6737529621	 1.1603511256	 0.104403
H	-0.7409778212	-2.7678038456	-0.1315797479	 0.122382
H	-0.4079906952	-1.5314799754	 2.7256941839	 0.078724
H	 1.6018994462	-0.2403314299	 1.6380406973	 0.061422
H	 2.6691916665	-1.3450204042	-0.3393405445	 0.092463
H	 1.4386006379	-2.6202955955	-0.2504335369	 0.101939
H	 1.3016087263	 0.0085607748	-1.7784810601	 0.06108
H	 0.3606024234	-1.7812187005	-2.8044491232	 0.282873
153.7407	208.221	226.1596	235.8086	270.7708	293.3042	335.3148	423.0258	472.1664	538.1717	619.7329	655.9641	735.1801	765.8999	783.0807	865.3436	894.4222	900.714	926.7983	960.6885	968.9804	1003.3119	1033.5069	1049.988	1058.4256	1083.2302	1085.9636	1126.3078	1144.7082	1167.8616	1179.6355	1195.9934	1233.3812	1242.4087	1250.493	1297.8986	1305.1707	1330.9811	1364.8036	1406.1845	1428.8111	1472.2224	1489.8822	1493.4405	1506.07	2979.6396	3016.7949	3057.7709	3080.551	3089.2396	3099.0935	3114.2536	3131.7577	3161.4366	3174.0625	3218.9251	3813.9859
CC12C3CC3C1CC2O	C[C@]12[C@H]3C[C@H]3[C@H]1C[C@H]2O	
InChI=1S/C8H12O/c1-8-5-2-4(5)6(8)3-7(8)9/h4-7,9H,2-3H2,1H3	InChI=1S/C8H12O/c1-8-5-2-4(5)6(8)3-7(8)9/h4-7,9H,2-3H2,1H3/t4-,5+,6-,7-,8+/m1/s1
