21
gdb 115649	2.6026	1.27323	1.01223	2.918	78.99	-0.2385	0.0709	0.3095	1262.2604	0.181828	-424.180097	-424.170937	-424.169993	-424.214717	33.388	
C	-0.0628122849	 1.4279378852	-0.3006739257	-0.239154
O	-0.0660519736	 0.143204133	 0.2822103784	-0.241968
C	-1.281519275	-0.5345804148	 0.1383959232	 0.103186
C	-1.6575887205	-1.1665855063	-1.2326571622	-0.263384
C	-2.1496284629	-2.4140682175	-0.4473662845	-0.303786
C	-1.3192285237	-1.9407409885	 0.770181276	 0.251152
C	 0.0117912933	-2.6439089658	 1.115786588	-0.120297
O	-0.4121630303	-2.869345344	 2.4772672477	-0.275864
C	-1.6724993855	-2.2135761053	 2.2389750556	-0.144567
H	 0.9183233573	 1.8688901299	-0.1101457388	 0.13012
H	-0.2282716516	 1.3868888416	-1.387374394	 0.110257
H	-0.8364691158	 2.0747289046	 0.141898413	 0.106162
H	-2.1127071409	 0.0823115729	 0.5213560083	 0.062452
H	-2.3740476958	-0.6421305894	-1.8681001302	 0.097816
H	-0.7538722099	-1.3840057576	-1.8093623578	 0.111826
H	-3.2245820564	-2.3787867676	-0.2452957427	 0.104949
H	-1.9048847785	-3.3971163574	-0.8564626938	 0.107214
H	 0.1962758543	-3.5860164993	 0.5822188403	 0.091468
H	 0.9012310213	-2.0079940949	 1.0607085868	 0.119444
H	-1.7976166529	-1.3185276992	 2.8640296349	 0.098333
H	-2.5265036481	-2.8852482797	 2.4030327277	 0.094642
66.0772	89.8274	96.6254	175.6441	190.6848	238.4561	314.8427	347.6027	438.1392	501.0728	523.0515	710.8246	780.0436	854.6022	876.1676	898.9074	938.5341	946.7867	983.9745	990.7394	1039.6202	1043.2425	1113.889	1147.9395	1157.9208	1160.7466	1164.448	1181.6338	1185.8281	1220.3121	1232.5657	1254.4914	1264.4106	1273.1167	1307.4897	1315.9779	1384.1034	1389.9351	1477.1226	1481.5895	1486.9279	1494.6676	1504.301	1508.916	1531.1746	2951.5505	2977.7857	2991.4944	3009.9417	3026.6597	3034.3245	3053.9447	3061.2043	3076.9133	3104.5368	3117.7664	3122.1147
COC1CCC11COC1	CO[C@H]1CCC21COC2	
InChI=1S/C7H12O2/c1-8-6-2-3-7(6)4-9-5-7/h6H,2-5H2,1H3	InChI=1S/C7H12O2/c1-8-6-2-3-7(6)4-9-5-7/h6H,2-5H2,1H3/t6-/m0/s1
