21
gdb 114447	4.39768	1.0913	1.01252	2.1847	81.32	-0.2248	0.075	0.2999	1253.9712	0.183845	-387.038009	-387.030229	-387.029284	-387.070368	31.131	
C	-0.0524727036	 1.6097966403	 0.0196285543	-0.383282
C	-0.0542360849	 0.0787868505	-0.0229104868	-0.185643
C	 0.7140821833	-0.5022818541	-1.216469122	 0.005914
C	 2.2678011746	-0.3034707502	-1.1527379973	-0.268968
C	 2.7397907135	-1.7500605435	-1.2239055232	-0.028656
C	 1.8219526386	-2.5544041684	-2.1911110571	 0.038541
O	 1.9519211565	-3.7655221129	-1.3688845488	-0.320403
C	 1.7691505859	-2.6609528742	-0.4162623847	 0.054345
C	 0.6569673562	-2.0261398807	-1.3057222107	-0.040511
H	 0.9653898203	 2.0092841107	 0.0814055044	 0.118386
H	-0.5168497708	 2.0286919311	-0.8801513502	 0.114524
H	-0.6076910169	 1.9834742986	 0.8854448198	 0.113203
H	 0.3736899895	-0.316826554	 0.9084809888	 0.093841
H	-1.0906987766	-0.2811727774	-0.0566636163	 0.095176
H	 0.3107861124	-0.05794816	-2.1357725604	 0.068559
H	 2.6523788238	 0.2996926884	-1.9809328606	 0.101845
H	 2.5820010254	 0.1841505759	-0.223204021	 0.10091
H	 3.8027477465	-1.9889221012	-1.204879176	 0.075302
H	 1.8773233609	-2.6635883871	-3.2752310458	 0.086466
H	 1.7629249773	-2.903699896	 0.6469683014	 0.087281
H	-0.3060197821	-2.5335780659	-1.3658016979	 0.073168
98.164	119.9925	191.6874	253.0393	325.6643	383.2961	446.5669	506.7384	672.5825	706.2756	769.5199	776.3029	792.2384	836.1439	885.6914	898.0818	904.8843	938.4243	959.4897	976.5959	987.9433	996.9677	1031.0442	1061.2434	1096.722	1126.8594	1131.374	1158.2867	1176.8926	1183.5141	1232.1904	1238.2226	1255.2836	1273.1003	1278.6835	1292.4989	1319.036	1336.7204	1381.8686	1391.839	1414.3177	1483.8684	1498.9721	1501.4034	1506.9654	3008.2721	3017.4081	3031.4904	3042.9814	3046.0084	3083.3218	3097.9491	3103.7419	3104.1277	3107.6864	3124.8465	3133.8023
CCC1CC2C3OC2C13	CC[C@H]1C[C@@H]2[C@H]3O[C@@H]2[C@@H]13	
InChI=1S/C8H12O/c1-2-4-3-5-7-6(4)8(5)9-7/h4-8H,2-3H2,1H3	InChI=1S/C8H12O/c1-2-4-3-5-7-6(4)8(5)9-7/h4-8H,2-3H2,1H3/t4-,5-,6+,7-,8+/m0/s1
