22
gdb 6158	4.29551	1.08228	1.06887	1.3578	78.64	-0.2509	0.0746	0.3255	1254.3144	0.198639	-350.208239	-350.198898	-350.197953	-350.241832	35.573	
C	 0.0965165063	 1.484105374	-0.1725141177	-0.378308
C	 0.0328098221	-0.0260447781	 0.0774949032	-0.193164
C	-1.3881490596	-0.5759980976	 0.07331221	 0.065878
C	-2.17152845	-0.6066711435	-1.2718544062	-0.26946
C	-2.7115889633	-2.0098115291	-0.903163627	 0.424123
C	-4.1214683217	-1.999609083	-0.3206619638	-0.446233
O	-2.6224428325	-2.9037041051	-1.9989693876	-0.476493
C	-1.5892620209	-2.1141123102	 0.1767985256	-0.310454
H	 1.1293381609	 1.8462456326	-0.1705534901	 0.110508
H	-0.3452538233	 1.7437458365	-1.1407042598	 0.119388
H	-0.4515858735	 2.0364590488	 0.5991521733	 0.111354
H	 0.6205151097	-0.550940844	-0.6877231933	 0.092302
H	 0.5072605798	-0.2601453615	 1.0400992804	 0.092023
H	-1.9774498448	-0.062723499	 0.8427389016	 0.063143
H	-2.9054459704	 0.17903999	-1.4690224603	 0.091406
H	-1.494315144	-0.6870426379	-2.1273249794	 0.106507
H	-4.8510665673	-1.7456019472	-1.0960949694	 0.122062
H	-4.3798026382	-2.9852987121	 0.0877292139	 0.102937
H	-4.2141746514	-1.2739749927	 0.4936316893	 0.118485
H	-2.9882597273	-3.7519333766	-1.7248653157	 0.270413
H	-0.7309355526	-2.6572901004	-0.2298457766	 0.098698
H	-1.854212198	-2.5344955238	 1.1515779495	 0.084888
74.5623	105.0387	176.1314	240.9086	262.6945	268.8343	304.4962	312.0932	370.7272	423.0124	437.8649	475.3387	594.8344	735.2714	784.5464	831.1267	867.4945	902.7819	938.1188	962.4241	966.4978	986.39	1018.407	1038.6299	1090.017	1116.4995	1145.4912	1190.2494	1213.3132	1224.0737	1268.7575	1272.0337	1285.8031	1309.4871	1343.4889	1375.3569	1392.6567	1406.8623	1410.4065	1466.525	1483.643	1489.8485	1491.0126	1499.5092	1501.7586	1507.6384	3009.4667	3018.3841	3022.4134	3029.5892	3044.3636	3045.3054	3055.1099	3085.7232	3095.7866	3101.9013	3103.1673	3109.8897	3111.8264	3796.9508
CCC1CC(C)(O)C1	CC[C@H]1C[C@@](C)(O)C1	
InChI=1S/C7H14O/c1-3-6-4-7(2,8)5-6/h6,8H,3-5H2,1-2H3	InChI=1S/C7H14O/c1-3-6-4-7(2,8)5-6/h6,8H,3-5H2,1-2H3/t6-,7+
