15
gdb 26636	3.28553	1.2755	0.92518	5.2297	75.77	-0.2084	-0.0207	0.1877	1186.073	0.112973	-416.858208	-416.849512	-416.848568	-416.891765	31.207	
C	-0.0136025575	 1.5241167041	 0.0774487182	-0.519101
C	 0.0252377038	 0.0298922025	 0.025409316	 0.050649
C	 0.0481349344	-0.7805953629	-1.070968031	 0.313909
N	 0.1224572878	-0.5390960523	-2.4319484625	-0.59518
O	 0.0818387005	-2.0945656355	-0.7153772863	-0.165611
C	 0.0800446378	-2.1490819084	 0.6416956059	-0.133638
C	 0.053907877	-0.8850198335	 1.1498511079	 0.104977
C	 0.0364838043	-0.5327017318	 2.5213918691	 0.203173
N	 0.0178106836	-0.2176043487	 3.6360067253	-0.351145
H	 0.983592694	 1.9627266935	 0.2031118521	 0.142931
H	-0.442645014	 1.9455040135	-0.8383129176	 0.114129
H	-0.6264494083	 1.8707771611	 0.9149573452	 0.149755
H	-0.1140331474	 0.4131896656	-2.6740716846	 0.260151
H	-0.4139326333	-1.1969517019	-2.9841892171	 0.261671
H	 0.0904043871	-3.1282462654	 1.0870557591	 0.16333
86.3733	120.2388	132.9197	175.3775	256.5575	268.366	305.0832	415.0567	507.9264	522.3218	589.1928	628.4466	670.9472	689.983	724.4515	732.5248	778.4826	937.7758	1032.0659	1063.7543	1130.4819	1184.1457	1236.0591	1267.9301	1329.0888	1419.952	1452.7868	1483.1103	1497.6097	1590.0237	1627.5944	1693.658	2346.1502	3024.9423	3077.5975	3103.6539	3298.7709	3542.0632	3645.7431
CC1=C(N)OC=C1C#N	Cc1c(N)occ1C#N	
InChI=1S/C6H6N2O/c1-4-5(2-7)3-9-6(4)8/h3H,8H2,1H3	InChI=1S/C6H6N2O/c1-4-5(2-7)3-9-6(4)8/h3H,8H2,1H3
