15
gdb 13434	4.05353	1.22538	1.1126	6.0849	61.63	-0.2568	0.0319	0.2887	1059.4118	0.11797	-399.782156	-399.773973	-399.773029	-399.815615	29.409	
O	-0.0566474613	 1.3815236233	-0.0676780898	-0.420306
C	-0.0355920629	-0.009655269	-0.0498434438	 0.086593
C	-0.4234845575	-0.6766834973	 1.2491400533	 0.003297
O	-0.8285322796	 0.1959763825	 2.2758400845	-0.421544
C	-1.3542043075	-0.7665031108	 0.0662346733	-0.093208
C	-2.6661586168	 0.0059175297	 0.0667253598	-0.340974
C	-3.4263040037	-0.2183851293	-1.1618161677	 0.254965
N	-4.0265974763	-0.411136454	-2.1300932168	-0.309098
H	-0.2430604306	 1.6622068506	 0.839680688	 0.287709
H	 0.7536339529	-0.4251368983	-0.6684487199	 0.110894
H	 0.0777221126	-1.5814461702	 1.5846284624	 0.104746
H	-0.0889412688	 0.3084323589	 2.8828544089	 0.303801
H	-1.3966767469	-1.739116795	-0.4126670606	 0.116007
H	-3.2919517131	-0.2766642657	 0.9202890922	 0.157597
H	-2.4630990205	 1.0775803345	 0.1561872061	 0.159521
31.0797	127.2134	199.8419	202.9111	269.5553	303.4137	382.217	477.0206	499.3233	548.1741	605.4485	650.6496	761.7776	802.424	917.6553	934.9998	966.6313	1052.4961	1054.884	1116.4045	1121.9349	1156.7364	1230.5079	1238.1557	1267.7132	1300.7673	1332.905	1384.4996	1407.6095	1457.794	1471.828	2364.245	3052.1909	3093.1767	3130.0309	3158.4091	3169.6088	3730.0962	3810.4569
OC1C(O)C1CC#N	O[C@H]1[C@@H](O)[C@H]1CC#N	
InChI=1S/C5H7NO2/c6-2-1-3-4(7)5(3)8/h3-5,7-8H,1H2	InChI=1S/C5H7NO2/c6-2-1-3-4(7)5(3)8/h3-5,7-8H,1H2/t3-,4+,5-
