19
gdb 107234	2.92578	1.40659	1.09631	2.3995	75.35	-0.1952	0.0547	0.25	1137.535	0.15831	-419.090613	-419.081822	-419.080877	-419.123897	33.658	
C	-0.058724373	 1.5619869552	 0.1740292326	-0.514173
C	 0.0755077556	 0.0759215412	 0.0511863132	 0.282522
N	-0.8693369178	-0.8737495226	 0.6851865044	-0.347915
C	 0.5855843875	-0.9547721038	 0.9849566615	-0.123721
C	 1.2979053191	-1.6890685157	-0.1903470767	-0.116192
N	 0.2816061301	-2.0648575776	-1.2141469539	-0.363065
C	 0.79284345	-0.6780035931	-1.1411135386	 0.292242
C	 1.4575658538	 0.0006208742	-2.3081737953	-0.215846
O	 2.2200598439	-0.9089991033	-3.0937854048	-0.408868
H	 0.8693570713	 2.0751702969	-0.1015998278	 0.124656
H	-0.8577917094	 1.9491644343	-0.4697062437	 0.129533
H	-0.2963384431	 1.8426229199	 1.2060559129	 0.119578
H	-1.2892389247	-0.3707449304	 1.4692233939	 0.220314
H	 0.9638046685	-0.8561318373	 1.9947429923	 0.090774
H	 2.2614602384	-2.179344866	-0.1470114446	 0.099774
H	 0.8314279387	-2.5005452461	-1.9585156236	 0.216588
H	 0.706054941	 0.5192200685	-2.9226913683	 0.102803
H	 2.1565214215	 0.7650897956	-1.9476442377	 0.116938
H	 1.6454234585	-1.26277827	-3.778449386	 0.294057
74.7845	154.5455	167.623	211.9955	252.6281	286.7898	307.3579	393.474	440.2327	471.0633	556.3279	660.4476	678.7851	794.9827	836.0293	839.9145	851.5802	881.6313	932.4346	957.4537	986.9154	992.9795	1008.9843	1052.6614	1081.8504	1092.6666	1110.4722	1166.224	1211.9916	1226.6884	1271.0172	1295.0536	1349.6396	1391.4407	1397.3775	1408.7871	1424.215	1443.1983	1482.9229	1496.93	1501.8648	2987.6147	3019.9154	3048.3889	3080.292	3091.7409	3190.2442	3205.1723	3438.1244	3446.4688	3837.9523
CC12NC1C1NC21CO	C[C@]12N[C@H]1[C@H]1N[C@@]21CO	
InChI=1S/C6H10N2O/c1-5-3(7-5)4-6(5,2-9)8-4/h3-4,7-9H,2H2,1H3	InChI=1S/C6H10N2O/c1-5-3(7-5)4-6(5,2-9)8-4/h3-4,7-9H,2H2,1H3/t3-,4+,5-,6+/m0/s1
