12
gdb 24802	3.90952	1.22873	0.9349	5.1944	73.53	-0.2582	-0.0755	0.1827	1132.8256	0.077437	-435.494453	-435.487215	-435.48627	-435.526537	26.602	
O	 0.0754639281	-0.0625501496	 0.0019574834	-0.332809
C	 0.0105081133	 1.1448733005	 0.0089903542	 0.402605
C	-1.2522810284	 1.8899553116	 0.0302651774	-0.327301
C	-1.2539319053	 3.2377495459	 0.0371538856	 0.240163
O	-0.0759171679	 3.9407784267	 0.024446141	-0.211076
C	 1.0683489974	 3.2093587317	 0.0048565605	 0.120829
N	 1.1881599488	 1.9470655737	-0.0032441771	-0.296533
C	-2.4026877421	 4.0662598843	 0.0572993653	 0.235838
C	-3.385502691	 4.7591321777	 0.0744978922	-0.348752
H	-2.1845609114	 1.3417701699	 0.0403888337	 0.14202
H	 1.9270206434	 3.8754910948	-0.0036409774	 0.156511
H	-4.255312865	 5.3699506929	 0.0898323812	 0.218507
112.4753	127.1224	145.133	345.1455	438.4412	440.7278	460.2382	531.5225	597.8647	632.5471	685.6053	691.9749	777.1245	778.0378	875.4062	905.1962	942.1548	977.0603	1082.5741	1179.1096	1234.6655	1343.5034	1415.365	1626.6116	1693.1281	1797.2371	2240.7264	3184.2725	3233.656	3496.2287
O=C1C=C(OC=N1)C#C	O=c1cc(ocn1)C#C	
InChI=1S/C6H3NO2/c1-2-5-3-6(8)7-4-9-5/h1,3-4H	InChI=1S/C6H3NO2/c1-2-5-3-6(8)7-4-9-5/h1,3-4H
