16
gdb 26705	2.28016	1.59474	0.94796	2.4263	68.31	-0.1629	0.0449	0.2078	1170.7568	0.124647	-471.212353	-471.202808	-471.201863	-471.245893	35.456	
N	 0.1944023236	 1.4843928457	 0.0192563979	-0.614589
C	 0.0234151368	 0.0850310123	-0.0298681747	 0.127547
C	-1.0595617783	-0.7553637717	-0.0458072226	 0.276732
O	-2.3723729749	-0.3993877392	-0.0134163376	-0.461106
C	-0.5997981909	-2.110294684	-0.1034335526	-0.065015
N	-1.4892133244	-3.2215201876	-0.1321772197	-0.644119
C	 0.7800115133	-2.0455917437	-0.1209920786	 0.340623
O	 1.7323037055	-3.0137736326	-0.1713239753	-0.438466
N	 1.1556968882	-0.7454761825	-0.0774642638	-0.323773
H	-0.2156829358	 1.8862866695	 0.8565390468	 0.240674
H	-0.2410123768	 1.9464303785	-0.7730005035	 0.240705
H	-2.8591340565	-1.2359487694	-0.0379524595	 0.290012
H	-1.4107334579	-3.8381141515	 0.6689504132	 0.236742
H	-1.4343835321	-3.7765015604	-0.9790172085	 0.236755
H	 1.2771445722	-3.8622470214	-0.1954388448	 0.294597
H	 2.1005368679	-0.4031908121	-0.0786054065	 0.26268
153.3997	175.2703	189.434	199.9221	222.772	267.5716	270.6005	298.2573	307.6159	317.9009	442.3495	513.9359	559.7162	619.4009	638.6442	651.2086	700.5721	721.1773	758.0148	811.1964	951.3268	1127.4859	1168.5732	1189.4641	1214.3279	1232.6147	1250.3941	1335.6364	1402.5349	1478.5518	1564.115	1619.2197	1650.29	1663.6664	1703.2405	3489.4265	3495.2868	3545.876	3566.3589	3688.4821	3736.021	3821.8499
NC1=C(O)C(N)=C(O)N1	Nc1c(O)c(N)c(O)[nH]1	
InChI=1S/C4H7N3O2/c5-1-2(8)3(6)7-4(1)9/h7-9H,5-6H2	InChI=1S/C4H7N3O2/c5-1-2(8)3(6)7-4(1)9/h7-9H,5-6H2
