14
gdb 125829	2.72447	1.55646	0.9966	2.0206	64.49	-0.2764	-0.0652	0.2112	1099.5582	0.100453	-470.010161	-470.001787	-470.000843	-470.043707	29.651	
C	-0.0199482825	 1.4891063434	 0.0387608346	-0.482109
C	-0.0331680229	-0.000709919	 0.0536329307	 0.265933
N	-0.0974442483	-0.7194685041	-1.0356137949	-0.133792
O	-0.0885150289	-2.0336614774	-0.6312057207	-0.1538
N	-0.0181298333	-2.128507505	 0.7188853595	-0.161145
C	 0.0170952173	-0.9017107487	 1.1659383188	 0.189316
C	 0.0967820802	-0.5588363704	 2.6162023961	 0.355075
N	 0.1315586528	-1.6270903251	 3.4493197548	-0.535016
O	 0.1263119663	 0.6032501192	 2.9799605944	-0.365525
H	 0.8857479625	 1.866214615	 0.5201813935	 0.159931
H	-0.0701971249	 1.852772792	-0.9886992383	 0.145922
H	-0.863369632	 1.8826550794	 0.6115152693	 0.159931
H	 0.1032817215	-2.5680211311	 3.0937273243	 0.283872
H	 0.1843760723	-1.4624829581	 4.4405463279	 0.271408
58.4636	113.1031	173.9211	198.7738	255.2682	297.1207	307.2612	411.2523	509.0617	568.9426	649.5616	664.3191	689.1532	698.3413	817.0329	907.6838	951.918	1020.5546	1072.2351	1073.0436	1097.5326	1181.3171	1360.6318	1420.7579	1436.4033	1472.394	1478.5661	1515.6414	1609.8063	1614.2861	1789.0115	3061.4309	3125.4595	3152.5517	3600.9832	3739.7972
CC1=NON=C1C(N)=O	Cc1nonc1C(=O)N	
InChI=1S/C4H5N3O2/c1-2-3(4(5)8)7-9-6-2/h1H3,(H2,5,8)	InChI=1S/C4H5N3O2/c1-2-3(4(5)8)7-9-6-2/h1H3,(H2,5,8)
