18
gdb 119455	4.88452	0.8108	0.76618	4.9392	72.84	-0.2473	-0.0099	0.2374	1472.5925	0.146436	-439.060562	-439.051663	-439.050719	-439.094893	32.488	
O	-0.1640354838	 1.5109365896	-0.0433918586	-0.415152
C	-0.0019742646	 0.1099189029	-0.1756183018	-0.07036
C	-1.3442483234	-0.5371330282	 0.1630084711	-0.287831
C	-1.2942902777	-2.0342826351	 0.0801999953	 0.330881
C	-1.597095894	-2.8097208957	-1.131346286	-0.285303
N	-2.5870500476	-2.8701932423	-0.0051521911	-0.210884
C	-1.9940279935	-3.7798418158	 0.9623922248	 0.410579
O	-2.4678051698	-4.7503583864	 1.4615600822	-0.292235
C	-0.7071477674	-2.9596087003	 1.1538759904	-0.438851
H	 0.6739053049	 1.9345868183	-0.2507557356	 0.28918
H	 0.2951250126	-0.1685378379	-1.1995384845	 0.090703
H	 0.7781358583	-0.2703739389	 0.5042759292	 0.090783
H	-1.6387664888	-0.2255652564	 1.1718106075	 0.118228
H	-2.106162437	-0.1558262817	-0.5247083863	 0.125106
H	-2.000087817	-2.2858230647	-1.9922507058	 0.139302
H	-1.0337386568	-3.7081657032	-1.3728655195	 0.130683
H	 0.2447101376	-3.4543610928	 0.9447019327	 0.131562
H	-0.6698023319	-2.5138896316	 2.1518454661	 0.14361
62.5236	92.7079	98.0796	177.0726	262.1041	324.2831	330.3146	374.5364	416.2589	501.9799	568.2333	650.437	725.0922	770.2483	800.8429	839.1828	932.7625	963.6805	992.5986	1016.6568	1028.4573	1059.1709	1084.5449	1112.1353	1127.6467	1165.6388	1206.2887	1213.2871	1244.7766	1292.3617	1313.6916	1341.838	1401.1886	1455.6781	1462.5844	1489.4058	1511.9272	1528.6776	1921.0305	2962.102	2988.9812	3043.3247	3065.0433	3091.7675	3111.3518	3119.3072	3203.878	3832.3754
OCCC12CN1C(=O)C2	OCC[C@]12CN1C(=O)C2	
InChI=1S/C6H9NO2/c8-2-1-6-3-5(9)7(6)4-6/h8H,1-4H2	InChI=1S/C6H9NO2/c8-2-1-6-3-5(9)7(6)4-6/h8H,1-4H2/t6-,7?/m0/s1
