22
gdb 55854	3.018	1.00791	0.93428	3.212	83.72	-0.2362	0.0322	0.2683	1408.6726	0.191443	-404.38243	-404.371547	-404.370603	-404.419419	38.994	
C	-0.1496562713	 1.3862802754	-0.0001513388	-0.489528
C	-0.3773233573	-0.0732235157	-0.3681199264	 0.403439
O	 0.0885745957	-0.5785163424	-1.3717789652	-0.367898
N	-1.1397619487	-0.7815856724	 0.5247473605	-0.319188
C	-1.2869675498	-2.2028184109	 0.4202629541	 0.01246
C	-2.5512807272	-2.838752445	 0.9430202105	-0.377663
C	-2.2788732592	-2.8137380186	-0.5466307763	 0.36436
C	-3.1178656789	-1.8991847371	-1.4152167102	-0.451111
C	-1.853665975	-4.104330415	-1.2181878003	-0.45048
H	-0.0847778944	 1.9719931213	-0.9180578364	 0.151757
H	-0.9364751012	 1.7950645829	 0.640106569	 0.116451
H	 0.8062081247	 1.4816446646	 0.5260279356	 0.147361
H	-1.3898036661	-0.3424259352	 1.3965542625	 0.242234
H	-0.3601995581	-2.757898996	 0.5526766461	 0.096718
H	-2.4632668722	-3.7744621409	 1.4851100695	 0.111825
H	-3.3220188149	-2.1742107801	 1.3216997129	 0.106116
H	-3.3903629623	-0.9809511042	-0.8892648272	 0.107235
H	-2.5665250917	-1.6164591119	-2.3177311235	 0.13596
H	-4.04290815	-2.4009249824	-1.7213350159	 0.107737
H	-2.7248449681	-4.6977899893	-1.519208181	 0.111674
H	-1.2609725798	-3.8927844491	-2.1148278186	 0.1319
H	-1.2444116742	-4.723235478	-0.5517739009	 0.108641
36.2901	49.6462	87.7783	103.1083	179.2634	222.0513	247.8598	280.7238	326.1543	357.8153	393.1521	443.8843	459.9521	513.9793	632.9175	647.6257	717.4934	804.0262	873.4444	915.5676	941.5219	974.9737	983.263	1013.4498	1043.1365	1050.4314	1059.6536	1095.7282	1124.0795	1153.9915	1212.3705	1267.5904	1286.9091	1345.6366	1389.9874	1404.6997	1417.2341	1422.1866	1467.2475	1479.8545	1483.9025	1485.9003	1490.148	1502.5176	1511.8212	1512.4321	1785.1974	3024.2476	3032.9659	3044.8555	3088.7843	3096.1897	3099.5611	3111.0342	3115.6462	3117.4291	3123.6238	3149.0453	3208.6811	3623.0398
CC(=O)NC1CC1(C)C	CC(=O)N[C@H]1CC1(C)C	
InChI=1S/C7H13NO/c1-5(9)8-6-4-7(6,2)3/h6H,4H2,1-3H3,(H,8,9)	InChI=1S/C7H13NO/c1-5(9)8-6-4-7(6,2)3/h6H,4H2,1-3H3,(H,8,9)/t6-/m0/s1
