13
gdb 43041	3.03252	1.66374	1.23768	4.9455	67.96	-0.2726	-0.0301	0.2426	951.7467	0.090006	-415.563302	-415.55653	-415.555586	-415.594682	25.586	
O	-0.1180607186	 0.0686139822	 0.0824824292	-0.282254
C	-0.052699328	 1.2500372909	 0.0615433453	 0.386742
N	-1.116987789	 2.277455302	-0.0939171434	-0.217092
C	-0.9857849104	 2.9870081325	 1.2534619583	-0.202034
C	 0.3667316091	 3.5138717084	 0.7829170629	-0.115024
C	-0.0190524841	 3.2158840039	-0.609552966	-0.055014
C	 1.0287997304	 2.2982088584	 0.0377954989	 0.073698
C	 2.4294876533	 2.2061107766	-0.1854049835	 0.177692
N	 3.5681507947	 2.1163019776	-0.3697511749	-0.336432
H	-1.7367870372	 3.7757417308	 1.3276076172	 0.141971
H	-1.0398766602	 2.3219238123	 2.1199753977	 0.140027
H	 1.0004065646	 4.3049139358	 1.1654485194	 0.136496
H	 0.0064659153	 3.7051941487	-1.5709127312	 0.151222
134.7115	148.8961	176.1664	378.9074	416.4083	500.7546	544.6176	619.1751	648.9197	741.8862	792.5161	819.6874	880.3206	886.8002	913.727	951.7382	962.1254	977.1491	1020.7377	1089.3261	1133.9826	1170.3347	1211.1432	1257.1241	1299.0148	1382.567	1507.8377	1942.0969	2352.9479	3064.7357	3131.015	3198.3095	3252.4523
O=C1N2CC3C2C13C#N	O=C1N2C[C@@H]3[C@H]2[C@]13C#N	
InChI=1S/C6H4N2O/c7-2-6-3-1-8(4(3)6)5(6)9/h3-4H,1H2	InChI=1S/C6H4N2O/c7-2-6-3-1-8(4(3)6)5(6)9/h3-4H,1H2/t3-,4+,6-/m1/s1
