16
gdb 126066	3.89595	1.07653	1.0384	4.7593	71.42	-0.2533	-0.0101	0.2432	1183.433	0.125262	-434.044826	-434.036994	-434.03605	-434.077976	28.613	
C	-0.0341664126	 1.5178723198	-0.2542589105	-0.430074
C	-0.0614797637	 0.0424872309	 0.035896606	 0.088387
O	 1.1700801191	-0.679121026	-0.0583145472	-0.239169
C	 0.561499323	-0.5857152445	 1.2275615084	-0.094476
C	 1.31484236	 0.1675231932	 2.2464460667	 0.351384
C	 2.4887643771	 0.8870718813	 2.2061388702	-0.146158
N	 2.754347255	 1.3722511207	 3.4514190131	-0.185067
N	 1.8158675179	 0.9959336106	 4.2680746619	-0.108257
N	 0.9405302591	 0.2623665995	 3.5479204445	-0.26413
H	 0.7730078386	 2.0183997375	 0.284247709	 0.142364
H	 0.1054991854	 1.6863648806	-1.3267656998	 0.137564
H	-0.985858652	 1.9755725704	 0.0358308021	 0.127268
H	-0.9079523479	-0.4988550339	-0.3919789727	 0.099504
H	 0.1172844027	-1.5177777549	 1.5842385314	 0.1024
H	 3.1443453984	 1.056863077	 1.3688251534	 0.138367
H	 0.1312256999	-0.1256022323	 4.0063647235	 0.280091
53.0351	120.6333	163.1527	204.809	281.6136	384.2971	430.1399	513.1408	574.7638	676.6328	727.1485	745.3182	800.1233	859.5206	867.8334	978.5763	1000.54	1020.6413	1063.429	1071.1247	1089.8477	1130.1972	1165.6182	1168.3351	1216.324	1283.2602	1330.0767	1346.8301	1398.7898	1421.3848	1435.5867	1466.387	1488.4016	1499.9561	1610.6491	3042.904	3077.0189	3091.8797	3106.2207	3138.6938	3285.9087	3652.9976
CC1OC1C1=CN=NN1	C[C@H]1O[C@H]1c1cnn[nH]1	
InChI=1S/C5H7N3O/c1-3-5(9-3)4-2-6-8-7-4/h2-3,5H,1H3,(H,6,7,8)	InChI=1S/C5H7N3O/c1-3-5(9-3)4-2-6-8-7-4/h2-3,5H,1H3,(H,6,7,8)/t3-,5-/m1/s1
