18
gdb 42011	3.19557	1.60644	1.15605	2.5445	73.	-0.2444	0.0213	0.2656	1052.9801	0.150706	-439.097137	-439.089858	-439.088914	-439.129212	28.097	
C	 0.0345514455	 1.3935355675	-0.1849106277	-0.165079
C	 1.5060323949	 1.8578853273	-0.0117236875	-0.253616
C	 2.1202662387	 0.6893097011	 0.7654919105	 0.024442
O	 3.4875266617	 0.4286775435	 0.4630690589	-0.278277
C	 3.7618207378	-0.9304015932	 0.157807762	-0.083782
C	 2.8770344476	-1.8807133218	 0.9490326455	-0.099364
O	 1.5003122371	-1.7085732478	 0.5786542961	-0.248785
C	 1.1555614219	-0.4237653831	 0.3781999108	 0.378738
N	 0.0395444244	-0.0764428526	-0.1127949956	-0.296383
H	-0.6072500478	 1.793301364	 0.6114882274	 0.108705
H	-0.4028876412	 1.7177012772	-1.1338768458	 0.112165
H	 2.0088693938	 1.9225360807	-0.981673081	 0.118057
H	 1.6069674115	 2.8205325756	 0.4931067987	 0.1061
H	 2.0417537035	 0.8548989127	 1.8523927081	 0.097917
H	 3.616439108	-1.1259214889	-0.9164710511	 0.111291
H	 4.8154802025	-1.1060439926	 0.3976092386	 0.118653
H	 3.1204133967	-2.9218516712	 0.7253794777	 0.129311
H	 2.9976692234	-1.7161082085	 2.0278894346	 0.119907
79.3829	117.846	255.3067	313.6729	386.4457	422.7795	468.7568	520.4728	614.7428	659.0568	699.8167	810.8666	855.5619	894.9359	934.4055	943.0176	982.3767	1032.7147	1054.5545	1095.1125	1116.3004	1125.6888	1152.7285	1184.2294	1226.2534	1253.4925	1274.6955	1292.1038	1302.6416	1331.8185	1350.0745	1367.3485	1408.6165	1427.0016	1489.2418	1502.2149	1505.4203	1510.5061	1743.2462	2965.8563	2984.6636	3020.1808	3026.2031	3061.3278	3077.5952	3079.1273	3110.81	3121.2718
C1CC2OCCOC2=N1	C1C[C@@H]2OCCO[C]2[N]1	
InChI=1S/C6H9NO2/c1-2-7-6-5(1)8-3-4-9-6/h5H,1-4H2	InChI=1S/C6H9NO2/c1-2-7-6-5(1)8-3-4-9-6/h5H,1-4H2/t5-/m0/s1
