18
gdb 90194	4.07059	1.53253	1.38065	3.0285	75.31	-0.2218	0.0687	0.2905	957.3749	0.149514	-401.831028	-401.824369	-401.823425	-401.861795	27.889	
O	-0.0483976505	 1.4252061616	 0.034924187	-0.435275
C	 0.0008759111	 0.009518865	-0.0139784702	 0.113065
C	 0.6046406027	-0.6452158463	 1.3048916782	-0.39683
C	-0.6704253666	-1.342982939	 1.734334158	 0.290579
C	-1.5512273803	-2.2192944452	 2.6407423929	-0.274642
N	-2.5487917626	-1.8665282089	 1.5222915175	-0.190437
C	-1.9073592142	-0.458333104	 1.4354944128	 0.001882
C	-1.46057685	-0.5137836244	-0.029818584	-0.083802
C	-1.3876487479	-1.9486121255	 0.5020433815	-0.022528
H	 0.8518499841	 1.761544319	-0.0113149228	 0.284937
H	 0.553694408	-0.3270607222	-0.9030246456	 0.068526
H	 1.4366137792	-1.3232087594	 1.0920017782	 0.099119
H	 0.9451660198	 0.1385308083	 1.9875179591	 0.102877
H	-1.3259587787	-3.2889150578	 2.7022995477	 0.102257
H	-1.8395634902	-1.8261331362	 3.6208162434	 0.104089
H	-2.2890566048	 0.3740542382	 2.0265216932	 0.084631
H	-2.0822169418	-0.2012347417	-0.8690640757	 0.075505
H	-1.1526448874	-2.8842555416	-0.0088145611	 0.076046
119.8592	292.5322	300.4281	371.3895	407.9526	478.4593	497.4077	675.3987	718.5253	774.5546	809.5488	821.458	852.6102	862.053	889.4406	901.037	927.2076	951.4066	992.0521	1017.7159	1030.5846	1069.6864	1096.9551	1114.6882	1130.1862	1164.8709	1177.7292	1184.0618	1200.826	1210.3944	1232.0977	1255.8656	1273.4111	1298.6703	1322.3049	1347.4432	1419.3282	1484.3301	1516.4531	2992.343	3038.8513	3050.816	3094.0951	3101.2682	3103.3691	3112.0324	3124.055	3821.4048
OC1CC23CN4C2C1C34	O[C@H]1C[C@@]23CN4[C@@H]2[C@@H]1[C@@H]34	
InChI=1S/C7H9NO/c9-3-1-7-2-8-5(7)4(3)6(7)8/h3-6,9H,1-2H2	InChI=1S/C7H9NO/c9-3-1-7-2-8-5(7)4(3)6(7)8/h3-6,9H,1-2H2/t3-,4-,5-,6+,7-/m0/s1
