18
gdb 88357	2.15622	1.36396	0.91241	0.9486	84.2	-0.2308	0.0312	0.262	1289.1355	0.144077	-364.698393	-364.688614	-364.68767	-364.733146	35.996	
C	-0.5694442787	 1.2682132143	 0.1344353722	-0.319448
N	 0.0162935185	-0.0633969981	 0.0946306094	-0.080178
C	 1.4023114028	-0.203503747	-0.3366832617	-0.25619
C	 1.0105858729	-0.472513253	 1.0743915299	 0.028626
C	 1.5098749023	 0.4550764884	 2.1971343903	-0.399823
C	 0.5421919042	 0.514790493	 3.2999691046	 0.339728
C	-0.2682292393	 0.5554560204	 4.1852030161	-0.445998
C	 2.827883166	 0.0075208288	 2.6600718201	 0.325201
C	 3.9076513483	-0.3797215455	 3.0149755929	-0.42692
H	 0.1509528801	 2.083320567	 0.3104780633	 0.09906
H	-1.0553091831	 1.4611328556	-0.8268906877	 0.125433
H	-1.3299933945	 1.305936228	 0.9193654186	 0.138112
H	 1.6175200932	-1.0180331157	-1.0229605975	 0.119161
H	 1.9734346336	 0.7073328407	-0.5208398261	 0.107469
H	 0.9023605326	-1.5011661046	 1.4105630315	 0.110318
H	 1.6241141641	 1.4671240949	 1.7879902044	 0.134554
H	-0.9777761335	 0.5934561399	 4.9745032724	 0.201328
H	 4.8623483106	-0.7146128472	 3.3377327171	 0.199567
58.4671	109.2185	124.3847	158.8656	190.6397	252.8435	304.6632	339.8785	398.8924	430.8348	494.9259	552.3352	563.6044	636.4209	639.6618	646.1515	648.7389	752.3981	857.2585	899.6767	959.6113	1030.8055	1033.4244	1080.2235	1112.2877	1129.7467	1152.9571	1171.3806	1201.4599	1245.0926	1303.0468	1340.7625	1403.337	1450.5925	1487.5097	1503.9397	1513.806	2239.6616	2245.3572	2971.6372	3024.7832	3072.0907	3081.0813	3114.5141	3132.5037	3173.7947	3502.9667	3504.0734
CN1CC1C(C#C)C#C	CN1C[C@H]1C(C#C)C#C	
InChI=1S/C8H9N/c1-4-7(5-2)8-6-9(8)3/h1-2,7-8H,6H2,3H3	InChI=1S/C8H9N/c1-4-7(5-2)8-6-9(8)3/h1-2,7-8H,6H2,3H3/t8-,9?/m0/s1
