14
gdb 20990	3.46801	2.16202	1.35448	5.7322	59.21	-0.2478	0.0016	0.2494	861.802	0.10698	-415.893213	-415.885614	-415.88467	-415.9252	26.68	
C	-0.0206197563	 1.4422859373	 0.0261384658	-0.352446
N	-0.0000773408	-0.0055843998	 0.0488457728	-0.180707
C	-0.0196915083	-0.7837505595	-1.1036700053	 0.504642
O	-0.0534621806	-0.42759987	-2.2494237413	-0.404023
O	 0.0110416774	-2.0735059851	-0.6625689434	-0.235653
N	 0.0479674528	-2.1020723939	 0.7569053205	-0.181837
C	 0.0398453511	-0.8609158359	 1.1214670593	 0.402662
C	 0.0707666259	-0.4264386537	 2.5428657877	-0.498811
H	 0.8782574839	 1.8588820741	 0.4900086353	 0.145102
H	-0.0526364611	 1.7378366191	-1.0240137948	 0.182602
H	-0.9047172374	 1.8342528825	 0.5374417763	 0.145072
H	 0.100333022	-1.3093104643	 3.1824879521	 0.171757
H	 0.9523538388	 0.1901404146	 2.7470196589	 0.150818
H	-0.8164826075	 0.1644157545	 2.7933254363	 0.150823
113.608	144.4456	175.4193	203.3645	251.428	320.3162	348.1369	565.1033	607.5643	638.8694	725.1987	768.2266	794.0379	911.9901	999.9784	1029.619	1067.8326	1138.42	1158.4059	1212.1004	1335.7809	1407.6534	1438.2503	1468.6562	1475.7325	1497.2622	1503.0993	1516.0427	1661.0296	1882.0372	3042.3312	3044.5389	3101.5754	3107.6889	3149.1013	3153.9889
CN1C(=O)ON=C1C	Cn1c(=O)onc1C	
InChI=1S/C4H6N2O2/c1-3-5-8-4(7)6(3)2/h1-2H3	InChI=1S/C4H6N2O2/c1-3-5-8-4(7)6(3)2/h1-2H3
