16
gdb 110406	5.51305	0.99494	0.97478	2.3074	69.85	-0.2598	-0.0243	0.2355	1199.1907	0.124161	-437.78437	-437.776906	-437.775962	-437.816695	28.406	
O	 0.0304316	 1.452902608	 0.0787156619	-0.416699
C	 0.1161577179	 0.0594772071	-0.1597452384	-0.091221
C	-1.2635611492	-0.5655584044	-0.1070601305	 0.030805
C	-1.5062819234	-2.048450462	 0.1623779288	-0.083126
C	-1.1690124978	-1.838764151	 1.6819123761	-0.18207
N	-1.9185187584	-0.5151946162	 1.2850854569	-0.182995
C	-2.876914769	-1.6658083412	 0.8312222141	-0.165212
C	-2.5020799953	-2.4608903243	 2.0721738522	 0.497206
O	-2.975054338	-3.2063852628	 2.8703596715	-0.318242
H	-0.4647478707	 1.5659361828	 0.8989479816	 0.297503
H	 0.548088496	-0.0628182175	-1.1591655965	 0.115457
H	 0.7972810701	-0.4323286868	 0.5526292621	 0.08928
H	-1.9075325768	-0.0966058619	-0.860010203	 0.092339
H	-1.2967440518	-2.9360932687	-0.441201661	 0.092523
H	-0.1980238615	-1.8230715344	 2.1701882985	 0.113316
H	-3.820095882	-1.4410529668	 0.3367243559	 0.111138
76.1069	141.2552	178.3018	234.0998	394.7776	420.5114	463.0244	564.7237	646.764	680.56	734.0252	794.4921	811.4974	818.2078	849.9193	943.7536	1006.6784	1011.2328	1039.6926	1059.7061	1073.9474	1101.2682	1124.0962	1129.2362	1155.454	1178.2375	1203.8071	1234.4004	1256.0184	1273.1086	1350.3706	1406.2139	1443.9152	1507.0084	1929.0004	2982.287	3047.1729	3066.6142	3071.6876	3147.2122	3160.1324	3789.8707
OCC1C2C3N1C2C3=O	OC[C@H]1[C@H]2[C@H]3N1[C@@H]2C3=O	
InChI=1S/C6H7NO2/c8-1-2-3-4-6(9)5(3)7(2)4/h2-5,8H,1H2	InChI=1S/C6H7NO2/c8-1-2-3-4-6(9)5(3)7(2)4/h2-5,8H,1H2/t2-,3-,4+,5-/m0/s1
