16
gdb 128800	4.59433	0.93787	0.8932	2.7505	67.31	-0.2406	-0.0144	0.2262	1323.243	0.12444	-471.194654	-471.185927	-471.184982	-471.229303	30.827	
C	-0.245110439	 0.5072735948	-0.2655863175	-0.240846
O	-0.086661396	 0.3345403769	 1.1301311532	-0.213903
C	 0.9978525002	-0.4828006873	 1.4780540692	-0.18538
C	 0.8152582984	-1.9305500273	 1.1084238938	 0.400163
N	 1.7286563168	-2.7554649935	 0.6925304434	-0.354857
C	 1.0113999025	-3.9271168237	 0.5652222178	 0.404452
N	 1.6211108611	-5.0985976329	 0.2038361826	-0.58503
N	-0.2662381679	-3.8318811954	 0.8584336354	-0.210274
O	-0.3920990339	-2.475809154	 1.2397959769	-0.191246
H	-0.4857457321	-0.4373960304	-0.7723957601	 0.123729
H	-1.075201282	 1.2025721118	-0.4046503278	 0.137617
H	 0.6610155248	 0.9325664273	-0.7228491492	 0.110296
H	 1.9422717894	-0.1487765234	 1.0238582184	 0.125144
H	 1.1010948061	-0.4082394324	 2.5665551724	 0.143819
H	 2.4568395671	-4.9774065945	-0.346877063	 0.268118
H	 1.0008337445	-5.8193641861	-0.1324685655	 0.268199
27.3163	87.2944	145.9886	212.4402	225.4583	317.3852	335.078	376.572	427.0878	504.7214	556.6278	635.0707	736.5648	768.3473	792.4149	927.6266	950.885	1017.2161	1028.4872	1065.5169	1128.2356	1150.2424	1181.0017	1225.32	1291.4849	1335.8177	1386.9974	1444.8024	1471.0505	1483.14	1490.6932	1504.3076	1577.4556	1631.4487	1660.4837	2986.7947	3007.3964	3044.2149	3070.7567	3128.5862	3587.0005	3697.3938
COCC1=NC(N)=NO1	COCc1nc(N)no1	
InChI=1S/C4H7N3O2/c1-8-2-3-6-4(5)7-9-3/h2H2,1H3,(H2,5,7)	InChI=1S/C4H7N3O2/c1-8-2-3-6-4(5)7-9-3/h2H2,1H3,(H2,5,7)
