17
gdb 68127	3.9707	1.26681	1.12832	4.6061	78.05	-0.2505	-0.0149	0.2357	1098.3986	0.136477	-380.834793	-380.82709	-380.826145	-380.866617	30.558	
C	 0.0397765693	 1.5417374421	 0.0626531386	-0.514386
C	 0.0190256675	 0.0389949297	-0.0149462393	 0.268934
C	 0.6173031663	-0.788662015	-1.2046816031	-0.282413
C	 0.6050717463	-1.8651176461	-0.0667159626	 0.191004
N	 0.9224948536	-0.7582377916	 0.9395039256	-0.358416
C	-0.9099836718	-2.0044848366	 0.1867858544	-0.097511
C	-1.293960504	-0.7310837539	 0.2216961945	-0.09666
C	 1.4384431377	-3.0466255404	-0.0942999287	 0.146853
N	 2.1140449291	-3.9835432437	-0.1353146833	-0.337715
H	 1.0402753327	 1.9375423589	-0.137800266	 0.122811
H	-0.6469633747	 1.9761657508	-0.6711117057	 0.130564
H	-0.2666483053	 1.8775125213	 1.0582847977	 0.140849
H	 0.0021417221	-0.9717360274	-2.0891461083	 0.111642
H	 1.6294492566	-0.4756166891	-1.4805087469	 0.10853
H	 1.8868488627	-0.4596664773	 0.7545538292	 0.21453
H	-1.4475292962	-2.9314334092	 0.3120068228	 0.132248
H	-2.2681640222	-0.2947015025	 0.3869318111	 0.119137
140.2041	150.2524	199.2027	291.5278	300.6142	458.8521	502.841	516.9866	529.6035	572.8321	602.4521	626.2259	710.2705	725.7281	815.1845	872.3446	899.4612	905.349	937.5726	980.2008	1025.0138	1050.7538	1078.4499	1115.6833	1129.7776	1152.3768	1220.4726	1243.2475	1268.7205	1328.4488	1367.3812	1416.3131	1486.9048	1491.9338	1499.9474	1631.3955	2359.253	3036.7271	3046.3714	3106.3603	3110.8973	3118.0174	3235.3174	3266.506	3382.3148
CC12CC(N1)(C=C2)C#N	C[C@@]12C[C@@](N1)(C=C2)C#N	
InChI=1S/C7H8N2/c1-6-2-3-7(4-6,5-8)9-6/h2-3,9H,4H2,1H3	InChI=1S/C7H8N2/c1-6-2-3-7(4-6,5-8)9-6/h2-3,9H,4H2,1H3/t6-,7+/m1/s1
