25
gdb 101478	3.18472	0.91487	0.77176	1.4426	88.78	-0.2587	0.0729	0.3316	1594.1417	0.229692	-389.514903	-389.504758	-389.503814	-389.550564	38.259	
C	-0.0229616014	 1.6161243479	-0.0782821741	-0.381086
C	-0.034365032	 0.0855177822	-0.053176076	-0.188401
C	 0.7160395102	-0.5433439842	-1.2353054868	 0.122191
O	 2.0655237782	-0.0751815483	-1.2872499148	-0.433065
C	 0.6609076813	-2.0786629502	-1.2377572234	 0.025086
C	-0.7818893923	-2.6457116732	-1.3506346473	-0.216409
C	-0.6543593908	-3.9016531491	-2.2274305051	-0.204717
C	 0.4065082105	-3.4918836955	-3.2588962171	-0.192546
C	 1.4477918002	-2.7177733194	-2.4256365106	-0.226502
H	 1.0023598866	 1.9926570243	-0.1138540823	 0.126627
H	-0.545804206	 1.9980110625	-0.9622974362	 0.112455
H	-0.5157496658	 2.0316594534	 0.8059314684	 0.10617
H	 0.4245987229	-0.2771161499	 0.8791412777	 0.081043
H	-1.0670898301	-0.2815361804	-0.0445261496	 0.101031
H	 0.272117797	-0.1779428476	-2.1725464633	 0.079634
H	 2.5116677881	-0.393945541	-0.4941251154	 0.273347
H	 1.1034632127	-2.416092061	-0.2896551049	 0.052457
H	-1.2370404546	-2.8440271361	-0.376459165	 0.093598
H	-1.4261855927	-1.9166292753	-1.8603733366	 0.096176
H	-0.2878409822	-4.7449607598	-1.6281214798	 0.093767
H	-1.6045414932	-4.2086521309	-2.6748480165	 0.090826
H	 0.8388526386	-4.3388883461	-3.7994157483	 0.090727
H	-0.0483718558	-2.8309842525	-4.0073528188	 0.094986
H	 1.982644936	-1.9605624224	-3.0034327946	 0.112384
H	 2.2051774946	-3.4094711473	-2.0420629996	 0.090222
41.3536	84.6272	105.0217	156.1158	221.3167	248.7428	283.0866	299.8312	323.8479	393.2317	443.0431	508.1232	561.4846	636.5642	771.3388	810.5637	847.5741	870.2917	890.4439	913.6736	926.9728	952.1209	984.771	1021.5075	1027.2445	1052.9419	1062.7619	1075.0755	1111.874	1135.1641	1171.7953	1185.2136	1240.0104	1249.9011	1257.0843	1277.886	1306.0952	1322.4692	1335.607	1343.8255	1346.7194	1352.3013	1377.974	1391.9157	1404.6805	1418.6959	1480.9953	1487.8671	1491.688	1495.9846	1497.6407	1509.3908	1515.2614	2989.2892	2995.4677	3014.8375	3020.2786	3025.1935	3031.6715	3036.9535	3048.1624	3062.2965	3082.679	3084.7013	3090.7547	3100.0722	3105.3695	3123.5105	3789.9746
CCC(O)C1CCCC1	CC[C@@H](O)C1CCCC1	
InChI=1S/C8H16O/c1-2-8(9)7-5-3-4-6-7/h7-9H,2-6H2,1H3	InChI=1S/C8H16O/c1-2-8(9)7-5-3-4-6-7/h7-9H,2-6H2,1H3/t8-/m1/s1
