16
gdb 49997	3.52159	1.09199	1.02282	4.0165	70.86	-0.2505	-0.0287	0.2218	1181.3965	0.12296	-437.815748	-437.808009	-437.807064	-437.848487	29.09	
O	-0.3451284477	 0.6068030452	 0.8439639676	-0.258411
C	 0.2231749904	 0.9328214333	-0.1671954027	 0.187992
C	 1.4122417935	 1.8270278116	-0.2040586589	-0.200401
N	 2.2720589936	 1.6675457848	-1.4100498687	-0.3818
C	 1.522135999	 2.8894408076	-1.2485488084	 0.337737
C	 0.53393087	 3.4169582331	-2.3227474991	-0.332768
C	 1.1642815586	 4.8050236635	-2.1059682345	 0.036589
O	 0.9892620823	 5.1390531411	-0.7257093282	-0.231207
C	 2.0884614045	 4.2912499307	-1.077721971	-0.079011
H	-0.1046045056	 0.5857628154	-1.1721394975	 0.083378
H	 1.8711011682	 2.0259121009	 0.7611125308	 0.110226
H	 3.2501092274	 1.7909741505	-1.1570080546	 0.244984
H	 0.7502175631	 2.9808668647	-3.3007820797	 0.127639
H	-0.5343074456	 3.3564549656	-2.1057182296	 0.125713
H	 1.2823067181	 5.6206000313	-2.8087739067	 0.116708
H	 3.0848898703	 4.5985863808	-0.7785691286	 0.112634
75.0184	124.216	172.9249	236.9619	359.7391	377.095	432.1066	489.6178	510.7186	599.2958	779.8257	829.3839	844.9599	862.5569	928.8662	938.0537	951.6885	977.0445	994.5544	1028.1814	1050.3698	1067.8352	1072.1544	1157.7769	1190.0967	1212.1302	1225.7763	1240.6769	1272.7591	1311.5639	1376.2787	1400.4191	1456.1241	1473.7986	1825.4727	2892.7922	3073.3151	3135.434	3153.7711	3176.5	3200.588	3494.9384
O=CC1NC11CC2OC12	O=C[C@H]1N[C@]21C[C@H]1O[C@@H]21	
InChI=1S/C6H7NO2/c8-2-4-6(7-4)1-3-5(6)9-3/h2-5,7H,1H2	InChI=1S/C6H7NO2/c8-2-4-6(7-4)1-3-5(6)9-3/h2-5,7H,1H2/t3-,4-,5-,6+/m1/s1
