23
gdb 102535	1.9533	1.17026	0.86558	3.4531	82.79	-0.2388	-0.0164	0.2224	1464.039	0.201677	-425.43165	-425.420059	-425.419115	-425.469476	40.086	
C	 0.0970970823	 1.1290548414	 0.7155210611	-0.394768
C	-0.012575936	-0.2945208409	 0.1665925033	-0.176591
C	 0.5817516529	-0.4567398083	-1.2377193285	 0.098915
O	 1.9777607697	-0.1543811707	-1.2053390598	-0.254967
C	 2.3814684446	 0.9466621561	-1.990789685	-0.238253
C	 0.3840028232	-1.8855302186	-1.795902041	-0.063347
C	 0.89944404	-2.012670586	-3.2408317692	-0.424067
C	 1.0975789648	-2.9124270649	-0.9330748874	 0.164263
O	 0.5714737043	-3.8818272017	-0.4466934826	-0.261587
H	 1.1434081569	 1.4406098764	 0.7778985829	 0.12966
H	-0.4348937053	 1.84579858	 0.07931744	 0.109712
H	-0.3331182507	 1.1952142955	 1.7191429859	 0.116618
H	 0.4960162131	-0.9902250693	 0.8451764434	 0.114379
H	-1.0634991614	-0.6072466397	 0.1341229537	 0.101508
H	 0.0733727595	 0.2404736422	-1.9215577012	 0.068013
H	 1.8908073932	 1.8790728202	-1.67701291	 0.110433
H	 3.4605996231	 1.0577046168	-1.8545733384	 0.128751
H	 2.177262934	 0.7904186856	-3.0599886134	 0.107278
H	-0.6836448587	-2.1276910078	-1.7625447278	 0.08985
H	 0.3970724234	-1.2907467227	-3.8928574933	 0.11869
H	 1.9759242415	-1.82401089	-3.289071405	 0.134395
H	 0.7098978946	-3.014208202	-3.6374541129	 0.12972
H	 2.182938641	-2.7147221617	-0.795447805	 0.091395
47.807	60.9366	67.4438	101.3659	162.5729	175.5878	219.14	227.3083	259.5738	283.3786	305.3506	343.9909	409.9344	430.521	499.5881	652.7652	761.826	836.8629	902.8266	931.7661	945.2356	985.0155	1031.1593	1051.4926	1088.3747	1129.5405	1138.8358	1159.052	1177.7411	1181.1889	1218.656	1271.7014	1307.5881	1316.9357	1342.9403	1382.6544	1397.2334	1400.0896	1410.239	1426.3358	1473.8403	1483.3608	1488.4022	1497.0955	1500.2206	1501.6543	1508.6714	1516.9015	1826.3274	2900.3643	2977.5835	2990.1078	3029.0244	3033.8792	3036.6783	3038.7038	3058.0736	3067.8789	3101.3183	3106.8803	3109.5838	3117.9554	3118.8683
CCC(OC)C(C)C=O	CC[C@@H](OC)[C@@H](C)C=O	
InChI=1S/C7H14O2/c1-4-7(9-3)6(2)5-8/h5-7H,4H2,1-3H3	InChI=1S/C7H14O2/c1-4-7(9-3)6(2)5-8/h5-7H,4H2,1-3H3/t6-,7+/m0/s1
