21
gdb 87409	3.29423	1.37318	1.30004	0.2676	86.26	-0.2331	0.098	0.3311	1099.791	0.183378	-349.888727	-349.88098	-349.880036	-349.920625	31.768	
C	-0.1518188968	 1.4994511002	 0.0355305099	-0.403666
C	-0.035991585	-0.008516966	 0.0820016027	-0.073134
C	 1.3063252882	-0.6862120719	-0.1650827017	-0.387219
C	 0.6832664028	-0.7027039392	 1.1969254879	 0.441605
C	 1.3215311913	-0.1808503617	 2.4654462329	-0.161585
C	 0.4248923939	-0.6411795124	 3.6320335483	-0.072671
C	-0.7436194393	-1.420381116	 3.027919003	-0.228689
C	 0.2897420084	-1.9557889468	 1.9944885016	-0.165211
C	 1.4370045941	-1.5809604591	 3.0258652168	-0.072333
H	 0.7333807996	 1.9761518158	 0.4694633659	 0.111513
H	-0.2511179521	 1.8618972208	-0.9939418864	 0.113287
H	-1.0234724997	 1.8509864229	 0.5991120579	 0.115511
H	-0.8982134256	-0.5386735602	-0.3193204812	 0.075528
H	 1.3227265895	-1.6040687252	-0.7452849373	 0.103989
H	 2.1700251547	-0.0465632607	-0.3260658082	 0.104534
H	 2.0208711968	 0.6368943298	 2.5845339287	 0.08191
H	 0.4735903663	-0.1469911212	 4.5943622464	 0.081809
H	-1.084969934	-2.2073812378	 3.7065459926	 0.093743
H	-1.6054107097	-0.8694612972	 2.6331115591	 0.087553
H	 0.1492129958	-2.9137016442	 1.496804486	 0.066455
H	 2.2746076107	-2.1231060199	 3.4393574851	 0.08707
126.5874	153.2749	194.8795	232.594	351.9448	395.2961	465.1403	483.4933	610.4214	746.6436	775.9608	786.0196	800.6187	810.8886	848.8619	881.5732	894.1432	933.4521	951.08	961.0822	987.5944	1006.649	1016.6675	1023.0014	1032.9861	1057.2514	1071.1127	1107.9495	1128.6723	1141.2043	1155.5467	1163.701	1180.1793	1209.4512	1230.8459	1251.012	1283.8273	1346.7668	1362.1119	1413.1627	1438.1116	1492.1399	1493.3056	1498.7135	1510.6523	3024.5238	3029.9439	3084.659	3092.3668	3092.5561	3111.5827	3119.4891	3129.9001	3188.0425	3194.2826	3195.8259	3223.7038
CC1CC11C2C3CC1C23	C[C@H]1C[C@]21[C@H]1[C@H]3C[C@@H]2[C@@H]13	
InChI=1S/C9H12/c1-4-3-9(4)6-2-5-7(6)8(5)9/h4-8H,2-3H2,1H3	InChI=1S/C9H12/c1-4-3-9(4)6-2-5-7(6)8(5)9/h4-8H,2-3H2,1H3/t4-,5-,6+,7-,8-,9+/m0/s1
