21
gdb 89821	2.93057	1.28302	1.00921	1.5288	88.09	-0.2047	0.0231	0.2278	1267.942	0.180993	-387.094836	-387.085663	-387.084719	-387.12862	35.218	
C	 0.2398908383	 1.5271466062	-0.1691393557	-0.393377
C	-0.0161978814	 0.0410847042	 0.0838269049	 0.031988
O	 0.4394562112	-0.7211235547	-1.0411320597	-0.322149
C	 1.3189396785	-1.7366927835	-0.6029654139	 0.447146
C	 1.2388240546	-3.0813162625	-1.2834341611	-0.327481
C	 2.4164375306	-2.160064843	-1.5418776467	-0.325362
C	 1.4766227254	-1.5538685652	 0.8539218723	-0.298823
C	 0.7179921428	-0.542804438	 1.2748773203	 0.301517
C	 0.535945601	-0.0201112316	 2.6625829339	-0.496494
H	 1.3136383138	 1.7240121589	-0.2427594229	 0.119536
H	-0.2343051376	 1.8318578126	-1.1061433883	 0.125582
H	-0.1773049347	 2.1377883864	 0.638538931	 0.110255
H	-1.1046164381	-0.1113598878	 0.1960007457	 0.075745
H	 1.3932880069	-3.9771842491	-0.6909632458	 0.109528
H	 0.4993816387	-3.1752121485	-2.0709452961	 0.12264
H	 2.4490226571	-1.651699108	-2.4991595434	 0.122652
H	 3.3857102673	-2.4181681794	-1.1281030164	 0.110356
H	 2.1159142556	-2.1815308119	 1.4626013625	 0.101328
H	 1.109837182	-0.6035436177	 3.3871234388	 0.126561
H	 0.8532661958	 1.0267210127	 2.7440387121	 0.131327
H	-0.519836498	-0.05059049	 2.9614802487	 0.127527
61.5171	131.9848	175.5297	220.3072	236.0796	242.6088	319.9538	336.7888	416.2774	490.6237	506.3415	575.6526	629.3599	764.9784	787.7293	827.2816	846.4103	889.8277	899.3839	918.3164	944.9959	995.4524	1011.463	1035.1767	1054.1985	1062.3185	1085.3447	1112.4245	1120.3181	1160.6525	1191.9537	1245.0327	1298.5482	1355.2163	1368.3765	1387.727	1399.6443	1414.8222	1449.8971	1477.7122	1485.1019	1491.4829	1493.1949	1496.0017	1724.611	2935.3252	3018.948	3036.6274	3065.4008	3109.572	3113.7134	3120.5377	3127.8782	3130.5154	3207.8026	3213.3456	3228.4743
CC1OC2(CC2)C=C1C	C[C@H]1OC2(CC2)C=C1C	
InChI=1S/C8H12O/c1-6-5-8(3-4-8)9-7(6)2/h5,7H,3-4H2,1-2H3	InChI=1S/C8H12O/c1-6-5-8(3-4-8)9-7(6)2/h5,7H,3-4H2,1-2H3/t7-/m1/s1
