14
gdb 131552	3.13713	1.63251	1.12476	4.1932	63.43	-0.2408	-0.0384	0.2024	997.998	0.102664	-469.945927	-469.938822	-469.937878	-469.97774	26.857	
O	 0.0020575837	 1.430627571	 0.136386656	-0.410988
C	 0.0531534839	 0.0279500076	-0.0142518739	-0.025919
C	-1.420623933	-0.4946596065	-0.1375766567	-0.1829
N	-1.4089556422	-1.5479360648	-1.1828881644	-0.406649
C	-0.2788658468	-1.3599343717	-1.9406019894	 0.390572
N	 0.2080486915	-1.7954271997	-3.0649285333	-0.237557
O	 1.4721819507	-1.1730923803	-3.1223438366	-0.17138
N	 1.7051598507	-0.3767180248	-2.0232904137	-0.20667
C	 0.6343836679	-0.4825953476	-1.3062500873	 0.313657
H	 0.9052109397	 1.7638300254	 0.1703250584	 0.3008
H	 0.5567122908	-0.441869381	 0.8430676875	 0.108305
H	-1.7945925286	-0.898532461	 0.8053493099	 0.12906
H	-2.038726615	 0.3641306452	-0.4257855337	 0.137465
H	-2.2807213632	-1.7695179419	-1.6396054129	 0.262205
80.2662	181.1094	252.5977	303.557	353.8795	469.1439	489.9127	525.9513	586.6524	640.7017	696.4006	783.6341	813.8402	822.7005	886.2734	964.642	995.1072	1043.6973	1055.8938	1117.3126	1201.2311	1223.0388	1260.518	1300.7411	1345.4988	1388.0938	1418.6478	1472.6351	1512.804	1600.8762	1693.6165	2996.8785	3038.9071	3109.2772	3621.0533	3817.0107
OC1CNC2=NON=C12	O[C@H]1CNc2nonc12	
InChI=1S/C4H5N3O2/c8-2-1-5-4-3(2)6-9-7-4/h2,8H,1H2,(H,5,7)	InChI=1S/C4H5N3O2/c8-2-1-5-4-3(2)6-9-7-4/h2,8H,1H2,(H,5,7)/t2-/m0/s1
