22
gdb 99988	2.65093	1.10355	0.95701	4.7905	82.3	-0.2807	0.032	0.3127	1350.4784	0.191118	-404.375116	-404.364071	-404.363127	-404.410752	40.572	
C	 0.0697213692	 1.5918151925	-0.188533312	-0.393727
C	-0.0099306159	 0.0802860256	 0.0489366853	-0.215596
C	-1.4502074009	-0.4751366892	 0.1182998799	 0.358077
C	-2.253793697	 0.1254320613	 1.273463163	-0.417797
O	-2.1697488509	-0.1149045964	-1.0607034015	-0.448626
C	-1.4052234129	-2.0410858206	 0.1995653448	-0.184781
C	-0.7365141739	-2.6323409152	 1.4578538791	-0.40887
C	-2.7558317383	-2.5978492362	 0.0541866696	 0.288471
N	-3.8077799544	-3.0689246209	-0.0305471758	-0.333596
H	 1.1059746938	 1.896613563	-0.3612323147	 0.113868
H	-0.5252201131	 1.8794062612	-1.0588178166	 0.130696
H	-0.3000939563	 2.1567753303	 0.6719200682	 0.12304
H	 0.5144859195	-0.4409184385	-0.7655693512	 0.08483
H	 0.5283185627	-0.174349148	 0.968124103	 0.104212
H	-2.4049290815	 1.19273104	 1.1015547757	 0.134503
H	-3.2378032145	-0.34550987	 1.3395551829	 0.147413
H	-1.7356954669	-0.0014023238	 2.227402154	 0.115933
H	-1.7039611802	-0.4692048071	-1.8268852647	 0.278946
H	-0.8333493309	-2.3795493717	-0.6765043405	 0.109977
H	 0.3000537987	-2.2987719908	 1.538348519	 0.129241
H	-1.2711919632	-2.3390375709	 2.3641804839	 0.14282
H	-0.7383344531	-3.7238660747	 1.4069919085	 0.140967
61.6201	96.9582	136.6352	192.6315	201.5083	226.9736	252.1268	261.8446	284.9901	313.9656	348.0104	357.6718	414.8236	448.7106	455.3086	580.0158	620.5131	735.9736	793.6984	836.5966	905.5366	936.52	985.1558	1008.9021	1038.6027	1063.5877	1089.4632	1123.3867	1145.2626	1174.0409	1214.855	1287.3855	1298.2479	1332.1962	1367.709	1387.544	1408.3577	1414.243	1430.3374	1478.5839	1488.2341	1495.4759	1498.5405	1503.69	1508.4999	1514.1017	2356.8752	2998.5317	3007.1349	3047.8336	3056.6014	3058.6697	3069.4289	3112.2661	3128.1065	3129.0277	3133.1447	3138.615	3141.6624	3794.3771
CCC(C)(O)C(C)C#N	CC[C@@](C)(O)[C@@H](C)C#N	
InChI=1S/C7H13NO/c1-4-7(3,9)6(2)5-8/h6,9H,4H2,1-3H3	InChI=1S/C7H13NO/c1-4-7(3,9)6(2)5-8/h6,9H,4H2,1-3H3/t6-,7+/m0/s1
