21
gdb 107634	2.43811	1.56047	1.14875	1.5648	77.76	-0.2368	0.0699	0.3067	1144.3252	0.182649	-424.213531	-424.204561	-424.203616	-424.246811	34.654	
C	-0.3674468519	 1.3482663472	-0.3378182798	-0.261192
O	 0.1139827591	 0.0483418604	-0.026681435	-0.298648
C	 0.8139732503	-0.5638361474	-1.0580145391	 0.42767
C	 0.0454907497	-1.1845487978	-2.2076589971	-0.37101
C	 0.7615422652	-2.057753966	-1.1936436493	-0.097986
C	 2.1538407409	-2.5627887039	-1.551421315	-0.225379
C	 2.8984398002	-1.3112681516	-2.0652641776	-0.25983
C	 2.2440755765	-0.1119252876	-1.3399176807	 0.073413
O	 2.3729729918	 1.1242911208	-2.03025416	-0.435327
H	 0.4501537664	 2.0390694161	-0.5708953593	 0.132586
H	-1.059483212	 1.3224997663	-1.1924561131	 0.09942
H	-0.9069169924	 1.7018078274	 0.543988133	 0.12117
H	-1.0345685707	-1.1462704032	-2.1201846154	 0.11919
H	 0.4131489088	-1.1234275621	-3.2282615599	 0.099995
H	 0.1435136403	-2.6326143408	-0.5134410884	 0.093852
H	 2.6379225019	-2.9521925517	-0.6483898195	 0.106575
H	 2.1441399955	-3.3748224305	-2.2865086349	 0.099689
H	 3.9770019455	-1.3533083261	-1.8981594844	 0.107276
H	 2.7545059612	-1.1876135241	-3.1453229712	 0.095467
H	 2.7257823225	 0.0628020816	-0.3709981888	 0.097531
H	 1.8788595513	 1.0459640729	-2.8542974444	 0.275541
101.489	132.6513	181.1507	198.1373	240.8325	306.5941	322.7665	347.2263	406.5106	458.4202	519.006	585.5392	627.1715	696.422	811.9164	841.3921	893.0442	937.772	966.1168	975.3296	993.8678	1019.5721	1047.1895	1078.9631	1085.406	1090.2711	1112.8881	1177.3073	1188.5106	1212.1207	1221.162	1249.3069	1275.0725	1296.6296	1315.6707	1334.9864	1342.4565	1392.5681	1435.2366	1470.1911	1485.3004	1488.8049	1491.2795	1507.4081	1517.1094	2995.3293	3034.7123	3036.3835	3053.4244	3071.4422	3072.5471	3105.2153	3119.6267	3122.2216	3177.5823	3212.0153	3794.5011
COC12CC1CCC2O	CO[C@]12C[C@H]1CC[C@H]2O	
InChI=1S/C7H12O2/c1-9-7-4-5(7)2-3-6(7)8/h5-6,8H,2-4H2,1H3	InChI=1S/C7H12O2/c1-9-7-4-5(7)2-3-6(7)8/h5-6,8H,2-4H2,1H3/t5-,6-,7-/m1/s1
