22
gdb 110604	4.38258	0.96259	0.8922	1.6303	86.63	-0.2132	0.0765	0.2897	1423.3607	0.193242	-367.135344	-367.126252	-367.125308	-367.16888	35.342	
C	 0.2952287008	 1.4383772318	 0.2017721741	-0.375709
C	-0.1412111575	 0.0195377577	-0.1813746134	-0.214524
C	 0.5887185531	-0.509263935	-1.4044792063	-0.024306
C	 1.8871760661	-1.2199897543	-1.1266794969	-0.00693
C	 0.6676264068	-2.0068922259	-1.5478357331	-0.155537
C	 1.5020802412	-2.4761138552	-2.7636018315	 0.329371
C	 1.5697959165	-3.926284783	-3.1400277417	-0.477658
C	 2.0640148426	-1.3762163554	-3.576253555	-0.297042
N	 2.7200102192	-1.7190765757	-2.2911165495	-0.18914
H	 1.3653741408	 1.4738713136	 0.429233043	 0.121313
H	 0.1071965775	 2.1426014447	-0.615936273	 0.115212
H	-0.2500676676	 1.7957265745	 1.0806923471	 0.112313
H	 0.0251112962	-0.6601899629	 0.6641120955	 0.097393
H	-1.2215823198	 0.0053228624	-0.3743810095	 0.099382
H	 0.4646921368	 0.123951222	-2.2782654808	 0.079075
H	 2.3881363432	-1.156118758	-0.16823161	 0.097716
H	 0.0520931417	-2.6834727675	-0.9678834241	 0.086219
H	 0.6577588559	-4.2360499361	-3.6644482112	 0.118778
H	 2.4246814804	-4.1165428245	-3.7950079992	 0.126843
H	 1.6766929508	-4.5558360033	-2.2494836269	 0.122747
H	 2.6799796361	-1.6678917264	-4.4229066227	 0.116124
H	 1.5630234393	-0.4255203435	-3.714544005	 0.118359
82.3484	129.3905	183.3557	197.3302	221.2677	269.406	304.4923	389.4342	412.5117	454.5535	531.4749	614.7286	707.1103	758.4501	798.5473	834.0573	856.9679	881.612	920.4108	923.9574	964.148	982.0885	1013.8372	1047.2234	1060.4863	1072.9505	1098.5308	1103.5649	1119.9588	1129.199	1140.4181	1196.0282	1223.2828	1272.0014	1293.8611	1299.778	1352.9009	1373.9419	1409.6593	1416.0316	1430.8364	1480.145	1488.659	1493.1724	1496.8016	1507.6814	1514.5682	3018.7664	3024.5728	3033.8116	3049.616	3084.8302	3101.1495	3108.0669	3112.6828	3121.5259	3140.9876	3176.5282	3188.5324	3209.2192
CCC1C2C1C1(C)CN21	CC[C@H]1[C@H]2[C@@H]1[C@@]1(C)CN21	
InChI=1S/C8H13N/c1-3-5-6-7(5)9-4-8(6,9)2/h5-7H,3-4H2,1-2H3	InChI=1S/C8H13N/c1-3-5-6-7(5)9-4-8(6,9)2/h5-7H,3-4H2,1-2H3/t5-,6-,7+,8-,9?/m1/s1
