18
gdb 11543	4.0277	1.23599	0.99475	2.4755	69.39	-0.2409	0.0337	0.2746	1179.1117	0.154315	-381.125421	-381.116581	-381.115636	-381.159708	30.963	
C	-0.5671988021	 1.0176812801	-0.7061551067	-0.333567
N	 0.0331694842	-0.2381902188	-1.1118898752	-0.315555
C	 1.2383006833	-0.6558954254	-0.6299744705	 0.400335
O	 1.9004778777	-0.0190695303	 0.1701177037	-0.380027
C	 1.7208103706	-2.0231514862	-1.1381895333	-0.328058
C	 1.0609401507	-2.5353691704	-2.394632529	-0.00092
C	 0.8284923387	-3.9784601888	-2.6284080558	-0.248045
N	-0.3143256269	-3.0886338334	-2.3387634916	-0.325913
H	 0.1193617671	 1.4967336683	-0.0074234538	 0.170278
H	-0.7252801037	 1.6786622994	-1.5655591508	 0.125443
H	-1.5305699005	 0.8571464632	-0.2090259966	 0.124
H	-0.459383362	-0.8237723272	-1.7679206034	 0.268972
H	 2.8030599713	-1.9314797242	-1.2734107877	 0.139132
H	 1.5761934551	-2.7391131765	-0.3180891271	 0.121701
H	 1.2173981628	-1.9133972161	-3.2743450539	 0.105513
H	 0.8543582633	-4.3766795357	-3.6383061738	 0.126174
H	 1.1418625488	-4.6774733756	-1.8574971108	 0.118806
H	-0.5816519583	-3.2124065823	-1.3635080637	 0.231729
67.4989	74.2239	102.7648	140.7243	181.3829	282.4287	347.6857	366.1207	473.8994	544.1596	634.7042	681.6558	790.8492	832.694	871.3651	928.7712	947.1355	992.458	1051.1526	1100.2286	1130.0321	1144.3938	1159.7731	1174.4038	1185.378	1255.3469	1268.1218	1278.8102	1308.3028	1313.737	1430.7219	1437.879	1455.067	1496.0562	1501.3724	1512.1876	1573.6346	1779.6027	3027.509	3030.2664	3078.4888	3087.3233	3113.0612	3125.4843	3154.7233	3199.5628	3476.4613	3626.9724
CNC(=O)CC1CN1	CNC(=O)C[C@H]1CN1	
InChI=1S/C5H10N2O/c1-6-5(8)2-4-3-7-4/h4,7H,2-3H2,1H3,(H,6,8)	InChI=1S/C5H10N2O/c1-6-5(8)2-4-3-7-4/h4,7H,2-3H2,1H3,(H,6,8)/t4-/m0/s1
