16
gdb 85994	2.27513	1.38253	1.21873	2.8644	68.02	-0.253	-0.0435	0.2095	1109.3529	0.121476	-475.042574	-475.032996	-475.032052	-475.077444	32.759	
C	 0.0197390968	 1.3914034898	-0.0034465976	-0.346872
N	 0.0587474726	-0.0489958754	-0.023951964	-0.076444
C	-1.0044363183	-1.0606378588	-0.127444609	-0.211603
C	 0.1039312907	-2.1477240618	 0.008096489	 0.166072
O	 0.0303007764	-3.0275200535	 1.0978891173	-0.477057
C	 0.3765696276	-2.9150552891	-1.2770042955	 0.122445
O	 0.0825373966	-2.5245317981	-2.3764668977	-0.245839
C	 1.0669333459	-0.9265108593	 0.2177906327	 0.340866
O	 2.2200535026	-0.819862342	 0.5487676766	-0.375713
H	 1.0390785564	 1.7534225033	 0.1472802134	 0.165793
H	-0.3636301836	 1.7876618084	-0.9501960403	 0.142581
H	-0.6121697723	 1.7612793219	 0.8129536638	 0.135459
H	-1.6999936271	-1.0590839688	 0.7169286968	 0.123262
H	-1.5321799429	-1.0565984049	-1.0839144033	 0.137
H	 0.8073837956	-2.8816177168	 1.6504899678	 0.305503
H	 0.8883046229	-3.8854204549	-1.09982211	 0.094549
73.3438	88.3466	135.5569	151.6104	202.5689	219.7024	243.7047	250.8571	279.3271	394.2378	535.7004	577.5226	630.8223	733.8548	788.806	836.5299	941.5929	954.8936	1045.7707	1057.018	1127.9272	1162.5774	1175.4034	1213.4355	1260.8802	1303.4881	1339.2669	1402.3264	1422.4014	1449.5784	1481.3869	1498.7703	1524.8475	1823.1216	1879.3989	2910.6803	3023.2259	3054.0619	3079.9225	3120.8363	3136.4802	3789.9236
CN1CC(O)(C=O)C1=O	CN1C[C@@](O)(C=O)C1=O	
InChI=1S/C5H7NO3/c1-6-2-5(9,3-7)4(6)8/h3,9H,2H2,1H3	InChI=1S/C5H7NO3/c1-6-2-5(9,3-7)4(6)8/h3,9H,2H2,1H3/t5-/m1/s1
