15
gdb 123632	4.21992	1.62745	1.41954	0.205	70.45	-0.2289	-0.0029	0.226	891.4799	0.118028	-412.92451	-412.918556	-412.917612	-412.954699	24.246	
C	-0.038877942	 1.5717779013	-0.0712606406	-0.201539
C	 1.5145467135	 1.3438477079	 0.000428764	-0.145238
N	 1.158887213	 0.2034304431	 0.9348172918	-0.296737
C	-0.0250264148	 0.0021732421	 0.0085497423	-0.145238
C	 0.6669022006	-0.316987348	-1.3058740058	 0.342123
N	 0.69734226	-1.0438348533	-2.4029667621	-0.34529
N	 1.7704889065	-0.5224591283	-3.0426592841	-0.129677
N	 2.4375001541	 0.4726462425	-2.41214814	-0.34529
C	 1.7282314226	 0.6079186462	-1.3114730554	 0.342123
H	-0.4267053579	 2.0223476754	 0.84341532	 0.122148
H	-0.4493708747	 2.0373943149	-0.9674619993	 0.114469
H	 2.2132677553	 2.0979243944	 0.3542089557	 0.092405
H	 1.8288289637	-0.5656427441	 0.8828825343	 0.216332
H	-0.8654083589	-0.5850150394	 0.3704493573	 0.092405
H	 2.1292014888	-0.9391847346	-3.8856555081	 0.287006
159.8942	320.0491	325.9899	438.3599	486.6512	560.0839	672.0234	698.6229	699.9873	795.0259	798.401	855.1808	902.6082	906.8045	969.8949	1015.302	1032.8562	1056.7747	1105.4903	1117.7605	1127.7202	1131.8072	1167.7533	1217.5871	1255.3075	1259.0061	1265.2259	1339.9929	1407.7557	1420.8663	1481.9126	1522.5795	1620.1462	3085.0897	3154.4217	3154.9686	3159.655	3439.8214	3678.7236
C1C2NC1C1=NNN=C21	C1[C@H]2N[C@@H]1c1n[nH]nc21	
InChI=1S/C5H6N4/c1-2-4-5(3(1)6-2)8-9-7-4/h2-3,6H,1H2,(H,7,8,9)	InChI=1S/C5H6N4/c1-2-4-5(3(1)6-2)8-9-7-4/h2-3,6H,1H2,(H,7,8,9)/t2-,3+
