23
gdb 101365	3.18083	1.01203	0.89126	1.5041	85.33	-0.2321	0.0772	0.3093	1432.6826	0.204728	-388.2551	-388.245497	-388.244553	-388.28973	36.386	
C	 0.0391178579	 1.5320353172	 0.1499136922	-0.393697
C	-0.1081028492	 0.0077059542	 0.1201521978	-0.170879
C	-1.5432332867	-0.4880581421	-0.1390432405	 0.016093
C	-2.0573599762	-0.1430761162	-1.5441426405	-0.403424
C	-1.6195591348	-1.9947986	 0.071370915	 0.138697
O	-1.2179417854	-2.4350400542	 1.4084422155	-0.310626
C	-2.4094647126	-3.2156422573	 1.520754018	 0.106585
C	-3.6229864113	-2.3445621887	 1.5286165394	-0.300217
C	-2.9651828605	-2.7139782048	 0.2109076635	-0.155198
H	 1.0660273732	 1.8191650237	 0.3968532642	 0.112488
H	-0.2047305792	 1.9896668292	-0.8141330092	 0.114327
H	-0.6189897297	 1.9773046893	 0.9047747097	 0.113354
H	 0.5587157419	-0.4118334301	-0.6462951093	 0.087241
H	 0.2240217	-0.4067152276	 1.0779623259	 0.119948
H	-2.2023201471	-0.0125432247	 0.5995852769	 0.070216
H	-3.0762039359	-0.5144543245	-1.6950819718	 0.117866
H	-2.073675912	 0.9370425715	-1.7111912325	 0.119052
H	-1.419101645	-0.5890367009	-2.3166979484	 0.112232
H	-0.9836541823	-2.5058003976	-0.6663622238	 0.075752
H	-2.329667057	-4.2051957001	 1.9551901245	 0.102127
H	-4.5643079807	-2.8550949707	 1.7085043825	 0.113225
H	-3.5606969309	-1.3395183626	 1.9348444086	 0.11737
H	-3.4850777662	-3.239516653	-0.5781337476	 0.097466
67.2065	86.5135	140.1607	178.849	207.9218	242.7016	270.1707	352.4499	391.4289	408.5647	490.814	541.2335	732.4282	772.1094	781.5026	811.509	847.0597	909.7156	943.8115	962.0846	976.8063	981.1688	1000.7365	1019.6933	1039.2414	1047.8735	1051.9089	1081.7105	1085.6207	1141.2968	1176.1294	1187.756	1203.577	1260.4729	1274.819	1298.9595	1306.1682	1352.8716	1360.9404	1379.5099	1407.2416	1413.0714	1415.913	1474.206	1487.2808	1497.2357	1500.4443	1507.6357	1511.1777	2995.2023	3009.3052	3022.9053	3030.9273	3032.5268	3070.2391	3093.2514	3097.6927	3104.0526	3114.6376	3119.8688	3180.3686	3202.4394	3211.9954
CCC(C)C1OC2CC12	CC[C@@H](C)[C@H]1O[C@H]2C[C@@H]12	
InChI=1S/C8H14O/c1-3-5(2)8-6-4-7(6)9-8/h5-8H,3-4H2,1-2H3	InChI=1S/C8H14O/c1-3-5(2)8-6-4-7(6)9-8/h5-8H,3-4H2,1-2H3/t5-,6-,7+,8-/m1/s1
