19
gdb 89267	2.44302	1.79932	1.31973	2.0993	74.06	-0.2211	0.0628	0.284	1008.9891	0.158775	-422.959912	-422.951924	-422.95098	-422.991717	32.675	
O	 0.0708903958	 1.4613392893	-0.1483103022	-0.420541
C	 0.0326909127	 0.0592359179	-0.0004939832	 0.107039
C	 0.2996731811	-0.5577090409	 1.4210365312	-0.36763
C	-1.1115131275	-1.2233081272	 1.3782370617	 0.433238
O	-1.224354923	-2.5931985485	 1.6263938929	-0.490052
C	-2.3185350599	-0.4729590758	 1.9779460825	-0.086051
C	-2.2164160135	 1.0151062805	 1.8249530283	-0.293124
C	-2.5847946855	 0.1967362532	 0.619645181	-0.048345
C	-1.3933826186	-0.5592970934	-0.0108660331	-0.121803
H	 0.9913098819	 1.7403247481	-0.1103133026	 0.283985
H	 0.6668208933	-0.4222193049	-0.7588845413	 0.065992
H	 1.1133362749	-1.2907194064	 1.433154584	 0.086313
H	 0.4711577641	 0.1644697065	 2.2234510548	 0.106305
H	-0.5506648205	-3.053530998	 1.1149229703	 0.275286
H	-3.0087533362	-0.9501721506	 2.6630451757	 0.089259
H	-3.0485669378	 1.5623138119	 2.2585251547	 0.10785
H	-1.272789916	 1.5441719509	 1.8727053554	 0.122441
H	-3.5288005869	 0.3447867277	 0.1098523042	 0.084959
H	-1.6627551785	-1.1660181103	-0.8760114244	 0.064878
150.0388	217.4631	247.8237	286.0601	304.53	332.3204	344.675	438.6048	459.5675	546.0289	625.8725	679.0221	742.336	765.8073	817.6812	845.8489	915.0205	923.217	929.9364	970.3596	996.7936	1025.1265	1044.1689	1058.6077	1060.0588	1086.5632	1103.5348	1124.62	1167.8776	1186.401	1198.6832	1209.9261	1253.1649	1288.8131	1306.3556	1320.5723	1355.8869	1392.9298	1423.5459	1463.4841	1504.8857	2983.5698	3043.9306	3104.7206	3105.3165	3133.7328	3177.5076	3188.3908	3220.9797	3806.9573	3814.824
OC1CC2(O)C3CC3C12	O[C@H]1C[C@@]2(O)[C@H]3C[C@H]3[C@@H]12	
InChI=1S/C7H10O2/c8-5-2-7(9)4-1-3(4)6(5)7/h3-6,8-9H,1-2H2	InChI=1S/C7H10O2/c8-5-2-7(9)4-1-3(4)6(5)7/h3-6,8-9H,1-2H2/t3-,4+,5+,6+,7-/m1/s1
