24
gdb 103751	2.91515	1.0224	0.88973	2.7488	86.49	-0.2312	0.0658	0.297	1447.1861	0.21488	-405.527501	-405.51623	-405.515286	-405.563677	41.445	
C	-0.5612038914	 1.3447945004	 0.301638448	-0.376983
C	 0.3234260554	 0.1556793309	-0.0942719648	-0.228613
C	 1.0199167618	-0.4997010868	 1.0989409289	 0.269928
C	 2.1852249867	 0.3337601409	 1.6135543274	-0.472602
N	 0.107209038	-1.1299650723	 2.0751398388	-0.396996
C	 0.9936009817	-1.9957202348	 1.2677067398	 0.297691
C	 0.2764001607	-2.9098115746	 0.286536103	-0.457709
C	 2.1389898568	-2.708491361	 1.9611594732	-0.167142
O	 1.580375116	-3.7357524526	 2.7770719053	-0.416593
H	 0.0153504513	 2.1607392796	 0.7495797365	 0.109322
H	-1.076615422	 1.7524868458	-0.5734453992	 0.107379
H	-1.3144050427	 1.0252900745	 1.0273501315	 0.135954
H	-0.2932542225	-0.5768516829	-0.6181128361	 0.100986
H	 1.0903908509	 0.4795454861	-0.8101317457	 0.088823
H	 1.86568678	 1.3693610287	 1.7697536335	 0.124504
H	 2.5796063296	-0.024154364	 2.5665542877	 0.113262
H	 3.0091612903	 0.3537636404	 0.8908310914	 0.119445
H	 0.4731273401	-1.0378552203	 3.0205879635	 0.22311
H	-0.7004904567	-2.5133776267	 0.0104050679	 0.128497
H	 0.8690273462	-3.0605148639	-0.6235332221	 0.104514
H	 0.1202725189	-3.8842365005	 0.757319716	 0.135587
H	 2.8088074722	-3.135246355	 1.1969896898	 0.088457
H	 2.7352338414	-2.0203252557	 2.57195448	 0.08163
H	 2.3030404374	-4.2676441163	 3.1227623055	 0.287551
64.7743	74.2157	131.4413	145.4746	168.8432	222.2622	243.0342	249.2863	284.7068	319.422	346.1865	379.3958	399.4515	426.0017	489.5784	630.1482	688.8745	722.6498	785.2128	855.0726	900.8501	953.9965	968.9567	1005.5811	1017.218	1051.2598	1063.7638	1076.6428	1080.0767	1104.1945	1142.1129	1177.9452	1238.9671	1257.5052	1267.3136	1312.2564	1328.756	1367.8158	1400.3977	1405.7408	1414.304	1428.4628	1455.5961	1480.4794	1484.8629	1493.1123	1500.7127	1506.2515	1509.504	1517.7434	1521.4169	2971.8328	3025.8725	3032.3436	3037.2428	3038.8915	3042.8251	3089.8608	3094.8043	3107.8411	3111.5928	3120.6236	3123.529	3148.6294	3485.1678	3830.7034
CCC1(C)NC1(C)CO	CC[C@@]1(C)N[C@]1(C)CO	
InChI=1S/C7H15NO/c1-4-6(2)7(3,5-9)8-6/h8-9H,4-5H2,1-3H3	InChI=1S/C7H15NO/c1-4-6(2)7(3,5-9)8-6/h8-9H,4-5H2,1-3H3/t6-,7-/m1/s1
