22
gdb 101270	2.56457	0.96323	0.85837	1.5316	89.	-0.2442	0.0369	0.2811	1492.9876	0.192021	-367.160446	-367.150002	-367.149058	-367.196142	38.618	
C	 0.1657001873	 1.537176709	-0.1291802402	-0.392344
C	 0.2086465246	 0.0129478579	 0.014097889	-0.169566
C	 0.5056478768	-0.4868607085	 1.4408011894	 0.035535
C	-0.5978821725	-0.1371339959	 2.4492006145	-0.403973
C	 0.7302333007	-1.9853481268	 1.4197385465	-0.010791
N	 2.0214815788	-2.4627609599	 0.9214706967	-0.332814
C	 1.6776634699	-2.6816158914	 2.3501612027	-0.257947
C	 2.4517772512	-1.9830124473	 3.3394831519	 0.383683
C	 3.0775469666	-1.4188659612	 4.1976529574	-0.447934
H	 1.1050390109	 1.9899274176	 0.2074856793	 0.117211
H	 0.0149296948	 1.826042762	-1.1741622843	 0.110807
H	-0.646122558	 1.9840368607	 0.4532612057	 0.115724
H	-0.7448344864	-0.4152607277	-0.3272486452	 0.083793
H	 0.9838247347	-0.38783446	-0.6494496887	 0.108665
H	 1.4438047569	-0.0262368635	 1.7733878145	 0.090218
H	-0.7483797848	 0.943321259	 2.5209521097	 0.117043
H	-1.5551152716	-0.5872932284	 2.1582837678	 0.106501
H	-0.341856352	-0.5045262167	 3.4476083313	 0.124069
H	-0.1527214769	-2.5688297304	 1.1524168351	 0.081884
H	 1.9167379944	-3.3379231265	 0.4146462354	 0.234675
H	 1.4001432262	-3.6935760728	 2.6388263778	 0.108089
H	 3.6401722283	-0.9169371692	 4.945295034	 0.197471
54.904	82.6693	102.4336	169.7378	217.3899	220.8557	237.4643	269.9926	305.3041	401.0275	409.9056	482.2488	559.2807	600.4043	620.0119	656.9506	772.8538	800.6365	831.9704	845.8208	915.3213	951.1537	975.9498	978.9032	1003.6203	1040.8308	1064.571	1139.429	1152.1867	1185.2517	1200.2131	1230.3867	1254.5807	1295.039	1308.7947	1353.2627	1377.793	1404.7177	1407.4448	1413.976	1457.4972	1486.0117	1496.9243	1500.4038	1507.1358	1510.5578	2238.1493	3005.6684	3027.0979	3033.24	3039.8592	3058.1292	3088.2729	3096.8235	3099.0484	3103.172	3114.8896	3122.6338	3502.4191	3504.3036
CCC(C)C1NC1C#C	CC[C@@H](C)[C@H]1N[C@H]1C#C	
InChI=1S/C8H13N/c1-4-6(3)8-7(5-2)9-8/h2,6-9H,4H2,1,3H3	InChI=1S/C8H13N/c1-4-6(3)8-7(5-2)9-8/h2,6-9H,4H2,1,3H3/t6-,7+,8-/m1/s1
