27
gdb 121904	3.29111	0.61297	0.54318	1.361	93.24	-0.2615	0.081	0.3425	2135.6895	0.249516	-390.69891	-390.686667	-390.685723	-390.737764	43.969	
C	 0.1135587143	 1.5162291021	-0.0791058785	-0.399231
C	 0.0135964256	-0.0115852329	 0.0629208621	 0.044976
C	 0.6956693919	-0.4313041038	 1.3760828948	-0.394253
C	-1.447200499	-0.5339211268	-0.0311389559	 0.051675
C	-2.2200557727	 0.0986386183	-1.200593714	-0.409271
C	-1.492587041	-2.0747350899	-0.134515163	-0.193891
C	-2.8659577444	-2.6958194695	 0.1467442493	-0.174886
C	-2.8452174301	-4.2174173645	 0.0786795009	-0.073539
O	-4.1587171199	-4.6876142712	 0.3462136335	-0.422261
H	 1.1482694906	 1.84568616	 0.0619134832	 0.106532
H	-0.2115815228	 1.8674858832	-1.0611418998	 0.114102
H	-0.4978340666	 2.0223357451	 0.6784036793	 0.10987
H	 0.5749088528	-0.4604897764	-0.7709521748	 0.06575
H	 1.7301957709	-0.0736244947	 1.4041616869	 0.10876
H	 0.1742701788	 0.003259843	 2.2378288325	 0.111112
H	 0.7235346545	-1.5146183505	 1.5172805295	 0.113145
H	-1.9535338367	-0.2443591324	 0.9030669381	 0.064045
H	-2.3482958583	 1.1761272754	-1.0740051841	 0.11502
H	-1.6954749486	-0.0675903289	-2.149838198	 0.108933
H	-3.2190272869	-0.3350899443	-1.2967092552	 0.114391
H	-1.1542788751	-2.3681950909	-1.1390475443	 0.088669
H	-0.773031905	-2.514669168	 0.5644727439	 0.091307
H	-3.2139202134	-2.3994566228	 1.1442233008	 0.103126
H	-3.6185793601	-2.3386558039	-0.5644270574	 0.108471
H	-2.5028350106	-4.5402138433	-0.9186740293	 0.081923
H	-2.1236471573	-4.614120687	 0.8122030966	 0.081629
H	-4.1483480211	-5.6480787052	 0.3034853929	 0.283897
27.2856	51.0528	73.715	121.8739	130.6377	199.1625	212.5344	240.8936	265.6898	273.0662	299.7204	346.032	372.4128	408.0572	455.36	475.791	522.584	750.7255	790.9231	852.6703	884.4961	924.7346	945.76	961.9514	981.0352	1008.5176	1022.4912	1043.0149	1073.6427	1085.975	1150.3111	1172.143	1186.9701	1192.4101	1224.0499	1237.6166	1285.3417	1308.0752	1318.702	1323.8454	1345.4955	1359.451	1377.9269	1389.368	1402.242	1411.0528	1422.1905	1462.0624	1480.1626	1487.503	1490.894	1497.8119	1500.071	1505.9776	1510.712	1522.0825	1528.6559	2954.988	2976.7365	2979.7983	2990.1849	3007.2685	3025.2082	3030.2474	3031.1424	3034.4184	3057.3793	3083.759	3086.354	3093.4285	3101.0556	3111.8332	3114.0764	3121.6401	3830.4014
CC(C)C(C)CCCO	CC(C)[C@@H](C)CCCO	
InChI=1S/C8H18O/c1-7(2)8(3)5-4-6-9/h7-9H,4-6H2,1-3H3	InChI=1S/C8H18O/c1-7(2)8(3)5-4-6-9/h7-9H,4-6H2,1-3H3/t8-/m0/s1
