21
gdb 57346	1.63608	1.57796	1.02366	2.8206	79.93	-0.2504	-0.0566	0.1938	1270.8175	0.177452	-424.246754	-424.235849	-424.234905	-424.283652	38.89	
C	-0.0563055852	 1.525192912	-0.0881584883	-0.408213
C	 0.0191972963	-0.0090551956	 0.0084915399	 0.218052
C	 0.7747576598	-0.4067805768	 1.2922406934	-0.421352
C	-1.4099227096	-0.5787891878	 0.0531273599	-0.409939
C	 0.7414036695	-0.5547881269	-1.2952335668	-0.155276
C	 2.1732396442	-0.0568510595	-1.3803047765	 0.143034
O	 2.5170371782	 0.9088484009	-2.011969032	-0.249518
C	 0.7188636299	-2.0712220642	-1.3554861188	 0.140619
O	-0.0311102619	-2.7087789962	-2.0483634207	-0.247961
H	 0.9333840043	 1.9845047764	-0.150282024	 0.133576
H	-0.6239701713	 1.837776702	-0.9701985419	 0.12233
H	-0.5613837809	 1.9262625617	 0.7969197344	 0.114689
H	 0.2312535559	-0.0338817143	 2.1662802109	 0.125034
H	 0.8628646445	-1.4920206733	 1.4037976949	 0.118239
H	 1.7811797059	 0.0220153437	 1.3287523023	 0.12143
H	-1.9612863875	-0.3396428814	-0.8615299324	 0.126078
H	-1.4194105478	-1.6659951179	 0.1703502209	 0.127206
H	-1.9534745558	-0.1454779728	 0.899181048	 0.115407
H	 0.1919521194	-0.1726428856	-2.1601780007	 0.117071
H	 2.9167353585	-0.6484627047	-0.7991592715	 0.085373
H	 1.4582318634	-2.5837940996	-0.6982204812	 0.084123
22.5552	59.511	96.4302	205.1175	215.2574	240.7378	261.8477	278.4234	288.2174	321.5026	343.7811	392.6591	414.184	427.1233	514.5945	576.4851	719.4366	857.4978	927.3454	935.681	948.0004	967.3771	1001.1421	1016.4548	1077.8614	1088.3929	1121.984	1202.102	1228.8261	1235.4473	1268.1091	1306.9855	1407.6222	1408.9394	1428.5104	1439.2478	1444.0452	1480.3705	1482.1364	1483.8864	1505.3162	1508.8021	1514.4854	1808.2601	1841.8666	2854.0955	2875.8451	3033.9973	3034.7315	3041.0007	3082.7042	3101.6695	3102.0997	3105.8899	3109.0042	3114.1373	3122.6356
CC(C)(C)C(C=O)C=O	CC(C)(C)C(C=O)C=O	
InChI=1S/C7H12O2/c1-7(2,3)6(4-8)5-9/h4-6H,1-3H3	InChI=1S/C7H12O2/c1-7(2,3)6(4-8)5-9/h4-6H,1-3H3
