15
gdb 23388	3.18178	1.43005	1.3483	1.833	69.1	-0.2478	-0.0088	0.2391	980.561	0.114154	-453.878574	-453.87156	-453.870616	-453.910031	27.34	
O	-0.1387345034	 1.3241278276	-0.0068154413	-0.3924
N	 0.0148560721	-0.0747066411	-0.0117838933	-0.281338
C	-1.1008221315	-0.6598837849	 0.0774935871	 0.465692
C	-2.5782986452	-0.2940580778	 0.0314116828	 0.015048
C	-2.735001616	-1.6046497866	-0.7955933899	-0.259597
C	-1.4950667444	-2.1194143542	 0.0146043425	-0.088133
N	-1.9659623349	-2.5172891131	 1.3609655915	-0.258151
C	-2.7522205769	-1.6747461042	 1.8902929348	 0.123457
O	-3.1518447094	-0.4972567438	 1.3462595262	-0.236879
H	 0.7723963402	 1.6273748284	-0.0858872589	 0.310479
H	-2.9223523583	 0.6717297006	-0.3274161435	 0.116855
H	-3.6661252196	-2.1613588771	-0.6722768015	 0.121283
H	-2.508433636	-1.4358237568	-1.8493723218	 0.127128
H	-0.8212906466	-2.8654011175	-0.4003885771	 0.097183
H	-3.1974157701	-1.8306092597	 2.8692894423	 0.139373
108.8103	183.8525	273.0238	324.8963	405.0312	425.6956	469.536	527.6294	591.39	663.6192	784.7994	791.3453	834.268	860.9679	905.6089	936.2971	956.5455	973.7612	1020.5509	1090.8145	1124.0819	1136.9199	1137.3878	1171.1735	1242.2805	1251.2267	1295.3207	1334.3162	1377.412	1411.6304	1473.1837	1697.9291	1795.3186	3075.2431	3143.1341	3146.0149	3167.4875	3183.3867	3815.9252
ON=C1C2CC1N=CO2	ON=C1[C@H]2C[C@@H]1[N][CH]O2	
InChI=1S/C5H6N2O2/c8-7-5-3-1-4(5)9-2-6-3/h2-4,8H,1H2	InChI=1S/C5H6N2O2/c8-7-5-3-1-4(5)9-2-6-3/h2-4,8H,1H2/t3-,4+/m0/s1
