16
gdb 13824	4.49485	1.45126	1.12	1.2322	68.9	-0.244	-0.0559	0.188	1028.5757	0.12943	-383.762243	-383.754268	-383.753324	-383.795311	27.939	
C	-0.0261583351	 1.4935944057	 0.0101874156	-0.492458
C	 0.0304472994	-0.022170096	-0.0134270582	 0.295101
O	 1.0838365326	-0.6236242995	-0.069106787	-0.305384
C	-1.2692808707	-0.7433186631	 0.0348500533	 0.202975
C	-1.4019248138	-2.071987775	 0.0216209394	-0.169579
C	-2.8477764681	-2.4461821823	 0.0814645671	-0.108378
O	-3.5560514797	-1.2105126987	 0.130995651	-0.267542
C	-2.6432225451	-0.1167452793	 0.1059283985	-0.169959
H	 0.98462493	 1.8999923255	-0.029027022	 0.144313
H	-0.6081398098	 1.8687317932	-0.839952284	 0.14131
H	-0.5301918911	 1.8443702107	 0.9185148739	 0.141276
H	-0.5846255643	-2.7797135993	-0.0254661643	 0.135906
H	-3.1635835466	-3.0296689436	-0.7984317134	 0.116768
H	-3.0838146097	-3.0548889337	 0.969268029	 0.116754
H	-2.7800604807	 0.5008866331	 1.0075052801	 0.109443
H	-2.8598268874	 0.5268385122	-0.7611873092	 0.109452
61.4281	101.4212	155.4864	185.8571	187.0708	367.006	408.0808	460.1823	603.6074	617.642	776.254	851.2747	875.4339	918.023	948.9472	993.4818	1024.2627	1040.5829	1069.9221	1071.129	1122.1977	1176.843	1229.0398	1266.2648	1281.3661	1366.3365	1385.4121	1398.4665	1462.7401	1476.3222	1509.6585	1526.2184	1681.1414	1780.0216	2969.3177	2976.9076	2986.3501	2991.1554	3032.1158	3090.3736	3155.8438	3232.1517
CC(=O)C1=CCOC1	CC(=O)C1=CCOC1	
InChI=1S/C6H8O2/c1-5(7)6-2-3-8-4-6/h2H,3-4H2,1H3	InChI=1S/C6H8O2/c1-5(7)6-2-3-8-4-6/h2H,3-4H2,1H3
