18
gdb 23181	2.28705	1.58639	1.02825	2.0685	75.58	-0.2401	-0.0075	0.2325	1159.5468	0.147491	-439.038212	-439.029948	-439.029004	-439.0713	31.59	
O	-0.1066984701	 1.3063941385	 0.1449212412	-0.390519
N	 0.0288002511	-0.087339526	 0.0695899105	-0.225745
C	-1.1047019193	-0.659600428	-0.0066460771	 0.338771
C	-2.4834209986	-0.0447048225	-0.0399711376	-0.309148
C	-3.3927655016	-1.2013998658	-0.5121437467	-0.228131
C	-2.7063364563	-2.474396932	 0.0210703745	-0.307817
C	-1.2195541862	-2.1562399682	-0.0875382663	 0.391588
C	-0.241442783	-2.9873815548	-0.8115281647	-0.240345
O	-0.2840403888	-2.9696754855	 0.6146091909	-0.277466
H	 0.8098325048	 1.5978728118	 0.1987607146	 0.308543
H	-2.7543789878	 0.2873636005	 0.97088968	 0.129834
H	-2.5167762117	 0.8415047487	-0.6779139382	 0.130405
H	-4.4230346915	-1.099059247	-0.1641348419	 0.106234
H	-3.4185463709	-1.2248614361	-1.6071951264	 0.109694
H	-2.9501673195	-2.6261383727	 1.0796272365	 0.119082
H	-2.9880001184	-3.3823309386	-0.5167686058	 0.107542
H	-0.5714130133	-3.9141449924	-1.2810763673	 0.111251
H	 0.628628571	-2.5066992	-1.2550145761	 0.126226
60.4367	161.7799	188.6179	209.7715	313.873	333.2451	383.9475	454.9059	495.5555	522.5733	573.066	608.0669	741.0308	828.2201	842.0945	876.1409	911.9879	931.9487	946.0846	985.1588	1018.0891	1070.4983	1105.2991	1132.6015	1160.6155	1170.1665	1203.8851	1236.9582	1261.4758	1309.1754	1318.7655	1339.7911	1392.8988	1426.8118	1467.5711	1487.94	1503.4884	1515.8921	1749.933	3030.3168	3039.3477	3048.7771	3077.3261	3100.4059	3103.65	3110.2448	3174.871	3815.6439
ON=C1CCCC11CO1	ON=C1CCC[C@]21CO2	
InChI=1S/C6H9NO2/c8-7-5-2-1-3-6(5)4-9-6/h8H,1-4H2	InChI=1S/C6H9NO2/c8-7-5-2-1-3-6(5)4-9-6/h8H,1-4H2/t6-/m1/s1
