19
gdb 74707	3.12289	1.52173	1.21122	1.6626	82.83	-0.2168	-0.0415	0.1753	1080.4738	0.161135	-385.881724	-385.874206	-385.873261	-385.913338	30.345	
C	 0.0235998786	 1.5046722488	 0.0348782792	-0.482073
C	-0.062114636	-0.0020831809	-0.0151041364	 0.306421
C	-1.2522860285	-0.624749541	 0.0486050104	-0.170822
C	-1.4511986985	-2.1168807541	-0.0320688787	 0.045939
C	-0.6271801686	-2.9519539574	 0.9788691029	-0.269259
C	 0.3749918885	-3.0609873639	-0.1948843319	 0.041342
O	-0.6868544805	-2.7085695708	-1.1237595284	-0.28227
C	 1.462102784	-2.0148133628	-0.1801301449	-0.078443
C	 1.2351637904	-0.6948908058	-0.1215431486	-0.11093
H	 0.6484118453	 1.8366959885	 0.8735266758	 0.124994
H	 0.4868780782	 1.9020389128	-0.876861555	 0.129672
H	-0.9622452898	 1.962950437	 0.1416653303	 0.12094
H	-2.1510179883	-0.0202515629	 0.1426128814	 0.081749
H	-2.5127207962	-2.3631127793	-0.1259669748	 0.073212
H	-0.2952397159	-2.4705067201	 1.8988706989	 0.109463
H	-1.103764148	-3.9095096848	 1.1930245825	 0.110074
H	 0.7792891689	-4.0519774004	-0.4200059761	 0.074108
H	 2.4887002052	-2.3673772517	-0.2343539972	 0.091101
H	 2.1013666912	-0.0365676714	-0.1378810094	 0.084782
132.3109	182.279	245.918	318.9671	335.5114	352.9917	418.7642	476.6272	611.7127	626.0612	682.4487	755.4233	817.5809	822.2808	844.0828	880.879	915.5364	929.6593	964.146	994.9987	1011.1415	1032.2589	1065.2215	1068.1574	1095.6562	1139.9245	1184.5104	1219.2427	1250.1725	1255.1687	1302.8198	1348.0599	1368.4376	1379.1379	1412.7794	1437.2919	1478.9821	1480.6889	1493.2891	1667.1515	1710.6415	3018.9164	3062.5481	3063.7998	3066.9466	3083.699	3118.6608	3139.5159	3146.6716	3153.3314	3167.1066
CC1=CC2CC(O2)C=C1	CC1=C[C@@H]2C[C@@H](O2)C=C1	
InChI=1S/C8H10O/c1-6-2-3-7-5-8(4-6)9-7/h2-4,7-8H,5H2,1H3	InChI=1S/C8H10O/c1-6-2-3-7-5-8(4-6)9-7/h2-4,7-8H,5H2,1H3/t7-,8+/m0/s1
