23
gdb 64467	2.53718	1.33084	1.112	1.194	88.14	-0.2397	0.024	0.2636	1235.8234	0.206124	-388.295473	-388.286235	-388.285291	-388.329027	36.278	
C	-0.5068362272	 1.5696854136	-0.0715199431	-0.400786
C	-0.0676115459	 0.0850150763	-0.0240305767	 0.211318
C	-1.3367238336	-0.7925788868	 0.0538646144	-0.413984
C	 0.6827843668	-0.2851126955	-1.3210065285	-0.209525
C	 2.1025956357	 0.2540011146	-1.4901388366	-0.101854
O	 3.0456215434	-0.5066545626	-0.7577853422	-0.234164
C	 3.223271849	-0.1179467608	 0.5822528183	-0.131999
C	 2.0306134115	-0.1797623931	 1.5007653355	-0.093605
C	 0.721758394	-0.1119432603	 1.255886533	-0.050267
H	 0.3504828861	 2.2413816073	-0.1732302745	 0.115212
H	-1.1819687091	 1.7445163934	-0.9171380886	 0.10844
H	-1.0364437529	 1.8499758678	 0.8448314138	 0.111739
H	-1.9526274274	-0.6661767988	-0.8432152929	 0.108568
H	-1.0769650388	-1.8526002176	 0.1397066207	 0.117743
H	-1.9502942484	-0.5246555006	 0.9207756493	 0.108505
H	 0.7544224164	-1.3761126824	-1.4014285389	 0.104065
H	 0.0740131665	 0.0533756899	-2.1701569163	 0.085913
H	 2.3988461302	 0.1605794106	-2.5408107497	 0.10316
H	 2.1748509481	 1.3209263485	-1.2250071013	 0.086926
H	 4.0017997599	-0.7834542125	 0.9733634756	 0.114013
H	 3.642928685	 0.9064725466	 0.6301554283	 0.094756
H	 2.3266923416	-0.2495384654	 2.5477872959	 0.086092
H	 0.0770105992	-0.1424095324	 2.1351186845	 0.079732
61.1604	158.403	220.5179	250.8107	270.224	272.9271	314.7719	345.941	392.6501	409.664	436.3105	494.1701	569.8869	665.1367	726.4241	791.868	843.9724	871.4947	911.5256	937.1577	965.191	997.5016	1001.7144	1021.423	1032.1657	1050.6811	1068.4889	1161.547	1182.1613	1199.5043	1232.7104	1266.8551	1307.7065	1324.5106	1334.8734	1382.981	1394.0017	1398.4946	1411.6294	1422.5089	1440.8616	1468.3399	1477.9024	1482.674	1489.5078	1496.9386	1502.569	1509.9049	1736.5748	2910.2129	2981.8756	3015.1389	3024.0577	3029.3304	3051.4447	3061.9165	3065.7594	3091.8427	3096.6806	3101.5372	3103.6918	3106.9846	3130.4236
CC1(C)CCOCC=C1	CC1(C)CCOCC=C1	
InChI=1S/C8H14O/c1-8(2)4-3-6-9-7-5-8/h3-4H,5-7H2,1-2H3	InChI=1S/C8H14O/c1-8(2)4-3-6-9-7-5-8/h3-4H,5-7H2,1-2H3
