16
gdb 126872	4.04991	1.06032	0.93305	3.9087	79.48	-0.2338	-0.0688	0.165	1272.612	0.124913	-430.212093	-430.203913	-430.202969	-430.246026	29.632	
C	-0.2213095043	 1.520254783	 0.1799224039	-0.361159
C	 0.0586467863	 0.0177260731	 0.0660398755	-0.141921
N	 0.7110461371	-0.4588732028	 1.2749557704	-0.266622
C	 0.1625754618	-1.3189578338	 2.0241159603	 0.399364
N	 0.8184672385	-1.7841315644	 3.1749664873	-0.259996
C	 0.0462123787	-2.2367786528	 4.0867870344	 0.097273
N	-1.3175747139	-2.3037943315	 3.927651526	-0.242817
N	-1.8306748255	-2.3676300991	 2.6361208223	-0.043069
N	-1.1180345051	-1.9196123189	 1.7175833756	-0.191612
H	 0.6951244749	 2.0656550013	 0.4214539426	 0.128252
H	-0.6218723346	 1.9049972633	-0.763040964	 0.111134
H	-0.9530746785	 1.7207526905	 0.9689726311	 0.114636
H	-0.8634107674	-0.5229717998	-0.1745027382	 0.118165
H	 0.7661994403	-0.1466535649	-0.7567649263	 0.109796
H	 0.4429529122	-2.6209921657	 5.0256918786	 0.147318
H	-1.8932909207	-2.8084434776	 4.5852738405	 0.281259
33.0271	90.4801	156.3422	203.0463	283.7958	397.3314	424.0844	451.3561	547.1326	603.1227	617.1397	663.4884	750.9336	800.8679	823.8968	881.5636	926.9407	946.641	1044.1197	1053.8362	1093.3668	1124.6075	1160.8589	1210.6937	1300.3899	1372.4428	1395.17	1403.0502	1417.4757	1488.5981	1494.8971	1512.038	1605.8219	1697.2923	1735.5889	3019.365	3038.8608	3063.7794	3109.8255	3121.8386	3142.3432	3623.1759
CCN=C1N=CNN=N1	CCN=C1[N][CH]NN=N1	
InChI=1S/C4H7N5/c1-2-5-4-6-3-7-9-8-4/h3H,2H2,1H3,(H,5,6,7,8)	InChI=1S/C4H7N5/c1-2-5-4-6-3-7-9-8-4/h3H,2H2,1H3,(H,5,6,7,8)
