13
gdb 19137	3.37439	1.82223	1.3569	2.8863	58.36	-0.2921	-0.0065	0.2856	873.3057	0.094305	-398.552453	-398.545225	-398.54428	-398.584383	25.66	
N	 1.0969602444	-1.0231867121	-0.4444208727	-0.319598
C	 0.6468268528	 0.0259495601	-0.2653811663	 0.250841
C	 0.0455597447	 1.3363960717	-0.0826152441	 0.256342
C	-0.1624329526	 1.8557132571	 1.2836287843	-0.208647
O	 0.9092160698	 2.330930314	 0.4709244529	-0.253206
C	-0.8325867581	 1.7789818975	-1.222505925	-0.028706
C	-2.263977533	 1.4520678636	-1.2417430446	-0.16449
O	-1.8024702696	 2.7671491493	-0.9162145883	-0.218539
H	-0.9787798058	 2.557234667	 1.4323778416	 0.153395
H	 0.1291229621	 1.2421098016	 2.1330071484	 0.14021
H	-0.3076871636	 1.9213172624	-2.1666077385	 0.128083
H	-2.777025755	 1.3586622348	-2.1961053789	 0.136256
H	-2.6967254361	 0.8925424531	-0.4146402688	 0.128059
72.5594	146.1571	207.6959	243.1873	264.4222	432.024	483.2843	550.919	604.4627	666.7569	858.4314	870.3604	894.0517	922.9204	960.6602	1054.5018	1098.1049	1136.8465	1157.4127	1166.2345	1178.3302	1220.5621	1283.0432	1374.3659	1425.5411	1505.446	1526.4763	2359.7996	3098.3045	3105.9716	3123.8985	3191.6794	3210.7272
N#CC1(CO1)C1CO1	N#C[C@]1(CO1)[C@H]1CO1	
InChI=1S/C5H5NO2/c6-2-5(3-8-5)4-1-7-4/h4H,1,3H2	InChI=1S/C5H5NO2/c6-2-5(3-8-5)4-1-7-4/h4H,1,3H2/t4-,5+/m1/s1
