21
gdb 123104	3.77443	0.62509	0.55299	3.9564	78.09	-0.24	0.0621	0.3022	2008.4311	0.181529	-457.581856	-457.570985	-457.570041	-457.619742	37.926	
C	-0.0133343486	 1.4626757176	-0.1463556976	-0.385103
C	-0.0229119204	-0.0546644971	-0.0741455482	-0.026808
O	-1.363039283	-0.4950132726	 0.0288466674	-0.254391
C	-1.4939172699	-1.9020537251	 0.1003579107	-0.06952
C	-2.9766975347	-2.2267766062	 0.149824749	-0.147744
N	-3.6386627291	-1.7135752287	-1.0344062631	-0.339395
C	-4.8044982633	-2.283973928	-1.4875799934	 0.454037
N	-5.4338052234	-1.5543057191	-2.4937095959	-0.564436
O	-5.2625175564	-3.3225120115	-1.0466863684	-0.395989
H	 1.0129446146	 1.834095304	-0.2208520621	 0.118165
H	-0.5712561966	 1.8106833587	-1.0206267623	 0.122054
H	-0.4743640883	 1.8922416426	 0.7474816244	 0.12932
H	 0.4510365173	-0.4900115455	-0.969991498	 0.088012
H	 0.5560612219	-0.4042177893	 0.796926274	 0.089586
H	-1.0301901415	-2.3746139757	-0.7808174127	 0.092844
H	-0.9917408059	-2.2943116525	 0.9995882967	 0.090863
H	-3.1350647707	-3.3065061161	 0.1796253889	 0.140891
H	-3.4072156485	-1.803584581	 1.068951967	 0.110217
H	-3.4587910709	-0.7424045465	-1.2365464797	 0.245165
H	-4.8450250667	-1.0186039539	-3.1144115432	 0.244408
H	-6.1367347457	-2.098026334	-2.9714932236	 0.257824
29.1131	50.2486	69.948	118.8263	142.7454	187.7964	239.4772	249.0782	308.001	390.2227	427.4367	462.7404	508.5867	543.0411	571.684	663.6485	777.6054	819.0707	830.0406	897.4502	947.4512	1023.2277	1063.713	1093.3196	1113.3542	1149.0172	1159.1144	1182.7847	1192.0223	1246.97	1271.8898	1296.5848	1324.7367	1379.8669	1401.2675	1409.7498	1450.0717	1483.915	1497.7458	1499.2852	1507.1253	1531.0638	1537.0966	1626.8443	1801.023	2955.5319	2969.5198	2984.1617	2993.2613	3013.3404	3044.9517	3118.72	3121.9082	3122.2402	3570.0046	3628.4378	3683.9928
CCOCCNC(N)=O	CCOCCNC(=O)N	
InChI=1S/C5H12N2O2/c1-2-9-4-3-7-5(6)8/h2-4H2,1H3,(H3,6,7,8)	InChI=1S/C5H12N2O2/c1-2-9-4-3-7-5(6)8/h2-4H2,1H3,(H3,6,7,8)
