17
gdb 12128	4.15062	1.67323	1.65637	3.4228	68.4	-0.2136	0.0658	0.2794	882.9623	0.140273	-363.770984	-363.763418	-363.762473	-363.802225	29.457	
C	-0.1086023225	 1.5470759328	 0.0173734238	-0.510942
C	 0.0735796241	 0.0633127341	 0.0224017293	 0.315488
N	-0.8083410212	-0.8797751253	 0.7471949562	-0.349287
C	 0.6543093364	-0.8665689402	 1.0182399249	-0.218616
C	 1.3765168094	-1.6614039946	-0.137803613	 0.445263
C	 2.6839540188	-2.3727770305	-0.0398099231	-0.506606
O	 0.3802215857	-2.1302736847	-1.0489732331	-0.256307
C	 0.7793217783	-0.7595587301	-1.1252368407	-0.106774
H	 0.7959641749	 2.0540389444	-0.3375558777	 0.125759
H	-0.9351473735	 1.8441860218	-0.6391380719	 0.132363
H	-0.3262214077	 1.9208082072	 1.0237901607	 0.119888
H	-1.2402547737	-0.3434125519	 1.5019880464	 0.223879
H	 1.0548195773	-0.6713383122	 2.0053155963	 0.092035
H	 2.5806019597	-3.297449342	 0.5395312916	 0.134181
H	 3.0524213227	-2.6316473046	-1.0359444594	 0.135575
H	 3.4307824943	-1.7458818898	 0.459131152	 0.123314
H	 1.1374676669	-0.3814154343	-2.0767453824	 0.100786
154.7954	199.0102	208.1558	257.7969	298.7478	324.6027	435.033	481.4534	563.5816	580.6223	698.8891	773.3967	796.3438	837.9188	858.6095	897.0365	922.9142	982.1454	988.5541	1015.8402	1063.0197	1087.4291	1106.7479	1121.9603	1173.8155	1211.9591	1271.1214	1323.7737	1400.858	1409.9979	1439.9049	1467.1177	1482.4409	1485.7023	1495.9854	1499.2355	3020.685	3031.4531	3081.4878	3092.3913	3093.4857	3120.2151	3174.4244	3191.8308	3450.1673
CC12NC1C1(C)OC21	C[C@]12N[C@H]1[C@@]1(C)O[C@@H]21	
InChI=1S/C6H9NO/c1-5-3(7-5)6(2)4(5)8-6/h3-4,7H,1-2H3	InChI=1S/C6H9NO/c1-5-3(7-5)6(2)4(5)8-6/h3-4,7H,1-2H3/t3-,4+,5+,6-/m1/s1
