17
gdb 75652	2.61266	1.77061	1.30482	3.4286	67.95	-0.2273	-0.0317	0.1956	988.0434	0.135181	-458.953576	-458.945596	-458.944652	-458.985809	30.989	
C	-0.0004354207	 1.4970791557	 0.0804240414	-0.496449
C	-0.0350698231	 0.0019593491	-0.0280789592	 0.362873
C	 0.6566916206	-0.8153864946	-1.1441984188	-0.296952
C	 0.7139702703	-1.8382392166	 0.0105770232	-0.035678
O	 0.8120875915	-0.7218700472	 0.9602017265	-0.347175
C	-0.7699531061	-2.1824633173	 0.1849437341	 0.39637
O	-1.3157887464	-3.2402505784	 0.3145350812	-0.313709
C	-1.3712901476	-0.7381772402	 0.2205199744	 0.01732
O	-1.961690031	-0.4114145339	 1.4556170849	-0.432851
H	 1.0292155118	 1.863752384	 0.0718381745	 0.131011
H	-0.5386821839	 1.9435706145	-0.7621385628	 0.130276
H	-0.4895431962	 1.8200768932	 1.0034799993	 0.141872
H	 0.0934735998	-1.064266214	-2.0481247318	 0.114587
H	 1.6450765603	-0.4207138312	-1.3856488994	 0.124852
H	 1.4655748486	-2.6158833644	 0.1250191864	 0.106153
H	-2.1283296027	-0.5833196325	-0.5531387057	 0.107268
H	-1.2811904852	-0.5536672861	 2.1270438017	 0.290231
95.0831	192.3151	227.8602	240.9017	285.0884	316.0969	444.5996	458.3667	493.1492	529.4547	604.911	678.8444	716.2966	804.5046	836.0956	860.9765	885.7096	903.5039	967.0048	997.8009	1016.1139	1083.7407	1113.6294	1137.7368	1188.557	1211.9205	1240.5741	1253.1029	1260.4802	1277.2173	1336.4006	1414.0463	1428.2664	1479.0592	1482.8818	1490.8267	1888.5702	3044.3319	3061.8102	3085.2381	3115.7852	3128.7847	3134.7718	3157.4745	3767.8752
CC12CC(O1)C(=O)C2O	C[C@@]12C[C@@H](O1)C(=O)[C@H]2O	
InChI=1S/C6H8O3/c1-6-2-3(9-6)4(7)5(6)8/h3,5,8H,2H2,1H3	InChI=1S/C6H8O3/c1-6-2-3(9-6)4(7)5(6)8/h3,5,8H,2H2,1H3/t3-,5-,6+/m1/s1
