22
gdb 58696	1.92257	1.46334	1.20804	4.0201	85.69	-0.2994	0.0339	0.3332	1214.6267	0.193565	-367.230705	-367.220827	-367.219882	-367.26524	36.921	
C	-0.3008526684	 1.4061984837	 0.0752107166	-0.408486
C	 0.0629110529	-0.0851509039	 0.0632307116	-0.028328
C	 0.7343088391	-0.4639998568	-1.2642816494	-0.408486
C	 0.9336181484	-0.4792037917	 1.2862907333	 0.181135
C	 0.169593638	-0.4137484319	 2.6599103972	-0.266278
C	 0.016045216	-1.9557293016	 2.6387130356	-0.214393
C	 1.0653559227	-2.0320978171	 1.5007998591	-0.266278
C	 2.2051356719	 0.237793816	 1.2678498158	 0.25603
N	 3.2163214572	 0.8002939639	 1.26393593	-0.367753
H	 0.5962408949	 2.0261106081	-0.0250831377	 0.140978
H	-0.9656358127	 1.6415378021	-0.7614352385	 0.117147
H	-0.8107749658	 1.7006816883	 0.9970384084	 0.116761
H	-0.8633995405	-0.6678336483	 0.1609178869	 0.077676
H	 1.6627589971	 0.0992611609	-1.4051507166	 0.140978
H	 0.9770349192	-1.5293062027	-1.316376196	 0.116761
H	 0.0720010228	-0.2331326028	-2.1041306489	 0.117147
H	 0.8120998533	-0.0612017553	 3.4686409323	 0.124647
H	-0.7463489864	 0.1800100926	 2.6590679187	 0.112246
H	 0.2643684211	-2.4801834628	 3.562860117	 0.110907
H	-0.9781159499	-2.2777510487	 2.3200304223	 0.110699
H	 0.8188027534	-2.6477070283	 0.6337718276	 0.112246
H	 2.0584303857	-2.3129132938	 1.8558973845	 0.124647
83.2459	92.4975	145.6617	183.9597	215.9764	223.6668	239.4107	298.1379	340.4194	415.8977	443.2914	538.2094	572.5405	632.7631	696.9427	789.1877	821.2295	862.2735	927.2199	934.563	958.3407	960.7966	964.3768	1012.6741	1056.1359	1066.2785	1120.3313	1152.3996	1202.3594	1209.3399	1219.7454	1261.6982	1274.0481	1279.0046	1302.978	1343.7323	1360.8795	1405.0335	1426.0015	1474.4967	1483.7563	1487.8209	1493.2764	1503.3497	1507.174	1511.944	2341.751	3010.4612	3036.2999	3040.3605	3070.1173	3073.6806	3078.818	3105.4728	3109.1292	3110.255	3111.0738	3113.8045	3130.1435	3138.667	83.2464	92.4977	145.662	183.96	215.9767	223.6669	239.4109	298.138	340.4195	415.8978	443.2914	538.2094	572.5405	632.7631	696.9427	789.1878	821.2295	862.2735	927.2199	934.5631	958.3407	960.7966	964.3768	1012.6741	1056.136	1066.2784	1120.3312	1152.3996	1202.3593	1209.3398	1219.7454	1261.698	1274.0482	1279.0048	1302.9777	1343.7325	1360.8798	1405.0334	1426.0015	1474.4965	1483.7562	1487.8208	1493.2763	1503.3497	1507.174	1511.9439	2341.7509	3010.4612	3036.2999	3040.3605	3070.1173	3073.6806	3078.818	3105.4728	3109.1292	3110.2549	3111.0738	3113.8045	3130.1435	3138.6671
CC(C)C1(CCC1)C#N	CC(C)C1(CCC1)C#N	
InChI=1S/C8H13N/c1-7(2)8(6-9)4-3-5-8/h7H,3-5H2,1-2H3	InChI=1S/C8H13N/c1-7(2)8(6-9)4-3-5-8/h7H,3-5H2,1-2H3
