16
gdb 63121	2.24637	1.72726	1.23119	4.1564	70.97	-0.2505	-0.0076	0.2429	1035.888	0.122585	-437.847355	-437.838866	-437.837922	-437.880114	31.852	
C	-0.0021856438	 1.5737156702	 0.0121019081	-0.466172
C	 0.0258536559	 0.0677851803	-0.0716435929	 0.309826
O	-1.1162732169	-0.589452893	 0.3894326511	-0.449445
C	 0.6228368724	-0.7316193446	-1.2019413477	-0.212233
C	 1.9207729113	-0.1092650818	-1.6939470973	-0.114915
O	 2.4539459425	-0.0358434561	-0.3369245309	-0.315519
C	 1.3108491209	-0.7237590206	 0.1666185645	 0.27699
C	 1.4522828177	-1.7109274425	 1.1847489761	 0.229779
N	 1.5411505428	-2.4876162259	 2.0384030253	-0.352425
H	 0.9626001815	 2.0081788926	-0.2552253785	 0.147231
H	-0.7766322574	 1.97752478	-0.6468447759	 0.135201
H	-0.2321645498	 1.8840009472	 1.0375190233	 0.124014
H	-1.181394295	-0.4609173218	 1.3435122599	 0.298858
H	 0.0625912946	-1.527694453	-1.6718187787	 0.135232
H	 2.5262742371	-0.7896656204	-2.3003942581	 0.132911
H	 1.8677136762	 0.8743649095	-2.1707152286	 0.120668
116.4305	142.6303	189.5297	241.931	254.1338	300.2345	352.4838	391.0475	428.5387	480.2607	527.9034	585.2893	626.4117	704.3567	782.0952	926.0953	944.9586	967.2958	978.7841	995.4891	1052.4326	1088.6267	1093.4327	1157.4078	1182.7334	1212.79	1292.2594	1326.6146	1336.1818	1409.1287	1435.6755	1489.5625	1494.3212	1519.0163	2343.5749	3039.8481	3045.8617	3098.0687	3103.2381	3142.0284	3222.7508	3787.0839
CC1(O)C2COC12C#N	C[C@@]1(O)[C@H]2CO[C@@]12C#N	
InChI=1S/C6H7NO2/c1-5(8)4-2-9-6(4,5)3-7/h4,8H,2H2,1H3	InChI=1S/C6H7NO2/c1-5(8)4-2-9-6(4,5)3-7/h4,8H,2H2,1H3/t4-,5-,6-/m1/s1
