21
gdb 84291	2.20545	1.64824	1.22628	3.4126	84.22	-0.2329	-0.043	0.1898	1127.084	0.181651	-387.138872	-387.129512	-387.128568	-387.172895	35.818	
C	-0.2654828001	 1.543932233	-0.0792506093	-0.406668
C	 0.0366176182	 0.0385296812	-0.0279921981	-0.078698
C	 0.9204739983	-0.4194398747	-1.1648857628	-0.046514
C	 1.9289775666	-1.2097134421	-0.7823390882	-0.199152
C	 1.8890742077	-1.400004439	 0.6818092871	 0.375196
O	 2.6122219372	-2.1038016077	 1.3509542142	-0.355254
C	 0.7476068579	-0.5180035493	 1.2493198875	 0.156872
C	 1.4115192918	 0.5605687638	 2.1263063945	-0.422032
C	-0.1847911093	-1.3829904053	 2.1103703556	-0.427333
H	 0.6445932943	 2.1477637645	-0.028578865	 0.124738
H	-0.7781958282	 1.7931797163	-1.014390072	 0.114595
H	-0.9186445611	 1.8445499588	 0.7452300273	 0.122802
H	-0.9291400236	-0.4772331997	-0.1354419739	 0.09246
H	 0.7129344625	-0.1237885725	-2.1894672659	 0.1112
H	 2.6741605967	-1.6770028239	-1.4134797264	 0.115479
H	 2.0969601535	 1.1927952993	 1.5536127109	 0.116391
H	 0.6643014778	 1.2062290837	 2.5975098773	 0.111656
H	 1.9919438667	 0.07094516	 2.9131683246	 0.135374
H	 0.3876158968	-1.8766309862	 2.9005807927	 0.136253
H	-0.9668967367	-0.7726580803	 2.574848309	 0.10859
H	-0.6722599072	-2.1611057501	 1.513275271	 0.114047
33.7579	193.4478	222.3821	240.4944	252.8826	272.9558	287.5436	299.8817	328.218	360.1049	490.4222	523.7691	598.746	676.2385	722.7745	745.0969	803.7893	857.4147	906.697	956.8191	958.7921	998.6983	1022.9551	1039.0903	1068.3504	1097.4244	1122.423	1146.0504	1191.049	1233.3063	1246.682	1318.2852	1337.5141	1366.5823	1393.111	1407.8585	1421.39	1480.0167	1488.0691	1495.0976	1500.0744	1507.3291	1516.2332	1650.9129	1804.3847	2991.01	3029.1542	3035.6776	3040.5135	3094.6457	3101.9541	3106.3727	3114.6598	3119.0004	3119.6143	3174.2401	3223.4193
CC1C=CC(=O)C1(C)C	C[C@H]1C=CC(=O)C1(C)C	
InChI=1S/C8H12O/c1-6-4-5-7(9)8(6,2)3/h4-6H,1-3H3	InChI=1S/C8H12O/c1-6-4-5-7(9)8(6,2)3/h4-6H,1-3H3/t6-/m0/s1
