21
gdb 113710	2.40663	1.02443	0.79531	0.8823	84.92	-0.2559	0.0529	0.3087	1489.7057	0.179866	-387.036925	-387.026457	-387.025513	-387.072818	38.291	
C	-0.0146803334	 1.4592650413	-0.2509655545	-0.39088
C	 0.0810899875	-0.0328376223	 0.1301895122	-0.183902
C	 0.79957867	-0.2062327963	 1.3946081058	 0.343793
C	 1.3763907477	-0.3366297661	 2.4417383104	-0.482812
C	-1.3080894809	-0.6654361971	 0.193742756	 0.007493
C	-1.9595289935	-1.2214547867	-1.0480925027	-0.30665
C	-1.5561168418	-2.149715692	 0.0725107402	 0.011156
C	-0.4478770675	-3.1523679983	-0.1148842229	-0.104984
O	-1.0079942472	-4.3049533244	-0.7339379256	-0.421307
H	 0.9790102723	 1.9087887564	-0.3240755958	 0.1228
H	-0.5226690607	 1.5675468185	-1.2136293821	 0.119439
H	-0.5823417234	 2.0125241761	 0.5032460144	 0.12534
H	 0.6573788629	-0.5380970702	-0.6554117085	 0.101722
H	 1.8910488119	-0.4579484737	 3.3624468845	 0.193358
H	-1.9645585041	-0.1500942915	 0.8904311511	 0.089999
H	-3.0128077567	-1.0322499763	-1.2218695331	 0.111992
H	-1.3599223735	-1.255280773	-1.9532947906	 0.110964
H	-2.3661095444	-2.5364927261	 0.6847363231	 0.09042
H	 0.3565730706	-2.7276553343	-0.7349950492	 0.080435
H	-0.0059014654	-3.4030731015	 0.8616627112	 0.097463
H	-0.3301613105	-4.9869365625	-0.7573465939	 0.284161
47.8769	81.4979	112.1541	153.2049	203.5254	233.0909	251.5324	266.3079	303.7503	339.7065	424.9984	500.0528	525.0254	609.98	626.6125	629.7928	774.4342	812.2637	854.3166	890.9901	915.1369	975.9503	1014.9389	1039.9095	1063.1503	1072.2295	1079.8234	1108.8896	1141.3814	1173.0771	1192.9893	1237.4932	1257.3812	1283.9038	1286.5131	1325.5435	1381.5778	1403.6629	1421.894	1471.7634	1492.1284	1495.4117	1498.6018	1518.5577	2231.6606	2972.9144	3000.611	3022.6371	3041.8389	3116.5377	3122.1843	3125.3644	3134.3222	3148.7128	3211.2209	3504.9285	3826.0294
CC(C#C)C1CC1CO	C[C@@H](C#C)[C@H]1C[C@H]1CO	
InChI=1S/C8H12O/c1-3-6(2)8-4-7(8)5-9/h1,6-9H,4-5H2,2H3	InChI=1S/C8H12O/c1-3-6(2)8-4-7(8)5-9/h1,6-9H,4-5H2,2H3/t6-,7-,8+/m0/s1
