17
gdb 11351	4.01555	1.44798	1.13768	3.1278	65.69	-0.2549	0.0199	0.2748	1054.0745	0.142292	-401.019284	-401.011021	-401.010077	-401.052585	29.251	
C	 0.1118249753	 1.5210038788	 0.1039901937	-0.388656
C	 0.0281847496	-0.0039201679	 0.0767329723	 0.025974
C	 0.7568276791	-0.6559711963	-1.1346057244	-0.123506
O	 1.7048451773	-1.5729003348	-0.535421369	-0.252803
C	 1.5663081549	-1.4154588363	 0.8004129153	 0.386717
C	 2.4678315286	-2.2307894335	 1.6775456132	-0.12668
O	 2.2240455632	-1.9803854353	 3.0359976627	-0.42161
N	 0.6972213768	-0.6046175968	 1.2460194434	-0.342583
H	 1.1559324377	 1.8505501048	 0.0943232319	 0.122026
H	-0.3950285827	 1.9532970708	-0.7652809625	 0.115594
H	-0.3605390872	 1.9123168758	 1.0086176871	 0.133217
H	-1.0276130766	-0.299949311	 0.0967117701	 0.093106
H	 0.0978279579	-1.2287850752	-1.7913540622	 0.123333
H	 1.3174121481	 0.0685593156	-1.7340097603	 0.118583
H	 2.3163657448	-3.2948176369	 1.4377398131	 0.120641
H	 3.5115216541	-1.9990667622	 1.4138457938	 0.120378
H	 1.5105201492	-1.3260955896	 3.0615792918	 0.296268
62.8677	86.3219	162.2649	194.427	238.7901	309.4269	343.5847	427.2015	457.7175	610.3074	699.9394	705.5874	854.8558	930.8679	939.0764	976.8475	1005.105	1041.5706	1094.2488	1115.0967	1123.7825	1160.5463	1225.1028	1243.1693	1244.9492	1313.0246	1337.0945	1372.3884	1382.8058	1408.2159	1483.3635	1488.0385	1496.0763	1506.0211	1520.3842	1737.8687	2988.1789	3004.6738	3026.6301	3035.7068	3050.7058	3103.8042	3107.1304	3123.6682	3719.498
CC1COC(CO)=N1	C[C@H]1COC(=N1)CO	
InChI=1S/C5H9NO2/c1-4-3-8-5(2-7)6-4/h4,7H,2-3H2,1H3	InChI=1S/C5H9NO2/c1-4-3-8-5(2-7)6-4/h4,7H,2-3H2,1H3/t4-/m0/s1
