19
gdb 110235	2.11183	1.52388	1.04878	4.3562	76.16	-0.2682	0.0048	0.273	1215.382	0.157707	-423.039913	-423.030883	-423.029939	-423.073902	33.473	
C	 0.3418475156	 1.3554223494	 0.3285144553	-0.375612
C	-0.2022081656	-0.0051908299	-0.1200673095	-0.223026
C	 0.5504786435	-0.5753022368	-1.3048220544	-0.060438
C	 1.9742266407	-1.1797229754	-1.2291832004	-0.346133
C	 2.0443964346	-2.0738157628	-0.0256979618	 0.459153
O	 2.7759719587	-2.2825840857	 0.8867593957	-0.329176
O	 0.8654501025	-2.7488428026	-0.3267623771	-0.293182
C	 0.7612016774	-2.0182837177	-1.5929083933	 0.421385
C	 0.3984349588	-2.8185886902	-2.7973366857	-0.489449
H	 1.385582357	 1.2738623443	 0.647942782	 0.130839
H	 0.2967444446	 2.0911335577	-0.4821432938	 0.112669
H	-0.2373743475	 1.7492463793	 1.1686963954	 0.119277
H	-0.1704438029	-0.7177333214	 0.709087346	 0.130036
H	-1.2586376385	 0.0915663579	-0.4012690271	 0.103132
H	 0.4551900231	 0.0142455596	-2.2175146564	 0.101445
H	 2.8079326679	-0.8168987848	-1.812996362	 0.122436
H	-0.6277350288	-3.1924496208	-2.7161966994	 0.142652
H	 0.4634623845	-2.199406646	-3.6963993974	 0.132149
H	 1.0675343444	-3.6764635842	-2.910501276	 0.141842
61.2389	127.6417	157.0421	198.7907	208.4643	256.8374	304.9352	311.2627	472.9091	489.3171	552.7986	651.7222	691.1777	743.8768	787.4692	827.0996	890.3585	904.9682	924.2864	963.9935	988.4001	1013.0854	1060.1558	1089.1891	1116.0377	1134.9945	1147.5788	1214.102	1253.1724	1286.3516	1327.0429	1363.3317	1412.2907	1415.4204	1475.2565	1485.7147	1490.6017	1499.0574	1501.5303	1511.0074	1938.4927	3030.9892	3034.6985	3039.977	3084.5871	3104.5443	3106.9197	3112.5723	3115.6755	3122.9567	3223.6067
CCC1C2C(=O)OC12C	CC[C@H]1[C@H]2C(=O)O[C@@]12C	
InChI=1S/C7H10O2/c1-3-4-5-6(8)9-7(4,5)2/h4-5H,3H2,1-2H3	InChI=1S/C7H10O2/c1-3-4-5-6(8)9-7(4,5)2/h4-5H,3H2,1-2H3/t4-,5-,7-/m0/s1
