19
gdb 84430	2.37424	1.68964	1.27605	2.1993	76.27	-0.2367	0.0043	0.241	1050.9245	0.158222	-423.018094	-423.009298	-423.008354	-423.050823	34.565	
C	-0.0027638718	 1.5111555207	 0.0188263444	-0.46779
C	-0.0415438581	 0.0036303258	 0.0645516313	 0.23322
C	 1.230985291	-0.7745222545	-0.2087565163	-0.388621
C	 0.6169994998	-0.7900691962	 1.1796318682	 0.328196
O	 1.2511978608	-0.1510601394	 2.2450308112	-0.471943
C	-0.2874732185	-1.9494202544	 1.4420011881	-0.135399
C	-1.3317677617	-1.9558318782	 0.6100229331	-0.144051
C	-1.354699227	-0.7311007575	-0.2820178429	 0.03784
O	-2.5263663451	 0.0538638094	-0.087465512	-0.426365
H	 0.8861576077	 1.8824282969	 0.535449854	 0.122042
H	 0.0160338428	 1.8776867206	-1.0132714562	 0.116482
H	-0.8839380014	 1.940006625	 0.5024135557	 0.11796
H	 1.1959575057	-1.6862143493	-0.7977253143	 0.109248
H	 2.1274380602	-0.1741522801	-0.3409136629	 0.10843
H	 2.1182624424	-0.5512424291	 2.3662578488	 0.286028
H	-0.0617298126	-2.6989554231	 2.1929550293	 0.099509
H	-2.1007387592	-2.717028002	 0.5495733519	 0.102126
H	-1.3760568442	-0.9991268699	-1.3453608113	 0.094233
H	-2.6510832608	 0.1436410851	 0.8642629499	 0.278857
115.5613	160.7096	211.1921	253.2962	256.1804	283.9849	356.051	371.0778	426.6924	450.273	494.9948	550.8045	624.2264	694.5801	749.4645	754.6275	830.3048	869.1093	920.9875	956.4748	960.1852	974.9477	999.9334	1055.1462	1070.7678	1092.8428	1115.9266	1161.014	1223.9947	1238.363	1271.4235	1299.487	1313.1149	1365.8515	1396.9105	1413.2627	1422.9556	1477.687	1486.8311	1501.531	1659.741	3038.7592	3040.922	3103.8774	3108.5562	3124.7043	3184.7975	3200.1131	3212.0511	3797.0429	3808.2096
CC12CC1(O)C=CC2O	C[C@@]12C[C@]1(O)C=C[C@H]2O	
InChI=1S/C7H10O2/c1-6-4-7(6,9)3-2-5(6)8/h2-3,5,8-9H,4H2,1H3	InChI=1S/C7H10O2/c1-6-4-7(6,9)3-2-5(6)8/h2-3,5,8-9H,4H2,1H3/t5-,6+,7-/m1/s1
