22
gdb 59578	3.35357	1.14994	0.95636	2.0847	83.14	-0.2117	0.0717	0.2834	1307.8403	0.193477	-404.299491	-404.290447	-404.289502	-404.333215	34.505	
C	 1.0331309716	-0.416800779	-1.1066033624	-0.387655
C	 0.0828940664	 0.0060983564	 0.0172454694	 0.074163
C	-0.0218420568	 1.5319316394	 0.0966153114	-0.388329
N	-1.2400232508	-0.5583612561	-0.211819694	-0.079385
C	-2.2843549053	-0.3642752084	 0.8279101492	-0.197292
C	-2.6751133452	-1.8470549495	 0.7043472144	 0.102517
O	-3.535220378	-2.158338499	-0.4081403546	-0.298633
C	-2.4057362627	-2.5147337747	-1.249007595	-0.075071
C	-1.4180420936	-2.0303608896	-0.1761271487	-0.047395
H	 2.0343261128	-0.0102627341	-0.9337927871	 0.112211
H	 1.1255377996	-1.5051434762	-1.1740711385	 0.110298
H	 0.6676534544	-0.0476163361	-2.0702443049	 0.121979
H	 0.5019788092	-0.3565372428	 0.9801324938	 0.04456
H	-0.6861612726	 1.8499554492	 0.9057156837	 0.116037
H	 0.9621836484	 1.9733508908	 0.281339122	 0.111107
H	-0.4146856645	 1.9336078857	-0.8430201213	 0.122386
H	-1.8688230992	-0.1454758019	 1.8250539503	 0.088148
H	-3.0543314733	 0.374173681	 0.5838013581	 0.111106
H	-2.9352117058	-2.4022834555	 1.6077621626	 0.081206
H	-2.3873785448	-3.5953493583	-1.4443019546	 0.093855
H	-2.3909892843	-1.9571240127	-2.1907356289	 0.107828
H	-0.5434794452	-2.6325135385	 0.0783205849	 0.076358
86.0011	99.9972	175.6339	212.3364	225.5318	258.698	313.6376	377.7962	399.8316	450.8423	464.5067	658.2673	745.9574	813.79	834.7065	891.6076	929.2786	937.7002	953.9879	959.9457	993.7389	1005.6341	1047.6553	1067.7789	1074.104	1085.4707	1149.8902	1162.4717	1176.4025	1189.1805	1195.9481	1224.2171	1237.4305	1290.6748	1315.3134	1333.0633	1357.2949	1367.3326	1385.8551	1399.1597	1417.3973	1483.6759	1487.4285	1491.4525	1497.0768	1503.1706	1512.0547	2864.302	2970.0954	3008.4548	3034.638	3039.1383	3074.3229	3079.0636	3083.6681	3092.7824	3106.4381	3108.6466	3109.5808	3114.7032
CC(C)N1CC2OCC12	CC(C)N1C[C@H]2OC[C@@H]12	
InChI=1S/C7H13NO/c1-5(2)8-3-7-6(8)4-9-7/h5-7H,3-4H2,1-2H3	InChI=1S/C7H13NO/c1-5(2)8-3-7-6(8)4-9-7/h5-7H,3-4H2,1-2H3/t6-,7-/m1/s1
