14
gdb 45839	2.50574	1.76495	1.09628	0.5118	66.12	-0.2761	-0.0268	0.2492	1025.9302	0.102966	-470.047415	-470.040027	-470.039083	-470.079798	27.206	
N	-0.1405067861	 1.281877597	 0.5529740128	-0.490165
C	-0.0367530614	 0.1390609502	 0.0113801933	 0.388149
C	-1.2517714211	-0.7460711802	-0.1196644268	-0.237089
N	-1.5019205438	-1.1685493606	-1.4933872912	-0.207808
C	-0.6570387013	-1.8993257115	-2.0591275346	 0.127406
O	 0.5298727983	-2.4008758631	-1.5464156819	-0.222699
C	 1.5063889698	-1.6590719924	-0.9374342622	 0.466202
O	 2.6204895906	-2.0935081551	-0.8676082539	-0.343024
N	 1.1718015253	-0.3973041736	-0.469118217	-0.409256
H	 0.7519796558	 1.7786767222	 0.5964782607	 0.216192
H	-1.1199644001	-1.6274182348	 0.5254956387	 0.13753
H	-2.1044534735	-0.1757867172	 0.2441317905	 0.154467
H	-0.8174029287	-2.2957619719	-3.0583165579	 0.152296
H	 2.0061772162	 0.1012552509	-0.1878564406	 0.267796
89.8712	113.3573	159.9502	318.6203	355.116	416.897	493.807	549.2708	580.9884	628.0906	671.2955	751.0184	812.3938	859.0627	890.1719	940.5213	961.3416	991.5747	1040.3764	1101.3585	1134.0994	1241.7288	1271.6867	1352.2803	1386.0887	1410.4609	1448.4179	1488.1275	1737.1837	1766.5371	1857.3557	3006.2088	3149.6004	3182.8823	3449.3165	3589.6119
N=C1CN=COC(=O)N1	[NH][C]1CN=COC(=O)N1	
InChI=1S/C4H5N3O2/c5-3-1-6-2-9-4(8)7-3/h2H,1H2,(H2,5,7,8)	InChI=1S/C4H5N3O2/c5-3-1-6-2-9-4(8)7-3/h2H,1H2,(H2,5,7,8)
