14
gdb 20820	5.03747	1.54734	1.30106	5.096	65.	-0.254	-0.0886	0.1654	926.1995	0.106697	-374.854433	-374.847197	-374.846253	-374.886858	25.345	
C	 0.211926908	 1.5200749682	 0.2117732052	-0.38003
C	-0.1378751669	 0.0530606874	-0.1005018361	-0.271706
C	 0.646608709	-0.4671249067	-1.2698880603	 0.364283
C	 1.779803889	-1.2731903149	-1.1520398943	-0.017366
N	 2.4480081288	-1.6732653361	-2.221315192	-0.159528
N	 2.011169719	-1.2853357352	-3.4190544538	-0.057284
N	 0.9401290973	-0.5351192921	-3.5448770566	-0.061745
N	 0.2457105765	-0.1178890489	-2.4914047025	-0.22187
H	 1.2673931555	 1.6286359448	 0.4801379396	 0.126794
H	 0.0138640943	 2.1517378393	-0.6581045338	 0.149981
H	-0.3909150018	 1.8829806133	 1.0482304425	 0.130471
H	 0.0536594748	-0.5762493073	 0.7750090096	 0.116239
H	-1.2020528926	-0.0240331546	-0.3433906125	 0.14074
H	 2.156494729	-1.6084723873	-0.188799035	 0.14102
39.5438	110.1565	216.6881	240.8524	316.6364	353.2877	512.9567	607.1508	681.4711	792.8271	829.0907	848.4444	891.3139	964.1517	980.9944	1057.4187	1082.2524	1094.5693	1095.4235	1215.4335	1267.9419	1308.9362	1352.8472	1369.7276	1408.7221	1480.414	1496.3479	1507.0385	1522.0287	1586.5243	3044.581	3049.8911	3094.285	3120.166	3130.9116	3163.7546
CCC1=CN=NN=N1	CCc1cnnnn1	
InChI=1S/C4H6N4/c1-2-4-3-5-7-8-6-4/h3H,2H2,1H3	InChI=1S/C4H6N4/c1-2-4-3-5-7-8-6-4/h3H,2H2,1H3
