18
gdb 91852	3.6345	1.20089	1.1079	2.0096	78.67	-0.2284	0.0391	0.2675	1140.559	0.147547	-401.892727	-401.884523	-401.883579	-401.925054	32.534	
O	-0.636745433	 1.2077609439	 0.8833921745	-0.4245
C	-0.0277465068	 0.1651902746	 0.1211296972	 0.077312
C	 0.8425250165	-0.7889394705	 0.974814106	-0.182558
N	 0.0179103783	-1.9186165791	 1.4335416571	-0.133127
C	-1.255100743	-1.5215344087	 2.0469255111	-0.279485
C	-1.2212301957	-1.9019308905	 0.6000073017	 0.138395
C	-1.1431396913	-0.7508980673	-0.406726834	-0.276648
C	-1.765579041	-3.1522124781	 0.1487140427	 0.187902
C	-2.2503583275	-4.1746189423	-0.258321886	-0.368291
H	 0.0651333527	 1.7446160321	 1.2655175598	 0.283723
H	 0.5537333795	 0.601205557	-0.7024926441	 0.074165
H	 1.6551825014	-1.2011394701	 0.3657969082	 0.112099
H	 1.2934115631	-0.2746140929	 1.8311790885	 0.100799
H	-1.6433591251	-2.2399505256	 2.76243831	 0.120753
H	-1.4246344606	-0.4753664517	 2.2803592669	 0.137444
H	-2.0821119301	-0.2013911291	-0.5038899285	 0.128996
H	-0.8791819339	-1.1516083769	-1.3893328521	 0.116658
H	-2.6700001234	-5.0859626949	-0.6055435988	 0.186362
120.6794	142.8518	192.1048	281.9424	312.1651	386.2843	409.3926	415.382	514.4343	534.4526	563.5264	606.1237	649.4277	699.1405	764.921	798.2097	831.9871	906.8569	917.1727	939.6291	971.433	1008.9501	1063.7049	1085.0122	1130.1707	1173.8017	1195.3041	1213.2006	1237.0597	1264.3335	1302.1119	1327.2368	1353.2739	1373.067	1420.8784	1474.2913	1484.2591	1500.328	2239.1787	3003.6079	3034.9114	3069.2131	3077.7833	3118.9341	3119.563	3217.5263	3503.8494	3815.9015
OC1CN2CC2(C1)C#C	O[C@H]1CN2C[C@]2(C1)C#C	
InChI=1S/C7H9NO/c1-2-7-3-6(9)4-8(7)5-7/h1,6,9H,3-5H2	InChI=1S/C7H9NO/c1-2-7-3-6(9)4-8(7)5-7/h1,6,9H,3-5H2/t6-,7-,8?/m1/s1
