17
gdb 48883	3.2392	1.55299	1.33203	2.5737	71.06	-0.2368	-0.0371	0.1997	980.7815	0.136162	-421.799823	-421.792514	-421.791569	-421.832129	28.219	
O	-0.7273443826	 0.9585140742	 0.5097726672	-0.256914
C	 0.3169775623	 0.8436325239	-0.0794487901	 0.066632
C	 1.4134443566	 1.8747464961	-0.0332383744	 0.333878
C	 1.7345799429	 2.5327304924	 1.3059398831	-0.242028
C	 2.7577871264	 3.6361079385	 0.9120955617	-0.241845
C	 2.5838024613	 3.7886164155	-0.5995446258	-0.085583
C	 2.7356963326	 2.5335372097	-1.4372684063	 0.094755
O	 2.6647702635	 1.3689334547	-0.6101774162	-0.343842
C	 1.368038514	 3.0220181384	-1.0855335324	-0.194306
H	 0.5493205184	-0.0320279896	-0.7234728059	 0.096592
H	 0.8166284913	 2.9504383377	 1.7299843319	 0.124695
H	 2.1428703047	 1.809323415	 2.016680379	 0.113405
H	 2.5523066741	 4.5782549562	 1.4274207445	 0.10699
H	 3.7788641841	 3.3378598493	 1.1660353914	 0.115794
H	 2.8259805062	 4.725513563	-1.0898667567	 0.095103
H	 3.2755179901	 2.4584636031	-2.3736387246	 0.107549
H	 0.5239371542	 3.3794504018	-1.6575561265	 0.109127
47.3358	165.9517	209.7199	250.942	374.2306	447.7872	508.4249	628.5957	711.6139	746.466	757.6729	799.766	814.1367	844.7147	877.2657	910.9336	968.0172	985.8283	1010.7013	1035.1401	1043.8969	1045.3318	1085.1588	1100.2112	1171.1145	1183.6173	1211.2961	1221.2351	1259.649	1298.8797	1309.5097	1341.7411	1390.5014	1395.9751	1474.3402	1498.7711	1823.8651	2905.3285	3056.4759	3065.1056	3094.7064	3116.5557	3174.628	3187.6337	3217.4093
O=CC12CCC3C(O1)C23	O=C[C@@]12CC[C@H]3[C@@H](O1)[C@@H]23	
InChI=1S/C7H8O2/c8-3-7-2-1-4-5(7)6(4)9-7/h3-6H,1-2H2	InChI=1S/C7H8O2/c8-3-7-2-1-4-5(7)6(4)9-7/h3-6H,1-2H2/t4-,5+,6-,7-/m1/s1
