23
gdb 101148	3.3418	0.89654	0.87992	0.9328	89.26	-0.2281	0.03	0.258	1507.5125	0.20509	-388.300796	-388.290695	-388.28975	-388.336595	36.644	
C	 0.0409616764	 1.3342575705	 0.1516511212	-0.228653
O	-0.0829997171	-0.0517441166	-0.0566894501	-0.250667
C	 0.6195337728	-0.5520006719	-1.1943037945	 0.008524
C	 2.1331506164	-0.6304393603	-0.937714472	-0.404086
C	 0.030345217	-1.8988007692	-1.5059916513	 0.375367
C	-0.3982898049	-2.317575398	-2.6971753018	-0.197731
C	-0.9563056877	-3.7195637495	-2.6559220392	-0.244227
C	-0.5157830889	-4.2283816614	-1.2580289163	-0.210308
C	-0.1841713386	-2.9552952458	-0.4392823777	-0.293076
H	 1.0628962501	 1.6375784398	 0.4230875272	 0.10445
H	-0.2614604597	 1.9081859147	-0.7389697925	 0.101732
H	-0.6251634847	 1.5952027019	 0.9782848697	 0.125502
H	 0.4432993472	 0.1196246562	-2.0508287159	 0.06205
H	 2.6413910142	-1.0348076916	-1.8179338229	 0.119881
H	 2.5548116673	 0.3573820692	-0.7300037304	 0.113486
H	 2.3451653275	-1.2800476687	-0.0837130651	 0.124835
H	-0.395436328	-1.7149960178	-3.6002009388	 0.079777
H	-2.0509305693	-3.700680828	-2.7601511241	 0.103862
H	-0.5854826615	-4.3543743353	-3.4690646547	 0.098295
H	-1.2713116929	-4.8555608849	-0.7780096973	 0.09478
H	 0.3874975312	-4.8378849931	-1.3638115068	 0.101236
H	 0.6848555267	-3.0927126261	 0.2136077294	 0.098017
H	-1.0101155636	-2.6525035541	 0.2165605339	 0.116953
50.9938	66.7062	107.5652	143.7617	185.9679	203.5048	236.128	314.293	329.3981	358.1914	490.1501	541.8828	637.9641	689.4286	812.8429	836.2576	855.3978	886.683	906.3985	918.218	953.5057	992.855	1035.0433	1052.1695	1077.3758	1106.8383	1137.5984	1151.7457	1181.2422	1185.6915	1217.3868	1227.8932	1248.4913	1280.7791	1320.2532	1326.5345	1351.8933	1363.0294	1380.335	1395.9305	1476.3349	1481.7961	1482.9894	1487.1823	1493.5162	1501.1197	1507.3846	1512.3763	1722.8851	2961.592	2973.2055	3001.6125	3019.8658	3028.6497	3040.2669	3042.6597	3052.6719	3063.1946	3098.941	3106.1759	3112.913	3121.2449	3177.1971
COC(C)C1=CCCC1	CO[C@@H](C)C1=CCCC1	
InChI=1S/C8H14O/c1-7(9-2)8-5-3-4-6-8/h5,7H,3-4,6H2,1-2H3	InChI=1S/C8H14O/c1-7(9-2)8-5-3-4-6-8/h5,7H,3-4,6H2,1-2H3/t7-/m0/s1
