16
gdb 66868	2.96216	1.63391	1.31617	2.7523	79.96	-0.2323	-0.0466	0.1857	985.5601	0.124574	-400.727019	-400.719591	-400.718646	-400.758549	29.439	
O	 0.2861075193	 1.2775995929	 0.1599654043	-0.478692
C	-0.0985907109	-0.0702867606	 0.1048239688	 0.323402
C	 0.2422048809	-0.8964368369	 1.319506008	-0.209305
C	 0.7925771802	-2.0749216724	 0.9837525022	-0.117353
C	 0.9022580645	-2.2524417739	-0.4678955309	 0.350741
C	 1.3972507285	-3.316698674	-1.1052643201	-0.419014
N	-1.1734893065	-1.1295783675	-1.4248695841	-0.182247
C	-1.4771313201	-0.3095322083	-0.4853755553	-0.038507
C	 0.3035336905	-1.0165803101	-1.0923283086	-0.173171
H	 1.1733060668	 1.3183823605	 0.5349197336	 0.281634
H	 0.0341315097	-0.5534886946	 2.3268029547	 0.109456
H	 1.0982237552	-2.8438395125	 1.6854871654	 0.108845
H	 1.4332070015	-3.3663122882	-2.1878169765	 0.119736
H	 1.7689423944	-4.1799150753	-0.5621640112	 0.110246
H	-2.4753831278	 0.036646489	-0.2175557591	 0.118531
H	 0.8686028537	-0.5715024382	-1.9126447712	 0.095697
112.9622	235.7964	266.6231	283.1409	330.3179	355.9213	403.8535	510.2744	597.7346	640.6611	676.5617	702.2256	753.1514	835.2423	877.9663	891.8468	929.0806	935.3943	963.5929	978.5112	988.924	1025.0807	1090.348	1126.2946	1151.4188	1209.1244	1250.0635	1266.7414	1297.1557	1367.2489	1379.6558	1458.5871	1623.7999	1647.5905	1709.2325	3105.1594	3136.598	3148.6617	3183.7423	3207.6479	3233.6447	3794.0733
OC12C3C=C4CN(C13)C24	O[C@@]12[CH]C=C([CH2])[C@H]2[N][CH]1	
InChI=1S/C7H7NO/c9-7-4-1-3-2-8(5(3)7)6(4)7/h1,4-6,9H,2H2	InChI=1S/C7H7NO/c1-5-2-3-7(9)4-8-6(5)7/h2-4,6,9H,1H2/t6-,7+/m1/s1
