18
gdb 31041	2.60349	1.21326	0.8795	1.8802	76.32	-0.1858	0.0372	0.223	1333.1555	0.146646	-439.115839	-439.106185	-439.10524	-439.150768	34.803	
C	-0.3990676271	 1.5745808898	 0.0780688192	-0.362397
C	 0.1294742423	 0.1397790815	-0.0906934436	-0.306546
C	 0.7606407069	-0.4173431545	 1.1503948133	 0.154197
C	 2.0795377258	-0.6625616987	 1.3682003284	 0.3207
O	 3.1455604612	-0.4885092771	 0.5622097789	-0.431949
O	 2.3214402392	-1.1557243393	 2.603075047	-0.22424
C	 1.0768225119	-1.2403935216	 3.2430432108	 0.282792
N	 1.0240379377	-1.7289615913	 4.5455318269	-0.596561
C	 0.1235172501	-0.7991672762	 2.3892293754	-0.282917
H	 0.4124347954	 2.2604758209	 0.3403417845	 0.118088
H	-0.8649552904	 1.9329200919	-0.8458167622	 0.106955
H	-1.1479553318	 1.628069778	 0.875052433	 0.115409
H	-0.6974072021	-0.5095197359	-0.4072309593	 0.101687
H	 0.8643683944	 0.1159613345	-0.9025276441	 0.11066
H	 3.9231668722	-0.8303528297	 1.0175907518	 0.304337
H	 1.5575460409	-1.1638591201	 5.1990065495	 0.242171
H	 1.3522865532	-2.6869923272	 4.6201668639	 0.241923
H	-0.9312794897	-0.754916165	 2.6141371566	 0.105689
47.3413	109.6953	145.8676	181.7442	186.1965	228.1708	279.2772	299.7783	325.2956	414.9258	530.6358	591.1571	625.6229	650.0861	701.7477	762.1002	784.8392	808.6736	841.1989	948.1776	972.1583	1050.3576	1082.1616	1118.7488	1182.6676	1186.1315	1212.8342	1245.9218	1316.7979	1333.2376	1368.9692	1406.7334	1440.9671	1483.7906	1496.133	1506.772	1645.3046	1687.6148	1724.8215	3017.9836	3032.8105	3067.3122	3102.5326	3109.0363	3252.6231	3488.0599	3551.1162	3824.1224
CCC1=C(O)OC(N)=C1	CCc1c(O)oc(N)c1	
InChI=1S/C6H9NO2/c1-2-4-3-5(7)9-6(4)8/h3,8H,2,7H2,1H3	InChI=1S/C6H9NO2/c1-2-4-3-5(7)9-6(4)8/h3,8H,2,7H2,1H3
