16
gdb 54064	2.42544	1.0717	0.77761	3.7744	71.27	-0.2691	-0.0504	0.2188	1402.5109	0.120078	-437.924233	-437.914287	-437.913343	-437.960859	33.368	
C	 0.1620118537	 1.2930994231	 0.6965565948	-0.488114
C	 0.0110844259	 0.0829305667	-0.1901885834	 0.397663
O	 0.8136213725	-0.2307213122	-1.0305586963	-0.275973
C	-1.2935693804	-0.7640733628	-0.0313744526	-0.292438
C	-1.1110571081	-2.1973342883	-0.5655945851	-0.284092
C	-2.4175410196	-2.8538737768	-0.9592716804	 0.16654
O	-2.6971951584	-4.0007196581	-0.740222616	-0.225901
C	-1.8177282885	-0.7384652613	 1.3332422956	 0.283169
N	-2.2164897228	-0.717960848	 2.4179193794	-0.312725
H	 1.0256567428	 1.8751737476	 0.375420804	 0.154668
H	-0.7432758613	 1.9091522297	 0.6726168808	 0.153983
H	 0.2927557161	 0.9754597288	 1.7365980459	 0.177259
H	-2.0283846381	-0.2419771534	-0.6663055286	 0.157483
H	-0.4867059471	-2.1133988249	-1.4648118883	 0.164679
H	-0.5854841981	-2.8327112073	 0.15019397	 0.147623
H	-3.1187383886	-2.183217123	-1.5124085998	 0.076176
37.3496	54.8799	81.1035	139.9961	150.829	184.2102	234.0402	309.9655	361.1738	466.5734	485.7604	519.5131	584.0129	627.2364	737.2112	796.0138	917.3784	963.7812	1011.8945	1056.405	1081.8474	1104.0992	1183.4798	1206.9241	1229.4025	1300.9869	1336.7924	1388.7942	1431.0097	1455.6266	1455.9279	1470.3976	1829.3625	1846.125	2356.1111	2842.7543	2988.5714	3041.3866	3045.1136	3106.3998	3124.7377	3162.9446
CC(=O)C(CC=O)C#N	CC(=O)[C@@H](CC=O)C#N	
InChI=1S/C6H7NO2/c1-5(9)6(4-7)2-3-8/h3,6H,2H2,1H3	InChI=1S/C6H7NO2/c1-5(9)6(4-7)2-3-8/h3,6H,2H2,1H3/t6-/m0/s1
