20
gdb 121431	4.90938	0.66453	0.62317	0.8845	82.7	-0.2244	-0.0085	0.2159	1826.8895	0.170614	-436.512717	-436.50247	-436.501526	-436.54884	36.585	
C	-0.1070892376	 1.7108373345	 0.1333944548	-0.376497
C	 0.3689420048	 0.2603650747	 0.0254866947	-0.159573
C	 0.661397863	-0.1630668225	-1.424242852	-0.157584
N	 1.2055211672	-1.5050774404	-1.5127677663	-0.32808
C	 0.4063730507	-2.4890299846	-1.6606327636	 0.458272
N	-0.9549035046	-2.5074451776	-1.7906818215	-0.56906
N	 1.0259759522	-3.7591200602	-1.7595146121	-0.338626
C	 0.4586350975	-4.9959070075	-1.7967651369	 0.175379
O	-0.7327543911	-5.2462321404	-1.7851953048	-0.332202
H	 0.6460402627	 2.4037771011	-0.2578329225	 0.117505
H	-1.0293931321	 1.8730033593	-0.4361620606	 0.110468
H	-0.30608664	 1.988735755	 1.1728763207	 0.114
H	 1.2805603131	 0.1143735817	 0.6158498909	 0.10902
H	-0.3824543484	-0.4135065744	 0.4581022721	 0.086669
H	-0.2476396973	-0.0284661584	-2.0367287805	 0.07941
H	 1.4063840871	 0.5255989868	-1.8418320909	 0.100105
H	-1.4614010306	-1.7044333784	-1.4627465046	 0.260797
H	-1.404727468	-3.4135489494	-1.7401138841	 0.283199
H	 2.0331954896	-3.6881819427	-1.7450458282	 0.266932
H	 1.226443222	-5.7893193466	-1.8427769446	 0.099866
48.3719	67.4794	91.676	122.0455	222.7487	241.0848	270.0356	304.9748	323.8753	350.1099	413.2069	477.2034	590.2165	606.2813	676.0439	726.75	752.4515	807.0147	887.373	894.6686	933.0573	1015.1591	1028.4741	1047.0322	1116.3659	1158.8682	1173.4655	1207.1908	1273.6952	1316.286	1323.1809	1381.6211	1390.1732	1411.7451	1443.9002	1489.9313	1498.6222	1501.4846	1504.0619	1521.2172	1627.4801	1748.6303	1788.0845	2944.1218	2972.9158	3017.7493	3028.6915	3036.1923	3064.5136	3095.7091	3103.5499	3520.0918	3621.9886	3711.9611
CCCN=C(N)NC=O	CCCN=C(N)NC=O	
InChI=1S/C5H11N3O/c1-2-3-7-5(6)8-4-9/h4H,2-3H2,1H3,(H3,6,7,8,9)	InChI=1S/C5H11N3O/c1-2-3-7-5(6)8-4-9/h4H,2-3H2,1H3,(H3,6,7,8,9)
