21
gdb 95786	2.17858	1.71378	1.02449	3.5789	80.72	-0.2264	0.0314	0.2578	1206.0553	0.184368	-420.445588	-420.436421	-420.435477	-420.479464	34.272	
C	-0.1032194335	 1.5234046993	-0.01286795	-0.3964
C	 0.0377343806	 0.0023906589	-0.0093735442	-0.071542
N	 0.7546248798	-0.4520148171	-1.1989770878	-0.307238
C	 0.9738790702	-1.8879111107	-1.1603935548	-0.184331
C	 1.9705788381	-2.172121445	-0.0469236344	-0.121708
N	 1.5684206284	-1.5401616738	 1.2030303589	-0.110342
C	 2.2732734571	-1.9776638601	 2.3960244988	-0.345294
C	 0.7208501956	-0.467140557	 1.2869865867	 0.447022
O	 0.4581616713	 0.0811804107	 2.3460105094	-0.397549
H	 0.8799835425	 1.9954932546	-0.0920354921	 0.125127
H	-0.7103688955	 1.8474335614	-0.8648298935	 0.099823
H	-0.5798649765	 1.8532246933	 0.9104194377	 0.14601
H	-0.9775701829	-0.4407617361	 0.047089641	 0.081817
H	 0.2335892896	-0.1875126183	-2.0281792816	 0.22083
H	 0.0462192305	-2.4639771232	-0.979837108	 0.086027
H	 1.3936407766	-2.2244636911	-2.1130540654	 0.106084
H	 2.0475595928	-3.2538569716	 0.1212928833	 0.102726
H	 2.967029306	-1.81297247	-0.3440312036	 0.110977
H	 3.35320945	-1.8040514246	 2.2980953305	 0.119863
H	 1.8923982095	-1.4125141346	 3.2448628977	 0.169365
H	 2.1129525698	-3.0495908548	 2.5628634114	 0.118736
73.7564	119.1789	144.4578	207.0517	227.6746	284.1984	314.9452	371.2155	404.157	436.514	471.637	530.2228	593.5942	686.8941	752.7229	812.962	907.7621	923.4872	949.6755	1016.7316	1056.9349	1094.2008	1110.182	1125.152	1158.4354	1162.8679	1196.754	1245.1373	1267.3859	1280.6186	1325.8691	1342.2687	1362.3644	1399.8693	1412.5461	1428.9025	1462.2191	1477.5009	1492.7787	1496.7075	1500.4127	1501.3967	1506.9536	1540.1106	1752.6946	2889.3851	2919.8316	2993.8221	3012.2767	3040.7608	3043.363	3061.2522	3080.0587	3111.2359	3155.8636	3170.2069	3520.9432
CC1NCCN(C)C1=O	C[C@H]1NCCN(C)C1=O	
InChI=1S/C6H12N2O/c1-5-6(9)8(2)4-3-7-5/h5,7H,3-4H2,1-2H3	InChI=1S/C6H12N2O/c1-5-6(9)8(2)4-3-7-5/h5,7H,3-4H2,1-2H3/t5-/m1/s1
