16
gdb 32551	2.63793	1.56068	0.98672	6.9521	76.69	-0.2011	-0.0084	0.1927	1147.1117	0.125899	-437.926738	-437.918811	-437.917867	-437.959193	30.	
C	-0.0537813622	 1.3818137248	 0.0806354391	-0.240796
O	 0.0090833381	-0.0255064395	-0.0095666222	-0.230762
C	 0.6224824797	-0.5626903944	-1.0857598995	 0.20864
C	 1.1873494192	 0.1548633518	-2.0950086521	-0.121924
N	 1.7939774556	-0.4823216491	-3.1576536822	-0.325885
C	 1.8461029237	-1.8396688627	-3.2293342823	 0.020949
C	 1.3018771169	-2.6121627998	-2.2557463647	-0.244735
C	 0.6375374556	-2.0467179108	-1.0901676336	 0.315527
O	 0.1346005444	-2.7087170606	-0.1908581928	-0.390119
H	 0.9493944863	 1.8298242926	 0.1164996743	 0.117901
H	-0.6069252458	 1.8167332669	-0.7639000378	 0.117899
H	-0.5806987743	 1.6071829157	 1.0087263375	 0.14331
H	 1.1998714864	 1.2345281724	-2.1333696861	 0.122433
H	 2.2026051386	 0.0737214809	-3.8884436444	 0.266538
H	 2.3434016793	-2.2457902507	-4.1021581246	 0.130101
H	 1.3503548185	-3.6915964474	-2.3250784684	 0.110922
99.3492	141.2536	229.1083	251.5867	326.7093	346.1743	411.5418	450.1951	493.4514	562.1315	563.591	585.0979	749.2325	753.1971	817.1299	848.3732	888.9665	947.9315	1037.0317	1067.3346	1138.4356	1177.4885	1206.8495	1225.7563	1265.3421	1295.9466	1396.7701	1423.8264	1479.8561	1490.2966	1505.9652	1557.6411	1632.9031	1671.6129	1730.8387	2989.9131	3044.4554	3138.036	3199.3445	3220.9107	3228.4022	3673.3913
COC1=CNC=CC1=O	COc1c[nH]ccc1=O	
InChI=1S/C6H7NO2/c1-9-6-4-7-3-2-5(6)8/h2-4H,1H3,(H,7,8)	InChI=1S/C6H7NO2/c1-9-6-4-7-3-2-5(6)8/h2-4H,1H3,(H,7,8)
