17
gdb 30061	3.26327	1.41927	1.06608	3.121	75.82	-0.2181	0.013	0.2311	1110.3604	0.137624	-418.017972	-418.010042	-418.009098	-418.050692	29.394	
C	 1.0238915241	 0.8862284321	 0.6135470172	-0.364515
N	 0.2333171012	-0.2673649385	 0.2096337031	-0.054701
C	 0.28813583	-0.8602831725	-1.0328356465	-0.124387
C	-0.6049916921	-1.8972942209	-0.9989151037	-0.10177
N	-1.2144004526	-1.9587993946	 0.2265663235	-0.312484
C	-0.6891627339	-0.9761064714	 0.9355414031	 0.330876
C	-1.0868254127	-0.7487399649	 2.3401559587	 0.003093
C	-0.1669951925	-0.4381120131	 3.4479466951	-0.197317
O	-1.0135910292	 0.5742620969	 2.8985188618	-0.237689
H	 2.0242416541	 0.585205261	 0.9439074258	 0.135861
H	 1.1296650583	 1.5649925019	-0.2358750434	 0.141369
H	 0.5107955554	 1.4045997186	 1.4218597482	 0.182433
H	 0.9349342628	-0.4766733726	-1.8052461697	 0.123696
H	-0.8506109284	-2.5911275727	-1.7884027569	 0.108112
H	-1.9974757674	-1.2934980388	 2.5794095415	 0.124776
H	-0.4195023525	-0.7601913375	 4.4568169755	 0.12778
H	 0.8970045654	-0.318518393	 3.2507221868	 0.114867
81.5442	156.2136	168.655	215.3812	223.4508	341.072	419.8364	440.2988	638.9139	673.724	695.695	727.8447	748.7299	840.1523	850.9189	907.5701	931.7511	995.0709	1068.8087	1099.4841	1109.2192	1149.5094	1156.4608	1175.4355	1178.2427	1232.3094	1279.856	1309.8417	1374.7957	1395.0176	1442.0185	1487.3208	1502.6028	1512.808	1521.6117	1538.5991	1570.7234	3037.9802	3088.6108	3109.1818	3145.8694	3170.3637	3178.017	3246.2731	3272.0921
CN1C=CN=C1C1CO1	Cn1ccnc1[C@H]1CO1	
InChI=1S/C6H8N2O/c1-8-3-2-7-6(8)5-4-9-5/h2-3,5H,4H2,1H3	InChI=1S/C6H8N2O/c1-8-3-2-7-6(8)5-4-9-5/h2-3,5H,4H2,1H3/t5-/m1/s1
