22
gdb 114327	2.26825	1.35728	1.21022	1.7903	83.6	-0.226	0.0801	0.3062	1213.9581	0.192178	-404.295224	-404.285314	-404.28437	-404.329714	36.62	
C	-0.160903283	 1.4501933854	 0.1955210335	-0.236959
O	 0.3306300144	 0.1565637487	-0.0774465531	-0.245028
C	 0.7505734091	-0.5326807854	 1.0735571446	 0.09113
C	-0.3016785603	-1.1806870862	 2.0382540356	-0.300166
C	 0.4040425855	-2.528522224	 1.8112509721	-0.097123
N	 0.4223807969	-2.9221868447	 0.4240218733	-0.117725
C	-0.6889624841	-2.7118273557	-0.496433073	-0.316242
C	 1.3806605796	-1.9125872256	 0.8184835362	 0.29176
C	 2.8422938503	-2.1405265173	 0.561473181	-0.494696
H	 0.6011731344	 2.0763197262	 0.6859895934	 0.104224
H	-0.430658171	 1.905792688	-0.7602763054	 0.127308
H	-1.0519446131	 1.4263269492	 0.8406344804	 0.108536
H	 1.445249037	 0.0974875639	 1.6515374507	 0.069307
H	-0.2204244239	-0.8125332695	 3.0632483211	 0.101676
H	-1.3480099391	-1.128988686	 1.7250572842	 0.103267
H	 0.5869195949	-3.281924576	 2.5709483503	 0.089136
H	-1.2061296661	-1.7521287783	-0.3958764675	 0.1188
H	-0.3049178494	-2.7758543648	-1.5189776565	 0.122324
H	-1.4098794877	-3.5238713065	-0.3542008655	 0.11265
H	 3.1136301555	-1.8158591552	-0.4499832944	 0.12682
H	 3.4633946118	-1.5797172866	 1.2684618837	 0.111561
H	 3.0810772083	-3.2033846097	 0.6485417752	 0.12944
88.3313	116.7842	162.7059	166.6196	190.997	213.9367	241.8017	283.0611	296.5718	376.2677	450.7879	498.2678	585.118	647.0327	724.2775	788.9623	835.4149	903.6628	943.1974	951.8923	1005.5808	1028.7324	1046.5022	1113.2063	1119.6219	1145.134	1157.3288	1171.5451	1184.3627	1184.3971	1209.78	1223.2943	1238.1909	1270.6491	1295.3779	1385.7177	1402.5483	1434.8832	1458.7782	1476.9983	1481.9832	1484.8197	1486.6118	1492.5321	1496.3751	1507.643	1509.7314	2969.5759	2977.1982	3022.0752	3026.187	3028.9896	3061.298	3086.8326	3092.7653	3103.2857	3114.0474	3114.3784	3121.0388	3160.5822
COC1CC2N(C)C12C	CO[C@H]1C[C@H]2N(C)[C@@]12C	
InChI=1S/C7H13NO/c1-7-5(8(7)2)4-6(7)9-3/h5-6H,4H2,1-3H3	InChI=1S/C7H13NO/c1-7-5(8(7)2)4-6(7)9-3/h5-6H,4H2,1-3H3/t5-,6+,7-,8?/m1/s1
