20
gdb 108651	1.95787	1.67094	0.97448	4.1133	83.61	-0.2373	-0.0143	0.223	1255.8721	0.170591	-403.219367	-403.209582	-403.208638	-403.254546	35.075	
C	-0.2190915694	 1.6220338005	-0.0558847817	-0.377109
C	 0.0400428585	 0.1070209904	 0.0340734389	-0.293055
C	 0.787041187	-0.4194822714	-1.1512078562	 0.114527
C	 2.0454953598	-0.8705252198	-1.2710016776	 0.174956
C	 3.1170656097	-0.9948124719	-0.2371931357	-0.495407
C	 2.3076347496	-1.286850265	-2.7036953207	-0.242236
N	 1.0546759882	-0.9932546819	-3.3539581984	-0.347702
C	 0.1080772453	-0.503867744	-2.4847210393	 0.382761
O	-1.0400630337	-0.2089269527	-2.7565164899	-0.395661
H	 0.7211893862	 2.1821895368	-0.0836794201	 0.108947
H	-0.7852982584	 1.8527558501	-0.9613435089	 0.149566
H	-0.7951808219	 1.9668620442	 0.8082532655	 0.110199
H	 0.5773169753	-0.1287473925	 0.9586987873	 0.094774
H	-0.9270354984	-0.4076289496	 0.0835883134	 0.123285
H	 3.4675717444	-2.0310700061	-0.1520267637	 0.132437
H	 3.9929337459	-0.3887143451	-0.5010685497	 0.133604
H	 2.7708356669	-0.6733108624	 0.7472849792	 0.13647
H	 3.1465779609	-0.7219648777	-3.137329311	 0.119168
H	 2.5722548574	-2.3533932459	-2.7658821481	 0.119057
H	 0.8408702465	-1.2030330261	-4.3135116134	 0.251418
58.8002	73.533	130.8136	143.8679	189.0473	209.8557	285.9784	297.9535	374.5027	406.7395	520.3907	534.5257	567.89	675.7915	747.2324	777.1154	801.1146	902.6495	954.4218	960.5547	1004.1432	1072.5019	1079.6827	1085.0927	1134.2987	1174.7291	1190.1856	1192.8156	1292.8816	1327.8217	1347.442	1364.3247	1402.3727	1416.1753	1426.0715	1472.807	1480.7071	1488.1379	1496.7608	1503.1272	1512.2068	1725.7078	1807.1685	2987.957	3008.7489	3022.0388	3034.1158	3039.1014	3066.827	3073.72	3106.3975	3125.4101	3131.4435	3675.1387
CCC1=C(C)CNC1=O	CCC1=C(C)CNC1=O	
InChI=1S/C7H11NO/c1-3-6-5(2)4-8-7(6)9/h3-4H2,1-2H3,(H,8,9)	InChI=1S/C7H11NO/c1-3-6-5(2)4-8-7(6)9/h3-4H2,1-2H3,(H,8,9)
