21
gdb 116054	2.97016	1.2267	0.92689	1.857	81.24	-0.2459	0.0175	0.2634	1315.5417	0.182479	-424.228237	-424.21917	-424.218226	-424.262327	33.873	
C	-0.1139716386	 1.5822162124	-0.2226029126	-0.385509
C	-0.0789747863	 0.0563656034	-0.1285201352	-0.198996
C	 0.8356619423	-0.5886212135	-1.1622598002	 0.2072
O	 2.1445764426	-0.1359231177	-0.9209034011	-0.23481
C	 3.043266203	-0.1873813483	-2.0078085422	-0.132665
C	 3.2353984163	-1.511691749	-2.6949381087	-0.064417
C	 2.4300696596	-2.5713229252	-2.7378207089	-0.063287
C	 1.0770199883	-2.7748256484	-2.1126746012	-0.136777
O	 0.74226681	-1.9808160472	-0.9953799973	-0.23517
H	 0.8853525404	 2.0011778647	-0.081462392	 0.131441
H	-0.4838971372	 1.9142236722	-1.1996474596	 0.107954
H	-0.7744472006	 2.0038374864	 0.5406879402	 0.112553
H	 0.2738713552	-0.2623545996	 0.8583978641	 0.11679
H	-1.0796801986	-0.3662789064	-0.2633569372	 0.101617
H	 0.5286678289	-0.3109278129	-2.189070235	 0.050543
H	 2.752540067	 0.5558845707	-2.7748043343	 0.101882
H	 4.003529511	 0.1526737617	-1.6037433775	 0.11888
H	 4.1548244559	-1.5539469395	-3.2777388187	 0.091468
H	 2.7405751144	-3.4150607199	-3.353048709	 0.091452
H	 0.3140674191	-2.6534308077	-2.905780273	 0.100949
H	 0.9913224072	-3.810796826	-1.7656596505	 0.118901
70.705	94.6009	147.0661	185.8841	217.7896	270.3842	355.57	371.0203	404.9514	443.1653	546.2027	617.5547	689.6499	762.3398	831.0685	836.4606	909.1046	919.8386	960.4898	992.6944	1012.7126	1029.7187	1042.983	1070.0442	1121.8959	1148.3982	1158.4043	1189.0418	1266.5935	1275.988	1282.7964	1308.8804	1341.0986	1384.4437	1404.9115	1414.7751	1417.9761	1420.327	1424.7005	1478.8036	1483.0075	1484.3522	1497.3792	1510.9451	1747.8778	2916.5479	2922.0929	2927.368	3035.8567	3050.0588	3057.1953	3057.9636	3087.4987	3103.4812	3123.166	3126.4356	3146.8023
CCC1OCC=CCO1	CC[C@H]1OCC=CCO1	
InChI=1S/C7H12O2/c1-2-7-8-5-3-4-6-9-7/h3-4,7H,2,5-6H2,1H3	InChI=1S/C7H12O2/c1-2-7-8-5-3-4-6-9-7/h3-4,7H,2,5-6H2,1H3
