23
gdb 122221	2.40954	1.03264	0.997	1.2199	82.12	-0.2447	0.0907	0.3355	1410.7452	0.20329	-425.402568	-425.391958	-425.391014	-425.439265	38.324	
C	-1.1761000615	 0.2034692118	-1.5104179913	-0.397191
C	-0.6111512744	-0.4307328684	-0.2424860628	-0.049359
O	 0.724522854	-0.9042815043	-0.364476603	-0.241783
C	 0.8922204477	-2.1819938573	-0.944769822	-0.139875
C	 1.2364586116	-2.1570581633	-2.4274872961	 0.388826
C	 2.3701495043	-1.2183983967	-2.8068092741	-0.243601
C	 2.6773609911	-1.1296553154	-4.3026769032	-0.399896
C	 0.9069653187	-3.3579117873	-3.2103403753	-0.233652
O	 0.1041398004	-2.1782830213	-3.315998186	-0.264956
H	-0.5358339336	 1.0259353841	-1.8446426452	 0.118072
H	-1.2573847772	-0.5255015688	-2.3197898743	 0.155386
H	-2.1731680667	 0.6098992964	-1.3064505162	 0.106705
H	-0.5762771965	 0.310421759	 0.5637490555	 0.104003
H	-1.26395485	-1.2509925716	 0.0953696176	 0.088878
H	 1.7262467173	-2.6572239586	-0.4097738234	 0.103361
H	-0.0033287678	-2.8019271198	-0.7957496669	 0.092488
H	 2.1074588639	-0.2287246123	-2.4181991818	 0.124078
H	 3.2645089187	-1.5272816229	-2.2497987804	 0.101281
H	 3.3933750056	-0.3260836226	-4.4966881141	 0.113538
H	 3.1155243642	-2.05584024	-4.6883565895	 0.112207
H	 1.7666553081	-0.92288369	-4.8706862519	 0.13739
H	 1.4837045704	-3.6089122409	-4.0977748601	 0.115351
H	 0.4265183416	-4.2059437398	-2.7220493252	 0.10875
31.3713	65.9593	87.5562	124.0297	197.1038	214.3508	263.492	285.8118	341.0075	354.8883	395.3221	422.1503	488.6231	562.9546	699.9394	775.9153	805.5612	818.545	853.3378	901.9209	945.0101	997.777	1012.843	1020.284	1090.3631	1096.4652	1120.8398	1142.0939	1149.5978	1170.5247	1203.6686	1238.7219	1289.0204	1311.2183	1341.682	1375.0925	1384.9503	1400.0336	1408.0458	1419.4944	1434.2221	1471.5219	1486.058	1490.5767	1493.3162	1497.7979	1511.3982	1515.797	1534.801	2981.6463	2993.2654	3028.8413	3036.6441	3041.4667	3042.9474	3062.0586	3073.1056	3084.1427	3103.1697	3107.3563	3125.4313	3138.876	3172.1227
CCOCC1(CC)CO1	CCOC[C@@]1(CC)CO1	
InChI=1S/C7H14O2/c1-3-7(6-9-7)5-8-4-2/h3-6H2,1-2H3	InChI=1S/C7H14O2/c1-3-7(6-9-7)5-8-4-2/h3-6H2,1-2H3/t7-/m0/s1
