15
gdb 24681	3.8624	1.67605	1.19404	4.2796	74.24	-0.2072	-0.0209	0.1863	966.7027	0.116254	-416.838982	-416.832494	-416.83155	-416.869901	25.519	
C	-0.0137403931	 1.4834843787	 0.0611921869	-0.149399
O	 1.324127481	 2.0172411529	 0.049799345	-0.276203
C	 2.1605006732	 1.4177886704	-0.8228419237	 0.364222
C	 3.281373929	 1.8332940938	-1.4807420471	-0.206962
N	 3.8384738269	 0.7639182977	-2.1671947275	-0.271356
C	 3.0741561727	-0.2656835875	-1.924599203	 0.004555
N	 2.0202614113	 0.0675169622	-1.0989867981	-0.098708
C	 0.9707448991	-0.676009004	-0.5585787595	 0.027859
C	-0.0274304556	-0.0233228761	 0.0364570585	-0.151256
H	-0.4689197671	 1.873103413	 0.974549311	 0.133473
H	-0.5723902207	 1.8951785337	-0.7952504446	 0.122257
H	 3.7229899023	 2.8159914458	-1.4940403022	 0.117761
H	 3.1926193471	-1.2645874942	-2.317071858	 0.132522
H	 1.0522936833	-1.7522757712	-0.6409315127	 0.133681
H	-0.8541535694	-0.5537445853	 0.490646365	 0.117555
135.4666	151.5323	321.535	410.4191	442.4446	534.7919	616.1554	659.9933	667.992	721.2534	731.8555	769.2368	814.4097	865.3102	924.2653	929.8278	949.0137	1028.4938	1047.3632	1115.3831	1170.4298	1227.57	1253.6734	1261.4699	1296.75	1315.5009	1386.4535	1420.0097	1457.7702	1494.7257	1528.0666	1630.6046	1718.3363	2970.4277	3100.833	3211.0519	3230.1303	3249.4709	3269.7232
C1OC2=CN=CN2C=C1	C1Oc2cncn2C=C1	
InChI=1S/C6H6N2O/c1-2-8-5-7-4-6(8)9-3-1/h1-2,4-5H,3H2	InChI=1S/C6H6N2O/c1-2-8-5-7-4-6(8)9-3-1/h1-2,4-5H,3H2
