19
gdb 102432	2.84985	0.73688	0.60714	3.2836	85.	-0.2675	-0.0634	0.2042	1820.2434	0.155345	-422.995585	-422.984667	-422.983722	-423.033183	36.497	
C	 0.0400667521	 1.0475299873	 0.9797587111	-0.391162
C	 0.0270799704	-0.345848271	 0.3490944259	-0.182372
C	 0.503943616	-0.3328636274	-1.1134509831	-0.076275
O	 1.8397800911	 0.1318549112	-1.1251096222	-0.225547
C	 2.3497887783	 0.4061125664	-2.4155223359	-0.243228
C	 0.3713686637	-1.659625489	-1.7295453546	 0.136993
C	 0.2808721791	-2.7540331287	-2.2351287669	 0.016915
C	 0.1295608524	-4.0573539186	-2.8280212923	 0.020595
O	 1.0029308358	-4.646337684	-3.4226767808	-0.228666
H	 1.0436611568	 1.4768722021	 0.9478209326	 0.140297
H	-0.6374226556	 1.7279109048	 0.4517026914	 0.113532
H	-0.2825810794	 0.9996548543	 2.0236953122	 0.116407
H	 0.678731012	-1.0265095336	 0.9070475463	 0.122746
H	-0.98070397	-0.773256156	 0.3729136286	 0.110638
H	-0.1359858189	 0.3623338412	-1.6880922098	 0.098709
H	 2.3798716951	-0.4954627179	-3.0416061908	 0.129325
H	 1.7504384622	 1.1731099406	-2.9296827204	 0.106549
H	 3.3662019256	 0.7811062524	-2.2797342985	 0.134294
H	-0.8801156665	-4.4975291841	-2.6969555728	 0.100252
41.1133	63.3739	89.8834	109.8222	129.1514	194.6471	197.5895	223.311	254.7263	303.1279	330.6836	442.0501	503.506	545.9989	671.9398	763.1565	836.6777	911.8914	945.1176	1021.1268	1045.3194	1098.3903	1117.6813	1146.1199	1154.2005	1184.6907	1225.7404	1286.397	1312.8395	1357.5422	1376.7284	1407.8877	1421.9502	1476.5518	1480.6539	1486.6001	1494.7886	1508.9414	1509.9122	1768.1145	2315.7865	2917.3318	2932.6269	2986.1056	3039.6065	3049.2753	3049.8271	3088.4823	3107.7857	3127.0437	3134.5814
CCC(OC)C#CC=O	CC[C@@H](OC)C#CC=O	
InChI=1S/C7H10O2/c1-3-7(9-2)5-4-6-8/h6-7H,3H2,1-2H3	InChI=1S/C7H10O2/c1-3-7(9-2)5-4-6-8/h6-7H,3H2,1-2H3/t7-/m1/s1
