21
gdb 60497	6.31536	0.47323	0.45335	3.0979	77.36	-0.2555	-0.0264	0.2291	2359.1422	0.177906	-461.359195	-461.347935	-461.346991	-461.397485	38.191	
C	-0.0325106065	 1.5556523833	 0.1706707105	-0.403936
C	-0.0108501839	 0.0308022682	 0.0723403089	 0.134754
O	 0.7147083732	-0.5486169512	 1.1569494844	-0.428808
C	-1.4203809304	-0.5631489664	-0.0402785044	-0.213123
C	-1.408175412	-2.0774365623	-0.1928652936	-0.051369
O	-2.7475917598	-2.5336489368	-0.2576009551	-0.251377
C	-2.8584662284	-3.925928891	-0.3782544291	-0.144065
C	-4.3337590328	-4.2836508516	-0.4204049405	 0.139206
O	-4.7462074736	-5.4079961931	-0.5234307841	-0.238322
H	 0.9853158809	 1.9429226368	 0.2662581813	 0.126446
H	-0.4956383895	 2.0050955708	-0.7134908377	 0.119449
H	-0.6071957397	 1.8798018692	 1.0475987189	 0.108498
H	 0.5656408078	-0.2586061495	-0.8159422314	 0.09109
H	 0.3000949532	-0.2520699937	 1.9752362447	 0.277308
H	-2.0023502608	-0.3000004637	 0.8535770019	 0.096447
H	-1.941469029	-0.1186520164	-0.8962412898	 0.107069
H	-0.8646569611	-2.3674719915	-1.1083982965	 0.088806
H	-0.8823845028	-2.5394225163	 0.6553625546	 0.105218
H	-2.3765002239	-4.3051919443	-1.2960967869	 0.12066
H	-2.3895065668	-4.4562027555	 0.4686446253	 0.121209
H	-5.0062628438	-3.400518715	-0.3461293912	 0.094839
39.3407	54.5648	81.1074	82.6957	117.643	147.9658	199.7965	243.6476	268.4128	308.1869	364.7288	425.1933	474.1702	510.4297	573.2714	740.1326	802.0958	854.5698	940.6984	976.6411	1006.4661	1054.412	1064.4774	1093.9637	1114.7058	1132.8566	1167.7915	1179.0221	1218.787	1240.4787	1289.9668	1296.6244	1334.6028	1346.5121	1380.337	1400.9781	1404.7069	1420.6492	1436.4557	1481.5961	1483.6405	1493.5625	1496.1298	1530.3239	1845.075	2896.7801	2954.383	2963.5396	2983.5369	3015.2324	3018.8765	3023.5773	3033.9244	3072.2045	3096.1299	3120.8591	3793.4108
CC(O)CCOCC=O	C[C@@H](O)CCOCC=O	
InChI=1S/C6H12O3/c1-6(8)2-4-9-5-3-7/h3,6,8H,2,4-5H2,1H3	InChI=1S/C6H12O3/c1-6(8)2-4-9-5-3-7/h3,6,8H,2,4-5H2,1H3/t6-/m1/s1
