17
gdb 25633	3.56804	0.96382	0.764	2.1102	89.97	-0.1751	0.0339	0.209	1471.6228	0.13672	-380.889202	-380.879851	-380.878907	-380.924613	33.596	
C	 0.0195773647	 1.4646512067	 0.035493648	-0.51013
C	 0.0137048857	 0.0093132336	 0.0290039558	 0.221399
C	-0.0064948563	-1.1994053483	 0.0233532667	-0.179647
C	-0.0089451344	-2.6120668183	 0.0150465424	 0.151406
C	 1.1244479303	-3.4047689041	-0.1196718628	 0.181718
N	 2.4594349062	-3.0542764872	-0.3541097861	-0.620999
N	 0.7338384989	-4.712051142	-0.0676693128	-0.276535
C	-0.6392729835	-4.7881055965	 0.0949706786	-0.087921
C	-1.1240066976	-3.5116017916	 0.1431925707	-0.277788
H	 0.6528963421	 1.8658204198	 0.8358703606	 0.140346
H	 0.387206584	 1.8747762841	-0.9128170199	 0.141615
H	-0.9910439484	 1.8591221793	 0.1912757479	 0.147425
H	 2.5290722004	-2.0472101128	-0.4528233565	 0.254225
H	 3.0800294674	-3.3414936028	 0.397123922	 0.24339
H	 1.3483982808	-5.4892025173	-0.2363543199	 0.260168
H	-1.1343036297	-5.7420506501	 0.1684456516	 0.116945
H	-2.1542765707	-3.2207083624	 0.2729507337	 0.094386
22.7141	83.1521	106.8148	208.1927	243.9742	263.9409	285.2986	376.6525	456.1343	469.6051	485.4817	563.9966	621.3424	663.0028	712.3701	722.6417	821.901	842.1125	904.902	977.2556	1051.5212	1053.611	1072.1917	1099.3743	1147.4234	1196.1913	1295.0212	1362.5103	1399.3771	1414.5177	1475.9785	1481.0191	1530.0642	1531.5572	1610.2573	1657.9317	2345.0733	3016.6075	3069.4936	3079.9018	3256.1235	3279.0349	3491.0619	3584.5128	3681.3983
CC#CC1=C(N)NC=C1	CC#Cc1c(N)[nH]cc1	
InChI=1S/C7H8N2/c1-2-3-6-4-5-9-7(6)8/h4-5,9H,8H2,1H3	InChI=1S/C7H8N2/c1-2-3-6-4-5-9-7(6)8/h4-5,9H,8H2,1H3
