25
gdb 108637	2.24172	1.15691	0.82858	0.1459	96.92	-0.2145	0.0367	0.2513	1530.453	0.228355	-352.394388	-352.383894	-352.38295	-352.42996	39.221	
C	-0.2741394751	 1.7033144375	-0.3492035111	-0.368678
C	 0.1262231698	 0.2866733112	 0.1028908533	-0.294456
C	 0.7814621761	-0.5241884404	-0.9789265536	 0.235558
C	 2.0608847507	-0.9191426896	-1.0600475144	 0.214705
C	 3.1802855805	-0.6670940037	-0.0978522848	-0.499041
C	 2.2978683825	-1.7703960441	-2.2910214878	-0.300741
C	 1.0397677704	-1.5330898788	-3.1605776097	 0.048328
C	 0.6222994016	-2.7225784443	-4.0234641652	-0.403068
C	-0.0282574757	-1.0600452177	-2.1452371105	-0.30996
H	 0.6056135019	 2.2761703212	-0.6588361229	 0.117299
H	-0.9664785315	 1.6741240205	-1.1964845729	 0.117831
H	-0.7661138251	 2.2478028475	 0.4631034454	 0.109568
H	 0.7847540427	 0.3634568391	 0.9744282883	 0.097817
H	-0.775511497	-0.23928285	 0.4479324042	 0.097917
H	 3.5964292837	-1.6119519942	 0.2767115721	 0.121096
H	 4.0093765353	-0.1405314876	-0.5887637562	 0.121218
H	 2.8725048996	-0.0718919984	 0.7652882481	 0.120298
H	 3.2261946823	-1.5119773647	-2.8165157997	 0.091445
H	 2.3961751301	-2.8310977318	-2.0084275685	 0.093125
H	 1.2573665785	-0.6840708858	-3.8210409194	 0.072091
H	 0.3951527045	-3.5971960322	-3.4025747641	 0.110626
H	-0.2714392528	-2.4937136865	-4.6142661081	 0.109531
H	 1.4168755816	-3.0083689669	-4.72144881	 0.109624
H	-0.6610974908	-1.8982779159	-1.8113245792	 0.093148
H	-0.7128592236	-0.3203201245	-2.5774620932	 0.09472
57.5045	80.7897	141.415	168.1932	196.6847	214.4387	244.9475	274.7661	306.6296	361.0182	420.6139	431.1966	525.1541	568.2421	586.9984	736.3363	785.1264	847.7088	906.7453	921.4231	922.7714	948.3375	977.064	1012.1736	1026.1795	1069.5204	1080.0435	1105.7038	1122.6001	1154.9971	1189.1416	1193.9039	1233.0151	1239.2719	1297.8724	1308.8829	1332.4412	1349.6236	1360.388	1376.1875	1407.1207	1411.885	1414.9134	1477.7791	1480.9058	1485.8042	1492.997	1493.9859	1498.1472	1498.6582	1501.2723	1508.8848	1734.4841	2977.3001	2978.088	3005.7465	3011.8793	3013.9086	3023.3843	3034.6201	3035.7934	3046.1862	3052.7493	3064.1168	3090.3618	3091.9978	3104.4883	3108.8198	3113.7729
CCC1=C(C)CC(C)C1	CCC1=C(C)C[C@@H](C)C1	
InChI=1S/C9H16/c1-4-9-6-7(2)5-8(9)3/h7H,4-6H2,1-3H3	InChI=1S/C9H16/c1-4-9-6-7(2)5-8(9)3/h7H,4-6H2,1-3H3/t7-/m1/s1
