18
gdb 54544	3.4143	1.32666	1.26575	2.5006	75.43	-0.2388	-0.019	0.2199	1064.8064	0.147053	-401.897754	-401.889648	-401.888704	-401.931486	30.269	
C	-0.0357362346	 1.4829709833	-0.0802779526	-0.492807
C	 0.0877675097	-0.0277139092	 0.0210584394	 0.241563
O	 1.1602580796	-0.5862304867	 0.1058962981	-0.298942
C	-1.1917441376	-0.800679447	 0.0023884332	 0.230937
C	-2.1631773824	-0.788362166	 1.2297430711	-0.292498
C	-2.6265531178	-2.149326161	 0.7178743909	-0.035337
C	-1.3788760629	-2.3619436343	-0.0514503646	-0.102843
N	-2.657828023	-2.1462490696	-0.7872627399	-0.14541
C	-2.2019603908	-0.7742024639	-1.1719570354	-0.196965
H	 0.9507457267	 1.9393948532	 0.0088788551	 0.144855
H	-0.4806769032	 1.7618301881	-1.0426383177	 0.144309
H	-0.6981448063	 1.8721189051	 0.7008984519	 0.140276
H	-1.6218031137	-0.8946763708	 2.1732157597	 0.122492
H	-2.8804597045	 0.0368601101	 1.2960462814	 0.10097
H	-3.2633344965	-2.8741449358	 1.2066983427	 0.106846
H	-0.7106315381	-3.1991445448	-0.1929703896	 0.112152
H	-2.976211083	 0.0022147882	-1.1735670193	 0.100526
H	-1.7244714714	-0.8325178589	-2.1532589244	 0.119877
31.1319	97.2455	151.532	168.0748	330.3442	393.8827	437.4891	522.189	588.3162	604.9458	725.4016	750.4611	800.0417	849.0338	889.378	923.3923	951.9814	968.9438	992.8866	994.2859	1011.3572	1022.9983	1081.5644	1104.6632	1120.235	1160.3567	1162.5571	1179.3986	1204.6899	1250.5937	1275.3502	1333.7721	1346.9229	1384.7054	1461.8947	1473.7595	1489.7464	1511.6715	1794.2696	3030.5367	3034.8333	3042.7266	3095.0787	3104.9653	3110.3846	3151.7181	3209.0943	3227.8947
CC(=O)C12CC3C1N3C2	CC(=O)[C@]12C[C@@H]3[C@H]1N3C2	
InChI=1S/C7H9NO/c1-4(9)7-2-5-6(7)8(5)3-7/h5-6H,2-3H2,1H3	InChI=1S/C7H9NO/c1-4(9)7-2-5-6(7)8(5)3-7/h5-6H,2-3H2,1H3/t5-,6-,7-,8?/m1/s1
