18
gdb 61477	2.71045	0.88291	0.82067	4.8432	78.59	-0.2766	0.0191	0.2957	1477.6309	0.144693	-401.928992	-401.91868	-401.917736	-401.964747	36.728	
C	 0.6461468465	-0.2622957442	-1.4313990175	-0.406279
C	-0.0192594253	 0.1024660756	-0.0912654082	-0.126021
C	-1.4527766306	-0.4599349456	 0.0175390373	-0.19955
C	-2.2097339165	 0.0811037145	 1.2472219523	-0.071798
O	-2.2495367383	 1.5077080854	 1.2437055973	-0.416851
C	-3.550501604	-0.4989387946	 1.3313211443	 0.283304
C	-4.6643141964	-0.9505011582	 1.3524039988	-0.425031
C	 0.8007500433	-0.3636192661	 1.0331837867	 0.273454
N	 1.4388251181	-0.7459792675	 1.9182577141	-0.333042
H	 1.6560943106	 0.1500547576	-1.4926327447	 0.140107
H	 0.7122790631	-1.3472307161	-1.5529489646	 0.13777
H	 0.0561692289	 0.1422619051	-2.258627874	 0.125456
H	-0.0884822877	 1.1928244057	-0.0051370709	 0.144162
H	-2.0043134352	-0.1785207145	-0.8868845742	 0.106479
H	-1.4288395464	-1.5538844496	 0.0566894005	 0.128186
H	-1.644443692	-0.1836733162	 2.1492879655	 0.145772
H	-2.9685170424	 1.7775253428	 0.6613983544	 0.288521
H	-5.6457299656	-1.354828884	 1.3974143429	 0.205361
51.9056	79.123	114.0391	164.6783	212.5672	215.0965	263.956	271.868	299.1397	330.036	427.8925	521.3637	570.3808	571.5133	597.2104	639.9302	681.7257	785.247	852.3466	924.9705	952.9997	1007.3361	1055.3482	1094.6831	1110.7594	1149.2238	1197.9442	1279.4753	1282.423	1333.6942	1365.2309	1377.3276	1412.839	1421.6267	1474.186	1492.6679	1500.3995	2235.0966	2353.4788	3037.7703	3046.0495	3047.7032	3057.3185	3094.8437	3121.6996	3128.5198	3501.1159	3805.9372
CC(CC(O)C#C)C#N	C[C@@H](C[C@@H](O)C#C)C#N	
InChI=1S/C7H9NO/c1-3-7(9)4-6(2)5-8/h1,6-7,9H,4H2,2H3	InChI=1S/C7H9NO/c1-3-7(9)4-6(2)5-8/h1,6-7,9H,4H2,2H3/t6-,7-/m0/s1
