18
gdb 85732	1.93652	1.53727	0.96222	2.8761	79.7	-0.2299	-0.0324	0.1975	1243.472	0.144745	-401.89172	-401.882253	-401.881309	-401.926597	33.93	
C	-0.2489616303	 1.5766337538	-0.0393177243	-0.330765
N	-0.1663351013	 0.1348341799	 0.0413881351	-0.069437
C	-1.3041647603	-0.6186759484	 0.588388273	-0.169138
C	-0.2988711547	-1.6010045434	 1.2665994565	-0.230915
C	-0.0922270161	-2.8612491854	 0.5809984815	 0.355184
C	 0.0706192585	-3.9119277753	 0.0199285956	-0.471423
C	 0.7697273405	-0.4720988392	 0.9955722096	-0.060636
C	 2.1025785764	-0.8955606305	 0.4102733732	 0.15814
O	 3.1309893794	-0.9236026298	 1.0348247056	-0.245727
H	 0.7055450758	 1.984760935	-0.3870363913	 0.130218
H	-1.0187363229	 1.8611035267	-0.763951707	 0.12877
H	-0.4943223209	 2.0521335672	 0.9286672101	 0.097731
H	-1.8841756109	-0.0583758954	 1.3391626571	 0.09182
H	-1.9845191248	-1.0395418895	-0.1572453543	 0.118999
H	-0.4770391895	-1.7737082696	 2.3294147834	 0.120369
H	 0.2189460337	-4.8396016217	-0.4752972172	 0.204169
H	 0.9491495104	 0.1165428041	 1.9085658864	 0.080383
H	 2.0453617669	-1.1868712185	-0.6602858129	 0.092258
55.9419	72.3227	130.8517	194.2799	205.9573	240.2661	263.9339	328.2027	390.0699	463.5147	505.6934	556.9297	629.4596	643.3519	703.3502	802.0521	860.4326	944.3641	983.6583	1013.0409	1037.6679	1093.1218	1109.1888	1138.8672	1161.6053	1187.6827	1224.3001	1248.0743	1266.1949	1309.3698	1336.915	1349.0275	1405.9463	1453.5208	1485.5837	1498.9528	1518.1765	1831.3255	2236.8524	2912.1331	2934.3801	2973.8284	2989.4172	3062.5442	3080.8976	3094.5105	3104.7487	3503.2386
CN1CC(C#C)C1C=O	CN1C[C@@H](C#C)[C@H]1C=O	
InChI=1S/C7H9NO/c1-3-6-4-8(2)7(6)5-9/h1,5-7H,4H2,2H3	InChI=1S/C7H9NO/c1-3-6-4-8(2)7(6)5-9/h1,5-7H,4H2,2H3/t6-,7-/m1/s1
