20
gdb 10344	2.30405	1.70997	1.10482	2.7313	72.31	-0.2331	-0.0146	0.2185	1149.0541	0.173344	-386.154489	-386.144267	-386.143322	-386.190021	35.223	
C	-0.0714100231	 0.9437177931	 0.945039332	-0.382308
C	-0.0436065866	-0.4089491378	 0.229782151	-0.197749
C	 0.5764513754	-0.3219244698	-1.1757137025	 0.029526
O	 1.8958100934	 0.1283744447	-1.0266605348	-0.226631
C	 2.5110732254	 0.5838000943	-2.2157724679	-0.243048
C	 0.4942166406	-1.6800725832	-1.9000118209	 0.362623
C	-0.8998619327	-2.203220877	-2.2148374803	-0.480007
O	 1.4874031634	-2.2984041702	-2.1998204092	-0.295597
H	 0.936315988	 1.3576545857	 1.0188907732	 0.140356
H	-0.6948637246	 1.6635085324	 0.4027384577	 0.110084
H	-0.4795705656	 0.841319435	 1.9549585904	 0.11266
H	 0.5444729831	-1.1299681658	 0.8097607574	 0.119265
H	-1.0587466824	-0.8119462835	 0.1500180677	 0.100405
H	-0.0114171101	 0.3991327454	-1.7770557907	 0.068276
H	 2.6511153983	-0.2258149853	-2.9398796049	 0.131769
H	 1.9251124719	 1.3909554768	-2.6836200037	 0.096786
H	 3.4883807804	 0.9814307316	-1.932165387	 0.126968
H	-1.6021680763	-1.3976415228	-2.448245874	 0.128986
H	-0.841236966	-2.9062071356	-3.0473956807	 0.145847
H	-1.2929786725	-2.7393591283	-1.3433453029	 0.151789
58.9457	82.3534	111.6556	124.905	176.636	191.8069	211.6263	272.5144	289.3297	338.7224	435.7075	471.6353	567.7397	622.5052	760.7139	819.2425	928.0815	937.4376	982.1861	997.0661	1054.9987	1111.9955	1133.3973	1163.9088	1177.7612	1195.4084	1239.5797	1279.4822	1317.6107	1371.6432	1376.8586	1382.8231	1407.3291	1465.4578	1472.096	1479.2516	1481.6096	1485.0812	1495.316	1509.8821	1514.5387	1816.0076	2914.0747	2980.8393	3037.5193	3038.4091	3041.4093	3071.8933	3081.1073	3103.3328	3104.9509	3121.1305	3135.1916	3146.4419
CCC(OC)C(C)=O	CC[C@@H](OC)C(=O)C	
InChI=1S/C6H12O2/c1-4-6(8-3)5(2)7/h6H,4H2,1-3H3	InChI=1S/C6H12O2/c1-4-6(8-3)5(2)7/h6H,4H2,1-3H3/t6-/m1/s1
