16
gdb 45082	2.88719	1.84274	1.31022	3.5112	70.	-0.2553	0.0018	0.2571	951.4607	0.126024	-437.859335	-437.85248	-437.851536	-437.890696	27.256	
N	-0.0927864	 1.2628207329	 0.2760145321	-0.513057
C	-0.0185838849	 0.03767789	-0.0342587033	 0.403891
O	 1.1807002984	-0.5957795153	-0.2026075622	-0.259251
C	 1.3107887245	-1.754257981	-0.9989752346	 0.093014
C	 1.1506091615	-3.1137957063	-0.3924562827	-0.313201
C	 0.1024902961	-2.5754897779	-1.349950788	-0.095526
C	-1.2081643706	-2.097798893	-0.8004382981	 0.026745
O	-1.3031464574	-1.9810768267	 0.6141326184	-0.24454
C	-1.2630769255	-0.7698517905	-0.1617888417	-0.038195
H	 0.842547748	 1.6742405415	 0.3132427408	 0.223974
H	 2.0811168906	-1.6044580682	-1.7481474064	 0.112164
H	 1.8066327109	-3.9067375881	-0.732305737	 0.120841
H	 0.8598129583	-3.1522305119	 0.6502496378	 0.151993
H	 0.0524744038	-2.9875113027	-2.3519865639	 0.101204
H	-2.1053538195	-2.4766788301	-1.2869432363	 0.105733
H	-2.1722696442	-0.1774687427	-0.1527156349	 0.124212
87.4599	204.7342	259.3068	378.008	419.9188	473.1238	504.4845	590.7586	674.9196	732.8631	760.0066	803.1026	838.9973	872.5952	900.3385	911.0827	930.9198	1001.9184	1032.4298	1064.7243	1071.0546	1100.1584	1103.9547	1126.9212	1142.2581	1180.9483	1245.1285	1267.1984	1310.2644	1374.0259	1387.2708	1413.8954	1439.4808	1478.9037	1745.1227	3125.1556	3146.7039	3159.7575	3171.5554	3177.9036	3244.9921	3463.7751
N=C1OC2CC2C2OC12	[NH][C]1O[C@H]2C[C@H]2[C@H]2O[C@@H]12	
InChI=1S/C6H7NO2/c7-6-5-4(9-5)2-1-3(2)8-6/h2-5,7H,1H2	InChI=1S/C6H7NO2/c7-6-5-4(9-5)2-1-3(2)8-6/h2-5,7H,1H2/t2-,3+,4-,5-/m1/s1
