16
gdb 29929	2.10054	1.89565	1.00367	2.3576	83.72	-0.1831	0.0026	0.1857	1134.1563	0.124656	-396.941774	-396.932807	-396.931863	-396.975346	32.904	
C	-0.0446213078	 1.4322802944	 0.0478640521	-0.340107
N	-0.0045237128	-0.0135927735	 0.029328951	-0.069296
C	-0.0221596501	-0.8225354723	-1.0503930957	-0.005086
N	 0.0254343229	-2.1055750897	-0.7357705523	-0.317498
C	 0.0802853002	-2.136871052	 0.6264780162	 0.203865
N	 0.2004353694	-3.331248864	 1.3110189868	-0.603659
C	 0.0595298311	-0.8480314035	 1.1532994592	 0.098945
C	 0.0878888084	-0.3867554705	 2.4740152806	 0.235151
C	 0.1014856004	-0.0079033906	 3.6214079402	-0.463876
H	 0.8539905033	 1.8395706127	 0.5207833288	 0.151071
H	-0.1016925	 1.795477769	-0.9798709569	 0.141167
H	-0.9183582123	 1.7888807986	 0.6013707237	 0.150204
H	-0.0727797976	-0.4281371142	-2.054956839	 0.128773
H	-0.1533601373	-4.1187976718	 0.7866330427	 0.253858
H	-0.1439066955	-3.3078751958	 2.2600560593	 0.252483
H	 0.1349179379	 0.3233687832	 4.6291304734	 0.184003
84.2752	122.9411	137.9515	178.1864	267.9534	308.6973	330.738	391.2158	398.5824	491.4446	553.9443	571.4837	624.4599	632.2541	683.6356	695.0648	759.7644	810.0936	814.5422	1042.871	1076.1282	1118.4784	1153.9629	1249.5829	1282.929	1354.148	1406.4721	1453.9806	1468.541	1475.5336	1520.2316	1543.2268	1596.3007	1647.3205	2206.8239	3043.0554	3104.6184	3140.0513	3244.3864	3503.5633	3561.088	3667.0047
CN1C=NC(N)=C1C#C	Cn1cnc(N)c1C#C	
InChI=1S/C6H7N3/c1-3-5-6(7)8-4-9(5)2/h1,4H,7H2,2H3	InChI=1S/C6H7N3/c1-3-5-6(7)8-4-9(5)2/h1,4H,7H2,2H3
