15
gdb 21260	7.33019	1.30804	1.12576	2.9269	65.18	-0.2196	0.0022	0.2218	1037.7801	0.119348	-395.969985	-395.962199	-395.961255	-396.002485	27.02	
C	 0.0108483406	 1.4125507775	 0.0699097018	-0.237944
O	 0.0486054539	-0.0107272787	-0.0275061466	-0.270179
C	 0.6271327106	-0.6462885447	 1.0018651911	 0.40822
C	 0.7843705271	-2.0106887599	 1.1398476692	-0.228821
N	 1.4177502306	-2.1327339651	 2.3350459331	 0.091453
C	 1.8487019955	-3.3365143111	 3.0151306677	-0.328088
N	 1.6361465649	-0.9363131887	 2.8945539529	-0.160242
N	 1.1540235492	-0.0242521475	 2.0821578745	-0.284534
H	 1.0207428864	 1.8302626766	 0.1304464562	 0.137056
H	-0.4859266423	 1.7575592997	-0.8378333358	 0.127562
H	-0.5508480383	 1.7322521785	 0.9532694665	 0.137052
H	 0.5134664367	-2.8486254908	 0.5227393058	 0.142648
H	 2.5713885963	-3.8861748555	 2.405501156	 0.147654
H	 2.3185015982	-3.0261484388	 3.9482632162	 0.170503
H	 0.9943205605	-3.9838606417	 3.2320040716	 0.14766
80.834	108.3076	161.0756	198.5235	214.302	345.9426	377.1636	505.2593	647.7407	668.4801	702.6484	751.4189	767.2525	1018.6736	1049.2047	1065.4314	1073.1	1151.7383	1180.7394	1185.7627	1215.1464	1272.7216	1317.9192	1400.081	1443.6387	1475.5962	1480.3974	1483.5371	1490.4783	1502.3845	1519.8689	1624.5443	3035.7699	3049.0499	3103.7818	3113.8064	3145.6135	3164.7652	3294.8956
COC1=CN(C)N=N1	COc1cn(C)nn1	
InChI=1S/C4H7N3O/c1-7-3-4(8-2)5-6-7/h3H,1-2H3	InChI=1S/C4H7N3O/c1-7-3-4(8-2)5-6-7/h3H,1-2H3
