20
gdb 126226	1.8964	1.79221	0.99443	2.1688	83.19	-0.193	0.0291	0.2221	1233.4054	0.171666	-399.351855	-399.341884	-399.34094	-399.387407	35.282	
C	 0.0304399598	 1.5742522982	 0.1648994275	-0.370945
C	 0.0117492528	 0.0401387513	 0.0210011956	-0.310385
C	 0.6472360154	-0.4711761051	-1.2316263491	 0.33523
C	 0.0660311646	-0.7919354088	-2.4505374921	 0.064478
N	-1.3164750691	-0.7431338919	-2.7481763421	-0.61374
C	 1.1354213381	-1.2358531909	-3.2550797171	-0.06339
N	 2.2942391526	-1.1987435521	-2.5989183345	-0.278829
N	 1.9836424125	-0.7195961499	-1.3794450367	-0.018553
C	 3.031714422	-0.5606643516	-0.3963458598	-0.331518
H	 1.0535515125	 1.9621201764	 0.1961769963	 0.119876
H	-0.4755633341	 2.0537523465	-0.6789040914	 0.117331
H	-0.4753897484	 1.8848534834	 1.08467661	 0.114958
H	 0.4917567747	-0.4106984155	 0.8982525122	 0.105222
H	-1.0268624634	-0.3097560877	 0.0239247499	 0.125545
H	-1.6864840977	 0.2003302358	-2.7142461436	 0.240255
H	-1.5033984237	-1.1113677113	-3.6728234677	 0.23891
H	 1.1050820926	-1.5883230487	-4.2767021326	 0.096099
H	 3.1373394363	 0.4851215991	-0.088950498	 0.133806
H	 2.8385915771	-1.1701349918	 0.4929986018	 0.13522
H	 3.9582827153	-0.8931545353	-0.8629686785	 0.160429
53.9552	79.1498	101.9221	135.825	174.6887	189.8212	271.2701	292.4653	324.1248	400.8458	499.3148	588.4696	660.3657	687.6563	719.7969	755.4484	796.8021	827.1923	849.8754	966.7829	996.2778	1050.9372	1078.3442	1105.8056	1148.5568	1169.5487	1217.7142	1251.4311	1298.0686	1349.1179	1359.3685	1406.3597	1407.8729	1426.5259	1455.8846	1479.7603	1484.8635	1495.7787	1500.6561	1505.9604	1534.9542	1625.817	1656.2561	3027.3266	3032.8719	3034.7841	3067.5409	3086.8855	3106.1022	3108.11	3162.7635	3231.4283	3513.814	3599.556
CCC1=C(N)C=NN1C	CCc1c(N)cnn1C	
InChI=1S/C6H11N3/c1-3-6-5(7)4-8-9(6)2/h4H,3,7H2,1-2H3	InChI=1S/C6H11N3/c1-3-6-5(7)4-8-9(6)2/h4H,3,7H2,1-2H3
