14
gdb 48020	5.43954	0.69895	0.65969	2.878	73.92	-0.2702	-0.0666	0.2036	1607.3094	0.100638	-436.665453	-436.657048	-436.656103	-436.700815	27.91	
O	-0.095970678	 0.0205458653	-0.2177983039	-0.227338
C	 0.0068175819	 1.192166461	 0.0640554899	 0.023568
C	 1.2469817585	 1.926270115	 0.0526721276	-0.012966
C	 2.2652062226	 2.5753567248	 0.0560147051	 0.175663
C	 3.5184837948	 3.3172774903	 0.0373252252	-0.183897
C	 4.3528891449	 3.0898345011	-1.2679300899	-0.119468
O	 4.5405399659	 4.4230655063	-1.7907874384	-0.211479
C	 3.895309324	 5.2478687071	-0.9374542695	 0.134391
N	 3.3045723863	 4.7862478273	 0.08445243	-0.254633
H	-0.8734723928	 1.7981843917	 0.3586396951	 0.105915
H	 4.0954495335	 3.0246053495	 0.9234545499	 0.135994
H	 5.3339744288	 2.6523895651	-1.0736198806	 0.135574
H	 3.8237856409	 2.4932406123	-2.0131490023	 0.143573
H	 3.9405395487	 6.2965033233	-1.2094668083	 0.155102
35.721	53.2632	81.3175	138.4122	206.0515	276.8435	443.5496	452.4025	537.8108	652.1596	726.1972	810.3996	874.1046	949.5588	965.6511	968.9753	988.6073	1021.8578	1048.7847	1134.3558	1173.3481	1218.6471	1260.084	1313.8013	1343.8691	1374.8403	1420.6636	1516.5809	1703.0237	1768.7908	2331.0334	2925.8907	3027.6866	3076.8725	3132.9193	3220.9281
O=CC#CC1COC=N1	O=CC#C[C@H]1COC=N1	
InChI=1S/C6H5NO2/c8-3-1-2-6-4-9-5-7-6/h3,5-6H,4H2	InChI=1S/C6H5NO2/c8-3-1-2-6-4-9-5-7-6/h3,5-6H,4H2/t6-/m0/s1
