17
gdb 34742	3.02547	1.65018	1.46874	1.8254	76.35	-0.2275	0.0428	0.2703	945.4759	0.136996	-384.619983	-384.612947	-384.612003	-384.651289	28.543	
C	-0.1327773468	-1.2792543358	-0.1431736662	-0.460195
C	-0.061525871	-0.0843694592	-0.0245490922	 0.334299
C	 0.0187269549	 1.3615962688	 0.0893650403	-0.181448
C	-0.2390881396	 2.0489365833	 1.4390585651	-0.115248
C	 1.0135469575	 2.0032310808	 2.2926948307	 0.121965
O	 1.9811770643	 1.0079086954	 2.05927691	-0.267422
C	 2.4856271217	 1.2200619477	 0.7331129497	-0.080714
C	 1.4257753817	 2.0818567122	 0.0545271167	-0.097565
C	 0.936093654	 3.0088067927	 1.2009905467	-0.141102
H	-0.1957020923	-2.3356867399	-0.2290102108	 0.194358
H	-0.6209611789	 1.8226879444	-0.6701976391	 0.106537
H	-1.2175231477	 2.2530277652	 1.8589048365	 0.091039
H	 0.9276838986	 2.2848659087	 3.3352671437	 0.105996
H	 3.4564106516	 1.737013461	 0.7719725688	 0.092303
H	 2.6136976784	 0.2443952757	 0.2556394516	 0.121744
H	 1.7206268638	 2.5143240089	-0.9000636939	 0.081553
H	 1.0158563497	 4.0844715901	 1.2757455124	 0.093902
118.8096	146.193	249.7344	349.7908	431.5953	528.0626	551.306	620.7212	641.1372	652.9471	723.6432	769.1048	801.8858	821.393	833.9738	893.3213	928.2543	968.5316	997.5219	1013.7766	1027.75	1052.9023	1059.6642	1070.9201	1089.8123	1132.4275	1167.3589	1213.0441	1227.3483	1246.8793	1285.0248	1315.9108	1340.6157	1365.9615	1417.6044	1508.1656	2229.8674	2990.803	3050.7915	3090.0797	3131.3467	3173.2178	3192.2458	3209.1284	3503.7977
C#CC1C2C3OCC1C23	C#C[C@H]1[C@H]2[C@H]3OC[C@@H]1[C@@H]23	
InChI=1S/C8H8O/c1-2-4-5-3-9-8-6(4)7(5)8/h1,4-8H,3H2	InChI=1S/C8H8O/c1-2-4-5-3-9-8-6(4)7(5)8/h1,4-8H,3H2/t4-,5+,6-,7+,8-/m1/s1
