17
gdb 85760	3.35807	1.20177	1.03308	4.2037	71.66	-0.2593	0.033	0.2923	1150.8784	0.138234	-418.004536	-417.996712	-417.995768	-418.03713	30.004	
O	 0.0508351739	 1.3812913337	 0.0021678486	-0.436624
C	 0.020281863	-0.0277315436	-0.0648313061	 0.151129
C	 0.76464606	-0.7163606208	 1.113835877	-0.274305
C	 0.0352487348	-2.0686104897	 1.3441078874	-0.150142
C	 0.1206559884	-2.5596084869	 2.7186249114	 0.278467
N	 0.1847188168	-2.9547286711	 3.8028288515	-0.325759
C	-1.3944221061	-1.7986771354	 0.8688206081	-0.046261
N	-1.9330590703	-0.5176600694	 1.3591248258	-0.338416
C	-1.3829183109	-0.6134013263	-0.0131374468	-0.08406
H	-0.4709751914	 1.6270330114	 0.7766533775	 0.289895
H	 0.488151405	-0.2873156074	-1.0208337777	 0.095798
H	 1.8293243982	-0.8501656328	 0.9174169088	 0.121414
H	 0.6636868372	-0.0905130261	 2.0022205238	 0.137554
H	 0.4626286617	-2.839800439	 0.6912521653	 0.127879
H	-2.0672889066	-2.6354042922	 0.7176589137	 0.108821
H	-2.9484270008	-0.5473785405	 1.3296521815	 0.2442
H	-2.0476934329	-0.513932684	-0.8643083499	 0.100409
82.2634	132.4705	161.0608	281.0562	354.9309	397.4126	433.8549	468.6805	558.4017	571.4641	623.1472	662.4798	812.5222	832.1169	886.1106	901.849	916.9764	991.5689	1009.1466	1032.2469	1044.1562	1074.62	1103.6201	1123.4433	1165.6635	1198.3703	1254.0687	1266.2406	1291.365	1322.5219	1328.9551	1345.5742	1370.7123	1423.8848	1440.8646	1484.5952	2358.6568	3038.627	3056.5051	3088.1128	3138.9723	3170.78	3181.5162	3517.975	3778.024
OC1CC(C#N)C2NC12	O[C@H]1C[C@@H](C#N)[C@H]2N[C@@H]12	
InChI=1S/C6H8N2O/c7-2-3-1-4(9)6-5(3)8-6/h3-6,8-9H,1H2	InChI=1S/C6H8N2O/c7-2-3-1-4(9)6-5(3)8-6/h3-6,8-9H,1H2/t3-,4-,5+,6-/m0/s1
