17
gdb 20897	4.67195	1.41375	1.17147	1.6093	72.3	-0.1945	0.0359	0.2304	1047.3562	0.144165	-360.069523	-360.061576	-360.060632	-360.102195	29.408	
C	 0.1182432392	 1.5109098026	 0.0793786851	-0.370044
C	-0.0812148107	 0.0088451437	-0.1295282256	-0.13788
N	 0.6916769633	-0.5098080552	-1.2409671631	 0.059883
C	 1.7859871038	-1.3012094939	-1.2074591374	-0.012701
C	 2.20588264	-1.4820095231	-2.5091981284	-0.313124
C	 1.2756837765	-0.7410205154	-3.2775592946	 0.382607
N	 1.283181504	-0.5392379884	-4.6589901474	-0.588721
N	 0.3573294226	-0.1569414788	-2.5106908095	-0.35101
H	 1.1617136224	 1.7371521626	 0.3181229823	 0.122691
H	-0.1530508671	 2.0538752417	-0.828768613	 0.14842
H	-0.5108754574	 1.8652233319	 0.9018385888	 0.114343
H	 0.2183488369	-0.5533508622	 0.7599050477	 0.1136
H	-1.1374152703	-0.2087190351	-0.3202934708	 0.124686
H	 2.1806924481	-1.6725611866	-0.2740654395	 0.122832
H	 3.0521739374	-2.0537972941	-2.8532648723	 0.093997
H	 1.5328758978	-1.368350421	-5.1808847855	 0.243049
H	 0.3970566935	-0.1727353386	-4.9828119668	 0.247372
51.1578	111.7993	210.2535	254.8617	294.8307	315.5097	399.1485	452.3539	616.4045	638.5748	680.2062	730.9815	738.1227	781.8976	797.0533	815.6609	958.7905	1012.6994	1021.6603	1069.1675	1091.6406	1114.8372	1151.2296	1250.0473	1279.5126	1352.5991	1389.084	1406.6603	1423.3901	1479.1177	1483.1688	1488.1802	1508.2503	1534.029	1592.0606	1647.4707	3044.1333	3047.9515	3093.4093	3116.1874	3137.2067	3247.8865	3270.8219	3542.661	3638.3128
CCN1C=CC(N)=N1	CCn1ccc(N)n1	
InChI=1S/C5H9N3/c1-2-8-4-3-5(6)7-8/h3-4H,2H2,1H3,(H2,6,7)	InChI=1S/C5H9N3/c1-2-8-4-3-5(6)7-8/h3-4H,2H2,1H3,(H2,6,7)
