19
gdb 36520	3.98895	0.9711	0.82768	1.8414	77.37	-0.2586	0.0525	0.3112	1379.4331	0.159387	-422.995777	-422.987223	-422.986279	-423.029267	32.498	
C	-0.0262464016	-1.2491541733	-0.0191278911	-0.437982
C	-0.0131624341	-0.0489057186	 0.0320794223	 0.307541
C	 0.0070239764	 1.4078218815	 0.0694021193	-0.378808
C	 1.4203883977	 2.0008802193	 0.0282614413	 0.129709
C	 1.4241354567	 3.5277647292	-0.1127569553	-0.216316
C	 2.8572743553	 4.038951949	 0.0624850539	-0.097169
O	 3.4184646913	 3.5453338912	 1.2707923129	-0.23182
C	 3.3765186885	 2.1438871184	 1.3069065578	 0.017501
O	 2.0699873833	 1.6355784667	 1.2418523659	-0.24555
H	-0.0393909437	-2.3101424104	-0.0532808745	 0.194441
H	-0.5618623757	 1.8078841418	-0.7793719144	 0.128415
H	-0.4862213787	 1.7680200535	 0.9804589027	 0.140849
H	 1.9705363776	 1.5584322186	-0.8200154191	 0.076432
H	 1.0300039893	 3.8266234444	-1.0907064642	 0.099205
H	 0.784717889	 3.9626316576	 0.66368207	 0.112993
H	 3.4763428731	 3.7222962187	-0.7947172717	 0.089968
H	 2.8942326281	 5.1295342483	 0.1220789631	 0.114516
H	 3.9792411788	 1.7297968745	 0.4749732427	 0.075847
H	 3.7927218986	 1.8335184197	 2.2670012385	 0.120227
67.8659	97.376	172.4691	259.7187	289.5951	342.3963	369.831	383.2289	487.0149	497.0581	551.4709	615.3395	642.0035	678.079	822.2866	870.5685	912.5246	945.4614	955.2327	1001.8374	1059.8053	1066.5935	1078.8732	1115.6064	1156.7919	1191.1034	1231.3222	1251.9113	1272.1089	1305.6124	1330.8389	1356.8716	1382.6468	1396.9381	1404.7246	1448.2035	1455.5343	1470.0119	1497.8073	1509.9137	2243.2563	2914.2623	2956.6869	2964.9033	3026.9885	3038.0542	3065.7676	3087.6921	3096.434	3117.2392	3507.0757
C#CCC1CCOCO1	C#CC[C@H]1CCOCO1	
InChI=1S/C7H10O2/c1-2-3-7-4-5-8-6-9-7/h1,7H,3-6H2	InChI=1S/C7H10O2/c1-2-3-7-4-5-8-6-9-7/h1,7H,3-6H2/t7-/m0/s1
