16
gdb 32514	2.58873	1.29783	0.87041	3.8074	74.78	-0.2099	-0.0467	0.1633	1271.3822	0.124386	-437.911532	-437.903049	-437.902105	-437.944937	30.64	
C	-0.007730651	 1.4047772307	-0.0265595987	-0.33075
N	 0.0191077196	-0.0383349928	 0.1336863074	-0.389454
C	-1.1844755108	-0.7196592947	 0.043327101	 0.163323
C	-2.4486129729	-0.204502335	 0.0285811747	-0.094184
O	-3.3743511254	-1.2270588429	-0.0005274344	-0.139331
C	-2.7003244954	-2.3783976103	-0.0178353985	-0.045143
C	-1.3469452441	-2.1610796412	 0.0124397325	 0.063128
C	-0.3210949148	-3.1962878484	 0.0372876457	 0.063884
O	-0.5392099597	-4.3884779458	-0.0121722536	-0.281053
H	 1.0114142844	 1.7926511867	 0.0308883461	 0.130298
H	-0.4577088287	 1.7298953836	-0.9783245119	 0.116329
H	-0.5843314662	 1.8527253394	 0.7902976444	 0.137648
H	 0.7764532629	-0.4852201226	-0.3613433862	 0.242889
H	-2.8542248969	 0.7904879021	 0.046866811	 0.136726
H	-3.2777961661	-3.2876457194	-0.0453218725	 0.169686
H	 0.7235698351	-2.8184872395	 0.1164601229	 0.056006
95.8867	143.4136	154.0803	188.4163	228.9915	239.7189	353.1312	375.7796	520.1486	562.3982	613.6987	639.1763	701.5714	717.5978	803.8208	829.0121	905.5378	1035.6205	1066.4928	1074.8019	1141.9663	1164.3275	1201.0934	1228.9642	1256.2078	1347.5938	1368.866	1450.4689	1460.2845	1482.7178	1502.429	1524.9282	1566.4652	1649.2837	1783.331	2865.2298	2977.1929	3064.5956	3125.3898	3284.0151	3304.8218	3599.6908
CNC1=COC=C1C=O	CNc1cocc1C=O	
InChI=1S/C6H7NO2/c1-7-6-4-9-3-5(6)2-8/h2-4,7H,1H3	InChI=1S/C6H7NO2/c1-7-6-4-9-3-5(6)2-8/h2-4,7H,1H3
