20
gdb 59034	2.70092	1.27954	1.07774	2.8639	83.95	-0.2421	-0.0236	0.2185	1224.4727	0.171387	-403.186493	-403.177541	-403.176597	-403.220022	33.831	
C	-0.0243377973	 1.555371783	 0.0500782058	-0.396155
C	-0.0292465461	 0.0160911975	-0.0174251864	-0.084691
C	-1.4655703373	-0.5374316216	 0.0502364223	-0.396152
C	 0.6938023489	-0.4819981749	-1.2404416258	 0.287424
C	 1.7932759855	-1.239338297	-1.3070596309	-0.23552
C	 2.1580351703	-1.4907393984	-2.7369808176	-0.136918
O	 1.1573939015	-0.8015455442	-3.4896926601	-0.243135
C	 0.2748898034	-0.1935505355	-2.6318537202	 0.350121
N	-0.7233420177	 0.4938831369	-3.0054038388	-0.547241
H	 0.9974655917	 1.9480657982	 0.0495048251	 0.106976
H	-0.5562622044	 1.9762817144	-0.8060789227	 0.154408
H	-0.5165220023	 1.8920218999	 0.968241521	 0.107865
H	 0.5236203868	-0.364575758	 0.851291985	 0.072085
H	-2.0485288128	-0.1907334435	-0.8059649023	 0.154407
H	-1.4680420884	-1.6320924845	 0.0498544344	 0.106976
H	-1.9555899964	-0.1974967674	 0.9683463125	 0.107865
H	 2.3626484823	-1.6314401361	-0.4739896519	 0.114605
H	 3.1466509618	-1.095039232	-3.0072468088	 0.127518
H	 2.1406473742	-2.5554993423	-3.0071039734	 0.12752
H	-0.7733085437	 0.5281708154	-4.0247132273	 0.222042
76.5973	137.8783	196.8627	197.3366	240.0145	262.7338	310.1589	315.278	425.553	479.8025	493.5728	626.5311	736.9562	781.6548	803.1151	837.6427	872.5812	883.7599	936.517	960.1823	969.4862	987.347	1033.0975	1058.4551	1107.3587	1122.9557	1177.8538	1196.4072	1224.1112	1246.8079	1341.5789	1345.2904	1371.3246	1392.5119	1401.184	1416.104	1486.3887	1500.5886	1501.2812	1504.152	1520.1373	1698.4427	1746.4134	3009.1033	3015.2455	3035.6842	3036.1203	3039.56	3100.5788	3103.5259	3132.8413	3137.2157	3218.8954	3477.3335
CC(C)C1=CCOC1=N	CC(C)C1=C(OC[CH]1)[NH]	
InChI=1S/C7H11NO/c1-5(2)6-3-4-9-7(6)8/h3,5,8H,4H2,1-2H3	InChI=1S/C7H11NO/c1-5(2)6-3-4-9-7(6)8/h3,5,8H,4H2,1-2H3
