15
gdb 60678	2.04382	1.56359	1.17827	2.3683	67.66	-0.2529	-0.0444	0.2084	1084.5249	0.108378	-457.696906	-457.68781	-457.686866	-457.731097	32.718	
O	 0.2206318666	 1.4714527424	-0.0219282384	-0.458828
C	 0.1560999335	 0.0624084249	-0.1414956176	 0.055942
C	-1.3426235882	-0.3435475641	-0.2032860493	 0.128174
O	-1.812565649	-1.3012952572	 0.3454889318	-0.238619
C	 0.7608554588	-0.3647768855	-1.4011307018	 0.342415
C	 1.205036057	-0.7623807547	-2.4444914921	-0.459318
C	 0.8351086782	-0.6155242425	 1.0524501697	 0.036424
C	 2.094206435	-0.0919130314	 1.5780943509	-0.182489
O	 0.8411105085	 0.1926705155	 2.2322111991	-0.25405
H	 0.2146170652	 1.639237432	 0.9349977457	 0.301959
H	-1.9430267267	 0.3718251614	-0.8027224605	 0.110012
H	 1.6130241455	-1.1022491239	-3.3650786735	 0.212069
H	 0.5578916803	-1.6545951187	 1.2020903964	 0.135748
H	 2.7592144775	-0.7485216663	 2.1335435452	 0.132651
H	 2.5598342678	 0.7606996482	 1.0900221045	 0.13791
69.9045	88.0155	141.9998	172.785	195.3543	291.1283	312.7783	390.7249	472.705	487.7266	515.0175	581.8505	640.7544	658.534	679.9093	726.5804	855.157	916.7229	942.7207	990.2901	1078.9041	1087.3045	1115.917	1155.4166	1165.984	1177.5404	1282.4952	1378.6862	1388.0969	1433.4307	1518.8672	1835.999	2234.0075	2927.0413	3107.1467	3171.3142	3202.4496	3497.2895	3683.6915
OC(C=O)(C#C)C1CO1	O[C@@](C=O)(C#C)[C@H]1CO1	
InChI=1S/C6H6O3/c1-2-6(8,4-7)5-3-9-5/h1,4-5,8H,3H2	InChI=1S/C6H6O3/c1-2-6(8,4-7)5-3-9-5/h1,4-5,8H,3H2/t5-,6-/m1/s1
