17
gdb 44389	3.61535	1.55757	1.39249	3.7839	71.24	-0.2376	-0.0197	0.2179	948.259	0.13743	-421.807828	-421.801233	-421.800289	-421.838891	26.94	
O	 0.0221337144	 0.0194400919	-0.449961576	-0.302372
C	 0.0006521806	 1.1597518108	-0.0923629693	 0.431405
C	-1.1275813598	 2.1495877225	 0.2558714871	-0.363672
C	-0.0512965426	 3.2536869504	 0.4601344335	-0.040469
C	 0.3671757736	 3.5169757349	 1.9202238161	 0.064945
C	 1.8963108219	 3.7306344758	 1.8271587103	-0.228084
C	 1.7758310559	 2.2213654634	 1.5013790864	 0.063375
O	 0.6357747695	 2.1651926868	 2.4168901133	-0.297591
C	 1.0967474716	 2.2251057516	 0.1130219599	-0.173261
H	-1.8110319606	 2.3186072031	-0.5817096066	 0.126149
H	-1.7059824808	 1.8740888869	 1.1414456901	 0.138261
H	-0.1505257625	 4.1512609391	-0.1491510611	 0.081623
H	-0.287910876	 4.1021671354	 2.5655106272	 0.086406
H	 2.2969229885	 4.4118487289	 1.0717895544	 0.099814
H	 2.34843904	 3.8995206913	 2.8051535943	 0.11829
H	 2.5503948032	 1.4850405906	 1.7100854484	 0.097946
H	 1.778684203	 2.3958781167	-0.721783298	 0.097236
87.2131	228.3487	289.9428	431.9485	438.6036	514.1682	596.2915	625.8247	735.3977	755.0152	810.0206	841.7802	856.5747	871.4068	905.2724	927.1107	945.5205	994.5339	1002.8066	1015.3098	1046.6468	1078.4604	1089.0465	1124.346	1150.4161	1180.6157	1209.1935	1224.0632	1236.3829	1241.7813	1265.4355	1286.6816	1312.7175	1322.6373	1423.2025	1484.9645	1893.6707	3060.8353	3066.6254	3103.9481	3115.4943	3121.7466	3128.5731	3138.6914	3145.4723
O=C1CC2C3CC(O3)C12	O=C1C[C@H]2[C@@H]3C[C@@H](O3)[C@@H]12	
InChI=1S/C7H8O2/c8-4-1-3-5-2-6(9-5)7(3)4/h3,5-7H,1-2H2	InChI=1S/C7H8O2/c8-4-1-3-5-2-6(9-5)7(3)4/h3,5-7H,1-2H2/t3-,5-,6+,7+/m0/s1
