19
gdb 108268	2.36789	1.75709	1.41918	2.1412	76.44	-0.2243	0.0102	0.2345	1013.9318	0.160513	-419.167993	-419.159816	-419.158871	-419.200562	31.396	
C	-0.0451456691	 1.2057857582	 0.3678833542	-0.250109
O	-0.228119657	-0.1305763778	-0.0643877419	-0.297642
C	 0.5226511055	-0.547485191	-1.1776072138	 0.355865
C	 0.298604121	 0.2728725494	-2.5084578809	-0.262063
N	 1.6430521157	 0.9144525668	-2.2746522225	-0.357795
C	 1.9542889567	-0.0900832166	-1.3593644833	 0.308723
N	 2.9222233726	-0.8434665577	-1.0383074339	-0.326435
C	 2.2387465174	-2.0318157455	-0.4328321025	-0.163982
C	 0.7913100267	-2.0519503189	-1.0469567922	-0.288919
H	 0.9916179922	 1.3928862724	 0.6774928607	 0.123595
H	-0.3117588959	 1.9389854795	-0.4041282357	 0.115568
H	-0.7060778516	 1.3425805332	 1.2267166966	 0.127286
H	 0.2666429079	-0.3502529766	-3.4079549428	 0.116374
H	-0.5325676955	 0.9813434493	-2.50487813	 0.117957
H	 2.2749176023	 1.1142190295	-3.0417091261	 0.242805
H	 2.8064541376	-2.9290909355	-0.6922653864	 0.108924
H	 2.213398914	-1.9623490322	 0.6617323403	 0.113167
H	 0.0477741554	-2.5511952379	-0.4222978298	 0.112861
H	 0.8219295043	-2.5397604386	-2.02594534	 0.10382
96.5069	146.0705	190.0044	219.3167	275.194	337.5537	344.2312	418.2213	519.1715	609.4279	647.088	703.4843	748.0162	823.2912	846.2566	875.3222	896.63	945.7066	960.3234	979.7761	1033.1165	1096.5905	1133.1107	1135.3114	1178.9638	1184.9174	1193.9796	1219.1402	1232.4855	1260.9998	1296.7691	1317.476	1325.5784	1354.3693	1468.3986	1481.2741	1483.504	1496.6448	1498.5603	1508.365	1762.9553	3004.5827	3032.9828	3047.1097	3060.6437	3061.3765	3094.4181	3115.0149	3121.0384	3124.7634	3551.2222
COC12CNC1=NCC2	CO[C@@]12CN[C]1[N]CC2	
InChI=1S/C6H10N2O/c1-9-6-2-3-7-5(6)8-4-6/h2-4H2,1H3,(H,7,8)	InChI=1S/C6H10N2O/c1-9-6-2-3-7-5(6)8-4-6/h2-4H2,1H3,(H,7,8)/t6-/m0/s1
