20
gdb 58616	2.30472	1.42237	1.06248	2.7253	75.25	-0.2455	0.0265	0.2719	1191.5103	0.169534	-440.307786	-440.297887	-440.296943	-440.342381	37.484	
C	 0.4815243932	 0.0100330685	 1.2997996712	-0.413027
C	-0.057429657	-0.1029519041	-0.128152431	 0.019702
O	 0.8670709457	-0.7957944968	-0.9610509754	-0.430026
C	-1.4571123277	-0.7337942251	-0.1801789555	 0.225056
C	-1.8451764853	-1.5429871666	-1.4124136813	-0.29179
C	-1.5739314745	-2.2429824036	-0.1188179003	-0.292078
C	-2.6286655884	 0.0010509742	 0.42743332	 0.347852
N	-2.4534514616	 1.3386482532	 0.6839002173	-0.541315
O	-3.6842132475	-0.5528855785	 0.6784594589	-0.37087
H	 1.476468861	 0.4639403661	 1.2922652857	 0.122606
H	-0.1776235507	 0.6117102106	 1.9303097881	 0.134691
H	 0.5546446838	-0.9852392198	 1.7547111943	 0.117568
H	-0.1023318194	 0.8985578959	-0.5789427176	 0.075376
H	 1.1969694897	-1.5553909527	-0.469810434	 0.283921
H	-2.8759881305	-1.4682652139	-1.7370462531	 0.129608
H	-1.0950657518	-1.6061692512	-2.1905423242	 0.130751
H	-0.6550051724	-2.8132095992	-0.0346488878	 0.090463
H	-2.418696965	-2.6282951503	 0.437760814	 0.143749
H	-1.7115757756	 1.8634336209	 0.2531168207	 0.258487
H	-3.289287786	 1.8454115826	 0.9315059498	 0.259277
49.4	92.3113	195.6427	227.8954	262.8253	270.4687	283.5126	317.0469	348.1224	378.1979	403.5371	453.1138	497.5448	568.1012	608.7612	684.0163	769.3777	799.9213	852.4377	897.6245	909.6687	966.1293	985.3489	1056.5657	1067.6272	1080.0653	1093.8928	1102.7582	1132.2285	1207.2196	1219.7335	1294.6571	1309.2119	1349.7552	1376.1022	1403.7027	1433.3205	1442.9827	1479.9585	1492.0524	1501.0122	1617.4167	1776.236	2998.6699	3032.4336	3104.0197	3128.6701	3138.632	3149.6837	3234.8843	3250.6183	3588.9904	3718.3856	3814.3444
CC(O)C1(CC1)C(N)=O	C[C@@H](O)C1(CC1)C(=O)N	
InChI=1S/C6H11NO2/c1-4(8)6(2-3-6)5(7)9/h4,8H,2-3H2,1H3,(H2,7,9)	InChI=1S/C6H11NO2/c1-4(8)6(2-3-6)5(7)9/h4,8H,2-3H2,1H3,(H2,7,9)/t4-/m1/s1
