20
gdb 18526	5.44405	1.09467	1.03419	0.8437	75.52	-0.2492	0.0911	0.3403	1213.0118	0.177211	-348.960462	-348.952258	-348.951314	-348.993469	30.432	
C	 0.0175412542	 1.3851231919	-0.043512127	-0.22312
O	 0.1206508414	-0.0168763959	-0.0349791048	-0.232827
C	 0.5814587817	-0.5286261039	 1.1991599769	-0.068542
C	 0.6820620014	-2.0374923987	 1.080930469	 0.00654
C	 1.7807625747	-2.6625047947	 0.1547450708	-0.243015
C	 2.2926141569	-3.4834315238	 1.3463239331	-0.035617
C	 2.7292983183	-2.567459726	 2.4512054249	-0.274653
C	 1.2568307896	-2.8279783732	 2.2658335168	-0.073356
H	 0.989765577	 1.8695299722	 0.1431390531	 0.100667
H	-0.3400787062	 1.6835369552	-1.0323347486	 0.124447
H	-0.6939084271	 1.7490360386	 0.7155455757	 0.100792
H	 1.5595859231	-0.0856214744	 1.4519612263	 0.080332
H	-0.1136949715	-0.2567460168	 2.0138820654	 0.08055
H	-0.3013964178	-2.4241029196	 0.7987411795	 0.081202
H	 1.3526106274	-3.2648109824	-0.6484005968	 0.104151
H	 2.4994682375	-1.9617110721	-0.2830497411	 0.095375
H	 2.6005749037	-4.5211503736	 1.3088722657	 0.083251
H	 3.1683177777	-3.0548109426	 3.3161282863	 0.108799
H	 3.1681495558	-1.5991150394	 2.2231763432	 0.103975
H	 0.6650513423	-3.2786504607	 3.0540742416	 0.081049
78.5943	99.5871	131.1435	213.201	241.48	337.1475	357.1436	447.9326	509.8706	679.1226	780.4226	801.0987	846.2796	886.1603	940.6479	961.6561	973.7293	993.2952	1030.0094	1045.5867	1064.2094	1085.1716	1106.1259	1129.1995	1155.0166	1169.5922	1188.2784	1208.3142	1228.2647	1243.2757	1259.6379	1271.7581	1304.2437	1348.2443	1373.1712	1427.1976	1480.2985	1485.043	1485.4435	1498.4595	1504.926	1525.8924	2940.678	2965.4571	2975.52	3006.3006	3048.0802	3066.2604	3109.5207	3110.6285	3113.931	3171.9262	3183.0609	3199.4746
COCC1CC2CC12	COC[C@H]1C[C@H]2C[C@@H]12	
InChI=1S/C7H12O/c1-8-4-6-2-5-3-7(5)6/h5-7H,2-4H2,1H3	InChI=1S/C7H12O/c1-8-4-6-2-5-3-7(5)6/h5-7H,2-4H2,1H3/t5-,6+,7+/m0/s1
