17
gdb 50544	3.00476	1.11304	0.90165	4.8556	74.05	-0.2341	-0.0432	0.1909	1271.0433	0.134978	-417.995161	-417.986285	-417.985341	-418.029731	31.085	
O	-0.8720919165	 0.8771557651	 0.6090532625	-0.248079
C	 0.1685208497	 0.8429282241	 0.0007777967	 0.14364
C	 1.3453298252	 1.7674991655	 0.2197842459	-0.074978
C	 1.3104740642	 2.9571443635	-0.8013054102	-0.252342
C	 0.8277228761	 3.8233642236	 0.3885335543	-0.160925
N	 1.2790466561	 2.7568109811	 1.2988919324	-0.066229
C	 0.6138852379	 2.5050871818	 2.5629648545	-0.307946
C	 0.9849177676	 3.5314140876	 3.5484597426	 0.280595
N	 1.2560157241	 4.3505001107	 4.3164811442	-0.30441
H	 0.3338307315	 0.1059488959	-0.8208504281	 0.087759
H	 2.2618500594	 1.1598323578	 0.2113330253	 0.099119
H	 2.3047484288	 3.2210526736	-1.1606268828	 0.131701
H	 0.6276953026	 2.8556126761	-1.6454687211	 0.123078
H	 1.3181486512	 4.78891393	 0.541907156	 0.12545
H	-0.2626608263	 3.9701154595	 0.3884954844	 0.11015
H	-0.4826736047	 2.4676646761	 2.4895423429	 0.159603
H	 0.9360790431	 1.5299669281	 2.9452818205	 0.153815
55.7007	88.1789	110.8064	161.0862	196.9732	285.9097	334.2287	340.7624	387.1899	498.5887	683.9781	742.6612	791.8379	809.7642	897.2333	931.7918	958.3169	960.7589	968.9747	1025.3122	1109.3409	1139.7904	1154.6704	1208.6672	1211.1014	1249.765	1261.2959	1279.1884	1334.3339	1358.2044	1374.3933	1415.9259	1467.8634	1485.6316	1525.5495	1821.4559	2364.3527	2853.8285	2994.8161	3003.4615	3008.589	3070.9103	3079.2274	3093.5299	3152.574
O=CC1CCN1CC#N	O=C[C@H]1CCN1CC#N	
InChI=1S/C6H8N2O/c7-2-4-8-3-1-6(8)5-9/h5-6H,1,3-4H2	InChI=1S/C6H8N2O/c7-2-4-8-3-1-6(8)5-9/h5-6H,1,3-4H2/t6-/m1/s1
