18
gdb 76960	2.07948	1.65839	1.25422	3.9454	74.78	-0.2475	-0.0511	0.1964	1086.5504	0.144457	-439.101674	-439.09202	-439.091075	-439.136243	34.152	
C	 0.2469736667	 1.4203948435	 0.2513034037	-0.420881
C	-0.0149758913	-0.0361957295	-0.0440130468	 0.004354
C	 0.6487828971	-0.7930731131	-1.2173635392	-0.155861
C	 1.5551260796	-0.0389726962	-2.1246575801	 0.156834
O	 2.5396945207	 0.5723597076	-1.7821915116	-0.265145
N	 0.9710598837	-1.0462644236	 0.1666199452	-0.088036
C	 2.1830805185	-0.9202756724	 0.8597208318	 0.401446
C	 3.33357684	-1.7144195517	 0.2817903592	-0.486275
O	 2.2419118995	-0.2962144217	 1.8939914515	-0.342881
H	 1.2296998902	 1.7372190971	-0.0999000403	 0.159496
H	-0.5215690355	 2.0400979881	-0.2209139906	 0.118394
H	 0.2107672095	 1.5806631632	 1.3316802125	 0.156486
H	-1.0318678103	-0.3682944791	 0.1651660791	 0.112638
H	 0.0562096203	-1.558762243	-1.7165540976	 0.110272
H	 1.2372496021	-0.0662898238	-3.1898262683	 0.095536
H	 3.8661206033	-1.0855509661	-0.4376902318	 0.169737
H	 4.016674048	-1.9828673222	 1.0884470705	 0.146131
H	 2.9882982479	-2.6131616471	-0.235224297	 0.127755
89.8768	101.8657	136.517	160.1971	169.0077	197.8188	230.7065	281.9378	374.8853	428.3172	458.6511	564.683	620.3553	663.2787	787.7442	813.839	858.5711	927.972	976.5216	1014.9494	1047.9956	1053.6455	1078.8591	1096.9208	1154.7322	1173.2107	1196.666	1363.1093	1380.496	1391.011	1415.2493	1421.9495	1447.297	1475.768	1479.0487	1488.3996	1497.292	1791.331	1808.1776	2896.3408	3052.3982	3054.9821	3105.5287	3120.5378	3123.7188	3128.285	3153.4536	3155.1514
CC1C(C=O)N1C(C)=O	C[C@H]1[C@@H](C=O)N1C(=O)C	
InChI=1S/C6H9NO2/c1-4-6(3-8)7(4)5(2)9/h3-4,6H,1-2H3	InChI=1S/C6H9NO2/c1-4-6(3-8)7(4)5(2)9/h3-4,6H,1-2H3/t4-,6+,7?/m0/s1
