17
gdb 49138	4.529	0.88486	0.77965	2.7076	84.25	-0.2528	-0.0605	0.1923	1419.2687	0.135023	-384.68427	-384.675696	-384.674751	-384.717891	31.651	
O	-0.1672946239	-0.0500676916	 0.3598299578	-0.267782
C	-0.0444175187	 1.0967149366	-0.0100672889	 0.07402
C	 1.2242533723	 1.831202521	 0.0026576514	 0.230067
C	 1.3571212803	 3.1127021756	-0.3629102371	-0.149653
C	 2.7828763182	 3.6048295556	-0.1897611057	-0.194946
C	 3.576611925	 2.2687404262	-0.0218341885	-0.230198
C	 2.5338878877	 1.2380500386	 0.4718947801	-0.321072
C	 3.2618628105	 4.4609499086	-1.2681912298	 0.306629
C	 3.6565975028	 5.156624703	-2.1653203699	-0.450945
H	-0.9133675418	 1.6755129222	-0.3950391385	 0.07031
H	 0.5579496067	 3.7577236379	-0.7112069162	 0.122636
H	 2.8292509318	 4.1816150448	 0.7481192665	 0.122756
H	 3.9591976964	 1.9712412567	-1.0017191937	 0.124836
H	 4.4310764353	 2.3814932889	 0.648134992	 0.113375
H	 2.5340140278	 1.1424114641	 1.5652363927	 0.121223
H	 2.7010191681	 0.2330638067	 0.0755919265	 0.128798
H	 4.0070823614	 5.7737126452	-2.9553030989	 0.199945
69.0992	123.8852	129.9585	199.6996	213.2934	305.0645	418.6132	438.3838	502.1079	551.9156	602.0577	630.4928	644.9296	719.9631	830.2694	848.5675	883.6977	902.7237	971.2342	1022.0925	1033.186	1036.3137	1076.2974	1151.7617	1186.178	1234.6817	1271.9898	1280.6007	1292.6289	1339.5503	1369.5488	1419.5707	1484.1142	1499.1803	1681.5357	1785.3982	2238.2057	2883.1808	2973.1455	3032.1532	3070.1417	3093.5651	3122.9858	3200.9641	3503.529
O=CC1=CC(CC1)C#C	O=CC1=C[C@@H](CC1)C#C	
InChI=1S/C8H8O/c1-2-7-3-4-8(5-7)6-9/h1,5-7H,3-4H2	InChI=1S/C8H8O/c1-2-7-3-4-8(5-7)6-9/h1,5-7H,3-4H2/t7-/m1/s1
