19
gdb 126659	6.31563	0.67938	0.62557	3.4221	79.24	-0.217	0.0051	0.222	1777.4506	0.159796	-419.202345	-419.193269	-419.192325	-419.237555	32.534	
C	 0.0560085758	 1.5333563342	 0.1173470324	-0.382221
C	-0.0269882406	 0.0273526557	-0.1403171228	-0.189036
C	-1.4225257109	-0.537021011	 0.1235010196	-0.120867
N	-1.4584315298	-1.9676221673	-0.1528682505	-0.393606
C	-2.6363630252	-2.6698498668	-0.0332296437	 0.460097
N	-2.622851433	-3.9544403949	 0.2707777378	-0.251718
O	-3.9646386534	-4.3599384828	 0.2319373677	-0.16732
C	-4.7237992856	-3.304818841	-0.0729672583	 0.090101
C	-3.9689106718	-2.1944440473	-0.2552903565	-0.335195
H	 1.0648763706	 1.9097569882	-0.073761269	 0.120388
H	-0.6331073805	 2.0856563242	-0.5308667711	 0.118933
H	-0.1985793262	 1.7752087271	 1.1549027494	 0.119816
H	 0.2543061852	-0.1994363859	-1.1750439514	 0.113906
H	 0.696798183	-0.494869548	 0.5001945274	 0.099807
H	-1.7273276869	-0.3058255351	 1.158225639	 0.098354
H	-2.1433010136	-0.0399411223	-0.5365693769	 0.112687
H	-0.6702275334	-2.4821087395	 0.2181800471	 0.243965
H	-5.7862895174	-3.488328375	-0.1286149023	 0.145822
H	-4.2986498461	-1.2027748924	-0.5123064282	 0.116089
45.9578	57.4355	101.2303	141.5909	234.8777	274.2015	322.4518	341.0622	466.3789	589.885	633.1835	727.3227	756.7554	762.3374	775.625	865.0036	896.2324	907.6856	919.6002	936.5314	995.19	1051.575	1082.5938	1114.7839	1151.0215	1174.6587	1183.4751	1267.0497	1315.7771	1327.5086	1337.1806	1387.9303	1414.1895	1433.0086	1491.2325	1496.8087	1500.2772	1505.5477	1522.1892	1534.7626	1640.8581	2959.1868	3016.8051	3034.2644	3046.4803	3067.4175	3101.218	3111.0084	3256.2566	3289.7676	3576.9406
CCCNC1=NOC=C1	CCCNc1nocc1	
InChI=1S/C6H10N2O/c1-2-4-7-6-3-5-9-8-6/h3,5H,2,4H2,1H3,(H,7,8)	InChI=1S/C6H10N2O/c1-2-4-7-6-3-5-9-8-6/h3,5H,2,4H2,1H3,(H,7,8)
