16
gdb 52042	2.623	1.03397	0.81273	0.8704	66.91	-0.2621	-0.0519	0.2103	1358.5924	0.121388	-475.059566	-475.049856	-475.048911	-475.096855	32.168	
O	 0.381697497	 0.6680319034	 1.099723054	-0.329783
C	 0.2006876408	 1.4195558147	 0.1628061574	 0.150211
N	 1.1110568682	 1.6592851613	-0.8181445566	-0.26326
C	 2.4442364948	 1.0964465633	-0.7580693915	-0.182556
C	 3.4182451	 1.9529651524	 0.0834758313	-0.198399
C	 4.7216616255	 1.2135398711	 0.3413608095	 0.14183
O	 5.808140391	 1.618124089	 0.016664781	-0.232323
C	 3.6694198185	 3.3215458409	-0.5261480027	 0.168699
O	 3.0745800635	 3.7402555623	-1.4886992956	-0.256546
H	-0.7414975608	 1.9785217729	 0.0046565175	 0.086318
H	 0.9661490055	 2.4279954785	-1.4542883612	 0.266348
H	 2.3619999924	 0.1012448549	-0.3148810111	 0.146845
H	 2.8299362109	 0.9993769575	-1.7758107806	 0.135339
H	 2.9519842848	 2.1005849113	 1.0717487012	 0.148584
H	 4.5962009148	 0.2359078705	 0.8570106873	 0.103953
H	 4.4423372434	 3.9307213659	-0.0182052299	 0.114739
17.0701	49.652	77.74	105.2463	179.2311	229.5855	270.0344	287.7555	346.8948	423.1096	575.5638	595.7336	667.8963	761.2424	800.9167	901.1748	930.7619	984.5648	1034.7811	1057.1746	1091.5742	1121.11	1211.5994	1235.2539	1275.6456	1342.7362	1388.2186	1417.5523	1424.4169	1434.3997	1462.6417	1522.2295	1794.9104	1815.1243	1825.5306	2892.9181	2947.7548	2953.7287	2994.1253	3072.1258	3126.4858	3637.0254
O=CNCC(C=O)C=O	O=CNCC(C=O)C=O	
InChI=1S/C5H7NO3/c7-2-5(3-8)1-6-4-9/h2-5H,1H2,(H,6,9)	InChI=1S/C5H7NO3/c7-2-5(3-8)1-6-4-9/h2-5H,1H2,(H,6,9)
