17
gdb 27794	1.89001	1.81194	0.93208	7.1271	80.68	-0.2037	-0.002	0.2017	1217.4911	0.137545	-418.077371	-418.068875	-418.067931	-418.110176	32.503	
C	-0.0136384448	 1.5068709401	 0.0855104487	-0.49396
C	 0.0004491595	 0.010981869	-0.0347886053	 0.406649
C	-0.0403617932	-0.6746345704	-1.1984901461	-0.342625
C	-0.0091169589	-2.1429505251	-1.2508652725	 0.408709
O	-0.0464463866	-2.7695469659	-2.3072911558	-0.414486
C	 0.0473482244	-2.7797741607	 0.0600740054	-0.352268
C	 0.0917065586	-2.0539606259	 1.2079425135	 0.430045
N	 0.2313228124	-2.5784679333	 2.4956875	-0.589229
H	 0.184417543	-3.5882260164	 2.5033049122	 0.261476
H	-0.4263237874	-2.1971680139	 3.166141377	 0.249456
N	 0.0542728669	-0.67951667	 1.1627654408	-0.429855
H	 0.8819905643	 1.8732602948	 0.6027189865	 0.134131
H	-0.0448092731	 1.9666563134	-0.9027930139	 0.15088
H	-0.8856317177	 1.8526797793	 0.6535079226	 0.136428
H	-0.0995240157	-0.1431215325	-2.1405132846	 0.101009
H	 0.0372777968	-3.8626346828	 0.1008458304	 0.0909
H	 0.2632894715	-0.1732500197	 2.008595181	 0.25274
127.7152	169.5412	173.871	219.1957	282.2067	288.6393	344.6782	449.7737	504.1277	516.139	539.5711	556.5284	609.0923	628.6365	728.6348	752.7243	851.1149	879.8735	928.8689	974.3371	1012.9392	1063.8128	1065.4551	1139.7581	1182.4462	1243.3473	1263.881	1361.257	1410.636	1421.5422	1480.1751	1485.2751	1536.2437	1639.9236	1665.0674	1699.7745	1726.79	3024.1374	3074.3638	3144.808	3200.0069	3208.0052	3530.1064	3634.8512	3635.5899
CC1=CC([O-])=CC(=[NH2+])N1	Cc1cc(=O)cc(N)[nH]1	
InChI=1S/C6H8N2O/c1-4-2-5(9)3-6(7)8-4/h2-3H,1H3,(H3,7,8,9)	InChI=1S/C6H8N2O/c1-4-2-5(9)3-6(7)8-4/h2-3H,1H3,(H3,7,8,9)
