21
gdb 106327	2.86821	1.22823	1.05427	1.7797	79.2	-0.2308	0.0661	0.2969	1248.0508	0.180654	-424.180583	-424.170891	-424.169947	-424.21479	36.239	
C	-0.240334037	 1.293087776	 0.0726090028	-0.256538
O	 0.1711434983	-0.0554272082	-0.0627455852	-0.273299
C	 0.7665554258	-0.560618132	 1.0760305683	 0.371293
C	 2.2230554311	-0.2956500315	 1.48625476	-0.32679
C	 2.376396426	-1.821305078	 1.8132316026	 0.05097
C	 2.9222787218	-2.2538058304	 3.169225064	-0.411952
C	 0.8889125448	-2.0387543359	 1.4787266599	-0.203321
C	-0.0283062293	-1.108953097	 2.2232178237	 0.026089
O	 0.1919958676	-0.7961489574	 3.5730615561	-0.413547
H	 0.6083740928	 1.9591372281	 0.2841639163	 0.113172
H	-0.6930040649	 1.5883707356	-0.8766006726	 0.129385
H	-0.9841012752	 1.4089709994	 0.8749315461	 0.10114
H	 2.8440486295	 0.0241721816	 0.6471299895	 0.104918
H	 2.3635949486	 0.3916665802	 2.3256785148	 0.090154
H	 2.9727983116	-2.282560032	 1.0191350347	 0.077584
H	 2.3609332359	-1.7938375927	 3.9837705377	 0.141854
H	 2.8583391145	-3.3419816897	 3.2827625392	 0.108558
H	 3.9777115947	-1.9743415768	 3.2671897471	 0.103908
H	 0.4911324736	-2.9206436666	 0.9891377704	 0.090627
H	-1.0757926954	-1.2704805629	 1.9620073483	 0.091473
H	-0.121371825	 0.1014034703	 3.7263269362	 0.28432
75.283	135.6488	169.3965	192.1014	206.5811	234.0039	275.4788	284.2581	355.2347	375.5737	407.6903	507.1874	584.5101	673.0962	709.8118	813.9888	853.2542	890.572	915.9716	967.927	989.4519	1017.7687	1062.5415	1085.7937	1103.6268	1120.2061	1146.0891	1179.1551	1184.2982	1203.4245	1237.7581	1249.1153	1254.1194	1290.305	1317.2117	1339.0589	1372.444	1407.5261	1452.1049	1475.8269	1487.0065	1492.8799	1500.4557	1506.1301	1509.6946	2984.4373	3029.3409	3036.0705	3044.0847	3054.7275	3085.7531	3092.0536	3116.4456	3119.9829	3144.3034	3174.561	3804.5176
COC12CC(C)C1C2O	CO[C@]12C[C@@H](C)[C@H]1[C@H]2O	
InChI=1S/C7H12O2/c1-4-3-7(9-2)5(4)6(7)8/h4-6,8H,3H2,1-2H3	InChI=1S/C7H12O2/c1-4-3-7(9-2)5(4)6(7)8/h4-6,8H,3H2,1-2H3/t4-,5+,6-,7-/m1/s1
