19
gdb 110514	2.66924	1.60196	1.29909	1.4789	75.	-0.2371	0.0716	0.3087	1047.0316	0.158775	-422.964527	-422.956337	-422.955392	-422.99708	32.007	
C	 0.0475511206	 1.2829447153	 0.2210579859	-0.24524
O	 0.0158218595	-0.06588757	-0.2047479327	-0.257644
C	-1.2459595755	-0.6611865115	-0.0680267478	 0.144476
C	-1.4001706391	-2.0769448362	-0.5874573331	-0.117827
C	-0.9911979643	-3.0293670026	 0.5411169261	-0.062176
C	-0.5416668902	-2.170024703	 1.7246163749	-0.295814
C	-1.6878174176	-1.2125797018	 1.3128670265	 0.337123
O	-2.2666486551	-0.312467524	 2.1900813788	-0.482303
C	-2.371023004	-2.4256633142	 0.5225063849	-0.180053
H	 1.0613374645	 1.6527101577	 0.0490925564	 0.121279
H	-0.658712777	 1.9017167113	-0.354296319	 0.104177
H	-0.1983239677	 1.3836830865	 1.2863268271	 0.122282
H	-2.0363887342	-0.0072085317	-0.4680250255	 0.067615
H	-1.4350045495	-2.3963802481	-1.620032177	 0.089103
H	-0.7169008997	-4.0537886647	 0.3282107969	 0.088325
H	-0.7638481219	-2.6668288213	 2.675787779	 0.083037
H	 0.4721948572	-1.7591114039	 1.7311754182	 0.107789
H	-2.4027547237	-0.7512101724	 3.0367914501	 0.282623
H	-3.3656201723	-2.8439385354	 0.4911534405	 0.093229
91.5617	152.3078	172.2614	272.2928	301.5753	328.6373	369.5687	386.9449	509.2543	583.6142	637.3435	730.3664	761.1031	800.2643	821.3708	888.5096	916.1755	945.5929	979.3473	999.1737	1022.6703	1034.4126	1054.6043	1070.5647	1084.7631	1133.2488	1151.6855	1161.4172	1184.4889	1211.3086	1229.4946	1245.0538	1277.9043	1339.3488	1354.9252	1377.4404	1419.157	1480.4375	1487.79	1490.0734	1512.8429	2981.7052	2993.0671	3036.9397	3045.6151	3098.7902	3114.8938	3203.1416	3210.2408	3235.5583	3803.321
COC1C2C3CC1(O)C23	CO[C@H]1[C@H]2[C@H]3C[C@]1(O)[C@@H]23	
InChI=1S/C7H10O2/c1-9-6-4-3-2-7(6,8)5(3)4/h3-6,8H,2H2,1H3	InChI=1S/C7H10O2/c1-9-6-4-3-2-7(6,8)5(3)4/h3-6,8H,2H2,1H3/t3-,4+,5-,6+,7+/m1/s1
