14
gdb 51158	3.16465	1.24088	0.98871	5.2646	63.99	-0.2632	-0.0169	0.2463	1139.9574	0.099739	-473.821402	-473.813489	-473.812545	-473.85504	28.253	
O	 0.0457293337	-0.0095397079	-0.1039540722	-0.25667
C	 0.0464063859	 1.1782473316	-0.0377192722	 0.15552
O	 1.2078192377	 1.8864507128	 0.0934210766	-0.223471
C	 1.0729108137	 3.2627957123	 0.1427426869	 0.279238
C	 1.2069639951	 4.1574439495	-1.0944756998	-0.34431
C	 2.1583819181	 4.3051915619	 0.0601094521	-0.082783
N	 1.534853372	 5.0217336837	 1.1803960651	-0.33968
C	 0.4799457993	 4.096481625	 1.2818535774	 0.360294
O	-0.4860944346	 4.0326574748	 1.9834640261	-0.330645
H	-0.8459216724	 1.8265207735	-0.0632562756	 0.11115
H	 1.5920424022	 3.6263985635	-1.9608956259	 0.144599
H	 0.4731842986	 4.928820911	-1.3082618272	 0.13323
H	 3.2282213713	 4.1554503614	 0.0190222804	 0.141116
H	 1.3896080095	 6.0252251969	 1.1941878482	 0.252411
36.6305	122.8478	138.1107	210.1781	301.7234	355.7737	441.1938	463.8294	581.6319	611.4179	691.7509	760.4791	810.5689	873.0467	929.9031	956.3282	990.0689	1019.0807	1036.849	1059.2406	1090.4668	1128.52	1134.9142	1244.861	1281.3312	1324.348	1383.3417	1426.5995	1480.7619	1879.0042	1907.7693	3003.439	3118.3002	3211.8739	3223.5318	3550.6537
O=COC12CC1NC2=O	O=CO[C@]12C[C@H]1NC2=O	
InChI=1S/C5H5NO3/c7-2-9-5-1-3(5)6-4(5)8/h2-3H,1H2,(H,6,8)	InChI=1S/C5H5NO3/c7-2-9-5-1-3(5)6-4(5)8/h2-3H,1H2,(H,6,8)/t3-,5-/m1/s1
