18
gdb 6024	2.67913	1.74236	1.40404	2.4843	69.49	-0.2623	0.0346	0.2969	974.3105	0.149077	-384.902454	-384.892504	-384.89156	-384.936207	36.669	
C	 0.0202727988	 1.5653151313	-0.1295456889	-0.445556
C	-0.0408634689	 0.0435247417	-0.0132553151	 0.151813
O	 0.5103667534	-0.583263672	-1.161351124	-0.443961
C	 0.7493185667	-0.498017476	 1.2168432603	 0.175118
C	 0.8480631118	-2.0286987117	 1.1684698855	-0.405976
O	 2.0968717779	-0.0202046707	 1.2161028683	-0.448289
C	 0.0604868631	-0.0679190085	 2.4442747016	 0.314372
C	-0.4821289902	 0.3054497129	 3.4505069687	-0.495553
H	 1.0528345129	 1.8872280723	-0.2929828004	 0.128536
H	-0.5807600124	 1.9068458557	-0.9796460313	 0.108768
H	-0.3735652774	 2.0484492897	 0.7692563014	 0.131046
H	-1.0890155232	-0.2680355998	 0.1270763563	 0.071851
H	 0.1392699154	-0.156452583	-1.9391636394	 0.283448
H	 1.4120093751	-2.3184196809	 0.2817160678	 0.148033
H	 1.3603143805	-2.3887672448	 2.0626537985	 0.124441
H	-0.1469308046	-2.4783177967	 1.1217953188	 0.117611
H	 2.0931584095	 0.8813499791	 1.5535117497	 0.284712
H	-0.9603727883	 0.6250998514	 4.3435086023	 0.199587
87.3439	146.3291	173.2179	190.6237	229.8285	241.3755	264.0641	293.414	308.8612	365.2885	411.9157	438.0959	519.9949	566.1797	596.4131	634.8582	665.7531	726.9391	876.8519	924.7987	950.1029	1018.2921	1054.3832	1110.0809	1131.927	1167.6797	1196.0034	1272.2157	1352.1802	1372.4812	1395.4259	1402.5267	1417.1191	1481.6713	1489.121	1493.3853	1506.7173	2227.3463	2966.257	3034.8096	3061.0247	3100.6176	3124.5501	3137.1564	3160.7148	3499.6406	3823.2568	3828.3674
CC(O)C(C)(O)C#C	C[C@@H](O)[C@@](C)(O)C#C	
InChI=1S/C6H10O2/c1-4-6(3,8)5(2)7/h1,5,7-8H,2-3H3	InChI=1S/C6H10O2/c1-4-6(3,8)5(2)7/h1,5,7-8H,2-3H3/t5-,6+/m1/s1
