18
gdb 62013	4.39853	0.71745	0.64584	1.4157	71.52	-0.2487	-0.0481	0.2006	1686.6679	0.144667	-476.264968	-476.254587	-476.253643	-476.302967	35.253	
C	-0.1276508893	 1.4629182135	 0.0079157926	-0.482
C	-0.0200030122	-0.0428521726	 0.184659938	 0.406942
O	 0.7407039267	-0.550983402	 0.9889154988	-0.372841
N	-0.8372286767	-0.7804362998	-0.628684664	-0.311288
C	-0.9378057842	-2.2180026522	-0.5229400788	-0.178842
C	-2.3534916587	-2.6308371728	-0.0715782159	 0.040846
O	-3.3151562479	-2.111835558	-0.9536752463	-0.442354
C	-2.4699451733	-4.1372664735	 0.0152796938	 0.133692
O	-3.2755093344	-4.7466667269	-0.6467454685	-0.256543
H	 0.8778997659	 1.8744863426	-0.1038279022	 0.154475
H	-0.7373080748	 1.7612298063	-0.8486442913	 0.115625
H	-0.5587146745	 1.8945898553	 0.9160454562	 0.152932
H	-1.5207201226	-0.31986283	-1.2076250982	 0.257642
H	-0.726428733	-2.6853169021	-1.492865276	 0.115368
H	-0.181920409	-2.5369987696	 0.1990179098	 0.14942
H	-2.5123277299	-2.2299398933	 0.9444475391	 0.108737
H	-3.7886528663	-2.8819005315	-1.3074945967	 0.297733
H	-1.7748530456	-4.6494839933	 0.7101751998	 0.110456
24.6313	39.5396	61.0061	81.8751	118.5067	256.1595	281.4978	299.5734	337.3018	421.4537	472.6644	499.4345	509.9964	619.02	648.6983	750.8262	841.415	857.3623	949.0156	990.3507	1001.0251	1050.894	1101.2108	1133.0509	1166.9085	1247.141	1253.6681	1278.1988	1334.4495	1386.1578	1396.4281	1400.8455	1434.163	1470.0566	1475.7056	1485.5105	1534.3502	1779.3785	1811.1033	2939.6834	2969.6449	3028.2975	3050.9465	3116.8922	3123.8525	3137.9877	3647.3411	3686.3066
CC(=O)NCC(O)C=O	CC(=O)NC[C@@H](O)C=O	
InChI=1S/C5H9NO3/c1-4(8)6-2-5(9)3-7/h3,5,9H,2H2,1H3,(H,6,8)	InChI=1S/C5H9NO3/c1-4(8)6-2-5(9)3-7/h3,5,9H,2H2,1H3,(H,6,8)/t5-/m1/s1
