16
gdb 56455	2.73083	1.01578	0.83439	5.5228	75.61	-0.2681	-0.0435	0.2246	1368.6024	0.120603	-400.744606	-400.734708	-400.733763	-400.780687	34.432	
C	-0.4817868043	 1.3227636266	 1.4459707518	-0.39442
C	-0.154800689	 0.5093052534	 0.1662396302	-0.26202
C	 0.7886557008	-0.5695086832	 0.4341348305	 0.313876
C	 1.5654823173	-1.4567572343	 0.6682518035	-0.456224
C	-1.4857464788	 0.0412346227	-0.4595517973	 0.392778
O	-2.1373837108	 0.7860886765	-1.1399655761	-0.270213
C	-1.936041582	-1.3892913785	-0.128764099	-0.472328
C	-3.2969193627	-1.6816149088	-0.5569466303	 0.290846
N	-4.3750834964	-1.9347474384	-0.8825884194	-0.29312
H	 0.4374129364	 1.7366147679	 1.865857648	 0.143225
H	-1.1626541026	 2.1398421938	 1.1973762256	 0.149234
H	-0.94720066	 0.6900781526	 2.2071215693	 0.133147
H	 0.2749072012	 1.1979509466	-0.5698865322	 0.145494
H	 2.2591900705	-2.2367257023	 0.8667048941	 0.210569
H	-1.2325050894	-2.0831842863	-0.6041427785	 0.191388
H	-1.8301079302	-1.5668785881	 0.9478664997	 0.177767
30.073	58.3657	112.5863	161.5271	201.3238	217.6095	245.722	327.8914	377.5427	423.8293	484.9837	522.4881	575.6153	619.987	643.958	667.4899	803.8767	882.8205	907.8567	951.5541	1003.6447	1060.4096	1096.1819	1150.5601	1210.1966	1280.4947	1320.54	1332.9482	1402.5938	1424.6038	1493.34	1496.3825	1832.6455	2234.4378	2376.2224	3049.5342	3050.7352	3053.8406	3082.5324	3128.5089	3142.0528	3499.2388
CC(C#C)C(=O)CC#N	C[C@@H](C#C)C(=O)CC#N	
InChI=1S/C7H7NO/c1-3-6(2)7(9)4-5-8/h1,6H,4H2,2H3	InChI=1S/C7H7NO/c1-3-6(2)7(9)4-5-8/h1,6H,4H2,2H3/t6-/m0/s1
