17
gdb 85038	2.57554	1.61084	1.00991	2.1399	71.33	-0.2511	-0.0052	0.2459	1143.0258	0.136203	-455.23838	-455.229127	-455.228183	-455.273333	31.599	
C	-0.0541528058	 1.406473783	-0.1491457597	-0.341651
N	-0.0136440844	-0.0339798947	-0.0741024029	-0.130619
C	-1.1756548287	-0.8829399666	 0.052541689	-0.313039
C	-0.5725862504	-2.290218755	 0.0855310089	 0.411904
O	-1.1577421409	-3.3418670816	 0.1828946635	-0.365728
N	 0.7874084101	-2.1157763679	-0.0193099147	-0.175423
C	 1.7558639888	-3.1936492265	-0.0295614216	-0.345962
C	 1.1504264963	-0.7534344965	-0.117583902	 0.500354
O	 2.2818088958	-0.3364867296	-0.2194364583	-0.414125
H	 0.9730791101	 1.7621314492	-0.2410332414	 0.171002
H	-0.6296389048	 1.7435562421	-1.0200439443	 0.128203
H	-0.5042643138	 1.8394992198	 0.7526113019	 0.128228
H	-1.7433754136	-0.6946170581	 0.9728384142	 0.143923
H	-1.8670238937	-0.7890232921	-0.7947591626	 0.143906
H	 1.5704449452	-3.8664279836	-0.8711758159	 0.146541
H	 2.7436917241	-2.7417179729	-0.1234291213	 0.165955
H	 1.6949142756	-3.7714034589	 0.8966155772	 0.14653
48.336	81.2264	136.0783	148.241	182.9115	216.0382	258.9765	289.9263	383.5944	558.1184	591.958	598.2539	644.3206	758.4775	765.3541	917.7326	1015.2678	1023.491	1089.1519	1109.1277	1152.937	1161.3584	1198.8382	1258.1816	1292.935	1317.3474	1405.0123	1427.2714	1446.8512	1475.2035	1488.3598	1491.2733	1494.9582	1512.566	1535.3607	1814.3947	1865.3036	3015.0922	3021.7077	3051.8748	3053.01	3065.3881	3115.2973	3148.231	3160.8634
CN1CC(=O)N(C)C1=O	CN1CC(=O)N(C)C1=O	
InChI=1S/C5H8N2O2/c1-6-3-4(8)7(2)5(6)9/h3H2,1-2H3	InChI=1S/C5H8N2O2/c1-6-3-4(8)7(2)5(6)9/h3H2,1-2H3
