19
gdb 13483	3.14685	1.66351	1.15705	3.4605	72.23	-0.2445	0.0362	0.2807	1054.8408	0.164996	-365.095793	-365.087037	-365.086093	-365.129074	31.96	
C	 0.0195217668	 1.6087386291	 0.1362008884	-0.393011
C	 0.0160804913	 0.0780249175	 0.0250889789	 0.023858
C	 0.779496064	-0.5700983964	 1.1893495548	-0.397881
C	-1.4117851748	-0.4700718486	-0.0460196497	-0.128899
C	-2.2574549049	-0.1786506593	-1.3261467096	-0.190373
N	-2.3364785348	-1.6280892743	-1.523779553	-0.321196
C	-1.5582261317	-1.9649160786	-0.4442538981	 0.423455
O	-1.1536992614	-3.0182227106	-0.0253708205	-0.367296
H	 1.0439009107	 1.9948658481	 0.1571663984	 0.115545
H	-0.4974530809	 2.0815224386	-0.70564596	 0.110194
H	-0.4764473365	 1.9335906989	 1.0585675799	 0.114059
H	 0.523002964	-0.19827164	-0.9110579811	 0.076136
H	 0.3352136281	-0.2837150373	 2.1503504752	 0.109218
H	 0.7512383626	-1.6600243786	 1.1181738702	 0.151074
H	 1.8244981537	-0.2438357346	 1.197482483	 0.106786
H	-1.9543252151	-0.2431746119	 0.8782093033	 0.09627
H	-3.2241736552	 0.3066890961	-1.1605746622	 0.111812
H	-1.7134092552	 0.3489780136	-2.117238348	 0.110968
H	-2.7235754208	-2.1890819616	-2.26805874	 0.249282
75.1852	117.2758	153.6082	218.3788	231.1057	260.443	314.9652	351.8252	419.7062	467.9695	533.6819	681.3189	755.235	817.4632	901.4784	908.4641	937.6328	972.3116	990.2261	998.3214	1067.2104	1132.2595	1157.2571	1173.2464	1176.6684	1202.8411	1217.1599	1287.0985	1297.4454	1346.1717	1385.753	1395.6132	1401.6428	1422.385	1489.6359	1490.6792	1503.4677	1513.3982	1526.8641	1881.7115	2996.3132	3023.9574	3029.7038	3035.8671	3058.4273	3084.0548	3089.5276	3094.4938	3098.9082	3128.1993	3610.3881
CC(C)C1CNC1=O	CC(C)[C@H]1CNC1=O	
InChI=1S/C6H11NO/c1-4(2)5-3-7-6(5)8/h4-5H,3H2,1-2H3,(H,7,8)	InChI=1S/C6H11NO/c1-4(2)5-3-7-6(5)8/h4-5H,3H2,1-2H3,(H,7,8)/t5-/m1/s1
