22
gdb 120458	3.06581	0.82744	0.73258	2.5594	84.35	-0.2391	-0.0216	0.2174	1669.1718	0.192428	-404.356899	-404.346579	-404.345635	-404.393077	37.057	
C	-0.0343497506	 1.5634218575	 0.1971010743	-0.380962
C	-0.0588304713	 0.0353393778	 0.1094588269	-0.169775
C	-1.4686096264	-0.5299153723	-0.0944912354	-0.161235
C	-1.4951368685	-2.0530340208	-0.1488315933	-0.098552
N	-1.2121709788	-2.7600225636	 1.1362792065	-0.339911
C	-2.4023889931	-3.6524660587	 1.0094891843	-0.065523
C	-3.2972346815	-3.7625436516	 2.2345998302	-0.3855
C	-2.8633156472	-2.7560188641	-0.1541779708	 0.373935
O	-3.8842954525	-2.6155387546	-0.7591686455	-0.298875
H	 0.9833330597	 1.9379473618	 0.3451869978	 0.111616
H	-0.4280909073	 2.0198472307	-0.7178703769	 0.115069
H	-0.6457524524	 1.9202658825	 1.0331547279	 0.117422
H	 0.5879775199	-0.2972284306	-0.7139610625	 0.08975
H	 0.362307017	-0.3940633748	 1.0268663793	 0.106784
H	-2.1203201579	-0.1971568287	 0.7224780156	 0.100034
H	-1.9027638954	-0.1453241222	-1.026413034	 0.106952
H	-0.8834708928	-2.4104609406	-0.9935759647	 0.088836
H	-0.3279814222	-3.2545393226	 1.150300295	 0.221051
H	-2.1598507252	-4.6559570256	 0.6245501187	 0.092585
H	-3.5437689825	-2.7694254208	 2.619330655	 0.12641
H	-4.2263170893	-4.2801123467	 1.9760523104	 0.130013
H	-2.8000443919	-4.3242294522	 3.0315523511	 0.119875
49.7904	81.4866	99.5928	116.4229	186.9274	200.9596	243.4849	258.0107	320.0522	380.2963	414.8681	538.1366	609.2106	651.2977	738.4758	771.8338	835.9638	854.5029	898.4619	925.4373	961.5225	1004.9176	1036.0491	1051.7333	1071.0311	1092.6651	1118.5681	1129.1134	1173.9831	1186.1575	1253.0778	1270.8281	1308.9317	1325.0751	1333.9425	1364.3958	1381.2714	1395.4728	1402.7196	1412.5175	1473.8969	1483.826	1492.9343	1494.8944	1499.1023	1509.3475	1907.5004	2970.0615	2978.3432	3012.3537	3025.4171	3030.6385	3039.8384	3047.4831	3072.5794	3098.0748	3102.2139	3111.0742	3123.3848	3543.9457
CCCC1NC(C)C1=O	CCC[C@H]1N[C@@H](C)C1=O	
InChI=1S/C7H13NO/c1-3-4-6-7(9)5(2)8-6/h5-6,8H,3-4H2,1-2H3	InChI=1S/C7H13NO/c1-3-4-6-7(9)5(2)8-6/h5-6,8H,3-4H2,1-2H3/t5-,6+/m0/s1
