15
gdb 73880	2.1956	1.7263	0.97348	9.0453	73.22	-0.2272	-0.0443	0.1829	1129.9911	0.112561	-454.007395	-453.99865	-453.997706	-454.040883	31.267	
N	 0.0339869069	 1.2936083901	-0.0442595846	-0.583322
C	-0.0356880582	-0.0523838493	-0.0141340089	 0.290889
C	-1.1220763018	-0.8833520039	-0.0008747258	-0.003265
C	-2.5114814631	-0.458246477	 0.0074872601	 0.061406
O	-3.4894348324	-1.1698790787	 0.0246161115	-0.260594
C	-0.6361537385	-2.2938716707	-0.0010496416	 0.362652
O	-1.2568232753	-3.326550632	-0.0728693023	-0.355185
N	 0.7549288484	-2.2107046954	 0.1050265321	-0.354857
C	 1.2443128037	-0.8621919851	-0.0184197453	-0.242769
H	 0.9164071585	 1.7608742797	 0.071675686	 0.271597
H	-0.7943972112	 1.8565617454	 0.0435715498	 0.278738
H	-2.6397526937	 0.655782008	-0.001891904	 0.02203
H	 1.3127151332	-3.0115337682	-0.1414578987	 0.251832
H	 1.8014643932	-0.6833424242	-0.9506424081	 0.13345
H	 1.8956952404	-0.5659399188	 0.8170879897	 0.127398
95.6659	144.1429	168.896	178.5008	190.2468	261.5744	317.1662	405.9558	444.5107	462.5331	541.4323	601.2407	608.3835	741.6909	751.2983	776.3338	934.6741	1016.5258	1019.0938	1092.0456	1151.0728	1167.2384	1198.2085	1259.4586	1331.193	1415.4135	1439.6686	1477.6108	1504.3153	1627.7971	1683.2317	1778.1741	1849.668	2768.836	2988.2773	3012.2303	3615.1021	3658.3592	3730.8577
NC1=C(C=O)C(=O)NC1	NC1=C(C=O)C(=O)NC1	
InChI=1S/C5H6N2O2/c6-4-1-7-5(9)3(4)2-8/h2H,1,6H2,(H,7,9)	InChI=1S/C5H6N2O2/c6-4-1-7-5(9)3(4)2-8/h2H,1,6H2,(H,7,9)
