19
gdb 81344	2.65928	1.52973	1.20147	1.2658	76.42	-0.2302	0.0088	0.239	1095.9147	0.159982	-423.014154	-423.006226	-423.005282	-423.046165	31.583	
C	 0.0284768439	 1.4983754622	 0.0480500094	-0.504021
C	-0.0036853992	 0.0018393413	-0.0143048453	 0.366349
C	-0.0580868295	-0.7294160375	-1.1307524607	-0.177121
C	-0.0592022111	-2.2407670685	-1.0361398523	-0.26904
C	 0.0500494653	-2.6409786176	 0.438350483	 0.030964
O	-0.9388850711	-1.8852813125	 1.2111296054	-0.317802
C	 0.0446445103	-0.7987476063	 1.2742746375	-0.079411
C	 1.1631711724	-1.8717307768	 1.1943752075	 0.184435
O	 1.5165058588	-2.450353803	 2.4233735659	-0.457352
H	 0.9300413188	 1.8575663817	 0.5614147359	 0.127975
H	 0.0101365569	 1.9421173113	-0.951049307	 0.124258
H	-0.8272876195	 1.889336143	 0.6133214665	 0.13063
H	-0.1187419732	-0.2673786119	-2.1126677303	 0.087057
H	-0.9757546677	-2.6588640675	-1.4739748691	 0.11611
H	 0.7777500228	-2.6720601595	-1.6024835009	 0.109359
H	-0.0225768151	-3.7186681038	 0.6120380246	 0.076677
H	-0.0498125527	-0.2051774889	 2.1874052492	 0.072557
H	 2.0872008192	-1.6177054353	 0.6721382623	 0.090975
H	 0.6912819608	-2.6768508306	 2.8706743184	 0.287402
147.0428	182.4932	214.3484	263.0371	303.6299	358.4922	383.4258	463.7782	485.7879	492.0819	574.6037	685.8582	806.3787	851.3669	867.3972	906.0562	921.4247	933.7691	938.2696	988.3511	1003.6951	1057.8105	1066.3299	1072.4879	1106.6814	1157.5819	1176.9987	1210.1948	1225.3971	1262.881	1274.9203	1325.5264	1343.2076	1359.6119	1365.8661	1415.2339	1434.3909	1471.7763	1478.0421	1489.3832	1727.8678	3009.9543	3014.3941	3037.839	3060.4137	3071.7401	3082.2051	3104.0595	3110.6046	3160.4668	3778.687
CC1=CCC2OC1C2O	CC1=CC[C@@H]2O[C@H]1[C@H]2O	
InChI=1S/C7H10O2/c1-4-2-3-5-6(8)7(4)9-5/h2,5-8H,3H2,1H3	InChI=1S/C7H10O2/c1-4-2-3-5-6(8)7(4)9-5/h2,5-8H,3H2,1H3/t5-,6-,7+/m0/s1
