18
gdb 33380	8.23416	0.49645	0.48687	1.5463	96.06	-0.2394	-0.0103	0.229	2195.3787	0.145721	-364.725847	-364.716316	-364.715372	-364.761183	34.394	
C	-0.0616739991	-3.7766839274	-0.0535197407	-0.555611
C	-0.0241532306	-2.5707465544	-0.0000461535	 0.291609
C	 0.0184657988	-1.2119768891	 0.0604210554	-0.236825
C	 0.0565199513	-0.0033176451	 0.1147684456	 0.370943
C	 0.1260327327	 1.4471649316	 0.1708029189	-0.390272
C	 1.5092528001	 1.9934949345	-0.2332580992	-0.13411
N	 1.4968661458	 3.448254944	-0.1775122426	-0.056388
C	 1.8950032289	 4.050415444	 1.0934591349	-0.223565
C	 2.799371976	 4.0982186171	-0.088071971	-0.224355
H	-0.0950062135	-4.8366018266	-0.1009807409	 0.188982
H	-0.630196985	 1.8896536057	-0.4888533521	 0.149145
H	-0.1123405486	 1.7900663202	 1.1862193955	 0.138366
H	 2.2829249183	 1.5490873383	 0.4169457174	 0.094642
H	 1.7333210456	 1.6887390289	-1.2609008274	 0.120101
H	 1.3347177481	 4.9295850763	 1.3973347755	 0.120699
H	 2.178428311	 3.3842268734	 1.9072949758	 0.112257
H	 3.6846977869	 3.4648565876	-0.0608036085	 0.113487
H	 2.910494293	 5.0122219609	-0.6640913034	 0.120896
48.167	64.1258	108.8331	164.2028	184.728	254.2477	348.7694	369.4378	421.5344	470.072	535.5442	536.613	590.9639	595.6297	724.7915	782.8082	790.1029	847.1036	904.9122	1007.9358	1031.3053	1053.1032	1082.4866	1113.316	1120.0949	1168.9074	1177.4301	1180.2795	1242.7145	1303.3335	1313.2975	1324.3857	1395.5931	1467.8888	1488.4474	1499.9901	1522.4471	2182.1568	2364.7101	2953.2275	3022.8957	3057.1297	3076.5535	3093.5936	3098.8028	3179.3459	3193.3764	3506.7661
C#CC#CCCN1CC1	C#CC#CCCN1CC1	
InChI=1S/C8H9N/c1-2-3-4-5-6-9-7-8-9/h1H,5-8H2	InChI=1S/C8H9N/c1-2-3-4-5-6-9-7-8-9/h1H,5-8H2
