16
gdb 35801	3.89876	1.25328	1.05019	5.5633	69.06	-0.2762	0.0128	0.289	1112.6778	0.125365	-437.867963	-437.860548	-437.859604	-437.900032	28.284	
N	-0.0505601852	-1.1196262433	-0.1325175538	-0.308229
C	-0.0270023905	 0.0298081421	-0.0412547954	 0.289799
C	-0.031226635	 1.5029563386	 0.0258552236	 0.079734
O	-0.7403693337	 1.8897772125	 1.1688796369	-0.240986
C	-0.9878948542	 3.2979233813	 1.1469927843	-0.112279
C	 0.2786350295	 4.0778079366	 0.8596125081	-0.074772
C	 1.5431408899	 3.8243422277	 1.6478779432	-0.300864
C	 1.4283134927	 3.3221494859	 0.2350023656	 0.095915
O	 1.305037058	 1.9287475269	 0.0533382749	-0.248382
H	-0.5386325467	 1.8984528364	-0.8738188713	 0.104931
H	-1.7450366795	 3.5211119433	 0.3790507681	 0.107899
H	-1.4100309389	 3.5394060809	 2.1257883146	 0.130082
H	 0.1091829598	 5.0886565014	 0.5023248755	 0.104313
H	 2.2004466433	 4.6620381231	 1.85091447	 0.12189
H	 1.5077979875	 3.0623375005	 2.4186388354	 0.14067
H	 2.018021363	 3.7824039962	-0.5515162398	 0.110277
94.2299	156.3398	187.3256	291.8596	362.3741	396.5337	477.472	500.3256	562.9498	617.7639	723.8178	767.9249	817.4136	855.2323	930.7034	975.1035	1001.228	1019.333	1053.2187	1071.1589	1079.6002	1109.0697	1128.2316	1144.4062	1182.6875	1227.4607	1280.4169	1350.7828	1377.498	1393.1354	1404.61	1416.4838	1478.4334	1501.407	2385.5292	2934.0924	2987.3615	3095.3077	3139.6569	3153.6456	3163.4359	3233.2515
N#CC1OCC2CC2O1	N#C[C@H]1OC[C@H]2C[C@H]2O1	
InChI=1S/C6H7NO2/c7-2-6-8-3-4-1-5(4)9-6/h4-6H,1,3H2	InChI=1S/C6H7NO2/c7-2-6-8-3-4-1-5(4)9-6/h4-6H,1,3H2/t4-,5-,6+/m1/s1
