21
gdb 76194	2.19279	1.40599	1.17491	3.159	78.81	-0.2374	0.0643	0.3018	1185.2078	0.180362	-424.186336	-424.176564	-424.17562	-424.220464	36.408	
C	-0.0521054919	 1.5466980454	 0.0039980065	-0.465065
C	-0.0083599809	 0.0313192213	 0.0007324816	 0.198577
C	-1.1939344713	-0.6472266496	-0.65895057	-0.456703
C	 1.3455850431	-0.6550569605	-0.1258419991	-0.01945
O	 2.5284289006	 0.0917339699	-0.1541246102	-0.419472
C	 0.6269945645	-0.6659392958	 1.1826505774	 0.233951
C	 1.1311657195	-0.0780850076	 2.4956465172	-0.137263
O	 0.6595042104	-1.2403040558	 3.21763148	-0.278734
C	 0.1464381717	-1.8502289499	 2.0144101338	-0.147212
H	 0.8729326053	 1.9724370003	 0.3993961675	 0.13095
H	-0.1929170193	 1.9338566808	-1.0125867695	 0.109783
H	-0.8862756189	 1.9151792268	 0.6117677804	 0.119204
H	-1.3032370676	-0.320380882	-1.6996865513	 0.11449
H	-1.0884041595	-1.7369075254	-0.6614426892	 0.116048
H	-2.1281956605	-0.4087052556	-0.1370824292	 0.120329
H	 1.3794688625	-1.5886422718	-0.6917888322	 0.080504
H	 2.6288913952	 0.4665111659	-1.0356829473	 0.290047
H	 2.2176734861	 0.0458198681	 2.5697260707	 0.116284
H	 0.6374350095	 0.841593882	 2.8358058087	 0.096802
H	-0.9415545597	-1.9955106226	 2.0603912417	 0.097207
H	 0.6269865911	-2.8149432538	 1.8024369925	 0.099724
93.9193	153.703	162.2088	195.6128	209.4789	228.9531	252.3901	268.5802	324.2558	344.7207	426.2222	523.933	535.4445	585.7012	700.0767	841.9137	873.6237	957.2248	968.2537	972.3429	988.5514	1005.0263	1029.036	1049.5808	1111.3541	1131.1541	1148.5534	1152.6502	1165.1104	1182.2728	1224.5398	1273.7292	1291.2136	1308.9649	1342.387	1383.2569	1407.1306	1424.2138	1478.9708	1485.2898	1492.2423	1504.1183	1512.3728	1519.3307	1537.7057	2993.9966	3012.2169	3020.4549	3025.586	3034.5378	3060.2803	3072.5309	3078.6489	3081.752	3097.0163	3122.5366	3803.0524
CC1(C)C(O)C11COC1	CC1(C)[C@@H](O)C21COC2	
InChI=1S/C7H12O2/c1-6(2)5(8)7(6)3-9-4-7/h5,8H,3-4H2,1-2H3	InChI=1S/C7H12O2/c1-6(2)5(8)7(6)3-9-4-7/h5,8H,3-4H2,1-2H3/t5-/m1/s1
