18
gdb 127974	3.3279	1.27775	0.93959	3.9384	77.82	-0.2078	0.0129	0.2207	1255.5606	0.146014	-435.267302	-435.257401	-435.256456	-435.303435	33.579	
C	-0.0235451237	 1.3782388542	-0.0540157059	-0.320053
N	-0.0027239549	-0.0762879479	-0.0177796902	-0.402393
C	 0.5756362174	-0.6356480316	 0.9536502836	 0.530728
O	 1.2088122186	-0.0532666766	 2.016155204	-0.259499
N	 1.7248455871	-1.0668592124	 2.8835759794	-0.194673
C	 1.3905919155	-2.1833834871	 2.3234103736	 0.394057
C	 1.7312839945	-3.5129812107	 2.8967987854	-0.501369
N	 0.6957266105	-2.007637473	 1.1564389	-0.175242
C	 0.1574889657	-3.002772793	 0.2539711138	-0.351895
H	 0.9867992538	 1.8089371968	-0.0854176008	 0.119025
H	-0.5573485968	 1.702385698	-0.9507619498	 0.11622
H	-0.5322445001	 1.8097320079	 0.8191004646	 0.119022
H	 2.2844298698	-3.3687442565	 3.8253435098	 0.168467
H	 0.8269409867	-4.0932658957	 3.107499323	 0.148674
H	 2.3467245913	-4.0942246482	 2.2022853658	 0.148673
H	-0.5829005897	-3.6349578897	 0.7542432213	 0.137959
H	-0.3255815146	-2.4560112127	-0.5573361628	 0.184337
H	 0.9493861486	-3.6358029118	-0.1586740447	 0.137962
34.1149	54.9122	115.2261	139.4799	177.5996	178.2163	256.3504	267.7157	332.3952	339.5348	564.5222	609.4227	628.2526	727.1219	731.4784	762.6577	897.6297	965.0891	1029.9328	1068.0342	1083.2006	1123.9048	1149.62	1157.6577	1179.6769	1225.5423	1363.0836	1407.0111	1435.5479	1447.7071	1470.1201	1476.3085	1490.1248	1499.1212	1501.2807	1504.4945	1516.4811	1663.6524	1797.9051	2995.5023	3035.1749	3042.7534	3043.9804	3096.1399	3100.9674	3101.4608	3149.1917	3155.3152
CN=C1ON=C(C)N1C	CN=c1onc(C)n1C	
InChI=1S/C5H9N3O/c1-4-7-9-5(6-2)8(4)3/h1-3H3	InChI=1S/C5H9N3O/c1-4-7-9-5(6-2)8(4)3/h1-3H3
