25
gdb 114953	3.92904	0.78659	0.70403	0.2399	95.83	-0.2236	0.0342	0.2578	1748.5089	0.229142	-352.38788	-352.377685	-352.376741	-352.423373	38.2	
C	 0.0680825927	 1.5277878151	 0.0168562044	-0.382613
C	 0.02728655	-0.0028742982	-0.0322160564	-0.187875
C	-1.389164237	-0.5834227314	-0.0622673193	 0.055456
C	-2.2296420835	-0.2141761133	-1.3165925142	-0.260418
C	-3.0902295354	-1.435268516	-1.5256302443	-0.18109
C	-2.674530648	-2.4885968001	-0.8181206367	 0.345653
C	-3.2683448472	-3.8663801027	-0.8145663699	-0.289355
C	-2.3201760329	-4.945728548	-1.3670919041	-0.372165
C	-1.4438334103	-2.1328332464	-0.0052015478	-0.330478
H	 1.0977723378	 1.8969559951	 0.0556113502	 0.109228
H	-0.4091146625	 1.970204517	-0.8638418384	 0.118217
H	-0.4551746964	 1.9079684067	 0.9016691478	 0.11195
H	 0.5767329905	-0.3577010505	-0.9153110435	 0.090813
H	 0.5604953848	-0.4066844648	 0.8385552057	 0.090988
H	-1.9329264333	-0.2057714495	 0.8141096599	 0.069915
H	-2.8114111891	 0.7042521928	-1.1772030628	 0.097773
H	-1.5838533043	-0.0360818747	-2.1910651763	 0.096736
H	-3.9336433053	-1.4480940314	-2.2092904128	 0.078451
H	-3.5462353533	-4.1396906038	 0.2137389663	 0.098719
H	-4.1967462663	-3.8636658551	-1.3970765301	 0.098616
H	-2.795999975	-5.9309837368	-1.3434191307	 0.111378
H	-2.0424343525	-4.7270898807	-2.4031465543	 0.118515
H	-1.3981931138	-5.0071684721	-0.7803141673	 0.119385
H	-0.5417124483	-2.5776655859	-0.4523728643	 0.098687
H	-1.4893945912	-2.5117090054	 1.0237255587	 0.093516
61.6619	73.1071	117.31	158.8361	191.129	226.3519	247.899	295.2684	352.9912	407.505	414.7636	488.0687	603.0955	638.1522	776.8688	789.3444	836.499	846.2903	867.8096	926.0398	949.2769	964.0541	969.3025	987.5985	1035.3944	1063.5923	1068.3544	1091.4015	1124.4553	1143.0902	1153.483	1202.3942	1227.3036	1264.7222	1290.3669	1294.3133	1307.6044	1335.045	1339.2893	1355.0804	1374.5532	1388.124	1406.7653	1412.1729	1480.4242	1484.3409	1485.4618	1495.4354	1499.2275	1500.906	1507.4578	1508.5425	1718.6138	2981.644	2989.608	3002.5378	3003.3325	3012.4109	3030.4799	3035.73	3037.3041	3042.3307	3052.3657	3056.9374	3096.2884	3102.5876	3106.6998	3108.5765	3175.5665
CCC1CC=C(CC)C1	CC[C@H]1CC=C(CC)C1	
InChI=1S/C9H16/c1-3-8-5-6-9(4-2)7-8/h5,9H,3-4,6-7H2,1-2H3	InChI=1S/C9H16/c1-3-8-5-6-9(4-2)7-8/h5,9H,3-4,6-7H2,1-2H3/t9-/m0/s1
