18
gdb 73957	2.56633	1.41714	0.94921	4.3136	81.66	-0.2574	-0.0372	0.2202	1214.5108	0.14845	-401.982685	-401.974124	-401.973179	-402.015895	31.672	
C	 0.0190578669	 1.5498754995	 0.1342580211	-0.502649
C	 0.0172791027	 0.0554746042	 0.0123010111	 0.222505
C	 0.0076010401	-0.6009061518	-1.1627413801	 0.055534
C	 0.0464826685	-2.1201999032	-1.2477042484	-0.162291
O	 0.389194658	-2.7289393627	-0.0265321801	-0.238668
C	-0.345721096	-2.1971846398	 1.0612285113	-0.09469
C	 0.0328944245	-0.7351862865	 1.297265528	-0.287713
C	-0.0501945834	 0.0798236325	-2.4146008128	 0.214491
N	-0.1000094092	 0.5864239841	-3.4561722464	-0.347505
H	 0.8794008618	 1.8813817966	 0.7290262357	 0.137725
H	 0.0561826052	 2.046207504	-0.8370074646	 0.156371
H	-0.877389123	 1.8914419066	 0.6665385874	 0.13687
H	-0.9285246884	-2.4886164624	-1.6128718512	 0.114003
H	 0.8025649586	-2.4319327393	-1.9753109944	 0.138035
H	-1.4280886314	-2.2807616768	 0.8706008341	 0.09753
H	-0.1063168874	-2.8159105862	 1.9296456307	 0.116625
H	 1.0332246498	-0.6714373933	 1.747321286	 0.130106
H	-0.6562572473	-0.2784869655	 2.0192934325	 0.113721
111.5305	137.0497	150.8352	166.0413	267.3655	318.6649	325.815	427.1121	436.6682	484.9394	566.4733	612.8251	624.4988	711.1588	857.354	897.1142	972.398	998.1815	1021.7058	1042.2563	1094.1849	1110.4534	1154.6122	1165.0826	1228.548	1243.627	1272.3639	1318.9475	1370.8699	1387.3356	1414.6337	1422.3933	1460.4613	1481.0428	1481.6481	1489.8769	1504.1208	1702.3166	2327.1372	2951.8188	2976.649	3015.1329	3025.0924	3051.4941	3072.4634	3075.5235	3097.879	3136.2467
CC1=C(COCC1)C#N	CC1=C(COCC1)C#N	
InChI=1S/C7H9NO/c1-6-2-3-9-5-7(6)4-8/h2-3,5H2,1H3	InChI=1S/C7H9NO/c1-6-2-3-9-5-7(6)4-8/h2-3,5H2,1H3
