18
gdb 71206	2.35443	2.08541	1.65822	1.9098	74.95	-0.2196	-0.0133	0.2064	910.6879	0.148822	-401.91708	-401.909821	-401.908877	-401.948447	29.088	
C	-0.0107130992	 1.525086419	 0.1093979357	-0.501019
C	 0.0506685852	 0.027756203	 0.0224032675	 0.209255
C	 0.9032353767	-0.7704582989	-1.0076807111	-0.283262
C	 0.7886120538	-1.8555606827	 0.0670540981	-0.001413
C	-0.7276293	-2.1055875807	 0.4459512432	-0.178595
C	-0.3233480106	-1.5766085513	 1.8436581266	-0.187916
N	 0.7535253913	-0.7790308595	 1.1445482844	-0.176875
C	-1.2510788652	-0.7807268547	-0.1036991119	 0.42985
O	-2.3339300066	-0.4517097973	-0.5013496971	-0.34484
H	 0.9914246322	 1.9610748158	 0.1318189677	 0.126213
H	-0.554447612	 1.927374784	-0.7511346383	 0.136684
H	-0.5422032439	 1.8394044777	 1.0135915841	 0.128573
H	 0.4869142558	-0.9393100375	-2.0037090488	 0.114816
H	 1.9243481007	-0.387045321	-1.0714630433	 0.120246
H	 1.4912726012	-2.6815877112	 0.1823303719	 0.087868
H	-1.2983639006	-3.0132110048	 0.2583018735	 0.08545
H	-1.0576729559	-1.0045657278	 2.4207278541	 0.116526
H	 0.153324317	-2.3213136122	 2.4863699936	 0.11844
140.9177	169.1718	231.0785	259.398	381.2084	413.3543	484.2443	577.5798	642.1751	716.2519	747.9952	777.7312	780.3929	834.0512	857.2565	887.1524	930.7598	971.6949	994.5111	1006.0181	1020.5253	1050.9948	1103.2522	1111.4436	1155.8333	1163.9065	1202.9447	1214.9359	1223.8417	1248.0679	1270.4597	1305.9138	1341.8901	1413.069	1479.1051	1485.432	1488.3398	1508.9228	1879.6235	3040.0154	3044.3726	3063.7963	3105.4455	3107.7507	3107.9816	3120.7857	3127.0915	3136.8358
CC12CC3C(CN13)C2=O	C[C@@]12C[C@@H]3[C@@H](CN13)C2=O	
InChI=1S/C7H9NO/c1-7-2-5-4(6(7)9)3-8(5)7/h4-5H,2-3H2,1H3	InChI=1S/C7H9NO/c1-7-2-5-4(6(7)9)3-8(5)7/h4-5H,2-3H2,1H3/t4-,5-,7+/m1/s1
