17
gdb 37348	3.15836	1.93014	1.66376	1.8989	69.7	-0.2465	0.0209	0.2673	850.736	0.141063	-417.997472	-417.991473	-417.990529	-418.027483	25.612	
C	-0.0122693005	 1.5487596143	-0.0195909579	-0.266466
C	 1.4936221263	 1.8333610773	-0.0170845552	 0.107996
O	 2.0360721564	 1.438869424	 1.2746502617	-0.246826
C	 1.4815299382	 0.3134953069	 1.7986089581	 0.124006
N	 0.5695817058	-0.4256374676	 1.3183346007	-0.268539
C	 0.0393448386	 0.0085478539	 0.0107300638	-0.000088
C	 1.1120694286	-0.309018062	-1.0345848768	-0.018973
N	 1.1333954495	 0.6146789676	-2.1865543414	-0.357101
C	 2.0422491175	 0.8488637261	-1.0412472128	-0.043869
H	-0.5160248563	 1.9651007095	 0.8546138653	 0.110038
H	-0.4726463394	 1.9271271236	-0.9314174818	 0.13362
H	 1.7794726913	 2.8771584349	-0.1505858552	 0.088652
H	 1.9300065893	 0.0961520035	 2.7662779665	 0.125054
H	-0.9219318274	-0.4772072992	-0.1666801642	 0.077074
H	 1.4613883921	-1.3287138899	-1.1484991057	 0.10003
H	 1.6658031639	 0.1887787549	-2.9411052151	 0.237377
H	 3.1140376363	 0.7422767225	-1.16261295	 0.098016
243.4658	290.9279	369.6189	436.3597	481.6679	496.351	595.2678	722.2938	747.1452	840.7547	851.4459	859.5617	869.3946	895.6975	910.932	948.2922	955.7509	966.8885	991.614	1036.2122	1087.7883	1091.9583	1105.6562	1137.6194	1161.3392	1187.1638	1229.6716	1257.8216	1296.0404	1322.8699	1340.8266	1347.4822	1373.3506	1398.9923	1418.8369	1473.6831	1697.5156	3086.7774	3094.4228	3112.5315	3151.6549	3160.0531	3178.7245	3189.031	3508.2088
C1C2OC=NC1C1NC21	C1[C@H]2O[CH][N][C@@H]1[C@H]1N[C@@H]21	
InChI=1S/C6H8N2O/c1-3-5-6(8-5)4(1)9-2-7-3/h2-6,8H,1H2	InChI=1S/C6H8N2O/c1-3-5-6(8-5)4(1)9-2-7-3/h2-6,8H,1H2/t3-,4+,5+,6-/m0/s1
