18
gdb 122766	5.51429	0.55716	0.51247	3.7555	75.65	-0.2692	-0.088	0.1811	2073.8791	0.144258	-439.099721	-439.089295	-439.088351	-439.136944	34.76	
C	-0.1795899621	 1.5431192335	 0.0131742268	-0.386227
C	-0.0421418994	 0.0308878277	 0.0024434715	-0.034397
O	-1.3389726523	-0.5399645197	 0.011875462	-0.248818
C	-1.3247008097	-1.9466623938	 0.0034825241	-0.064397
C	-2.7758426448	-2.4099617104	 0.0150251066	-0.31841
C	-2.9157385563	-3.9088783804	 0.0081185719	 0.285729
O	-2.001926799	-4.6951035449	-0.0054023819	-0.264803
C	-4.3137341614	-4.4004012033	 0.0185149086	 0.231905
N	-5.4076780237	-4.7746335532	 0.0268003928	-0.291802
H	 0.8078268695	 2.0138802159	 0.0060855259	 0.119308
H	-0.7336595705	 1.8850794973	-0.8655081796	 0.128716
H	-0.7157314674	 1.8741481712	 0.907032272	 0.12871
H	 0.5098749419	-0.303980261	-0.8915749231	 0.091446
H	 0.5275979398	-0.314956157	 0.8810283851	 0.091444
H	-0.80849739	-2.3363188006	-0.8880209533	 0.107587
H	-0.791154478	-2.3466981432	 0.8800478767	 0.107593
H	-3.3015347083	-2.0147252725	 0.8946299456	 0.158203
H	-3.3185945383	-2.0050943656	-0.8497081817	 0.158212
47.4675	50.8556	79.9434	114.8878	137.2082	169.4872	228.3279	248.2998	275.5977	364.4134	428.0975	518.3574	575.9021	614.9452	804.8907	822.5082	823.878	908.343	1035.4564	1052.3807	1075.2459	1093.4946	1160.3865	1170.0709	1184.1407	1220.2472	1293.4267	1297.9874	1332.8716	1393.1588	1411.3018	1440.9228	1459.765	1484.1183	1499.0093	1515.4084	1535.9519	1795.7404	2338.2658	2959.2643	2979.6221	2986.8554	3005.7675	3031.9129	3046.5048	3064.4645	3121.6822	3122.9039
CCOCCC(=O)C#N	CCOCCC(=O)C#N	
InChI=1S/C6H9NO2/c1-2-9-4-3-6(8)5-7/h2-4H2,1H3	InChI=1S/C6H9NO2/c1-2-9-4-3-6(8)5-7/h2-4H2,1H3
