16
gdb 43059	3.36506	1.85862	1.634	3.5255	70.87	-0.2348	-0.0261	0.2088	847.8079	0.12693	-400.703978	-400.697958	-400.697014	-400.734254	25.064	
O	-0.0355066179	 0.0083157147	-0.1245732804	-0.317116
C	-0.0332952191	 1.1991909146	 0.001699076	 0.443861
C	-1.1271162977	 2.2790058004	 0.0287517272	-0.192349
C	-1.3528394745	 2.6346057391	 1.5175979395	-0.245681
C	-0.1193859004	 3.4423418783	 1.8613180121	-0.02469
C	 0.3820847476	 4.1920615259	 0.7010112716	-0.046443
C	-0.0299376861	 3.303846551	-0.4842443868	-0.073095
C	 1.0440698628	 2.2774690264	-0.0049937227	-0.110891
N	 1.2193121339	 3.0768812449	 1.293764393	-0.170217
H	-2.0372749615	 2.110070458	-0.546033956	 0.095917
H	-2.2474728435	 3.253854619	 1.6546200247	 0.113929
H	-1.4724453631	 1.7382022718	 2.1341072791	 0.129157
H	-0.0135680438	 3.8550943329	 2.8596149873	 0.106968
H	 0.7167593836	 5.2224053529	 0.6833427802	 0.102498
H	-0.0949702079	 3.6701042238	-1.5045028998	 0.088846
H	 2.0154248174	 2.1057191563	-0.468172715	 0.099306
127.8067	269.5132	406.2642	452.0865	523.4715	632.0135	663.7299	708.8886	761.6934	789.0616	810.6592	844.2902	866.3198	892.9063	930.1194	945.1867	968.3451	1002.9288	1019.7889	1048.1641	1059.3011	1078.0334	1128.5154	1152.7238	1187.6162	1193.4896	1220.869	1237.5834	1248.7085	1262.3049	1300.5774	1334.059	1396.3402	1495.4198	1881.6388	3034.3124	3084.5019	3119.7502	3122.0421	3160.3607	3168.0715	3186.5551
O=C1C2CC3C4C2C1N34	O=C1[C@H]2C[C@@H]3[C@@H]4[C@H]2[C@H]1N34	
InChI=1S/C7H7NO/c9-7-2-1-3-5-4(2)6(7)8(3)5/h2-6H,1H2	InChI=1S/C7H7NO/c9-7-2-1-3-5-4(2)6(7)8(3)5/h2-6H,1H2/t2-,3+,4-,5+,6+,8?/m0/s1
