17
gdb 48287	2.54238	0.87162	0.67734	2.0598	81.82	-0.2583	-0.0387	0.2197	1597.1593	0.131266	-384.628763	-384.618523	-384.617579	-384.665196	35.837	
O	-0.0553364543	 0.0066898993	-0.1916121735	-0.243695
C	 0.0149644162	 1.164025643	 0.1227259825	 0.166866
C	 1.3057644778	 1.9886479556	 0.0693682224	-0.259047
C	 1.3126409745	 2.8383274335	-1.2335013914	-0.198995
C	 1.4630436527	 1.9768132439	-2.5034744951	-0.367808
C	 1.4480580489	 2.784853912	-3.7159513626	 0.283759
C	 1.4315475349	 3.4759017781	-4.6990175717	-0.426371
C	 1.3976586947	 2.8302594025	 1.2552482008	 0.27762
C	 1.425306935	 3.5246927563	 2.2359474413	-0.410533
H	-0.8764032342	 1.742159948	 0.4517170812	 0.097898
H	 2.1394890443	 1.2771843991	 0.0374806315	 0.127136
H	 0.3913665321	 3.4283681594	-1.2883955525	 0.127467
H	 2.1371663559	 3.5535350199	-1.1731108462	 0.134773
H	 2.4023745649	 1.4113581095	-2.4490274631	 0.137716
H	 0.6648296711	 1.2264236133	-2.5483452552	 0.152171
H	 1.4182012656	 4.0736658188	-5.5764260073	 0.197174
H	 1.4713652901	 4.134847208	 3.1041987888	 0.20387
46.8974	66.6685	93.5169	98.2697	173.4436	194.209	265.8064	341.4401	358.6062	442.5004	453.8549	509.5485	579.6166	621.7272	639.1368	645.1918	654.557	758.3155	914.513	941.571	954.5006	1014.1886	1035.4944	1072.8964	1100.7611	1180.7712	1261.8978	1277.678	1319.7448	1331.9459	1376.834	1415.2804	1473.8889	1493.7881	1833.6446	2236.307	2241.4041	2895.7016	3025.5998	3044.0757	3057.383	3061.1405	3105.4348	3502.2932	3506.9117
O=CC(CCC#C)C#C	O=C[C@@H](CCC#C)C#C	
InChI=1S/C8H8O/c1-3-5-6-8(4-2)7-9/h1-2,7-8H,5-6H2	InChI=1S/C8H8O/c1-3-5-6-8(4-2)7-9/h1-2,7-8H,5-6H2/t8-/m1/s1
