15
gdb 24994	4.573	1.27708	1.01814	5.1681	67.2	-0.2276	0.0266	0.2541	1107.2309	0.114862	-457.819086	-457.812107	-457.811163	-457.850995	26.124	
O	 0.0024827033	 0.0376421334	 0.0645176559	-0.356737
C	-0.0143471738	 1.2227172607	 0.0207981836	 0.455237
O	-1.1505039794	 2.0091568496	 0.0044259245	-0.256313
C	-0.7043771717	 3.3118550975	-0.0622578521	 0.279538
C	 0.6156693502	 3.3299178728	-0.0807959314	 0.279538
C	 1.2265798347	 4.6826029203	-0.0671897044	-0.350847
C	-0.077204092	 5.5580003596	-0.2309437421	-0.199959
C	-1.3514406269	 4.6473267361	-0.0309852624	-0.350847
O	 1.0989625665	 2.0399372865	-0.0271644692	-0.256313
H	 1.7516373954	 4.8935229754	 0.8723566147	 0.127225
H	 1.9386775212	 4.8601368971	-0.8795348312	 0.127728
H	-0.0787441782	 6.3923338661	 0.4723326285	 0.120186
H	-0.0971382391	 5.982757522	-1.2365338128	 0.126613
H	-2.0906552423	 4.8050017704	-0.8229488783	 0.127728
H	-1.8554857195	 4.8441651284	 0.9230132645	 0.127225
85.0964	123.9716	243.1654	294.0664	321.7329	522.0123	594.5586	622.631	710.8848	720.3099	771.7071	782.1611	854.319	881.1636	923.6412	924.0357	947.1372	981.7836	1063.8644	1159.1396	1163.5369	1201.5612	1249.787	1272.341	1273.163	1309.7822	1368.2535	1392.9846	1485.5892	1504.1425	1517.042	1800.2144	1944.4121	3031.3536	3031.4012	3065.7346	3068.6138	3082.9432	3128.1748
O=C1OC2=C(CCC2)O1	O=c1oc2c(CCC2)o1	
InChI=1S/C6H6O3/c7-6-8-4-2-1-3-5(4)9-6/h1-3H2	InChI=1S/C6H6O3/c7-6-8-4-2-1-3-5(4)9-6/h1-3H2
