15
gdb 133087	3.88074	1.13124	0.88076	0.7637	71.92	-0.2376	-0.0172	0.2204	1228.5431	0.11322	-461.972715	-461.965152	-461.964208	-462.005019	28.147	
C	-0.0014194635	 1.3972982381	 0.0073084512	-0.231438
O	-0.0247752511	-0.0300140878	 0.0037769955	-0.263333
C	-1.231089499	-0.6241893683	 0.0112297578	 0.485781
N	-2.3290223893	 0.1211087359	 0.0214408316	-0.367234
C	-3.5063250984	-0.519024921	 0.0284657767	 0.006872
C	-3.6457111812	-1.8965457005	 0.0257531639	-0.274193
C	-2.4670913768	-2.6420052185	 0.0149055953	 0.348556
F	-2.5357878149	-3.9716373209	 0.011779381	-0.072216
C	-1.2339913182	-2.0280822699	 0.0073790063	-0.387756
H	 1.0550667353	 1.6688587573	-0.0001471479	 0.128625
H	-0.504628782	 1.8020899929	-0.8751001418	 0.135883
H	-0.4908895026	 1.7974644064	 0.8995072212	 0.135871
H	-4.389143228	 0.1150282298	 0.0367896767	 0.117808
H	-4.6129210524	-2.3811435953	 0.0316568099	 0.113667
H	-0.3119439882	-2.5932238281	-0.0010760773	 0.123108
101.0139	168.8952	230.4174	240.0512	250.2187	373.1279	476.229	480.4835	518.4328	635.5492	669.2074	762.3251	783.4103	827.9579	879.9794	949.3183	979.3523	1006.3323	1063.2276	1105.961	1178.7534	1192.1112	1208.2329	1305.2073	1327.2714	1359.6636	1434.5333	1479.4345	1492.7337	1504.437	1521.7881	1617.2329	1650.2116	3044.3021	3116.0877	3147.9753	3162.6259	3225.0997	3228.4971
COC1=NC=CC(F)=C1	COc1nccc(F)c1	
InChI=1S/C6H6FNO/c1-9-6-4-5(7)2-3-8-6/h2-4H,1H3	InChI=1S/C6H6FNO/c1-9-6-4-5(7)2-3-8-6/h2-4H,1H3
