19
gdb 60796	2.81673	1.10527	1.00029	1.9376	72.54	-0.2507	-0.0526	0.1981	1248.3534	0.15446	-460.18186	-460.171425	-460.170481	-460.217641	37.039	
C	-0.005645305	 1.713095369	-0.0971980632	-0.436164
C	-0.0423341783	 0.1722090024	-0.0269496446	 0.120528
C	 0.5613867275	-0.3559140167	 1.2795477611	-0.43604
C	-1.5129696394	-0.2468257379	-0.1271638054	 0.143669
O	-2.109452493	-0.8403319246	 0.7344226337	-0.253939
C	 0.6697084525	-0.4387665418	-1.2825977401	 0.02506
O	 0.0570205793	-0.0202394845	-2.4717088488	-0.438573
C	 2.1489977906	-0.0966476807	-1.3257148343	 0.132587
O	 2.6241527106	 0.4947283433	-2.2660077386	-0.262999
H	 1.0244482245	 2.0809767713	-0.047406204	 0.127061
H	-0.4482530325	 2.0713514719	-1.0297115108	 0.140646
H	-0.5569118622	 2.1491183443	 0.7411966083	 0.130934
H	-0.0979011534	-0.1120599739	 2.1153343363	 0.14309
H	 0.6643298293	-1.4455617435	 1.2636624886	 0.124892
H	 1.5426028131	 0.0838199821	 1.4787085819	 0.11167
H	-2.0082887539	 0.0555807932	-1.0718041266	 0.110161
H	 0.6105637008	-1.5386111804	-1.1893327812	 0.105323
H	 0.7596374367	 0.3999998471	-2.994473683	 0.298439
H	 2.7707852228	-0.4240810407	-0.4723199595	 0.113653
54.4948	65.2125	104.6108	181.9065	217.5208	226.0861	261.44	301.1915	317.3246	336.8583	352.9767	403.3234	445.5978	496.9838	651.5567	727.7146	784.1715	832.9328	898.6104	943.3116	956.3151	982.8821	1042.161	1048.5203	1146.4035	1178.2934	1214.9701	1251.991	1284.8165	1332.0589	1391.2525	1399.4057	1407.7103	1428.6928	1436.6896	1483.8921	1487.4905	1499.2808	1508.9369	1804.5003	1824.816	2937.6543	2942.9284	2970.9405	3039.0973	3045.8428	3106.4005	3111.5441	3128.5695	3129.9497	3672.2722
CC(C)(C=O)C(O)C=O	CC(C)(C=O)[C@@H](O)C=O	
InChI=1S/C6H10O3/c1-6(2,4-8)5(9)3-7/h3-5,9H,1-2H3	InChI=1S/C6H10O3/c1-6(2,4-8)5(9)3-7/h3-5,9H,1-2H3/t5-/m0/s1
