16
gdb 49200	4.2316	1.18385	1.05177	3.3846	71.46	-0.259	-0.0741	0.1849	1134.2346	0.125147	-437.894597	-437.887177	-437.886233	-437.927204	27.441	
O	-0.8914984577	 1.1167359561	-0.0059759275	-0.236551
C	 0.2437853817	 0.8880692568	 0.318855271	 0.103764
C	 1.3855934095	 1.8207854906	 0.088898832	 0.304422
N	 2.5761790265	 1.5296612155	 0.446051494	-0.289579
C	 3.4069605909	 2.6749715597	 0.0620900853	-0.016225
C	 4.1700375773	 2.4891564062	-1.2815155498	-0.225598
C	 3.1128320408	 3.3902073305	-1.9986842891	-0.244502
C	 2.4137815153	 3.6506329385	-0.643875251	 0.080063
O	 1.1258145025	 3.0092972785	-0.5038161747	-0.249035
H	 0.5610231397	-0.0432608909	 0.8261868045	 0.113624
H	 3.998359083	 3.0167967893	 0.9144501119	 0.092145
H	 5.1775429803	 2.9105962919	-1.2698113871	 0.112623
H	 4.2259332301	 1.4533329597	-1.6206247628	 0.119474
H	 3.5157354846	 4.2843317015	-2.4791634287	 0.114143
H	 2.4692307948	 2.8729116085	-2.713166649	 0.123676
H	 2.3134492609	 4.6852968677	-0.3157307791	 0.097557
79.3573	89.4024	189.8114	205.4423	391.579	395.5348	501.4726	637.2885	663.3502	716.1903	752.2944	796.5679	850.1217	908.1367	912.7857	941.109	951.2638	1009.7711	1028.3447	1054.3418	1107.5861	1131.496	1200.2832	1223.8751	1244.2789	1266.9356	1281.6449	1295.7244	1324.2444	1379.6798	1391.5856	1468.5812	1485.553	1675.9493	1821.5094	2958.649	3070.979	3074.8785	3083.3302	3111.8383	3121.8641	3138.701
O=CC1=NC2CCC2O1	O=CC1=N[C@H]2CC[C@H]2O1	
InChI=1S/C6H7NO2/c8-3-6-7-4-1-2-5(4)9-6/h3-5H,1-2H2	InChI=1S/C6H7NO2/c8-3-6-7-4-1-2-5(4)9-6/h3-5H,1-2H2/t4-,5+/m0/s1
