15
gdb 27012	2.90098	1.31029	0.90772	3.5459	80.1	-0.1933	-0.0088	0.1844	1211.7392	0.112284	-416.849365	-416.840683	-416.839739	-416.882477	32.195	
C	 0.0836320937	 1.5377935694	 0.052026264	-0.515888
C	-0.009116692	 0.0549380135	 0.0356763091	 0.212177
C	-1.1046648164	-0.7544065044	-0.0349907148	 0.124722
N	-0.6363105369	-2.0803003935	-0.0173450417	-0.437276
C	 0.7432068543	-2.1290060865	 0.063489751	 0.435919
O	 1.4763631632	-3.0944233708	 0.0992693573	-0.427166
N	 1.0975847381	-0.776709739	 0.0947257165	-0.383824
C	-2.4660018735	-0.419490106	-0.1125174174	 0.290615
C	-3.6416209516	-0.1589977242	-0.1797499322	-0.470237
H	 0.6672713032	 1.9151960002	-0.7964607683	 0.138952
H	-0.9177206094	 1.968828935	-0.0038675994	 0.155659
H	 0.563226394	 1.9023481349	 0.9685839545	 0.13896
H	-1.2079548362	-2.9052045949	-0.0573922385	 0.271973
H	 2.0582358614	-0.4862973599	 0.1529068819	 0.269347
H	-4.6745193921	 0.0795273362	-0.2386091923	 0.196067
124.0057	133.6613	156.4484	190.9094	265.2238	278.9206	410.1631	435.9255	439.9892	497.0108	526.9755	554.7488	593.1958	644.9087	677.9066	694.2663	754.7887	819.5724	993.0908	1012.7698	1064.448	1111.6345	1233.7074	1259.9128	1312.112	1398.2299	1417.3632	1451.6637	1478.2846	1492.873	1672.6158	1851.9587	2222.7642	3023.1221	3070.193	3135.8346	3501.7067	3685.3318	3698.9599
CC1=C(NC(=O)N1)C#C	Cc1c([nH]c(=O)[nH]1)C#C	
InChI=1S/C6H6N2O/c1-3-5-4(2)7-6(9)8-5/h1H,2H3,(H2,7,8,9)	InChI=1S/C6H6N2O/c1-3-5-4(2)7-6(9)8-5/h1H,2H3,(H2,7,8,9)
