18
gdb 17112	4.79304	1.54225	1.46395	2.548	67.55	-0.2387	0.0893	0.328	928.4875	0.154746	-384.903425	-384.89632	-384.895376	-384.934791	27.32	
C	-0.0364072111	 1.3135122672	-0.1506032718	-0.237577
O	-0.0507656883	-0.0333282211	 0.2598651462	-0.24827
C	-1.3104430305	-0.6448531475	 0.1446678603	 0.175594
C	-1.7285533195	-1.0468579081	-1.3128828387	-0.26361
C	-1.797481311	-2.5703885389	-1.0756252454	 0.079826
C	-2.5796455897	-2.7003274976	 0.2519501816	-0.235844
C	-1.2515246835	-2.0703890762	 0.7270354448	 0.039166
O	-0.5678713119	-2.8151600524	-0.3260086192	-0.290672
H	 0.9754717329	 1.6917013881	 0.0134806968	 0.128505
H	-0.2859232318	 1.4271579478	-1.2164348447	 0.105664
H	-0.743634681	 1.9246617284	 0.4332446203	 0.100994
H	-2.0749754883	-0.0299050702	 0.6446223407	 0.060781
H	-2.6755679677	-0.6113257412	-1.641771723	 0.095801
H	-0.9425931251	-0.7933448043	-2.0274171228	 0.117509
H	-1.9383303378	-3.2339436514	-1.9287796056	 0.080037
H	-3.5163596451	-2.1506654253	 0.3814339702	 0.092981
H	-2.6729251404	-3.7369344414	 0.5756410649	 0.114237
H	-0.8259264101	-2.197857116	 1.7214104053	 0.084877
106.1102	149.9259	195.5481	275.9851	382.6855	427.4094	479.4165	577.0353	723.036	822.7935	845.5805	849.0399	873.8452	885.4597	949.3772	970.0882	982.6702	1009.4128	1041.0126	1084.5058	1101.4436	1140.9034	1173.7344	1184.1525	1206.3092	1226.3718	1229.5845	1238.2979	1266.2839	1304.1655	1312.8277	1332.67	1396.6452	1470.1768	1482.4524	1487.2242	1490.4704	1509.7302	2968.7774	2980.23	3017.8344	3061.6194	3068.0868	3114.7159	3121.6704	3124.5705	3137.0633	3146.6919
COC1CC2CC1O2	CO[C@H]1C[C@@H]2C[C@H]1O2	
InChI=1S/C6H10O2/c1-7-5-2-4-3-6(5)8-4/h4-6H,2-3H2,1H3	InChI=1S/C6H10O2/c1-7-5-2-4-3-6(5)8-4/h4-6H,2-3H2,1H3/t4-,5+,6-/m1/s1
