21
gdb 92623	3.18894	1.33233	1.15499	2.6579	77.51	-0.2547	0.0778	0.3324	1155.6947	0.185128	-424.256634	-424.248674	-424.247729	-424.289431	31.122	
C	 0.2661547399	 1.5878270106	 0.1086440562	-0.400167
C	 0.2429632554	 0.069979945	 0.0768826631	 0.150845
C	 0.7052210814	-0.5778061466	-1.2363349565	-0.245732
C	 1.2261167887	-1.9565414273	-0.7875530597	-0.076198
C	 2.618233189	-2.3475310406	-1.321848197	-0.23489
C	 3.5493158085	-1.798468114	-0.2333934928	-0.092298
O	 2.8375540655	-2.0243415875	 0.9825793431	-0.243459
C	 1.4829372382	-1.773568687	 0.7433843655	 0.223575
O	 1.1570720175	-0.4281710498	 1.0522052718	-0.275907
H	 1.2715282585	 1.9569326983	-0.117230065	 0.120974
H	-0.4316623734	 1.9967349488	-0.6289099261	 0.113569
H	-0.0214262572	 1.9578855644	 1.0965045401	 0.127485
H	-0.7751513626	-0.2830248156	 0.3178976355	 0.063178
H	-0.0920479289	-0.6419809177	-1.9811633056	 0.100911
H	 1.5168523972	 0.0201213691	-1.6674052908	 0.098092
H	 0.4854391521	-2.7370102118	-0.9727055903	 0.077096
H	 2.7180977524	-3.4356490837	-1.3781959316	 0.107674
H	 2.8254648204	-1.9346849359	-2.3127823258	 0.102323
H	 4.5076935773	-2.3175048862	-0.1601003951	 0.10976
H	 3.7438742269	-0.7251078051	-0.3738488785	 0.099329
H	 0.9132129331	-2.4484311275	 1.3941352497	 0.073841
75.8703	97.9691	225.8485	230.9512	284.0366	390.3271	449.431	504.3414	556.3788	588.0156	646.3701	782.6995	837.5311	857.9953	871.0253	920.2011	927.7902	938.9785	973.0775	999.9735	1027.4606	1053.8228	1060.0854	1096.3763	1146.7922	1156.1957	1161.4199	1201.2533	1222.7466	1236.9018	1266.8493	1300.9678	1311.5731	1333.4547	1349.9782	1361.6266	1381.4789	1393.0431	1408.1057	1419.1409	1483.4783	1488.811	1490.1945	1499.4908	1519.7234	2943.848	2999.1944	3028.8551	3036.7824	3040.9443	3054.9788	3082.8074	3099.835	3101.6782	3110.0185	3113.4867	3119.3817
CC1CC2CCOC2O1	C[C@H]1C[C@H]2CCO[C@H]2O1	
InChI=1S/C7H12O2/c1-5-4-6-2-3-8-7(6)9-5/h5-7H,2-4H2,1H3	InChI=1S/C7H12O2/c1-5-4-6-2-3-8-7(6)9-5/h5-7H,2-4H2,1H3/t5-,6+,7-/m0/s1
