14
gdb 11164	4.01062	1.58547	1.38578	3.552	62.93	-0.2824	0.0017	0.2841	895.5916	0.108807	-378.753966	-378.747019	-378.746075	-378.785588	25.357	
N	-0.030188679	 1.286051283	-0.0934968211	-0.526441
C	-0.0500111216	 0.0298404778	-0.0496969289	 0.426542
C	-1.2711964283	-0.8599350277	-0.1074181643	-0.3035
C	-0.6931170537	-2.2212788203	-0.5116112476	-0.246994
C	 0.7302185572	-2.1446949323	 0.087224597	-0.041675
O	 1.0823354124	-0.7580574279	 0.0521700326	-0.231912
C	 0.7853825413	-2.6472762865	 1.472334586	 0.280028
N	 0.8160326293	-3.0569150789	 2.5519823147	-0.308749
H	 0.9237825741	 1.6423211621	-0.0171515472	 0.232314
H	-1.7268953324	-0.9028486614	 0.8879406008	 0.154422
H	-2.0132818606	-0.4613971463	-0.7984050153	 0.149054
H	-1.2557550558	-3.0774080174	-0.1389327329	 0.14068
H	-0.6095654682	-2.3043691567	-1.5983668292	 0.131793
H	 1.4693509752	-2.6899441075	-0.5054060646	 0.144438
80.3124	122.2146	207.5904	282.5458	436.6921	479.4448	508.7808	568.0675	663.0032	740.1003	808.595	843.3347	893.9453	899.0437	965.7321	975.5858	1042.8216	1070.6434	1084.2333	1163.9136	1215.5697	1255.0496	1300.3248	1313.6987	1351.9572	1376.8607	1472.2164	1495.3182	1795.4976	2360.3008	3060.5794	3074.8577	3087.4555	3138.5049	3145.6995	3480.311
N=C1CCC(O1)C#N	[NH][C]1CC[C@@H](O1)C#N	
InChI=1S/C5H6N2O/c6-3-4-1-2-5(7)8-4/h4,7H,1-2H2	InChI=1S/C5H6N2O/c6-3-4-1-2-5(7)8-4/h4,7H,1-2H2/t4-/m1/s1
