18
gdb 10634	2.57768	1.76539	1.24609	1.7571	74.86	-0.2574	0.0286	0.286	1045.9794	0.15032	-347.759778	-347.750545	-347.749601	-347.793439	33.604	
C	 0.3658312658	 1.450554606	 0.3182948754	-0.379855
C	-0.276772032	 0.1460229189	-0.1671538676	-0.268467
C	 0.490238962	-0.4773646448	-1.3226004409	 0.17374
O	 1.7716552821	-1.0563503325	-0.9882751954	-0.286025
C	 0.7448805364	-1.9361735069	-1.4467238305	 0.037939
C	 0.2432256026	-2.994822544	-0.4992508451	-0.429086
C	 0.4807307411	 0.3011273143	-2.5445769137	 0.315161
C	 0.4445083386	 0.9573689216	-3.5514514903	-0.439853
H	 1.3886236072	 1.2687089613	 0.6609470949	 0.133229
H	 0.4040033219	 2.1927851197	-0.4842215543	 0.130987
H	-0.2039358525	 1.8757408366	 1.1494586093	 0.112223
H	-0.3263909137	-0.5682137152	 0.6582258061	 0.105469
H	-1.3055730397	 0.3308752721	-0.4981907354	 0.108961
H	 0.9081524578	-2.2919377414	-2.4660617197	 0.094811
H	 0.1083426945	-2.6138636352	 0.5140992236	 0.13161
H	-0.708816761	-3.4032997735	-0.854440624	 0.127536
H	 0.9640534396	-3.8181652214	-0.4553740385	 0.133836
H	 0.4231448092	 1.5331876446	-4.4436334638	 0.197784
73.3917	140.469	144.111	161.6497	204.1779	224.5563	290.8205	366.5953	399.9758	496.4528	548.9024	580.3473	619.3347	659.0838	664.364	765.7878	802.042	915.0276	951.6507	983.8912	1017.8534	1079.8455	1091.482	1134.2862	1174.7629	1234.8578	1297.0245	1326.4408	1371.0395	1405.7172	1408.8145	1450.9112	1470.4416	1486.5764	1496.5778	1501.9399	1509.9748	2233.5134	3040.4215	3043.7384	3044.2822	3088.8571	3096.5055	3101.6078	3116.5246	3123.408	3141.4088	3501.3585
CCC1(OC1C)C#C	CC[C@]1(O[C@H]1C)C#C	
InChI=1S/C7H10O/c1-4-7(5-2)6(3)8-7/h1,6H,5H2,2-3H3	InChI=1S/C7H10O/c1-4-7(5-2)6(3)8-7/h1,6H,5H2,2-3H3/t6-,7+/m0/s1
