17
gdb 132728	2.2666	1.76488	1.00457	2.6944	78.16	-0.2475	-0.0242	0.2233	1134.8569	0.13574	-426.046082	-426.037763	-426.036818	-426.078991	30.929	
C	-0.1938897433	 1.5046193249	 0.0309590153	-0.50053
C	-0.0682683499	 0.0043472967	-0.0059899417	 0.209767
C	 0.0539982439	-0.6867510881	-1.2235078372	 0.080495
C	 0.0679684133	 0.0116389702	-2.5563203519	-0.5066
C	 0.1631981342	-2.0699501529	-1.1341905407	 0.197354
F	 0.2833666571	-2.8000187266	-2.2527258769	-0.081626
C	 0.1515617888	-2.7253560244	 0.089450524	-0.10198
N	 0.0355921285	-2.0675706539	 1.2408431767	-0.276521
C	-0.0704393805	-0.738666695	 1.1759964351	-0.063819
H	 0.6741918947	 1.9943634372	-0.4255919949	 0.134308
H	-1.0770236543	 1.8500369732	-0.5191490334	 0.134315
H	-0.2784223078	 1.863428952	 1.0595322076	 0.131608
H	 0.1703758497	-0.7037538262	-3.3722899623	 0.144762
H	-0.8546724739	 0.5819231263	-2.7116065797	 0.138856
H	 0.896777416	 0.7257082188	-2.6178971806	 0.138867
H	 0.2390950219	-3.8080229668	 0.1208581255	 0.118968
H	-0.1641636083	-0.2213955054	 2.1286489451	 0.101777
105.6974	141.5013	152.969	238.5776	283.7775	288.6536	311.871	468.2822	496.3363	541.4894	577.6583	578.4781	669.1291	754.7522	825.6509	911.2775	933.8859	958.5574	1010.7842	1043.7048	1074.2617	1108.6332	1188.417	1215.2781	1288.7921	1307.7265	1311.9235	1407.4125	1418.8995	1452.7262	1479.428	1480.1455	1490.9382	1496.4152	1514.9366	1609.2526	1636.9354	3027.0867	3036.0631	3076.5868	3084.9887	3118.5643	3146.7806	3150.3544	3167.3542
CC1=C(C)C(F)=CN=C1	Cc1c(C)c(F)cnc1	
InChI=1S/C7H8FN/c1-5-3-9-4-7(8)6(5)2/h3-4H,1-2H3	InChI=1S/C7H8FN/c1-5-3-9-4-7(8)6(5)2/h3-4H,1-2H3
