21
gdb 83735	2.71465	1.51707	1.34414	1.3875	82.49	-0.2236	0.0804	0.304	1080.8789	0.183314	-387.070486	-387.062287	-387.061343	-387.1029	32.785	
C	-0.2027756202	 1.5461582436	 0.025724249	-0.423914
C	 0.027952206	 0.0487886947	 0.0514457919	-0.019752
C	 1.3556998984	-0.6201041798	-0.2270030199	-0.084796
C	 2.6243242158	 0.1988559002	-0.0676489885	-0.109074
O	 2.5257014799	 0.8523080467	 1.2001447934	-0.298126
C	 1.6865880905	 0.081975125	 2.0385271709	 0.471231
C	 2.2808688249	-0.5139051508	 3.2888189936	-0.338121
C	 1.3520571714	 0.6893749039	 3.3618252522	-0.332723
C	 0.7482995242	-0.6921255116	 1.1596954403	-0.15164
H	 0.6497189695	 2.0970944273	 0.4254138795	 0.145376
H	-0.3834138249	 1.8894837128	-0.9991896286	 0.110177
H	-1.0847114292	 1.8093451227	 0.6200625514	 0.113341
H	-0.8120106932	-0.5186182709	-0.3447764405	 0.0825
H	 1.3924943349	-1.4844817329	-0.8803578987	 0.085919
H	 3.5025540093	-0.4645813908	-0.0999981747	 0.095747
H	 2.7591915	 0.9822715403	-0.8215389753	 0.106109
H	 1.9181661708	-1.4747020344	 3.6400582808	 0.1075
H	 3.3361040076	-0.3322219309	 3.4590650462	 0.118524
H	 1.800347279	 1.6501488671	 3.589160265	 0.122309
H	 0.3504538174	 0.5504298014	 3.7539953695	 0.113664
H	 0.3254032679	-1.6089422436	 1.5539484224	 0.08575
95.8277	188.7814	199.5017	209.4831	278.3127	298.9277	402.0613	462.8861	507.7213	592.4365	718.6591	741.8317	760.005	782.3408	818.4524	869.0795	892.9632	936.3458	944.4599	968.0598	983.9355	1004.5878	1032.5749	1047.3035	1070.4107	1075.7696	1077.362	1113.4819	1129.3404	1139.931	1189.0071	1222.0913	1228.3265	1262.1242	1277.8841	1349.526	1375.6892	1403.0888	1420.8856	1441.2037	1449.2139	1498.5086	1500.2705	1508.3876	1520.4254	2982.2779	3032.7174	3060.321	3085.336	3118.8382	3126.8319	3134.2547	3144.3852	3169.3177	3179.6642	3213.7053	3228.3204
CC1C2COC3(CC3)C12	C[C@H]1[C@H]2COC3(CC3)[C@@H]12	
InChI=1S/C8H12O/c1-5-6-4-9-8(2-3-8)7(5)6/h5-7H,2-4H2,1H3	InChI=1S/C8H12O/c1-5-6-4-9-8(2-3-8)7(5)6/h5-7H,2-4H2,1H3/t5-,6+,7-/m0/s1
