20
gdb 103892	3.72339	0.8212	0.7878	2.6388	78.14	-0.2531	0.0174	0.2705	1512.0731	0.168377	-440.25973	-440.249405	-440.248461	-440.29589	36.589	
C	-0.0284083415	 1.5233923969	 0.3791475489	-0.48287
C	 0.0178815894	 0.0296085832	 0.1255800439	 0.282454
C	-1.2793613351	-0.5907629207	-0.3625167794	-0.133123
O	-1.6302282265	-0.20880082	-1.6840871399	-0.413549
C	 1.3122002124	-0.5697905381	-0.3912560483	-0.348317
C	 0.8830503885	-0.8405562703	 1.0145476194	 0.058001
O	 1.6702649232	-0.2510561294	 2.0221825967	-0.184385
C	 1.0958283668	-0.1605243739	 3.2423890002	 0.130925
N	 1.7307255103	 0.3638703361	 4.1975719555	-0.438728
H	 0.9091730661	 1.8841207226	 0.8070098399	 0.148122
H	-0.1985067719	 2.0728851122	-0.5540349444	 0.115229
H	-0.8359188294	 1.7834524859	 1.0745784124	 0.114713
H	-1.1845083742	-1.6815517791	-0.3927444425	 0.104978
H	-2.0898128264	-0.353192785	 0.3464260009	 0.086597
H	-1.8281297653	 0.7326344793	-1.6801578218	 0.286301
H	 1.2662466506	-1.3778531693	-1.1127123055	 0.124923
H	 2.1560707261	 0.1006711311	-0.510813402	 0.131393
H	 0.528630214	-1.8372094047	 1.2708358404	 0.100449
H	 0.0814655917	-0.58074109	 3.2784103738	 0.086676
H	 1.1638408012	 0.3451223934	 5.0427593819	 0.230212
51.7698	76.2808	84.6087	114.882	195.0727	223.7859	252.6344	275.5537	335.3591	359.0497	378.507	451.7737	585.1989	624.5158	735.7755	822.9762	844.3355	880.767	919.9253	964.7973	984.43	1027.7485	1046.4491	1056.9135	1071.3819	1091.7097	1120.4063	1125.1661	1180.1843	1213.2267	1277.6602	1287.0596	1347.7639	1380.4047	1401.836	1414.1144	1421.9382	1431.8478	1480.9918	1494.8437	1500.182	1507.1047	1747.7952	2968.2905	3022.6627	3025.9775	3067.4755	3077.8792	3118.8418	3127.2288	3139.2527	3227.6258	3518.6921	3826.1929
CC1(CO)CC1OC=N	C[C@@]1(CO)C[C@H]1O[CH][NH]	
InChI=1S/C6H11NO2/c1-6(3-8)2-5(6)9-4-7/h4-5,7-8H,2-3H2,1H3	InChI=1S/C6H11NO2/c1-6(3-8)2-5(6)9-4-7/h4-5,7-8H,2-3H2,1H3/t5-,6+/m1/s1
