15
gdb 125773	5.78183	0.94749	0.81822	5.9532	73.55	-0.2354	-0.024	0.2114	1343.8861	0.112247	-453.967566	-453.959188	-453.958244	-454.001664	29.583	
C	-0.0176595339	 1.5444111697	 0.0197726553	-0.494098
C	-0.0021653564	 0.0496817052	 0.0332359275	 0.414775
N	-0.0586736018	-0.6135962668	-1.0979073824	-0.199817
O	-0.0254460727	-1.9767526156	-0.7438929762	-0.191244
C	 0.0494032182	-2.062697824	 0.584022522	 0.581265
N	 0.0947802911	-3.3116781051	 1.176629598	-0.417581
C	 0.0736589449	-4.558604207	 0.5734768575	 0.149794
O	 0.0102456813	-4.7771870244	-0.6060110859	-0.266393
C	 0.0689082271	-0.8231153108	 1.1548965507	-0.47677
H	 0.8885124829	 1.9488505897	 0.4822220002	 0.138335
H	-0.0784301048	 1.90710125	-1.0078168015	 0.153929
H	-0.8747056933	 1.9314522818	 0.5803524699	 0.138337
H	 0.1507077565	-3.3025631993	 2.1837082934	 0.268116
H	 0.1245604504	-5.3494007956	 1.3473880153	 0.08886
H	 0.1246593604	-0.5706163478	 2.2005489862	 0.112492
30.2257	133.0724	149.7817	153.4713	267.6684	270.1497	399.249	408.5771	549.2674	564.1311	653.2947	710.8786	721.0251	760.4457	849.9797	930.2388	986.0805	1013.5337	1016.0186	1045.537	1066.7434	1107.6021	1187.8499	1356.9969	1402.4824	1437.9181	1444.2538	1473.7708	1482.0702	1512.3184	1559.7847	1657.7802	1839.1241	2943.8764	3043.8035	3100.5625	3142.1652	3270.869	3628.1938
CC1=NOC(NC=O)=C1	Cc1noc(NC=O)c1	
InChI=1S/C5H6N2O2/c1-4-2-5(6-3-8)9-7-4/h2-3H,1H3,(H,6,8)	InChI=1S/C5H6N2O2/c1-4-2-5(6-3-8)9-7-4/h2-3H,1H3,(H,6,8)
