19
gdb 62657	2.6628	1.60104	1.46572	1.7838	75.27	-0.25	0.069	0.319	1004.7808	0.157675	-422.953841	-422.945456	-422.944512	-422.985946	33.557	
C	-0.1204568355	 1.6084886178	-0.0737222083	-0.473518
C	-0.0249834604	 0.0932210296	-0.0092390188	 0.33612
O	-1.2944385412	-0.5129282857	-0.2006764986	-0.494036
C	 1.1835749905	-0.6217252715	-0.6668170034	-0.11566
C	 2.1312222577	-0.2884851023	 0.542811251	-0.097947
C	 2.5738384929	-1.7591363077	 0.6856501203	-0.283167
C	 1.0849234425	-1.8513078497	 0.2971931613	-0.115737
C	 0.7272945717	-0.5717425257	 1.156103702	 0.389398
O	 0.45133042	-0.5027677418	 2.5058556613	-0.482667
H	 0.8463782283	 2.0851073953	 0.1077969372	 0.125767
H	-0.4688311818	 1.9349344125	-1.0621179855	 0.104451
H	-0.8321700047	 1.9756219983	 0.6721575567	 0.127103
H	-1.695272322	-0.1374105763	-0.9912545965	 0.276497
H	 1.4802124082	-0.6556405943	-1.7139054547	 0.070117
H	 2.7158098417	 0.6228683237	 0.6704832819	 0.072577
H	 3.2979975355	-2.1266093236	-0.047997091	 0.088181
H	 2.8409424105	-2.0914857112	 1.6926131973	 0.102561
H	 0.4554026316	-2.7269930625	 0.1498048424	 0.078217
H	-0.4383129654	-0.849543915	 2.6401694453	 0.291743
188.0391	197.3238	212.8656	229.6368	269.0875	302.313	330.1165	371.4468	393.5999	555.3165	572.6175	622.2488	679.824	754.7309	831.6201	875.8258	886.0627	912.1281	924.4642	928.6755	965.876	1011.068	1040.2476	1074.967	1076.1391	1092.1446	1137.7508	1147.3025	1151.0175	1179.2507	1208.7318	1231.1554	1240.4424	1261.8717	1297.2224	1371.489	1408.5635	1422.0336	1489.5263	1496.1782	1507.4748	3023.3984	3045.3525	3089.5758	3104.1359	3106.5358	3120.7114	3126.8254	3136.817	3798.4477	3810.9577
CC1(O)C2C3CC2C13O	C[C@@]1(O)[C@H]2[C@@H]3C[C@H]2[C@]13O	
InChI=1S/C7H10O2/c1-6(8)5-3-2-4(5)7(3,6)9/h3-5,8-9H,2H2,1H3	InChI=1S/C7H10O2/c1-6(8)5-3-2-4(5)7(3,6)9/h3-5,8-9H,2H2,1H3/t3-,4+,5-,6-,7-/m1/s1
