21
gdb 95271	2.64152	1.66826	1.21846	1.4139	82.66	-0.2367	0.0219	0.2587	1090.6178	0.184991	-387.115467	-387.107538	-387.106594	-387.14809	31.326	
C	-0.1781504553	 1.5729335811	-0.1059540793	-0.416164
C	 0.0675683873	 0.0672946688	-0.0370274249	 0.018303
C	 0.9875892842	-0.4818411874	-1.1319348858	-0.086992
O	 1.3991705652	-1.7633264319	-0.6783165384	-0.269298
C	 1.4856512293	-1.7593985615	 0.7498511509	 0.106849
C	 2.952814223	-1.6702250397	 1.2438405412	-0.272785
C	 3.080117044	-0.2573719995	 1.7525897689	-0.076097
C	 1.9131966321	 0.3853959465	 1.7637035033	-0.067878
C	 0.7745189599	-0.4586757482	 1.2403484771	-0.106421
H	 0.7619537062	 2.1327138654	-0.0719162541	 0.120947
H	-0.6921572737	 1.8424482231	-1.0346795104	 0.115308
H	-0.802999095	 1.913678594	 0.726255525	 0.115216
H	-0.8939261348	-0.4546932499	-0.1183201211	 0.076857
H	 0.4879575373	-0.611136632	-2.0970519504	 0.102201
H	 1.8529929446	 0.1850711592	-1.2801377455	 0.086882
H	 1.0000178543	-2.6765015255	 1.0965915098	 0.07455
H	 3.1572651309	-2.3983891836	 2.0402591629	 0.102545
H	 3.6388370657	-1.903379817	 0.4217976656	 0.116955
H	 4.0223430368	 0.1578652595	 2.0950389944	 0.091715
H	 1.7671006082	 1.3991870338	 2.1199595828	 0.092217
H	 0.0380098398	-0.6535087652	 2.0287169778	 0.075088
57.4811	170.0445	201.2037	230.0422	292.9282	395.5375	414.6868	487.537	569.0958	621.6691	723.7794	763.8844	817.3004	839.035	849.8118	890.2299	946.9415	956.3575	972.3807	981.5429	993.3991	1006.1939	1034.6791	1085.6795	1111.9653	1130.7287	1138.5933	1163.8039	1199.6574	1226.1343	1241.3119	1277.0526	1297.2782	1320.351	1332.3672	1350.0748	1368.184	1394.3982	1403.1096	1412.6776	1472.4213	1498.5874	1502.7113	1520.0062	1684.1783	2968.2029	3016.9039	3021.7278	3032.0096	3035.279	3058.3654	3066.1857	3076.7458	3096.585	3104.3306	3176.205	3202.1123
CC1COC2CC=CC12	C[C@H]1CO[C@H]2CC=C[C@@H]12	
InChI=1S/C8H12O/c1-6-5-9-8-4-2-3-7(6)8/h2-3,6-8H,4-5H2,1H3	InChI=1S/C8H12O/c1-6-5-9-8-4-2-3-7(6)8/h2-3,6-8H,4-5H2,1H3/t6-,7-,8-/m0/s1
