18
gdb 50740	2.48474	1.45568	0.97169	3.7307	72.93	-0.231	-0.0294	0.2016	1189.9702	0.147781	-439.112806	-439.104427	-439.103482	-439.146271	31.099	
O	 0.0016554756	-0.1109922635	 0.2477550181	-0.2587
C	 0.0132046184	 1.0396383436	-0.1088536122	 0.158856
C	 1.2909924313	 1.8569319212	-0.1802317974	-0.166646
N	 2.4554833373	 0.9986774879	-0.2273910769	-0.299069
C	 3.7158039759	 1.7199693865	-0.1470172686	-0.155995
C	 3.8644066046	 2.5733082416	-1.409906846	-0.187304
C	 2.6606058567	 3.5188336855	-1.5797765396	-0.302385
C	 1.3161486046	 2.8424683078	-1.3611793673	 0.406545
O	 0.3307782717	 3.0995951447	-2.010182904	-0.305578
H	-0.9092934397	 1.5891801109	-0.3733815809	 0.114983
H	 1.2546087455	 2.5099508428	 0.7283584583	 0.093931
H	 2.3607792286	 0.2528235208	 0.4514304468	 0.238374
H	 3.7852731296	 2.3675896723	 0.7498514009	 0.077425
H	 4.5302640236	 0.9921897855	-0.0853854494	 0.109145
H	 4.7902040902	 3.1565317326	-1.3737453522	 0.102457
H	 3.9272109708	 1.9040088564	-2.2741711343	 0.120669
H	 2.7178229399	 4.3102617414	-0.8161617511	 0.125372
H	 2.6450960952	 4.0135067017	-2.553915624	 0.127921
67.039	108.2229	155.4154	207.0866	292.7143	337.5138	351.1898	428.4563	486.8173	537.7423	620.5913	661.9107	736.0067	769.2494	836.3477	880.3037	891.7659	978.4551	998.3614	1053.5069	1087.4745	1096.5923	1153.055	1173.9186	1190.8537	1241.0183	1278.116	1299.118	1319.1185	1346.2274	1372.5897	1390.0696	1418.5803	1458.9143	1473.7207	1487.328	1501.5724	1816.1388	1827.0509	2788.1257	2902.3214	2968.7109	3001.6501	3046.0923	3079.8121	3091.9897	3105.6656	3554.0311
O=CC1NCCCC1=O	O=C[C@H]1NCCCC1=O	
InChI=1S/C6H9NO2/c8-4-5-6(9)2-1-3-7-5/h4-5,7H,1-3H2	InChI=1S/C6H9NO2/c8-4-5-6(9)2-1-3-7-5/h4-5,7H,1-3H2/t5-/m1/s1
