16
gdb 30880	2.64956	1.32667	0.9314	2.6366	68.66	-0.1685	0.0609	0.2294	1220.4471	0.124338	-471.223509	-471.214256	-471.213312	-471.257608	33.323	
C	-0.461292625	 1.060695422	 0.0860431691	-0.24687
O	 0.7100936736	 0.2412182169	 0.1439244559	-0.273097
C	 0.9434502826	-0.4937631736	-0.9711393222	 0.261927
C	 0.7106784327	-1.8040043128	-1.2750899616	 0.196636
N	 0.1783077347	-2.8176844513	-0.472140275	-0.6001
N	 1.1697475224	-2.0915222702	-2.5523450687	-0.409417
C	 1.6739704517	-0.9693380557	-2.9919112971	 0.441949
O	 2.2492372226	-0.7709327052	-4.1917661278	-0.427618
N	 1.5721872008	 0.0509741431	-2.1133863017	-0.374274
H	-0.3726509337	 1.8303762557	-0.6912229513	 0.114029
H	-1.3541350223	 0.4573551564	-0.1172696336	 0.11804
H	-0.5556049884	 1.5439715126	 1.0610156765	 0.130784
H	-0.3536159891	-2.4530373338	 0.3070179485	 0.240691
H	-0.3837017244	-3.462953337	-1.0130773155	 0.245749
H	 2.2368178193	-1.6278173249	-4.6367284533	 0.311232
H	 2.0064077425	 0.9546093777	-2.1887038722	 0.270342
72.0718	131.2519	139.7543	187.6851	236.9918	272.0931	290.6993	326.9621	392.7063	405.1307	469.158	560.6373	624.044	648.3195	688.6398	718.2858	765.221	832.2893	1013.2074	1045.7877	1098.989	1169.7619	1171.4673	1205.9838	1214.7942	1261.7409	1345.2627	1429.8853	1479.4889	1487.532	1502.101	1574.4927	1617.7187	1630.8482	1709.6539	3008.1737	3071.8882	3126.971	3535.3424	3635.1346	3677.4408	3802.4517
COC1=C(N)N=C(O)N1	COc1c(N)nc(O)[nH]1	
InChI=1S/C4H7N3O2/c1-9-3-2(5)6-4(8)7-3/h5H2,1H3,(H2,6,7,8)	InChI=1S/C4H7N3O2/c1-9-3-2(5)6-4(8)7-3/h5H2,1H3,(H2,6,7,8)
