16
gdb 18486	5.18401	1.3086	1.18398	1.425	69.43	-0.24	0.0478	0.2878	1018.4093	0.129402	-346.52249	-346.51509	-346.514146	-346.554428	28.156	
C	-0.2163246034	-0.5810003084	 1.0461682884	-0.452769
C	-0.0374253508	 0.1635272601	 0.1198047336	 0.300069
C	 0.2201390664	 1.0821036412	-0.9810535443	-0.371343
C	 1.5144321963	 1.8696067379	-0.7670396902	 0.134285
O	 1.8153244869	 2.7653641376	-1.8745539896	-0.303982
C	 2.0147724288	 3.8457778328	-0.9552878324	 0.108088
C	 0.7408994818	 4.1888207097	-0.2573665651	-0.298635
C	 1.578249492	 3.0221166119	 0.2338185493	-0.130526
H	-0.3895869096	-1.2443121621	 1.8568910054	 0.197292
H	 0.3061620482	 0.5301140634	-1.925650871	 0.141358
H	-0.618284757	 1.7769279088	-1.1023962692	 0.133257
H	 2.3496323411	 1.1735204862	-0.6248333008	 0.096163
H	 2.8551850448	 4.5077092292	-1.1259244857	 0.106506
H	 0.780791332	 5.0594301496	 0.3900125917	 0.117811
H	-0.2081004801	 4.0386365243	-0.7639285708	 0.117509
H	 1.9751503526	 2.9611851978	 1.2370365906	 0.104916
65.0524	128.6251	209.0733	301.8627	351.6448	450.4819	457.9353	546.0046	626.4568	649.8805	728.4111	764.2275	797.3047	889.0805	948.4265	959.7758	966.7864	999.23	1008.1711	1040.7681	1048.9615	1070.2211	1086.4244	1114.5675	1192.8021	1209.514	1257.6782	1288.3048	1324.1872	1364.832	1394.6137	1465.9418	1477.0323	2240.0628	3031.7399	3034.9701	3072.2724	3119.8257	3185.9089	3207.0406	3217.7631	3507.149
C#CCC1OC2CC12	C#CC[C@H]1O[C@H]2C[C@@H]12	
InChI=1S/C7H8O/c1-2-3-6-5-4-7(5)8-6/h1,5-7H,3-4H2	InChI=1S/C7H8O/c1-2-3-6-5-4-7(5)8-6/h1,5-7H,3-4H2/t5-,6+,7-/m0/s1
