19
gdb 99057	3.63333	0.81598	0.73619	1.4189	79.41	-0.2655	0.0125	0.2781	1604.0826	0.155151	-423.03616	-423.025536	-423.024591	-423.073284	37.096	
C	-0.1212537997	 1.4543192831	 0.1234459246	-0.371871
C	 0.0285174849	-0.0508333275	-0.0828664291	-0.302197
C	 0.7792040296	-0.3987719647	-1.3517134598	 0.459168
O	 1.2203812079	 0.3947025495	-2.1456086287	-0.357715
O	 0.8912405783	-1.7405384706	-1.4805766904	-0.256858
C	 1.581687302	-2.2176990901	-2.6659190227	-0.055118
C	 3.077018764	-2.3549733274	-2.3699674118	-0.40091
C	 0.9648141709	-3.4818877543	-3.0500100241	 0.329972
C	 0.4900801558	-4.5314684805	-3.3894448368	-0.445272
H	 0.8555347414	 1.9410049743	 0.182047891	 0.132085
H	-0.6643510413	 1.9115279871	-0.7073719807	 0.133577
H	-0.6666571676	 1.6599042316	 1.0485336075	 0.113172
H	 0.5568155486	-0.5224963473	 0.7540755007	 0.133706
H	-0.9458905121	-0.5513231963	-0.1283567677	 0.136556
H	 1.4351005697	-1.4718508277	-3.4530595779	 0.140843
H	 3.5958304152	-2.7450661233	-3.2494916182	 0.133657
H	 3.4916863147	-1.3751098946	-2.1224286268	 0.139902
H	 3.2375464776	-3.041992762	-1.5356221941	 0.134289
H	 0.0604527201	-5.4548104394	-3.6910199852	 0.203014
30.9256	48.8567	81.2819	133.2347	178.3577	204.0041	227.4436	254.5718	325.2867	361.661	411.3496	540.369	559.1755	587.4002	624.6125	663.349	676.7929	809.3908	833.7837	885.2194	933.2518	1020.1422	1044.9884	1099.4064	1107.3341	1109.6441	1138.4942	1205.5407	1277.8679	1344.6623	1359.1374	1388.9665	1402.3972	1416.7182	1457.9527	1487.8579	1493.2069	1493.8982	1500.471	1812.8869	2245.714	3044.1679	3052.7701	3053.0428	3071.1519	3073.6207	3124.5715	3129.6811	3132.8833	3140.5297	3503.5565
CCC(=O)OC(C)C#C	CCC(=O)O[C@@H](C)C#C	
InChI=1S/C7H10O2/c1-4-6(3)9-7(8)5-2/h1,6H,5H2,2-3H3	InChI=1S/C7H10O2/c1-4-6(3)9-7(8)5-2/h1,6H,5H2,2-3H3/t6-/m0/s1
