15
gdb 27742	3.84897	1.21705	0.93	5.7269	74.69	-0.2207	-0.047	0.1737	1193.9005	0.113182	-454.018997	-454.010747	-454.009803	-454.053192	29.494	
C	-0.0263893965	 1.4958349777	 0.0233656226	-0.48949
C	 0.0226319423	 0.0072463417	-0.0227116971	 0.353425
N	 0.1727342507	-0.7103743132	-1.1349379611	-0.345225
C	 0.1804306149	-1.9964954914	-0.724258729	 0.355572
O	 0.3108087859	-3.0190654337	-1.5548260355	-0.396404
C	 0.0322316353	-2.0994689983	 0.6650103926	 0.076313
N	-0.0676971714	-0.7701741221	 1.0806791377	-0.379242
C	-0.0039737114	-3.3144617418	 1.3942942042	 0.064136
O	 0.1013589508	-4.4070879132	 0.8278019378	-0.355872
H	 0.952450342	 1.9199773195	-0.2238331289	 0.161034
H	-0.7388213445	 1.8690470537	-0.7167560812	 0.165317
H	-0.3207109884	 1.8589045594	 1.0114300031	 0.124081
H	 0.2792502966	-3.8198032534	-0.9846117909	 0.317448
H	-0.1842236696	-0.4450365904	 2.0259944183	 0.271246
H	-0.1296099866	-3.2627928445	 2.4945348374	 0.077661
18.2097	130.8109	187.9598	232.6851	272.7442	294.8023	361.3062	466.8368	480.9192	524.1523	625.7722	677.1712	754.3346	779.0889	783.0303	858.0175	1009.4658	1012.7912	1033.1381	1055.0219	1189.7721	1241.4455	1304.3361	1376.0253	1411.4377	1423.1374	1468.2041	1488.3884	1492.5655	1516.9337	1568.3516	1609.2562	1703.2936	2921.762	3045.2745	3108.9772	3131.0058	3460.9586	3661.8514
CC1=NC(O)=C(N1)C=O	Cc1nc(O)c([nH]1)C=O	
InChI=1S/C5H6N2O2/c1-3-6-4(2-8)5(9)7-3/h2,9H,1H3,(H,6,7)	InChI=1S/C5H6N2O2/c1-3-6-4(2-8)5(9)7-3/h2,9H,1H3,(H,6,7)
