22
gdb 59866	3.03096	0.84121	0.76702	4.2345	80.4	-0.2525	0.0235	0.276	1617.8228	0.191635	-441.53331	-441.522225	-441.521281	-441.570784	39.793	
C	 0.0059628964	 1.3346834897	-0.2836084895	-0.38395
C	 0.0621525555	-0.1335995902	 0.151120523	 0.044799
C	 0.6737850656	-0.3005452008	 1.5467229147	-0.383483
N	-1.2701726754	-0.7363569034	 0.0966706845	-0.316322
C	-1.5835077933	-1.8103869564	-0.6641154458	 0.394758
O	-0.7857047891	-2.3891604017	-1.3916003683	-0.402046
C	-3.0405432931	-2.306698857	-0.5935634025	 0.041695
C	-4.0165400619	-1.2845425056	-1.1948041671	-0.389156
O	-3.1224961313	-3.5278828003	-1.278074633	-0.437514
H	 1.0081384958	 1.7738830227	-0.2817480615	 0.123594
H	-0.4096695164	 1.4280780097	-1.2904750951	 0.128366
H	-0.6158717821	 1.9259392779	 0.3996363529	 0.109482
H	 0.6531971866	-0.7025068236	-0.5707362501	 0.129667
H	 0.0778431241	 0.2238730347	 2.3034344209	 0.109266
H	 0.7271577453	-1.3565282593	 1.8246473668	 0.130488
H	 1.6856667421	 0.1151225388	 1.5750404245	 0.123013
H	-1.9886798261	-0.3446459098	 0.686447155	 0.244485
H	-3.2970979004	-2.4639688454	 0.4670980539	 0.080114
H	-3.7418454444	-1.0654775522	-2.2309184481	 0.129359
H	-5.0250437795	-1.7056709417	-1.1887458803	 0.133541
H	-4.031141532	-0.346050471	-0.6302139782	 0.098089
H	-2.2458099265	-3.6335377852	-1.6876573066	 0.291757
25.125	56.1524	66.2854	148.7108	222.3321	226.4011	242.4016	256.8496	300.2213	359.5544	400.1682	439.9399	448.3854	476.0037	494.9487	507.9128	671.1508	754.0886	840.635	880.4634	931.4414	933.4911	949.1287	976.489	1051.4669	1102.9137	1147.6411	1165.9146	1181.7064	1190.4202	1246.5639	1289.7859	1362.4856	1367.7206	1372.2869	1399.9145	1402.7561	1419.5587	1446.8243	1483.8818	1486.0485	1488.4428	1495.1934	1499.8942	1506.2823	1556.0189	1756.5845	2967.1173	3027.7832	3031.7049	3036.7586	3085.593	3094.9994	3109.4181	3112.774	3119.4039	3122.1525	3125.9179	3618.4667	3637.5263
CC(C)NC(=O)C(C)O	CC(C)NC(=O)[C@@H](C)O	
InChI=1S/C6H13NO2/c1-4(2)7-6(9)5(3)8/h4-5,8H,1-3H3,(H,7,9)	InChI=1S/C6H13NO2/c1-4(2)7-6(9)5(3)8/h4-5,8H,1-3H3,(H,7,9)/t5-/m1/s1
