17
gdb 36647	5.91805	0.74242	0.72562	2.5962	73.92	-0.2437	0.0154	0.2591	1520.9012	0.136145	-417.924735	-417.916626	-417.915681	-417.958553	29.872	
N	-0.1898807605	-1.1522258342	-0.1923861352	-0.293746
C	-0.0974551562	-0.0166984519	-0.0034800828	 0.257004
C	 0.0355439501	 1.4180042654	 0.2658848475	-0.269597
N	 1.2698414503	 1.9440757261	-0.307093749	-0.323088
C	 1.4227708261	 3.3635411459	-0.1522530583	 0.085444
C	 1.968279011	 4.1080834664	 1.1313431344	 0.020335
C	 3.3864188445	 3.5626584709	 0.845184983	-0.237608
C	 2.7655869328	 4.0621819419	-0.4841079462	 0.006871
O	 2.2634334533	 5.2495113093	 0.2412866886	-0.295783
H	-0.8133528055	 1.9369384097	-0.1958701369	 0.162793
H	-0.0624071547	 1.5672431548	 1.3555881784	 0.138461
H	 2.0687560281	 1.4258539662	 0.0385729637	 0.237017
H	 0.5644908085	 3.8850204034	-0.5840296	 0.099831
H	 1.4900021255	 4.3305994323	 2.0857344988	 0.096364
H	 4.1986915619	 4.1809709527	 1.2281023622	 0.119493
H	 3.5864567204	 2.4954171538	 0.9762652701	 0.092598
H	 3.2359455445	 4.2228151973	-1.4542762683	 0.103614
50.6391	86.5304	106.7047	228.1584	316.2992	378.5878	393.1713	495.1642	560.7391	659.3456	708.6151	747.8629	818.2541	853.5415	883.8814	904.6074	926.6272	972.7671	1001.7538	1007.2849	1046.3039	1093.1978	1119.9692	1140.7115	1165.8854	1182.4114	1202.3666	1222.4998	1245.2018	1267.6634	1284.1733	1337.3065	1402.6188	1488.9299	1493.9117	1508.7364	2369.3927	2952.1969	3054.3245	3059.1507	3088.0894	3114.4068	3124.1479	3146.1094	3550.7019
N#CCNC1C2CC1O2	N#CCN[C@H]1[C@H]2C[C@@H]1O2	
InChI=1S/C6H8N2O/c7-1-2-8-6-4-3-5(6)9-4/h4-6,8H,2-3H2	InChI=1S/C6H8N2O/c7-1-2-8-6-4-3-5(6)9-4/h4-6,8H,2-3H2/t4-,5+,6+
