22
gdb 110940	2.65556	1.1755	1.00341	1.9027	83.3	-0.2276	0.0788	0.3064	1324.2417	0.19313	-404.289676	-404.280164	-404.27922	-404.32435	35.311	
C	-0.0919982331	 1.5177547827	-0.352526762	-0.373496
C	 0.004193846	 0.1520914227	 0.3226318117	-0.118012
N	-1.2507069755	-0.5776031769	 0.140394422	-0.071668
C	-1.5729439532	-1.346385127	-1.0343112647	-0.044768
C	-0.3702416068	-2.1272236321	-1.5971787018	-0.305736
C	-0.2674411219	-2.8581100208	-0.2112644429	 0.134913
O	 0.9246122163	-2.8052077393	 0.5292722743	-0.239329
C	 1.9268570675	-3.6648335323	 0.0326656752	-0.236722
C	-1.4149393084	-1.9976947189	 0.32912054	-0.102552
H	 0.8163512614	 2.1014682615	-0.1740265976	 0.109431
H	-0.2163420819	 1.4117369586	-1.4357493786	 0.113797
H	-0.9495028015	 2.0790616443	 0.0296524493	 0.122934
H	 0.8835549804	-0.3931833394	-0.0392744452	 0.101844
H	 0.1404642394	 0.2727638456	 1.4031203247	 0.104099
H	-2.4851605275	-1.1209223062	-1.5757099288	 0.093005
H	-0.6354461148	-2.8038816141	-2.4121658633	 0.103469
H	 0.4933738098	-1.5287874669	-1.8997526061	 0.105492
H	-0.5970170141	-3.9034364303	-0.3185372149	 0.072789
H	 1.5942607433	-4.7149191963	 0.0322055441	 0.104604
H	 2.2280722326	-3.4001187201	-0.9919966201	 0.10842
H	 2.7940936538	-3.5692520013	 0.6902534511	 0.128138
H	-2.1639808917	-2.3418424134	 1.0347786335	 0.089349
64.3401	89.1474	132.1149	173.9694	206.3635	224.7967	278.4021	303.2998	420.3532	446.2588	481.0941	601.0791	710.0647	777.5318	801.2307	833.967	857.4372	888.397	946.0661	975.2542	1010.9595	1024.4054	1040.9837	1060.8722	1082.5826	1118.0755	1123.0651	1171.9374	1179.3746	1184.0424	1208.0974	1234.8444	1254.8493	1284.3308	1289.6507	1302.0334	1373.7672	1386.059	1397.8737	1414.9245	1472.1207	1482.6033	1488.0714	1489.4135	1499.1189	1508.4971	1517.8422	2972.4249	2980.9831	3022.7561	3034.6339	3036.011	3061.8625	3066.6103	3104.103	3115.928	3116.0292	3117.4294	3160.5126	3173.5552
CCN1C2CC(OC)C12	CCN1[C@H]2C[C@@H](OC)[C@@H]12	
InChI=1S/C7H13NO/c1-3-8-5-4-6(9-2)7(5)8/h5-7H,3-4H2,1-2H3	InChI=1S/C7H13NO/c1-3-8-5-4-6(9-2)7(5)8/h5-7H,3-4H2,1-2H3/t5-,6+,7-,8?/m0/s1
