18
gdb 117473	2.58115	0.87696	0.6993	3.033	70.58	-0.2514	-0.0373	0.2141	1589.0491	0.144816	-476.24739	-476.237155	-476.236211	-476.284689	34.402	
C	 1.1579320545	 0.1726419291	 0.3748961986	-0.244674
O	 1.0881052679	 0.1456934954	-1.0391755499	-0.218579
C	-0.1369100978	-0.3318629624	-1.5345689258	-0.176353
C	-0.21833744	-1.8536781544	-1.6663084246	 0.329281
O	-1.2866664448	-2.4153159064	-1.759424403	-0.303539
C	 1.0957640645	-2.6095942473	-1.7580745891	-0.230032
N	 0.83484735	-4.0109072319	-1.9591369357	-0.284123
C	 1.7886207763	-4.9560815705	-1.7713312414	 0.154406
O	 2.9474164143	-4.7202192343	-1.4977171802	-0.326606
H	 0.3868976364	 0.8320697156	 0.7986841971	 0.118984
H	 1.0410964052	-0.8273002608	 0.8183172925	 0.113573
H	 2.1443362723	 0.5595171281	 0.6377966075	 0.142961
H	-0.9984996041	 0.0096200213	-0.9439372146	 0.126387
H	-0.25455532	 0.0746727549	-2.5481609633	 0.145034
H	 1.6938239606	-2.1720433695	-2.5707418936	 0.15193
H	 1.6927791073	-2.4478376989	-0.8526815005	 0.16029
H	-0.1350014141	-4.2647575254	-2.0867885938	 0.262155
H	 1.3895846815	-5.9809583426	-1.90312504	 0.078907
27.9141	56.8842	83.3236	125.1687	139.2499	179.576	258.9858	267.5859	318.4967	393.6212	441.706	521.4305	581.3999	594.393	746.1586	830.3338	887.3576	969.344	1035.7806	1052.4516	1065.6618	1127.7614	1172.83	1185.3126	1217.1936	1233.8559	1235.758	1303.5781	1363.1348	1365.5176	1424.6191	1452.7147	1463.2413	1483.8879	1490.3621	1507.3441	1516.6577	1794.6206	1812.5526	2943.6434	2985.6915	3009.3402	3016.2531	3038.6451	3056.6218	3060.2092	3130.3651	3598.3911
COCC(=O)CNC=O	COCC(=O)CNC=O	
InChI=1S/C5H9NO3/c1-9-3-5(8)2-6-4-7/h4H,2-3H2,1H3,(H,6,7)	InChI=1S/C5H9NO3/c1-9-3-5(8)2-6-4-7/h4H,2-3H2,1H3,(H,6,7)
