21
gdb 98536	3.44319	1.07783	0.9092	2.6641	84.45	-0.2357	-0.0093	0.2264	1363.1217	0.181717	-387.092469	-387.083226	-387.082282	-387.127115	34.417	
C	 0.0126177655	 1.5358386898	 0.1347353829	-0.377223
C	-0.1839940785	 0.0500063953	 0.4230812202	-0.291874
C	-1.4204282194	-0.535960595	-0.2474319044	 0.265585
O	-2.1995863855	 0.1607008867	-0.8697204124	-0.33738
C	-1.6408091796	-1.9954002587	-0.0988025503	 0.278757
C	-2.4889267663	-2.7299433356	-1.1189795254	-0.308437
C	-2.9937965898	-2.6689753809	 0.2755903596	-0.071677
C	-2.2548371111	-3.6698673345	 1.1696255241	-0.223229
C	-0.8913438984	-3.0064302664	 0.7836108758	-0.315288
H	 0.9027937438	 1.9154524812	 0.6442955636	 0.105412
H	 0.1251294393	 1.7127711167	-0.9381014225	 0.129247
H	-0.8532469815	 2.1134638337	 0.4669659905	 0.132383
H	 0.6875677662	-0.5397313103	 0.1064101526	 0.119522
H	-0.2693100627	-0.1323563229	 1.5036423957	 0.121537
H	-2.9778084338	-2.068608426	-1.8250594271	 0.141565
H	-2.1149921377	-3.66584037	-1.528764192	 0.106837
H	-3.9100267708	-2.147363274	 0.5238045764	 0.105791
H	-2.4854591855	-3.55266454	 2.2301876064	 0.108599
H	-2.3815422836	-4.7232221668	 0.8996770026	 0.102776
H	-0.1652708843	-3.64103631	 0.2648487587	 0.099177
H	-0.3978564663	-2.5526799622	 1.645290045	 0.107919
47.332	77.3208	154.8375	161.7907	197.8063	283.0936	294.3637	363.866	416.9739	499.535	568.7811	686.8578	727.8788	777.6813	789.6744	833.3841	844.5055	916.3192	934.047	969.4576	973.9523	1010.2714	1020.6239	1058.6933	1082.4718	1091.3032	1107.2752	1116.8251	1157.5435	1222.9231	1229.8684	1247.8262	1277.1638	1283.7705	1305.9781	1353.4779	1400.4131	1412.5072	1451.4777	1471.7368	1482.6165	1490.9992	1497.6294	1504.4591	1768.2507	3014.597	3040.8743	3044.805	3050.8468	3053.6792	3102.0578	3107.9357	3119.8738	3120.9923	3128.6637	3192.0127	3222.4691
CCC(=O)C12CC1CC2	CCC(=O)[C@]12C[C@H]1CC2	
InChI=1S/C8H12O/c1-2-7(9)8-4-3-6(8)5-8/h6H,2-5H2,1H3	InChI=1S/C8H12O/c1-2-7(9)8-4-3-6(8)5-8/h6H,2-5H2,1H3/t6-,8-/m1/s1
