16
gdb 51029	2.4571	1.24957	0.9829	5.5071	69.41	-0.2616	-0.0408	0.2208	1212.2828	0.122104	-437.879854	-437.870841	-437.869897	-437.914945	31.048	
O	-0.3956078094	 0.3694339315	 0.6468168248	-0.233696
C	 0.1060447787	 0.9430323278	-0.2830351072	 0.160628
C	 1.2598205477	 1.9259855588	-0.1352321139	-0.331927
C	 1.2383668299	 3.0454247587	-1.1783354268	 0.234125
C	 2.5385758319	 3.8818459382	-1.353053806	-0.33232
C	 2.5235377416	 3.3417746552	-2.7964467415	-0.069554
O	 1.357504118	 2.5238676255	-2.521629581	-0.298685
C	 0.0225254634	 3.8689496909	-1.0443656819	 0.277282
N	-0.9222881318	 4.5252152017	-0.9342886664	-0.326359
H	-0.2274591483	 0.7669013348	-1.3273206183	 0.111935
H	 1.2600887468	 2.3279604468	 0.8821316691	 0.144163
H	 2.190733702	 1.3626255777	-0.2812218088	 0.138165
H	 2.4245888378	 4.9586876398	-1.2376571096	 0.144161
H	 3.3624417926	 3.5298087436	-0.7313709213	 0.130389
H	 2.316118932	 4.0870734667	-3.5710475789	 0.128658
H	 3.379194147	 2.7309952823	-3.0993346123	 0.123036
50.8476	76.0402	88.308	138.8789	196.314	216.7703	339.1094	390.4141	456.0109	537.0666	576.8131	682.0159	769.4828	782.7623	871.204	897.3679	977.3636	986.5424	1014.2686	1021.5794	1093.1101	1143.9379	1159.8527	1187.7335	1214.3636	1265.0023	1279.6729	1309.5689	1350.8965	1428.0576	1436.0933	1487.8854	1531.637	1836.289	2352.7844	2918.6593	3033.6591	3045.0473	3091.8817	3097.0465	3105.5032	3159.4493
O=CCC1(CCO1)C#N	O=CC[C@]1(CCO1)C#N	
InChI=1S/C6H7NO2/c7-5-6(1-3-8)2-4-9-6/h3H,1-2,4H2	InChI=1S/C6H7NO2/c7-5-6(1-3-8)2-4-9-6/h3H,1-2,4H2/t6-/m0/s1
