16
gdb 16190	3.19162	2.33949	1.52373	3.5198	71.42	-0.237	-0.0418	0.1952	833.841	0.13172	-346.633583	-346.626819	-346.625875	-346.664468	26.285	
O	 0.1051168493	-0.0009930975	 0.0044667396	-0.359414
C	 0.0270071548	 1.2095263426	 0.0106877949	 0.336167
C	-1.1998225611	 2.0415777445	 0.0309782604	-0.171749
C	-0.8747117006	 3.3403507614	 0.0323715029	-0.060696
C	 0.6165191739	 3.5783330869	 0.0134412678	-0.367821
C	 1.1891593554	 2.1681706868	-0.0004927462	 0.233156
C	 2.4515991543	 1.7501810148	 0.728089526	-0.29422
C	 2.4316686878	 1.7568597265	-0.7661879627	-0.294227
H	-2.194457349	 1.6155170997	 0.0424798631	 0.116975
H	-1.5819045594	 4.1627735031	 0.0455477393	 0.115081
H	 0.9066831107	 4.1672841	-0.8665441998	 0.122335
H	 0.9302231437	 4.1594738937	 0.8905382809	 0.12234
H	 3.0063627338	 2.5259543726	 1.2449288025	 0.114432
H	 2.4130526446	 0.7878043305	 1.2272968678	 0.136609
H	 2.3797061734	 0.7989780667	-1.2727703557	 0.136604
H	 2.9725382085	 2.5372896876	-1.2906864509	 0.114428
93.131	233.2075	251.2563	292.9014	381.8846	450.7576	568.6472	681.7046	689.584	768.5781	791.7526	821.4515	851.7818	893.8711	955.1269	960.6423	995.9252	1000.1902	1024.7873	1061.9241	1092.6844	1095.4296	1143.2361	1179.6892	1203.9347	1261.2218	1295.6698	1354.8401	1376.3476	1453.0101	1470.282	1485.8316	1644.9914	1799.3926	3017.8033	3044.0595	3130.0538	3131.4252	3191.4005	3216.6261	3230.4585	3231.0323
O=C1C=CCC11CC1	O=C1C=CCC21CC2	
InChI=1S/C7H8O/c8-6-2-1-3-7(6)4-5-7/h1-2H,3-5H2	InChI=1S/C7H8O/c8-6-2-1-3-7(6)4-5-7/h1-2H,3-5H2
