17
gdb 47345	2.48902	1.43483	1.23941	3.6358	73.44	-0.2739	0.004	0.278	1074.8141	0.137871	-418.037704	-418.029572	-418.028628	-418.071005	30.025	
N	-0.0958619515	 1.2941821488	-0.0957674075	-0.502383
C	 0.1607937231	 0.0686204967	-0.2550955947	 0.400693
C	-0.6226194807	-1.0319498887	 0.4044849017	-0.299515
C	-1.0379673294	-2.1525260497	-0.5792858537	-0.215536
C	-0.0107140771	-2.3237560037	-1.7193776474	-0.230441
C	 1.3511402074	-1.7240536317	-1.3445643699	-0.037084
O	 1.2248924153	-0.3335431152	-1.0403792644	-0.250819
C	 2.0136237683	-2.4589492559	-0.2467606024	 0.282069
N	 2.532449596	-3.0499811743	 0.5997352251	-0.31981
H	 0.5727205548	 1.8705787926	-0.6114114607	 0.223877
H	 0.0116239643	-1.4600107293	 1.1897328425	 0.153505
H	-1.4844882588	-0.5812066226	 0.8956173131	 0.140421
H	-1.1500580228	-3.0863132	-0.0227817368	 0.12569
H	-2.0148705148	-1.9233416795	-1.012642994	 0.124489
H	 0.1146173679	-3.3729697085	-1.9999024645	 0.130238
H	-0.3364100002	-1.7837399797	-2.6138298512	 0.129463
H	 2.0268472382	-1.7604731794	-2.2043349949	 0.145142
59.4757	110.6613	143.9159	187.5425	303.2564	418.9353	424.4332	457.4095	468.5828	617.1075	627.703	736.8993	772.7277	793.3889	868.2492	897.9543	914.8799	941.168	989.7177	1055.1813	1073.5571	1096.8036	1111.9217	1196.689	1235.1976	1280.6051	1291.6549	1303.1141	1349.9338	1367.6206	1379.9957	1398.8617	1475.7634	1481.036	1503.957	1767.785	2355.505	3047.4997	3054.9972	3066.0154	3075.0549	3096.6066	3114.4696	3140.0568	3464.5025
N=C1CCCC(O1)C#N	[NH][C]1CCC[C@@H](O1)C#N	
InChI=1S/C6H8N2O/c7-4-5-2-1-3-6(8)9-5/h5,8H,1-3H2	InChI=1S/C6H8N2O/c7-4-5-2-1-3-6(8)9-5/h5,8H,1-3H2/t5-/m1/s1
