17
gdb 66926	2.26054	1.97741	1.54832	1.986	66.54	-0.2245	0.0576	0.2821	927.9765	0.133759	-458.883481	-458.875383	-458.874439	-458.915355	32.229	
C	 0.060061938	 1.5981919056	-0.0940601705	-0.475789
C	 0.0705336947	 0.0854662985	 0.0150660646	 0.336823
O	-1.2317660797	-0.4757777069	-0.1003188395	-0.490259
C	 1.1204581851	-0.7301306738	-0.8175686518	-0.010933
O	 2.3971682161	-0.1347251654	-0.4429618996	-0.290768
C	 2.196911768	-0.7553115715	 0.8332493336	 0.032658
C	 1.2130651388	-1.7734104727	 0.3493077794	-0.226931
C	 0.7277380223	-0.5973866406	 1.2128000738	 0.329811
O	 0.3109608563	-0.565446857	 2.5181550033	-0.46476
H	 1.0815392069	 1.9828201391	-0.0832100953	 0.145449
H	-0.4160884956	 1.9208288668	-1.0292528065	 0.100663
H	-0.4977928675	 2.0367413213	 0.7388695546	 0.127578
H	-1.6615379855	-0.0731055929	-0.8621334834	 0.280081
H	 0.9990567917	-0.9154696856	-1.8835103032	 0.082159
H	 3.010112706	-0.8005703788	 1.5456184634	 0.119599
H	 1.143383775	-2.8483169769	 0.4240165393	 0.106311
H	-0.6028947005	-0.8770952391	 2.5321493979	 0.298309
183.8277	198.3036	218.4465	234.5924	287.0998	326.6691	370.0272	405.6966	456.9156	537.895	604.9615	638.3928	669.5579	786.3571	806.5699	831.379	864.7923	925.7202	932.2916	950.3326	968.558	998.6135	1044.8367	1098.5729	1118.2207	1147.4717	1179.868	1199.2312	1208.8963	1235.5675	1288.0372	1327.5786	1394.8233	1403.0211	1465.0986	1486.5477	1502.4723	3022.0779	3094.1292	3136.9972	3140.0256	3209.8251	3229.8648	3773.3713	3810.0312
CC1(O)C2OC3C2C13O	C[C@@]1(O)[C@H]2O[C@@H]3[C@H]2[C@]13O	
InChI=1S/C6H8O3/c1-5(7)3-2-4(9-3)6(2,5)8/h2-4,7-8H,1H3	InChI=1S/C6H8O3/c1-5(7)3-2-4(9-3)6(2,5)8/h2-4,7-8H,1H3/t2-,3-,4+,5+,6+/m0/s1
