21
gdb 76203	2.18431	1.41376	1.17695	3.1277	79.07	-0.2372	0.0603	0.2975	1187.9645	0.180139	-424.189808	-424.17996	-424.179015	-424.224074	36.562	
C	-0.0207336631	 1.5496433228	-0.0867430535	-0.424141
C	 0.0251709926	 0.0383290301	-0.0406922249	-0.158968
C	 1.3383163631	-0.7190266157	-0.1901477935	 0.32138
C	 1.3967917517	-1.9942042707	-0.998829479	-0.453126
O	 2.5259415416	 0.034353601	-0.2090630804	-0.460528
C	 0.6436485129	-0.6799763623	 1.1334541129	 0.240914
C	 1.1863985053	-0.0989618623	 2.433932856	-0.134137
O	 0.6678030449	-1.22885755	 3.175598064	-0.278927
C	 0.1046073984	-1.8225974174	 1.9868526457	-0.146835
H	 0.9219393286	 1.9782860313	 0.2627022252	 0.130914
H	-0.1940077961	 1.907840444	-1.1078192157	 0.112804
H	-0.8274975767	 1.9430638951	 0.5409634666	 0.121025
H	-0.8403843223	-0.4590967278	-0.4763329221	 0.079487
H	 1.5414630521	-1.7747551282	-2.0640455145	 0.10972
H	 2.2291496215	-2.6240511578	-0.6680877775	 0.129047
H	 0.4701632745	-2.5678678595	-0.9038962091	 0.120118
H	 2.6512261967	 0.3732190829	-1.1027957982	 0.283262
H	 2.2775217251	-0.0225688398	 2.4997384341	 0.115401
H	 0.7362342583	 0.846366515	 2.764311459	 0.097206
H	-0.990146716	-1.8988018765	 2.0437303908	 0.096404
H	 0.5218262468	-2.8188219542	 1.786613914	 0.098982
89.9675	154.2319	163.7685	177.3678	208.4187	222.5755	237.1772	261.6145	294.9699	380.4472	454.7286	503.5729	527.4698	617.8503	693.8877	783.3412	863.7949	940.3985	961.0498	977.9819	983.2235	1027.7307	1030.1891	1075.4708	1091.7156	1117.4055	1137.0657	1151.9576	1167.7289	1184.7603	1192.1967	1260.3676	1280.534	1308.1025	1354.3906	1375.3029	1410.7538	1415.9274	1476.555	1485.0604	1497.24	1501.5713	1511.8066	1517.7367	1537.547	2992.4381	3011.8153	3023.0917	3031.6798	3032.9707	3062.3755	3086.1519	3087.2748	3108.3568	3112.8172	3126.0626	3789.9549
CC1C(C)(O)C11COC1	C[C@H]1[C@@](C)(O)C21COC2	
InChI=1S/C7H12O2/c1-5-6(2,8)7(5)3-9-4-7/h5,8H,3-4H2,1-2H3	InChI=1S/C7H12O2/c1-5-6(2,8)7(5)3-9-4-7/h5,8H,3-4H2,1-2H3/t5-,6+/m0/s1
