17
gdb 35364	3.87362	1.4054	1.255	2.1176	76.37	-0.2309	0.0527	0.2836	1016.829	0.136782	-384.617577	-384.610492	-384.609547	-384.649012	28.726	
C	-0.0139685538	-1.2363967136	-0.1285151253	-0.450727
C	-0.003424637	-0.0381735493	-0.0347582642	 0.318285
C	 0.0065834019	 1.4125629172	 0.0691394764	-0.161246
C	-0.6191704587	 1.9811538036	 1.3883967018	-0.248032
C	 0.2437723936	 3.2004663247	 1.7075886125	-0.093077
C	 1.7284037034	 2.9434345571	 1.8748902349	 0.104582
O	 2.0711371695	 1.6644097032	 1.3369785665	-0.300572
C	 1.4126885962	 2.0409244658	 0.0858731699	 0.085872
C	 1.2205851755	 3.4889279426	 0.5785743272	-0.1711
H	-0.0174116328	-2.2953104298	-0.2054530596	 0.193212
H	-0.5279733025	 1.8368189478	-0.7922167198	 0.103167
H	-1.6675651177	 2.2523255909	 1.2428999665	 0.107655
H	-0.5724574562	 1.2321899927	 2.1821960345	 0.125982
H	-0.1720275725	 4.0368287129	 2.2584423076	 0.091831
H	 2.3589302425	 3.3549308661	 2.6539615601	 0.104892
H	 2.0406295646	 1.8323444608	-0.7808190458	 0.090435
H	 1.375376954	 4.4191232276	 0.0509924468	 0.098841
100.862	149.6462	259.0958	354.0186	452.6606	492.5342	528.906	620.6119	632.3202	665.226	712.5578	758.8381	801.5788	808.9777	849.0237	874.2282	915.9228	978.3171	999.2681	1001.0149	1024.577	1038.034	1049.4659	1062.987	1084.3	1117.8929	1187.2652	1219.4629	1251.274	1264.632	1276.0757	1299.5508	1338.1068	1343.2798	1402.7387	1493.0257	2238.6017	3010.4382	3069.1531	3114.1077	3114.8898	3177.2723	3187.5273	3214.9199	3505.2966
C#CC1CC2C3OC1C23	C#C[C@H]1C[C@H]2[C@H]3O[C@@H]1[C@@H]23	
InChI=1S/C8H8O/c1-2-4-3-5-6-7(4)9-8(5)6/h1,4-8H,3H2	InChI=1S/C8H8O/c1-2-4-3-5-6-7(4)9-8(5)6/h1,4-8H,3H2/t4-,5+,6+,7-,8+/m0/s1
