20
gdb 14420	3.8862	1.795	1.61697	0.462	78.82	-0.2326	0.0992	0.3318	914.8539	0.177797	-311.829314	-311.821772	-311.820828	-311.860556	29.968	
C	-0.0003242867	 1.6097598029	-0.0075508277	-0.424202
C	 0.0961599645	 0.0888964908	-0.0043313476	 0.046128
C	 0.8110451981	-0.6662769522	-1.1250601797	-0.128614
C	 2.2989588327	-0.7985410476	-0.7350710708	-0.114026
C	 2.4870693679	-0.1291704186	 0.6225347627	-0.234075
C	 1.068415081	-0.6605874113	 0.96052352	-0.127622
C	 1.2655448245	-1.7541007443	-0.1817569856	 0.363284
C	 1.1337688522	-3.2404184283	-0.2052065356	-0.530885
H	 0.9683014151	 2.084693353	-0.1858171578	 0.117575
H	-0.6805298131	 1.9503072696	-0.7965441729	 0.110888
H	-0.3901719807	 1.9829420355	 0.9467466884	 0.109354
H	-0.9049342286	-0.3413621253	 0.1215349369	 0.065291
H	 0.5031003216	-0.7797681893	-2.1581394485	 0.073387
H	 3.0471734808	-1.0064505294	-1.4904573952	 0.076581
H	 3.2506293785	-0.6469263396	 1.2106598722	 0.094236
H	 2.6642193464	 0.9506827979	 0.6767707304	 0.084667
H	 0.7787053789	-0.8529776693	 1.9926698632	 0.060347
H	 0.1181813268	-3.5625928365	 0.0546910461	 0.118615
H	 1.3572187102	-3.6319350829	-1.2040583019	 0.120561
H	 1.82299285	-3.7213866152	 0.4992845134	 0.118512
152.0351	192.2739	212.2928	221.1237	298.3889	311.6577	474.1729	545.5287	628.9757	666.507	727.509	775.9284	850.4375	867.3152	890.9053	925.9182	932.2288	985.6389	1002.5759	1019.0082	1041.6929	1054.1644	1086.4722	1103.0921	1113.6435	1135.0254	1169.0621	1169.652	1205.3655	1229.8138	1252.5902	1292.7441	1322.59	1388.4487	1406.6239	1411.7392	1460.6427	1484.0226	1490.3862	1493.5239	1499.517	1514.5138	3015.5979	3025.4607	3030.3313	3036.4581	3071.5348	3085.5572	3086.1394	3087.3121	3112.1182	3122.3113	3176.317	3189.1819
CC1C2C3CC1C23C	C[C@H]1[C@H]2[C@H]3C[C@@H]1[C@@]23C	
InChI=1S/C8H12/c1-4-5-3-6-7(4)8(5,6)2/h4-7H,3H2,1-2H3	InChI=1S/C8H12/c1-4-5-3-6-7(4)8(5,6)2/h4-7H,3H2,1-2H3/t4-,5+,6-,7+,8-/m1/s1
