21
gdb 96466	2.17702	1.82361	1.27492	1.7881	77.89	-0.2376	0.0619	0.2995	1068.9209	0.184928	-424.210976	-424.202893	-424.201949	-424.24303	32.73	
O	 0.1500168523	 1.3333997136	-0.3509237985	-0.428853
C	 0.0273529505	-0.0560577362	-0.0468290865	 0.080764
C	 0.7600591023	-0.4210632242	 1.260986555	-0.238075
C	 0.4798344706	 0.5028383685	 2.4574848542	-0.057526
O	-0.8409494804	 0.4867988687	 2.9591289356	-0.247483
C	-1.8033984428	 1.0961033797	 2.1032624354	-0.104433
C	-2.3571868969	 0.1240694402	 1.0838078384	-0.017404
C	-2.5472274767	 0.528680612	-0.3609455754	-0.31616
C	-1.4477721837	-0.4289881642	 0.0143920475	 0.001261
H	 1.0875442558	 1.5509774102	-0.3671991513	 0.28277
H	 0.4787728098	-0.641663206	-0.8639698239	 0.06444
H	 0.5093404424	-1.454720259	 1.5271217987	 0.107338
H	 1.8460908808	-0.3978455103	 1.0839444451	 0.081662
H	 1.1145377749	 0.1897903525	 3.2935194504	 0.100746
H	 0.767859249	 1.5324158724	 2.191663116	 0.08165
H	-2.6060580309	 1.4508466015	 2.7589896252	 0.097851
H	-1.3626624386	 1.9669406124	 1.6018128933	 0.106865
H	-3.0784308779	-0.5798980407	 1.4897579754	 0.081962
H	-3.407032964	 0.1457596018	-0.8996994109	 0.10575
H	-2.2443122716	 1.5304363269	-0.6416836197	 0.133045
H	-1.6119470049	-1.4732491396	-0.235796974	 0.08383
140.8235	200.709	225.9698	275.2799	298.2666	320.4934	382.6856	429.0867	446.0658	493.8566	590.5795	700.9607	731.2052	811.6852	820.0362	861.3148	910.8225	936.4298	958.765	980.9535	1024.024	1040.1861	1064.8349	1074.1664	1082.5283	1129.5775	1137.365	1159.8752	1190.8335	1229.8265	1235.4171	1260.6339	1291.4463	1325.2919	1352.5543	1369.1017	1393.8044	1404.4343	1421.7878	1433.6943	1447.8318	1470.1524	1482.3196	1493.2766	1503.1523	2958.2493	2979.1288	3001.6885	3023.6862	3061.7189	3069.9051	3072.6989	3137.9017	3138.2128	3150.1692	3229.4832	3817.1012
OC1CCOCC2CC12	O[C@H]1CCOC[C@H]2C[C@@H]12	
InChI=1S/C7H12O2/c8-7-1-2-9-4-5-3-6(5)7/h5-8H,1-4H2	InChI=1S/C7H12O2/c8-7-1-2-9-4-5-3-6(5)7/h5-8H,1-4H2/t5-,6-,7+/m1/s1
