21
gdb 64347	2.42585	1.43439	1.14313	2.9032	78.42	-0.2344	-0.0084	0.226	1167.1256	0.182092	-424.274098	-424.265014	-424.26407	-424.307423	35.495	
C	-0.0272252075	 1.5586618096	 0.0285791833	-0.42901
C	 0.0047128051	 0.0279948434	-0.0035951079	 0.343964
O	-1.3310604812	-0.4889491217	-0.0357023379	-0.458954
C	 0.6672799249	-0.4949414645	-1.2885961702	-0.196484
C	 0.6953234274	-2.0276719777	-1.3370905834	-0.217397
C	 1.3903294077	-2.6264094002	-0.0983615076	-0.292668
C	 0.8200449138	-2.0595091506	 1.1923387182	 0.395443
O	 0.4658955571	-2.7492881039	 2.1191575464	-0.310674
C	 0.7401753681	-0.5376631022	 1.2329296145	-0.3326
H	 0.9812737885	 1.9827161788	-0.0120776617	 0.114254
H	-0.6004875727	 1.9386475398	-0.8218777783	 0.124878
H	-0.5032366277	 1.9173523449	 0.9485528232	 0.107097
H	-1.756176121	-0.280712482	 0.803260978	 0.282477
H	 0.1163590802	-0.1025149221	-2.1497636196	 0.105433
H	 1.6862863619	-0.0919503563	-1.3461974909	 0.091827
H	-0.3328745487	-2.3974541727	-1.3859422955	 0.13009
H	 1.2050256849	-2.3663164078	-2.2448412176	 0.097006
H	 1.3119216806	-3.7155456861	-0.0675744107	 0.117732
H	 2.4593200138	-2.3676348054	-0.124615915	 0.11033
H	 1.7618066869	-0.1354331528	 1.2607198207	 0.113411
H	 0.2408325279	-0.2365021305	 2.1599354019	 0.103844
89.2848	116.4757	238.4394	249.0615	263.1479	281.6669	320.6714	375.9984	412.6629	439.0195	480.141	504.1799	535.8663	635.2536	739.8856	786.9916	836.9075	879.9734	890.072	934.1278	958.9836	964.0597	1025.8627	1055.3824	1073.9545	1116.8376	1147.3513	1161.5452	1213.2093	1236.7252	1244.3219	1303.2	1312.3517	1339.9651	1351.76	1378.1334	1398.0197	1407.4453	1456.9424	1465.0123	1479.7041	1491.7492	1492.9585	1495.9025	1821.1833	3007.0978	3022.8293	3026.8266	3033.619	3050.9031	3077.3348	3081.1304	3096.3561	3098.9852	3109.0585	3115.6609	3807.0102
CC1(O)CCCC(=O)C1	C[C@@]1(O)CCCC(=O)C1	
InChI=1S/C7H12O2/c1-7(9)4-2-3-6(8)5-7/h9H,2-5H2,1H3	InChI=1S/C7H12O2/c1-7(9)4-2-3-6(8)5-7/h9H,2-5H2,1H3/t7-/m1/s1
