20
gdb 110066	1.84357	1.44725	0.95596	4.4785	78.02	-0.2567	-0.004	0.2526	1300.9094	0.168212	-440.284682	-440.274401	-440.273457	-440.319999	36.842	
C	-0.2277738164	 1.6217397426	 0.0306541181	-0.448086
C	 0.0664497635	 0.1343458543	-0.017142587	 0.269225
C	-0.9181389337	-0.7245023407	 0.7561691005	-0.45444
C	 0.7457258459	-0.4981933445	-1.215911844	-0.082795
C	 1.2498380845	 0.1845438182	-2.4656483584	-0.07219
O	 2.3229743596	-0.5568412547	-3.0170270864	-0.420404
N	 1.4736677047	-0.2407141524	 0.0104663263	-0.093292
C	 2.1701902676	-1.1704882356	 0.7428044266	 0.130102
O	 2.8990507488	-2.0029897121	 0.250107694	-0.30487
H	 0.5370030693	 2.2019260321	-0.4872620662	 0.135631
H	-1.1990055119	 1.8332587575	-0.4285012797	 0.126908
H	-0.2680618822	 1.9659825841	 1.069850046	 0.125759
H	-1.9298055233	-0.5913912966	 0.3595470499	 0.133168
H	-0.6616857039	-1.785658227	 0.6918785066	 0.133573
H	-0.9390250271	-0.4386699491	 1.8134380773	 0.128301
H	 0.5004316273	-1.5474598302	-1.3860224583	 0.108941
H	 0.4651566099	 0.2146709325	-3.2299056357	 0.110194
H	 1.5449549751	 1.2196461417	-2.2416571634	 0.091243
H	 2.8935899198	-0.8287392293	-2.2865318123	 0.294552
H	 2.0663102823	-1.0297679709	 1.8350406763	 0.088482
66.7162	101.3369	125.1502	174.8621	195.134	222.079	252.108	258.7034	310.4557	340.1525	396.7484	433.6667	469.3049	547.6001	610.721	747.9915	819.1213	894.1619	956.891	999.5233	1007.9568	1038.0113	1060.6586	1072.5293	1119.9979	1134.2496	1150.8047	1231.1058	1252.7566	1266.809	1342.2616	1377.5671	1408.621	1412.6996	1426.181	1434.269	1472.0749	1476.7575	1489.5262	1500.7568	1505.3595	1514.6084	1776.5177	2959.0515	2999.7565	3034.3282	3041.0826	3066.3063	3097.7563	3102.3771	3110.1858	3117.8844	3141.8466	3771.4335
CC1(C)C(CO)N1C=O	CC1(C)[C@@H](CO)N1C=O	
InChI=1S/C6H11NO2/c1-6(2)5(3-8)7(6)4-9/h4-5,8H,3H2,1-2H3	InChI=1S/C6H11NO2/c1-6(2)5(3-8)7(6)4-9/h4-5,8H,3H2,1-2H3/t5-,7?/m1/s1
