22
gdb 40830	3.67966	1.03407	0.86563	1.6972	82.82	-0.2415	0.083	0.3245	1392.1112	0.196765	-404.333083	-404.324685	-404.323741	-404.366344	32.78	
C	 0.591283822	 0.3449154202	-0.9773727408	-0.244583
N	-0.545037656	 1.0726715078	-0.3879325765	-0.314812
C	 0.4491620184	 0.449487203	 0.4957541133	-0.021533
C	-0.0201838903	-0.7108910749	 1.334104937	 0.150369
C	 1.1068532775	-1.6994406812	 1.6656078867	-0.199766
C	 0.6036376636	-2.791583937	 2.6206184812	-0.210502
C	-0.0768674222	-2.1567792271	 3.8410842447	-0.192879
C	-1.1278889584	-1.1440010603	 3.3827784829	-0.062401
O	-0.5722854722	-0.1607894489	 2.5260602667	-0.267381
H	 0.3224153732	-0.5776996671	-1.4857214886	 0.114974
H	 1.3913799554	 0.9034906533	-1.4559723129	 0.109814
H	-0.3869159837	 2.0750560889	-0.4421535013	 0.231939
H	 1.146535672	 1.1062852077	 1.013702256	 0.085917
H	-0.8140492	-1.2371037934	 0.7753502216	 0.065686
H	 1.495896872	-2.1377623895	 0.7398433674	 0.093903
H	 1.9306933851	-1.1459432481	 2.1350776868	 0.095079
H	-0.1209539487	-3.4268334649	 2.0924545016	 0.095193
H	 1.4271952033	-3.4447890267	 2.9279880898	 0.093609
H	-0.5463279363	-2.9199708571	 4.4724993482	 0.091283
H	 0.6694271874	-1.6379516748	 4.4555357195	 0.100409
H	-1.9520106649	-1.6686054443	 2.867853992	 0.083628
H	-1.5566053672	-0.6010305357	 4.230497875	 0.102054
77.6607	107.7846	166.2094	240.8988	274.6447	341.2337	419.6828	436.4033	470.4076	500.3823	563.7134	814.6892	846.2299	846.3954	871.5522	886.6086	889.8361	926.108	935.7478	964.2044	993.1293	1050.3631	1059.7117	1073.6919	1113.1992	1116.0551	1126.2185	1149.6103	1199.1205	1225.8694	1238.5423	1256.4688	1281.7645	1285.2162	1293.5093	1320.2954	1355.285	1369.2912	1376.3769	1384.4005	1412.7016	1459.8887	1471.958	1481.3921	1490.4957	1502.2812	1518.913	2950.7371	2956.3888	3013.213	3022.3136	3026.8888	3065.6701	3070.6808	3075.4877	3080.4182	3104.8945	3120.936	3187.0377	3509.005
C1NC1C1CCCCO1	C1N[C@H]1[C@H]1CCCCO1	
InChI=1S/C7H13NO/c1-2-4-9-7(3-1)6-5-8-6/h6-8H,1-5H2	InChI=1S/C7H13NO/c1-2-4-9-7(3-1)6-5-8-6/h6-8H,1-5H2/t6-,7-/m1/s1
