18
gdb 81671	3.56138	1.3336	1.24923	3.7581	71.3	-0.2272	0.0051	0.2323	1061.3053	0.149112	-439.089323	-439.081858	-439.080914	-439.121066	29.556	
C	-0.2508573876	 1.4148793509	 0.0114166261	-0.420855
C	 0.04811873	-0.0721444532	-0.0610305433	 0.040965
C	 0.9651383494	-0.5672105158	-1.2004357529	 0.103493
C	 2.123411076	-0.3223501511	-0.2253826584	-0.209793
N	 1.1386638892	-0.5097396415	 0.908358794	-0.131869
C	 0.9827335118	-1.9592488667	 1.0819273805	-0.318043
C	 0.7865749586	-2.7404527222	-0.2329728425	 0.3988
O	 0.6455261586	-3.9286975199	-0.2909813356	-0.327838
O	 0.7809774138	-1.9881777915	-1.3698618574	-0.234211
H	 0.6444081618	 2.0274288172	-0.1265336119	 0.124527
H	-0.9758934087	 1.6954136433	-0.7594272864	 0.124955
H	-0.6747825429	 1.6602407307	 0.9891612997	 0.136082
H	-0.8776934513	-0.6475836633	 0.0478357785	 0.089637
H	 0.936913176	-0.1323183845	-2.2014741976	 0.093207
H	 2.9554486653	-1.030717942	-0.2502190463	 0.120907
H	 2.5098861322	 0.6979651875	-0.234580197	 0.122384
H	 1.8611479323	-2.3748685455	 1.5862955622	 0.14352
H	 0.1201400454	-2.1688300923	 1.7227693983	 0.144132
107.6735	200.9714	242.9434	274.5889	349.9617	420.1463	454.0035	468.81	529.285	562.4965	674.6028	771.989	805.6354	819.7124	876.2639	897.2929	938.656	1007.6384	1014.4618	1053.3406	1076.5174	1102.7035	1107.2767	1150.6097	1170.4673	1196.6423	1256.7555	1257.9758	1269.1339	1303.4309	1330.1244	1360.1796	1396.3583	1415.5717	1460.5496	1489.4388	1494.4189	1510.1042	1861.6129	3043.433	3047.8622	3054.4817	3070.1431	3093.6837	3097.0578	3113.5987	3120.4821	3131.3511
CC1C2CN1CC(=O)O2	C[C@H]1[C@H]2CN1CC(=O)O2	
InChI=1S/C6H9NO2/c1-4-5-2-7(4)3-6(8)9-5/h4-5H,2-3H2,1H3	InChI=1S/C6H9NO2/c1-4-5-2-7(4)3-6(8)9-5/h4-5H,2-3H2,1H3/t4-,5+/m0/s1
