15
gdb 17371	4.19924	1.74969	1.42018	4.9989	60.56	-0.2399	0.0152	0.2551	865.3374	0.118751	-399.776494	-399.769149	-399.768205	-399.808707	27.381	
N	 0.0375141685	 1.1957516326	 0.4309830703	-0.523659
C	 0.0482528474	-0.0276412859	-0.1716739593	 0.374075
O	 0.9455750337	-0.4173850424	-0.8882504888	-0.353006
C	-1.1982537692	-0.8865416509	 0.0691066678	 0.054948
O	-0.8750775212	-2.1587457211	 0.7039942822	-0.288629
C	-1.9194323565	-1.9535418024	 1.6575809939	 0.122173
C	-1.6281001112	-0.7786389074	 2.5283976332	-0.306449
C	-2.2342700997	-0.5676156963	 1.1456128822	-0.191347
H	 0.8591531006	 1.7721980262	 0.3422941595	 0.262373
H	-0.6402750316	 1.4229818864	 1.1376987394	 0.267222
H	-1.6592522477	-1.078297738	-0.9071306247	 0.113676
H	-2.547489154	-2.7982211759	 1.9131795144	 0.11377
H	-2.3249988297	-0.6147392122	 3.3445012067	 0.121389
H	-0.5954235726	-0.515648877	 2.7388345129	 0.125014
H	-3.1841895467	-0.0774759056	 0.9830085204	 0.108452
37.3747	161.076	201.7836	294.0035	352.5294	420.5267	468.3894	550.1376	598.8744	696.4318	757.4393	780.4409	810.5265	909.2291	945.6268	971.0107	999.4562	1024.4912	1047.2587	1052.0228	1069.7202	1089.041	1101.0732	1197.5183	1247.1428	1295.0854	1334.8594	1353.4336	1368.8365	1474.0079	1609.0143	1810.339	3041.1994	3119.0202	3188.5826	3205.5536	3215.2055	3595.5976	3731.9649
NC(=O)C1OC2CC12	NC(=O)[C@H]1O[C@H]2C[C@@H]12	
InChI=1S/C5H7NO2/c6-5(7)4-2-1-3(2)8-4/h2-4H,1H2,(H2,6,7)	InChI=1S/C5H7NO2/c6-5(7)4-2-1-3(2)8-4/h2-4H,1H2,(H2,6,7)/t2-,3+,4+/m1/s1
