17
gdb 47060	3.51419	1.37372	1.07217	2.0705	67.82	-0.2401	-0.0273	0.2128	1086.5695	0.136722	-458.958903	-458.951481	-458.950537	-458.991268	28.27	
O	 0.0184311075	 0.4562201596	-1.1427186777	-0.295937
C	-0.0287929393	 1.238499326	-0.2258662033	 0.346835
C	-1.3512170621	 1.8878371277	 0.2021252393	-0.180916
O	-1.2084621119	 2.720072664	 1.3382867252	-0.25183
C	-0.2634678379	 3.7417417576	 1.1059317426	 0.060393
C	 0.3894924938	 4.2438823622	 2.3990707354	-0.100653
O	 1.663703897	 3.6642103354	 2.0337366208	-0.29172
C	 1.1474216373	 3.1996437675	 0.7672623983	 0.095391
C	 1.1725863528	 1.6767457656	 0.5972089206	-0.327506
H	-1.7647093152	 2.4363048328	-0.6604832668	 0.122816
H	-2.0638090458	 1.1003805349	 0.4637612829	 0.147198
H	-0.6687061693	 4.5030969088	 0.4263117456	 0.080642
H	 0.450751847	 5.3326569481	 2.5063104954	 0.109087
H	-0.0283425946	 3.801990332	 3.309744917	 0.120176
H	 1.6493795602	 3.6996356422	-0.0696457784	 0.091693
H	 1.0724417318	 1.2331201142	 1.595258183	 0.144634
H	 2.0912393787	 1.3054102112	 0.1405803801	 0.129695
76.9179	104.5051	227.3689	331.5033	362.4628	402.5676	453.6443	507.1358	544.9186	643.9436	773.6702	784.5203	824.9868	874.5449	939.9415	948.4332	1004.2815	1031.134	1059.0368	1087.7671	1098.5468	1145.9016	1151.6717	1176.3599	1220.5881	1250.5315	1264.0706	1282.9994	1301.6652	1342.7284	1361.6485	1362.5276	1393.8687	1455.7547	1458.6941	1513.1235	1829.8358	2978.4569	3012.3049	3029.5217	3039.1293	3048.3643	3086.3103	3096.5816	3129.416
O=C1COC2COC2C1	O=C1CO[C@H]2CO[C@H]2C1	
InChI=1S/C6H8O3/c7-4-1-5-6(3-9-5)8-2-4/h5-6H,1-3H2	InChI=1S/C6H8O3/c7-4-1-5-6(3-9-5)8-2-4/h5-6H,1-3H2/t5-,6-/m0/s1
