17
gdb 16843	3.60766	1.79465	1.43997	2.2552	62.48	-0.2465	0.0653	0.3118	883.7566	0.14414	-400.977598	-400.970355	-400.969411	-401.009063	28.363	
O	 0.0670863631	 1.3864828844	-0.0348241381	-0.439258
C	 0.0308072876	-0.02652382	-0.0963357352	 0.152941
C	 0.8113980451	-0.7334391551	 1.0422795893	-0.29201
C	 0.0640543864	-2.0555722748	 1.3568236004	 0.15294
O	 0.1299674406	-2.4511515155	 2.7136064159	-0.439257
C	-1.3546019162	-1.8009696459	 0.8683416659	-0.076079
N	-1.8780401806	-0.5180400174	 1.4045687346	-0.3661
C	-1.3742538786	-0.6015517547	 0.0093419519	-0.076079
H	-0.4067489437	 1.6304677333	 0.7699068176	 0.284613
H	 0.45145919	-0.2849113135	-1.0744105274	 0.090178
H	 1.861477199	-0.8954506332	 0.7920377803	 0.107088
H	 0.7847084014	-0.0968052901	 1.9318226285	 0.104497
H	 0.4941320218	-2.8891672651	 0.7907005445	 0.090179
H	-0.3508994257	-1.7781600063	 3.2110901262	 0.284613
H	-2.0416067634	-2.6302976213	 0.7366599424	 0.092258
H	-2.8942409225	-0.5443053998	 1.3911331639	 0.237219
H	-2.0769322745	-0.474268225	-0.8074460308	 0.092258
88.016	147.3885	260.5801	367.3498	397.1086	432.9859	446.5795	496.5377	585.533	603.5293	659.6862	805.8016	837.4682	896.0729	896.9323	921.5315	981.586	1008.5367	1057.6095	1064.035	1090.1432	1107.9736	1119.8349	1165.4714	1172.5702	1257.5638	1259.179	1306.9276	1308.82	1340.5085	1341.5524	1360.1977	1420.8139	1439.0037	1440.2708	1481.1433	3053.1053	3053.7898	3064.9569	3119.526	3164.0729	3175.3045	3507.9568	3781.9016	3782.8098
OC1CC(O)C2NC12	O[C@H]1C[C@@H](O)[C@H]2N[C@@H]12	
InChI=1S/C5H9NO2/c7-2-1-3(8)5-4(2)6-5/h2-8H,1H2	InChI=1S/C5H9NO2/c7-2-1-3(8)5-4(2)6-5/h2-8H,1H2/t2-,3+,4-,5+
