16
gdb 27314	3.30072	1.4018	0.99098	2.846	78.16	-0.2034	-0.0208	0.1826	1152.6256	0.125565	-434.1095	-434.101256	-434.100312	-434.14229	31.189	
C	 0.0204638094	 1.4871090847	-0.1078765586	-0.471563
C	-0.0466094721	-0.0011140029	 0.0307524405	 0.398491
N	-1.1236374738	-0.665698246	-0.16839524	-0.362585
C	-1.1182323698	-2.0568590392	-0.0236218772	 0.311989
N	-2.1352744372	-2.8035716998	-0.2443398245	-0.549366
C	 0.1453051314	-2.6875813375	 0.3965689616	 0.229679
N	 0.1062398499	-4.0473963174	 0.6165372321	-0.588138
C	 1.2174120929	-1.8899610534	 0.5621846885	-0.070688
O	 1.144681244	-0.5263672224	 0.3795897921	-0.20844
H	 0.7655985069	 1.7662830096	-0.8595773462	 0.147716
H	-0.9569800691	 1.8677218243	-0.3998850957	 0.155096
H	 0.3265735291	 1.9437090073	 0.8387685398	 0.148653
H	-2.9252113286	-2.2258294114	-0.5343448238	 0.219818
H	-0.7127000129	-4.4687208704	 0.1953336872	 0.271265
H	 0.9638516091	-4.5619076378	 0.4904781011	 0.245705
H	 2.2107384407	-2.2020271079	 0.851766543	 0.122369
93.1365	104.0196	195.0893	300.4275	322.426	331.9727	384.6425	419.6701	481.0761	525.7505	567.5066	603.3238	627.148	748.2365	782.1535	797.5971	803.477	898.6061	913.5416	1021.3784	1062.4606	1104.2818	1136.0683	1205.4721	1264.7679	1299.2662	1372.8884	1408.3067	1459.5985	1472.2248	1475.7117	1613.4437	1672.3548	1684.8851	1714.5113	3049.5751	3107.0054	3171.6848	3234.425	3478.9597	3539.9545	3667.7111
CC1=NC(=N)C(N)=CO1	C[C@H]1N=C([NH])C(=CO1)N	
InChI=1S/C5H7N3O/c1-3-8-5(7)4(6)2-9-3/h2,7H,6H2,1H3	InChI=1S/C5H8N3O/c1-3-8-5(7)4(6)2-9-3/h2-3,7H,6H2,1H3/t3-/m0/s1
