13
gdb 132454	3.31326	1.42099	0.99537	1.909	67.01	-0.2091	-0.0411	0.168	1066.5574	0.090115	-494.066705	-494.05943	-494.058486	-494.098418	27.887	
N	 0.0517369549	 1.3700394437	 0.0338981702	-0.586341
C	-0.023650487	-0.0072742413	 0.027735731	 0.237507
C	-1.1538922603	-0.7548755352	 0.1073725094	-0.112501
N	-1.1402233268	-2.1451175078	 0.1660519951	-0.362737
C	-0.0025015546	-2.6860846681	 0.1370897989	 0.390024
F	 0.1614362625	-3.9846945903	 0.1932361168	-0.043395
O	 1.196767976	-2.0895415401	 0.0460229653	-0.232722
C	 1.2626002841	-0.6990142989	-0.0311014251	 0.381028
N	 2.3686725469	-0.0954067052	-0.1542155766	-0.548286
H	 0.9359713866	 1.7248175314	-0.3036963018	 0.273301
H	-0.7584650408	 1.8673181223	-0.3014035845	 0.254315
H	-2.1366451052	-0.2982907403	 0.1373663752	 0.113139
H	 3.1574075437	-0.7388939002	-0.1881543537	 0.236668
124.4638	161.5815	313.9238	352.8907	365.4711	399.7691	419.032	483.1816	536.9657	566.2866	606.4508	701.0505	756.7964	765.6705	792.2201	839.4464	889.4659	981.1298	1058.037	1116.456	1220.8573	1269.9265	1303.0278	1374.5442	1451.8461	1617.5237	1661.8189	1712.3705	1763.7842	3193.0444	3516.4168	3561.4247	3679.1068
NC1=CN=C(F)OC1=N	NC1=C(OC(=NC1)F)[NH]	
InChI=1S/C4H4FN3O/c5-4-8-1-2(6)3(7)9-4/h1,7H,6H2	InChI=1S/C4H5FN3O/c5-4-8-1-2(6)3(7)9-4/h7H,1,6H2
