21
gdb 108521	2.5415	1.5102	1.1576	2.4645	77.09	-0.2454	0.0672	0.3126	1135.3689	0.184232	-424.222277	-424.213924	-424.212979	-424.25545	32.458	
O	 0.0932585122	 1.3412147745	-0.1131265858	-0.423598
C	 0.015450707	-0.0285387666	 0.231652739	-0.121505
C	-1.4067204558	-0.5366692725	 0.0637338566	 0.439441
C	-2.426995067	 0.0066974947	 1.0805868553	-0.276656
C	-2.8626662022	-1.241680714	 1.8744161984	-0.199479
C	-2.8626463952	-2.3753353714	 0.826657852	-0.234871
C	-1.6409605882	-2.065971362	-0.0606990384	-0.119093
C	-1.8793243746	-1.7624069011	-1.553144571	-0.09491
O	-1.8095476943	-0.3351352344	-1.3301063393	-0.346105
H	-0.3115986819	 1.4088524282	-0.9874413973	 0.292893
H	 0.6986242244	-0.6370519489	-0.3835190709	 0.079195
H	 0.335751136	-0.1187625172	 1.2760967612	 0.10392
H	-2.0142985137	 0.800714895	 1.7074696637	 0.109875
H	-3.2727282879	 0.4258103702	 0.5266882058	 0.111983
H	-2.1252070028	-1.4615246887	 2.6567586069	 0.099898
H	-3.828727968	-1.1184736853	 2.3719484286	 0.099886
H	-2.8215517195	-3.3709557526	 1.2765247213	 0.099471
H	-3.7830052938	-2.3281183299	 0.2323472241	 0.102799
H	-0.7840887253	-2.7070266977	 0.1582710963	 0.074336
H	-1.0850175847	-2.1049642688	-2.2278876027	 0.100691
H	-2.8502353047	-2.0653023114	-1.9635107037	 0.10183
71.2693	109.5936	181.2848	189.2363	315.0311	354.3907	402.4638	435.6592	487.1565	543.0667	641.7566	690.2258	797.6734	832.0716	869.1496	888.1089	914.2457	928.205	974.5655	995.8107	1007.4751	1012.1042	1035.5147	1075.1406	1090.9548	1134.4002	1159.759	1171.7297	1192.1997	1206.9332	1238.4846	1254.7993	1283.5757	1315.3825	1324.5003	1338.5096	1350.5899	1359.8098	1382.3431	1431.0687	1485.6261	1491.7463	1499.3581	1506.2544	1523.5265	2968.4256	3013.0172	3028.7944	3037.5909	3056.0254	3057.7948	3062.37	3077.4848	3090.7485	3097.9968	3110.8395	3774.5602
OCC12CCCC1CO2	OC[C@]12CCC[C@H]1CO2	
InChI=1S/C7H12O2/c8-5-7-3-1-2-6(7)4-9-7/h6,8H,1-5H2	InChI=1S/C7H12O2/c8-5-7-3-1-2-6(7)4-9-7/h6,8H,1-5H2/t6-,7+/m0/s1
