19
gdb 115125	2.86788	1.29207	0.97519	4.184	79.29	-0.2231	-0.0553	0.1679	1238.2186	0.15997	-419.249338	-419.240223	-419.239279	-419.284143	32.767	
C	 0.0083655087	 1.5320635958	 0.014937458	-0.38522
C	 0.01664164	 0.0000789817	-0.0554870959	-0.149027
N	 0.7007490014	-0.5232697712	-1.2224944092	-0.06567
C	 0.0419660539	-0.6490544825	-2.5180769653	-0.182036
C	 1.0980786898	-1.2975089202	-3.4320368178	-0.346791
C	 2.4024924507	-1.1653922608	-2.6563911132	 0.344418
O	 3.5184506488	-1.3947374905	-3.0424798911	-0.305146
C	 2.0575363173	-0.6855387063	-1.2600147224	 0.270209
N	 2.8643183764	-0.4735565999	-0.292334591	-0.565966
H	 1.0325483742	 1.9107894437	 0.0561976893	 0.150176
H	-0.4947991303	 1.9735332239	-0.8515104243	 0.113342
H	-0.5185241139	 1.8647554692	 0.9146416801	 0.120009
H	 0.5305415323	-0.4036523821	 0.8217270833	 0.143673
H	-1.0076327782	-0.3913867497	-0.0598277913	 0.100824
H	-0.8632832197	-1.2597446919	-2.4227960658	 0.11625
H	-0.2680922289	 0.3313550754	-2.9070761199	 0.115853
H	 0.8995945513	-2.3631114014	-3.5887064792	 0.150748
H	 1.1767851846	-0.832859492	-4.4168918881	 0.144605
H	 3.8058330917	-0.7162211512	-0.6068403262	 0.229749
51.795	80.6633	93.887	138.7223	213.0544	310.6091	326.5442	363.2815	444.6288	544.3489	572.3358	630.5772	681.7963	739.1142	787.4643	832.5994	858.6796	904.1048	977.1854	1003.6555	1051.0158	1083.8124	1097.3674	1137.8783	1195.4729	1216.0306	1236.8654	1250.4477	1280.2501	1348.0439	1371.7152	1392.3633	1403.6822	1448.2386	1464.7822	1482.2892	1491.9952	1503.9658	1536.8977	1721.9498	1851.2575	2996.9547	3033.7796	3040.196	3044.334	3064.4623	3091.021	3110.7618	3120.2393	3131.3062	3464.2473
CCN1CCC(=O)C1=N	CCN1CCC(=O)[C]1[NH]	
InChI=1S/C6H10N2O/c1-2-8-4-3-5(9)6(8)7/h7H,2-4H2,1H3	InChI=1S/C6H10N2O/c1-2-8-4-3-5(9)6(8)7/h7H,2-4H2,1H3
