17
gdb 72426	2.75292	1.73845	1.40493	4.5761	67.51	-0.2498	0.0038	0.2536	961.5765	0.137064	-459.008026	-459.000761	-458.999817	-459.039438	28.802	
C	-0.1100470256	 1.4550681163	 0.006658001	-0.480004
C	 0.0566003747	-0.0426979632	 0.0103263331	 0.36148
C	 0.8043549062	-0.687231039	-1.1675618429	-0.098535
O	 1.0192692653	-2.03883372	-0.7246508039	-0.278595
C	 0.4462113571	-2.1184920669	 0.5960281273	-0.051891
C	 0.7502468376	-0.7465465934	 1.1971760214	-0.283308
C	-1.0711670578	-1.9912721558	 0.3936098198	 0.458747
O	-1.9537810911	-2.7889188656	 0.4833527239	-0.344903
O	-1.2596757928	-0.6841761963	 0.0159471785	-0.275926
H	 0.8675673636	 1.9438471995	 0.0526675472	 0.128357
H	-0.6219903794	 1.7874654363	-0.9010162398	 0.139622
H	-0.7011202212	 1.7752518311	 0.8684575505	 0.140174
H	 0.1950787436	-0.6796816026	-2.0772580927	 0.121981
H	 1.7673562201	-0.2027921702	-1.3679216813	 0.10873
H	 0.7775418412	-3.0309145158	 1.0834166818	 0.109777
H	 1.8188962931	-0.5359009391	 1.2710723356	 0.119011
H	 0.2487847055	-0.5505058752	 2.1473365605	 0.125281
154.8992	196.715	264.8866	280.073	287.3285	433.8789	461.3018	498.2655	587.348	610.6339	732.4161	751.1699	835.7649	872.1341	898.8208	920.146	924.8452	968.8021	980.6116	1011.207	1039.8274	1083.568	1134.4237	1170.1092	1215.4248	1231.2488	1267.0034	1283.6545	1287.0065	1307.045	1384.6416	1417.8631	1479.2461	1482.047	1495.9225	1512.8431	1904.3099	3029.4769	3047.2437	3076.8612	3082.579	3119.891	3126.0497	3140.1143	3174.5342
CC12COC(C1)C(=O)O2	C[C@@]12CO[C@@H](C1)C(=O)O2	
InChI=1S/C6H8O3/c1-6-2-4(8-3-6)5(7)9-6/h4H,2-3H2,1H3	InChI=1S/C6H8O3/c1-6-2-4(8-3-6)5(7)9-6/h4H,2-3H2,1H3/t4-,6-/m0/s1
