15
gdb 26565	2.38432	1.90582	1.06498	3.9143	72.47	-0.2013	-0.013	0.1882	1046.6416	0.115809	-450.16754	-450.159616	-450.158672	-450.200033	29.809	
N	-0.2545971221	 1.3997219732	 0.0664539867	-0.621381
C	-0.0637532762	-0.0187528415	 0.0193483763	 0.054026
C	-1.1867541896	-0.7736598085	 0.0249298361	 0.46182
O	-2.4282448917	-0.2773590544	 0.0708364578	-0.417727
N	-1.0985992542	-2.1449780142	-0.0182352665	-0.379518
C	 0.1483372081	-2.7181710522	-0.0665310597	 0.088106
N	 1.2575676989	-2.0784654957	-0.0752340859	-0.321737
C	 1.24256136	-0.6593330251	-0.0325379311	 0.264762
N	 2.3128166545	 0.0496064911	-0.0382640779	-0.562364
H	 0.2518850354	 1.7739240582	 0.8676640308	 0.253675
H	 0.2121070593	 1.8217739208	-0.7351371619	 0.253683
H	-2.2840705858	 0.6896934245	 0.0960537616	 0.309196
H	-1.9404000593	-2.6986275367	-0.0135343399	 0.274677
H	 0.1439456169	-3.8061846717	-0.0988538653	 0.132167
H	 3.1195566957	-0.5755232378	-0.077162521	 0.210614
80.0117	155.6963	227.5071	269.0948	283.3558	333.5872	398.2112	521.1352	525.18	542.2053	563.388	657.4227	711.5609	731.7477	780.0084	879.9453	896.4232	950.7631	956.0769	996.0495	1088.9066	1188.0097	1228.1355	1228.4488	1303.6824	1365.813	1407.3731	1436.1667	1551.1787	1640.5155	1672.7132	1677.3583	1756.5841	3151.1404	3464.1464	3468.8257	3509.0254	3589.8226	3647.0907
NC1=C(O)NC=NC1=N	NC1=C(N=CN[C@@H]1O)[NH]	
InChI=1S/C4H6N4O/c5-2-3(6)7-1-8-4(2)9/h1H,5H2,(H3,6,7,8,9)	InChI=1S/C4H7N4O/c5-2-3(6)7-1-8-4(2)9/h1,4,6,9H,5H2,(H,7,8)/t4-/m1/s1
