19
gdb 119363	3.01253	1.08537	0.93893	2.5515	76.76	-0.2514	-0.0076	0.2438	1331.2244	0.157312	-422.979974	-422.971011	-422.970067	-423.014316	32.934	
C	-0.1015434192	 1.5313451285	 0.0213875065	-0.385629
C	 0.0552610206	 0.0098868487	-0.0013698074	-0.174317
C	 0.760437181	-0.5299955213	 1.2525519189	-0.344555
C	 0.9065284877	-2.0175450981	 1.2346143266	 0.297648
C	 1.4237257377	-3.0128903724	 2.3092081685	-0.27954
C	 0.7510390675	-3.8832251058	 1.2247807532	-0.069408
O	-0.3313899107	-2.8695201352	 1.1378842896	-0.33523
C	 1.4455788541	-3.004395707	 0.153355257	 0.443579
O	 1.9473012494	-3.0377740704	-0.9220882986	-0.319945
H	 0.8720047023	 2.031342708	 0.0764448865	 0.114905
H	-0.6083381558	 1.8890881065	-0.8797688763	 0.117256
H	-0.6902479229	 1.8577123105	 0.8861333167	 0.114996
H	-0.9267092099	-0.4684282906	-0.0853936295	 0.120596
H	 0.6234422812	-0.2960727858	-0.8873765536	 0.122831
H	 1.7656649728	-0.0965774586	 1.3388076983	 0.115026
H	 0.2132461034	-0.2331693322	 2.1566076764	 0.113684
H	 2.5016204389	-3.102826903	 2.4690476035	 0.112672
H	 0.8494498773	-2.9720301457	 3.2365051738	 0.120143
H	 0.459564665	-4.9304734062	 1.2442151298	 0.115287
67.6511	81.1926	114.6933	186.1002	233.0471	249.4077	311.6288	381.8413	475.834	520.8244	650.4698	688.2741	750.4994	783.5696	819.4181	832.2908	868.3982	902.1007	917.4098	950.5128	986.5422	1036.6598	1050.2889	1061.2709	1121.4823	1161.561	1186.3484	1203.7459	1212.7991	1261.8466	1296.9201	1332.3872	1362.2572	1406.234	1413.6339	1468.7177	1476.9896	1493.5018	1499.9269	1510.5397	1926.0793	3019.5239	3029.0272	3043.1572	3052.8928	3062.0505	3076.5463	3100.8384	3106.0732	3145.5541	3161.4153
CCCC12CC(O1)C2=O	CCC[C@@]12C[C@@H](O1)C2=O	
InChI=1S/C7H10O2/c1-2-3-7-4-5(9-7)6(7)8/h5H,2-4H2,1H3	InChI=1S/C7H10O2/c1-2-3-7-4-5(9-7)6(7)8/h5H,2-4H2,1H3/t5-,7+/m1/s1
