16
gdb 52596	2.02377	1.1106	0.91609	2.1202	85.92	-0.2446	0.011	0.2556	1386.8777	0.119425	-363.491164	-363.480415	-363.479471	-363.527974	37.802	
C	-0.0268291061	 1.4804280493	 0.0035474085	-0.499659
C	 0.0111555696	 0.0257723829	 0.0012207682	 0.021439
C	 0.0570550598	-1.17717773	-0.0017625968	 0.137742
C	 0.0425635905	-2.6579486349	-0.0003843068	-0.364414
N	-1.3281014957	-3.2232143916	 0.0976218166	-0.507553
C	 0.6501451803	-3.1492123377	-1.2537594779	 0.407201
C	 1.1281315294	-3.5363514262	-2.2839696091	-0.471786
C	 0.8220882327	-3.1486583254	 1.1541676014	 0.407203
C	 1.4416650354	-3.5352901182	 2.1061766383	-0.471788
H	 0.5304558123	 1.8881513665	 0.8538291042	 0.154641
H	 0.4156444349	 1.8879637063	-0.911829517	 0.154667
H	-1.0553009519	 1.8517785515	 0.070387081	 0.150183
H	-1.7523435987	-2.8539529572	 0.9456674225	 0.23806
H	-1.8685569043	-2.8543093656	-0.6816944385	 0.23806
H	 1.5586261367	-3.883330707	-3.1907934623	 0.203002
H	 1.996675155	-3.8818437828	 2.9427852376	 0.203002
22.927	78.9131	96.6229	128.5313	194.729	200.0372	244.6858	290.9503	310.4085	368.1453	459.7952	495.0024	517.8066	551.8118	553.1215	637.8791	637.9676	654.0388	656.8808	660.5244	874.0467	937.856	998.8201	1052.6595	1052.6703	1114.0686	1188.6571	1324.5731	1413.2585	1476.5829	1476.8341	1641.9322	2244.0339	2249.1388	2365.3516	3029.1101	3090.7442	3092.9819	3472.7738	3501.7689	3502.403	3560.3164
CC#CC(N)(C#C)C#C	CC#CC(N)(C#C)C#C	
InChI=1S/C8H7N/c1-4-7-8(9,5-2)6-3/h2-3H,9H2,1H3	InChI=1S/C8H7N/c1-4-7-8(9,5-2)6-3/h2-3H,9H2,1H3
