15
gdb 39801	3.55475	1.46827	1.1961	1.8752	65.87	-0.2594	0.0521	0.3115	1006.6564	0.110828	-457.617946	-457.610907	-457.609963	-457.649354	27.572	
C	-0.0018682894	 1.5232742116	 0.0106829126	-0.297372
O	 1.2187626564	 0.7275146671	-0.006167071	-0.279566
C	-0.0153842787	 0.0761686754	 0.002729022	 0.541425
C	-0.5657331142	-1.0272940969	 0.9260413357	-0.216616
O	-1.7391346101	-1.0733709515	 0.0138190297	-0.301488
C	-0.5845137833	-1.016961468	-0.9214958529	-0.216616
C	 0.123506747	-2.0399131333	-0.0105234428	 0.592154
C	 1.3407219798	-2.8337051788	-0.0273347516	-0.292413
O	 0.0115334645	-3.4230167025	-0.0171221501	-0.28166
H	-0.1808993046	 2.0658435005	 0.9364207794	 0.131289
H	-0.1996018496	 2.076118228	-0.9051180088	 0.131288
H	-0.7448789419	-1.0479965558	 1.9989086545	 0.114574
H	-0.785443161	-1.0256753567	-1.9906626143	 0.114574
H	 1.8940678131	-2.9647807676	-0.9548140773	 0.130215
H	 1.912775782	-2.9750804215	 0.887192085	 0.130214
115.6879	235.4622	253.1592	265.3063	363.8906	419.2574	479.0705	522.0756	662.7849	734.816	761.9855	786.7188	837.8461	872.0135	876.0924	924.0022	986.3654	1058.9995	1062.217	1092.4411	1107.7059	1110.2808	1125.8007	1132.764	1150.3605	1168.5625	1168.7251	1203.7584	1234.1106	1456.9905	1472.6337	1549.6983	1575.9335	3097.8219	3098.818	3151.3199	3155.0652	3188.2661	3188.9083
C1OC11C2OC1C21CO1	C1O[C@]21[C@H]1O[C@@H]2[C@]21CO2	
InChI=1S/C6H6O3/c1-5(7-1)3-6(2-8-6)4(5)9-3/h3-4H,1-2H2	InChI=1S/C6H6O3/c1-5(7-1)3-6(2-8-6)4(5)9-3/h3-4H,1-2H2/t3-,4+,5-,6-
