15
gdb 56375	2.07801	1.48098	1.27495	4.7168	69.47	-0.2735	-0.0304	0.243	1066.6712	0.112336	-412.955289	-412.946264	-412.94532	-412.989119	32.182	
N	-0.1925483023	 1.5378017425	 0.1252131276	-0.509121
C	 0.0301587101	 0.0906481816	 0.0063524592	-0.097561
C	 0.8506203237	-0.3520089885	 1.1578712693	 0.328044
N	 1.5399318053	-0.70364671	 2.0147509651	-0.327728
C	-1.2881438772	-0.5786947762	 0.0918697843	 0.32662
N	-2.3218845588	-1.0917124019	 0.1031494287	-0.308707
C	 0.708160688	-0.3341766079	-1.3151953863	-0.003985
C	 2.1854887255	-0.3088950151	-1.4519757814	-0.265874
N	 1.4457866122	-1.5832070368	-1.468669927	-0.307273
H	 0.6804424942	 2.02080356	-0.0692364506	 0.254158
H	-0.8704978747	 1.8318283275	-0.5719959784	 0.258096
H	 0.0851504283	-0.0719213489	-2.168040803	 0.12059
H	 2.6274444854	-0.0196579	-2.400481873	 0.136141
H	 2.7796780564	-0.0698554712	-0.5741599474	 0.142082
H	 1.5516399739	-2.0598203049	-0.5747021972	 0.254518
80.2262	131.1189	152.5544	164.8907	204.9281	249.154	269.3732	361.0204	423.5262	500.2676	528.2695	575.4879	634.1701	661.4868	816.9966	855.8949	890.8339	956.3904	958.6196	1000.8016	1063.1795	1121.7683	1138.1597	1153.462	1221.6419	1252.8709	1302.7223	1322.9122	1397.4037	1508.907	1648.5363	2365.3804	2372.5323	3117.8647	3132.074	3206.792	3491.9658	3492.8515	3582.9285
NC(C#N)(C#N)C1CN1	NC(C#N)(C#N)[C@H]1CN1	
InChI=1S/C5H6N4/c6-2-5(8,3-7)4-1-9-4/h4,9H,1,8H2	InChI=1S/C5H6N4/c6-2-5(8,3-7)4-1-9-4/h4,9H,1,8H2/t4-/m1/s1
