20
gdb 13087	3.704	1.24004	1.04669	2.8208	75.79	-0.2465	-0.0187	0.2278	1173.1392	0.175959	-349.008306	-348.999526	-348.998582	-349.042406	31.755	
C	-0.57911682	 1.3879444763	-0.0645501251	-0.414293
C	 0.0805487682	 0.0174933305	-0.0659937239	 0.041762
C	 1.4720840776	-0.162629659	-0.7338948696	-0.225205
C	 1.8559190645	-1.1509289104	 0.3995057892	-0.226206
C	 0.6772169927	-0.589850411	 1.250722903	-0.014458
C	 1.1188295622	 0.4357007367	 2.308209694	-0.283644
C	 1.7691237284	-0.2645875969	 3.4777782055	 0.162097
O	 2.9282850084	-0.1631620277	 3.7892031146	-0.242185
H	 0.0855368288	 2.1597811126	 0.3374161507	 0.116192
H	-0.8479016325	 1.6858524449	-1.0841049985	 0.116539
H	-1.4987146077	 1.3931849266	 0.5319741041	 0.113399
H	-0.616659583	-0.7157264709	-0.4878561156	 0.074604
H	 1.4935430888	-0.5341995039	-1.7611862119	 0.096631
H	 2.0622812597	 0.7582708545	-0.6910174976	 0.102026
H	 1.6923558417	-2.193001944	 0.112509543	 0.101713
H	 2.85683506	-1.0625024317	 0.8290255175	 0.113617
H	 0.0431440706	-1.3426477107	 1.7322248992	 0.066501
H	 1.8292411983	 1.1604482013	 1.8997436888	 0.118356
H	 0.2394436444	 0.9788453776	 2.6813123924	 0.1125
H	 1.0817128491	-0.9337249649	 4.0486742804	 0.070055
49.4714	81.1023	122.2779	172.567	232.0745	270.3573	342.9214	377.362	472.8243	525.4433	642.065	752.299	783.4788	887.9405	893.1171	894.0939	918.2982	959.9733	964.6006	1017.2146	1047.2692	1099.1141	1129.3654	1147.4928	1175.9855	1211.2074	1225.3886	1254.9935	1263.9159	1271.5796	1298.9473	1301.3509	1373.4877	1378.6769	1414.5883	1427.4577	1466.0626	1483.051	1496.721	1500.3424	1502.2367	1831.5797	2847.1789	3017.7733	3026.0181	3027.4505	3040.8851	3052.4289	3062.504	3088.7236	3095.3623	3098.5104	3102.2589	3117.636
CC1CCC1CC=O	C[C@H]1CC[C@H]1CC=O	
InChI=1S/C7H12O/c1-6-2-3-7(6)4-5-8/h5-7H,2-4H2,1H3	InChI=1S/C7H12O/c1-6-2-3-7(6)4-5-8/h5-7H,2-4H2,1H3/t6-,7-/m0/s1
