18
gdb 11479	3.43843	1.51069	1.40086	3.5125	63.59	-0.2417	0.0639	0.3056	965.0761	0.154273	-422.073184	-422.065044	-422.0641	-422.105995	30.106	
O	 0.3929609532	 0.798398879	 0.6408294339	-0.428127
C	 0.0105507171	-0.4784423134	 0.1689922232	-0.066262
C	-1.4770483463	-0.5109772086	-0.1767236865	 0.116235
C	-2.021423797	-1.9116093594	-0.5148729663	-0.269674
C	-2.6454828953	-2.3829521614	 0.8033661546	 0.111576
O	-1.6116549157	-2.9834339325	 1.5735820744	-0.428888
C	-3.1341870353	-1.0573184513	 1.3939164352	-0.090658
O	-2.1965599156	-0.0693523436	 0.994449588	-0.287867
H	-0.2442140684	 1.0172703252	 1.3317424059	 0.287953
H	 0.6062462729	-0.6814701232	-0.7283453097	 0.09808
H	 0.2160783466	-1.2681566693	 0.9064200375	 0.102601
H	-1.6728139904	 0.2108910869	-0.9795088079	 0.078983
H	-2.7881515447	-1.8570536059	-1.2921271594	 0.107858
H	-1.2436844045	-2.6032619364	-0.8465827825	 0.123667
H	-3.4739108476	-3.0876497523	 0.6465727721	 0.070403
H	-1.9440656918	-3.134232239	 2.4641677205	 0.284551
H	-4.1396938587	-0.8189038625	 1.0108336202	 0.092144
H	-3.1844616285	-1.0730772823	 2.4892810569	 0.097429
67.9358	119.7354	149.3663	232.7457	287.0104	383.084	388.8959	407.6774	460.9598	481.6913	722.9376	796.0378	808.5711	855.3092	867.0758	963.0456	993.359	1003.251	1025.0311	1065.1204	1080.3007	1113.4932	1151.0772	1190.7005	1200.221	1230.5682	1260.916	1306.8926	1327.3827	1347.2942	1354.6426	1387.1554	1401.5959	1419.4691	1440.678	1480.1745	1503.2121	1511.0763	2972.3329	3003.4074	3009.3764	3025.3447	3051.6425	3068.5521	3074.2642	3120.5362	3787.3135	3819.3403
OCC1CC(O)CO1	OC[C@H]1C[C@@H](O)CO1	
InChI=1S/C5H10O3/c6-2-5-1-4(7)3-8-5/h4-7H,1-3H2	InChI=1S/C5H10O3/c6-2-5-1-4(7)3-8-5/h4-7H,1-3H2/t4-,5-/m1/s1
