23
gdb 94546	2.34106	1.45935	1.15285	1.3632	84.39	-0.2442	0.0757	0.3198	1193.6452	0.205686	-388.267119	-388.257834	-388.25689	-388.300715	36.738	
C	 0.7251581495	 0.1391108224	-1.3190782654	-0.463461
C	-0.0341161637	 0.054188067	-0.0026598908	 0.36411
C	 0.7955297845	-0.1680638131	 1.2369836402	-0.317606
C	 0.1663809218	 1.1836218837	 0.9918500527	-0.326383
C	-1.387809344	-0.6285932307	-0.1370970782	-0.10711
C	-2.2980151348	-0.744417448	 1.1245061917	-0.258518
C	-3.2182342168	 0.3767487344	 0.573122866	-0.250034
C	-2.5216215696	 0.2397436672	-0.8051235641	 0.150968
O	-2.1864471153	 1.4102001943	-1.51040569	-0.425467
H	 1.6842305102	 0.65136364	-1.1907532628	 0.105597
H	 0.9347271649	-0.8650360302	-1.7069886469	 0.112542
H	 0.1442185322	 0.6756219848	-2.0741385364	 0.13527
H	 0.3891427442	-0.777089651	 2.0369292779	 0.112765
H	 1.8694277516	-0.2608003513	 1.1133285531	 0.109356
H	 0.8154444394	 2.0058887233	 0.7078448335	 0.109656
H	-0.6546221364	 1.4755424626	 1.63856327	 0.112607
H	-1.2233581012	-1.5843011295	-0.6473398739	 0.066017
H	-2.7961742162	-1.715042923	 1.1797563243	 0.103314
H	-1.8330126904	-0.5543579327	 2.094525988	 0.100212
H	-4.2980279503	 0.2127114447	 0.6060489127	 0.09869
H	-3.0076757514	 1.3512372576	 1.0255661275	 0.095247
H	-3.1148585622	-0.3585437471	-1.5023201722	 0.087193
H	-1.634257106	 1.9480578846	-0.932191947	 0.285034
78.8387	119.1021	177.5681	235.6156	237.5346	308.2545	331.3028	354.5954	407.5468	422.8809	435.7627	553.3643	660.0584	701.0298	754.2259	793.3085	853.379	863.3413	893.758	936.9452	944.542	952.046	959.5878	1018.4116	1045.6245	1053.4012	1068.3333	1081.3854	1102.1142	1120.581	1135.6996	1190.552	1197.2871	1228.0342	1260.1472	1264.268	1270.6873	1286.1839	1318.1358	1348.6297	1376.4731	1414.1554	1438.8136	1467.0104	1477.6148	1490.5605	1495.0058	1507.8053	1516.1999	3024.8958	3031.4283	3049.3207	3065.4518	3070.3745	3087.862	3099.6988	3115.5565	3116.8429	3124.2754	3131.2044	3201.7141	3216.8855	3802.3247
CC1(CC1)C1CCC1O	CC1(CC1)[C@H]1CC[C@H]1O	
InChI=1S/C8H14O/c1-8(4-5-8)6-2-3-7(6)9/h6-7,9H,2-5H2,1H3	InChI=1S/C8H14O/c1-8(4-5-8)6-2-3-7(6)9/h6-7,9H,2-5H2,1H3/t6-,7+/m0/s1
