16
gdb 46746	2.78298	1.85714	1.44166	3.5061	67.11	-0.229	-0.0223	0.2068	912.9021	0.125671	-437.845457	-437.838643	-437.837699	-437.876816	26.863	
O	-0.0487432667	 0.0867911716	 0.4003288484	-0.3135
C	-0.0595706669	 1.251775431	 0.1053920449	 0.404055
C	-1.3096687718	 2.0790424597	-0.2217558208	-0.17734
O	-0.8862924936	 3.3422264653	-0.7199783132	-0.271106
C	 0.4915155255	 3.5356650202	-0.468940262	 0.119911
C	 0.9312816003	 4.1656592004	 0.8724004528	-0.077755
N	 0.3545797201	 3.3271900371	 1.9500158406	-0.341645
C	 1.5941406765	 2.8900570338	 1.2698966416	-0.045696
C	 1.134911221	 2.1928467423	-0.0296078205	-0.205768
H	-1.9209528997	 1.5752242308	-0.9798314692	 0.124774
H	-1.9001936957	 2.1866012692	 0.6967874766	 0.142004
H	 0.9461405989	 4.02914085	-1.3312172646	 0.092333
H	 1.2158106157	 5.1932792591	 1.0609643364	 0.09943
H	 0.6199781337	 3.75028878	 2.8379076146	 0.238572
H	 2.5091336577	 2.7098419773	 1.8177572082	 0.107236
H	 1.929244225	 1.7842374222	-0.6533145438	 0.104494
100.3648	168.1545	221.6909	351.4945	444.5114	535.5849	574.4633	630.1075	661.437	741.2778	779.7798	825.3914	845.3296	884.3209	914.9234	949.7341	970.1875	993.921	1005.4457	1036.2361	1091.6532	1097.552	1106.3061	1161.1577	1190.1003	1208.0133	1228.9242	1238.1873	1291.9136	1307.8361	1336.1725	1368.5216	1376.1107	1474.2794	1856.7511	3024.7782	3068.0422	3084.6281	3126.4655	3190.8152	3211.9491	3488.4793
O=C1COC2C3NC3C12	O=C1CO[C@H]2[C@H]3N[C@H]3[C@@H]12	
InChI=1S/C6H7NO2/c8-2-1-9-6-3(2)4-5(6)7-4/h3-7H,1H2	InChI=1S/C6H7NO2/c8-2-1-9-6-3(2)4-5(6)7-4/h3-7H,1H2/t3-,4+,5+,6-/m1/s1
