21
gdb 107174	2.90469	1.20724	1.13867	1.4114	82.42	-0.2009	0.0729	0.2738	1216.5697	0.181646	-387.013787	-387.004919	-387.003975	-387.047108	34.785	
C	-0.2443177592	 1.5021365909	 0.0517481701	-0.371278
C	 0.1126304801	 0.0090193607	 0.0758833138	-0.288272
C	 0.7211341417	-0.4669461456	-1.2140600201	 0.379106
C	-0.0830603818	-0.9439631274	-2.3960497785	-0.356441
C	 0.9110023778	-1.8766366637	-1.7385919114	-0.140198
C	 2.399916703	-1.5878894793	-2.0545968461	-0.132659
C	 2.7002937707	-0.4034002243	-2.9295862038	 0.088586
O	 2.0425960742	-0.0055952087	-4.1027337523	-0.416813
C	 2.2084465017	-0.1346048444	-1.5479682333	-0.156287
H	 0.6397177227	 2.1164497827	-0.1501204469	 0.118495
H	-0.9786316359	 1.7152351938	-0.7315512438	 0.120439
H	-0.6636829784	 1.8252845628	 1.0097606744	 0.107101
H	 0.8068753074	-0.1876371187	 0.9048468961	 0.092236
H	-0.78762097	-0.5828261513	 0.2836613449	 0.093798
H	-1.1140671721	-1.179177834	-2.1409286534	 0.099073
H	 0.0646114769	-0.5510997039	-3.390539665	 0.13466
H	 0.6030502862	-2.8047789206	-1.2730020549	 0.084281
H	 3.1800496556	-2.2893904349	-1.7818794252	 0.084295
H	 3.7806385812	-0.2385168449	-2.9833209555	 0.089746
H	 2.2159257571	-0.6765782509	-4.772238198	 0.284696
H	 2.8197860509	 0.4107869619	-0.8374877313	 0.085434
91.4506	99.899	196.8469	222.2769	262.6275	294.1871	317.0816	375.1192	426.7117	531.3311	603.9501	648.5704	701.1486	717.325	781.3169	802.8695	837.3549	903.7027	923.8429	941.9303	970.2926	984.1625	990.7661	1017.8357	1033.1626	1057.0135	1075.1801	1093.6911	1100.6758	1141.179	1213.1781	1223.3546	1257.0395	1281.1116	1296.1074	1318.7259	1349.4055	1355.9879	1399.834	1409.0839	1466.5098	1477.242	1490.5499	1496.462	1506.6503	3006.5988	3033.6306	3046.3765	3054.2956	3101.4351	3106.9251	3123.5289	3163.8612	3172.9674	3185.5621	3252.5712	3801.0981
CCC12CC1C1C(O)C21	CC[C@]12C[C@H]1[C@H]1[C@@H](O)[C@@H]21	
InChI=1S/C8H12O/c1-2-8-3-4(8)5-6(8)7(5)9/h4-7,9H,2-3H2,1H3	InChI=1S/C8H12O/c1-2-8-3-4(8)5-6(8)7(5)9/h4-7,9H,2-3H2,1H3/t4-,5+,6-,7+,8-/m0/s1
