16
gdb 69295	3.10649	1.37363	1.07255	2.062	77.19	-0.2402	-0.0279	0.2123	1120.6993	0.121858	-400.689047	-400.680415	-400.679471	-400.722305	31.964	
C	 0.1202691664	 1.5892868072	 0.0932298634	-0.497398
C	-0.0306859039	 0.105087701	-0.0425719255	 0.197668
C	-0.9317259436	-0.7415046856	 0.798810543	-0.277088
N	 0.5051190207	-0.9446413716	 0.952258517	-0.151006
C	 0.9021366183	-1.8511261265	-0.2008769519	-0.285304
C	 0.3097936923	-3.1662331046	-0.2550161718	 0.352025
C	-0.2002801715	-4.2534915154	-0.3181557172	-0.448246
C	 0.4529593513	-0.7221183591	-1.1910721524	 0.362908
O	 0.6700240806	-0.5026845139	-2.3444413023	-0.299783
H	 1.1094777339	 1.9165721956	-0.2397672597	 0.139674
H	-0.6288685261	 2.1030669921	-0.5179631904	 0.143152
H	-0.0171404415	 1.896614023	 1.1333239605	 0.138047
H	-1.3904337077	-0.2360633162	 1.643757059	 0.135821
H	-1.5344664758	-1.5302920295	 0.3570764549	 0.139578
H	 1.995614353	-1.9097412839	-0.2326162164	 0.142487
H	-0.6393903864	-5.2192272427	-0.3716950701	 0.207466
96.7352	121.6669	135.2327	173.7307	253.3681	299.5523	374.778	415.128	484.4667	556.6401	609.8648	626.0136	661.9637	674.4135	734.641	792.7741	840.8873	885.4032	968.1327	978.1284	1061.2867	1068.2991	1086.2949	1132.0543	1133.9392	1186.7462	1289.2972	1309.1964	1365.5287	1414.8661	1480.3492	1489.7878	1506.3857	1894.293	2231.4146	3042.3294	3060.0946	3110.0107	3115.352	3123.717	3204.2627	3500.4163
CC12CN1C(C#C)C2=O	C[C@]12CN1[C@@H](C#C)C2=O	
InChI=1S/C7H7NO/c1-3-5-6(9)7(2)4-8(5)7/h1,5H,4H2,2H3	InChI=1S/C7H7NO/c1-3-5-6(9)7(2)4-8(5)7/h1,5H,4H2,2H3/t5-,7+,8?/m0/s1
