22
gdb 123010	4.05697	0.64003	0.60282	3.1646	80.69	-0.2509	0.0745	0.3254	1921.8663	0.192924	-441.443925	-441.433431	-441.432487	-441.481146	37.148	
C	 0.2621561233	 1.4043772652	-0.3193385783	-0.395206
C	 0.1066267709	-0.0395577762	 0.0987293258	 0.001384
N	 1.3344262623	-0.8357531111	 0.2598045399	-0.334291
C	 0.4811525228	-0.584051724	 1.4331111245	-0.030519
C	 1.0722305334	 0.2400827286	 2.5445354365	-0.054362
O	 1.7614866229	-0.6340332705	 3.41886555	-0.263965
C	 2.3880990913	 0.0173385447	 4.5085903958	-0.068706
C	 3.2552792912	-1.0272318213	 5.1938352109	-0.054958
O	 4.2192096979	-1.5520174462	 4.3041061209	-0.42254
H	 1.1489466914	 1.8569622006	 0.1288247733	 0.128891
H	 0.3686370595	 1.4747300038	-1.4071172707	 0.122569
H	-0.6155421933	 1.9925062634	-0.0297014516	 0.116304
H	-0.7409814672	-0.5405714188	-0.3688306134	 0.082709
H	 1.2023746875	-1.7830771808	-0.0827398557	 0.231619
H	-0.1219905966	-1.4133674236	 1.800272265	 0.08823
H	 1.7605550908	 0.9953367929	 2.1403536766	 0.099262
H	 0.2727289173	 0.7681252283	 3.0920315399	 0.086052
H	 3.0171595808	 0.8460260455	 4.1462636707	 0.096153
H	 1.6403528276	 0.4314323638	 5.2053981104	 0.085167
H	 3.7938311521	-0.5721416854	 6.0317879115	 0.105406
H	 2.6059826075	-1.8199798638	 5.5998482466	 0.090166
H	 3.7378057964	-1.7503152651	 3.4914379714	 0.290635
28.7754	53.9806	100.7617	113.8937	166.9443	189.4918	214.8666	297.9132	342.8319	390.6402	454.7453	473.4018	489.1863	572.0151	772.1933	834.0236	877.624	888.9663	910.1026	965.5191	986.3545	1036.6322	1046.6451	1071.5594	1087.8671	1101.7882	1139.2005	1152.1855	1161.3944	1213.3198	1239.495	1253.6011	1260.9618	1278.1001	1287.555	1361.8429	1383.0706	1399.5226	1417.3879	1438.2036	1447.0283	1477.2818	1491.2405	1495.3185	1501.7437	1507.9758	1521.6509	2957.1743	2966.8979	2974.0095	3007.4785	3022.5458	3037.3793	3076.2011	3095.9688	3099.6995	3119.5594	3134.0554	3510.1261	3785.9333
CC1NC1COCCO	C[C@H]1N[C@H]1COCCO	
InChI=1S/C6H13NO2/c1-5-6(7-5)4-9-3-2-8/h5-8H,2-4H2,1H3	InChI=1S/C6H13NO2/c1-5-6(7-5)4-9-3-2-8/h5-8H,2-4H2,1H3/t5-,6+/m1/s1
