14
gdb 130482	3.92982	1.6815	1.17762	2.367	82.02	-0.2035	-0.0724	0.1311	958.9917	0.103575	-399.548562	-399.542483	-399.541539	-399.578812	24.886	
O	-0.0482513054	 1.2608976166	 0.0091775498	-0.220135
C	 1.0858976122	 1.9970584329	 0.0023055232	 0.081896
C	 2.3378615143	 1.4796540636	-0.0122898319	-0.293279
C	 2.4496835822	 0.072444438	-0.0207709459	 0.28386
C	 3.4388525774	-0.8691698756	-0.0351888061	-0.296906
C	 2.8086247538	-2.1755374623	-0.0359637261	-0.068205
C	 1.4433186751	-2.0700504586	-0.0223375088	-0.230781
C	 1.1535156618	-0.6604358661	-0.0123602519	 0.328322
N	-0.0246294047	-0.1185620901	 0.0016860937	-0.174896
H	 0.8405943584	 3.0508244616	 0.0101661792	 0.145806
H	 3.1927196668	 2.1451831081	-0.0169156118	 0.121523
H	 4.5045436417	-0.6899450757	-0.0444186264	 0.10108
H	 3.3589428576	-3.1084029403	-0.0460609671	 0.108624
H	 0.7100445287	-2.8607085424	-0.0194100598	 0.113091
202.6306	236.0309	403.1817	417.5992	531.2627	554.4546	590.0696	594.0204	726.7321	746.1909	784.8399	800.5154	831.2076	838.9348	890.8441	929.4452	932.009	946.6817	1023.4238	1029.3435	1095.3297	1220.5695	1238.2053	1257.9001	1338.8991	1388.9536	1414.0368	1494.2106	1588.1084	1619.9093	1651.8125	3202.5292	3211.6179	3233.0836	3234.8384	3264.8966
O1C=CC2=CC=CC2=N1	o1ccc2cccc2n1	
InChI=1S/C7H5NO/c1-2-6-4-5-9-8-7(6)3-1/h1-5H	InChI=1S/C7H5NO/c1-2-6-4-5-9-8-7(6)3-1/h1-5H
