22
gdb 60432	3.04663	0.85304	0.74442	6.416	79.48	-0.2401	0.037	0.2771	1590.4019	0.193818	-441.528017	-441.517805	-441.516861	-441.563764	37.644	
C	 0.0386914166	 1.1905948779	 0.7761727116	-0.40238
C	-0.1542742296	-0.1199793746	 0.0076650434	 0.042983
N	 0.4607485281	-1.2853752377	 0.6815322926	-0.511767
H	 0.2864835971	-1.2317476689	 1.6832968197	 0.244628
H	-0.6188105563	-2.8201827886	 0.5244293084	 0.317779
H	 1.4695842636	-1.2821479335	 0.5682926281	 0.241859
C	-1.6340862802	-0.4478998134	-0.2419276943	-0.175504
C	-1.8240637593	-1.6102768437	-1.2457392679	-0.233478
C	-2.8096299562	-2.6951517969	-0.8021422929	-0.32163
C	-2.438045567	-3.59360034	 0.3856006653	 0.387293
O	-1.1886789533	-3.5456732155	 0.8727142376	-0.390402
O	-3.2436143044	-4.3590066673	 0.8496176927	-0.332142
H	 1.100469421	 1.391628199	 0.9526862661	 0.112886
H	-0.3786611291	 2.0392042206	 0.2244886113	 0.123147
H	-0.463074701	 1.1475514746	 1.7505569691	 0.11984
H	 0.3427608548	-0.0316804588	-0.9670634607	 0.090307
H	-2.0957405637	-0.6946731213	 0.7239381025	 0.104486
H	-2.1495296173	 0.4497441717	-0.5988546651	 0.102038
H	-2.1692641874	-1.2082084486	-2.2041249525	 0.102598
H	-0.8531117293	-2.0739378539	-1.4557977502	 0.110973
H	-3.7858232538	-2.2625715265	-0.5586591219	 0.132378
H	-2.9968630733	-3.3860381647	-1.6330092631	 0.13411
47.3523	75.338	123.0791	155.52	198.1469	246.6127	289.6115	303.5574	325.7271	384.5183	440.4975	463.8264	541.1982	573.1394	602.6839	770.5795	831.6716	846.3113	884.6859	898.2308	932.059	964.8839	971.1173	1017.1554	1045.6873	1083.4739	1108.3407	1158.6363	1178.4355	1217.719	1256.8606	1282.85	1310.2297	1319.9512	1345.8878	1368.549	1373.3548	1395.4334	1408.558	1416.1563	1457.4714	1488.8125	1494.1666	1497.0609	1501.2465	1653.3395	1839.8889	3016.0218	3023.471	3030.1568	3036.1796	3044.2522	3061.5271	3079.7142	3086.0102	3094.144	3103.9821	3368.8063	3478.8074	3563.637
CC([NH3+])CCCC([O-])=O	C[C@@H](N)CCCC(=O)O	
InChI=1S/C6H13NO2/c1-5(7)3-2-4-6(8)9/h5H,2-4,7H2,1H3,(H,8,9)	InChI=1S/C6H13NO2/c1-5(7)3-2-4-6(8)9/h5H,2-4,7H2,1H3,(H,8,9)/t5-/m1/s1
