17
gdb 32614	4.54631	1.02598	0.90432	8.0261	79.08	-0.227	-0.0252	0.2018	1291.1199	0.137719	-418.066045	-418.05792	-418.056975	-418.099551	29.858	
C	 0.0051173582	 1.5734949186	 0.0916421612	-0.374783
C	 0.0030650958	 0.0505639409	-0.0502056661	-0.176599
N	-1.3409819269	-0.528420604	-0.0096282212	-0.055228
C	-2.0099251318	-0.6936054604	 1.1841498591	 0.027512
C	-3.270639696	-1.1657082489	 1.2039491538	-0.256758
C	-3.9650711895	-1.503429469	-0.0446308356	 0.379041
O	-5.1065318826	-1.9171503269	-0.0813954565	-0.364005
N	-3.2115025499	-1.3201703122	-1.232116274	-0.329677
C	-2.0133627478	-0.8650848032	-1.1561428691	 0.100616
H	 1.0313771882	 1.9512909134	 0.0623662673	 0.132728
H	-0.5587877667	 2.0418617712	-0.7201224578	 0.14
H	-0.4440567558	 1.882064242	 1.0402518139	 0.13522
H	 0.4569459979	-0.2464118121	-0.9997125033	 0.133232
H	 0.5961559221	-0.4125955669	 0.7452491571	 0.130866
H	-1.4523014258	-0.4276278895	 2.0753403031	 0.132372
H	-3.7972556879	-1.3069924424	 2.1390571804	 0.119984
H	-1.4333686015	-0.7224185007	-2.0686456723	 0.125477
57.7664	73.1762	155.1742	219.5418	347.8459	369.9922	426.3778	467.6847	494.6499	534.1935	659.9445	745.965	767.4827	793.7994	825.3448	855.9605	964.5871	970.4995	979.0256	1016.9599	1076.5259	1101.0278	1165.0297	1203.7481	1236.7607	1292.6747	1389.3217	1404.2945	1413.4119	1438.0255	1464.6928	1489.9346	1491.3895	1507.878	1594.8411	1701.2064	1777.8918	3044.1912	3052.3319	3095.2337	3120.7633	3123.2035	3127.0389	3191.1202	3223.2988
CCN1C=CC(=O)N=C1	CCn1ccc(=O)nc1	
InChI=1S/C6H8N2O/c1-2-8-4-3-6(9)7-5-8/h3-5H,2H2,1H3	InChI=1S/C6H8N2O/c1-2-8-4-3-6(9)7-5-8/h3-5H,2H2,1H3
