15
gdb 25912	4.42983	1.08102	0.87371	2.8395	70.3	-0.2174	-0.0445	0.1729	1247.482	0.112872	-454.012023	-454.00389	-454.002945	-454.045017	29.854	
C	-0.0568633875	 1.5233448182	 0.0332892463	-0.505813
C	 0.0754732074	 0.0157030807	 0.0228535451	 0.425781
O	 1.1311549949	-0.5660920527	 0.0378136338	-0.308993
N	-1.1337522431	-0.711113874	-0.0062358834	-0.076772
C	-2.4255387439	-0.2348031529	-0.0266000623	 0.027307
N	-3.3035837928	-1.2017088061	-0.0515138346	-0.352469
C	-2.5609088151	-2.3643328899	-0.0474271324	 0.348893
O	-3.1654570102	-3.5659537578	-0.0691716841	-0.426107
C	-1.2227778341	-2.1075061802	-0.0198873142	-0.213917
H	 0.9460286172	 1.9474099016	 0.0563275617	 0.160227
H	-0.5812108637	 1.8787792959	-0.8587802225	 0.155286
H	-0.615483313	 1.8636190931	 0.910331543	 0.155267
H	-2.6551002066	 0.8184710672	-0.0219337937	 0.144242
H	-4.1152308465	-3.3951075187	-0.0857092381	 0.305282
H	-0.344722863	-2.7246065945	-0.0085524046	 0.161787
89.1053	130.4878	137.6596	192.2284	339.7264	356.2367	387.172	437.2724	532.6832	576.9168	621.1929	643.9373	698.3027	738.2941	744.0789	819.2301	959.4333	999.3737	1019.4077	1054.9446	1090.5701	1175.983	1256.5189	1280.5731	1328.4486	1387.5086	1388.6663	1436.9869	1472.5309	1480.4193	1532.6251	1683.2661	1818.383	3051.9808	3117.9812	3169.308	3271.0626	3323.4419	3801.0599
CC(=O)N1C=NC(O)=C1	CC(=O)n1cnc(O)c1	
InChI=1S/C5H6N2O2/c1-4(8)7-2-5(9)6-3-7/h2-3,9H,1H3	InChI=1S/C5H6N2O2/c1-4(8)7-2-5(9)6-3-7/h2-3,9H,1H3
