14
gdb 29061	2.81467	1.73621	1.07383	1.8547	78.58	-0.2416	-0.0709	0.1707	1028.678	0.103685	-432.917798	-432.910553	-432.909609	-432.950055	27.272	
N	 0.0054763611	 1.3117360427	 0.0081494243	-0.471658
C	-0.028232621	-0.019117348	 0.0008821892	 0.304993
N	-1.2037980978	-0.6083195045	 0.0046172434	-0.351342
C	-1.4552610832	-1.9287352528	-0.001176229	 0.093416
N	-0.7172904388	-3.0131996279	-0.0109303411	-0.285389
C	 0.6344180541	-3.0170438619	-0.0186515967	 0.026462
C	 1.5680271083	-2.0143797677	-0.0192680928	-0.178599
C	 1.3787919845	-0.5946843855	-0.0109828096	 0.325193
O	 2.3078763991	 0.2112917232	-0.0126395861	-0.388496
H	 0.921327992	 1.7414356043	 0.0046961151	 0.290819
H	-0.8520272598	 1.837884676	 0.0161694988	 0.276747
H	-2.5270964928	-2.133333656	 0.0036961231	 0.121829
H	 1.0442573608	-4.027466124	-0.0259179758	 0.120025
H	 2.6133541536	-2.3090204979	-0.0269175126	 0.115999
46.1038	167.1183	307.2558	347.6348	398.5708	404.0143	428.5666	499.5092	525.4529	629.8199	678.6549	732.5121	779.2798	807.9114	885.9815	892.6888	983.2064	1001.4185	1028.4981	1041.5356	1216.7947	1287.079	1356.0495	1414.8396	1464.0688	1473.3189	1492.0335	1565.3621	1605.0468	1647.1504	1711.7628	3119.7464	3125.1778	3180.7819	3549.7089	3717.9663
NC1=NC=NC=CC1=O	Nc1ncnccc1=O	
InChI=1S/C5H5N3O/c6-5-4(9)1-2-7-3-8-5/h1-3H,(H2,6,7,8,9)	InChI=1S/C5H5N3O/c6-5-4(9)1-2-7-3-8-5/h1-3H,(H2,6,7,8,9)
