17
gdb 117529	2.26801	1.04335	0.74858	0.9126	69.92	-0.2683	0.0093	0.2776	1458.476	0.134515	-455.186649	-455.176451	-455.175507	-455.223042	35.235	
N	 0.277695793	 0.9530748976	 0.7655538427	-0.540809
C	 0.1240419463	-0.1089815699	-0.0595695006	 0.436087
O	 0.9625458687	-0.4829598062	-0.8514902799	-0.355555
C	-1.2364038178	-0.8592716637	 0.0231915275	-0.292595
C	-0.9934418883	-2.3786616696	 0.1531036332	-0.173918
C	-2.2588001034	-3.2037650646	-0.0474986018	-0.09003
O	-1.886667593	-4.5653017574	 0.0662265026	-0.416387
C	-2.1175581087	-0.3459002291	 1.0709391896	 0.295711
N	-2.7816886399	 0.0869486416	 1.9135741297	-0.340738
H	 1.1502326053	 1.4545083972	 0.731673909	 0.270988
H	-0.421485547	 1.2230647492	 1.4368518956	 0.285782
H	-1.7230790869	-0.6657988929	-0.9420471257	 0.156562
H	-0.2496113477	-2.6477107547	-0.599783298	 0.151509
H	-0.5677092599	-2.6046985421	 1.1359219568	 0.12608
H	-3.0138860802	-2.9283888707	 0.7052904442	 0.107006
H	-2.6891361573	-2.9842495224	-1.0394303193	 0.089181
H	-2.6817875033	-5.1028718824	 0.0084265143	 0.291127
33.9	84.6554	93.4666	142.4926	161.2192	235.4882	247.534	301.3058	308.5084	373.2946	426.9379	512.5368	527.6603	603.574	615.2902	728.7675	794.2157	868.7521	918.5161	1028.6058	1063.2862	1092.4114	1108.3488	1115.7729	1213.3872	1230.9993	1272.4703	1306.9133	1331.4442	1340.6997	1353.1589	1468.2154	1495.4742	1528.9932	1620.6077	1810.2632	2344.9399	2957.5557	2996.5943	3033.5471	3065.9138	3128.4748	3596.4191	3728.6213	3834.1757
NC(=O)C(CCO)C#N	NC(=O)[C@@H](CCO)C#N	
InChI=1S/C5H8N2O2/c6-3-4(1-2-8)5(7)9/h4,8H,1-2H2,(H2,7,9)	InChI=1S/C5H8N2O2/c6-3-4(1-2-8)5(7)9/h4,8H,1-2H2,(H2,7,9)/t4-/m0/s1
