19
gdb 39724	3.23476	1.66328	1.62341	1.4293	77.39	-0.2281	0.0954	0.3235	931.0707	0.162212	-385.870585	-385.864067	-385.863123	-385.901139	27.987	
C	 0.0024154071	 1.5135435099	 0.0070019234	-0.340438
C	 1.3086009932	 0.7415310965	 0.0014757524	-0.346983
C	 0.0001822232	 0.0143654419	 0.0191207923	 0.46076
C	-0.4868019202	-0.8658645823	 1.1422147894	-0.215367
C	-1.7783559579	-1.5258624446	 0.6388929818	-0.124058
C	-2.0181352071	-0.9969102203	-0.7719356499	-0.226575
C	-0.5183618391	-0.855475686	-1.1266102204	-0.04878
O	 0.010075849	-2.1544733209	-0.7982923486	-0.2603
C	-0.4575258623	-2.252393897	 0.5354162595	 0.094691
H	-0.2811427351	 2.0368237014	 0.9142408235	 0.112425
H	-0.2895851204	 2.0241026759	-0.9060213297	 0.109681
H	 1.8908836322	 0.7303452184	-0.9142207895	 0.113999
H	 1.9070869464	 0.7442764754	 0.9067410838	 0.11229
H	-0.2889079144	-0.667995721	 2.1869828882	 0.086468
H	-2.5711076048	-1.8405327031	 1.3035703379	 0.087694
H	-2.528458781	-1.7183925053	-1.4159801821	 0.102156
H	-2.543352327	-0.0388445276	-0.7989229119	 0.103878
H	-0.245046474	-0.5855745756	-2.1446265805	 0.077092
H	-0.1888275879	-3.1663080957	 1.0451184806	 0.101366
159.0638	239.5821	270.0642	420.2616	477.86	578.5483	590.5742	701.321	737.0195	776.0364	794.6766	813.462	854.1224	895.8192	909.9951	948.3139	952.7691	963.7064	975.0536	980.118	992.9276	1010.0899	1037.5449	1051.9711	1055.1584	1070.4184	1078.5142	1082.7078	1156.9275	1183.0903	1209.3348	1230.5845	1247.2193	1269.8801	1290.6441	1319.6945	1375.4704	1417.2398	1465.1388	1482.4477	1510.2906	3062.1293	3115.14	3120.5039	3126.4921	3147.8549	3198.4459	3204.139	3210.4976	3213.6726	3228.0878
C1CC11C2C3CC1OC23	C1CC21[C@H]1[C@H]3C[C@@H]2O[C@@H]13	
InChI=1S/C8H10O/c1-2-8(1)5-3-4-6(8)7(4)9-5/h4-7H,1-3H2	InChI=1S/C8H10O/c1-2-8(1)5-3-4-6(8)7(4)9-5/h4-7H,1-3H2/t4-,5+,6+,7-/m1/s1
