16
gdb 9212	7.04273	0.8839	0.79311	4.0153	64.2	-0.2465	0.0147	0.2612	1378.5753	0.129698	-417.1183	-417.108989	-417.108045	-417.154494	30.596	
C	 0.0302791707	 1.449563479	-0.009467801	-0.336479
N	-0.0790562512	 0.0050408591	-0.1003475336	-0.314544
C	-1.251037253	-0.6574485751	 0.0627726701	 0.413109
O	-2.3162208328	-0.1093809727	 0.2990306543	-0.37986
C	-1.1441215353	-2.1787837397	-0.0731783698	-0.249445
N	-2.4531493809	-2.7450130793	 0.1222543095	-0.274935
C	-2.6799743505	-4.0765350597	 0.0600681835	 0.15232
O	-1.8238386942	-4.9103639885	-0.1609259446	-0.334255
H	 0.7097048379	 1.7453623956	 0.7969416576	 0.132761
H	 0.3913516085	 1.8794336039	-0.949817109	 0.132767
H	-0.9652876236	 1.8400353419	 0.2019236777	 0.175323
H	 0.751690783	-0.5311275676	-0.2927675942	 0.255127
H	-0.7440590118	-2.44004325	-1.0619851685	 0.142155
H	-0.4295016399	-2.5719244586	 0.6622270938	 0.142109
H	-3.1878776246	-2.0751231868	 0.3076013252	 0.266016
H	-3.7445975422	-4.3272881115	 0.234813399	 0.077832
19.6219	60.4368	77.1763	130.3891	142.516	243.262	307.4435	323.6677	432.6002	460.808	596.0366	612.0321	668.4913	818.0873	921.5472	1012.1433	1028.9618	1036.4007	1101.4161	1154.9663	1173.2831	1224.8399	1236.7753	1253.428	1362.2997	1422.3168	1442.5023	1494.5878	1498.5328	1499.3334	1516.9442	1575.7545	1775.1566	1799.5983	2943.528	3016.4246	3033.6471	3040.1252	3087.8332	3159.6852	3588.4246	3637.98
CNC(=O)CNC=O	CNC(=O)CNC=O	
InChI=1S/C4H8N2O2/c1-5-4(8)2-6-3-7/h3H,2H2,1H3,(H,5,8)(H,6,7)	InChI=1S/C4H8N2O2/c1-5-4(8)2-6-3-7/h3H,2H2,1H3,(H,5,8)(H,6,7)
