15
gdb 29931	2.15033	1.86742	1.00577	2.8155	79.13	-0.1964	-0.0024	0.1941	1114.3729	0.112481	-416.81976	-416.811159	-416.810215	-416.853048	31.444	
C	-0.0788601262	 1.4233409116	 0.0574210991	-0.340734
N	-0.0116208751	-0.0229273113	 0.0455449045	-0.068807
C	-0.0021148633	-0.8331196663	-1.0331622205	-0.004325
N	 0.0667866542	-2.1148657032	-0.7068476118	-0.354162
C	 0.1033993105	-2.1277987901	 0.6480974885	 0.242972
O	 0.1758107977	-3.2714019006	 1.3496167547	-0.423441
C	 0.0571198853	-0.8461773821	 1.1768657239	 0.062484
C	 0.0690693458	-0.3595207234	 2.4903592498	 0.278196
C	 0.0782972578	 0.0771160782	 3.6151286759	-0.468513
H	 0.8028022724	 1.8462485131	 0.5470456986	 0.154359
H	-0.1221895177	 1.780559593	-0.972914935	 0.142445
H	-0.9696130691	 1.7635580389	 0.5929036788	 0.15433
H	-0.0471142566	-0.4451115165	-2.0399598698	 0.134173
H	 0.1920667063	-3.9871660823	 0.7018448204	 0.303049
H	 0.0872871179	 0.4433069309	 4.6113495628	 0.187975
84.746	129.273	140.9452	183.9819	285.9716	340.4321	395.7424	405.6833	426.4036	501.1891	558.2293	581.8465	639.5365	685.9847	690.0423	743.6258	803.759	807.0974	1060.572	1087.0619	1155.4484	1156.3267	1260.178	1308.7775	1357.9587	1400.7958	1455.0881	1469.4625	1476.3218	1518.8311	1543.2289	1647.0534	2219.6392	3048.0169	3112.6141	3143.1209	3248.9749	3501.7275	3797.7807
CN1C=NC(O)=C1C#C	Cn1cnc(O)c1C#C	
InChI=1S/C6H6N2O/c1-3-5-6(9)7-4-8(5)2/h1,4,9H,2H3	InChI=1S/C6H6N2O/c1-3-5-6(9)7-4-8(5)2/h1,4,9H,2H3
