17
gdb 109338	2.51775	1.26519	0.95324	3.9327	71.76	-0.229	-0.0282	0.2008	1230.0294	0.133822	-458.956993	-458.947913	-458.946969	-458.991775	31.644	
O	-0.035577571	 1.441762258	 0.0383022633	-0.410144
C	 0.0168525873	 0.0305802189	 0.1069233284	-0.185236
C	-1.3713971482	-0.5134181208	 0.0184018668	 0.278833
C	-2.5100840474	 0.1510616052	-0.1497842871	-0.18669
C	-3.6687287901	-0.8018728228	-0.1580410848	-0.119539
O	-3.0985624914	-2.077619693	 0.1440786905	-0.25335
C	-1.6936429679	-1.9979057675	 0.111009471	-0.065422
C	-1.1052718934	-2.7550301201	-1.0840127718	 0.149214
O	-1.7426647417	-3.1711139531	-2.0109367566	-0.230581
H	 0.8645756901	 1.7780091848	 0.068357488	 0.294277
H	 0.6343280012	-0.3878524418	-0.707308745	 0.104764
H	 0.4798611835	-0.3127930698	 1.0495921204	 0.10232
H	-2.6027102134	 1.2219115798	-0.2633330167	 0.126876
H	-4.426430166	-0.5631565825	 0.6015209922	 0.112361
H	-4.1773307775	-0.8349066427	-1.1336300004	 0.119827
H	-1.2696091158	-2.4578464229	 1.0220694085	 0.096913
H	 0.0034531118	-2.8847022894	-1.0275342467	 0.065578
62.6985	79.5341	102.2242	185.2001	212.7259	242.1322	256.3219	292.695	401.701	499.2964	648.3194	730.6042	783.8079	796.2579	822.9138	935.895	946.7874	1008.7961	1018.4994	1045.2506	1060.0228	1078.6928	1144.0088	1182.2378	1198.0867	1217.2517	1251.3298	1268.1414	1298.4836	1342.038	1378.2385	1416.3288	1471.3627	1508.4599	1517.7387	1732.633	1849.774	2827.0694	2938.3296	2946.6556	2955.0089	2988.7229	3017.763	3242.4704	3838.6694
OCC1=CCOC1C=O	OCC1=CCO[C@H]1C=O	
InChI=1S/C6H8O3/c7-3-5-1-2-9-6(5)4-8/h1,4,6-7H,2-3H2	InChI=1S/C6H8O3/c7-3-5-1-2-9-6(5)4-8/h1,4,6-7H,2-3H2/t6-/m0/s1
