15
gdb 44430	3.71203	1.47529	1.44963	3.5005	65.42	-0.2614	-0.0085	0.2529	918.3705	0.113539	-457.671485	-457.665078	-457.664134	-457.7022	25.812	
O	-0.2137675642	 0.0871126021	-0.4760476811	-0.301594
C	-0.1074886047	 1.1894876132	-0.0658080942	 0.369514
O	-1.1516178758	 2.0649819243	 0.3254584731	-0.280837
C	-0.1365935529	 2.862624226	 1.0661986585	 0.119771
C	 0.7380611336	 4.1768170775	 0.9630279996	 0.025848
C	 1.9444009131	 3.1162858391	 1.1287249035	-0.341522
C	 0.9488241161	 2.2952105419	 0.2144956769	 0.009176
C	 0.9205780879	 3.2501118873	-1.02034022	-0.092625
O	 0.7949673453	 4.5400559716	-0.3887302291	-0.244843
H	-0.141022602	 2.5029010763	 2.0963529819	 0.112449
H	 0.6120851248	 5.046841035	 1.6053853449	 0.106447
H	 2.8900584005	 3.4421404338	 0.6924651502	 0.130615
H	 2.0784128871	 2.716903421	 2.1319761023	 0.132409
H	 1.8566706811	 3.1900060628	-1.5849717594	 0.119822
H	 0.0751118299	 3.085605648	-1.6930150571	 0.13537
141.9291	230.8785	313.6592	367.7383	457.5208	497.7794	612.3467	676.664	715.151	722.3306	780.3216	807.6443	827.7576	901.5375	945.6654	954.7747	975.2936	1019.0069	1032.7702	1044.0502	1084.6441	1122.8274	1150.5601	1166.824	1180.7534	1204.4054	1244.958	1293.8112	1372.473	1396.7687	1477.6518	1515.6179	1944.5101	3048.8334	3087.6751	3094.5137	3104.981	3146.781	3174.4455
O=C1OC2C3CC12CO3	O=C1O[C@@H]2[C@H]3C[C@@]12CO3	
InChI=1S/C6H6O3/c7-5-6-1-3(8-2-6)4(6)9-5/h3-4H,1-2H2	InChI=1S/C6H6O3/c7-5-6-1-3(8-2-6)4(6)9-5/h3-4H,1-2H2/t3-,4-,6+/m1/s1
