20
gdb 70619	2.37135	1.86746	1.30057	1.2732	78.21	-0.2323	0.0756	0.3079	1039.9068	0.171824	-403.123555	-403.115454	-403.11451	-403.155771	32.286	
C	-0.4575812174	 1.3466666689	 0.0904577553	-0.509611
C	-0.011357486	-0.0885991254	 0.025757509	 0.248973
N	-0.3369147873	-1.0385989145	 1.1223820658	-0.383772
C	 1.0746828071	-0.6768610164	 0.8562191803	-0.075575
C	 1.8148729174	-1.7421206765	 0.0663639442	-0.219576
C	 0.8517980137	-2.0802572346	-1.100025828	-0.30686
C	 0.0232797097	-0.8140065901	-1.3002285964	 0.431594
C	-0.9566003931	-0.6371019706	-2.3722704349	-0.258435
O	 0.3239167035	 0.0050761278	-2.4427054744	-0.283016
H	 0.0386580597	 1.935395604	-0.6852890495	 0.146476
H	-1.5398196649	 1.4343581559	-0.0622111221	 0.121733
H	-0.2225219923	 1.7844663697	 1.0657857379	 0.112632
H	-0.6704667735	-0.5000508903	 1.9193350151	 0.226536
H	 1.6047982406	-0.074828412	 1.5880081773	 0.083584
H	 2.7536943296	-1.3214046334	-0.3111561798	 0.10647
H	 2.0605718113	-2.6207688787	 0.67021151	 0.103806
H	 1.369813703	-2.3533367298	-2.0216434065	 0.109455
H	 0.192135008	-2.9036406417	-0.8163319956	 0.124347
H	-1.1152520426	-1.4394361594	-3.092288061	 0.112124
H	-1.8067025364	 0.0301173371	-2.2355720369	 0.109116
102.2552	187.6275	226.8482	257.1296	261.183	355.2816	391.6653	443.2101	450.6365	569.3773	615.6568	668.7819	770.0983	820.8552	829.6112	866.3287	894.5184	918.6784	959.9743	968.3147	988.7044	1037.684	1053.8023	1092.5878	1107.4596	1123.9689	1130.3025	1163.7079	1195.4994	1196.1441	1236.5153	1297.4837	1313.799	1340.1246	1361.2022	1408.7401	1433.4118	1441.2199	1468.3538	1480.8829	1490.7728	1508.0873	1534.6187	3030.2379	3043.6347	3072.3826	3078.8291	3088.4775	3090.6672	3122.2984	3124.5555	3157.3098	3161.8749	3488.7225
CC12NC1CCC21CO1	C[C@]12N[C@H]1CC[C@]12CO1	
InChI=1S/C7H11NO/c1-6-5(8-6)2-3-7(6)4-9-7/h5,8H,2-4H2,1H3	InChI=1S/C7H11NO/c1-6-5(8-6)2-3-7(6)4-9-7/h5,8H,2-4H2,1H3/t5-,6-,7+/m0/s1
