19
gdb 66202	2.25028	1.49441	1.38588	4.3648	79.82	-0.2528	0.0138	0.2667	1071.8681	0.161198	-382.096042	-382.087545	-382.0866	-382.128721	33.015	
N	-0.059782797	 1.4804882738	 0.0587765925	-0.536321
C	 0.0165402625	 0.01348718	 0.0088199625	 0.073492
C	-1.4181339518	-0.559397905	 0.0485776932	-0.210517
C	-1.4343818712	-2.0916506733	 0.1039285026	-0.275147
C	-0.4509730067	-2.7073797108	-0.8551501445	-0.035244
C	 0.5177131708	-2.0199242952	-1.4573538576	-0.053883
C	 0.7503608057	-0.5463835146	-1.2412415894	-0.277498
C	 0.7442137173	-0.4178040687	 1.2212170642	 0.31458
N	 1.3233926127	-0.7612606705	 2.1601834209	-0.348998
H	 0.8728774438	 1.8805421098	-0.0031332604	 0.237304
H	-0.5725821043	 1.8075502628	-0.7560585639	 0.230888
H	-1.9523451823	-0.1230921986	 0.8960673179	 0.12608
H	-1.9194821113	-0.2181483337	-0.8662115779	 0.101365
H	-1.2116735204	-2.4337759791	 1.1241508541	 0.136805
H	-2.446656103	-2.4532968535	-0.113526174	 0.109348
H	-0.5479011787	-3.7740045339	-1.0404217702	 0.093137
H	 1.1959347272	-2.5219996998	-2.1422513739	 0.092023
H	 0.3976726928	 0.0270893594	-2.110873009	 0.105428
H	 1.8237587438	-0.336875579	-1.158752207	 0.11716
109.7114	139.6058	204.8329	231.076	261.3495	339.7443	379.4082	396.9377	428.7398	488.878	598.9981	607.8496	661.9751	685.361	768.8458	856.0122	872.091	896.5131	948.3597	956.9702	995.5135	1005.4256	1054.5856	1064.7537	1099.8293	1145.2264	1190.5281	1200.9423	1241.3157	1271.3031	1329.7881	1354.3236	1373.8039	1387.9874	1413.7261	1469.7791	1476.2335	1491.6236	1651.0227	1727.2229	2357.3117	3001.5662	3016.9609	3028.3644	3051.4052	3052.9562	3103.7029	3150.8921	3173.5332	3479.5546	3563.4844
NC1(CCC=CC1)C#N	N[C@]1(CCC=CC1)C#N	
InChI=1S/C7H10N2/c8-6-7(9)4-2-1-3-5-7/h1-2H,3-5,9H2	InChI=1S/C7H10N2/c8-6-7(9)4-2-1-3-5-7/h1-2H,3-5,9H2/t7-/m1/s1
