19
gdb 35245	3.01862	1.04778	0.86928	1.7629	81.68	-0.2433	0.0432	0.2865	1351.4412	0.158343	-385.817538	-385.808597	-385.807653	-385.852472	32.81	
C	-0.2368467599	-1.2252942248	 0.1971709285	-0.47026
C	-0.139461907	-0.0280241197	 0.1239287355	 0.332268
C	-0.0329249481	 1.3981206046	 0.0246415121	-0.197654
C	 0.5232233057	 2.2105976146	 1.1852212889	-0.308248
C	 1.3305555625	 2.081321293	-0.0753507251	-0.018453
C	 2.5993752301	 1.2782786105	-0.1036623149	-0.037274
C	 3.2118461242	 0.9357965679	-1.4830788439	-0.085245
O	 4.4639907594	 1.560572107	-1.1341760505	-0.272236
C	 3.9334186085	 2.0324811963	 0.1195798032	-0.089173
H	-0.3275104569	-2.280895232	 0.265085745	 0.197194
H	-0.8309488504	 1.8700009098	-0.5410736275	 0.115532
H	 0.0434833237	 3.1568753776	 1.4079339608	 0.121211
H	 0.8516379424	 1.6524500787	 2.0548628995	 0.128582
H	 1.3404416731	 2.9546842814	-0.7237076386	 0.094402
H	 2.5009725172	 0.3976875155	 0.5341457968	 0.091819
H	 3.3306084656	-0.1286129845	-1.7145143741	 0.106607
H	 2.7275940143	 1.4330001343	-2.3351759413	 0.095053
H	 3.8417797375	 3.1275689768	 0.1421293114	 0.094339
H	 4.5420754081	 1.7110827631	 0.973079284	 0.101537
43.9676	56.4167	108.7855	166.2852	228.4602	297.432	347.219	414.3407	527.5448	580.4946	608.0593	652.4851	729.3936	775.825	832.7787	863.5156	894.1457	917.0488	968.899	985.5315	1009.3707	1038.8447	1050.3607	1073.4958	1096.9351	1125.1587	1140.1694	1158.4778	1160.5421	1202.329	1248.8921	1257.1446	1306.9913	1308.5611	1376.4336	1380.5255	1442.3193	1487.5308	1512.9503	1538.2998	2234.1887	2995.6924	3007.169	3049.197	3057.8734	3092.84	3131.8015	3138.9648	3149.4292	3228.936	3504.5429
C#CC1CC1C1COC1	C#C[C@H]1C[C@H]1C1COC1	
InChI=1S/C8H10O/c1-2-6-3-8(6)7-4-9-5-7/h1,6-8H,3-5H2	InChI=1S/C8H10O/c1-2-6-3-8(6)7-4-9-5-7/h1,6-8H,3-5H2/t6-,8+/m0/s1
