14
gdb 46480	3.08969	1.51691	1.099	5.6796	63.56	-0.2413	-0.08	0.1613	1034.1177	0.101103	-473.841813	-473.834203	-473.833259	-473.874472	27.819	
O	 0.0044269829	-0.0393155246	-0.0025166324	-0.348847
C	-0.0002427057	 1.1676843289	 0.0018615651	 0.34626
N	-1.0880588251	 1.9976167456	-0.0044882967	-0.348383
C	-0.837080677	 3.4337007588	 0.0338729511	-0.265886
C	 0.6834191959	 3.5172469548	-0.0466766318	 0.323455
C	 1.442719895	 4.5820442737	-0.726125664	-0.221037
O	 1.3613897683	 4.527412431	 0.6921321571	-0.247933
C	 1.2225792369	 2.1085197809	 0.016228786	 0.228474
O	 2.374057825	 1.7769949396	 0.0618763211	-0.280853
H	-2.0201605213	 1.6124019019	-0.0038645828	 0.266106
H	-1.3316301204	 3.9452751363	-0.7993023717	 0.129689
H	-1.1863432829	 3.8853563629	 0.9699458562	 0.143795
H	 2.4163847555	 4.3375819104	-1.1466908631	 0.147019
H	 0.8948318231	 5.3945724397	-1.201419764	 0.128142
54.9812	137.603	236.8895	255.0231	321.1606	343.6232	448.1504	467.4809	580.9693	590.888	651.4453	731.787	802.9046	863.568	882.336	941.0964	1012.4268	1062.4999	1070.1815	1134.3538	1172.4277	1208.8566	1216.5558	1249.9127	1335.5577	1407.6913	1453.9818	1512.3112	1525.2358	1844.1154	1866.5785	3028.4452	3065.6542	3086.5413	3186.2237	3629.4224
O=C1NCC2(CO2)C1=O	O=C1NC[C@]2(CO2)C1=O	
InChI=1S/C5H5NO3/c7-3-4(8)6-1-5(3)2-9-5/h1-2H2,(H,6,8)	InChI=1S/C5H5NO3/c7-3-4(8)6-1-5(3)2-9-5/h1-2H2,(H,6,8)/t5-/m0/s1
