21
gdb 80927	2.75989	1.41195	1.25017	1.7473	83.89	-0.2282	0.0882	0.3165	1140.6729	0.180468	-387.013229	-387.004302	-387.003358	-387.046132	35.018	
C	-0.1168691083	 1.5573244266	-0.0081777108	-0.441358
C	-0.0294547785	 0.0427289193	-0.0104467213	 0.004265
C	 1.253844392	-0.6408290615	-0.5626955092	-0.069151
O	 2.0049103927	-0.1431158305	 0.6154306353	-0.347709
C	 0.7193633408	-0.6767699114	 1.1632501276	 0.296356
C	 0.4940841406	-0.60762229	 2.6402296878	-0.52337
C	 0.9061917071	-1.8947307653	 0.2405251392	 0.437105
C	 0.1313120472	-3.1383240313	-0.02523733	-0.362169
C	 1.5917190832	-3.1954592847	 0.4260907602	-0.365225
H	 0.838337979	 1.9941479582	 0.2899673516	 0.135723
H	-0.3782379703	 1.9336556117	-1.0032121778	 0.112547
H	-0.8921927354	 1.9035687176	 0.6844431374	 0.11142
H	-0.9673641002	-0.4368049179	-0.3099030012	 0.069202
H	 1.7309453396	-0.5463785845	-1.5389356372	 0.087209
H	 0.488731266	 0.4318557742	 2.9818535441	 0.136137
H	-0.4687387613	-1.0604971466	 2.8982510776	 0.126027
H	 1.285494588	-1.1426913594	 3.1740887915	 0.135404
H	-0.6300504274	-3.4419981005	 0.6870342839	 0.112344
H	-0.0927474809	-3.4052748439	-1.053377415	 0.11417
H	 2.3364340636	-3.5002990197	-0.3021120533	 0.116807
H	 1.7943195125	-3.5378182404	 1.4362110498	 0.114266
157.0958	170.221	181.4592	196.0127	212.7104	217.506	325.0448	348.0063	429.4719	474.7114	607.6191	635.6599	716.0082	725.5899	754.0317	778.3369	801.2658	873.8653	916.6758	933.74	962.3542	1010.9779	1022.804	1047.7894	1064.7828	1077.0197	1099.5045	1112.5513	1124.952	1176.9107	1182.9919	1196.8924	1214.2063	1233.4805	1311.0605	1385.2498	1400.6343	1403.6808	1442.1084	1460.9389	1475.67	1487.6709	1494.2932	1505.4115	1527.3023	3033.0952	3037.8528	3055.9512	3088.8756	3111.1163	3113.1509	3113.6856	3119.4924	3125.0612	3133.5737	3196.6585	3211.3124
CC1C2OC1(C)C21CC1	C[C@H]1[C@H]2O[C@]1(C)C12CC1	
InChI=1S/C8H12O/c1-5-6-8(3-4-8)7(5,2)9-6/h5-6H,3-4H2,1-2H3	InChI=1S/C8H12O/c1-5-6-8(3-4-8)7(5,2)9-6/h5-6H,3-4H2,1-2H3/t5-,6+,7-/m0/s1
