18
gdb 93526	2.46923	1.53011	1.17186	3.5176	69.8	-0.2515	0.0471	0.2986	1098.9307	0.14768	-476.236715	-476.228029	-476.227085	-476.270498	32.291	
C	-0.0736918347	 1.4903891542	-0.0157506804	-0.409854
C	 0.0524512184	-0.01668314	 0.098477344	 0.102181
O	 0.7670024616	-0.4730624036	-1.0712587107	-0.258703
C	 0.941111782	-1.8112337741	-1.2042694725	 0.448241
N	 1.2616061821	-2.2792064044	-2.3301923354	-0.549081
O	 0.7230669711	-2.5715723186	-0.1007261848	-0.27012
C	 0.8587823964	-2.0404774817	 1.233735176	-0.096042
C	 0.8729679835	-0.509614082	 1.290886116	 0.094969
O	 2.1825319739	 0.0278469017	 1.2682835986	-0.440406
H	 0.9099624246	 1.9627675852	 0.0277240579	 0.139173
H	-0.5563891764	 1.7580196532	-0.9583926291	 0.138752
H	-0.6788303204	 1.8752109483	 0.8103364567	 0.123983
H	-0.9412327702	-0.4839930553	 0.11422683	 0.098218
H	 1.4184226214	-3.2816283958	-2.2499028729	 0.227758
H	 0.0056229567	-2.4394668876	 1.7907585467	 0.121812
H	 1.7832408124	-2.4333127023	 1.668759828	 0.130911
H	 0.4277569438	-0.1858952769	 2.2369257621	 0.100567
H	 2.4941993238	-0.0070921001	 0.3546823398	 0.297643
64.932	77.1956	170.778	210.709	264.256	291.9655	368.9402	424.693	447.8751	495.4699	568.133	636.9073	720.083	757.9141	804.811	841.5097	859.513	915.2025	954.8671	998.7576	1042.496	1064.463	1097.8309	1123.2066	1167.6559	1172.0435	1239.8369	1278.5812	1308.6006	1314.9879	1364.172	1386.723	1411.6387	1415.2336	1442.3909	1486.4715	1495.4051	1503.7762	1766.1302	3021.7794	3046.4463	3054.2867	3071.1124	3098.884	3128.3633	3142.2977	3528.5392	3776.2851
CC1OC(=N)OCC1O	C[C@H]1O[C]([NH])OC[C@H]1O	
InChI=1S/C5H9NO3/c1-3-4(7)2-8-5(6)9-3/h3-4,6-7H,2H2,1H3	InChI=1S/C5H9NO3/c1-3-4(7)2-8-5(6)9-3/h3-4,6-7H,2H2,1H3/t3-,4-/m1/s1
