19
gdb 35566	3.20636	1.27672	1.06593	1.498	80.41	-0.2454	0.0434	0.2887	1160.4849	0.160503	-385.846109	-385.838131	-385.837187	-385.878923	30.996	
C	-0.8562094046	-0.909739652	-1.1175974908	-0.456164
C	-0.5125940221	 0.1281663021	-0.6149325027	 0.318887
C	-0.094070512	 1.3686312731	 0.0063361687	-0.178065
C	-0.0889350065	 1.4684387791	 1.5690029719	-0.256541
C	 1.303775331	 2.1598862595	 1.5114230785	-0.026578
C	 2.5012681276	 1.4801080642	 2.2045533579	-0.09509
O	 3.3091516584	 0.9402069871	 1.164332065	-0.245844
C	 2.4500995184	 0.6088618037	 0.0810088448	-0.105195
C	 1.4253864769	 1.7524831019	 0.0135233965	-0.041536
H	-1.1619193368	-1.8225630663	-1.5655881491	 0.195374
H	-0.6729340795	 2.1966774057	-0.4149745667	 0.104907
H	-0.9107038738	 2.0390598265	 2.0054021995	 0.109118
H	-0.0524933469	 0.4864788612	 2.0469392782	 0.113107
H	 1.2625436458	 3.2340603755	 1.697253366	 0.07799
H	 3.125202426	 2.1722959697	 2.7776770622	 0.106336
H	 2.1589155193	 0.6836817607	 2.8849702811	 0.088806
H	 3.0680697426	 0.5183177243	-0.8153361723	 0.111526
H	 1.9493085497	-0.356949334	 0.2517253186	 0.100076
H	 1.7187967565	 2.5215156383	-0.7025055674	 0.078888
66.0446	127.2093	176.9717	222.0547	324.5465	370.62	493.5401	512.911	614.8229	628.8563	657.8666	661.5787	671.5342	791.2224	856.2571	881.9047	922.6438	945.4689	958.6591	1010.8523	1026.2381	1051.4492	1091.4212	1103.784	1108.6233	1136.6367	1203.7281	1216.5727	1237.0097	1256.3325	1268.5132	1275.683	1313.348	1325.7406	1347.3568	1369.7575	1396.711	1486.3076	1512.514	1524.1828	2228.9747	2971.5406	2987.935	3051.0773	3068.8382	3073.685	3087.2278	3096.9504	3106.8373	3127.7436	3504.1766
C#CC1CC2COCC12	C#C[C@H]1C[C@H]2COC[C@@H]12	
InChI=1S/C8H10O/c1-2-6-3-7-4-9-5-8(6)7/h1,6-8H,3-5H2	InChI=1S/C8H10O/c1-2-6-3-7-4-9-5-8(6)7/h1,6-8H,3-5H2/t6-,7-,8-/m0/s1
