16
gdb 29609	2.97607	1.2965	0.90743	4.4658	74.81	-0.1923	0.0242	0.2165	1213.6111	0.12636	-434.119586	-434.11097	-434.110026	-434.153899	31.328	
N	 0.2361947652	 1.4137843573	-0.0738690149	-0.625926
C	 0.0467115419	-0.0027638811	-0.0594708006	 0.070893
C	-1.1029961558	-0.7648469756	-0.0953631934	-0.126499
N	-0.7277880054	-2.0805733032	-0.0591119888	-0.242585
C	 0.6428270505	-2.1959501598	-0.000208674	-0.167541
C	 1.1440646568	-0.913355847	 0.0005412193	 0.343634
N	 2.4669162951	-0.4698826042	 0.0486844758	-0.401891
C	 3.5719573549	-1.2568533371	 0.1071465764	 0.135628
O	 3.5677266551	-2.4720698907	 0.1260355932	-0.327095
H	-0.1481063807	 1.8351272748	-0.9133663185	 0.2408
H	-0.2174052567	 1.860955336	 0.7162234102	 0.240796
H	-2.1402073246	-0.4745192306	-0.1431690103	 0.11527
H	-1.3609971026	-2.8596185402	-0.0729401241	 0.264511
H	 1.1473851026	-3.1432632796	 0.0357774602	 0.153743
H	 2.5680522779	 0.5361716083	 0.0371817886	 0.254144
H	 4.5001252256	-0.6535657174	 0.1364110809	 0.072116
31.6978	87.9546	159.5585	221.9247	247.028	274.7963	400.7682	453.7622	463.2925	608.0811	629.8247	652.776	663.9219	711.2452	726.695	769.4771	829.2028	885.4232	925.3449	1010.9825	1069.524	1109.6704	1172.2071	1190.9447	1207.4412	1259.6546	1352.6282	1391.3002	1427.4624	1470.9629	1524.3404	1597.2565	1621.1987	1658.7181	1788.2945	2942.9767	3262.5868	3317.4969	3497.2672	3563.9903	3591.2872	3694.4668
NC1=CNC=C1NC=O	Nc1c[nH]cc1NC=O	
InChI=1S/C5H7N3O/c6-4-1-7-2-5(4)8-3-9/h1-3,7H,6H2,(H,8,9)	InChI=1S/C5H7N3O/c6-4-1-7-2-5(4)8-3-9/h1-3,7H,6H2,(H,8,9)
