21
gdb 72396	3.00942	1.45999	1.36689	1.4697	81.98	-0.2375	0.0202	0.2577	1061.9532	0.183441	-387.105921	-387.097771	-387.096827	-387.137653	33.892	
C	-0.0096717636	 1.5027112507	 0.0187254704	-0.487496
C	-0.0057963464	-0.0157702624	 0.0285601332	 0.278757
C	 0.7302177999	-0.6865498667	-1.1902479607	-0.230194
C	 0.956833922	-2.148906225	-0.7130567919	-0.267516
C	 0.3200966199	-2.1452662674	 0.7200721356	 0.382258
O	 0.7376245643	-3.1800866108	 1.5747932577	-0.503493
C	 0.7131924319	-0.736859957	 1.1983134247	-0.264163
C	-1.1802523824	-1.9556130149	 0.5166158099	-0.162169
C	-1.3687771303	-0.7008984755	 0.1032092956	-0.102714
H	 1.0106801468	 1.9011233742	 0.00255495	 0.11193
H	-0.5297388671	 1.8908391328	-0.8648408222	 0.111883
H	-0.5134385066	 1.9047952791	 0.9041188634	 0.115989
H	 0.1360295929	-0.6204246874	-2.105462947	 0.094214
H	 1.6818143268	-0.1781535608	-1.3782406101	 0.095086
H	 0.4899905454	-2.8923190356	-1.3660668808	 0.0868
H	 2.0206273313	-2.3918982868	-0.630223384	 0.1013
H	 0.534891245	-4.0207912218	 1.1517161127	 0.274754
H	 1.7967805938	-0.5764488643	 1.2117823671	 0.08752
H	 0.2873963849	-0.4967838401	 2.1753368711	 0.098408
H	-1.9096297353	-2.7535701815	 0.5964955057	 0.088397
H	-2.2935288732	-0.2449450088	-0.2324397303	 0.090448
212.5872	216.6234	230.8449	242.8145	280.8429	352.7482	384.5617	411.4514	491.6078	501.2592	569.289	643.6634	665.6891	732.7765	784.5984	799.6145	843.1352	887.8533	907.5577	938.385	957.4692	961.5525	981.7154	1032.8608	1054.91	1087.8272	1101.3058	1143.1668	1171.4121	1201.9535	1215.1885	1235.1328	1259.0949	1261.0581	1296.0506	1315.1654	1367.8849	1385.8956	1414.6521	1485.2484	1490.3367	1495.2017	1497.1942	1513.8772	1648.3207	3024.3167	3041.3238	3046.6212	3054.233	3083.8389	3088.1176	3095.68	3101.8136	3114.8428	3179.9873	3207.2282	3810.7988
CC12CCC(O)(C1)C=C2	C[C@@]12CC[C@@](O)(C1)C=C2	
InChI=1S/C8H12O/c1-7-2-4-8(9,6-7)5-3-7/h2,4,9H,3,5-6H2,1H3	InChI=1S/C8H12O/c1-7-2-4-8(9,6-7)5-3-7/h2,4,9H,3,5-6H2,1H3/t7-,8-/m1/s1
