20
gdb 106690	2.43231	1.45781	1.17812	2.2702	79.13	-0.2315	0.0693	0.3008	1138.8129	0.170763	-403.082169	-403.073324	-403.072379	-403.115679	33.879	
C	 0.0466428944	 1.4874196588	 0.1084917869	-0.494221
C	-0.0030359557	-0.0136199403	 0.0610536226	 0.305979
C	 1.1688774372	-0.8945759323	-0.2966892474	-0.38723
C	 0.5611374914	-1.0454617414	 1.0778527955	 0.299549
C	 1.3057606275	-0.784018159	 2.3539401176	-0.181737
O	 2.1914139263	-1.8400890122	 2.7214658134	-0.414445
C	-0.7331404275	-1.8231141174	 0.9603209577	-0.144441
N	-1.836816694	-0.9104448404	 1.3640613687	-0.341874
C	-1.2729888048	-0.832926209	-0.0112401981	-0.119301
H	 1.0267057885	 1.8473707862	 0.4375865981	 0.118221
H	-0.1429124881	 1.9198121186	-0.8814574983	 0.117923
H	-0.7087378381	 1.8758528949	 0.7987750217	 0.134781
H	 1.0657295982	-1.6866042957	-1.0339679569	 0.102332
H	 2.1345014798	-0.3971762987	-0.3202069351	 0.116111
H	 1.9419646806	 0.1006115012	 2.2434509937	 0.104676
H	 0.5854054305	-0.5719883591	 3.1578912233	 0.103725
H	 1.6557195692	-2.6221689721	 2.8870815693	 0.279751
H	-0.8725764709	-2.8986531271	 0.9686902565	 0.088721
H	-2.7053859659	-1.4452458911	 1.2991354633	 0.221126
H	-1.9044500486	-1.0065083339	-0.8755513924	 0.090354
62.4102	133.9376	200.0721	211.6753	229.9277	263.7794	310.3658	388.3661	421.3821	524.7872	597.7355	604.5196	752.621	785.866	812.541	847.7378	857.8334	914.0409	931.7563	956.9647	982.8156	988.0845	1038.8634	1045.6379	1077.6578	1092.3979	1123.8583	1129.6877	1138.1639	1205.8524	1241.4645	1262.0521	1310.372	1346.696	1364.1721	1377.7212	1395.7096	1414.249	1429.8312	1488.9822	1492.2447	1501.5967	1503.2671	2997.0988	3025.7112	3070.4123	3085.7619	3105.7884	3111.0532	3165.1338	3178.6545	3194.2624	3444.3731	3818.5414
CC12CC1(CO)C1NC21	C[C@@]12C[C@]1(CO)[C@H]1N[C@@H]21	
InChI=1S/C7H11NO/c1-6-2-7(6,3-9)5-4(6)8-5/h4-5,8-9H,2-3H2,1H3	InChI=1S/C7H11NO/c1-6-2-7(6,3-9)5-4(6)8-5/h4-5,8-9H,2-3H2,1H3/t4-,5+,6+,7+/m1/s1
