21
gdb 86795	4.77535	0.82286	0.74736	0.8141	90.95	-0.2381	0.0232	0.2613	1563.7207	0.18173	-349.940831	-349.931478	-349.930534	-349.975293	35.515	
C	-0.0199047993	 1.6249723594	 0.0023464303	-0.396168
C	 0.0287149641	 0.0932916284	 0.0300825678	-0.011963
C	 0.7868912462	-0.5378299627	-1.1682771592	-0.246118
C	 1.5073931027	-1.7922897104	-0.6112505522	-0.022902
C	 2.8867107236	-2.0406692286	-1.2656812599	-0.366348
C	 3.5486389622	-3.243727684	-0.7756989511	 0.300384
C	 4.0697178872	-4.2424110686	-0.3551070349	-0.446004
C	 1.5602226414	-1.5054293515	 0.8731950968	-0.076419
C	 0.7659978441	-0.4937241161	 1.2156084744	-0.072607
H	 0.9909403284	 2.04777088	 0.0074316458	 0.114602
H	-0.5325790856	 1.9867859784	-0.8953224488	 0.112712
H	-0.5537331729	 2.0215124775	 0.8726519412	 0.111926
H	-1.009573088	-0.2738509924	 0.0436653145	 0.07839
H	 0.1335271485	-0.7640831849	-2.0155791827	 0.096081
H	 1.5405361306	 0.1773572249	-1.5229569067	 0.096043
H	 0.9016999338	-2.6932579097	-0.7864498779	 0.088672
H	 2.7597639767	-2.1126690258	-2.3537738701	 0.127625
H	 3.5284781592	-1.1678986284	-1.0870733463	 0.127467
H	 4.5410288322	-5.121801669	 0.0076996142	 0.193096
H	 2.1590222174	-2.1027754494	 1.5516196607	 0.103248
H	 0.6136196375	-0.1303586071	 2.2271104541	 0.088284
51.4413	79.9192	138.7456	216.5601	242.4189	267.6291	351.2172	357.8162	374.4782	467.5446	555.8821	615.7561	617.0776	637.2224	737.2568	773.8815	845.8608	849.501	885.8746	921.0857	964.7877	971.6349	982.3043	1043.9264	1055.0735	1075.9867	1118.8888	1139.6561	1155.1534	1204.016	1210.8869	1272.8043	1303.6138	1317.5384	1330.4972	1347.156	1357.7395	1389.4858	1409.7627	1470.8901	1486.7217	1497.6737	1499.4269	1684.752	2235.7461	2974.844	2994.6819	3014.8816	3024.1744	3027.6711	3050.329	3087.9842	3096.8274	3097.1304	3175.7403	3205.6827	3507.0597
CC1CC(CC#C)C=C1	C[C@H]1C[C@@H](CC#C)C=C1	
InChI=1S/C9H12/c1-3-4-9-6-5-8(2)7-9/h1,5-6,8-9H,4,7H2,2H3	InChI=1S/C9H12/c1-3-4-9-6-5-8(2)7-9/h1,5-6,8-9H,4,7H2,2H3/t8-,9+/m1/s1
