15
gdb 67287	3.20834	1.95255	1.75215	1.997	62.41	-0.2299	0.029	0.259	806.9413	0.113518	-457.659877	-457.653921	-457.652977	-457.689848	25.277	
O	-0.0893295979	 1.4533537672	 0.0031279669	-0.477611
C	-0.0096743783	 0.0818457953	 0.0008189739	 0.385068
C	 0.7713287634	-0.8681025392	-0.9781736883	-0.04205
O	 1.6357048015	-1.330239615	 0.0733016261	-0.263624
C	 0.6745998172	-0.8771490377	 1.0414734537	-0.042028
C	-0.6174159087	-1.8111623543	 0.9656212689	 0.082006
O	-0.3977503122	-2.8257171036	-0.030783379	-0.269137
C	-0.5216298754	-1.8022092477	-1.0345038432	 0.08201
C	-1.2619502043	-0.8376323236	-0.0632649649	-0.172888
H	 0.8031836337	 1.8166615757	 0.046539231	 0.292267
H	 1.2910855871	-0.608374028	-1.901504066	 0.083351
H	 1.1036480518	-0.6259146671	 2.0125220453	 0.083359
H	-1.0616742865	-2.1842588298	 1.8883988856	 0.08553
H	-0.8754984406	-2.1668489356	-1.9988178424	 0.085529
H	-2.3057341908	-0.5407312768	-0.1119243275	 0.08822
255.6765	284.9253	359.7511	412.8698	510.0444	549.717	664.6932	679.767	728.5109	786.3044	806.0755	830.557	855.3025	856.0388	931.0781	959.3812	992.0073	1003.4138	1028.1202	1031.8482	1067.4693	1078.65	1131.6275	1159.9794	1176.32	1192.9157	1234.2945	1239.2693	1250.0915	1303.907	1324.1515	1339.118	1416.3272	3103.6434	3103.7746	3114.5051	3117.7566	3158.947	3789.8842
OC12C3OC1C1OC3C21	O[C@@]12[C@H]3O[C@@H]1[C@@H]1O[C@H]3[C@H]21	
InChI=1S/C6H6O3/c7-6-1-2-4(6)9-5(6)3(1)8-2/h1-5,7H	InChI=1S/C6H6O3/c7-6-1-2-4(6)9-5(6)3(1)8-2/h1-5,7H/t1-,2-,3+,4-,5+,6-
