22
gdb 93909	2.66807	1.32056	1.0623	2.2332	83.6	-0.2375	0.0194	0.257	1243.3163	0.194849	-404.366933	-404.357787	-404.356842	-404.40087	35.099	
C	-0.1706468663	 1.6597035882	-0.1029121233	-0.40159
C	-0.0240615459	 0.14017599	 0.0035123794	 0.135073
C	 0.6957455431	-0.5091261145	-1.1797658544	-0.227138
C	 2.1365374309	-0.051864779	-1.4078962599	-0.20057
C	 3.1108672668	-0.5293549785	-0.3206141538	 0.068022
C	 4.5644207074	-0.2647299965	-0.7287550553	-0.387726
N	 2.91229385	 0.0310329483	 1.0129703188	-0.254358
C	 1.8175387813	 0.1074516848	 1.6309378826	 0.110864
O	 0.534181465	-0.2021022475	 1.2892651645	-0.244977
H	 0.7993992189	 2.1630272334	-0.0774212482	 0.133766
H	-0.6710304948	 1.9292941822	-1.0382027783	 0.117792
H	-0.7700054763	 2.0350860834	 0.7305008978	 0.126594
H	-1.0261625025	-0.2974417189	 0.060361255	 0.091866
H	 0.6782270283	-1.5971415615	-1.0379653951	 0.102628
H	 0.0938523755	-0.3026446261	-2.0735144624	 0.098238
H	 2.4822077736	-0.4497664829	-2.3692931779	 0.097298
H	 2.1943662598	 1.0401353075	-1.4924026019	 0.101595
H	 2.9794269657	-1.6198551867	-0.2247121214	 0.084768
H	 4.735547958	 0.8089219796	-0.8618012672	 0.11446
H	 5.2448285444	-0.6159332989	 0.0506768007	 0.120755
H	 4.8103429707	-0.7728091191	-1.6668031517	 0.101554
H	 1.8334218763	 0.4256915929	 2.675481112	 0.111088
51.2543	100.4165	220.7228	235.3181	263.9831	279.1736	346.7874	355.7692	376.944	406.6017	461.0562	552.3627	613.7994	732.6783	783.6911	816.7474	871.3079	885.0358	918.7741	947.2043	976.9098	1010.2362	1016.3435	1058.1711	1113.1317	1127.2546	1146.9024	1160.2557	1170.9543	1224.4659	1273.0067	1323.2733	1354.8757	1363.8677	1382.0895	1389.38	1402.5648	1408.3428	1412.6952	1437.5381	1472.1889	1482.9639	1488.4586	1489.7004	1499.3978	1508.5031	1748.6345	2966.6151	3020.7715	3028.4672	3036.742	3046.015	3054.7799	3060.1772	3069.3957	3104.4359	3111.5668	3118.3116	3123.1492	3126.5209
CC1CCC(C)N=CO1	C[C@H]1CC[C@@H](C)N=CO1	
InChI=1S/C7H13NO/c1-6-3-4-7(2)9-5-8-6/h5-7H,3-4H2,1-2H3	InChI=1S/C7H13NO/c1-6-3-4-7(2)9-5-8-6/h5-7H,3-4H2,1-2H3/t6-,7+/m1/s1
