21
gdb 89088	5.29347	0.56349	0.54248	2.1423	86.19	-0.259	0.0555	0.3145	2053.4531	0.179504	-387.044714	-387.034273	-387.033329	-387.081376	37.345	
C	 0.3269215196	 1.4455278688	-0.3693698018	-0.419708
C	 0.036427151	 0.0274019803	 0.0511691987	 0.077156
O	 1.1537217748	-0.8396404518	 0.2803604681	-0.264337
C	 0.2952959737	-0.5350119882	 1.3881719003	 0.060614
C	 0.9064150872	 0.2110563751	 2.5498127712	-0.230306
C	 1.8328049123	-0.6891975262	 3.3782624137	-0.165386
C	 2.4660352003	 0.0585010393	 4.5683279083	-0.357943
C	 3.3431813533	-0.7851405659	 5.3707146799	 0.291336
C	 4.0605532218	-1.501658942	 6.0163240852	-0.434318
H	 1.1270123371	 1.8934572679	 0.2227110947	 0.128033
H	 0.6328329057	 1.4688282073	-1.4205689454	 0.131035
H	-0.5718902501	 2.0639428423	-0.2698398009	 0.121728
H	-0.7646428739	-0.4474576809	-0.520762714	 0.085746
H	-0.3317863025	-1.3790206316	 1.689253484	 0.08495
H	 1.4678531431	 1.0780241066	 2.1875380677	 0.10309
H	 0.0963804138	 0.5962578206	 3.1847972294	 0.099322
H	 1.2757028694	-1.5545597457	 3.7558443877	 0.109071
H	 2.6247101097	-1.084113505	 2.7337151645	 0.129812
H	 3.0318867938	 0.9230219204	 4.1962319944	 0.129924
H	 1.6721675268	 0.4700080934	 5.2062118316	 0.127008
H	 4.6974068231	-2.1260018145	 6.5921774327	 0.193173
37.125	79.9012	86.096	110.9755	154.0674	190.8882	257.8094	309.6443	348.8202	378.5414	472.6197	492.3717	562.7512	615.5522	634.665	736.5051	766.7638	817.0486	856.4366	930.0457	958.2473	992.859	1024.315	1046.998	1049.9269	1104.1127	1119.2758	1166.7832	1175.9567	1202.5139	1258.0917	1297.4141	1306.2847	1324.883	1343.436	1384.5024	1404.6578	1421.0569	1467.6134	1472.4002	1473.5092	1491.8234	1502.2112	1513.9897	2239.3802	3012.0025	3017.2009	3038.3108	3039.5203	3044.7072	3060.7118	3076.2492	3080.9028	3098.3292	3099.5089	3137.1142	3507.7582
CC1OC1CCCC#C	C[C@H]1O[C@H]1CCCC#C	
InChI=1S/C8H12O/c1-3-4-5-6-8-7(2)9-8/h1,7-8H,4-6H2,2H3	InChI=1S/C8H12O/c1-3-4-5-6-8-7(2)9-8/h1,7-8H,4-6H2,2H3/t7-,8+/m1/s1
