19
gdb 50174	2.96919	1.29023	1.07957	2.6716	82.56	-0.2279	-0.0234	0.2045	1165.5633	0.160035	-385.882075	-385.874144	-385.8732	-385.914997	30.438	
O	-0.0430576854	-0.06468079	-0.3170273914	-0.261529
C	-0.0016065075	 1.1255420308	-0.1294356937	 0.174423
C	 1.2600398673	 1.9363757236	-0.0535446223	-0.129889
C	 1.1239515715	 3.3247562838	-0.8085841371	-0.354398
C	 0.8234192895	 3.9206039371	 0.5456095703	 0.3191
C	-0.0441677905	 4.6314706627	 1.2567314633	-0.236897
C	-0.0492630653	 4.1202921591	 2.6967252414	-0.236553
C	 0.5668998966	 2.6826661121	 2.5851124698	-0.254224
C	 1.4173091888	 2.7671706153	 1.2992828556	-0.043355
H	-0.9377651597	 1.71596779	-0.0005081321	 0.077131
H	 2.1087263951	 1.3084236901	-0.3282566799	 0.091258
H	 2.0896389369	 3.6256978968	-1.2259172788	 0.123435
H	 0.3614131421	 3.4092249685	-1.5877339461	 0.120084
H	-0.7143478437	 5.4049416427	 0.9002098676	 0.096269
H	 0.5488222665	 4.7596923839	 3.3610137219	 0.108587
H	-1.0598633243	 4.1012601551	 3.1186477836	 0.106554
H	 1.1459572082	 2.4031420158	 3.4690337105	 0.101609
H	-0.238293519	 1.9483991498	 2.4823399518	 0.112146
H	 2.488381203	 2.8705584227	 1.5094161755	 0.086249
71.3027	89.668	207.6416	244.3766	332.5603	341.9507	421.4777	454.9567	594.4458	641.9127	743.2585	787.8384	795.8623	849.7484	868.6289	895.4694	924.755	935.9195	962.2256	1001.6643	1044.3975	1053.2078	1085.09	1109.25	1127.4011	1176.8974	1185.1858	1216.6537	1224.7694	1248.2174	1267.1621	1301.3937	1308.8918	1335.8014	1343.6118	1434.99	1473.7944	1486.2832	1501.0987	1738.6659	1825.2297	2868.4984	3010.082	3029.516	3051.8989	3053.938	3066.8547	3100.7096	3103.3945	3108.397	3200.3912
O=CC1CC2=CCCC12	O=C[C@H]1C[C]2[CH]CC[C@@H]12	
InChI=1S/C8H10O/c9-5-7-4-6-2-1-3-8(6)7/h2,5,7-8H,1,3-4H2	InChI=1S/C8H10O/c9-5-7-4-6-2-1-3-8(6)7/h2,5,7-8H,1,3-4H2/t7-,8-/m1/s1
