16
gdb 30437	3.80582	1.17329	0.90189	1.4155	78.8	-0.2053	-0.027	0.1783	1242.6713	0.126498	-434.122886	-434.114898	-434.113953	-434.155604	29.846	
C	-0.0837382992	 1.3809619438	 0.1312710379	-0.320457
N	-0.009488949	-0.063864838	 0.019958541	-0.338295
C	 0.573935863	-0.5570262341	-1.0038530377	 0.393761
N	 0.6265296549	-1.9686670599	-1.0774183978	-0.387763
C	 1.2064404177	-2.6333159069	-2.0926109805	 0.525063
O	 1.1496762163	-3.9653304205	-1.9741548948	-0.401492
N	 1.7832879619	-2.0842060346	-3.1191260049	-0.403101
C	 1.7703289983	-0.7085199459	-3.1151385372	 0.002013
C	 1.21584764	 0.0635856536	-2.1462773511	-0.217071
H	 0.9080717039	 1.8567474592	 0.1725319862	 0.109268
H	-0.635066709	 1.8447446532	-0.7010172628	 0.109268
H	-0.6085442498	 1.6398026835	 1.0547905198	 0.118765
H	 0.1982195016	-2.4746477805	-0.3138948901	 0.271886
H	 1.5958146866	-4.3174999565	-2.7574176927	 0.316073
H	 2.2527791593	-0.2499486909	-3.9736373749	 0.11588
H	 1.2446958333	 1.1417697743	-2.2120347303	 0.106202
100.3793	114.3266	209.2294	213.4768	267.763	375.7833	411.1886	488.231	537.3463	571.5423	610.7955	665.7165	718.9802	768.3596	774.2376	822.6527	962.3953	988.6767	1000.5967	1060.7713	1113.4235	1128.5865	1162.0932	1207.2417	1280.2881	1319.8467	1349.2657	1433.4401	1450.0038	1491.6146	1506.7626	1551.1772	1604.8422	1659.823	1736.0075	2972.6182	3017.9658	3093.7877	3171.8863	3235.7924	3603.4715	3773.6849
CN=C1NC(O)=NC=C1	CN=c1[nH]c(O)ncc1	
InChI=1S/C5H7N3O/c1-6-4-2-3-7-5(9)8-4/h2-3H,1H3,(H2,6,7,8,9)	InChI=1S/C5H7N3O/c1-6-4-2-3-7-5(9)8-4/h2-3H,1H3,(H2,6,7,8,9)
