21
gdb 120462	3.57808	0.87748	0.77697	2.0793	80.91	-0.2224	-0.0222	0.2002	1568.6585	0.179804	-424.232747	-424.222518	-424.221574	-424.268822	36.232	
C	 0.7731642887	 1.3001613071	 0.2765666754	-0.386507
C	 0.3013445056	-0.0820784562	-0.1375521472	-0.050345
O	-1.0080477592	-0.2807346502	 0.3892121255	-0.254438
C	-1.5490881342	-1.5286004009	 0.089227071	 0.052515
C	-2.9764963787	-1.7978288441	 0.6387053599	-0.293052
C	-3.3960112427	-2.4424962346	-0.7220673709	-0.09157
C	-4.7444367791	-2.1175503072	-1.3487813734	-0.403004
C	-2.1471847236	-1.7680578708	-1.3211417311	 0.356687
O	-1.8626161611	-1.3829322058	-2.4197563432	-0.306336
H	 1.7827746328	 1.4848968948	-0.1022296595	 0.11663
H	 0.1065802287	 2.0686317241	-0.124691758	 0.129913
H	 0.7876574505	 1.3926106725	 1.3663772789	 0.124443
H	 0.2828540648	-0.1809578611	-1.2305157887	 0.122269
H	 0.9778434683	-0.8593451719	 0.2564239574	 0.084617
H	-0.8567145884	-2.3484182777	 0.351125902	 0.081848
H	-3.0479826845	-2.4191097397	 1.5314996966	 0.109473
H	-3.4920168035	-0.8489583023	 0.8077214678	 0.124879
H	-3.2375715864	-3.5280757845	-0.691938408	 0.102208
H	-4.9111931376	-1.0361223873	-1.3776677887	 0.12509
H	-4.7885382562	-2.4883344809	-2.3771231412	 0.13472
H	-5.5641417142	-2.5736371534	-0.7850353845	 0.11996
50.5915	68.7404	90.4155	168.2412	181.0438	192.7915	226.1328	254.1895	333.4798	367.4737	397.7981	539.7618	600.1691	682.2201	770.4912	822.7608	835.3912	889.3268	920.431	947.0735	970.1575	1049.9713	1064.7856	1087.392	1130.5354	1138.4285	1160.1803	1187.2622	1193.0917	1230.3951	1252.9723	1261.1391	1298.5481	1335.2099	1364.7694	1402.8075	1406.4641	1440.4549	1483.2518	1484.4843	1494.0977	1494.3542	1501.0822	1528.8597	1877.8656	2945.5781	2964.5315	3031.917	3037.724	3041.6238	3045.2443	3076.6931	3107.7779	3113.04	3119.8304	3122.4035	3141.1804
CCOC1CC(C)C1=O	CCO[C@H]1C[C@@H](C)C1=O	
InChI=1S/C7H12O2/c1-3-9-6-4-5(2)7(6)8/h5-6H,3-4H2,1-2H3	InChI=1S/C7H12O2/c1-3-9-6-4-5(2)7(6)8/h5-6H,3-4H2,1-2H3/t5-,6+/m1/s1
