19
gdb 23266	2.5629	1.47724	1.05972	2.0018	78.24	-0.2362	0.0141	0.2504	1157.0887	0.159977	-419.15949	-419.151096	-419.150151	-419.192347	32.64	
C	 0.1777353486	 1.6145454498	-0.0338478347	-0.392736
C	 0.091988978	 0.088695729	 0.0426527726	-0.066738
C	 0.6781715313	-0.6469943257	-1.1545409525	-0.044462
N	 2.1507850806	-0.5450375795	-1.2217796356	-0.332729
C	 1.525164917	-1.777287584	-0.6948533421	-0.052134
C	 1.5390313807	-1.8200334394	 0.8206693226	-0.301324
C	 0.8518626126	-0.5263892456	 1.2148523	 0.391531
N	 0.8644118826	 0.043382138	 2.3506655113	-0.22743
O	 1.5951054448	-0.7029722959	 3.2942642576	-0.394137
H	 1.2124711374	 1.9204435647	-0.2086131374	 0.135166
H	-0.4424867648	 1.9988347544	-0.8503438142	 0.100955
H	-0.1617807605	 2.0636657108	 0.9021532127	 0.131689
H	-0.9639457893	-0.208711911	 0.1311116281	 0.089861
H	 0.1112735299	-0.6945835777	-2.0788667144	 0.083614
H	 2.4574650209	-0.702056812	-2.1783874721	 0.231448
H	 1.6116097075	-2.6960603218	-1.2652323706	 0.086596
H	 0.9767134282	-2.6829762989	 1.2003475093	 0.119145
H	 2.5438569016	-1.8752394794	 1.2481819107	 0.13702
H	 1.5579850128	-0.1359762859	 4.0716744589	 0.304668
78.202	185.1396	201.8293	222.0434	260.3027	319.6418	376.8715	394.2179	499.4269	527.9441	546.1826	636.8995	705.5943	790.4363	821.6136	854.8951	869.0292	919.242	962.5304	976.3259	986.1095	1025.5183	1071.1835	1106.4721	1114.7069	1128.2168	1160.467	1183.4551	1219.1077	1243.2768	1303.2898	1314.7207	1332.4326	1371.4545	1396.3621	1408.8954	1429.8821	1460.5085	1492.0342	1502.7285	1756.6613	2992.9731	3034.3863	3042.41	3095.4441	3113.7819	3133.8837	3158.067	3169.9614	3505.6151	3819.5837
CC1C2NC2CC1=NO	C[C@H]1[C@H]2N[C@H]2CC1=NO	
InChI=1S/C6H10N2O/c1-3-4(8-9)2-5-6(3)7-5/h3,5-7,9H,2H2,1H3	InChI=1S/C6H10N2O/c1-3-4(8-9)2-5-6(3)7-5/h3,5-7,9H,2H2,1H3/t3-,5+,6-/m1/s1
