13
gdb 80324	3.80903	1.2647	1.21231	5.3746	65.11	-0.2703	-0.0617	0.2086	1014.356	0.089524	-452.728737	-452.721414	-452.72047	-452.76073	26.979	
O	-0.257710268	 1.4443818483	-0.0215041917	-0.406961
C	-0.1273697879	 0.0672262308	 0.0273357983	 0.078142
C	-0.4851754442	-0.6944324616	 1.270025598	-0.031068
O	-1.2630580142	 0.0339735025	 2.2055006331	-0.241298
C	-2.4261770062	 0.324982923	 1.5536368382	 0.327572
N	-2.6065942041	-0.1338487533	 0.3790202601	-0.279462
C	-1.3848508542	-0.790689211	 0.0203480158	-0.083778
C	-3.3650297413	 1.1161997416	 2.2886513139	 0.282675
N	-4.116507284	 1.7541470869	 2.8909792299	-0.313479
H	 0.2701230802	 1.8287253433	 0.6875146737	 0.301509
H	 0.6929775511	-0.3591841165	-0.5492696899	 0.114904
H	 0.1251098632	-1.4616277553	 1.7284274631	 0.128508
H	-1.4584664503	-1.6383686287	-0.6483570625	 0.122736
99.1367	175.6956	182.2494	242.6412	281.1307	424.6318	541.8408	559.5323	591.8965	657.2227	688.6615	769.0756	771.5618	835.0635	922.5055	958.5881	1009.8018	1026.9057	1080.5719	1110.3354	1130.3428	1225.6357	1241.0042	1317.3624	1327.3862	1349.4559	1418.944	1669.4723	2372.21	3112.3267	3198.3797	3205.2579	3799.4727
OC1C2OC(=NC12)C#N	O[C@H]1[C@H]2OC(=N[C@@H]12)C#N	
InChI=1S/C5H4N2O2/c6-1-2-7-3-4(8)5(3)9-2/h3-5,8H	InChI=1S/C5H4N2O2/c6-1-2-7-3-4(8)5(3)9-2/h3-5,8H/t3-,4+,5-/m0/s1
