13
gdb 5437	3.5948	1.94952	1.27406	2.2349	68.82	-0.2282	-0.0143	0.2139	892.8313	0.095057	-361.471178	-361.46396	-361.463016	-361.502653	26.246	
C	 0.1274928849	 1.49737235	 0.0787393657	-0.504791
C	-0.0249786096	 0.024540418	 0.0525036444	 0.262046
C	-1.0966366047	-0.8192898758	-0.0337620045	 0.047958
N	-0.6376176671	-2.1440021567	-0.0146668779	-0.305522
C	 0.6406705768	-2.0286524306	 0.0788146505	 0.059463
O	 1.0973251856	-0.7509675472	 0.1252734959	-0.172052
C	-2.4635881915	-0.4722553103	-0.1286848122	 0.24943
C	-3.6230308728	-0.1586377739	-0.2088983967	-0.433522
H	 0.7374839449	 1.8513387342	-0.7597216039	 0.147497
H	-0.8585657628	 1.961147409	 0.0119636968	 0.1561
H	 0.6095516711	 1.8331670841	 1.0035330852	 0.147493
H	 1.3836757435	-2.8092865001	 0.1242631316	 0.153128
H	-4.6485297382	 0.1075350592	-0.279962845	 0.192773
131.7415	140.589	171.6895	247.486	318.0596	468.5887	531.4199	561.7982	592.8272	643.8416	671.8813	706.3717	738.9321	835.6715	953.2775	972.752	1064.7506	1096.4689	1138.1981	1221.4225	1300.2051	1361.8233	1418.5305	1473.9737	1482.2795	1568.4204	1634.2484	2237.9599	3034.4362	3087.4924	3138.4608	3276.6527	3502.8171
CC1=C(N=CO1)C#C	Cc1c(nco1)C#C	
InChI=1S/C6H5NO/c1-3-6-5(2)8-4-7-6/h1,4H,2H3	InChI=1S/C6H5NO/c1-3-6-5(2)8-4-7-6/h1,4H,2H3
