14
gdb 131748	4.95425	1.04823	0.86986	5.3495	70.44	-0.254	-0.0941	0.1599	1242.9729	0.099835	-469.957579	-469.949401	-469.948456	-469.991847	28.862	
O	-0.0389221629	 1.4293806996	 0.00863863	-0.388566
C	-0.0473237494	 0.0291076356	 0.0025882559	-0.154678
C	-1.4610602534	-0.4905233414	 0.0130008218	 0.306706
N	-2.4418387714	 0.3380472737	 0.0238784208	-0.097532
O	-3.7129240527	-0.2189628235	 0.0328597904	-0.270757
C	-3.9405859313	-1.6014769244	 0.0304568812	 0.45617
N	-5.123763197	-2.0439419081	 0.039863523	-0.499493
N	-2.845633796	-2.4631280988	 0.0185207194	-0.238025
C	-1.6822444257	-1.9300872338	 0.0102930981	-0.019628
H	 0.8764802311	 1.7241085	-0.0006367125	 0.300361
H	 0.4554052789	-0.3913337599	-0.8872638509	 0.117234
H	 0.4712190883	-0.3990536098	 0.8796096803	 0.117177
H	-5.7917841041	-1.2723732893	 0.0481939282	 0.236572
H	-0.8167730445	-2.5949405198	 0.0008618343	 0.134459
25.4314	69.7597	185.513	216.0558	283.4778	327.2325	382.4438	454.5739	525.6311	572.6354	631.4741	760.2097	768.8453	817.5534	872.7369	902.3322	962.9537	1021.2146	1037.9708	1057.8274	1116.4298	1233.1673	1241.2036	1254.6115	1277.0712	1430.3237	1472.0129	1507.5467	1625.559	1708.9867	1734.3177	2940.0468	2956.1441	3116.5768	3495.7947	3836.8743
OCC1=NOC(=N)N=C1	OCC1=NOC(=N[CH]1)[NH]	
InChI=1S/C4H5N3O2/c5-4-6-1-3(2-8)7-9-4/h1,5,8H,2H2	InChI=1S/C4H5N3O2/c5-4-6-1-3(2-8)7-9-4/h1,5,8H,2H2
