14
gdb 27123	3.26651	1.29332	0.93105	3.315	69.17	-0.2171	-0.0136	0.2036	1163.6762	0.102338	-470.046953	-470.038841	-470.037897	-470.08106	28.584	
N	-0.1037722988	 1.4396470718	 0.0149014029	-0.612868
C	-0.0011339854	 0.0321798461	-0.0115043582	 0.087803
C	-1.0559278207	-0.8288042356	 0.0026350515	 0.454784
N	-2.408994319	-0.5571113208	 0.0437288249	-0.413788
C	-3.4685754607	-1.4351216389	 0.0579757051	 0.140576
O	-3.3940202641	-2.6383139755	 0.0362757728	-0.291351
O	-0.5902106682	-2.0972771593	-0.0312031721	-0.153304
C	 0.7673410831	-1.9449096922	-0.0656188552	 0.057674
N	 1.1704879108	-0.7204712279	-0.0559793161	-0.283334
H	 0.3789107969	 1.8232548849	 0.8232160069	 0.249857
H	 0.3375789903	 1.850671761	-0.8034872266	 0.249871
H	-2.6050242051	 0.4346358239	 0.0650465893	 0.272453
H	-4.424460392	-0.8773439795	 0.092651225	 0.085508
H	 1.344105863	-2.854622078	-0.0965777702	 0.15612
22.0613	146.6491	157.3167	216.1841	244.0819	283.9156	376.8886	461.9112	616.7988	623.2487	668.0163	719.3109	724.9914	800.0134	862.8582	885.436	950.667	1013.6614	1090.5843	1113.6609	1138.6458	1224.5975	1270.7092	1304.2705	1420.8361	1462.4106	1504.896	1561.2481	1652.0636	1716.6365	1820.7817	2948.0554	3287.8908	3484.4928	3544.9079	3600.6497
NC1=C(NC=O)OC=N1	Nc1c(NC=O)ocn1	
InChI=1S/C4H5N3O2/c5-3-4(6-1-8)9-2-7-3/h1-2H,5H2,(H,6,8)	InChI=1S/C4H5N3O2/c5-3-4(6-1-8)9-2-7-3/h1-2H,5H2,(H,6,8)
