17
gdb 12405	3.05018	2.06613	1.33051	3.5014	64.45	-0.2344	-0.027	0.2074	909.6045	0.143881	-401.017349	-401.010037	-401.009093	-401.048792	28.174	
O	 0.0028276486	 1.4106009338	 0.0739468047	-0.443306
C	-0.0213008817	 0.0150538761	-0.0175890188	 0.055578
C	-1.4540413931	-0.5455743519	-0.0025244064	-0.20108
C	-1.4356004142	-2.057920499	-0.2355794562	-0.173762
N	-0.8010421135	-2.3381946401	-1.5229456043	-0.295205
C	 0.6097504319	-1.9503331908	-1.5595288017	-0.262911
C	 0.7131985203	-0.4621871196	-1.2649606219	 0.392917
O	 1.336008589	 0.3210771053	-1.9471749105	-0.328375
H	 0.5872439992	 1.7028718191	-0.6439556545	 0.291606
H	 0.5238451598	-0.4373385888	 0.8343146193	 0.087042
H	-1.9250070329	-0.3015601052	 0.9544163148	 0.110098
H	-2.0286051625	-0.0574205838	-0.7962253622	 0.120044
H	-0.9232669132	-2.5555567526	 0.611237982	 0.081285
H	-2.4586055307	-2.4446755732	-0.2655097967	 0.109711
H	-0.8921755255	-3.3188365704	-1.7617911437	 0.227908
H	 1.2345795659	-2.4822208066	-0.8127498407	 0.098799
H	 1.0298446825	-2.1403760524	-2.5497906132	 0.129652
107.572	152.9974	297.3003	328.385	354.2067	393.282	434.3525	441.1067	517.6308	601.822	665.5085	751.0565	794.3787	887.9272	932.7416	958.1486	990.9051	1062.3665	1104.4452	1150.2951	1156.1525	1161.588	1169.2115	1243.7299	1277.6764	1289.4411	1318.0912	1334.4972	1378.1864	1413.3678	1439.1349	1481.0731	1482.4468	1488.4935	1505.3109	1812.5606	2892.6059	2908.5837	2917.1855	3052.984	3078.6785	3103.1162	3103.5794	3536.8932	3685.6125
OC1CCNCC1=O	O[C@H]1CCNCC1=O	
InChI=1S/C5H9NO2/c7-4-1-2-6-3-5(4)8/h4,6-7H,1-3H2	InChI=1S/C5H9NO2/c7-4-1-2-6-3-5(4)8/h4,6-7H,1-3H2/t4-/m0/s1
