17
gdb 41034	3.33699	1.92142	1.58469	1.1655	72.8	-0.2185	0.0492	0.2677	871.6589	0.13655	-421.669168	-421.662822	-421.661878	-421.699444	26.938	
C	 0.1480462651	 1.4855308504	-0.2823128887	-0.084589
O	 1.5001417748	 1.4634536376	 0.2368251963	-0.321421
C	 1.3700285482	 0.1189946879	 0.6850861593	 0.365973
C	 2.5509170777	-0.6749352825	 1.2937380573	-0.175171
C	 1.7566681072	-1.9573232392	 0.9293881113	-0.271488
C	 1.6201630955	-1.0026756391	-0.2826542929	 0.364703
C	 3.1439236817	-0.7047571102	-0.2087013517	-0.306656
O	 0.3908309922	-0.8653192626	-1.0110700922	-0.353271
C	-0.101691892	 0.0194989382	 0.0547901567	-0.076199
H	-0.4726529468	 2.191643065	 0.2825184222	 0.107711
H	 0.1134377337	 1.7113656713	-1.3514688802	 0.121887
H	 3.1340117925	-0.4975964455	 2.1977351678	 0.091983
H	 2.3453773824	-2.8630156019	 0.7764427421	 0.102064
H	 0.8494604538	-2.1462653348	 1.506805314	 0.101799
H	 3.4676964725	 0.256863803	-0.6031296634	 0.131995
H	 3.8482119407	-1.5128576616	-0.4235328689	 0.102658
H	-1.0557976892	-0.311785986	 0.4631921211	 0.098021
197.1418	277.3859	338.4535	402.2662	456.7477	503.7561	540.0398	595.0266	708.0036	751.6248	800.5738	840.5912	885.4635	902.8481	940.9579	959.9102	970.0381	981.4553	1000.5449	1042.6138	1059.6789	1067.7114	1081.8938	1114.0614	1130.9241	1139.7799	1170.4224	1174.4928	1199.4014	1222.9907	1234.2058	1275.147	1310.304	1346.7524	1481.9588	1499.3795	1523.0588	3027.8539	3066.6365	3071.1062	3101.3257	3112.9686	3123.9592	3141.3945	3165.4755
C1OC23C4CC2(C4)OC13	C1O[C@]23[C@H]4C[C@@]2(C4)O[C@H]13	
InChI=1S/C7H8O2/c1-4-2-6(1)7(4)5(9-6)3-8-7/h4-5H,1-3H2	InChI=1S/C7H8O2/c1-4-2-6(1)7(4)5(9-6)3-8-7/h4-5H,1-3H2/t4-,5-,6-,7+/m1/s1
