15
gdb 7302	4.52167	1.20145	0.98117	4.0079	62.06	-0.2547	0.0104	0.2651	1112.4977	0.119309	-396.028442	-396.01982	-396.018876	-396.06207	30.675	
N	-0.8479230366	 0.7292927393	 0.2862083679	-0.528354
C	 0.0449061025	-0.3565350879	-0.1093117589	-0.08908
C	 0.9789989617	-0.0655601167	-1.3112202195	-0.344097
C	 0.2124864715	 0.2677493297	-2.5063323591	 0.250599
N	-0.4358200599	 0.5391058564	-3.4242176761	-0.310197
C	 0.9076722114	-0.8465209698	 1.073931489	 0.413551
N	 0.370736746	-0.5849317767	 2.2879759552	-0.523659
O	 1.9576775824	-1.4358898303	 0.8947003476	-0.371713
H	-0.3307700342	 1.5989033442	 0.3873954913	 0.238556
H	-1.5490754424	 0.8879733041	-0.430821539	 0.256746
H	-0.5919701932	-1.2074553521	-0.3820185862	 0.137386
H	 1.6492425011	 0.7677867906	-1.0700580436	 0.149974
H	 1.6147876921	-0.936113904	-1.4908323007	 0.181378
H	-0.5022185481	-0.0854057498	 2.3440909521	 0.27431
H	 0.8419028258	-0.914770467	 3.11344159	 0.2646
64.651	71.0024	132.0495	248.9603	271.5087	326.9628	372.2789	396.8103	412.4355	469.6808	519.2719	595.0261	657.2723	730.8868	840.4591	870.0173	908.1998	959.2426	1048.6899	1100.2324	1127.2558	1161.9348	1239.5594	1275.3672	1340.2601	1363.2772	1415.3712	1459.7309	1583.0993	1664.2797	1797.1291	2358.4508	3039.201	3055.9469	3114.4164	3490.0347	3571.0586	3586.747	3731.712
NC(CC#N)C(N)=O	N[C@@H](CC#N)C(=O)N	
InChI=1S/C4H7N3O/c5-2-1-3(6)4(7)8/h3H,1,6H2,(H2,7,8)	InChI=1S/C4H7N3O/c5-2-1-3(6)4(7)8/h3H,1,6H2,(H2,7,8)/t3-/m0/s1
