13
gdb 20645	3.94287	1.87066	1.27876	5.7332	63.5	-0.2672	-0.0817	0.1855	889.3498	0.095211	-398.612804	-398.605941	-398.604997	-398.644013	25.016	
C	-0.0006320426	 1.5265205998	-0.0095973084	-0.496168
C	-0.0289525438	 0.0267273117	 0.0079645273	 0.303877
C	-1.1458456822	-0.7136996833	-0.1469686059	-0.333108
C	-1.0957968161	-2.1661770533	-0.118819275	 0.456432
O	-2.0212610521	-2.9203857668	-0.2444266353	-0.329019
O	 0.1721672155	-2.7262098435	 0.0760111814	-0.259666
N	 1.3225714626	-1.983210241	 0.236052911	-0.049159
C	 1.2049271049	-0.7010798771	 0.2010467574	-0.015241
H	 0.6546836418	 1.8924826022	-0.8082043602	 0.151729
H	-0.9983197435	 1.9422212951	-0.1630946783	 0.144425
H	 0.3977113359	 1.9179954305	 0.9333548181	 0.151704
H	-2.1263069913	-0.2768643558	-0.2982332875	 0.135643
H	 2.1440248408	-0.1704635185	 0.3319085954	 0.13855
127.0198	150.4521	189.1944	296.6976	388.5586	469.9673	495.9225	575.1001	623.6031	717.7337	742.0639	866.5605	899.4097	934.5723	943.8448	989.0218	1048.9156	1066.4571	1173.5514	1212.1702	1336.1971	1381.7688	1414.7574	1477.7434	1482.9553	1605.3695	1695.2883	1846.0396	3035.2528	3089.9526	3134.5308	3177.0397	3205.1134
CC1=CC(=O)ON=C1	Cc1cc(=O)onc1	
InChI=1S/C5H5NO2/c1-4-2-5(7)8-6-3-4/h2-3H,1H3	InChI=1S/C5H5NO2/c1-4-2-5(7)8-6-3-4/h2-3H,1H3
