17
gdb 42364	2.41568	1.33758	0.93374	3.7694	74.34	-0.253	0.0049	0.258	1236.4293	0.13613	-418.036178	-418.027154	-418.02621	-418.071401	31.018	
O	-0.580440809	-0.0380933327	 1.4226361598	-0.36296
C	-0.2139390123	 0.9445378958	 0.8064952182	 0.373021
C	 1.2355970829	 1.4697522479	 0.9415317392	-0.438342
C	 1.9140342538	 1.7045031105	-0.3276425279	 0.26531
N	 2.431552885	 1.8915332251	-1.3442574368	-0.31516
N	-1.0277276634	 1.6567399922	 0.0021296198	-0.065571
C	-0.9480429209	 2.924125059	-0.7429477508	-0.181382
C	-2.4660529117	 2.7791809434	-1.0517997459	-0.245205
C	-2.4608169318	 1.4587415472	-0.2275491619	-0.160242
H	 1.2293911331	 2.4027509745	 1.5179776211	 0.167228
H	 1.7792993056	 0.7232457755	 1.5240628199	 0.183655
H	-0.6781182923	 3.7859419928	-0.1219407969	 0.118143
H	-0.2792559894	 2.8876809038	-1.6066010114	 0.151796
H	-3.0917476441	 3.5712907247	-0.6408993057	 0.122611
H	-2.697074585	 2.6524840888	-2.1092279394	 0.127221
H	-2.6904599306	 0.5444473558	-0.7826685802	 0.131261
H	-3.0500453	 1.4662863857	 0.6946258889	 0.128616
44.5571	74.322	104.7096	128.6935	167.4357	203.5037	358.6635	380.4971	460.5391	558.1595	600.1659	722.6887	766.2038	842.4331	878.6198	931.3392	942.2444	962.238	968.932	1065.5605	1140.2152	1144.3629	1188.7486	1205.1873	1208.3575	1230.329	1271.7071	1288.0404	1306.2545	1340.3453	1444.5393	1452.8743	1493.2463	1509.6027	1531.3898	1777.4781	2357.9883	3035.34	3049.5474	3050.6511	3093.2251	3097.6441	3098.9353	3122.7032	3154.0497
O=C(CC#N)N1CCC1	O=C(CC#N)N1CCC1	
InChI=1S/C6H8N2O/c7-3-2-6(9)8-4-1-5-8/h1-2,4-5H2	InChI=1S/C6H8N2O/c7-3-2-6(9)8-4-1-5-8/h1-2,4-5H2
