20
gdb 88055	3.03246	1.11177	0.94981	4.3658	82.55	-0.224	0.0268	0.2508	1310.7808	0.170195	-403.147543	-403.138319	-403.137374	-403.182163	33.688	
C	-0.0190654566	 1.4458496007	-0.187565867	-0.406049
C	 0.1110370523	-0.0530535608	-0.0348844769	-0.063683
C	 1.4741290045	-0.7260197136	-0.088402468	-0.351552
C	 0.7120481441	-0.6559124253	 1.202473028	 0.378614
C	 1.1033777861	 0.0251156101	 2.5250719942	-0.341581
C	 0.5256163811	-1.2235736061	 3.258872281	-0.166476
N	 0.1886769517	-1.787050879	 1.9505538005	-0.084221
C	-0.3657092905	-2.9752553886	 1.6371761092	 0.120396
O	-0.7180262285	-3.8064608679	 2.4523681693	-0.339896
H	 0.8128291626	 1.9665111508	 0.2978445776	 0.118083
H	-0.016787162	 1.7346283575	-1.244112778	 0.124742
H	-0.9492855075	 1.8147270681	 0.2582007208	 0.123127
H	-0.7021454788	-0.6282303263	-0.4720913903	 0.095779
H	 1.554811965	-1.6888150675	-0.582402372	 0.121791
H	 2.3522410657	-0.0941991744	-0.1897139	 0.116935
H	 2.174803953	 0.1783858054	 2.662547346	 0.118457
H	 0.576350918	 0.9579422899	 2.7327656427	 0.119038
H	 1.249808356	-1.824934866	 3.8158772185	 0.127666
H	-0.3472036307	-1.0421431856	 3.8926476743	 0.126715
H	-0.4691816756	-3.1153057416	 0.5414299804	 0.062115
44.6782	97.9045	143.1107	189.8386	207.3335	227.1678	314.8616	322.5204	413.893	453.4913	551.8136	587.5638	774.8842	803.6634	834.6116	866.6387	895.2055	911.225	952.3304	1001.2665	1027.1916	1033.4634	1069.1192	1110.6984	1123.4057	1142.2602	1161.3406	1184.0391	1209.1607	1212.1811	1253.3041	1319.7511	1334.1662	1400.4629	1409.2971	1421.2937	1452.7766	1485.5704	1491.5551	1492.6394	1504.9165	1525.1305	1782.2828	2917.7703	3029.4106	3052.2709	3081.274	3093.1759	3095.7243	3098.2323	3119.4842	3134.6289	3136.6593	3208.4664
CC1CC11CCN1C=O	C[C@H]1C[C@]21CCN2C=O	
InChI=1S/C7H11NO/c1-6-4-7(6)2-3-8(7)5-9/h5-6H,2-4H2,1H3	InChI=1S/C7H11NO/c1-6-4-7(6)2-3-8(7)5-9/h5-6H,2-4H2,1H3/t6-,7-/m0/s1
