13
gdb 24806	3.60077	1.28126	0.945	7.4149	77.03	-0.2354	-0.0591	0.1763	1139.1433	0.090246	-415.627272	-415.619848	-415.618904	-415.659402	27.834	
O	-0.0383090522	-0.0725472786	 0.0033556466	-0.356666
C	-0.0459592058	 1.1408660784	 0.0099700186	 0.361979
C	-1.2814723723	 1.9360802489	 0.0315206852	-0.211191
C	-1.2303218942	 3.2810445181	 0.037686909	 0.005137
N	-0.0119768868	 3.9150267285	 0.0235239128	-0.344671
C	 1.1424272726	 3.1631804035	 0.0030225591	 0.249712
N	 1.1704468451	 1.8730041398	-0.0038547256	-0.348241
C	 2.3563835074	 3.9259800288	-0.0102574655	 0.222284
C	 3.3556794521	 4.5937596549	-0.0209250999	-0.338126
H	-2.2276315058	 1.4114308565	 0.0423028352	 0.125523
H	-2.1003464455	 3.9263595156	 0.0534208937	 0.141496
H	 0.0551005344	 4.9199591844	 0.0277534909	 0.277463
H	 4.2558831611	 5.1588427612	-0.0305437501	 0.215301
111.5748	132.7148	145.0623	352.7516	413.6547	437.6578	489.5818	539.0704	542.6259	583.6181	658.5644	681.169	709.0514	732.5634	775.1437	855.8134	907.5654	972.4405	1006.665	1079.5919	1181.2639	1222.2167	1273.3139	1415.5246	1494.3482	1614.8946	1682.242	1781.1724	2241.2473	3205.5671	3230.2094	3496.1346	3648.3461
O=C1C=CNC(=N1)C#C	O=c1cc[nH]c(n1)C#C	
InChI=1S/C6H4N2O/c1-2-5-7-4-3-6(9)8-5/h1,3-4H,(H,7,8,9)	InChI=1S/C6H4N2O/c1-2-5-7-4-3-6(9)8-5/h1,3-4H,(H,7,8,9)
