20
gdb 82044	2.65426	1.51274	1.26112	2.6968	77.67	-0.2394	0.0665	0.306	1083.7443	0.171276	-403.078624	-403.070428	-403.069484	-403.11144	31.591	
C	-0.097234299	 1.6038765483	-0.202072151	-0.419458
C	 0.0600882901	 0.0949565118	-0.0651992475	-0.072099
C	 1.1497396687	-0.6257492331	-0.8581622847	-0.038687
C	 2.497687331	-0.3325793578	-0.3384681394	-0.244819
N	 1.6826464948	-1.3330192272	 0.3808017129	-0.16411
C	 0.709849782	-0.5365351263	 1.2001826039	 0.282485
C	 1.2131332206	 0.2399334308	 2.4314992087	-0.126365
O	 0.3505518931	-0.5074788813	 3.3110951624	-0.276411
C	-0.1230334353	-1.3253936284	 2.2204952361	-0.138297
H	 0.8515833057	 2.1297489661	-0.0569675409	 0.117155
H	-0.4713716804	 1.8640581233	-1.1980058736	 0.121181
H	-0.8105966615	 1.993102155	 0.5325065425	 0.124192
H	-0.9070558726	-0.3897849788	-0.2364794522	 0.084861
H	 0.996668219	-1.1621834218	-1.7892766091	 0.095587
H	 3.3426341898	-0.773894151	-0.8577472769	 0.124201
H	 2.7144808269	 0.6195337239	 0.1413208804	 0.115277
H	 2.2764114809	 0.0793970728	 2.6545398608	 0.105071
H	 0.9954093246	 1.3149608189	 2.4592205069	 0.100877
H	-1.2129324299	-1.2644282636	 2.1038993684	 0.096539
H	 0.1809323917	-2.3744618614	 2.3195510123	 0.11282
74.4859	143.8206	208.7576	221.585	257.7062	274.3475	395.054	458.6948	530.9818	543.9689	718.1049	762.8671	777.4018	844.3902	875.0074	915.5863	948.5907	983.4297	993.3343	1011.9538	1037.5254	1052.4316	1081.4899	1098.4123	1113.8364	1143.2161	1155.1366	1162.9285	1186.2469	1198.3842	1218.7694	1255.7842	1284.4689	1310.1412	1367.0263	1376.1555	1385.2828	1414.2439	1491.6027	1495.5813	1501.0265	1506.8354	1524.0579	3001.9152	3013.6122	3032.7949	3046.9911	3052.2332	3061.8951	3097.9244	3105.3421	3109.2172	3160.3821	3198.5667
CC1C2CN2C11COC1	C[C@H]1[C@H]2CN2C21COC2	
InChI=1S/C7H11NO/c1-5-6-2-8(6)7(5)3-9-4-7/h5-6H,2-4H2,1H3	InChI=1S/C7H11NO/c1-5-6-2-8(6)7(5)3-9-4-7/h5-6H,2-4H2,1H3/t5-,6+,8?/m0/s1
