17
gdb 45265	3.18091	1.63545	1.34029	2.9146	71.05	-0.2262	0.0259	0.2521	960.899	0.138778	-418.003908	-417.996961	-417.996017	-418.035313	27.661	
O	 0.0615852544	-0.0110343305	-0.2919203705	-0.353874
C	 0.0343973055	 1.1641584621	-0.0532841438	 0.418584
N	-0.9864022425	 2.0297520414	 0.2783405441	-0.333961
C	-0.1676437607	 3.2548866468	 0.213013168	 0.010236
C	 0.0846330178	 4.0323842614	 1.5162870817	-0.181618
N	 1.3007608181	 3.5071024665	 2.169775176	-0.099278
C	 1.2267224581	 2.1003801538	 2.5826514895	-0.249362
C	 1.8782888379	 2.4574282337	 1.2946158541	-0.027832
C	 1.0703482815	 2.3226904739	 0.0117092013	-0.197586
H	-1.9874986736	 1.899413075	 0.2422388291	 0.249749
H	-0.4323001082	 3.9015624956	-0.6290866896	 0.092693
H	 0.2701322112	 5.0854894774	 1.2788424455	 0.112901
H	-0.7695296624	 3.9905177797	 2.1999817701	 0.112546
H	 1.8411662046	 1.8512512078	 3.4436841342	 0.118693
H	 0.2657220954	 1.5948013776	 2.5514031899	 0.128349
H	 2.9605106238	 2.4401341538	 1.2141794029	 0.098763
H	 1.666561209	 2.4545475139	-0.8905427124	 0.100995
96.2736	169.8357	279.2733	365.0539	396.9133	416.8004	518.0277	641.5433	691.3561	705.2746	757.5363	775.7385	832.6897	844.4818	888.9522	942.4177	957.2813	1002.4446	1033.4116	1047.5185	1070.3412	1110.157	1124.8626	1152.3258	1159.3246	1170.4428	1225.8641	1251.3904	1277.3444	1298.8986	1329.9318	1349.3438	1376.2438	1391.9948	1485.515	1506.7738	1898.1844	3039.6689	3061.0706	3086.7375	3108.8904	3125.6246	3157.5575	3195.8492	3599.4988
O=C1NC2CN3CC3C12	O=C1N[C@H]2CN3C[C@H]3[C@@H]12	
InChI=1S/C6H8N2O/c9-6-5-3(7-6)1-8-2-4(5)8/h3-5H,1-2H2,(H,7,9)	InChI=1S/C6H8N2O/c9-6-5-3(7-6)1-8-2-4(5)8/h3-5H,1-2H2,(H,7,9)/t3-,4-,5-,8?/m0/s1
