18
gdb 79647	2.57177	1.5504	1.19884	2.151	84.33	-0.2175	0.0211	0.2386	1091.8665	0.146217	-364.681067	-364.672742	-364.671797	-364.713599	32.717	
C	-0.0241517546	 1.616565497	 0.034022921	-0.444141
C	 0.1230474825	 0.1001882663	-0.0647282273	-0.056711
C	 0.4861621429	-0.7562952332	-1.2377401958	-0.155223
C	 1.7837725559	-0.3611697264	-1.956951926	-0.041016
C	 2.5524782579	 0.769585696	-1.3850119651	-0.257591
N	 2.619742582	-0.5446287619	-0.7211212156	-0.170228
C	 1.3316627553	-0.8352932862	 0.0461114295	 0.119481
C	 1.4011879152	-1.8350196274	 1.0535223419	 0.2224
C	 1.4582632073	-2.6766208474	 1.9125323809	-0.374572
H	 0.1229812052	 2.1165345186	-0.9255453763	 0.134588
H	-1.0387150311	 1.8544620571	 0.3678463145	 0.119775
H	 0.665116342	 2.053860423	 0.7632226963	 0.136017
H	-0.6676727739	-0.4034911927	 0.4891749226	 0.113671
H	-0.1701073377	-1.5189840662	-1.6369346256	 0.107072
H	 2.0794141075	-0.8406472947	-2.8841874586	 0.105672
H	 3.4892131492	 1.0026160202	-1.8857110588	 0.125334
H	 2.0922026656	 1.6139175783	-0.8977544428	 0.128803
H	 1.5131626188	-3.4225686905	 2.6658414654	 0.186669
126.3574	131.6569	157.0498	214.9531	299.6172	399.2291	405.113	482.3516	498.0212	548.3346	556.7629	666.2167	669.3008	700.6471	729.1244	760.5239	851.0635	893.0109	915.3333	961.7722	995.3343	1009.0048	1052.8188	1067.034	1093.3124	1098.1153	1110.7183	1143.032	1203.4566	1229.685	1265.6859	1339.4808	1352.281	1411.2208	1453.7821	1492.8157	1502.2165	1515.8432	2228.537	3040.2085	3097.2944	3116.6832	3128.6294	3132.4915	3163.9073	3196.7466	3271.17	3503.6846
CC1C2C3CN3C12C#C	C[C@H]1[C@H]2[C@H]3CN3[C@@]12C#C	
InChI=1S/C8H9N/c1-3-8-5(2)7(8)6-4-9(6)8/h1,5-7H,4H2,2H3	InChI=1S/C8H9N/c1-3-8-5(2)7(8)6-4-9(6)8/h1,5-7H,4H2,2H3/t5-,6+,7-,8-,9?/m0/s1
