18
gdb 75906	2.7728	1.45024	1.16745	3.3538	72.8	-0.259	0.0217	0.2807	1095.781	0.147647	-439.084973	-439.076655	-439.075711	-439.118191	31.252	
C	 0.1596853933	 1.6376782823	-0.1396393885	-0.399493
C	 0.0377723027	 0.1163301037	 0.0459863848	-0.180093
C	 0.6840409741	-0.6246205052	-1.1131308843	 0.415102
N	 0.2353182261	-0.6587105646	-2.2910288063	-0.541616
O	 1.839706489	-1.2369885288	-0.7048173289	-0.244176
C	 2.1086835285	-0.9640391646	 0.676845143	-0.148694
C	 0.8011908038	-0.4343989476	 1.2412332376	 0.392353
C	 0.6138610868	-0.0498836974	 2.6389002464	-0.254753
O	 0.0998920605	-1.2920704223	 2.1455678843	-0.268975
H	 1.2073702582	 1.9540314559	-0.1792213253	 0.119777
H	-0.3158586994	 1.930434406	-1.0784199086	 0.150469
H	-0.3256644077	 2.170898482	 0.6828069101	 0.118661
H	-1.0153450539	-0.1642508342	 0.1167135406	 0.126524
H	 0.8522772133	-1.1995408552	-2.8993726981	 0.223186
H	 2.4145533721	-1.8890843676	 1.1709014156	 0.135231
H	 2.9200775647	-0.2284485463	 0.7445365132	 0.117006
H	 1.443317844	-0.1316199632	 3.3414555755	 0.117796
H	-0.1343170163	 0.6977706072	 2.8986789688	 0.121696
53.3572	143.388	205.2129	227.0866	246.9866	285.6302	356.4282	462.3466	476.6787	530.9963	668.3078	682.8428	780.887	815.5281	834.1309	891.2679	903.2164	969.2967	994.0626	1005.4017	1047.7515	1081.7154	1110.9644	1124.1474	1127.6739	1169.4439	1224.0676	1242.0474	1255.2349	1290.8451	1325.6286	1376.7836	1406.4578	1447.6821	1494.417	1499.7181	1508.5957	1537.4034	1779.6389	3026.5912	3040.1549	3078.4775	3091.625	3108.2329	3112.3188	3131.6139	3162.8949	3474.3122
CC1C(=N)OCC11CO1	C[C@H]1[C]([NH])OC[C@]21CO2	
InChI=1S/C6H9NO2/c1-4-5(7)8-2-6(4)3-9-6/h4,7H,2-3H2,1H3	InChI=1S/C6H9NO2/c1-4-5(7)8-2-6(4)3-9-6/h4,7H,2-3H2,1H3/t4-,6+/m0/s1
