21
gdb 117920	3.31358	0.85517	0.72302	3.528	83.48	-0.2263	-0.0668	0.1595	1607.2787	0.180696	-420.41417	-420.403414	-420.402469	-420.450954	37.316	
C	-0.0496360654	 1.5221275677	 0.0388738997	-0.377584
C	 0.0310557616	-0.0065054016	 0.02960459	-0.179091
C	 0.6990930116	-0.5307011435	-1.2509023714	-0.145384
N	 0.8031333262	-1.9867424074	-1.3392409654	-0.079198
C	-0.4243786107	-2.6839567218	-1.6873547502	-0.351165
C	 1.8376725959	-2.5965800977	-0.6682157107	 0.261341
N	 2.647840036	-1.940594657	 0.0787892581	-0.516822
C	 2.1015498861	-4.0630303688	-0.9703366132	 0.094193
O	 2.881240052	-4.7130221989	-0.3223694518	-0.237893
H	 0.9485733569	 1.9689733259	-0.0222596623	 0.123656
H	-0.634230101	 1.8987632438	-0.8085045364	 0.110302
H	-0.5212896202	 1.8875951526	 0.9557371045	 0.116044
H	 0.6109305008	-0.3595144567	 0.8871358045	 0.133635
H	-0.9775887725	-0.4284285907	 0.1228142171	 0.09009
H	 0.1388849021	-0.1910912294	-2.1318824653	 0.092625
H	 1.7136632118	-0.1296274025	-1.3156125345	 0.134869
H	-0.2786931295	-3.7634434973	-1.7152850495	 0.134102
H	-1.2265838053	-2.483488469	-0.9636574388	 0.132503
H	-0.7724164131	-2.3611577248	-2.6751534638	 0.131904
H	 3.380240811	-2.5789135435	 0.3940018007	 0.234047
H	 1.5998544258	-4.4977603894	-1.8575869613	 0.097825
62.9109	72.9645	78.7026	114.4276	122.0673	171.1042	232.1725	286.7761	299.3649	330.2548	390.2069	397.6602	555.1306	570.3529	636.9324	748.5793	837.5045	876.2251	881.78	895.0783	973.2883	1025.0067	1040.2447	1086.0407	1118.3587	1136.9359	1152.3976	1230.9212	1257.6879	1314.9238	1332.997	1360.4518	1403.552	1407.2145	1416.0964	1459.7063	1467.5732	1477.1848	1482.2717	1492.1543	1500.4905	1507.5477	1530.8098	1667.6379	1818.0214	2928.4962	3006.6327	3021.7951	3029.3902	3030.8024	3062.3332	3082.7855	3097.7392	3106.7622	3112.292	3146.893	3470.5552
CCCN(C)C(=N)C=O	CCCN(C)C(=N)C=O	
InChI=1S/C6H12N2O/c1-3-4-8(2)6(7)5-9/h5,7H,3-4H2,1-2H3	InChI=1S/C6H12N2O/c1-3-4-8(2)6(7)5-9/h5,7H,3-4H2,1-2H3
