18
gdb 22492	4.05115	0.97507	0.86241	0.6302	71.25	-0.2271	-0.0036	0.2235	1343.0004	0.14841	-472.347666	-472.338674	-472.337729	-472.381801	33.338	
O	-0.8857213473	 1.2469981697	-1.1954422098	-0.414283
C	-1.7467513152	 1.1169232104	-0.067039725	-0.141018
C	-2.1563912349	-0.3172615917	 0.1535183319	 0.283719
C	-2.9214043505	-1.0261815214	-0.937790377	-0.270531
N	-3.4129048387	-2.3420794777	-0.5257275105	-0.274418
C	-2.4451517023	-2.9797214187	 0.3175244066	 0.147416
N	-2.8822474485	-4.2600589565	 0.7652901552	-0.507545
H	-2.1681773172	-4.6689397202	 1.3597106218	 0.246179
H	-3.7149829894	-4.1589105275	 1.3403190547	 0.232961
N	-1.8110740965	-0.8359540312	 1.2739435175	-0.126694
O	-2.1271041703	-2.1733950418	 1.5006522424	-0.282722
H	-0.0589240723	 0.8047227494	-0.9744103792	 0.287965
H	-1.2918423934	 1.5028391813	 0.8533659417	 0.116414
H	-2.6242622826	 1.7305472162	-0.3028918636	 0.113067
H	-3.771967302	-0.4072025356	-1.2447663295	 0.125963
H	-2.287628292	-1.1212186903	-1.8289584772	 0.141191
H	-4.282934295	-2.2391804945	-0.0105117818	 0.222799
H	-1.5092489819	-3.0833392298	-0.2477729483	 0.099538
56.1875	84.5958	190.0935	198.3094	227.1877	297.9643	370.5737	387.2374	424.7192	445.055	529.0543	556.1343	582.7045	729.067	769.0156	818.5813	882.2726	906.5484	927.0196	949.5268	999.6974	1047.571	1070.002	1121.2326	1177.4536	1204.6372	1229.7177	1247.5141	1324.8496	1353.5381	1370.9362	1386.8718	1413.7636	1436.6551	1474.6577	1491.7414	1501.1942	1669.2993	1681.1019	3024.022	3024.6808	3030.3826	3067.2313	3073.9274	3496.7031	3506.7733	3579.3703	3807.1187
OCC(CNC=[NH2+])=N[O-]	OCC1=NO[C@H](NC1)N	
InChI=1S/C4H9N3O2/c5-3-6-1-4(2-8)7-9/h3,8-9H,1-2H2,(H2,5,6)	InChI=1S/C4H9N3O2/c5-4-6-1-3(2-8)7-9-4/h4,6,8H,1-2,5H2/t4-/m0/s1
