23
gdb 60102	3.43178	0.96524	0.89924	1.4285	86.28	-0.2288	0.0765	0.3053	1443.418	0.204495	-388.2582	-388.248546	-388.247602	-388.293131	36.577	
C	 0.0946120456	 1.5972663428	-0.0400292346	-0.385772
C	 0.0177420834	 0.0656966025	 0.0063181471	 0.052924
C	 0.6303948997	-0.5521402559	-1.2568725582	-0.39593
C	 0.6918112035	-0.5179698979	 1.2672169585	-0.306881
C	 0.0069234393	-0.1477461738	 2.5462010931	 0.491705
C	 0.270854445	 1.0290030785	 3.4379679626	-0.322431
C	 0.3089172838	-0.3735317021	 4.0153402619	-0.206626
C	-1.1139313936	-0.9071505586	 4.0938740707	-0.084327
O	-1.361725455	-0.5697263709	 2.7026450757	-0.326183
H	 1.1376035697	 1.9364786888	-0.0744515319	 0.104159
H	-0.4073710309	 1.9849832772	-0.9327036155	 0.108841
H	-0.3772977517	 2.0531255621	 0.8341853404	 0.125313
H	-1.0407791641	-0.2215830742	 0.0485549847	 0.096096
H	 1.6963661852	-0.3056102675	-1.3373449987	 0.10834
H	 0.5405655212	-1.6436379341	-1.2538176468	 0.109788
H	 0.1357030497	-0.1771737232	-2.1588965227	 0.109485
H	 0.7063083041	-1.6122332931	 1.1839646255	 0.0986
H	 1.7377390916	-0.187296778	 1.3166594763	 0.094187
H	 1.2444321243	 1.4956010534	 3.3234227144	 0.112894
H	-0.5388646264	 1.70822295	 3.6933242411	 0.11028
H	 1.1795863629	-0.7931981777	 4.5012744386	 0.098065
H	-1.1725833128	-1.9916398427	 4.2422243265	 0.106214
H	-1.8116233145	-0.4038974957	 4.7747069314	 0.10126
43.5616	79.436	127.5285	220.4215	236.3706	249.2872	311.6257	337.2881	380.2078	412.106	436.3299	458.4542	718.7728	750.2885	799.7749	854.9014	868.6232	911.5319	931.7418	947.4208	954.5231	967.6907	973.7513	988.7203	999.1721	1020.0428	1074.8727	1081.2187	1131.8477	1145.2647	1171.5104	1191.1955	1201.873	1266.1699	1274.0986	1324.0998	1342.8582	1365.6725	1375.4312	1399.4874	1410.2469	1421.458	1470.7519	1486.0819	1489.5694	1494.7284	1504.6458	1508.7503	1520.2237	3014.3164	3017.8116	3020.6694	3022.4013	3030.417	3057.9092	3065.217	3084.5575	3091.8962	3098.5967	3109.3335	3115.4335	3196.6266	3206.0572
CC(C)CC12CC1CO2	CC(C)C[C@]12C[C@H]1CO2	
InChI=1S/C8H14O/c1-6(2)3-8-4-7(8)5-9-8/h6-7H,3-5H2,1-2H3	InChI=1S/C8H14O/c1-6(2)3-8-4-7(8)5-9-8/h6-7H,3-5H2,1-2H3/t7-,8-/m0/s1
