16
gdb 123772	4.17012	1.4093	1.15962	5.2422	76.24	-0.2496	0.0095	0.2591	1039.455	0.126246	-396.872599	-396.86568	-396.864736	-396.904093	26.83	
C	 0.0980016265	 1.5995528261	 0.1837737141	-0.318665
C	 1.3074910991	 0.7341805678	-0.1287938279	-0.318676
C	-0.0294289966	 0.115142655	 0.1061191373	 0.378023
C	-0.5128490538	-0.938054495	 1.1516527849	-0.476299
C	-1.2637364574	-1.5619286848	-0.0265413863	 0.292699
C	-2.0504346035	-2.3775164387	-0.8101564236	-0.203945
N	-2.0111733088	-1.8639862346	-2.0803523623	-0.186211
N	-1.2551723223	-0.7864112479	-2.1375428896	-0.191365
N	-0.8169728898	-0.6288522822	-0.881154307	 0.065267
H	 0.0299754834	 2.0608908842	 1.1631321621	 0.131146
H	-0.3313636152	 2.1806173821	-0.6246205115	 0.14747
H	 1.6841109647	 0.7385917557	-1.1454693757	 0.147462
H	 2.0644409341	 0.6052654036	 0.6373734329	 0.131149
H	 0.2807639555	-1.5530956613	 1.581027678	 0.139111
H	-1.1415559562	-0.5353891622	 1.9485521307	 0.139126
H	-2.6236160197	-3.2602260278	-0.583369566	 0.123708
94.3477	182.0849	204.8867	296.1069	434.7125	483.4237	519.0629	682.9906	694.4447	695.6808	765.1722	830.0342	856.615	859.2059	931.9934	960.4955	1003.8015	1042.0684	1058.0945	1063.6045	1081.7336	1108.1152	1138.9798	1149.1661	1187.5058	1215.8034	1227.1156	1273.0631	1299.9789	1394.8764	1453.7318	1466.6926	1495.4857	1500.0099	1544.5885	3075.3752	3128.1441	3137.4952	3139.2994	3221.3826	3234.2928	3283.8363
C1CC11CC2=CN=NN12	C1CC21Cc1cnnn21	
InChI=1S/C6H7N3/c1-2-6(1)3-5-4-7-8-9(5)6/h4H,1-3H2	InChI=1S/C6H7N3/c1-2-6(1)3-5-4-7-8-9(5)6/h4H,1-3H2
