24
gdb 85975	3.25322	1.03646	0.97769	0.9314	90.32	-0.2221	0.0865	0.3086	1386.7283	0.216323	-368.376678	-368.366948	-368.366004	-368.411385	37.65	
C	-0.9936295854	 0.7575628123	-0.5225981215	-0.409762
C	 0.2155303837	-0.0983894394	-0.1814426542	 0.071541
C	 1.5259690347	 0.100052306	-0.9938475258	-0.258813
C	 2.3427263888	-0.0403721079	 0.3273229255	 0.339448
C	 3.4756582008	 0.9623389536	 0.5415571745	-0.485314
C	 1.0195171177	 0.2229947184	 1.1096590186	-0.258814
N	 2.6731594434	-1.4629102226	 0.489993276	-0.094295
C	 3.9517669043	-2.0032051302	 0.0596302538	-0.230274
C	 3.6030666701	-1.9184477131	 1.509666051	-0.23027
H	-0.737114501	 1.8237912275	-0.5231584135	 0.104905
H	-1.3895312634	 0.5115699741	-1.5146928676	 0.111277
H	-1.8029093026	 0.6119311295	 0.2022185824	 0.111277
H	-0.0585927959	-1.156591404	-0.1855960824	 0.082274
H	 1.7544901037	-0.6220012187	-1.7813144098	 0.094706
H	 1.5986417831	 1.1126646176	-1.4046978338	 0.085211
H	 3.10066352	 1.9787927822	 0.3916412982	 0.11533
H	 3.883688247	 0.9148445681	 1.5570824688	 0.116369
H	 4.2988965413	 0.8139200766	-0.1657555452	 0.116362
H	 0.9246942532	 1.2762614694	 1.3944401451	 0.085209
H	 0.8466859809	-0.4016313839	 1.9892401687	 0.094707
H	 3.9080972734	-2.953136723	-0.4672678207	 0.111897
H	 4.7258898127	-1.327107781	-0.2966999582	 0.107566
H	 4.1492478299	-1.186950583	 2.1012135762	 0.107566
H	 3.3001764095	-2.8053642686	 2.0606091741	 0.111897
42.5756	77.9166	196.521	219.4646	244.2097	263.0136	304.3195	317.0913	349.0571	396.5892	431.9139	509.9438	586.8689	673.6005	785.3661	817.8746	821.7421	897.9776	900.9591	902.6985	928.9113	941.1577	969.2501	994.8523	1029.0901	1070.4615	1082.4734	1110.3724	1117.4795	1127.4175	1163.6918	1166.4829	1196.1198	1201.4143	1210.8869	1237.0164	1259.592	1294.8072	1297.6324	1335.5405	1366.7031	1403.4992	1411.2462	1463.3669	1482.1379	1484.4643	1492.6211	1497.0263	1497.6362	1508.0551	1524.0294	3018.6307	3029.0125	3042.528	3048.2979	3064.521	3086.3212	3087.8212	3090.7181	3100.4812	3101.3498	3103.4697	3106.3296	3112.3959	3171.7093	3186.0958
CC1CC(C)(C1)N1CC1	C[C@H]1C[C@@](C)(C1)N1CC1	
InChI=1S/C8H15N/c1-7-5-8(2,6-7)9-3-4-9/h7H,3-6H2,1-2H3	InChI=1S/C8H15N/c1-7-5-8(2,6-7)9-3-4-9/h7H,3-6H2,1-2H3/t7-,8-
