18
gdb 117279	4.65148	0.70337	0.61797	2.4339	70.74	-0.2631	-0.0196	0.2436	1760.9646	0.144455	-476.260719	-476.250308	-476.249364	-476.297723	35.388	
C	-0.0693473367	 1.438000041	-0.4495020072	-0.441558
C	-0.2447944675	 0.0691667219	 0.1344859927	 0.397011
N	-0.5738777182	-0.1538603851	 1.3256520011	-0.482433
O	 0.0239549751	-0.873803935	-0.8840103703	-0.272052
C	-0.0405649212	-2.2219764548	-0.7048591532	 0.449266
O	-0.3293043708	-2.7745160086	 0.3264244846	-0.340829
C	 0.3044630011	-2.9259070403	-1.9946800209	-0.308724
C	 0.2556963374	-4.44214395	-1.8638092852	-0.071817
O	 0.596264492	-4.9710577131	-3.1347550042	-0.421758
H	 0.9499739483	 1.5631026521	-0.8282896052	 0.14222
H	-0.7491880979	 1.5817254684	-1.2952484696	 0.142203
H	-0.2720708046	 2.1835416377	 0.3180915696	 0.153075
H	-0.6380220573	-1.1515424151	 1.5190817592	 0.258834
H	-0.3854397732	-2.5883328733	-2.7763401091	 0.147065
H	 1.3003395244	-2.6027772211	-2.318121069	 0.146981
H	 0.9569631062	-4.7684805573	-1.0826279597	 0.105817
H	-0.7495244284	-4.7536234336	-1.5460287275	 0.105942
H	 0.5716146812	-5.9304056535	-3.0761564261	 0.290758
48.7536	52.662	82.2663	115.9501	124.023	166.9285	265.871	269.7751	306.4565	384.6967	429.1978	533.6494	540.3192	578.6686	746.3671	806.3259	821.9334	933.955	965.8087	1012.4771	1045.1227	1074.6076	1078.0171	1082.3683	1089.5287	1172.4245	1209.8615	1256.801	1301.0628	1311.8775	1361.3379	1409.0982	1455.0395	1470.9533	1473.8814	1476.6184	1525.2039	1750.8514	1828.7937	2996.3561	3026.3778	3049.9157	3053.2929	3090.1941	3108.0202	3169.5886	3520.4013	3834.6951
CC(=N)OC(=O)CCO	C[C]([NH])OC(=O)CCO	
InChI=1S/C5H9NO3/c1-4(6)9-5(8)2-3-7/h6-7H,2-3H2,1H3	InChI=1S/C5H9NO3/c1-4(6)9-5(8)2-3-7/h6-7H,2-3H2,1H3
