19
gdb 86155	2.85566	1.30296	0.94857	3.783	79.07	-0.2524	-0.0594	0.1929	1240.3152	0.159731	-423.070397	-423.061962	-423.061017	-423.103275	32.677	
C	-0.0134040107	 1.5712618144	 0.0092567625	-0.406505
C	 0.0238409681	 0.0353947411	-0.0153668277	-0.044224
C	 0.6510825757	-0.5054166281	-1.3117831151	-0.234455
C	 0.8645133458	-2.0185174771	-1.2288127508	 0.036667
O	 1.4030365817	-2.5368984706	-2.4124169178	-0.446689
C	 1.7687920906	-2.3479889248	-0.0422844591	 0.356498
O	 2.6291806447	-3.2035055626	-0.155740237	-0.361395
C	 1.5238035069	-1.5916582658	 1.1939022164	-0.169556
C	 0.724182808	-0.5154858239	 1.2013777614	-0.022235
H	 0.9990847928	 1.9875487583	-0.0190142964	 0.126566
H	-0.5599566522	 1.9565534879	-0.8567022304	 0.124413
H	-0.5067911101	 1.9435816177	 0.9129189349	 0.117735
H	-1.0194226627	-0.3197974325	 0.0339990825	 0.101815
H	 0.0190047576	-0.2713738383	-2.1740587664	 0.113051
H	 1.6217305222	-0.0226553233	-1.4827988741	 0.109785
H	-0.1127429481	-2.492519848	-1.0074081393	 0.085968
H	 2.0960035596	-3.1527698026	-2.1225279103	 0.29035
H	 2.0370919456	-1.9358363824	 2.0862014551	 0.113229
H	 0.5591436344	 0.0180393806	 2.1363121316	 0.108982
85.6139	150.9008	223.0011	254.2682	282.7472	337.0057	365.393	415.3396	427.4163	484.4855	523.2968	581.2844	658.0583	733.711	767.2446	843.5059	853.2963	949.2531	966.5909	1019.9946	1032.0959	1061.8862	1102.8295	1134.7988	1154.9637	1157.2594	1213.9191	1237.9038	1286.6887	1295.1447	1334.2362	1349.4018	1384.6161	1405.4102	1419.1078	1444.2254	1492.6768	1497.6156	1501.845	1672.2439	1768.0008	2904.8806	2964.6363	3032.2047	3035.7591	3085.9212	3104.078	3110.6722	3142.0497	3188.5521	3675.6357
CC1CC(O)C(=O)C=C1	C[C@H]1C[C@@H](O)C(=O)C=C1	
InChI=1S/C7H10O2/c1-5-2-3-6(8)7(9)4-5/h2-3,5,7,9H,4H2,1H3	InChI=1S/C7H10O2/c1-5-2-3-6(8)7(9)4-5/h2-3,5,7,9H,4H2,1H3/t5-,7-/m1/s1
