23
gdb 89844	2.76572	1.25899	1.07374	1.8292	84.96	-0.2535	0.0721	0.3257	1255.3196	0.205737	-388.294909	-388.285737	-388.284792	-388.328669	35.908	
C	 0.3657625146	 1.6693187358	-0.1370879319	-0.397909
C	 0.0994746598	 0.1637299332	-0.0047108564	-0.003899
C	 0.7134075528	-0.6286490376	-1.1772072325	-0.293803
C	 2.1741439653	-0.8115277007	-0.7743445512	 0.451622
C	 3.1663766106	-1.4800001404	-1.6204358018	-0.257618
O	 3.153424394	-0.054487459	-1.5034722204	-0.277422
C	 2.2494074995	-0.7356142717	 0.753872568	-0.310473
C	 0.7908399396	-0.5035265054	 1.2191390019	 0.044553
C	 0.6658903987	 0.227194189	 2.5548536626	-0.416355
H	 1.4363905243	 1.8905148108	-0.1999489159	 0.133031
H	-0.0998821903	 2.0581748056	-1.0485124722	 0.112733
H	-0.0457611824	 2.2285705962	 0.7083169079	 0.112079
H	-0.9838883189	 0.0073619808	 0.0489361806	 0.060926
H	 0.2292127229	-1.6102155989	-1.2572719617	 0.096257
H	 0.6291864161	-0.1315972189	-2.147280541	 0.105466
H	 4.0208584995	-1.9794680502	-1.163503347	 0.106855
H	 2.8745286113	-1.8722738084	-2.5952581327	 0.106352
H	 2.6863139748	-1.6337742608	 1.2005924966	 0.100513
H	 2.8944652487	 0.106178698	 1.0280577106	 0.116057
H	 0.3208606766	-1.4903041391	 1.3328025324	 0.068733
H	 1.1588884835	 1.2042968738	 2.5282757362	 0.119333
H	-0.3834929361	 0.3873091655	 2.8260631254	 0.110886
H	 1.129952945	-0.3520162078	 3.3604243824	 0.112082
51.9415	127.8486	225.423	230.49	261.3343	284.9061	317.5797	374.7206	399.7141	407.5877	457.8922	520.5356	631.6874	758.8831	771.0346	811.7366	854.8148	896.5792	915.2577	933.1666	942.5292	976.2176	1020.3551	1030.9734	1070.8212	1089.9834	1113.2797	1128.4606	1147.9445	1175.7245	1211.2132	1219.2515	1246.5858	1265.5781	1284.2831	1319.261	1336.0075	1376.1676	1382.9444	1412.345	1414.5624	1425.7454	1472.0438	1486.9556	1495.0319	1496.4508	1505.0418	1511.5453	1531.9113	2999.0635	3024.1766	3029.5299	3035.8825	3041.3988	3047.6595	3067.9942	3087.5585	3092.2733	3095.935	3100.1548	3104.5174	3108.9746	3150.6062
CC1CC2(CO2)CC1C	C[C@H]1C[C@]2(CO2)C[C@H]1C	
InChI=1S/C8H14O/c1-6-3-8(5-9-8)4-7(6)2/h6-7H,3-5H2,1-2H3	InChI=1S/C8H14O/c1-6-3-8(5-9-8)4-7(6)2/h6-7H,3-5H2,1-2H3/t6-,7+,8+
