16
gdb 125448	6.86456	0.82883	0.74888	2.5519	79.46	-0.2061	0.0047	0.2109	1482.9304	0.125772	-430.291404	-430.282505	-430.281561	-430.326385	31.304	
C	-0.2105054281	 1.4396515564	 0.0546122099	-0.495444
C	 0.0171148626	-0.0294362996	-0.0626969689	 0.367171
N	-0.1410311167	-0.7692680546	-1.1443642242	-0.356459
C	 0.1767188172	-2.0307162501	-0.7192674357	 0.384182
N	 0.1449481783	-3.1042697332	-1.5885645804	-0.329106
C	-0.0323848234	-4.2703304198	-1.0914132226	 0.11655
N	 0.0621624042	-5.3946077517	-1.8502023352	-0.494867
N	 0.5386888227	-2.1067992495	 0.5628528042	-0.300436
N	 0.4156638261	-0.813752436	 0.9618708307	-0.23929
H	 0.1993785069	 1.8344945181	 0.9884913749	 0.12092
H	 0.2620727989	 1.9596995191	-0.7821177512	 0.15844
H	-1.2800693012	 1.672238142	 0.0254082823	 0.151396
H	-0.2343784043	-4.4520536845	-0.0306429555	 0.12143
H	 0.1204512895	-5.2680235036	-2.8493498703	 0.264973
H	-0.3620642009	-6.2445953372	-1.5213506919	 0.261057
H	 0.6647653682	-0.5542083858	 1.9019550039	 0.269484
23.8744	73.9831	139.6629	153.881	249.9903	309.08	355.0641	400.6109	436.8838	502.1772	519.4661	600.0235	693.5493	696.12	785.3276	821.7882	993.3884	1016.3203	1025.2535	1058.5749	1073.9573	1117.4855	1186.4678	1261.1034	1307.1803	1355.3712	1395.9054	1421.3841	1455.1175	1473.4345	1507.2038	1524.2047	1584.4204	1626.8737	1733.1426	3044.0189	3077.6676	3106.6455	3128.4141	3589.995	3660.1927	3722.3076
CC1=NC(N=CN)=NN1	Cc1nc(N=CN)n[nH]1	
InChI=1S/C4H7N5/c1-3-7-4(6-2-5)9-8-3/h2H,1H3,(H3,5,6,7,8,9)	InChI=1S/C4H7N5/c1-3-7-4(6-2-5)9-8-3/h2H,1H3,(H3,5,6,7,8,9)
