14
gdb 64577	2.67179	1.51245	1.2616	4.8297	64.28	-0.2423	-0.0637	0.1785	997.5421	0.098914	-473.782383	-473.774489	-473.773545	-473.814954	29.168	
O	-0.0916687748	 1.4747953188	 0.1002135563	-0.465161
C	-0.0691461646	 0.1016969993	 0.0159339218	 0.241189
C	 0.9003949688	-0.4903305803	 1.0185620744	 0.111568
O	 1.5876412429	 0.2218809248	 1.7095935456	-0.270411
C	-1.407764416	-0.6704602601	 0.0000847226	-0.112838
N	-2.1172800346	-0.2467696796	-1.2040000158	-0.315358
C	-1.0958124519	-1.3467869206	-1.3111846266	-0.188351
C	 0.2156841409	-0.6139877383	-1.3995214481	 0.38294
O	 1.1649921586	-0.6400466923	-2.1177972543	-0.289017
H	 0.5861992721	 1.7120478183	 0.7555050255	 0.298565
H	 0.9516547625	-1.5944589523	 1.0787201635	 0.109452
H	-1.9256377803	-1.0905522962	 0.8530421666	 0.121145
H	-3.0272426556	-0.7088444588	-1.2055497873	 0.248242
H	-1.363807858	-2.3269376226	-1.6815783243	 0.128036
101.0662	122.427	195.6491	223.315	296.9102	311.2557	403.5883	480.3092	549.0478	592.4055	641.5192	754.0207	780.9333	823.9936	842.7289	865.5365	921.5306	962.0059	1011.1981	1046.8752	1059.7766	1101.6163	1124.204	1238.2046	1267.8061	1312.1181	1353.2304	1386.409	1441.4744	1800.174	1905.6791	2950.6791	3197.9299	3219.2033	3469.0764	3664.537
OC1(C=O)C2NC2C1=O	O[C@@]1(C=O)[C@H]2N[C@H]2C1=O	
InChI=1S/C5H5NO3/c7-1-5(9)3-2(6-3)4(5)8/h1-3,6,9H	InChI=1S/C5H5NO3/c7-1-5(9)3-2(6-3)4(5)8/h1-3,6,9H/t2-,3+,5+/m1/s1
