18
gdb 36165	3.69261	1.20439	1.10952	1.5475	81.4	-0.2291	0.0495	0.2786	1142.8529	0.147013	-364.67784	-364.670044	-364.6691	-364.710466	30.602	
C	-0.0427817071	-1.2199092452	 0.0711778213	-0.45098
C	-0.0398227278	-0.0195447068	 0.0093966452	 0.301844
C	 0.0111123301	 1.4364026165	-0.0667892243	-0.495727
C	 1.4360345209	 1.9683528125	-0.0690173101	 0.328685
C	 2.5790516392	 1.7221102001	-1.0472460536	-0.224144
N	 3.257176051	 2.6685896991	-0.0613295855	-0.161214
C	 1.9231979275	 3.445409183	 0.0993915124	-0.05615
C	 2.0116511701	 3.3647985409	 1.6262757982	-0.262377
C	 2.4721688395	 2.0018593511	 1.10121945	-0.030017
H	-0.061753486	-2.280105572	 0.1253477444	 0.197729
H	-0.5019696094	 1.7772297475	-0.9761453298	 0.134376
H	-0.5406090413	 1.8725837358	 0.7767474141	 0.132603
H	 3.0269302604	 0.7239258732	-1.0745490993	 0.107541
H	 2.4926006086	 2.1347119874	-2.0585768041	 0.097129
H	 1.7015805455	 4.2950877191	-0.5499134324	 0.081373
H	 2.782371639	 3.9828309342	 2.0935819501	 0.111566
H	 1.0740373098	 3.3963665085	 2.1866225808	 0.099627
H	 2.89615436	 1.1481355752	 1.6322730727	 0.088133
57.8641	106.4355	242.5723	289.2445	342.8389	402.7326	431.9896	481.8455	622.8231	632.8464	663.6798	722.8187	784.1881	846.4809	865.9956	873.7444	904.2847	921.456	940.678	970.2318	1012.2147	1014.8499	1063.6108	1089.1383	1116.2311	1121.2712	1141.7475	1183.5327	1198.0233	1223.046	1241.7407	1269.8931	1294.0987	1320.4066	1346.7497	1460.454	1490.0962	1520.857	2238.0004	3012.2875	3035.8556	3043.8977	3059.7848	3093.6553	3097.6454	3107.1463	3124.5737	3505.7227
C#CCC12CN3C1CC23	C#CC[C@@]12CN3[C@@H]1C[C@@H]23	
InChI=1S/C8H9N/c1-2-3-8-5-9-6(8)4-7(8)9/h1,6-7H,3-5H2	InChI=1S/C8H9N/c1-2-3-8-5-9-6(8)4-7(8)9/h1,6-7H,3-5H2/t6-,7+,8-
