16
gdb 26731	3.35155	1.28147	0.93658	4.1175	74.69	-0.2251	-0.0421	0.183	1198.2192	0.124738	-434.123945	-434.115086	-434.114142	-434.157856	31.284	
C	-0.1604555438	 1.5097080371	 0.0495542378	-0.491788
C	-0.0903003774	 0.021634433	-0.02760416	 0.255341
C	 0.0575971144	-0.7681716161	-1.1321933222	 0.167257
N	 0.1491047057	-0.5242907245	-2.515219569	-0.615545
N	 0.0550901574	-2.0904984376	-0.6523000548	-0.080012
C	 0.1187120294	-3.2636359745	-1.4063527874	 0.176332
O	 0.1187332189	-4.3647287298	-0.9209652183	-0.291779
C	-0.0853113464	-2.0012115863	 0.7191383499	 0.018635
N	-0.1833259753	-0.7674886281	 1.117977651	-0.321403
H	 0.030958455	 1.9658852818	-0.9261623011	 0.106246
H	-1.1440421509	 1.8454315007	 0.3967463961	 0.140081
H	 0.579027399	 1.8954540123	 0.7587079703	 0.143312
H	 1.0989694413	-0.3459423319	-2.8264373169	 0.253584
H	-0.4286275734	 0.2581441074	-2.7958811137	 0.255934
H	 0.1618053381	-3.0489711531	-2.485197835	 0.123114
H	-0.1021434121	-2.8882325405	 1.3324926635	 0.160692
77.4844	105.6033	131.3885	196.3137	215.3745	272.3326	282.9118	312.1315	395.3888	537.8982	642.9131	668.6141	692.5268	736.1243	782.7802	849.8796	854.3321	969.416	1054.5019	1055.7238	1064.4509	1198.9437	1207.9748	1245.1749	1279.8104	1378.5461	1415.0769	1424.7932	1429.7057	1476.6261	1491.0608	1538.7013	1638.9022	1671.1213	1821.0128	3030.5497	3033.5759	3090.6433	3111.3931	3272.9355	3502.8756	3596.0705
CC1=C(N)N(C=O)C=N1	Cc1c(N)n(C=O)cn1	
InChI=1S/C5H7N3O/c1-4-5(6)8(3-9)2-7-4/h2-3H,6H2,1H3	InChI=1S/C5H7N3O/c1-4-5(6)8(3-9)2-7-4/h2-3H,6H2,1H3
