17
gdb 13127	4.07346	1.17332	0.9709	2.1888	65.49	-0.2631	0.023	0.2861	1172.2648	0.1423	-400.990452	-400.982161	-400.981216	-401.023841	29.487	
O	 0.2163873428	 1.3894476202	 0.1413225689	-0.418613
C	 0.1061390281	-0.0212832345	 0.0323203911	-0.072606
C	-1.3502499787	-0.4947001877	 0.105001307	-0.22345
C	-1.4762947957	-2.0144922604	 0.0238471685	-0.133303
C	-2.8869210383	-2.6377136174	-0.0839508543	-0.107898
O	-2.5383789719	-3.2236628892	-1.3777364281	-0.251828
C	-1.2825717429	-2.655008215	-1.3402726315	 0.441107
N	-0.3532740852	-2.6710373946	-2.1825747137	-0.543497
H	-0.1002790347	 1.772995366	-0.6823159777	 0.282987
H	 0.5763490146	-0.4011485516	-0.8844695971	 0.12977
H	 0.6683278571	-0.430575111	 0.8797077274	 0.108913
H	-1.7930926541	-0.1358764185	 1.0416466702	 0.110523
H	-1.9218075806	-0.0372081457	-0.7140157387	 0.094641
H	-0.8586359378	-2.4937068456	 0.7900736648	 0.109977
H	-3.1420692272	-3.4131528914	 0.6417665394	 0.122744
H	-3.7112023479	-1.9271325493	-0.1898830034	 0.121434
H	-0.6093200074	-3.2062700443	-3.014149993	 0.2291
84.207	96.5614	116.4083	186.6136	249.0524	288.4572	350.6049	409.0157	473.3476	667.2909	748.9676	781.5671	841.3592	867.124	919.2264	961.9463	990.6358	1018.9411	1068.8073	1077.6999	1092.4008	1122.0108	1154.5454	1179.6674	1233.2858	1246.0933	1296.1845	1317.7058	1353.6691	1382.383	1407.4941	1423.6324	1487.3733	1515.9192	1516.9357	1819.035	3014.6094	3022.4675	3055.0454	3060.1101	3065.3165	3082.1167	3120.8642	3474.5723	3821.3718
OCCC1COC1=N	OCC[C@H]1CO[C]1[NH]	
InChI=1S/C5H9NO2/c6-5-4(1-2-7)3-8-5/h4,6-7H,1-3H2	InChI=1S/C5H9NO2/c6-5-4(1-2-7)3-8-5/h4,6-7H,1-3H2/t4-/m0/s1
