17
gdb 65464	3.08609	0.93554	0.88192	2.1634	71.93	-0.2638	-0.0397	0.2241	1354.2895	0.132246	-458.982115	-458.972522	-458.971578	-459.017545	33.119	
C	 0.3599272731	 1.6399167424	 0.0726334108	-0.494044
C	 0.069222515	 0.1551407227	 0.0397202239	 0.176059
C	 1.195709108	-0.8421448865	-0.2438168027	-0.346335
C	 0.6501050141	-0.7662522877	 1.1254832356	 0.107222
O	 1.4796456865	-0.1938627529	 2.1044345645	-0.185754
C	 0.9558587143	-0.0539114557	 3.346466542	 0.173078
O	 1.5633822345	 0.4489616821	 4.2398291238	-0.263438
C	-1.282180767	-0.2657511258	-0.4205699613	 0.094096
O	-1.6264602836	-1.4176810061	-0.552128605	-0.270614
H	 1.3115964624	 1.8424338227	 0.5673736849	 0.149471
H	 0.4087744794	 2.0530637401	-0.9401114787	 0.132734
H	-0.419956341	 2.1826104509	 0.6185144479	 0.128514
H	 0.9360859237	-1.7104889894	-0.8384810953	 0.149402
H	 2.1797931995	-0.418047772	-0.4076248251	 0.141433
H	 0.0053060815	-1.5666572392	 1.4771753159	 0.135648
H	-0.0689533146	-0.4621302331	 3.4275388512	 0.090185
H	-1.9870257159	 0.5702234975	-0.6261816125	 0.082345
48.6312	85.9101	124.4699	144.3265	158.5321	226.9356	252.2707	311.5189	334.5533	436.9889	473.3699	606.4359	656.28	738.5162	784.8858	904.0724	930.2004	961.3184	1031.5805	1044.3494	1064.8745	1087.5868	1110.7357	1120.3024	1181.3919	1187.1686	1271.1602	1306.2866	1387.3858	1420.0747	1427.8489	1432.1385	1466.1708	1495.8178	1499.4788	1800.2983	1875.026	2887.4124	2967.0203	3036.76	3095.485	3135.1923	3141.8655	3155.5938	3241.1391
CC1(CC1OC=O)C=O	C[C@]1(C[C@H]1OC=O)C=O	
InChI=1S/C6H8O3/c1-6(3-7)2-5(6)9-4-8/h3-5H,2H2,1H3	InChI=1S/C6H8O3/c1-6(3-7)2-5(6)9-4-8/h3-5H,2H2,1H3/t5-,6+/m1/s1
