17
gdb 96640	2.47188	1.34115	0.93313	8.8784	68.69	-0.2283	-0.0283	0.2	1230.0398	0.134441	-492.329519	-492.320274	-492.31933	-492.363725	33.555	
C	-0.2238584473	 1.4580516169	 0.2940666976	-0.35731
N	-0.065579453	 0.0191473648	 0.3835921435	-0.265991
H	-0.8850453218	-0.6556918512	 0.3655294529	 0.312064
C	 0.9628981892	-0.5815795283	 0.9364736679	 0.425936
N	 2.0284032581	 0.0276384586	 1.4410806419	-0.518203
C	 0.9211538579	-2.0779925598	 1.0188559505	-0.094842
O	 1.9509126092	-2.5684346094	 1.8223399826	-0.445805
C	-0.5012906799	-2.5372869754	 1.5994633746	 0.37984
O	-1.4951327354	-2.0407456403	 1.0241998461	-0.465264
O	-0.3823443772	-3.3277289478	 2.5390510882	-0.432817
H	 0.6162791417	 1.9079306875	-0.2465530025	 0.143158
H	-1.1378113417	 1.6752233383	-0.2591987553	 0.167068
H	-0.3018065729	 1.9268089737	 1.2838937272	 0.144533
H	 2.094474164	 1.0247506684	 1.553016661	 0.278633
H	 2.6808289338	-0.5883542057	 1.9114737591	 0.299979
H	 0.9749826397	-2.471553711	-0.0063890293	 0.127828
H	 1.4293381055	-3.0950214892	 2.4768321042	 0.301194
91.0305	102.6813	136.1646	159.5706	204.7575	292.6213	324.4701	343.7553	398.7859	419.2278	510.3769	585.7139	632.3627	653.9841	696.8034	750.9154	809.8328	858.3475	922.5278	950.2554	1022.0977	1127.5051	1143.0319	1153.7303	1183.2053	1208.6275	1285.266	1333.6617	1394.6213	1440.8502	1452.8412	1495.0741	1502.3611	1541.3973	1646.2605	1719.597	1815.1776	2811.2035	3009.1116	3016.8867	3078.3508	3148.0542	3386.51	3545.7061	3707.3867
C[NH+]=C(N)C(O)C([O-])=O	CNC(=[NH2])[C@@H](O)C(=O)[O]	
InChI=1S/C4H8N2O3/c1-6-3(5)2(7)4(8)9/h2,7H,1H3,(H2,5,6)(H,8,9)	InChI=1S/C4H8N2O3/c1-6-3(5)2(7)4(8)9/h2,6-7H,5H2,1H3/t2-/m1/s1
