23
gdb 115047	2.34837	1.1738	0.86035	1.2884	87.1	-0.2311	0.0288	0.2599	1426.6081	0.206008	-388.299741	-388.289994	-388.28905	-388.334351	36.737	
C	-0.017296109	 1.65573805	 0.1003437265	-0.394041
C	 0.0479387184	 0.1260324441	 0.030151415	-0.186407
C	-1.3381016888	-0.5366261338	-0.0602949594	-0.025323
C	-2.0964023413	-0.2936946562	-1.35190667	-0.062502
C	-2.7946163621	-1.3617934907	-1.7316255974	-0.076064
C	-2.6236390116	-2.5145581266	-0.7723445521	-0.264033
C	-1.3831288301	-2.0951190965	 0.0650139967	-0.013549
C	-0.1291256962	-2.7854072544	-0.4755902556	-0.086269
O	-0.3021174579	-4.1875016492	-0.2995052548	-0.424015
H	 0.9833715915	 2.0885936891	 0.1963470541	 0.111008
H	-0.4760842281	 2.0851575877	-0.7960865026	 0.118215
H	-0.6072227314	 1.9853371264	 0.9630435835	 0.114955
H	 0.6632407577	-0.1720789605	-0.8275025278	 0.097121
H	 0.5624091743	-0.2460355116	 0.9252360307	 0.096074
H	-1.9347408778	-0.1181619632	 0.7674557064	 0.076027
H	-2.0931467446	 0.6637643035	-1.8612672543	 0.086951
H	-3.4436801659	-1.4100273796	-2.5995190457	 0.086425
H	-3.5160907105	-2.6280716431	-0.1407223769	 0.099053
H	-2.4687833921	-3.4811230457	-1.2611347834	 0.116176
H	-1.488503147	-2.4002249533	 1.1108658372	 0.072646
H	 0.005910734	-2.533975042	-1.5396176057	 0.089179
H	 0.7626345153	-2.4379303151	 0.0649540763	 0.084202
H	 0.454364583	-4.6327662291	-0.6913559611	 0.28417
86.7034	96.3822	147.1365	163.5725	218.9168	249.5406	261.6597	292.1138	335.4281	389.7431	480.7307	502.6357	686.3169	746.6742	756.384	812.4562	833.3606	866.1774	928.6956	946.6437	968.8806	975.1451	1001.9152	1038.3839	1063.649	1070.3645	1100.6615	1120.5983	1131.3806	1156.2788	1196.1437	1217.0946	1254.4818	1269.8105	1288.6042	1310.6513	1312.7019	1342.3034	1363.8008	1377.8538	1389.9579	1412.2827	1453.2462	1486.2235	1492.9569	1500.29	1506.9649	1523.9636	1683.3748	2954.4912	2974.4654	3007.4238	3012.2004	3021.8807	3031.9286	3055.4166	3062.3916	3079.3535	3098.8588	3103.5964	3177.3695	3203.4628	3833.2005
CCC1C=CCC1CO	CC[C@H]1C=CC[C@H]1CO	
InChI=1S/C8H14O/c1-2-7-4-3-5-8(7)6-9/h3-4,7-9H,2,5-6H2,1H3	InChI=1S/C8H14O/c1-2-7-4-3-5-8(7)6-9/h3-4,7-9H,2,5-6H2,1H3/t7-,8-/m0/s1
