14
gdb 129507	2.80223	1.72911	1.07066	2.1046	66.07	-0.2206	-0.0266	0.194	1027.6408	0.102678	-466.22667	-466.21876	-466.217816	-466.259098	29.681	
N	-0.1024052947	 1.3032978963	-0.0177093912	-0.560738
C	 0.0870136166	-0.0295579241	-0.0119994786	 0.535076
O	 1.1607492005	-0.6034023854	 0.0110914656	-0.401953
N	-1.1293959337	-0.7553420536	-0.0354240736	-0.103046
N	-2.3615697011	-0.1173497993	 0.0248645414	-0.174013
N	-3.2559367074	-1.0402576653	 0.0597943025	-0.170604
C	-2.6721592771	-2.271835434	 0.0228237504	-0.156969
C	-1.2996407708	-2.1146037358	-0.0395243903	 0.389233
N	-0.2639676368	-2.9935199771	-0.1565742635	-0.599427
H	 0.706053945	 1.8972217807	 0.0301003877	 0.277542
H	-1.0383599152	 1.6772029124	-0.0031392014	 0.294163
H	-3.2516809476	-3.1796297261	 0.0369305461	 0.119362
H	-0.4328680107	-3.928311293	 0.1767773396	 0.263689
H	 0.6493421728	-2.5992559657	 0.0289687051	 0.287685
84.0556	144.515	240.2621	261.9825	319.2885	359.9253	389.598	451.1526	511.8822	560.6028	602.1844	679.6777	697.0528	718.2892	737.8557	771.8007	787.0006	976.4599	1049.1082	1094.5605	1126.2564	1178.25	1214.783	1314.9509	1393.5144	1409.9198	1498.6769	1573.5687	1599.8902	1653.9155	1816.7996	3276.3095	3544.8143	3595.137	3688.0485	3748.4441
NC(=O)N1N=NC=C1N	NC(=O)n1nncc1N	
InChI=1S/C3H5N5O/c4-2-1-6-7-8(2)3(5)9/h1H,4H2,(H2,5,9)	InChI=1S/C3H5N5O/c4-2-1-6-7-8(2)3(5)9/h1H,4H2,(H2,5,9)
