15
gdb 29148	3.01047	1.46585	0.99179	2.7853	74.8	-0.2106	-0.0625	0.1481	1125.941	0.112252	-453.96969	-453.961649	-453.960705	-454.002231	30.366	
C	 0.0878750172	 1.4484554273	-0.0008195559	-0.457099
C	 0.0419582553	-0.0464907783	-0.0074326689	 0.27599
N	-0.0027665811	-0.688747948	-1.1257401358	-0.305772
C	-0.0442316871	-2.0640380371	-1.0967780194	 0.310072
O	-0.0889462701	-2.6161153026	-2.3377662942	-0.407873
C	-0.0393783944	-2.7514548737	 0.0591924163	-0.10721
O	 0.0075027508	-2.1005684982	 1.2621412496	-0.218154
C	 0.0504018955	-0.729153222	 1.3037769284	 0.343639
N	 0.0946765145	-0.086878689	 2.4001522094	-0.527668
H	 0.9846596961	 1.7978234312	 0.5209327195	 0.151843
H	 0.0765339728	 1.8215759265	-1.0250293866	 0.137882
H	-0.761860169	 1.8512836829	 0.5597115645	 0.151837
H	-0.1165790178	-3.5760191413	-2.2611456867	 0.30163
H	-0.0697357487	-3.826629872	 0.1737047656	 0.12575
H	 0.0929677261	-0.7256036856	 3.1964947442	 0.225133
84.4984	156.1707	218.5443	295.2286	304.2911	365.2107	372.8908	401.6008	477.9451	525.2838	579.6097	619.6653	667.9156	764.9788	772.2022	809.845	862.2199	962.2714	1001.9707	1048.5526	1052.5673	1170.3974	1211.3654	1231.1412	1317.1719	1359.1664	1405.4675	1438.0809	1461.8148	1464.4287	1633.8047	1683.4191	1717.6173	3047.6547	3102.508	3158.265	3219.4608	3482.8811	3824.6836
CC1=NC(O)=COC1=N	CC1=C(OC=C([N]1)O)[NH]	
InChI=1S/C5H6N2O2/c1-3-5(6)9-2-4(8)7-3/h2,6,8H,1H3	InChI=1S/C5H6N2O2/c1-3-5(6)9-2-4(8)7-3/h2,6,8H,1H3
