17
gdb 45706	3.06128	1.58308	1.09835	3.4237	74.12	-0.2262	-0.0208	0.2054	1066.0285	0.138877	-418.046918	-418.039575	-418.03863	-418.078877	28.338	
O	-0.1941865544	-0.0119566421	-0.0012462337	-0.29877
C	-0.0804174766	 1.1826215392	 0.0038599311	 0.355967
C	-1.2144227245	 2.240675124	-0.0462035429	-0.269009
N	-0.6611158957	 3.4698473677	 0.5376358335	-0.34031
C	 0.6057887113	 3.3047539134	 0.6028540484	 0.417227
N	 1.5828180897	 4.0517549482	 1.1956717534	-0.3618
C	 2.7769515875	 3.2285183284	 1.4583734709	-0.166188
C	 2.3482195319	 1.7747413226	 1.0957716784	-0.249261
C	 1.2029176046	 2.016882205	 0.1016576504	-0.195991
H	-1.5384608672	 2.3813328811	-1.0885266477	 0.124892
H	-2.0912420757	 1.8920826403	 0.5104666373	 0.130883
H	 1.3241620871	 4.791969051	 1.8290668453	 0.251512
H	 3.617332086	 3.5596416827	 0.835197867	 0.115131
H	 3.0880669429	 3.3152535408	 2.5038125344	 0.118061
H	 3.1739646824	 1.1887979673	 0.6900475694	 0.119188
H	 1.9718166678	 1.2580415251	 1.9839370272	 0.125095
H	 1.5884043429	 2.1381187653	-0.9210128124	 0.123372
91.1508	159.5086	225.0961	257.6482	341.8	447.2081	525.7797	539.0567	591.2674	642.9506	692.6196	730.8337	793.8772	866.3752	915.8764	930.7703	952.3464	999.9568	1021.7619	1050.9676	1084.7111	1155.7348	1168.8917	1183.6846	1213.2388	1239.3464	1277.1293	1289.9961	1321.0756	1326.5166	1384.7774	1437.0368	1468.8612	1496.8423	1527.7606	1743.034	1864.2044	2998.6638	3012.2961	3020.7839	3062.1826	3068.284	3078.5159	3127.3589	3632.1157
O=C1CN=C2NCCC12	O=C1C[N][C]2NCC[C@@H]12	
InChI=1S/C6H8N2O/c9-5-3-8-6-4(5)1-2-7-6/h4H,1-3H2,(H,7,8)	InChI=1S/C6H8N2O/c9-5-3-8-6-4(5)1-2-7-6/h4H,1-3H2,(H,7,8)/t4-/m0/s1
