21
gdb 35961	3.18891	1.10527	0.8934	1.2086	84.9	-0.2453	0.0552	0.3005	1333.4035	0.183472	-387.062158	-387.053323	-387.052379	-387.095494	34.276	
C	 0.2985809864	-1.2895561664	 0.5283152465	-0.44234
C	 0.1297805059	-0.1329839961	 0.2457182854	 0.302701
C	-0.0620314979	 1.2802433814	-0.0751501338	-0.172807
C	-0.9217922912	 1.9766451652	 1.0136235166	-0.183064
C	-1.4230887638	 3.3647323913	 0.5838268421	-0.241266
C	-0.4177892117	 4.5083114761	 0.8033211551	-0.061184
O	 0.9417215009	 4.1628839302	 0.6166521318	-0.240074
C	 1.2544546061	 3.4619232773	-0.5746755196	-0.098803
C	 1.3078195247	 1.9522929196	-0.3324064054	-0.182219
H	 0.4417968583	-2.3137328832	 0.7686257915	 0.190461
H	-0.6384649359	 1.332153488	-1.011499531	 0.099409
H	-1.7818252557	 1.3310871674	 1.2160944854	 0.107248
H	-0.3496205536	 2.0413869139	 1.9458126412	 0.113921
H	-1.7250273631	 3.3205313692	-0.4700419929	 0.099185
H	-2.3324654815	 3.6205611903	 1.1400496397	 0.100287
H	-0.690698209	 5.3617075016	 0.1604589319	 0.086596
H	-0.4705343249	 4.8539416806	 1.8412910456	 0.108692
H	 0.5562531855	 3.7170421609	-1.3862535251	 0.088208
H	 2.2477830174	 3.8055720418	-0.8860631251	 0.104941
H	 1.9589761077	 1.7785833067	 0.5313385902	 0.118108
H	 1.7818965155	 1.4636581841	-1.1917762702	 0.102001
90.6172	142.0942	146.0968	222.8139	269.9149	316.1041	328.0341	390.6305	473.1944	510.8734	535.9235	575.1969	624.2567	633.6571	749.353	836.9136	848.5017	878.8907	906.0471	932.8322	1012.9886	1029.8241	1045.2277	1075.0996	1116.1631	1121.9225	1156.6693	1214.5831	1247.1961	1261.1189	1301.9899	1315.9214	1323.3719	1337.1579	1362.9751	1381.3601	1394.3464	1400.0112	1422.2814	1470.7257	1486.8827	1487.8052	1498.7028	1509.6585	2233.2474	2965.8893	2985.8095	2990.8342	3026.7447	3035.5044	3043.368	3055.1995	3057.8777	3075.4377	3083.888	3089.7797	3505.2484
C#CC1CCCOCC1	C#C[C@H]1CCCOCC1	
InChI=1S/C8H12O/c1-2-8-4-3-6-9-7-5-8/h1,8H,3-7H2	InChI=1S/C8H12O/c1-2-8-4-3-6-9-7-5-8/h1,8H,3-7H2/t8-/m0/s1
