15
gdb 20826	3.38214	1.81243	1.27792	2.0398	62.74	-0.2538	0.0002	0.254	937.263	0.119242	-399.802791	-399.795319	-399.794375	-399.834942	27.331	
C	 0.0472519482	 1.5463048773	 0.1323803692	-0.375846
C	-0.0861794788	 0.0240370547	-0.0441330036	-0.307277
C	 0.6441151339	-0.4962272536	-1.243877499	 0.072494
C	 0.1760172718	-1.0318968295	-2.4000654943	 0.002312
O	 1.173884335	-1.3669051976	-3.23443593	-0.176363
N	 2.3894551787	-1.0459971963	-2.6243780932	-0.253468
C	 2.0562267868	-0.5396087334	-1.4635972626	 0.395324
O	 2.9744509815	-0.1127906032	-0.5797295296	-0.41825
H	 1.0975946651	 1.8338971045	 0.2324865079	 0.137223
H	-0.3675654918	 2.0779790876	-0.7294442978	 0.120031
H	-0.4844437284	 1.8797428757	 1.0286778866	 0.114767
H	 0.2957773097	-0.4750459687	 0.8547343248	 0.119804
H	-1.1436504608	-0.2502618138	-0.1233536878	 0.107214
H	-0.8218374366	-1.2354977226	-2.7591199843	 0.149221
H	 3.8474598457	-0.2584224613	-0.9683149463	 0.312813
60.3175	150.6461	195.3231	277.3959	301.9448	404.0264	462.6064	473.0106	593.2196	638.6482	734.2891	749.7643	792.482	850.4403	916.5109	953.7663	974.2501	1074.6685	1093.9619	1155.4819	1214.004	1258.5662	1274.2263	1333.603	1363.3646	1409.6402	1480.3957	1496.2901	1497.5448	1509.5162	1559.2296	1679.4776	3031.6841	3040.9223	3070.0047	3112.1049	3121.1495	3255.5597	3781.0221
CCC1=CON=C1O	CCc1conc1O	
InChI=1S/C5H7NO2/c1-2-4-3-8-6-5(4)7/h3H,2H2,1H3,(H,6,7)	InChI=1S/C5H7NO2/c1-2-4-3-8-6-5(4)7/h3H,2H2,1H3,(H,6,7)
