18
gdb 16235	2.88195	2.27884	1.45331	1.904	73.21	-0.2392	0.0117	0.2509	895.2882	0.154223	-347.800165	-347.792806	-347.791861	-347.831681	28.693	
C	-0.5590664925	 1.3491865191	 0.0130268729	-0.418623
C	 0.1074010492	-0.0233322278	-0.0265996974	-0.047648
C	 1.1908400292	-0.1903197063	-1.1274496926	-0.282106
C	 2.2216009993	-1.0909005724	-0.4879324117	-0.081622
C	 2.0169808449	-1.2371997346	 0.8207454414	-0.141451
C	 0.820508356	-0.472002689	 1.2607679131	 0.424445
C	 0.7460693591	 0.2111352711	 2.5642253766	-0.250976
O	 0.014233109	-0.9930181743	 2.3288259564	-0.288031
H	 0.1717144103	 2.1425322938	 0.2053590956	 0.114884
H	-1.0478768941	 1.5699270959	-0.9415410462	 0.114655
H	-1.3262454908	 1.3952916978	 0.7927347587	 0.125217
H	-0.666868485	-0.7808142141	-0.2016245559	 0.096678
H	 0.7832821063	-0.6022525996	-2.0576404446	 0.106822
H	 1.6367748308	 0.7794147476	-1.3917482776	 0.107729
H	 3.0426773743	-1.5269611022	-1.0460616164	 0.099114
H	 2.6239237817	-1.8071330525	 1.5141741483	 0.102123
H	 1.5765829525	 0.1263281105	 3.2655492598	 0.107125
H	 0.1459267898	 1.1132075371	 2.6720876597	 0.111665
70.8726	240.4865	255.0849	269.0753	306.6858	386.9593	453.3687	506.7014	556.1166	678.806	752.691	772.3708	849.1514	869.7798	923.3968	939.3038	950.8273	971.4762	979.8644	1062.018	1094.8788	1121.6244	1129.6951	1142.7045	1164.054	1202.4967	1233.9521	1299.0386	1315.2416	1342.7975	1371.1917	1405.5679	1420.3501	1487.9556	1497.4682	1503.912	1529.3634	1679.6669	3004.8391	3026.9091	3030.2347	3056.9415	3076.1304	3097.9807	3101.1303	3162.0951	3188.0447	3214.5723
CC1CC=CC11CO1	C[C@H]1CC=C[C@]21CO2	
InChI=1S/C7H10O/c1-6-3-2-4-7(6)5-8-7/h2,4,6H,3,5H2,1H3	InChI=1S/C7H10O/c1-6-3-2-4-7(6)5-8-7/h2,4,6H,3,5H2,1H3/t6-,7+/m0/s1
