23
gdb 114732	2.23575	1.42864	1.07747	1.1298	84.37	-0.2581	0.0793	0.3374	1233.7029	0.207301	-388.285752	-388.276697	-388.275753	-388.319146	35.61	
C	-0.8650050314	 1.1966999035	-0.0805403252	-0.401269
C	-0.0372006197	-0.0938443923	-0.0921650584	-0.005325
C	 1.0184914298	-0.150207376	-1.1925587201	-0.024651
C	 2.3043257101	 0.6213169547	-1.0142351023	-0.295137
C	 2.2463763547	-0.8448465112	-0.6584151451	-0.031807
C	 1.9901437122	-1.2265380254	 0.7934032251	-0.230113
C	 0.7108973962	-0.4578795312	 1.2352411686	-0.000567
C	 1.0213631323	 0.7083412094	 2.1766679091	-0.099197
O	 1.5756203999	 0.1456810758	 3.3613612605	-0.421054
H	-0.2392110765	 2.0812118254	 0.076423942	 0.114744
H	-1.376619746	 1.326254168	-1.04014265	 0.109035
H	-1.6324391573	 1.1805840748	 0.7006434869	 0.111252
H	-0.7316397621	-0.9206652796	-0.2937382419	 0.073379
H	 0.6702143176	-0.321658846	-2.2063145637	 0.074269
H	 2.8433760899	 0.8869336236	-1.9177548151	 0.105155
H	 2.3887967316	 1.3631166593	-0.2279314353	 0.105305
H	 2.8098909475	-1.5366506417	-1.2755142554	 0.075435
H	 1.8167839214	-2.3069009412	 0.8509377628	 0.093779
H	 2.82928615	-1.0088754167	 1.4613261264	 0.109469
H	 0.0761863384	-1.1239073691	 1.8295091572	 0.081174
H	 1.7256995728	 1.4214679617	 1.7234275709	 0.086331
H	 0.0988633608	 1.2613106417	 2.4065270682	 0.085417
H	 1.8118490677	 0.8663834327	 3.952310085	 0.284374
98.6558	124.8596	193.2335	216.9891	268.8975	277.9225	294.3173	340.4922	400.0635	449.6853	499.4836	608.2348	710.0601	757.8803	780.7768	830.2115	875.104	893.805	922.0914	961.0376	977.1615	1004.5326	1046.6489	1049.302	1066.8347	1079.2463	1085.7976	1109.6656	1115.3591	1140.257	1168.0743	1204.7521	1218.9387	1235.3362	1269.5028	1283.0985	1325.7651	1333.5632	1351.5611	1366.6032	1380.2324	1398.696	1415.223	1456.8005	1489.3306	1499.519	1501.8231	1506.4613	1524.7426	2982.4757	3001.6143	3010.6026	3031.1451	3037.0927	3053.213	3083.2932	3093.9948	3103.2268	3132.3158	3150.7097	3163.1285	3212.6661	3830.4782
CC1C2CC2CC1CO	C[C@H]1[C@H]2C[C@H]2C[C@H]1CO	
InChI=1S/C8H14O/c1-5-7(4-9)2-6-3-8(5)6/h5-9H,2-4H2,1H3	InChI=1S/C8H14O/c1-5-7(4-9)2-6-3-8(5)6/h5-9H,2-4H2,1H3/t5-,6-,7+,8-/m1/s1
