18
gdb 81214	3.03389	1.66279	1.48582	1.6758	75.17	-0.2537	0.0064	0.2602	959.442	0.149476	-401.870955	-401.864041	-401.863097	-401.901923	28.372	
C	-0.1166061752	 1.5759304109	 0.0677242228	-0.449828
C	 0.0383643434	 0.0664819654	-0.0235120395	 0.0027
C	 1.2015238835	-0.607201687	-0.7967206526	-0.124373
C	 2.1837037155	-0.2072580966	 0.3953499278	-0.320801
C	 0.8758868882	-0.7537807822	 1.0160390425	 0.382753
O	 0.2692744032	-1.2587075133	 2.2028356083	-0.289379
C	-0.4635895087	-2.2991688341	 1.6484599889	 0.086761
N	-0.2670398945	-2.6794853786	 0.4429000718	-0.301201
C	 0.9371138294	-1.9119190115	 0.0537317736	 0.019236
H	 0.8135979611	 2.1049745112	 0.2882478507	 0.117978
H	-0.506213633	 1.9739795367	-0.8757042573	 0.121686
H	-0.8370041448	 1.8342941947	 0.8511682854	 0.126273
H	-0.9283582633	-0.3933976614	-0.2406361179	 0.092376
H	 1.4373496076	-0.519233157	-1.8562692699	 0.089675
H	 3.074347108	-0.8279007961	 0.5122857518	 0.110624
H	 2.4149338773	 0.8507944052	 0.5038388999	 0.11162
H	-1.1901383681	-2.7278831695	 2.3298531261	 0.139481
H	 1.8054864106	-2.5780480469	 0.0937569475	 0.084418
170.5226	204.4922	242.7313	338.0948	395.3974	478.6179	518.8078	537.2799	614.311	731.3642	774.8658	791.4517	846.9741	851.7723	911.4519	934.7227	955.315	982.4276	996.7695	1007.6126	1057.3288	1065.4898	1084.5866	1105.8094	1133.374	1142.5625	1181.8015	1198.0236	1230.0668	1243.1551	1249.6795	1320.2014	1372.6211	1412.5621	1428.5501	1495.3277	1500.7701	1527.4091	1609.022	3036.1698	3048.7103	3081.4609	3085.3346	3093.9218	3116.4382	3128.2667	3161.9223	3216.8971
CC1C2CC11OC=NC21	C[C@H]1[C@H]2C[C@]31O[CH][N][C@@H]23	
InChI=1S/C7H9NO/c1-4-5-2-7(4)6(5)8-3-9-7/h3-6H,2H2,1H3	InChI=1S/C7H9NO/c1-4-5-2-7(4)6(5)8-3-9-7/h3-6H,2H2,1H3/t4-,5+,6-,7+/m0/s1
