17
gdb 29024	2.6534	1.61729	1.01096	3.7467	89.88	-0.229	-0.0734	0.1557	1141.975	0.137852	-384.747163	-384.739387	-384.738443	-384.779611	29.724	
C	-0.2325873287	 1.5421458686	 0.0250748976	-0.453192
C	-0.1475890671	 0.0414166228	-0.0050659478	 0.139397
C	-0.0147183672	-0.5988542564	-1.202181796	-0.133541
C	 0.0884767026	-1.9830712187	-1.533240278	-0.078383
C	 0.0802675492	-3.0631909515	-0.7057862134	-0.101548
C	-0.0358854996	-3.0606961736	 0.7148237314	-0.086911
C	-0.1631519844	-2.0137183926	 1.569374812	-0.132341
C	-0.2242017681	-0.5672428325	 1.3465128726	 0.276159
O	-0.3442404494	 0.1727019508	 2.3225823744	-0.365167
H	 0.5686731173	 1.9543138617	 0.6475009588	 0.148871
H	-0.1752233058	 1.9724085463	-0.9769084402	 0.109638
H	-1.1632519565	 1.8590297305	 0.5074915252	 0.148883
H	 0.0200570148	 0.0563318117	-2.0707597969	 0.097299
H	 0.186602991	-2.1879451289	-2.5963059454	 0.104001
H	 0.1719439119	-4.0411115401	-1.1700953036	 0.104761
H	-0.0195275965	-4.0460831015	 1.1757789566	 0.106734
H	-0.2374007437	-2.2406946367	 2.6299860125	 0.11534
68.4091	162.299	197.6305	332.6585	353.421	364.6995	370.5067	430.5898	517.4952	601.7952	661.1343	686.0718	740.7994	811.1225	883.5615	886.9307	951.1863	963.2744	976.8971	1015.3411	1046.4972	1065.1152	1108.4057	1140.4613	1248.7923	1284.3099	1300.3995	1409.2167	1422.8188	1437.4149	1459.7818	1473.1254	1501.5996	1573.3879	1655.2964	1662.9583	1690.9338	3040.2614	3093.7094	3128.2626	3137.1138	3144.1695	3158.6539	3171.5561	3179.7744
CC1=CC=CC=CC1=O	Cc1cccccc1=O	
InChI=1S/C8H8O/c1-7-5-3-2-4-6-8(7)9/h2-6H,1H3	InChI=1S/C8H8O/c1-7-5-3-2-4-6-8(7)9/h2-6H,1H3
