19
gdb 86013	3.21925	1.12641	1.08308	1.307	83.04	-0.2501	0.001	0.2511	1206.6743	0.157693	-385.864853	-385.855628	-385.854684	-385.898564	35.439	
C	 0.3038312523	 1.3143298168	-0.0758848192	-0.419905
C	-0.0715585278	-0.187990974	-0.0327614665	 0.075168
C	 0.538083343	-0.9877861777	-1.2341285139	-0.286852
C	 1.7774787182	-1.7394988741	-0.6825324185	 0.09987
O	 3.0315314394	-1.1541338769	-1.038552141	-0.439693
C	 1.552687028	-1.7180481618	 0.8103821503	-0.128734
C	 0.5864114556	-0.873394275	 1.1613317423	-0.084713
C	-1.5288328763	-0.3170525782	 0.0249347693	 0.308839
C	-2.726562342	-0.4103651383	 0.0788162999	-0.486595
H	 1.3877334061	 1.4309571753	-0.1724406388	 0.104906
H	-0.1757433852	 1.8029968145	-0.9286385565	 0.130725
H	-0.0183066197	 1.8261443438	 0.8355049309	 0.125282
H	-0.1984069377	-1.7077301851	-1.5975279974	 0.117404
H	 0.8148349701	-0.3401813848	-2.0691684293	 0.111403
H	 1.8336796654	-2.7536247979	-1.0904820342	 0.090046
H	 3.1390120642	-0.3567410103	-0.5087887264	 0.276508
H	 2.1773258508	-2.2824123165	 1.4938393318	 0.104169
H	 0.2734816623	-0.6439615249	 2.1741150641	 0.108142
H	-3.7835980068	-0.500953365	 0.1235251132	 0.19403
62.4759	126.1623	164.9177	224.0367	246.9384	303.302	331.097	371.5578	379.2134	509.3469	523.1816	538.8502	615.5288	626.9595	629.5178	750.7913	786.8864	815.5172	845.9564	913.0501	944.4828	959.2016	987.5551	1006.7482	1041.5839	1097.2287	1131.871	1176.0036	1187.3902	1234.721	1271.7322	1294.724	1323.9949	1366.3525	1404.8567	1431.1423	1475.5858	1484.5657	1495.244	1681.3228	2230.5324	3037.0182	3058.4208	3074.8969	3112.5192	3118.2718	3123.3803	3184.8925	3209.8869	3502.1217	3805.5054
CC1(CC(O)C=C1)C#C	C[C@]1(C[C@@H](O)C=C1)C#C	
InChI=1S/C8H10O/c1-3-8(2)5-4-7(9)6-8/h1,4-5,7,9H,6H2,2H3	InChI=1S/C8H10O/c1-3-8(2)5-4-7(9)6-8/h1,4-5,7,9H,6H2,2H3/t7-,8-/m0/s1
