21
gdb 92882	2.48663	1.32852	1.07048	2.157	80.51	-0.2475	0.0123	0.2598	1218.645	0.181722	-424.243554	-424.23418	-424.233236	-424.276956	36.639	
C	-0.0217599149	 1.5529121949	-0.017173848	-0.426768
C	 0.0044896157	 0.0191620851	-0.0014042773	 0.319061
O	-1.3515799189	-0.4746016169	-0.019028279	-0.465912
C	 0.6546125765	-0.5337045127	-1.2765497203	-0.203416
C	 0.955431985	-2.0226900914	-1.1504698851	 0.102339
O	 1.4613239293	-2.4627306964	-2.4057272616	-0.442704
C	 1.956697021	-2.2659792322	-0.013947171	-0.280326
C	 1.5859735601	-1.5021869682	 1.2296619594	-0.079066
C	 0.7213001184	-0.488869966	 1.2328185348	-0.08503
H	 0.990632054	 1.9693895702	-0.0264304917	 0.117081
H	-0.5586725309	 1.9093651107	-0.900986252	 0.122723
H	-0.5362681145	 1.9368001113	 0.8714845975	 0.100361
H	-1.7279106267	-0.3324718113	 0.8561196282	 0.272626
H	-0.0193957657	-0.3650328007	-2.1212867527	 0.112065
H	 1.5876351697	 0.0042670066	-1.4799394751	 0.097476
H	 0.0140128079	-2.5383482482	-0.9118490907	 0.083579
H	 1.5850790754	-3.4159628188	-2.3579478022	 0.277839
H	 2.0264678786	-3.3385269914	 0.2135766337	 0.093138
H	 2.9563701927	-1.9656950182	-0.361023764	 0.116641
H	 2.0615571433	-1.8069579234	 2.1593065675	 0.090041
H	 0.491320114	 0.0252013572	 2.1655709197	 0.07825
105.4464	142.2099	215.9751	245.8729	258.8752	276.7189	294.6861	333.6265	375.5405	426.9914	436.8393	480.2706	523.3238	529.6569	679.9367	753.479	813.5436	874.333	908.4087	929.7879	946.6101	991.0956	1005.2703	1026.4386	1072.5439	1078.9353	1115.818	1136.7182	1162.8344	1204.5111	1211.2471	1236.5992	1292.1329	1324.0558	1335.8111	1388.653	1392.6375	1400.2359	1420.2183	1438.1674	1470.2599	1486.7318	1490.5593	1492.2523	1717.3829	2997.9809	3003.3128	3027.3823	3034.9298	3045.8578	3095.1513	3099.0356	3116.2235	3124.1913	3155.7534	3807.3347	3816.5054
CC1(O)CC(O)CC=C1	C[C@@]1(O)C[C@@H](O)CC=C1	
InChI=1S/C7H12O2/c1-7(9)4-2-3-6(8)5-7/h2,4,6,8-9H,3,5H2,1H3	InChI=1S/C7H12O2/c1-7(9)4-2-3-6(8)5-7/h2,4,6,8-9H,3,5H2,1H3/t6-,7-/m0/s1
