18
gdb 12227	2.59911	1.8904	1.63594	3.4098	67.8	-0.2421	-0.0305	0.2116	912.1001	0.151627	-384.934031	-384.925431	-384.924487	-384.967345	30.808	
C	 0.5313845611	 1.3758869819	-0.3565035484	-0.402878
C	 0.0491806652	 0.0081224032	 0.0891755782	 0.143584
O	 0.5601612664	-1.0455362969	-0.7702788455	-0.284257
C	 1.3172840502	-1.6334097511	 0.2840783179	 0.033497
C	 2.8183402848	-1.5243448808	 0.1085388546	 0.141585
O	 3.373285322	-0.8136230604	-0.6877398359	-0.237878
C	 0.6993999747	-0.6561997392	 1.3398287401	-0.068481
C	 1.5979269776	 0.1562148021	 2.261964296	-0.425166
H	 1.618928365	 1.3938453385	-0.457356963	 0.143683
H	 0.0992594119	 1.6134576561	-1.3334211321	 0.129046
H	 0.2175557363	 2.1511908249	 0.3510285023	 0.11121
H	-1.0477459863	-0.0175413691	 0.1068517636	 0.078763
H	 1.0688751402	-2.6937498666	 0.4411017038	 0.088111
H	 3.3945542443	-2.1632584927	 0.8200603548	 0.071626
H	-0.0545825321	-1.1789591134	 1.933226973	 0.091597
H	 2.3921603924	 0.6754466696	 1.7193340579	 0.139857
H	 1.0108386505	 0.9092931895	 2.7978351045	 0.12449
H	 2.0688481257	-0.4849249057	 3.0146932583	 0.121611
65.6156	85.5235	209.5452	212.8836	232.0174	250.1271	263.2438	389.3025	414.6194	495.037	677.7813	765.6967	784.9702	807.2639	892.7202	912.9104	972.2636	1005.6716	1042.2982	1077.2328	1085.1225	1118.683	1168.4048	1178.0547	1220.5829	1273.4396	1311.0923	1355.0613	1372.6283	1387.2345	1410.8999	1415.7837	1420.2747	1477.9485	1492.2802	1502.1481	1507.1656	1833.9116	2844.343	2995.1791	3018.4437	3036.5406	3040.2848	3075.1755	3098.075	3107.3616	3119.3697	3134.2535
CC1OC(C=O)C1C	C[C@H]1O[C@@H](C=O)[C@H]1C	
InChI=1S/C6H10O2/c1-4-5(2)8-6(4)3-7/h3-6H,1-2H3	InChI=1S/C6H10O2/c1-4-5(2)8-6(4)3-7/h3-6H,1-2H3/t4-,5+,6-/m0/s1
