19
gdb 26119	2.48409	1.31168	1.0558	1.6032	78.88	-0.1959	0.0248	0.2207	1226.8957	0.158053	-423.05914	-423.049643	-423.048698	-423.093847	34.719	
C	-0.041596073	 1.5667647884	 0.0208658791	-0.381497
C	 0.0014957925	 0.0270240505	 0.0745069211	-0.088816
C	 0.7336801561	-0.461753052	 1.3396630869	-0.381479
C	-1.3623397845	-0.5683119595	-0.0394608499	 0.291484
C	-1.9498193222	-1.3907330008	-0.9552794353	 0.18619
O	-1.3229581186	-1.8762300928	-2.066162257	-0.446629
C	-3.2974348115	-1.6237125917	-0.5231474977	-0.307268
C	-3.4325658397	-0.9214932862	 0.6322744413	-0.00574
O	-2.2823516789	-0.2799180209	 0.9412668106	-0.194234
H	 0.9695103011	 1.9837595351	 0.0725851606	 0.107221
H	-0.5107744682	 1.9159927431	-0.9034909212	 0.116172
H	-0.6162666732	 1.966225634	 0.8625348638	 0.123574
H	 0.5518471542	-0.3330511599	-0.8028342355	 0.098433
H	 0.8149375009	-1.5525228391	 1.3513921532	 0.116192
H	 1.7432653807	-0.0407803801	 1.3889272837	 0.10722
H	 0.1939640464	-0.154066357	 2.2409278873	 0.123537
H	-1.9402577741	-2.4291985384	-2.5525230712	 0.298923
H	-4.0501536496	-2.2274398833	-1.0074054134	 0.104965
H	-4.2504796984	-0.7850915093	 1.3203725836	 0.131753
41.4246	125.5272	141.5237	162.3251	219.2034	246.6066	280.7873	297.078	391.8639	419.8054	533.5363	612.957	633.5413	700.6874	716.6048	734.7788	784.7755	875.0692	909.8072	930.0534	959.231	1039.1913	1071.8464	1078.7302	1121.2401	1183.4111	1197.6666	1240.388	1273.4808	1313.4312	1334.9998	1377.4659	1393.2984	1414.401	1463.9907	1486.0958	1491.5006	1500.0503	1511.5493	1543.8822	1703.0044	3032.22	3036.319	3043.2914	3101.7667	3107.517	3111.1676	3114.5741	3242.4632	3280.3745	3850.9051
CC(C)C1=C(O)C=CO1	CC(C)c1c(O)cco1	
InChI=1S/C7H10O2/c1-5(2)7-6(8)3-4-9-7/h3-5,8H,1-2H3	InChI=1S/C7H10O2/c1-5(2)7-6(8)3-4-9-7/h3-5,8H,1-2H3
