14
gdb 124052	4.25332	1.60623	1.37765	3.3411	66.18	-0.2663	-0.0083	0.258	895.9052	0.104407	-432.812564	-432.806514	-432.805569	-432.843294	23.103	
C	 0.1375600772	 1.5318561131	-0.0746791858	-0.088173
O	 1.5350586712	 1.4553503251	 0.2842080251	-0.269215
C	 1.4943611694	 0.0203772114	 0.4137943081	-0.045999
C	-0.0354598118	 0.0000819068	 0.0150057509	-0.054878
N	 0.4014376554	-0.7363709951	-1.1816125351	 0.076768
N	 0.1624538913	-1.035740593	-2.4779013548	-0.279974
C	 1.4197229592	-1.2374365635	-2.8923521907	 0.033412
N	 2.4271424214	-1.0171949703	-1.9816378146	-0.364856
C	 1.7140577119	-0.6990145392	-0.9185293573	 0.350793
H	-0.4301895549	 2.0751231629	 0.6879851871	 0.12651
H	-0.0299018392	 1.9771374385	-1.0596463123	 0.137233
H	 1.9356528158	-0.346228566	 1.3392849075	 0.119768
H	-0.8587663836	-0.4327406613	 0.578249577	 0.125014
H	 1.6206885468	-1.5730431894	-3.8995175152	 0.133597
109.7182	174.3037	298.2546	448.5401	483.0332	665.6823	702.0013	756.9032	768.9602	813.738	889.4676	900.4725	928.3827	980.6141	989.7214	1002.103	1052.9533	1134.0503	1147.2071	1165.0353	1171.0055	1177.8129	1250.0103	1276.7519	1283.6506	1316.524	1341.2226	1397.2878	1453.0614	1507.365	1554.0307	3044.279	3102.5021	3134.8641	3151.332	3256.7436
C1OC2C1N1N=CN=C21	C1O[C@H]2[C@@H]1n1ncnc21	
InChI=1S/C5H5N3O/c1-3-4(9-1)5-6-2-7-8(3)5/h2-4H,1H2	InChI=1S/C5H5N3O/c1-3-4(9-1)5-6-2-7-8(3)5/h2-4H,1H2/t3-,4+/m1/s1
