21
gdb 94856	3.55194	1.09542	1.02035	2.3523	78.09	-0.2377	0.0702	0.3078	1259.1483	0.183145	-424.221913	-424.213226	-424.212282	-424.25624	33.192	
O	-0.2227203158	 1.4748483854	 0.1040269571	-0.438345
C	 0.0036338245	 0.0761993405	 0.0441151987	 0.143408
C	 0.6524502484	-0.5323916094	 1.3017408908	-0.254013
C	 0.2195208929	-2.0002647413	 1.223523449	-0.259064
C	-1.2626951119	-1.9073977983	 0.8259695669	 0.458738
C	-1.9912874943	-3.2098722453	 0.4240789091	-0.362597
C	-2.7630905466	-3.0339566543	 1.7438600369	-0.068486
O	-2.1125905534	-1.7769415775	 2.0083918306	-0.321276
C	-1.3501367499	-0.6565140265	-0.0748121949	-0.278293
H	 0.632228187	 1.911167763	 0.1747303853	 0.279271
H	 0.6308740496	-0.1655799041	-0.8297572109	 0.058693
H	 1.7369872425	-0.3902569669	 1.3421643925	 0.082547
H	 0.2088538581	-0.0585816962	 2.1849414912	 0.120777
H	 0.7750777932	-2.5190248039	 0.4302247884	 0.093428
H	 0.3529180386	-2.5612610569	 2.1517616175	 0.10356
H	-2.6011270945	-3.12639414	-0.4778283863	 0.108447
H	-1.359579574	-4.0975754504	 0.3487110469	 0.10511
H	-3.8506756623	-2.9226706099	 1.6599358718	 0.102075
H	-2.5454939008	-3.7819536531	 2.5173045558	 0.097558
H	-2.1430537569	-0.0051350955	 0.3014233246	 0.130757
H	-1.5891283845	-0.9144757993	-1.1101406109	 0.097705
32.8218	64.9095	170.1315	247.0097	285.031	349.8749	371.0907	421.6512	446.0176	480.5948	559.8194	722.6277	773.4741	811.1892	859.1068	864.207	881.7931	934.0586	965.9277	986.3434	991.6647	1026.3481	1032.9543	1043.3131	1093.1684	1149.1768	1160.3294	1187.4095	1206.8136	1212.9699	1226.2579	1252.5626	1271.1505	1278.5532	1289.4002	1314.0821	1341.8426	1361.7278	1378.798	1428.5193	1468.7702	1473.7918	1488.8286	1498.1163	1531.1371	2955.7979	3010.8157	3018.7207	3041.8211	3050.7595	3061.824	3069.6558	3091.0658	3101.2663	3114.7415	3123.6481	3815.7467
OC1CCC2(CCO2)C1	O[C@H]1CC[C@]2(CCO2)C1	
InChI=1S/C7H12O2/c8-6-1-2-7(5-6)3-4-9-7/h6,8H,1-5H2	InChI=1S/C7H12O2/c8-6-1-2-7(5-6)3-4-9-7/h6,8H,1-5H2/t6-,7-/m0/s1
