21
gdb 80924	2.70601	1.40985	1.27222	1.3856	83.87	-0.2501	0.0734	0.3235	1129.5185	0.181653	-387.023659	-387.014868	-387.013923	-387.056415	34.871	
C	-0.1977371418	 1.5659908731	-0.0207049802	-0.457561
C	 0.0252882342	 0.0609100575	 0.0030697492	 0.002064
C	 1.2303494989	-0.61402187	-0.7385351085	-0.163347
C	 2.1846347484	-0.0959113196	 0.3818415428	-0.30343
C	 0.9059998505	-0.6360999686	 1.1072321486	 0.30202
O	 0.6607979719	-0.7579730721	 2.4617843684	-0.477191
C	 0.9835945608	-1.8390341858	 0.1642676372	 0.439368
C	 0.1427639868	-3.0574526662	 0.0354707616	-0.377947
C	 1.6490206316	-3.1605590334	 0.2974252733	-0.383064
H	 0.716314294	 2.1491425705	 0.1190147923	 0.115774
H	-0.6386718331	 1.8731713015	-0.9754151512	 0.120358
H	-0.902581953	 1.8595499892	 0.7663515973	 0.1141
H	-0.9218303978	-0.4621537594	-0.1655909649	 0.070303
H	 1.4213906679	-0.6149110462	-1.8096378581	 0.076437
H	 3.0988062445	-0.6722025558	 0.5377564053	 0.098239
H	 2.3783506114	 0.9773117041	 0.4192764234	 0.084237
H	 0.6766653616	 0.1192460703	 2.858829089	 0.284144
H	-0.5251912392	-3.3147516867	 0.8517037638	 0.119148
H	-0.2179399852	-3.34921385	-0.9462026439	 0.108561
H	 2.2764469745	-3.5198517933	-0.5125681368	 0.108663
H	 1.963496403	-3.485207489	 1.2845066215	 0.119124
166.6117	173.9834	181.0585	187.8761	203.5743	239.212	364.3783	394.8427	455.3396	469.3511	594.2138	648.719	676.289	750.9342	782.6156	796.1204	820.9706	912.1446	925.7481	945.7235	966.4277	995.0055	1023.0006	1044.1264	1053.0826	1071.9128	1079.3621	1105.9378	1121.7036	1144.6437	1171.5312	1180.8505	1182.6207	1221.6167	1230.5121	1278.0677	1325.6079	1402.1338	1416.4688	1440.3775	1459.1154	1496.1188	1497.3651	1515.3237	1542.3017	3029.1234	3051.6773	3071.314	3084.1876	3111.2776	3118.482	3122.0513	3135.7751	3139.3714	3196.2459	3210.3271	3811.8267
CC1C2CC1(O)C21CC1	C[C@H]1[C@H]2C[C@]1(O)C12CC1	
InChI=1S/C8H12O/c1-5-6-4-8(5,9)7(6)2-3-7/h5-6,9H,2-4H2,1H3	InChI=1S/C8H12O/c1-5-6-4-8(5,9)7(6)2-3-7/h5-6,9H,2-4H2,1H3/t5-,6+,8+/m0/s1
