23
gdb 116316	2.81223	1.24299	0.95813	1.29	84.84	-0.2424	0.0772	0.3197	1317.6182	0.207768	-388.285711	-388.276931	-388.275987	-388.319169	34.303	
C	-0.1042887324	 1.5737745599	 0.0431928264	-0.39169
C	 0.0187813601	 0.0459353959	 0.0074326065	-0.173818
C	 0.7645453773	-0.510012728	-1.217659018	 0.001013
C	 2.2354079759	-0.0641159208	-1.2766457228	-0.100053
O	 2.9170030172	-0.6716488653	-2.3561409739	-0.240902
C	 3.1210824647	-2.059086669	-2.1473384877	-0.095652
C	 1.8458415263	-2.8239204312	-1.798708261	-0.0655
C	 1.4078346428	-2.9331369841	-0.3562771034	-0.293199
C	 0.6603360701	-2.0269331203	-1.3017296566	-0.015778
H	 0.8705534802	 2.0632111485	 0.1333858545	 0.119241
H	-0.5824926395	 1.9537888703	-0.8666958366	 0.115146
H	-0.7103947576	 1.8966250014	 0.8953756163	 0.112601
H	 0.5156124615	-0.307105039	 0.9206309378	 0.094833
H	-0.9862189555	-0.3946836752	 0.0258737168	 0.09347
H	 0.287278788	-0.1074016121	-2.1225230806	 0.075516
H	 2.3035870972	 1.0140480119	-1.4426427366	 0.107558
H	 2.7473553943	-0.285053367	-0.3223519407	 0.079798
H	 3.5415825866	-2.4371829908	-3.0832463869	 0.107697
H	 3.8811748789	-2.2026074035	-1.36011558	 0.086067
H	 1.6329746048	-3.674595437	-2.4379194721	 0.085815
H	 0.9209561983	-3.8454844813	-0.0293773673	 0.107853
H	 2.053507256	-2.4861112244	 0.3942968288	 0.108581
H	-0.3189274049	-2.3817981689	-1.6124492728	 0.081404
82.0827	108.4203	168.753	223.3287	265.3607	301.1114	360.9785	383.0408	429.8563	480.7823	560.9818	675.2769	746.646	774.2438	826.2015	855.5699	907.1576	925.5282	956.4088	958.4856	972.7453	1005.8613	1053.4563	1061.2847	1083.235	1097.2385	1127.833	1131.0797	1144.4009	1178.7764	1187.29	1236.2387	1258.0928	1284.0208	1320.8371	1336.5133	1357.7754	1360.5833	1381.578	1393.1117	1411.5859	1415.0925	1426.7701	1485.9947	1491.108	1495.9547	1501.2092	1507.6756	1509.4652	2941.7369	2953.5505	3001.9348	3018.6136	3032.0092	3049.6482	3082.5373	3089.2032	3098.4687	3105.1405	3124.2022	3132.2105	3155.8269	3207.4626
CCC1COCC2CC12	CC[C@H]1COC[C@H]2C[C@@H]12	
InChI=1S/C8H14O/c1-2-6-4-9-5-7-3-8(6)7/h6-8H,2-5H2,1H3	InChI=1S/C8H14O/c1-2-6-4-9-5-7-3-8(6)7/h6-8H,2-5H2,1H3/t6-,7+,8-/m0/s1
