13
gdb 130866	7.27529	0.86202	0.7707	3.4332	72.13	-0.2623	-0.0829	0.1794	1345.0212	0.090044	-452.785574	-452.778034	-452.777089	-452.818197	26.449	
O	 0.0666597841	-0.0544690618	-0.0017335908	-0.284468
C	 0.0021357529	 1.1558909082	 0.0088675718	 0.088522
C	 1.1848625636	 2.0106159886	 0.0031276212	 0.31191
C	 1.3707040813	 3.3830182126	 0.0123480575	-0.382735
C	 2.7711637196	 3.5581964889	-0.0012532489	 0.252671
C	 3.4993597358	 4.8404206585	 0.0014099206	 0.101245
O	 4.6981246431	 4.963628593	-0.010500399	-0.249912
N	 3.40775473	 2.3702354106	-0.0179022525	-0.233142
N	 2.4398211223	 1.4723980487	-0.014763701	-0.218053
H	-0.966143213	 1.6948445726	 0.023661321	 0.098733
H	 0.6066413289	 4.1442483926	 0.0267976375	 0.138223
H	 2.8225900438	 5.7243504915	 0.0162633104	 0.076335
H	 2.6500198074	 0.4843763661	-0.0250661277	 0.300671
81.6088	141.1585	150.2569	242.6103	269.3401	322.0863	394.9924	592.0132	658.3074	666.5934	737.8651	759.4895	801.7297	849.4102	1006.7521	1030.9822	1035.4046	1045.6122	1142.5637	1239.4837	1310.7575	1380.2546	1399.8778	1426.9585	1463.3836	1480.9351	1585.2921	1779.6033	1817.231	2878.3124	2937.2852	3265.5294	3630.964
O=CC1=CC(C=O)=NN1	O=Cc1cc(C=O)n[nH]1	
InChI=1S/C5H4N2O2/c8-2-4-1-5(3-9)7-6-4/h1-3H,(H,6,7)	InChI=1S/C5H4N2O2/c8-2-4-1-5(3-9)7-6-4/h1-3H,(H,6,7)
