20
gdb 112481	2.41329	1.16309	0.8854	0.9467	78.72	-0.255	0.0181	0.2731	1391.8769	0.168716	-440.282602	-440.272218	-440.271274	-440.318721	36.068	
C	 0.3892129629	 1.437488073	 0.0433472849	-0.39023
C	 0.1714948495	-0.0770715378	-0.0174555528	-0.176403
C	 0.4117987502	-0.643566649	-1.3999364506	 0.103826
O	 1.8186750126	-0.4826030384	-1.8341788766	-0.281709
C	 2.0146024929	-1.8473913215	-1.8190230372	 0.419983
N	 3.0484019088	-2.5454369096	-1.9164692132	-0.341774
C	 4.3378928048	-1.8907065698	-2.0951055588	-0.33888
C	 0.5683023939	-2.1847021732	-1.5323826485	-0.036535
O	 0.3176943583	-2.959248175	-0.3882274687	-0.427752
H	 1.4095010398	 1.6934235601	-0.2563080046	 0.134409
H	-0.2989823167	 1.9667448832	-0.6249784348	 0.114908
H	 0.2270126679	 1.8147357182	 1.0569994329	 0.117274
H	 0.8251063166	-0.5919785222	 0.6936754335	 0.109864
H	-0.8557007633	-0.3315158913	 0.2716305072	 0.112986
H	-0.2417469325	-0.1855073235	-2.1487855108	 0.089863
H	 4.7086568337	-2.0911960616	-3.1067523015	 0.131987
H	 4.3080695529	-0.8052622984	-1.9444583731	 0.127725
H	 5.059185639	-2.3280725984	-1.3973334619	 0.126658
H	 0.036214791	-2.5891524344	-2.4031817262	 0.102158
H	 1.1026329477	-3.4991474904	-0.2392732791	 0.301641
58.7766	91.5577	94.7456	141.8907	161.9242	170.2899	211.4888	225.2265	288.372	328.7743	449.6626	502.6722	587.8918	680.0619	746.3893	790.133	830.8455	894.047	924.6208	978.6326	1047.1913	1055.1806	1091.9522	1124.902	1135.7795	1141.9001	1166.7144	1196.5562	1219.9691	1277.9747	1298.3948	1344.9008	1372.9798	1378.0843	1407.1925	1412.2792	1440.5715	1473.8585	1493.2094	1498.2232	1498.6913	1508.7682	1843.7814	3018.3896	3021.3183	3037.4869	3041.4356	3064.1061	3083.0941	3085.3552	3092.8041	3108.0732	3119.2389	3799.2865
CCC1OC(=NC)C1O	CC[C@H]1OC(=NC)[C@H]1O	
InChI=1S/C6H11NO2/c1-3-4-5(8)6(7-2)9-4/h4-5,8H,3H2,1-2H3	InChI=1S/C6H11NO2/c1-3-4-5(8)6(7-2)9-4/h4-5,8H,3H2,1-2H3/t4-,5+/m1/s1
