19
gdb 42365	2.1882	1.14213	0.86027	2.4064	81.1	-0.2389	-0.0172	0.2217	1390.2231	0.156425	-385.85914	-385.849386	-385.848442	-385.895274	35.197	
O	-0.0030804363	 2.5704560065	-1.8206227146	-0.297882
C	-0.0268516421	 1.7695810534	-0.9188723995	 0.403462
C	 1.1540510327	 1.7144046411	 0.0778281258	-0.448041
C	 1.517028627	 0.3864012563	 0.5483729656	 0.304804
C	 1.8128143854	-0.7162996422	 0.9250142569	-0.456826
C	-1.2036903553	 0.837060657	-0.6807427719	-0.324206
C	-1.8240729541	 1.0111326948	 0.6969318154	 0.01398
C	-2.7213805186	 2.1932027304	 0.974800842	-0.257149
C	-3.3051001617	 0.8048261448	 0.8845555956	-0.27373
H	 1.9994835532	 2.2119969265	-0.4062431188	 0.156032
H	 0.8660584807	 2.3433885704	 0.93254851	 0.159171
H	 2.0813553596	-1.6881636687	 1.2583046845	 0.202872
H	-1.9364411119	 1.0431259682	-1.4656203213	 0.116504
H	-0.8566469947	-0.1971076968	-0.7973692059	 0.131801
H	-1.1937621634	 0.6807449505	 1.516921313	 0.099986
H	-2.6665298179	 2.6681190678	 1.9480475104	 0.113779
H	-2.9192258432	 2.8781571221	 0.1567539804	 0.123675
H	-3.8982316452	 0.5600372738	 0.009701849	 0.115993
H	-3.6435139342	 0.3268229439	 1.7971248134	 0.115774
41.7038	50.8305	70.394	135.8571	162.5928	304.5797	335.8397	351.2301	388.4674	491.7131	508.6976	583.7697	624.688	645.8908	739.4512	781.9388	817.6688	833.8257	895.4324	920.0231	965.7693	983.9312	1009.3771	1056.9464	1082.007	1098.0067	1147.3006	1188.8149	1199.7504	1208.5147	1231.9019	1260.4155	1292.803	1307.7957	1405.0521	1442.7543	1460.4668	1471.3837	1505.9311	1816.9183	2236.7698	3017.2727	3037.3254	3089.1514	3100.9448	3131.2254	3135.655	3155.5399	3209.7328	3224.5993	3504.1573
O=C(CC#C)CC1CC1	O=C(CC#C)CC1CC1	
InChI=1S/C8H10O/c1-2-3-8(9)6-7-4-5-7/h1,7H,3-6H2	InChI=1S/C8H10O/c1-2-3-8(9)6-7-4-5-7/h1,7H,3-6H2
