17
gdb 90542	4.21807	1.07788	0.99071	5.819	72.84	-0.2381	0.012	0.2501	1191.5611	0.136657	-417.964344	-417.956281	-417.955337	-417.997922	30.143	
O	-0.240780857	 1.4199990848	 0.7842198535	-0.424684
C	 0.047728123	 0.1893018111	 0.1603834251	 0.09649
C	 0.3503123828	-1.0235038931	 1.0919429686	-0.213736
N	-0.9123060527	-1.7155481006	 0.6778106853	-0.135065
C	-2.0827671604	-1.3209223131	 1.5367948409	-0.113459
C	-2.5302695097	-0.2421910686	 0.4998067093	-0.264199
C	-1.2354786565	-0.5672643386	-0.2644736331	 0.011381
C	-3.0194328679	-2.4139359503	 1.7866438062	 0.291321
N	-3.7803855663	-3.2616695256	 1.9820238082	-0.325742
H	 0.5877511261	 1.8287258732	 1.0541002155	 0.291707
H	 0.7721316426	 0.3163811894	-0.65411751	 0.079077
H	 1.2317808186	-1.6092247265	 0.8150686546	 0.114263
H	 0.4048156191	-0.7772184907	 2.1577884459	 0.108881
H	-1.7830374895	-0.8987254736	 2.5025466267	 0.121825
H	-3.4370304398	-0.5102611916	-0.0422568564	 0.130687
H	-2.6141702843	 0.7711783856	 0.8894446166	 0.14212
H	-1.324348828	-0.8024449517	-1.3270337872	 0.089133
27.3039	138.0624	177.9237	265.0236	273.9957	351.5453	398.8019	493.3989	502.9753	547.1636	687.2316	763.0584	792.8292	830.2712	866.9561	904.9756	949.183	990.4738	1020.1305	1026.5788	1045.8062	1089.0187	1123.2642	1158.8343	1194.7423	1214.8105	1229.4861	1242.4009	1267.8482	1292.1356	1305.7325	1341.7624	1362.6413	1424.8844	1477.1031	1485.6148	2356.8232	3016.6336	3038.499	3043.9104	3085.0303	3095.5952	3100.6688	3163.5261	3820.7424
OC1CN2C(CC12)C#N	O[C@H]1CN2[C@@H](C[C@@H]12)C#N	
InChI=1S/C6H8N2O/c7-2-4-1-5-6(9)3-8(4)5/h4-6,9H,1,3H2	InChI=1S/C6H8N2O/c7-2-4-1-5-6(9)3-8(4)5/h4-6,9H,1,3H2/t4-,5-,6-/m0/s1
