18
gdb 57762	2.90319	0.70946	0.64268	4.2034	82.09	-0.2764	-0.0094	0.267	1796.6625	0.144855	-401.92865	-401.918033	-401.917088	-401.966548	36.697	
C	 0.1164486747	 1.422138662	-0.3043584718	-0.377408
C	 0.01296206	-0.0562430111	 0.1221518506	-0.1323
C	 0.6719438257	-0.2980794894	 1.4949456437	-0.37639
C	-1.379893508	-0.5027441799	 0.1218361344	 0.116319
C	-2.5324657131	-0.852202322	 0.1335715838	 0.040241
C	-3.9205921576	-1.3179976738	 0.1335457965	-0.181267
O	-4.1103314953	-2.5394168906	-0.5589596234	-0.384847
C	-4.4303532728	-1.411572374	 1.5261496808	 0.280255
N	-4.8331072931	-1.5055476937	 2.6046208608	-0.320048
H	 1.1664589004	 1.7273831617	-0.3440479577	 0.119406
H	-0.3281338139	 1.5811106613	-1.290034356	 0.127975
H	-0.4017294465	 2.0668766642	 0.4117922395	 0.130349
H	 0.5496474025	-0.6601735605	-0.6227276838	 0.114114
H	 0.1716168586	 0.2881118895	 2.2714242161	 0.1327
H	 0.6190862858	-1.3521923142	 1.7787820673	 0.127068
H	 1.7243514343	-0.000108586	 1.4628825142	 0.118586
H	-4.5544584954	-0.5935663597	-0.3928424218	 0.166823
H	-3.4823898464	-3.1789530736	-0.2021481131	 0.298425
10.0837	64.2259	90.96	167.7872	197.9013	220.843	225.5422	267.2362	297.2076	347.0498	363.5888	475.4675	503.0219	542.1612	586.0926	611.2263	749.1668	860.2422	920.4228	932.7292	966.3446	1034.3958	1081.2344	1119.9045	1152.1721	1207.802	1261.836	1313.8526	1319.8014	1347.993	1397.5439	1413.8248	1419.7865	1485.8129	1489.0379	1499.0346	1510.0181	2358.4877	2362.2215	3009.6057	3040.0411	3041.9914	3043.0764	3112.9201	3117.6299	3122.0736	3123.7902	3798.9341
CC(C)C#CC(O)C#N	CC(C)C#C[C@@H](O)C#N	
InChI=1S/C7H9NO/c1-6(2)3-4-7(9)5-8/h6-7,9H,1-2H3	InChI=1S/C7H9NO/c1-6(2)3-4-7(9)5-8/h6-7,9H,1-2H3/t7-/m1/s1
