19
gdb 37742	3.28761	1.94757	1.47854	1.7275	78.01	-0.2061	0.0733	0.2794	915.117	0.16285	-381.956111	-381.949765	-381.948821	-381.986393	27.386	
C	 0.0257674168	 1.5009686464	 0.0986926289	-0.207425
C	 1.4470289082	 2.1267276042	-0.0010879482	-0.157714
N	 2.3528818095	 1.5263546217	-1.0189950156	-0.147913
C	 1.5747662057	 0.764961044	-2.0643197006	-0.074496
C	 2.5854512783	-0.4134321791	-2.1363204278	-0.064967
N	 1.5746330796	-1.5015374478	-1.8243665072	-0.418795
C	 1.1127274181	-0.320001097	-1.0253993493	 0.367932
C	-0.001614999	-0.0482477776	-0.0643957093	-0.355833
C	 2.5725369347	 0.0831744873	-0.6756054132	-0.015434
H	-0.4420895486	 1.8028846328	 1.0408632675	 0.099685
H	-0.5891452373	 1.9281555576	-0.7013884114	 0.106934
H	 1.343217054	 3.1949498151	-0.2203491654	 0.102774
H	 1.9669714327	 2.0553499527	 0.9627059623	 0.102692
H	 1.0136550904	 1.240914533	-2.8718806997	 0.074776
H	 3.4318055654	-0.5619685525	-2.8060390426	 0.088219
H	 0.9596415977	-1.6476110638	-2.6305447082	 0.203717
H	 0.1717753091	-0.5671149221	 0.8851928492	 0.110267
H	-0.9800674917	-0.3701949687	-0.4386305269	 0.103357
H	 3.1792422763	-0.2513692163	 0.1670803876	 0.082225
201.8807	246.7139	358.7736	395.4134	477.5202	496.1113	586.0312	688.811	766.4912	769.0395	814.1714	826.3256	844.1154	862.4638	893.7419	903.5069	923.4623	929.85	999.645	1017.6778	1042.8768	1070.9018	1092.2093	1105.2125	1119.7533	1164.4056	1167.2825	1182.6059	1210.3816	1229.7262	1255.9443	1266.6616	1296.1996	1301.1704	1343.5382	1359.5001	1373.3347	1393.09	1482.4848	1491.5384	1502.5265	3025.3979	3030.9423	3037.4493	3065.5243	3069.231	3086.173	3089.8534	3107.668	3127.9671	3389.7303
C1CN2C3C4NC3(C1)C24	C1CN2[C@H]3[C@@H]4N[C@@]3(C1)[C@H]24	
InChI=1S/C7H10N2/c1-2-7-5-4(8-7)6(7)9(5)3-1/h4-6,8H,1-3H2	InChI=1S/C7H10N2/c1-2-7-5-4(8-7)6(7)9(5)3-1/h4-6,8H,1-3H2/t4-,5-,6+,7+
