22
gdb 97660	2.91196	0.81169	0.70182	1.4359	94.21	-0.2167	0.0439	0.2606	1736.2408	0.191358	-367.167504	-367.156543	-367.155599	-367.205578	39.028	
C	 0.00291977	 1.6493770249	 0.0315612252	-0.363423
C	 0.0287979351	 0.1098330635	 0.0057882573	-0.318358
C	 0.7146387437	-0.4281941771	-1.1649035509	 0.080933
C	 1.2980647668	-0.8510660637	-2.1323635001	 0.021368
C	 1.9426592492	-1.3272009408	-3.3341251359	 0.16771
C	 1.6640636668	-0.5023481718	-4.5791003657	-0.4558
C	 3.2581209194	-2.0414379381	-3.1912194455	-0.276753
N	 2.0671157082	-2.7803791305	-3.5771594187	-0.116516
C	 1.5178424683	-3.7104265654	-2.6002655294	-0.311939
H	 1.0182229509	 2.0549085684	 0.041388639	 0.128435
H	-0.5089978094	 2.0439776689	-0.8502781244	 0.128517
H	-0.5206454324	 2.0066495584	 0.9232861686	 0.114516
H	 0.5151097968	-0.2626541368	 0.9166953764	 0.128017
H	-0.999765961	-0.2727700179	 0.0360632043	 0.128391
H	 2.0112485291	 0.5271186762	-4.4465424478	 0.120477
H	 2.1730457635	-0.9434917836	-5.4393882119	 0.124085
H	 0.5904880133	-0.4749056432	-4.7894268466	 0.124684
H	 4.0193211409	-1.9223275091	-3.9590508496	 0.111784
H	 3.6396366332	-2.1724146249	-2.1798437873	 0.10952
H	 1.6058147454	-3.3668870914	-1.5592315972	 0.111338
H	 0.4580183051	-3.8766963787	-2.8166556045	 0.12333
H	 2.0418905468	-4.6661955071	-2.7008281754	 0.119685
8.1731	71.4861	105.7073	158.0343	189.836	192.5758	219.702	242.4459	294.1698	343.5698	355.1385	443.01	498.0252	529.0749	571.0081	617.2363	736.6254	786.7266	824.2661	918.2964	938.095	986.1684	1054.5449	1060.3943	1091.5306	1101.8333	1105.1715	1118.0142	1157.8209	1161.4812	1206.744	1285.1436	1303.6367	1345.0423	1359.6978	1407.0952	1408.9575	1446.2118	1476.7252	1481.5009	1488.3006	1492.9739	1494.5282	1495.6471	1505.3345	1506.4936	2353.157	2994.797	3017.1556	3039.9301	3043.8385	3044.4956	3074.5936	3087.1703	3104.9773	3108.5907	3117.9257	3123.7487	3127.5837	3174.4704
CCC#CC1(C)CN1C	CCC#C[C@@]1(C)CN1C	
InChI=1S/C8H13N/c1-4-5-6-8(2)7-9(8)3/h4,7H2,1-3H3	InChI=1S/C8H13N/c1-4-5-6-8(2)7-9(8)3/h4,7H2,1-3H3/t8-,9?/m0/s1
