22
gdb 76141	2.16383	1.26927	1.11005	3.1672	84.52	-0.241	0.0285	0.2695	1274.6595	0.192216	-404.388143	-404.377411	-404.376466	-404.423313	39.733	
C	 1.387268288	 1.4518641534	-0.1773529432	-0.425632
C	 0.8452104113	 0.0413979647	-0.0856192432	-0.049715
C	 1.7433204476	-1.1876378616	 0.0968447008	-0.185132
C	 3.2245993715	-1.0743459666	 0.25867253	 0.420623
N	 3.9259281657	-2.1092645836	-0.303591314	-0.533539
O	 3.8060535114	-0.154675504	 0.8152704512	-0.382071
C	 0.7530295622	-0.7509769875	 1.1878102555	 0.309253
C	 1.2588042707	-0.1760390377	 2.4981915335	-0.464524
C	-0.4619167003	-1.6483692122	 1.3556061335	-0.444995
H	 2.2896600059	 1.5824357165	 0.4183217058	 0.161204
H	 1.6385907188	 1.6940256976	-1.2157442248	 0.112215
H	 0.6306826399	 2.1714886777	 0.1553302017	 0.108791
H	 0.0304114369	-0.1468156505	-0.7826131211	 0.080405
H	 1.4324623601	-2.0637529949	-0.4660808111	 0.065298
H	 3.4756343895	-2.9408685284	-0.6419628618	 0.255433
H	 4.9201516435	-2.1322005381	-0.1455822078	 0.257096
H	 2.1946600213	 0.3669390471	 2.3784021012	 0.161392
H	 0.50606482	 0.4959498997	 2.9270258937	 0.106863
H	 1.4301791422	-0.9800299197	 3.2235172971	 0.107523
H	-0.2371032009	-2.5013421093	 2.006671558	 0.113752
H	-1.289688666	-1.0935504838	 1.813120061	 0.11772
H	-0.8145211494	-2.0399854587	 0.3960129438	 0.10804
65.0059	151.1568	165.0259	173.8513	187.8886	211.4475	216.1721	252.5922	263.7553	348.1502	357.0413	424.5647	438.0172	487.0396	569.7456	655.253	671.6251	757.4189	803.3786	822.7237	951.008	972.5392	977.9107	1004.7052	1009.2137	1066.0932	1078.1978	1125.4274	1143.6141	1150.6854	1165.2889	1255.6083	1288.9108	1336.6508	1402.2847	1408.2499	1422.1141	1425.8185	1452.8862	1482.8628	1487.502	1495.1143	1503.2475	1513.4075	1521.3733	1614.0513	1763.605	3018.8805	3027.8243	3034.0223	3077.404	3081.9218	3086.083	3094.7105	3111.6965	3132.0802	3158.9679	3167.0227	3602.532	3739.6118
CC1C(C(N)=O)C1(C)C	C[C@H]1[C@@H](C(=O)N)C1(C)C	
InChI=1S/C7H13NO/c1-4-5(6(8)9)7(4,2)3/h4-5H,1-3H3,(H2,8,9)	InChI=1S/C7H13NO/c1-4-5(6(8)9)7(4,2)3/h4-5H,1-3H3,(H2,8,9)/t4-,5-/m0/s1
