25
gdb 112569	3.47893	0.90289	0.8735	0.141	95.19	-0.235	0.027	0.262	1538.1851	0.228233	-352.384482	-352.374305	-352.373361	-352.419318	39.231	
C	-0.0581840555	 1.5812465365	 0.1693824916	-0.387126
C	-0.021749031	 0.0564033851	 0.0309851269	-0.177111
C	 0.6560892172	-0.4425802132	-1.2565110849	-0.010747
C	 0.801917617	-1.9869670689	-1.3149009107	-0.275591
C	 0.5887661453	-2.4102093473	-2.799709844	 0.270365
C	 1.9347181096	-2.5922895472	-3.5331953277	-0.416682
C	-0.2399018543	-3.6988040178	-2.9231356927	-0.427822
C	-0.1422340772	-1.198972046	-3.3520412085	-0.095273
C	-0.0959063442	-0.147452008	-2.5381298282	-0.085629
H	 0.9528137427	 2.0038748047	 0.1518538334	 0.113031
H	-0.625216366	 2.0488604663	-0.6422378267	 0.1168
H	-0.526775361	 1.8812804505	 1.1119542937	 0.111252
H	 0.510600478	-0.3701939574	 0.8912307115	 0.092885
H	-1.042559512	-0.3458934388	 0.0720945949	 0.093308
H	 1.6485805907	 0.0337632645	-1.3071202522	 0.071221
H	 1.7601640594	-2.3347695373	-0.9167476971	 0.088956
H	 0.0156690041	-2.4367497229	-0.6968893064	 0.091099
H	 2.4798523098	-3.4575280553	-3.1384703722	 0.107689
H	 1.7810158745	-2.756109795	-4.6056865855	 0.107657
H	 2.5697432202	-1.7080381746	-3.4194846701	 0.113221
H	-1.2185967833	-3.5856165238	-2.4458331209	 0.111046
H	-0.4062538029	-3.9641785788	-3.97353605	 0.106909
H	 0.2735578531	-4.5419904549	-2.4468689557	 0.109362
H	-0.602156466	-1.2121621287	-4.3360485588	 0.083014
H	-0.512858138	 0.8291511583	-2.7609462998	 0.088164
52.019	105.8039	172.5968	208.8606	233.3952	242.3508	264.2466	293.2747	318.8349	360.309	404.88	437.136	545.2041	593.9933	685.3463	771.9313	788.4759	813.9208	852.429	902.5718	920.1632	946.6552	957.1536	972.4661	977.0816	1002.3139	1029.7228	1061.814	1095.7362	1119.1337	1141.3547	1173.4254	1219.7012	1243.0371	1263.8988	1275.8054	1289.4151	1326.3628	1344.2139	1374.0891	1387.9977	1395.0231	1412.6961	1420.469	1481.5923	1484.6225	1486.5332	1493.0604	1500.6308	1501.6055	1506.6025	1508.0293	1685.9591	2965.5378	3012.4425	3019.1698	3022.9431	3030.6328	3032.1065	3047.0067	3079.2691	3085.1173	3089.7711	3096.4995	3097.4333	3100.154	3101.4352	3164.0424	3193.254
CCC1CC(C)(C)C=C1	CC[C@H]1CC(C)(C)C=C1	
InChI=1S/C9H16/c1-4-8-5-6-9(2,3)7-8/h5-6,8H,4,7H2,1-3H3	InChI=1S/C9H16/c1-4-8-5-6-9(2,3)7-8/h5-6,8H,4,7H2,1-3H3/t8-/m1/s1
