12
gdb 21418	3.71261	2.05019	1.32081	2.9468	59.1	-0.2262	-0.0452	0.181	833.2076	0.085249	-410.867058	-410.860127	-410.859183	-410.898573	24.353	
N	-0.1004208765	 1.3207601739	 0.0380751927	-0.590899
C	 0.0089999887	 0.0534122571	 0.0361520564	 0.471624
N	 1.0729446413	-0.8283216182	 0.0514158577	-0.322899
N	 0.699958839	-2.1579928126	 0.041288763	-0.198812
C	-0.5865755639	-2.1360490818	 0.0196733514	 0.059913
N	-1.090493872	-0.8403795941	 0.0148244308	-0.134346
C	-2.4354818424	-0.4749163809	-0.0060650202	 0.177283
O	-3.3279446951	-1.2827941053	-0.0232332245	-0.296138
H	 0.8040635167	 1.7834920176	 0.0546643754	 0.222486
H	 2.0480964779	-0.5905381844	 0.0685111807	 0.279523
H	-1.2315782162	-2.9981329153	 0.0062251918	 0.185122
H	-2.5538473074	 0.6183197841	-0.004587205	 0.147142
94.6356	144.1955	205.9063	233.8075	340.3454	388.96	591.904	651.7678	706.8403	714.1003	730.938	840.8206	863.9936	941.6462	1052.0845	1066.8518	1073.466	1206.8973	1247.0817	1291.568	1384.4357	1414.4788	1422.2275	1642.0825	1761.2763	1816.0029	3051.3276	3300.4044	3536.5854	3703.5176
N=C1NN=CN1C=O	[NH][C@@H]1NN=CN1C=O	
InChI=1S/C3H4N4O/c4-3-6-5-1-7(3)2-8/h1-2H,(H2,4,6)	InChI=1S/C3H5N4O/c4-3-6-5-1-7(3)2-8/h1-4,6H/t3-/m1/s1
