19
gdb 82393	2.46261	1.71569	1.13294	2.133	76.83	-0.2429	0.019	0.2619	1099.8559	0.159745	-423.02623	-423.017938	-423.016993	-423.058959	32.192	
C	-0.5670129865	 1.5004473937	 0.0608731217	-0.468839
C	-0.1284209347	 0.0612881011	-0.00459763	 0.287327
C	 0.0058632438	-0.5918042277	-1.1606959179	-0.154807
C	 0.4154768602	-2.0286804697	-1.3151299968	-0.303845
C	 0.881397915	-2.6707144201	-0.0325885312	 0.057997
O	 1.9929352534	-2.0561740046	 0.6307794654	-0.269899
C	 0.7005896934	-1.9905726884	 1.2556876333	 0.006581
C	 0.1378773765	-0.5878437442	 1.3404156787	 0.015424
O	 1.0112911853	 0.2129406358	 2.1407118586	-0.434036
H	 0.1738633097	 2.1098695492	 0.5867416722	 0.138441
H	-0.7247370862	 1.9154978822	-0.9377430665	 0.114639
H	-1.5039734708	 1.5998454341	 0.6247281898	 0.120012
H	-0.2071144835	-0.0628060482	-2.0877882833	 0.082465
H	-0.4260320687	-2.6168139935	-1.7106154819	 0.11653
H	 1.2097643012	-2.1163260329	-2.069771794	 0.121684
H	 0.9277760839	-3.7600300452	-0.0375529168	 0.09118
H	 0.6218858238	-2.5785302305	 2.1695559855	 0.097571
H	-0.8020154549	-0.622923306	 1.908682386	 0.09
H	 1.8859594491	 0.1195040648	 1.7416347974	 0.291574
74.049	166.7826	203.6081	269.8612	281.2137	336.7796	356.8541	426.8016	445.9714	512.7665	558.2368	671.56	735.0137	775.7645	823.9897	844.6183	902.9721	926.9497	941.3861	1022.0602	1034.3265	1053.7948	1068.8352	1087.3827	1104.7466	1151.7126	1181.4617	1238.2628	1259.8416	1287.4128	1322.8595	1369.5983	1377.9861	1399.7794	1409.0927	1426.0289	1463.6368	1472.653	1478.0974	1495.5459	1744.6288	3001.3907	3014.8069	3022.8952	3026.7902	3084.5805	3104.3555	3120.8622	3121.8467	3141.2022	3776.1159
CC1=CCC2OC2C1O	CC1=CC[C@H]2O[C@H]2[C@H]1O	
InChI=1S/C7H10O2/c1-4-2-3-5-7(9-5)6(4)8/h2,5-8H,3H2,1H3	InChI=1S/C7H10O2/c1-4-2-3-5-7(9-5)6(4)8/h2,5-8H,3H2,1H3/t5-,6+,7-/m1/s1
