22
gdb 40358	3.60491	1.30195	1.19655	1.0374	85.68	-0.2241	0.0857	0.3098	1140.1281	0.19699	-367.174046	-367.166419	-367.165475	-367.206074	31.547	
C	-0.1993595837	 1.229824497	-0.3791828008	-0.232248
C	 1.2060722562	 1.0288464931	 0.07304192	-0.234274
N	 0.2431094321	-0.066744383	 0.1159214415	-0.16327
C	-0.2055409537	-0.5222776544	 1.4019296106	 0.400638
C	-0.5935244873	 0.3675858943	 2.6443543386	-0.282616
C	-1.3238564403	-0.936744598	 3.0716732447	-0.017295
C	-1.6100187466	-1.1669566798	 1.560669208	-0.265631
C	-0.1461364471	-1.8982723637	 3.3278951479	-0.211501
C	 0.7059809514	-1.5810487384	 2.0587887124	-0.246328
H	-0.839714133	 1.8397770205	 0.2539251209	 0.109353
H	-0.437447689	 1.2682550785	-1.4384979178	 0.114133
H	 2.0127915327	 0.9252106676	-0.647219845	 0.114104
H	 1.4903444032	 1.4972943674	 1.0135485744	 0.112094
H	 0.2056284521	 0.7440523621	 3.2904246258	 0.084783
H	-1.2919937818	 1.1702524698	 2.3965217609	 0.094378
H	-2.1291156023	-0.9165923469	 3.8053564655	 0.059617
H	-2.4063541579	-0.523613309	 1.1782987658	 0.092205
H	-1.7452731595	-2.1925409533	 1.2045799729	 0.089203
H	 0.3803686831	-1.6700425785	 4.2593924934	 0.093095
H	-0.4653033583	-2.9436984637	 3.3706376839	 0.095239
H	 0.8450454043	-2.4439321451	 1.4023576172	 0.102422
H	 1.6940157854	-1.1755636166	 2.2963906091	 0.091901
74.6158	182.1984	218.1423	288.988	380.6077	421.0442	464.92	525.0258	546.038	650.5681	803.2431	822.3124	834.6898	836.175	871.0474	900.2366	914.8842	917.7655	952.3616	965.7039	982.0847	1001.1991	1008.2828	1046.1717	1088.8244	1103.3675	1113.4119	1120.0234	1138.4458	1144.4002	1169.7914	1189.7028	1198.6383	1229.8427	1239.055	1243.388	1262.2177	1271.0992	1319.8297	1322.6645	1370.6726	1483.7624	1490.5066	1493.4499	1500.9471	1518.077	1531.1548	3045.6363	3047.6234	3051.8713	3059.462	3086.0309	3097.3484	3104.6838	3105.9125	3112.371	3114.3554	3120.3597	3177.9736	3193.3834
C1CN1C12CC(C1)CC2	C1CN1[C@@]12C[C@@H](C1)CC2	
InChI=1S/C8H13N/c1-2-8(9-3-4-9)5-7(1)6-8/h7H,1-6H2	InChI=1S/C8H13N/c1-2-8(9-3-4-9)5-7(1)6-8/h7H,1-6H2/t7-,8-
