18
gdb 114458	4.7123	1.16275	1.09303	1.9253	70.91	-0.2385	0.0741	0.3126	1122.9711	0.149759	-439.007019	-438.999883	-438.998939	-439.038762	28.498	
O	 0.0050540097	 1.427397821	-0.1814982175	-0.420906
C	 0.0725718495	 0.0461804838	 0.1062272769	-0.06528
C	-1.3179706192	-0.5763684226	 0.1289848533	 0.074045
O	-1.9618145258	-0.3042502642	-1.147846325	-0.306275
C	-2.2718403033	-1.5903107606	-1.6269018507	 0.156769
C	-2.7661809883	-2.5069755037	-0.4731996822	-0.077237
N	-2.1763335385	-3.6855773522	-1.2034332257	-0.337205
C	-1.1341133424	-2.602779783	-1.3158634541	-0.076543
C	-1.3879002022	-2.0967029598	 0.1483123305	-0.088186
H	-0.5333889107	 1.5032675773	-0.978749711	 0.29294
H	 0.6999895152	-0.489525404	-0.6250192227	 0.084483
H	 0.545567343	-0.0545144727	 1.0894627272	 0.106729
H	-1.916375074	-0.1082840085	 0.9209895353	 0.090313
H	-2.7683741388	-1.564524158	-2.5936180668	 0.105192
H	-3.7454993608	-2.5358478736	 0.005721838	 0.085686
H	-1.8632631416	-4.3785877677	-0.5182709276	 0.211244
H	-0.1870739286	-2.7508517903	-1.835423193	 0.086436
H	-0.9851090831	-2.6500525212	 0.9974617849	 0.077794
96.3641	146.749	208.9694	365.7457	442.3205	460.2011	465.0141	527.782	698.662	734.7499	797.4073	810.6521	833.2314	886.6509	907.2775	909.7346	975.1546	986.6002	1004.8821	1034.0264	1073.1751	1085.8629	1101.8991	1120.8782	1131.168	1154.932	1157.187	1173.6193	1222.498	1247.4385	1260.7313	1285.143	1290.0352	1319.8153	1336.791	1375.0778	1401.074	1437.6329	1498.54	2970.7824	3030.7115	3069.0294	3109.6042	3110.4564	3123.1438	3167.4115	3400.9943	3788.602
OCC1OC2C3NC2C13	OC[C@H]1O[C@@H]2[C@H]3N[C@@H]2[C@@H]13	
InChI=1S/C6H9NO2/c8-1-2-3-4-6(9-2)5(3)7-4/h2-8H,1H2	InChI=1S/C6H9NO2/c8-1-2-3-4-6(9-2)5(3)7-4/h2-8H,1H2/t2-,3-,4-,5+,6+/m1/s1
