19
gdb 43181	2.17572	2.10258	1.25224	3.1117	79.77	-0.232	-0.0153	0.2167	1030.1604	0.160438	-385.869201	-385.861689	-385.860745	-385.901244	29.772	
O	 0.0019373808	 0.0179327831	 0.0027037342	-0.319726
C	-0.0144915646	 1.2166079644	 0.0089802578	 0.420369
C	-1.1223620855	 2.2652651313	 0.1334952086	-0.214064
C	-1.6613308356	 2.7516732958	-1.2636383674	-0.229867
C	-0.761738158	 4.0203599808	-1.1851958672	-0.32624
C	-0.0444778145	 3.4105702302	 0.0213009796	 0.387606
C	 0.656011848	 4.0263686971	 1.2345818587	-0.326228
C	 1.5897735336	 2.7818236808	 1.2992923355	-0.229858
C	 1.0643247926	 2.2964765039	-0.1033494878	-0.21405
H	-1.8649873829	 2.1758074182	 0.9280924061	 0.083614
H	-1.4287018288	 2.0726981432	-2.0870691383	 0.118978
H	-2.7352916801	 2.9425173378	-1.273753853	 0.116268
H	-0.1474922847	 4.2620458308	-2.0574237343	 0.100781
H	-1.3401372877	 4.9102530621	-0.9161940302	 0.106387
H	 1.2099442573	 4.9345922494	 0.975532086	 0.106389
H	 0.0354648936	 4.2416146011	 2.1092709574	 0.100777
H	 2.6581389039	 3.0017132591	 1.311897983	 0.116271
H	 1.3756791105	 2.08767602	 2.1150648077	 0.118991
H	 1.8091359021	 2.2362135609	-0.8986492463	 0.083603
81.8111	181.6576	186.0726	288.5463	290.2349	431.52	459.3375	598.0306	675.6969	708.3543	712.2246	763.4803	811.1741	848.4903	887.6171	901.3811	934.5513	944.1351	949.1338	973.9459	1033.9701	1039.9491	1095.4756	1128.3237	1131.9522	1160.4472	1197.7898	1214.2027	1214.6045	1222.8972	1249.4	1257.8453	1265.9314	1266.1658	1290.3736	1323.3158	1478.7772	1480.2024	1495.8543	1496.5052	1874.6759	3044.1726	3046.5147	3073.738	3073.9677	3090.6334	3090.6363	3097.4555	3101.3572	3129.6141	3129.7804
O=C1C2CCC22CCC12	O=C1[C@@H]2CC[C@]32CC[C@@H]13	
InChI=1S/C8H10O/c9-7-5-1-3-8(5)4-2-6(7)8/h5-6H,1-4H2	InChI=1S/C8H10O/c9-7-5-1-3-8(5)4-2-6(7)8/h5-6H,1-4H2/t5-,6-,8+/m0/s1
