16
gdb 11129	6.63987	1.05134	0.96813	1.3214	61.36	-0.2506	-0.0374	0.2132	1159.6378	0.128836	-420.85711	-420.848881	-420.847937	-420.891016	28.57	
O	 0.4425611447	 1.2003320904	-0.0166210922	-0.418408
C	 0.2425249909	-0.1925255918	 0.0995919303	-0.065948
C	-1.1580081336	-0.5734493798	-0.3436387712	 0.132491
C	-1.7048495567	-1.9444993614	 0.1057823202	-0.325872
C	-2.7027877256	-1.1167894703	 0.9342929332	 0.062049
O	-2.1401947834	 0.1344711316	 0.4768778754	-0.328343
C	-4.165385966	-1.2127537022	 0.5436439733	 0.132491
O	-4.6993194586	-2.2235200742	 0.168816547	-0.232426
H	-0.2806835449	 1.6153618289	 0.4692775295	 0.294237
H	 0.9859373456	-0.6825726869	-0.5394762692	 0.113118
H	 0.4038493741	-0.5420123226	 1.1332961189	 0.083771
H	-1.3017511667	-0.323199658	-1.4010611147	 0.095346
H	-2.1701461579	-2.5592240717	-0.6645442046	 0.136892
H	-1.0065543501	-2.5499418475	 0.6857983096	 0.117974
H	-2.6285439014	-1.2231088203	 2.0271296234	 0.107946
H	-4.7098601804	-0.2455853441	 0.6267633109	 0.09468
39.8797	84.107	109.1322	159.6743	260.7866	316.2287	431.902	458.4354	499.6449	582.733	745.2064	806.1851	889.2613	895.8931	934.398	1015.2812	1022.5811	1041.6404	1082.4193	1100.3927	1127.6126	1167.2326	1222.6432	1251.0444	1254.8629	1305.7268	1338.0756	1354.8388	1398.7973	1401.316	1435.317	1493.7789	1499.0112	1834.2728	2891.8719	2964.9312	2994.4247	3044.4101	3070.7475	3089.6697	3149.0386	3786.9624
OCC1CC(O1)C=O	OC[C@H]1C[C@@H](O1)C=O	
InChI=1S/C5H8O3/c6-2-4-1-5(3-7)8-4/h2,4-5,7H,1,3H2	InChI=1S/C5H8O3/c6-2-4-1-5(3-7)8-4/h2,4-5,7H,1,3H2/t4-,5-/m1/s1
