20
gdb 93146	2.4429	1.56516	1.06336	2.3151	82.18	-0.2328	0.0056	0.2384	1179.0227	0.170725	-403.154826	-403.145794	-403.14485	-403.188647	33.866	
C	 0.0329412496	 1.5533646294	-0.0823803967	-0.397806
C	 0.0328832203	 0.0288585402	 0.0505180194	 0.040165
O	 0.5838722424	-0.4466678731	-1.1899423027	-0.24492
C	 0.6161428322	-1.7955783928	-1.4120088058	 0.087534
N	 1.3878619601	-2.6268606358	-0.8679067742	-0.210051
C	 2.3333146792	-2.1138961262	 0.1276900105	-0.215047
C	 1.7327901092	-1.3680652245	 1.2970353609	-0.171147
C	 0.7507457345	-0.4639811213	 1.292743664	 0.309295
C	 0.2381083036	 0.1209695435	 2.5877568455	-0.477825
H	 1.0584723658	 1.9336503765	-0.0937948939	 0.129702
H	-0.4521917648	 1.8320777275	-1.0206870076	 0.128962
H	-0.5085210201	 2.0231835184	 0.7411878472	 0.122817
H	-1.0148031032	-0.3130609732	 0.1073630705	 0.086116
H	-0.0679064748	-2.1158027526	-2.2000469628	 0.113327
H	 2.8889516852	-2.9718127855	 0.5160903008	 0.108821
H	 3.0695953698	-1.4775141638	-0.3868081072	 0.125653
H	 2.1620838532	-1.6279334521	 2.2628897236	 0.085085
H	 0.6758017234	-0.3918752457	 3.4472200267	 0.126268
H	 0.4709422195	 1.1881578928	 2.6781570056	 0.130221
H	-0.8536151751	 0.0298380582	 2.6615060762	 0.122829
49.7456	139.3669	183.0026	212.472	243.0318	306.5017	311.2034	350.3442	355.4848	405.1241	530.4042	585.087	658.9251	742.115	804.0762	840.5272	862.8037	922.8904	967.6683	993.3133	1011.1408	1044.7579	1065.421	1088.3194	1110.615	1136.5105	1143.4942	1198.3286	1248.8905	1336.5383	1354.6695	1377.2547	1390.3184	1397.4902	1405.0321	1417.9231	1478.6612	1485.6035	1488.5759	1496.6069	1501.225	1740.525	1749.6934	2952.0373	2992.2569	3020.0176	3052.6089	3070.1759	3074.5664	3117.9358	3121.0587	3128.7518	3138.9249	3139.4568
CC1OC=NCC=C1C	C[C@H]1OC=NCC=C1C	
InChI=1S/C7H11NO/c1-6-3-4-8-5-9-7(6)2/h3,5,7H,4H2,1-2H3	InChI=1S/C7H11NO/c1-6-3-4-8-5-9-7(6)2/h3,5,7H,4H2,1-2H3/t7-/m1/s1
