13
gdb 131244	5.48982	1.34543	1.0806	3.8038	66.14	-0.1942	0.0071	0.2012	1006.8363	0.092773	-448.951449	-448.944902	-448.943957	-448.982131	25.726	
O	 0.082215341	 1.3031835321	-0.0489687647	-0.432116
C	 0.0653411115	-0.045440169	-0.0673175448	 0.347261
C	 0.0033555844	-0.8361258923	-1.1971756033	-0.250277
N	 0.0128682033	-2.1223725014	-0.666139502	 0.047091
N	-0.0222183538	-3.4225633328	-1.0866154256	-0.249776
C	 0.0219497972	-4.0985640701	 0.0344286795	 0.042153
N	 0.0832975095	-3.2914431892	 1.149609815	-0.408568
C	 0.0771311588	-1.9993563307	 0.6838059934	 0.50839
N	 0.1118941511	-0.755632725	 1.1142286357	-0.49289
H	 0.1283055923	 1.5581173554	 0.880513731	 0.301539
H	-0.042963412	-0.6220221617	-2.2475004503	 0.140415
H	 0.0117703471	-5.1742283629	 0.0902952964	 0.157708
H	 0.1248950697	-3.5821449723	 2.1098176799	 0.289071
156.307	319.1801	332.2183	337.682	366.423	412.3294	549.6548	587.4806	601.5264	647.5572	702.5064	735.709	794.1809	795.8701	878.117	967.9075	1010.0621	1093.8219	1144.1429	1164.6701	1235.8209	1282.4069	1351.0815	1404.7256	1432.4693	1466.055	1549.9042	1627.4377	1657.8619	3289.7152	3320.9122	3702.0907	3804.6056
OC1=CN2N=CNC2=N1	Oc1cn2nc[nH]c2n1	
InChI=1S/C4H4N4O/c9-3-1-8-4(7-3)5-2-6-8/h1-2,9H,(H,5,6,7)	InChI=1S/C4H4N4O/c9-3-1-8-4(7-3)5-2-6-8/h1-2,9H,(H,5,6,7)
