20
gdb 112262	2.67353	1.09908	0.84826	4.6183	76.14	-0.2548	0.0265	0.2813	1394.562	0.170604	-440.309056	-440.299374	-440.298429	-440.344015	35.161	
C	-0.1125722984	 1.6613414682	-0.2239862631	-0.39008
C	 0.0118198535	 0.1692000139	 0.1024629106	-0.18215
C	-1.3375833935	-0.5420261816	 0.1304305177	 0.037979
N	-1.9943547625	-0.7153227465	-1.1819522238	-0.340943
C	-2.0077788992	-2.0822241246	-1.1519137797	 0.450951
O	-2.3298642762	-2.9327179542	-1.9476490684	-0.388063
C	-1.3772511436	-2.1059052164	 0.2530016195	-0.208133
C	-0.1113075567	-2.9624179525	 0.3026302389	-0.075709
O	-0.4500914738	-4.3157372296	 0.0722330894	-0.426045
H	 0.8658919681	 2.1497561086	-0.2118364127	 0.124475
H	-0.5439028742	 1.8177728734	-1.2189794942	 0.113727
H	-0.7524012521	 2.1752775795	 0.5017163713	 0.120752
H	 0.6680483207	-0.3152100996	-0.6285003132	 0.108075
H	 0.4834397837	 0.0462514071	 1.0854771172	 0.108856
H	-1.9962985116	-0.0493023679	 0.8567169252	 0.08619
H	-2.2718401673	-0.0581851004	-1.8965666298	 0.250956
H	-2.07934791	-2.4575809526	 1.0134300429	 0.110052
H	 0.6255050265	-2.6022746525	-0.432063529	 0.090548
H	 0.3610594159	-2.9162189926	 1.28972254	 0.109035
H	-0.9745288491	-4.3403211297	-0.7406708386	 0.299527
73.9028	94.2782	126.44	134.1294	181.9445	231.5973	269.6134	334.281	421.121	432.9239	481.7744	509.447	546.9558	714.5519	745.3344	805.2815	834.9906	859.1129	931.3246	975.4394	1035.7403	1056.0234	1072.0105	1099.7729	1135.3928	1146.1543	1183.2742	1198.5585	1230.6804	1278.159	1301.5759	1326.452	1345.8675	1382.8605	1390.2119	1412.1779	1416.9044	1453.4315	1479.0561	1501.2431	1504.2439	1516.5488	1864.319	2981.6858	3021.7742	3031.1636	3034.0387	3063.2048	3074.0473	3088.8644	3100.7749	3110.5811	3604.6684	3740.529
CCC1NC(=O)C1CO	CC[C@H]1NC(=O)[C@H]1CO	
InChI=1S/C6H11NO2/c1-2-5-4(3-8)6(9)7-5/h4-5,8H,2-3H2,1H3,(H,7,9)	InChI=1S/C6H11NO2/c1-2-5-4(3-8)6(9)7-5/h4-5,8H,2-3H2,1H3,(H,7,9)/t4-,5+/m0/s1
