17
gdb 56241	1.59491	0.88865	0.72604	3.9409	65.3	-0.2568	0.0282	0.285	1663.8949	0.128581	-492.364316	-492.350791	-492.349847	-492.410009	40.762	
N	 0.1467368671	 0.6262264625	 0.8911296444	-0.532264
C	-0.1261669714	-0.6886453639	 0.5609539115	 0.424308
N	 0.9868043882	-1.4567235256	 0.2992037843	-0.545412
H	 0.7768448365	-2.3367525802	-0.148961783	 0.2832
H	 1.8230727456	-0.9956592806	-0.0226394168	 0.252789
O	-1.2659490249	-1.1257043269	 0.5093615005	-0.374243
C	-2.1168123064	-1.7147525742	-3.3810671925	-0.246857
C	-2.9580735749	-1.1969769785	-2.4923215065	-0.252
C	-1.8198964739	-3.7481813662	-0.409488523	 0.603302
O	-0.7304565941	-3.8500134865	-0.8162430385	-0.325304
O	-2.908622739	-3.7072962857	-0.0146525392	-0.286091
H	 1.0311528773	 0.8328124807	 1.3293189344	 0.253526
H	-0.6436506757	 1.1062712205	 1.2928329878	 0.265067
H	-2.4323392299	-1.9998751851	-4.3805281876	 0.107595
H	-1.0697191444	-1.8796870791	-3.1450739988	 0.109506
H	-2.6357867892	-0.9199325302	-1.493277727	 0.155269
H	-4.0063283608	-1.0370114112	-2.7287460997	 0.107611
9.0929	22.363	31.3117	53.2386	55.5307	62.7906	77.5568	101.0862	106.1442	130.4322	163.2874	383.2657	443.404	482.3086	546.0375	568.0024	597.7164	668.6775	684.633	784.4405	831.6589	966.3584	967.0162	1008.0056	1053.1727	1085.5771	1182.1918	1241.5955	1376.8278	1387.5011	1433.4672	1472.8161	1629.3199	1635.4272	1692.3202	1792.3477	2431.4782	3134.6174	3149.376	3209.5895	3237.8852	3575.0808	3583.7571	3692.9631	3698.6519
NC(=[NH2+])OCCC([O-])=O	NC(=O)N.C=C.C(=O)=O	
InChI=1S/C4H8N2O3/c5-4(6)9-2-1-3(7)8/h1-2H2,(H3,5,6)(H,7,8)	InChI=1S/C2H4.CH4N2O.CO2/c1-2;2-1(3)4;2-1-3/h1-2H2;(H4,2,3,4);
