18
gdb 79265	2.47751	2.03277	1.57353	2.2174	68.99	-0.2314	0.0538	0.2852	902.1332	0.149826	-439.069093	-439.061881	-439.060937	-439.100122	29.884	
O	 0.0209378123	 1.4242220675	 0.0310570008	-0.452398
C	 0.0252158449	 0.0144283285	-0.0197627421	 0.123948
C	-1.3682621654	-0.543825002	-0.2448902916	-0.051537
C	-1.5847537793	-0.611730546	-1.7187580531	-0.028786
C	-0.3313727921	-0.0777599487	-2.3931380545	-0.291406
C	 0.6520917117	-0.5724724813	-1.3072503049	 0.307055
O	 2.0101081829	-0.2438853541	-1.4114778964	-0.509665
C	 0.2111506706	-2.0414338589	-1.1609215219	-0.209392
N	-1.2463870383	-1.8476095116	-0.9543057454	-0.138286
H	 0.940873637	 1.7039881334	-0.0473758353	 0.289817
H	 0.5109045238	-0.410176945	 0.8718090816	 0.071117
H	-2.1635294205	-0.4418103764	 0.4828662341	 0.094885
H	-2.5658239209	-0.5764201073	-2.1763067264	 0.094186
H	-0.139097049	-0.5285804868	-3.3733182133	 0.089326
H	-0.3325425261	 1.0103837783	-2.4795632109	 0.119999
H	 2.3213072139	-0.480653823	-2.290992336	 0.28509
H	 0.3897593141	-2.6496798205	-2.0539678531	 0.096205
H	 0.6577597804	-2.5403938463	-0.2958821616	 0.109843
193.9665	227.6035	262.8657	352.9364	360.533	382.0204	448.6811	478.0743	564.1416	624.9303	676.9735	717.0687	787.2898	820.436	836.9056	923.9095	943.6735	955.0414	961.3003	1017.5245	1042.2333	1072.6903	1107.928	1134.6874	1141.9747	1168.0212	1183.5183	1197.5258	1211.9333	1237.5196	1273.5604	1295.7333	1317.565	1352.6372	1376.8573	1406.3636	1433.2696	1477.2579	1507.2195	2992.3702	3042.1693	3049.0022	3097.7627	3121.4119	3184.3496	3195.9167	3791.1247	3817.4851
OC1C2C3CC1(O)CN23	O[C@H]1[C@H]2[C@H]3C[C@]1(O)CN23	
InChI=1S/C6H9NO2/c8-5-4-3-1-6(5,9)2-7(3)4/h3-5,8-9H,1-2H2	InChI=1S/C6H9NO2/c8-5-4-3-1-6(5,9)2-7(3)4/h3-5,8-9H,1-2H2/t3-,4-,5+,6+,7?/m1/s1
