17
gdb 45014	2.39747	1.74972	1.14123	1.6547	75.78	-0.2559	-0.0138	0.2421	1059.4075	0.139042	-418.057437	-418.050052	-418.049108	-418.089423	29.057	
N	-0.0894028355	 1.2516560266	 0.3602616483	-0.52361
C	-0.0239127802	 0.021446207	 0.0345189162	 0.389493
N	 1.1713509877	-0.6866721212	-0.1632776686	-0.376046
C	 1.363104955	-1.9051234447	-0.7977956468	 0.383843
O	 2.4679403202	-2.396599094	-0.8691883871	-0.351315
C	 0.1347866116	-2.527523182	-1.4430481854	-0.341546
C	-1.1943903424	-2.098561295	-0.8599307563	-0.051255
C	-1.4028720401	-2.0887313076	 0.6238023175	-0.299031
C	-1.2629409538	-0.7736318173	-0.1308011323	-0.053684
H	 0.8385249636	 1.6743926694	 0.4307448536	 0.207166
H	 2.0324290684	-0.247819788	 0.137732317	 0.251723
H	 0.1812842193	-2.2488159658	-2.5042030052	 0.14234
H	 0.2697943347	-3.6120921484	-1.402296821	 0.142169
H	-2.0556991879	-2.348671381	-1.4707487753	 0.10294
H	-2.3863528317	-2.3265169841	 1.0115474056	 0.127941
H	-0.5814792366	-2.3915086572	 1.2647627008	 0.131468
H	-2.1463414022	-0.1572969266	-0.2307985411	 0.117404
97.0625	128.3333	240.6379	328.9668	369.6736	469.8318	497.2755	521.2611	556.3069	637.3802	683.5239	709.0405	782.2511	822.3631	864.6291	868.9538	893.4501	933.6315	1012.2128	1019.8604	1056.7731	1074.5452	1114.8659	1130.8187	1150.9043	1213.0294	1235.4424	1296.7912	1336.4497	1354.905	1408.0977	1413.4964	1429.3583	1464.4009	1491.6515	1727.1763	1805.6253	3033.0945	3093.2938	3137.97	3159.8263	3207.4546	3227.7036	3449.0436	3582.882
N=C1NC(=O)CC2CC12	[NH][C]1NC(=O)C[C@H]2C[C@@H]12	
InChI=1S/C6H8N2O/c7-6-4-1-3(4)2-5(9)8-6/h3-4H,1-2H2,(H2,7,8,9)	InChI=1S/C6H8N2O/c7-6-4-1-3(4)2-5(9)8-6/h3-4H,1-2H2,(H2,7,8,9)/t3-,4-/m1/s1
