23
gdb 112580	2.99813	0.92795	0.83755	0.6877	92.46	-0.2522	0.0584	0.3106	1526.3764	0.203444	-351.124985	-351.114657	-351.113713	-351.160155	39.119	
C	-0.2331404302	 1.5195497278	-0.0540353996	-0.378944
C	 0.0764141992	 0.020162992	-0.1158655145	-0.198459
C	 0.751662489	-0.5063299425	 1.1431379436	 0.07064
C	-0.0642260918	-0.5751114615	 2.4637328286	-0.263325
C	 0.607909775	-1.9581888597	 2.7859668111	 0.124916
C	-0.3108511139	-3.0662109354	 3.3096454155	-0.449773
C	 1.0122166504	-2.0303378102	 1.269608773	-0.280409
C	 1.773806433	-1.8027094168	 3.6462308769	 0.329718
C	 2.7343657134	-1.6798111299	 4.3603297995	-0.50608
H	 0.6827211111	 2.1070552357	 0.0745025393	 0.114978
H	-0.7240719098	 1.8638297386	-0.9695340574	 0.111327
H	-0.895603957	 1.7537111498	 0.7864612235	 0.118364
H	-0.8530618471	-0.5409540377	-0.2854127432	 0.08747
H	 0.7190137851	-0.1871728012	-0.9821172322	 0.094965
H	 1.6841969894	 0.0417267003	 1.3192601869	 0.078491
H	 0.0674081864	 0.2207504668	 3.198688097	 0.105601
H	-1.1340660387	-0.7103268109	 2.269778102	 0.093292
H	-1.1841515702	-3.1747572851	 2.6584956866	 0.108494
H	 0.2146029646	-4.0257683836	 3.3446802389	 0.124484
H	-0.6612612242	-2.8377847288	 4.3211125974	 0.124405
H	 0.2744226654	-2.6133024444	 0.7079324775	 0.093493
H	 2.0119662277	-2.4039009246	 1.0408885319	 0.104858
H	 3.5824509132	-1.5709616787	 4.9897168077	 0.191492
57.9778	97.342	140.2906	170.1396	204.7531	229.8906	244.5103	309.145	345.5866	386.7323	412.1606	504.8088	554.7327	603.3594	611.1066	625.9481	707.0334	780.595	832.565	859.897	902.9125	922.2174	954.1117	970.0047	997.2366	1026.7931	1067.6304	1089.2155	1123.2305	1157.468	1184.9823	1213.3621	1236.5005	1276.3521	1280.0184	1290.9122	1314.0216	1347.3718	1393.5168	1406.9996	1412.0497	1471.5942	1483.3073	1487.9829	1490.64	1499.2472	1499.7997	1507.0904	2227.0179	3006.5731	3029.9641	3031.0278	3032.8728	3041.8858	3045.2356	3053.4801	3096.4958	3102.239	3104.7368	3107.4997	3116.2853	3118.8506	3502.3695
CCC1CC(C)(C1)C#C	CC[C@H]1C[C@@](C)(C1)C#C	
InChI=1S/C9H14/c1-4-8-6-9(3,5-2)7-8/h2,8H,4,6-7H2,1,3H3	InChI=1S/C9H14/c1-4-8-6-9(3,5-2)7-8/h2,8H,4,6-7H2,1,3H3/t8-,9-
