15
gdb 33810	2.26141	1.58172	1.13873	4.24	79.39	-0.2501	-0.0161	0.234	1080.6066	0.112382	-379.604871	-379.596861	-379.595917	-379.637437	30.425	
C	 0.0279466586	-1.18624296	-0.0138824813	-0.403641
C	 0.0231531284	 0.0159157435	 0.012794205	 0.283107
C	 0.0086385647	 1.4384428143	 0.0365544809	 0.11054
C	 0.2785716498	 2.2878231326	-1.1783762547	-0.355025
C	 1.1876686815	 2.4671139561	 0.0155949326	 0.101538
C	 0.437804168	 3.2195632563	 1.1212221312	-0.223014
N	-0.6360372257	 2.1864006302	 1.122203278	-0.353797
C	 2.5895643512	 2.2328556111	-0.0270014573	 0.221424
N	 3.7334079416	 2.055651567	-0.0515789238	-0.344914
H	 0.0395413161	-2.248313813	-0.0278409319	 0.203948
H	 0.7263048569	 1.7671966055	-2.0174544349	 0.153404
H	-0.4110156843	 3.0875671181	-1.439513824	 0.121713
H	 0.9724758561	 3.2350936009	 2.0739586417	 0.140795
H	 0.1286682167	 4.2373965822	 0.8591311195	 0.115994
H	-1.5602221995	 2.5317723152	 0.8756623389	 0.227928
86.2352	152.1078	179.9093	209.9125	324.921	406.2713	432.1657	514.5561	537.3375	566.0267	605.0728	632.0502	667.3915	686.2466	738.1887	796.4344	868.4597	937.9282	967.2877	988.3672	1053.6191	1088.4869	1112.4756	1172.995	1218.3433	1266.5888	1331.4042	1353.9212	1389.197	1477.3363	1513.8927	2238.6082	2346.316	3040.9266	3101.8718	3111.5141	3221.6689	3493.759	3500.2633
C#CC12CC1(CN2)C#N	C#C[C@]12C[C@]1(CN2)C#N	
InChI=1S/C7H6N2/c1-2-7-3-6(7,4-8)5-9-7/h1,9H,3,5H2	InChI=1S/C7H6N2/c1-2-7-3-6(7,4-8)5-9-7/h1,9H,3,5H2/t6-,7+/m1/s1
