21
gdb 61214	3.05919	0.93453	0.88249	1.8826	84.3	-0.2587	0.0531	0.3118	1429.7375	0.178873	-387.045524	-387.035149	-387.034205	-387.08101	38.325	
C	 0.3622898926	 1.7074109076	-0.1049304839	-0.409009
C	 0.1177513556	 0.2006583305	 0.0411702694	-0.032141
C	 0.5439404285	-0.5862899544	-1.226186673	-0.373032
C	-0.2339460837	-0.231754588	-2.4064368531	 0.300781
C	-0.8917256259	 0.0734271007	-3.3655712878	-0.44245
C	 0.7869774603	-0.3862669682	 1.2810180021	 0.42801
C	 2.2918546868	-0.2725807371	 1.4118315706	-0.476739
C	-0.0220669855	-0.5482762052	 2.4992031097	-0.239642
O	 0.2587659407	-1.6703385639	 1.6582415727	-0.286062
H	 1.4213842722	 1.9297843522	-0.2742640037	 0.116757
H	-0.1980059218	 2.0998830898	-0.9573773482	 0.135622
H	 0.0440518737	 2.2472681189	 0.7926234916	 0.114229
H	-0.9581967295	 0.0340674172	 0.1642891584	 0.091275
H	 1.6082678077	-0.4141708532	-1.4323156479	 0.12591
H	 0.4319138653	-1.6577650026	-1.0219849488	 0.148091
H	-1.4652763633	 0.3310963161	-4.221045779	 0.192918
H	 2.6088915947	 0.7733639871	 1.4659880719	 0.126668
H	 2.6264934148	-0.7827086035	 2.3181054262	 0.129348
H	 2.8017187559	-0.7350975954	 0.5607056513	 0.128829
H	 0.4650092822	-0.5624459475	 3.4737848003	 0.109889
H	-1.0605950513	-0.2188139311	 2.5083265111	 0.110748
53.7689	71.9747	127.5611	185.6842	203.6835	239.6671	262.9672	292.3266	353.6007	365.7922	393.0209	466.3243	503.666	523.7312	614.9941	638.4823	728.4505	829.6799	855.8996	889.5936	920.4372	925.4303	975.2232	997.9842	1059.6295	1093.3756	1113.5766	1134.1797	1138.3708	1167.0647	1245.2434	1272.5816	1297.1549	1344.1773	1357.8205	1403.8153	1409.5907	1427.6715	1472.3373	1485.2036	1495.9345	1498.7353	1504.8593	1530.4217	2236.2399	3021.1349	3035.3256	3042.8111	3044.271	3065.5303	3076.6656	3101.393	3106.8079	3120.0974	3126.135	3161.5678	3506.4939
CC(CC#C)C1(C)CO1	C[C@@H](CC#C)[C@@]1(C)CO1	
InChI=1S/C8H12O/c1-4-5-7(2)8(3)6-9-8/h1,7H,5-6H2,2-3H3	InChI=1S/C8H12O/c1-4-5-7(2)8(3)6-9-8/h1,7H,5-6H2,2-3H3/t7-,8+/m0/s1
