17
gdb 87655	2.91366	1.24559	1.06731	4.5575	71.16	-0.2462	0.0209	0.2671	1161.4427	0.135104	-455.104265	-455.095522	-455.094578	-455.137627	33.05	
N	 0.2985674673	 1.2430715735	-0.3002337743	-0.505357
C	 0.1038122988	-0.1497661085	-0.0080291172	-0.188467
C	 0.0923075413	-0.5671543568	 1.4618253425	 0.420255
N	 0.8415995404	-0.3831414408	 2.4465925142	-0.53507
O	-1.113274977	-1.2519724021	 1.3637473609	-0.281426
C	-1.2797623382	-0.8309929735	-0.0037429224	 0.42748
C	-2.5770040801	-0.3455798954	-0.5611514325	-0.401363
C	-1.9407244596	-1.6511143215	-1.0399463489	 0.002727
O	-1.2894561031	-1.7006512296	-2.2745959584	-0.420837
H	 0.254705964	 1.4119489079	-1.2990855604	 0.239162
H	-0.4043555919	 1.820078282	 0.1495586781	 0.235807
H	 0.8260164878	-0.7375254016	-0.5819245072	 0.132913
H	 0.4677636107	-0.8275175229	 3.2872947142	 0.229345
H	-3.4683784001	-0.4189676075	 0.0528282133	 0.130903
H	-2.5304442025	 0.5155187672	-1.2224582599	 0.115566
H	-2.4259353158	-2.5725060311	-0.7174492143	 0.105262
H	-1.9589670321	-1.7413718695	-2.9660464778	 0.293098
78.2324	123.3977	188.8192	214.5741	264.6326	308.5497	332.3481	370.2997	443.9163	492.0686	535.1448	570.0768	669.5899	752.6275	814.6749	854.353	869.7289	875.6167	892.0403	971.415	994.1727	1002.4066	1031.5805	1079.0797	1141.0606	1147.2807	1181.0331	1211.8904	1238.616	1274.9841	1303.2529	1333.5674	1415.9688	1428.8416	1499.7775	1659.3829	1834.7708	3081.1735	3105.9519	3120.7441	3217.388	3473.2	3508.2485	3595.8531	3801.624
NC1C(=N)OC11CC1O	N[C@H]1[C]([NH])O[C@]21C[C@H]2O	
InChI=1S/C5H8N2O2/c6-3-4(7)9-5(3)1-2(5)8/h2-3,7-8H,1,6H2	InChI=1S/C5H8N2O2/c6-3-4(7)9-5(3)1-2(5)8/h2-3,7-8H,1,6H2/t2-,3+,5-/m1/s1
