19
gdb 40070	4.43112	1.23445	1.10828	1.3352	84.87	-0.2076	0.0076	0.2152	1147.7892	0.159821	-385.846483	-385.839021	-385.838077	-385.878311	30.303	
C	-0.1222082381	 1.4395325832	 0.0760199467	-0.323343
C	 1.2844627388	 0.8917632169	-0.0783448092	-0.321938
C	 0.0996851636	-0.0413564055	-0.0309607509	 0.436952
O	-0.0863277077	-0.8081319817	 1.1642335898	-0.318741
C	-0.3515913122	-2.1381961767	 0.763314828	 0.079343
C	-1.7654175459	-2.8264714896	 0.8566725053	-0.253176
C	-1.6101962065	-3.2226174529	-0.6637527487	-0.312055
C	-0.5900004724	-2.1058876855	-0.7111979428	 0.212339
C	-0.4021270639	-0.8725579788	-1.1703539353	-0.311164
H	-0.4076057205	 1.8080076874	 1.0552374197	 0.124984
H	-0.5794000536	 1.9603552303	-0.7591112886	 0.111669
H	 1.7985714341	 1.0287886544	-1.0237180738	 0.112531
H	 1.9230088408	 0.907830268	 0.797540406	 0.124102
H	 0.4361593748	-2.8124670203	 1.1274358948	 0.079814
H	-1.8805371593	-3.6410526014	 1.5758767751	 0.10142
H	-2.5501826538	-2.0806773109	 0.9939390199	 0.120295
H	-1.1792748703	-4.22258055	-0.7734887739	 0.1159
H	-2.4836876395	-3.1371132116	-1.3120840706	 0.115907
H	-0.6899970385	-0.4462200753	-2.1228705416	 0.105158
80.1738	186.8026	253.1103	306.7842	316.4866	407.604	501.6143	520.4018	673.7715	691.0123	763.5378	784.2303	798.9346	823.4017	832.7666	883.0161	900.3017	913.6727	931.8726	952.8617	972.0459	1016.0554	1048.6595	1064.854	1078.0481	1098.6377	1126.4053	1167.0988	1190.8232	1208.3896	1221.8593	1234.9163	1254.125	1295.4334	1359.9113	1377.1356	1448.6359	1468.7377	1486.9353	1490.6274	1718.7579	3001.6877	3057.1351	3066.4011	3118.2055	3127.9563	3133.008	3141.2926	3212.6208	3214.4575	3229.977
C1CC11OC2CCC2=C1	C1CC21O[C@H]1CC[C]1[CH]2	
InChI=1S/C8H10O/c1-2-7-6(1)5-8(9-7)3-4-8/h5,7H,1-4H2	InChI=1S/C8H10O/c1-2-7-6(1)5-8(9-7)3-4-8/h5,7H,1-4H2/t7-/m0/s1
