19
gdb 50664	2.23031	1.60788	1.08692	2.3926	76.32	-0.2392	-0.0212	0.218	1141.0274	0.158949	-423.02508	-423.016647	-423.015703	-423.059105	31.525	
O	-0.1572450461	-0.0352133679	 0.0382517777	-0.263173
C	-0.0182080759	 1.1582441774	-0.0351894041	 0.166608
C	 1.3063347676	 1.8852751019	 0.0355230729	-0.154668
C	 1.4810234522	 2.8778406822	-1.1471168707	-0.2531
C	 1.8372852105	 4.2023477811	-0.4485183746	-0.095308
O	 1.1691721162	 4.1378867297	 0.8040600524	-0.273684
C	 1.3402476922	 2.820841025	 1.2614907006	 0.422453
C	 0.7765954241	 2.4996689671	 2.6074888194	-0.34533
C	 2.2808176837	 2.5835930665	 2.4159734183	-0.326537
H	-0.8957697997	 1.8381128568	-0.1452861757	 0.07984
H	 2.1017738545	 1.1390363409	 0.0807970489	 0.095992
H	 2.241682657	 2.5473660048	-1.8568698638	 0.117427
H	 0.538277149	 2.987462265	-1.6941743319	 0.114247
H	 2.9253036887	 4.2868036795	-0.304389619	 0.097748
H	 1.4821788805	 5.0911528151	-0.9746011865	 0.113709
H	 0.2919828164	 3.3114388426	 3.1379045631	 0.130644
H	 0.3295847985	 1.5232586846	 2.7607203827	 0.131932
H	 2.8571307237	 1.6647117825	 2.4436914035	 0.118026
H	 2.7821374568	 3.4572968853	 2.8171235568	 0.123173
40.8903	68.052	179.8237	223.9237	278.1527	323.3	367.9095	427.8107	515.319	545.3482	636.5793	770.3102	797.3169	865.0673	880.9232	901.8701	920.1827	958.5288	961.8935	990.0447	1025.7514	1047.6082	1074.8587	1081.4476	1094.8849	1149.1658	1192.0105	1201.7399	1237.7692	1245.7173	1272.4884	1286.0834	1341.8106	1349.0562	1386.4864	1421.9841	1450.5458	1487.8591	1490.9003	1519.1588	1830.1904	2857.5865	2988.8251	3048.3912	3093.0984	3106.1233	3118.967	3130.4368	3136.6607	3217.9968	3231.8092
O=CC1CCOC11CC1	O=C[C@H]1CCOC21CC2	
InChI=1S/C7H10O2/c8-5-6-1-4-9-7(6)2-3-7/h5-6H,1-4H2	InChI=1S/C7H10O2/c8-5-6-1-4-9-7(6)2-3-7/h5-6H,1-4H2/t6-/m1/s1
