19
gdb 103937	3.39651	1.10927	1.04035	3.2064	71.71	-0.2401	0.0615	0.3015	1210.1641	0.157306	-460.118261	-460.109129	-460.108185	-460.151573	35.481	
O	-0.0772411795	 1.4283467953	-0.009074974	-0.435862
C	 0.0363397458	 0.0083527634	 0.0915973351	-0.144092
C	-1.3815741758	-0.5340171773	-0.0277943482	 0.446677
O	-2.1803836153	 0.0442420805	 0.9838948778	-0.491686
C	-2.067109855	-0.4729451655	-1.4468154789	-0.35904
C	-2.2684776275	-1.9934187939	-1.3692374497	 0.408701
O	-3.4297787821	-2.6472824794	-1.738576994	-0.464026
C	-0.9531800066	-2.7002187802	-1.2338931109	-0.358859
C	-1.5810840787	-2.049759335	-0.0142607291	-0.163826
H	 0.7549090038	 1.8250022916	 0.2622300405	 0.294436
H	 0.6864760469	-0.391286849	-0.698008975	 0.088172
H	 0.4496910634	-0.2875032293	 1.0667037478	 0.096518
H	-1.9541640297	 0.9839736466	 0.9832228756	 0.282619
H	-3.0111605659	 0.0669795919	-1.3640555209	 0.117101
H	-1.4843816322	-0.087150918	-2.2901471571	 0.084097
H	-3.3484845468	-2.9101081534	-2.6619884291	 0.283625
H	-1.031255885	-3.78307755	-1.2294450394	 0.115144
H	-0.0422375651	-2.3170247822	-1.6877312963	 0.100996
H	-1.8359022747	-2.6123548762	 0.8750923356	 0.099306
103.2583	131.0733	182.6065	245.3674	253.1413	309.0925	352.5916	367.6614	404.6437	430.336	453.6306	484.6186	517.2643	625.0842	703.9868	800.3031	845.5095	902.7041	903.804	948.5952	974.9579	999.9065	1034.5889	1042.3254	1075.6599	1081.2558	1107.5038	1126.9834	1206.8792	1210.7558	1236.3931	1250.9074	1269.5345	1290.5502	1317.3722	1401.7611	1413.5776	1452.3887	1468.2214	1503.3665	1508.1132	2994.24	3036.9651	3044.8728	3105.9985	3132.5814	3194.3718	3202.2519	3763.6767	3793.8682	3842.3719
OCC1(O)CC2(O)CC12	OC[C@@]1(O)C[C@@]2(O)C[C@@H]12	
InChI=1S/C6H10O3/c7-3-6(9)2-5(8)1-4(5)6/h4,7-9H,1-3H2	InChI=1S/C6H10O3/c7-3-6(9)2-5(8)1-4(5)6/h4,7-9H,1-3H2/t4-,5+,6+/m1/s1
