17
gdb 64692	4.82325	0.87931	0.83823	1.7832	82.19	-0.2427	0.0286	0.2712	1380.2375	0.131939	-384.60373	-384.594162	-384.593218	-384.638001	35.979	
O	-0.1039326899	 1.4779466032	-0.1461807742	-0.456273
C	 0.0018402129	 0.0943796927	-0.0480401767	 0.41485
C	 1.0992655257	-0.5052454547	-0.9249895619	-0.405304
C	 2.4084505123	 0.0348740886	-0.5682427146	 0.27875
C	 3.4547301501	 0.5304959366	-0.2430105008	-0.436419
C	-0.3488641563	-0.5557645314	 1.2594479626	-0.338107
C	-1.3112035924	-0.6504323331	 0.0684463792	-0.291127
C	-2.5616035757	 0.0477955415	 0.0819807525	 0.348312
C	-3.6270536351	 0.6048648182	 0.0834090507	-0.441925
H	 0.7366007081	 1.8483306413	 0.1520687326	 0.290107
H	 1.102897979	-1.5971332875	-0.8290733828	 0.131288
H	 0.8791158716	-0.2736336832	-1.9744945327	 0.145711
H	 4.39488371	 0.9426793384	 0.0294184945	 0.202379
H	 0.1639780333	-1.4608691707	 1.5661059245	 0.118504
H	-0.6505881805	 0.1073567525	 2.0610158697	 0.132153
H	-1.338563689	-1.6145741445	-0.4330952504	 0.114134
H	-4.559534194	 1.1120002522	 0.0821479978	 0.192966
61.3354	91.0222	144.5143	166.5006	287.7738	327.4296	344.3152	357.0368	370.5732	420.406	455.4622	529.9043	591.9785	626.6418	647.345	659.5978	668.834	728.6597	824.1324	876.9675	899.8729	959.213	971.8391	997.6671	1053.1486	1077.7105	1130.6796	1192.46	1236.6349	1296.8336	1320.4132	1361.0005	1419.2308	1460.8197	1486.2446	2233.6764	2241.9829	3029.222	3069.4105	3134.9556	3139.3976	3238.4463	3504.2444	3506.7672	3772.1853
OC1(CC#C)CC1C#C	O[C@@]1(CC#C)C[C@H]1C#C	
InChI=1S/C8H8O/c1-3-5-8(9)6-7(8)4-2/h1-2,7,9H,5-6H2	InChI=1S/C8H8O/c1-3-5-8(9)6-7(8)4-2/h1-2,7,9H,5-6H2/t7-,8+/m1/s1
