17
gdb 98700	2.32043	1.20527	0.97563	4.0863	73.87	-0.2574	-0.0371	0.2202	1266.3295	0.134419	-418.010387	-418.001004	-418.00006	-418.045863	32.869	
C	 0.2000604688	 1.6875551851	-0.1592406291	-0.381512
C	 1.1458921444	 0.5360469401	-0.4916899246	-0.305272
C	 0.4814722886	-0.5560963191	-1.3012746828	 0.393128
O	-0.6836029983	-0.5313761107	-1.6283650044	-0.305844
C	 1.3149932231	-1.7345371005	-1.7629982881	-0.115942
N	 2.7727237402	-1.6743184475	-1.6710947618	-0.310854
C	 2.0748278359	-2.6537336643	-0.8355396869	-0.182828
C	 2.1319874847	-2.469228496	 0.5953570634	 0.341518
N	 2.1682885458	-2.353602312	 1.7449942555	-0.329482
H	-0.1941421369	 2.1477132943	-1.069069095	 0.128497
H	-0.6544700919	 1.3358290966	 0.4241018824	 0.134908
H	 0.7220932805	 2.4541234152	 0.4193546192	 0.114572
H	 2.0259217313	 0.8736129302	-1.0537828861	 0.13839
H	 1.560071991	 0.0874567171	 0.4204666826	 0.156547
H	 0.8540337678	-2.2434938202	-2.6069065414	 0.120698
H	 3.2168884906	-2.1335656299	-2.461471035	 0.257222
H	 2.0892531742	-3.6999982284	-1.1309150378	 0.146255
36.6463	62.6477	113.8392	174.6018	195.2711	231.1985	281.033	293.1069	461.6563	516.875	537.4887	587.8195	642.4057	736.0226	802.7052	813.2659	878.1189	935.8395	973.8516	1001.5964	1029.6391	1092.7063	1100.5887	1141.5717	1194.772	1213.47	1249.538	1276.3846	1373.279	1394.8064	1414.7543	1439.1234	1441.8983	1493.6886	1497.5517	1799.4196	2360.7193	3038.7171	3052.926	3064.7031	3124.9906	3128.2677	3138.7611	3147.5926	3517.3579
CCC(=O)C1NC1C#N	CCC(=O)[C@H]1N[C@H]1C#N	
InChI=1S/C6H8N2O/c1-2-5(9)6-4(3-7)8-6/h4,6,8H,2H2,1H3	InChI=1S/C6H8N2O/c1-2-5(9)6-4(3-7)8-6/h4,6,8H,2H2,1H3/t4-,6-/m0/s1
