23
gdb 118696	2.24314	1.05219	0.98356	1.8757	83.32	-0.2331	0.0777	0.3108	1424.5835	0.202712	-425.403878	-425.392797	-425.391852	-425.440023	40.068	
C	-2.7232748076	 0.1621405859	-2.0837413626	-0.225663
O	-2.0544472164	-1.0507228968	-1.8310688439	-0.251768
C	-0.6794759837	-1.0163883927	-2.1878163689	-0.137072
C	-0.0733806412	-2.3010038252	-1.6861311715	 0.389049
O	-0.2141663829	-2.4278703638	-0.2931947881	-0.47763
C	-0.1164789101	-3.57903432	-2.5018423816	-0.077238
C	-0.7438539084	-3.685540603	-3.8751473294	-0.413712
C	 1.2064434974	-2.8662510544	-2.231113649	-0.082154
C	 2.0379656706	-2.1981513949	-3.3065488778	-0.4161
H	-2.2773405686	 0.9987420143	-1.5233227468	 0.107576
H	-2.7076352553	 0.420346508	-3.1541954475	 0.105939
H	-3.7617558941	 0.0369131289	-1.7674240935	 0.127781
H	-0.568918533	-0.8936096256	-3.2740704596	 0.086221
H	-0.187370056	-0.1595201546	-1.6989634675	 0.093494
H	-1.1520735682	-2.2844411319	-0.1138445748	 0.283538
H	-0.2691660208	-4.4573822293	-1.8801655524	 0.087794
H	-0.5621610682	-2.8027418583	-4.4937079017	 0.111056
H	-0.3454878602	-4.5490220703	-4.4199035379	 0.115141
H	-1.8291424728	-3.8110185005	-3.7981918357	 0.123624
H	 1.8020164797	-3.3375255041	-1.453377798	 0.096731
H	 1.4305551276	-1.7447016404	-4.0938357097	 0.113841
H	 2.6677930142	-1.409091482	-2.8809557291	 0.12048
H	 2.7013439381	-2.9253457493	-3.7875902031	 0.119069
62.5356	96.6178	114.6656	150.603	174.3906	208.9834	228.9154	243.4042	262.038	281.3677	369.489	414.8155	445.2293	480.7479	522.3242	539.8907	744.9755	790.0952	842.0759	918.645	981.0721	996.2173	1019.914	1032.7174	1058.0917	1104.4293	1140.1992	1142.5604	1153.7491	1172.9192	1186.0032	1221.8738	1233.9405	1280.9012	1291.4491	1353.3483	1366.6148	1413.3181	1418.3263	1426.7101	1477.0752	1480.0261	1485.6352	1487.3381	1492.9792	1499.5032	1503.0848	1517.9629	1522.6026	2966.8617	2977.1187	3017.9184	3025.0198	3030.7477	3034.8475	3087.3366	3088.9884	3105.368	3113.4245	3114.9424	3138.7808	3149.5184	3777.0662
COCC1(O)C(C)C1C	COC[C@@]1(O)[C@@H](C)[C@H]1C	
InChI=1S/C7H14O2/c1-5-6(2)7(5,8)4-9-3/h5-6,8H,4H2,1-3H3	InChI=1S/C7H14O2/c1-5-6(2)7(5,8)4-9-3/h5-6,8H,4H2,1-3H3/t5-,6+,7+
