18
gdb 121782	2.82872	0.7901	0.63983	3.1689	79.39	-0.2656	0.0119	0.2775	1715.2854	0.144594	-401.91035	-401.899946	-401.899002	-401.946885	35.654	
C	-0.0519645804	 1.3828140897	-0.0365683907	-0.233171
O	-0.0516589096	-0.0253441483	 0.0179449335	-0.232638
C	 0.6983525737	-0.5326580371	 1.0950783408	-0.070603
C	 0.6484582577	-2.0540255429	 1.0108714411	-0.201845
C	 1.3796483792	-2.7489312323	 2.190977968	-0.334545
C	 1.2175082003	-4.2027682046	 2.1449997081	 0.314623
C	 1.0574614091	-5.3907238956	 2.0913251405	-0.405496
C	 2.8079385077	-2.3854300027	 2.223678288	 0.300636
N	 3.9202982743	-2.0749877828	 2.2449163327	-0.32677
H	 0.9655826468	 1.7864878348	-0.1541519558	 0.111532
H	-0.6512828528	 1.6744882645	-0.9019753682	 0.13141
H	-0.4949545126	 1.8259064322	 0.8692949608	 0.106229
H	 1.7403049483	-0.1757855315	 1.0499390708	 0.114926
H	 0.2795202126	-0.1873920981	 2.0579741284	 0.086167
H	-0.3936219587	-2.3844507359	 1.0236566675	 0.132247
H	 1.0870118018	-2.3870160507	 0.0665188512	 0.139188
H	 0.9419399739	-2.3795275695	 3.1296254062	 0.158011
H	 0.9250089187	-6.4439930892	 2.0502430871	 0.210101
58.2161	69.4359	98.1797	123.6125	130.1503	213.8631	217.8744	233.4823	351.3621	362.3873	405.1462	507.9032	578.8238	597.3058	648.77	668.4198	785.6375	859.8518	977.9977	1010.2917	1050.7264	1069.9724	1112.5723	1166.4339	1180.8949	1222.5779	1230.4133	1274.2226	1303.0963	1328.573	1341.4782	1432.4764	1482.0398	1485.7857	1490.9486	1505.1986	1533.026	2250.5515	2363.2116	2940.0838	2974.0931	2989.2625	3010.0976	3020.008	3070.4112	3119.5851	3121.0393	3501.8856
COCCC(C#C)C#N	COCC[C@@H](C#C)C#N	
InChI=1S/C7H9NO/c1-3-7(6-8)4-5-9-2/h1,7H,4-5H2,2H3	InChI=1S/C7H9NO/c1-3-7(6-8)4-5-9-2/h1,7H,4-5H2,2H3/t7-/m1/s1
