16
gdb 49431	3.25279	1.65265	1.37451	2.0168	75.21	-0.2195	-0.0461	0.1733	940.6232	0.123674	-400.624618	-400.61754	-400.616596	-400.656235	27.55	
O	-0.5407293184	 1.0203367691	 0.935385558	-0.237553
C	 0.1002927823	 1.2274390434	-0.0628093892	 0.148213
C	 1.4292245938	 1.9365048486	-0.1238284914	-0.050689
N	 1.5453158749	 3.0560353332	-1.1863058702	-0.189185
C	 1.2578149386	 4.5117526173	-0.6706290092	-0.014816
C	 0.4953506389	 4.8917832807	 0.6126070879	-0.27157
C	 0.8321903947	 3.6816069163	 1.472022855	-0.107745
C	 1.8478881178	 2.9994236886	 0.8942772552	-0.01904
C	 2.4615722795	 3.7887351446	-0.2674214963	-0.062964
H	-0.2544576644	 0.8940805914	-1.0645728767	 0.095968
H	 2.1934677136	 1.2045612398	-0.4220907483	 0.11789
H	 1.239425318	 5.1603170715	-1.5416771055	 0.107401
H	 0.8334665845	 5.8856732955	 0.939944113	 0.123291
H	-0.5938999808	 4.9473424839	 0.5055011091	 0.12643
H	 0.0478936042	 3.1689681055	 2.0158646384	 0.134273
H	 3.5060448429	 3.9676557108	-0.4969508298	 0.100097
84.0729	175.9675	198.9509	322.2492	390.4318	463.9207	507.3502	635.6681	665.1779	727.01	783.0355	826.7441	849.0667	863.2156	886.4029	900.4831	925.9456	968.0606	1007.5636	1039.9186	1043.718	1066.849	1088.9464	1143.9964	1188.2224	1210.4071	1240.4245	1272.7029	1310.213	1354.2985	1363.7456	1409.9684	1466.4946	1572.3931	1826.5571	2881.0277	3003.8998	3009.0622	3066.4019	3163.4655	3176.7307	3205.9581
O=CC1N2C3CC=C1C23	O=C[C@H]1N2[C@H]3C[CH][C]1[C@@H]23	
InChI=1S/C7H7NO/c9-3-6-4-1-2-5-7(4)8(5)6/h1,3,5-7H,2H2	InChI=1S/C7H7NO/c9-3-6-4-1-2-5-7(4)8(5)6/h1,3,5-7H,2H2/t5-,6+,7+,8?/m0/s1
