23
gdb 122444	3.41363	0.72695	0.69537	0.7839	83.69	-0.2336	0.0798	0.3134	1774.9645	0.202318	-425.407798	-425.396856	-425.395911	-425.444379	39.83	
C	-0.4354371592	 1.2297314225	-0.131103181	-0.382409
C	 0.3470778516	-0.0776425086	 0.0147814338	-0.184157
C	 0.637403988	-0.7337869399	-1.3273280524	-0.041245
O	 1.3764198071	-1.9256519497	-1.0970629753	-0.249477
C	 1.7215660159	-2.5940283833	-2.2662315813	 0.095391
C	 2.129686302	-4.0347718255	-2.1259129998	-0.386148
C	 0.8319491891	-3.6712460812	-2.829981318	 0.352998
C	-0.4887026556	-4.0020544741	-2.1763850065	-0.451316
O	 0.8336268	-3.7177327516	-4.2346531816	-0.462104
H	 0.1192139981	 1.9631341849	-0.7267736932	 0.117086
H	-1.4002576732	 1.0655477797	-0.6236021871	 0.116713
H	-0.6344929873	 1.6791414249	 0.8459815529	 0.117081
H	 1.2991794215	 0.1030179823	 0.526744373	 0.107558
H	-0.2113207686	-0.786987043	 0.6367129377	 0.104757
H	-0.2992784574	-0.9609130612	-1.8599059751	 0.093364
H	 1.218336651	-0.0525448342	-1.9713749256	 0.088877
H	 2.25557269	-1.9919789653	-3.0028285417	 0.092163
H	 2.9590044184	-4.3829943671	-2.7313355313	 0.111811
H	 2.0598038216	-4.4657282277	-1.1327889584	 0.12006
H	-0.4587629152	-3.7699913431	-1.1092565137	 0.131813
H	-1.2952104739	-3.4242273579	-2.6390059436	 0.121831
H	-0.7292575815	-5.0663711	-2.2884926444	 0.105783
H	 0.7866090076	-4.643471101	-4.4995666874	 0.279571
51.5058	63.8082	97.4387	142.2433	215.8617	224.9312	233.0289	244.8819	303.1647	330.5592	361.8429	401.1722	439.9915	502.8871	549.3234	720.5644	763.8731	825.5109	896.8531	901.0917	909.0224	912.4086	974.2681	1021.5823	1045.7069	1061.8416	1075.0545	1095.0173	1124.3344	1153.3618	1191.755	1205.4509	1241.0123	1268.2496	1298.7665	1314.0153	1330.7636	1349.8983	1395.7264	1411.3237	1414.1193	1436.9225	1479.6215	1488.0202	1492.3857	1500.9479	1507.5757	1510.9663	1526.4913	2964.5556	2999.2093	3026.5265	3032.3646	3037.9185	3071.205	3088.4521	3095.9608	3100.3716	3108.3089	3128.3351	3133.8039	3227.8454	3785.136
CCCOC1CC1(C)O	CCCO[C@H]1C[C@]1(C)O	
InChI=1S/C7H14O2/c1-3-4-9-6-5-7(6,2)8/h6,8H,3-5H2,1-2H3	InChI=1S/C7H14O2/c1-3-4-9-6-5-7(6,2)8/h6,8H,3-5H2,1-2H3/t6-,7-/m0/s1
