18
gdb 11951	3.38566	1.67371	1.34688	2.1511	68.14	-0.2495	0.074	0.3235	971.573	0.152334	-384.90878	-384.90046	-384.899516	-384.941506	30.99	
C	-0.2067968039	 1.4336643553	 0.1361180561	-0.499894
C	 0.1956458786	-0.0026470636	 0.0441759367	 0.345041
C	 0.6515590419	-0.7884349898	-1.1999545026	-0.281175
C	 1.4495598116	-1.749325527	-0.2515235327	-0.282236
C	 0.956710503	-0.9081201353	 0.9353606141	 0.323775
C	 1.5453082552	-0.7393786259	 2.2997630966	-0.173043
O	 1.3343092976	-1.8892902098	 3.1058840067	-0.415202
O	-0.4887433668	-0.952828743	 0.8797877785	-0.334921
H	 0.5392865556	 2.0771593201	-0.3409967903	 0.124974
H	-1.1643616701	 1.5962170588	-0.3718238123	 0.133111
H	-0.3214559938	 1.7402847101	 1.1789592677	 0.133
H	-0.1587063561	-1.2309784919	-1.784213697	 0.10838
H	 1.3040328072	-0.2107674384	-1.8596490058	 0.103465
H	 1.1402970003	-2.7962774002	-0.2343117256	 0.112612
H	 2.5301882983	-1.6905399639	-0.4030506349	 0.104956
H	 2.6305084143	-0.6092297438	 2.2315306614	 0.110923
H	 1.1249710891	 0.1637788049	 2.7677920558	 0.09248
H	 0.383527668	-2.0487471664	 3.1111268277	 0.293754
68.0194	137.2717	189.9859	206.724	266.4269	320.4474	338.2022	411.6453	492.4924	519.4198	609.6431	717.8433	754.4909	777.5811	874.5513	903.6199	931.5533	945.0394	1001.6696	1045.8591	1075.4211	1102.7355	1160.5847	1192.306	1202.8632	1215.505	1221.8331	1266.6956	1313.5675	1366.9392	1407.2892	1426.0557	1463.2009	1465.4027	1480.0638	1488.1097	1492.541	1517.6222	2989.5061	3034.1831	3061.8794	3070.756	3075.7624	3096.1323	3114.0651	3121.395	3131.3563	3800.7636
CC12CCC1(CO)O2	C[C@@]12CC[C@]1(CO)O2	
InChI=1S/C6H10O2/c1-5-2-3-6(5,4-7)8-5/h7H,2-4H2,1H3	InChI=1S/C6H10O2/c1-5-2-3-6(5,4-7)8-5/h7H,2-4H2,1H3/t5-,6-/m1/s1
