18
gdb 48159	3.59226	0.84548	0.76766	2.3889	76.12	-0.2503	-0.0758	0.1745	1508.9253	0.147413	-439.113717	-439.104805	-439.103861	-439.148756	31.865	
O	-0.6049583822	 1.0453000601	-0.2339448106	-0.249304
C	 0.4707980587	 0.7686256676	 0.2318101844	 0.101606
C	 1.63834959	 1.7563172858	 0.3209388673	 0.29867
O	 2.699580805	 1.4041418275	 0.8060410338	-0.362267
N	 1.3343441754	 2.9746169006	-0.1792150972	-0.321027
C	 2.2475940859	 4.0865929689	-0.2190966211	 0.078129
C	 2.4953410371	 4.814121841	-1.5693800939	-0.238503
C	 2.5589325362	 6.1484831907	-0.7768772265	-0.210793
C	 1.809620589	 5.4474966995	 0.3892170465	-0.238516
H	 0.7232313978	-0.2287896512	 0.6424616334	 0.117641
H	 0.3951381871	 3.0770694599	-0.5408689711	 0.259429
H	 3.1821204195	 3.7352939386	 0.2216770851	 0.123875
H	 3.3636779294	 4.5086196679	-2.1569585958	 0.109944
H	 1.6059781963	 4.7698688693	-2.206686713	 0.101544
H	 3.584335936	 6.4088363116	-0.5020673362	 0.112641
H	 2.0856153173	 7.0232689485	-1.2254752445	 0.105445
H	 0.7261137076	 5.5825763593	 0.30642421	 0.101543
H	 2.1128287536	 5.6639780743	 1.4157595395	 0.109943
40.9572	77.4855	102.002	173.229	186.5525	257.9437	378.8764	405.8514	509.6911	579.6632	592.8624	655.4929	707.071	784.8031	808.2271	909.6091	926.9176	945.1888	946.9081	990.125	1024.8116	1042.927	1130.1445	1182.2678	1200.9334	1229.8258	1250.6029	1260.6959	1265.7719	1280.8336	1296.0614	1362.2547	1385.1917	1475.4293	1487.661	1509.9067	1555.4578	1783.1912	1821.5099	2957.5218	3050.0523	3054.3253	3069.9984	3101.5785	3112.7906	3117.0948	3131.2647	3587.0605
O=CC(=O)NC1CCC1	O=CC(=O)NC1CCC1	
InChI=1S/C6H9NO2/c8-4-6(9)7-5-2-1-3-5/h4-5H,1-3H2,(H,7,9)	InChI=1S/C6H9NO2/c8-4-6(9)7-5-2-1-3-5/h4-5H,1-3H2,(H,7,9)
