23
gdb 115618	2.34896	1.16952	0.97849	1.2243	86.36	-0.2469	0.0787	0.3256	1364.8274	0.204565	-388.265763	-388.255858	-388.254914	-388.301062	37.314	
C	 0.2091010023	 1.5554851947	 0.2964867825	-0.382932
C	 0.1684292464	 0.0263106903	 0.213885147	-0.179734
C	 0.5112935372	-0.5057307986	-1.1768959375	-0.044169
C	 2.0222730124	-0.4232348361	-1.575068256	-0.22398
C	 2.1386829958	-1.9731520405	-1.4717867779	-0.30696
C	 0.61643269	-2.0369171615	-1.3112263089	 0.345938
C	-0.2185067017	-3.0951878042	-0.6327989144	-0.402341
C	-0.3146655925	-2.8756591806	-2.1243173222	 0.04112
O	-1.433989384	-2.2245315989	-2.6537079989	-0.421043
H	 1.2006977971	 1.9440753178	 0.0401580296	 0.11549
H	-0.5099191968	 2.0050805223	-0.3973479124	 0.11475
H	-0.033998291	 1.9071930526	 1.304127535	 0.108557
H	 0.859463195	-0.4048383158	 0.9509031871	 0.088772
H	-0.8327564722	-0.325065053	 0.4946638638	 0.092719
H	-0.1675628018	-0.0618199622	-1.9117777478	 0.081287
H	 2.1831522473	-0.04466289	-2.5869024961	 0.101692
H	 2.6585255979	 0.144875972	-0.8911743779	 0.093823
H	 2.5541279834	-2.4883714619	-2.3429234232	 0.095977
H	 2.683922381	-2.3080972001	-0.5838678191	 0.098601
H	 0.2725814323	-3.9927599226	-0.268087345	 0.106469
H	-1.0600816469	-2.7597077366	-0.0340653721	 0.110689
H	 0.1284771367	-3.6295160582	-2.7776801113	 0.078261
H	-2.1857708281	-2.8223068692	-2.5881794744	 0.287016
34.967	94.4204	146.6492	171.1096	213.0501	225.4999	271.6056	299.4565	386.8626	424.0364	445.5279	516.5846	581.0507	738.1151	762.1096	807.8063	811.7689	878.2412	885.5711	925.9995	940.6793	958.1193	986.2887	1003.8057	1031.845	1058.7132	1098.0076	1105.2738	1143.8082	1164.2774	1184.7848	1202.0653	1232.8588	1243.3976	1258.1412	1275.8478	1289.6229	1301.9914	1337.5451	1342.1519	1388.8628	1408.9526	1421.4688	1474.0172	1482.4362	1487.4399	1496.8095	1498.9179	1506.3842	3012.1131	3029.4486	3040.5814	3043.2873	3058.2281	3062.8618	3079.8109	3085.7654	3096.4555	3100.1629	3114.6128	3115.01	3203.2087	3807.2475
CCC1CCC11CC1O	CC[C@H]1CC[C@]21C[C@H]2O	
InChI=1S/C8H14O/c1-2-6-3-4-8(6)5-7(8)9/h6-7,9H,2-5H2,1H3	InChI=1S/C8H14O/c1-2-6-3-4-8(6)5-7(8)9/h6-7,9H,2-5H2,1H3/t6-,7+,8+/m0/s1
