23
gdb 111998	2.64791	1.26379	1.0975	0.221	90.6	-0.2217	0.0204	0.2421	1265.0464	0.20673	-351.157848	-351.148847	-351.147902	-351.191239	35.367	
C	 0.7071040748	 1.9526649749	-0.5284265855	-0.384958
C	 0.5233385876	 0.4448060334	-0.3270694956	-0.181129
C	 1.3677117622	-0.4128682173	-1.2910082027	-0.01688
C	 2.8750294528	-0.3458108627	-1.1059367442	-0.089379
C	 3.4407790009	-1.5554858167	-1.1146812169	-0.082838
C	 2.4286661767	-2.6454704753	-1.2254062405	-0.114886
C	 1.4529024496	-2.7858498108	-0.0643965621	 0.007152
C	 1.7378989343	-2.321407629	 1.3473583018	-0.413937
C	 1.0869504389	-1.9214258206	-1.2540016421	-0.097613
H	 1.7369352663	 2.2662871402	-0.3279847042	 0.116156
H	 0.4662154497	 2.247680217	-1.5561813601	 0.112487
H	 0.0550537344	 2.5217379009	 0.1416720326	 0.111027
H	 0.7560837389	 0.1809719698	 0.7093699799	 0.101699
H	-0.5325539853	 0.1880419565	-0.4781980923	 0.093922
H	 1.1319057051	-0.0544590165	-2.307051038	 0.076294
H	 3.4077788566	 0.5912038897	-0.9877126406	 0.090296
H	 4.5039716766	-1.7493082707	-1.021112115	 0.089875
H	 2.6407370516	-3.5161557501	-1.8375134679	 0.079485
H	 0.9218643568	-3.7360040669	-0.0878470066	 0.081024
H	 2.3816054086	-1.4399724812	 1.3696870381	 0.123746
H	 0.8107845562	-2.0789754062	 1.8782418269	 0.113169
H	 2.2419232914	-3.1150204379	 1.9112415275	 0.108073
H	 0.2816593954	-2.2857748005	-1.8826842924	 0.077214
87.034	136.5617	171.5744	230.7838	234.3535	250.3571	293.9019	355.076	449.6436	515.5193	571.281	708.8853	718.7718	751.5163	758.0017	789.7777	826.425	874.2229	912.4018	951.2813	962.3778	967.3722	989.6916	1032.3849	1056.4259	1063.8321	1090.3621	1104.3734	1123.5238	1130.29	1137.41	1155.8219	1232.7839	1272.4565	1297.0396	1306.9308	1338.2876	1363.0871	1373.002	1387.0664	1411.0113	1413.9511	1432.6121	1486.6447	1499.835	1500.8709	1503.8295	1509.696	1664.9535	2956.3093	3029.2729	3029.6193	3030.8964	3074.6268	3083.1396	3100.2544	3101.413	3112.1672	3131.2608	3152.4685	3164.2488	3178.8143	3204.0877
CCC1C=CC2C(C)C12	CC[C@H]1C=C[C@H]2[C@@H](C)[C@@H]12	
InChI=1S/C9H14/c1-3-7-4-5-8-6(2)9(7)8/h4-9H,3H2,1-2H3	InChI=1S/C9H14/c1-3-7-4-5-8-6(2)9(7)8/h4-9H,3H2,1-2H3/t6-,7+,8+,9+/m1/s1
