18
gdb 53025	4.15671	0.98947	0.88798	2.3039	87.24	-0.2379	0.0389	0.2768	1362.5271	0.147295	-364.691602	-364.683328	-364.682384	-364.727195	30.584	
C	-0.0210325207	 1.4650520111	 0.0078090541	-0.515907
C	 0.0108147525	 0.0105410442	 0.0141929248	 0.368528
C	 0.0375422403	-1.1951424009	 0.0200596082	-0.427974
C	 0.0723373379	-2.6295841503	 0.0314287577	 0.286229
C	 0.7674081229	-3.6105076425	 0.9805190563	-0.234434
N	 0.1055142646	-4.5936779847	 0.0268317749	-0.186874
C	-1.1202495216	-3.6508733167	-0.0837858335	-0.040817
C	-1.0801747303	-3.6970232505	-1.6123462442	-0.260761
C	 0.3766176413	-3.6230842875	-1.1513322388	-0.040828
H	 0.9907721794	 1.8849358855	-0.0135714392	 0.151181
H	-0.556482097	 1.8460259559	-0.8689223849	 0.150945
H	-0.5240921019	 1.8561290674	 0.8991664852	 0.151046
H	 1.8614057094	-3.6482858087	 0.961874015	 0.103243
H	 0.394697245	-3.6754950755	 2.0078795957	 0.103251
H	-1.9597507898	-3.7495277887	 0.6067053274	 0.08676
H	-1.390187119	-4.6388596195	-2.0715419193	 0.110271
H	-1.4747354608	-2.828172431	-2.1429454861	 0.109375
H	 1.3049086376	-3.688926148	-1.7216069732	 0.086765
5.8889	87.6237	106.2108	273.7598	300.8253	398.2158	414.4868	463.6343	512.799	526.738	714.6651	778.5873	844.3578	874.8286	889.8833	904.5933	925.1472	989.935	1011.3127	1024.4419	1053.8514	1053.8712	1072.8565	1078.3676	1114.339	1118.0552	1143.4015	1181.3458	1196.3866	1225.5315	1266.6019	1293.0235	1340.3146	1414.0272	1476.379	1477.1527	1487.7928	1514.6678	2357.2296	3026.4052	3036.9579	3064.8322	3087.6038	3088.0864	3098.8245	3099.3051	3105.8763	3134.0643
CC#CC12CN3C1CC23	CC#C[C@@]12CN3[C@@H]1C[C@@H]23	
InChI=1S/C8H9N/c1-2-3-8-5-9-6(8)4-7(8)9/h6-7H,4-5H2,1H3	InChI=1S/C8H9N/c1-2-3-8-5-9-6(8)4-7(8)9/h6-7H,4-5H2,1H3/t6-,7+,8-
