20
gdb 63356	2.48125	1.48165	1.17491	3.3065	82.71	-0.2472	0.0098	0.257	1147.9979	0.170084	-403.18007	-403.170937	-403.169993	-403.214781	34.623	
C	-0.0731279481	 1.4506204582	-0.2217378001	-0.403411
C	-0.0950073913	-0.0514509107	 0.083115105	 0.302183
C	-1.5225471598	-0.524981183	 0.4033220557	-0.397476
O	 0.3017141115	-0.6831210315	-1.1633229441	-0.28716
C	 1.0952961224	-1.7824065233	-1.2473349284	 0.381129
N	 1.377767429	-2.3012245337	-2.3689967267	-0.517893
C	 1.6560576288	-2.3820886075	 0.0243807066	-0.347717
C	 1.6435147163	-1.4395643363	 1.1895742428	-0.094435
C	 0.8418124223	-0.382864088	 1.213101973	-0.073149
H	 0.9426361279	 1.7769675548	-0.4591637853	 0.128697
H	-0.7187040413	 1.6698606485	-1.0762752209	 0.126714
H	-0.4309313539	 2.0209254827	 0.640759874	 0.115816
H	-2.1929278642	-0.2877350382	-0.4279747883	 0.125643
H	-1.5401097499	-1.6052108691	 0.5713849559	 0.123497
H	-1.8976929341	-0.0333001358	 1.3061610728	 0.118355
H	 0.9126336563	-1.7844427962	-3.118220446	 0.213201
H	 1.0738402182	-3.2834636408	 0.2655430508	 0.142182
H	 2.6632770692	-2.7416981294	-0.2013917498	 0.145702
H	 2.2977422054	-1.661778287	 2.0274351029	 0.101759
H	 0.8097557154	 0.2868585862	 2.0674797002	 0.096362
36.6407	40.325	226.6891	235.2252	261.2959	312.5053	329.9873	383.0667	463.5841	478.6388	513.0539	527.1093	556.8378	671.8735	730.0305	821.5307	875.5032	900.1969	923.8048	932.0194	956.1611	979.7709	998.7138	1020.0162	1020.8662	1132.8732	1157.4487	1191.7306	1202.5667	1232.5304	1254.1597	1338.163	1360.1956	1392.8624	1405.6926	1423.3844	1459.9226	1475.5141	1480.7267	1494.3245	1505.1314	1737.2236	1740.1533	3009.4978	3038.6211	3045.4254	3093.2299	3113.8827	3120.8238	3121.7212	3128.0078	3161.2935	3183.2219	3462.2887
CC1(C)OC(=N)CC=C1	CC1(C)O[C]([NH])CC=C1	
InChI=1S/C7H11NO/c1-7(2)5-3-4-6(8)9-7/h3,5,8H,4H2,1-2H3	InChI=1S/C7H11NO/c1-7(2)5-3-4-6(8)9-7/h3,5,8H,4H2,1-2H3
