18
gdb 29273	5.59393	0.93832	0.8574	1.9056	81.76	-0.2069	0.0131	0.2199	1374.7358	0.148757	-401.956415	-401.948105	-401.947161	-401.98983	30.85	
C	 0.2675888112	 1.5102520816	-0.1353450496	-0.499422
C	 0.021464112	 0.0411180482	 0.0113563093	 0.268129
C	-0.4254020876	-0.8196200323	-0.9394267586	-0.117226
O	-0.5297363785	-2.0877131243	-0.4419944719	-0.201867
C	-0.1376635743	-2.0367129541	 0.8646471357	 0.409205
C	 0.2122407188	-0.7629749506	 1.1903613982	-0.405091
C	-0.157121433	-3.294789761	 1.6199386726	-0.103154
C	-1.1695493028	-4.3487056636	 1.3258745932	-0.238387
N	 0.2397474349	-4.565663127	 0.9734578386	-0.323364
H	 1.3127396113	 1.7644957365	 0.0743780748	 0.131628
H	 0.0389341653	 1.8503311395	-1.1491247633	 0.125043
H	-0.349659654	 2.091592245	 0.5589501219	 0.131161
H	-0.7000914385	-0.699496694	-1.9746899684	 0.13053
H	 0.5659006793	-0.4276431869	 2.1536396862	 0.10809
H	 0.202611191	-3.1886057446	 2.6392652246	 0.099035
H	-1.5432083062	-4.9718055799	 2.1337364863	 0.120304
H	-1.8806348829	-4.1452871858	 0.5308117915	 0.124743
H	 0.364096714	-4.3941141769	-0.022289151	 0.240644
59.8228	128.0295	141.8009	163.0151	271.9451	291.3602	427.1905	432.7499	614.9546	622.2909	700.0796	711.6864	733.822	804.7603	817.6829	873.1249	956.7751	970.0814	985.281	996.1322	1018.6427	1065.0561	1095.0299	1135.2255	1152.4783	1164.1502	1175.3086	1254.6998	1264.3143	1299.9561	1311.4783	1381.2149	1404.3836	1421.7641	1482.7231	1497.6356	1503.4432	1594.7277	1663.224	3029.6867	3080.5218	3111.1734	3112.5291	3153.5622	3203.7934	3247.9779	3273.5346	3495.9407
CC1=COC(=C1)C1CN1	Cc1coc(c1)[C@H]1CN1	
InChI=1S/C7H9NO/c1-5-2-7(9-4-5)6-3-8-6/h2,4,6,8H,3H2,1H3	InChI=1S/C7H9NO/c1-5-2-7(9-4-5)6-3-8-6/h2,4,6,8H,3H2,1H3/t6-/m1/s1
