20
gdb 114289	2.30621	1.40025	1.05983	1.5797	84.52	-0.2296	0.0304	0.26	1220.8487	0.170113	-365.932039	-365.923058	-365.922113	-365.965703	34.303	
C	-0.0790672695	 1.6528632631	 0.0556327749	-0.38084
C	 0.009691556	 0.1340122716	 0.2384138015	-0.212011
C	-1.3377452722	-0.5545032355	 0.0429659497	 0.026639
C	-2.0184268952	-0.6623264362	-1.3535153271	-0.196004
N	-2.284786067	-2.1393924307	-1.1691410475	-0.150083
C	-0.9525059852	-2.8020170281	-1.0960245374	-0.198723
C	 0.1632196156	-2.4281084633	-1.9191803188	 0.352295
C	 1.0869926027	-2.182536128	-2.650543888	-0.450163
C	-1.4607066245	-2.0769007994	 0.1017978778	-0.07806
H	 0.8946868124	 2.1280703347	 0.2075269774	 0.113794
H	-0.4199595957	 1.9118672598	-0.9529241023	 0.118845
H	-0.7829816865	 2.1000100652	 0.7668962511	 0.112329
H	 0.7428428675	-0.2820786293	-0.4583666486	 0.11791
H	 0.3758653071	-0.0939986882	 1.2483064578	 0.094651
H	-2.0597955106	-0.1278491617	 0.7484523194	 0.083163
H	-2.9650570388	-0.1278942016	-1.4424727588	 0.111812
H	-1.3931519155	-0.4421003502	-2.2232965248	 0.117955
H	-1.0870428153	-3.8801886988	-1.0311781772	 0.121026
H	 1.908454071	-1.9552426963	-3.2841931716	 0.200727
H	-1.7410988862	-2.643415697	 0.9862100425	 0.094738
77.3894	129.5206	141.8694	188.2975	212.8052	275.9795	354.0432	416.7617	431.4237	544.462	594.5357	602.8251	660.1132	725.4771	758.1427	761.7356	795.1008	866.8846	910.1402	957.563	967.0082	986.381	1004.6604	1061.2372	1074.151	1097.9827	1144.6761	1163.9119	1205.1225	1228.2177	1260.5196	1286.5369	1299.9515	1340.0176	1362.6563	1399.0598	1409.6167	1414.9014	1488.2381	1498.5481	1499.8744	1507.5301	2228.3111	3023.055	3028.6783	3038.6456	3063.8023	3081.0929	3101.7457	3105.5161	3124.9712	3125.4846	3142.8734	3501.0059
CCC1CN2C(C#C)C12	CC[C@H]1CN2[C@@H](C#C)[C@@H]12	
InChI=1S/C8H11N/c1-3-6-5-9-7(4-2)8(6)9/h2,6-8H,3,5H2,1H3	InChI=1S/C8H11N/c1-3-6-5-9-7(4-2)8(6)9/h2,6-8H,3,5H2,1H3/t6-,7-,8+,9?/m0/s1
