16
gdb 30458	4.91654	1.03533	0.85985	1.0792	82.56	-0.1825	-0.0595	0.123	1294.0873	0.125243	-434.091767	-434.083489	-434.082545	-434.124705	30.845	
C	-0.0711127625	 1.4150493157	 0.1069528491	-0.320592
N	-0.0164976373	-0.0316657199	 0.0345283181	-0.338328
C	 0.5596197283	-0.5733589643	-0.9763074998	 0.368685
N	 0.6114516977	-1.9655388682	-1.0450104788	-0.338045
C	 1.1927371838	-2.6666937021	-2.0627369552	-0.080343
C	 1.76383956	-1.9752007365	-3.0851910873	 0.37524
O	 2.3580600785	-2.6151804114	-4.1269588725	-0.435824
N	 1.7645941041	-0.6129471704	-3.1083222075	-0.30477
C	 1.208440176	 0.0440844485	-2.1344210882	-0.090437
H	 0.9245562721	 1.8859155915	 0.143183468	 0.10489
H	-0.6160538435	 1.8721513855	-0.7347594192	 0.104799
H	-0.5953214843	 1.7029958177	 1.0223841268	 0.11828
H	 0.1786692056	-2.4489875287	-0.2710208691	 0.265861
H	 1.1720017195	-3.7460544774	-2.0082520644	 0.144209
H	 2.6825220204	-1.9197771978	-4.712287421	 0.298388
H	 1.2293816019	 1.1279429777	-2.1884535789	 0.127988
80.9689	118.4449	207.0613	213.3666	317.45	364.6597	376.0143	404.2176	474.6134	498.2372	526.8891	645.3855	680.65	757.5699	776.3934	842.324	847.5279	930.5337	989.2913	1064.8054	1112.554	1140.1114	1172.5859	1212.8825	1279.362	1346.4689	1388.6035	1418.7296	1448.4353	1485.6975	1496.1341	1506.4716	1569.5984	1684.4048	1719.8553	2958.4298	2999.8233	3089.133	3182.8083	3232.9206	3613.6187	3800.1126
CN=C1NC=C(O)N=C1	CN=c1[nH]cc(O)nc1	
InChI=1S/C5H7N3O/c1-6-4-2-8-5(9)3-7-4/h2-3H,1H3,(H,6,7)(H,8,9)	InChI=1S/C5H7N3O/c1-6-4-2-8-5(9)3-7-4/h2-3H,1H3,(H,6,7)(H,8,9)
