15
gdb 33816	2.27063	1.57654	1.11923	4.8693	78.97	-0.2636	-0.0171	0.2465	1091.2084	0.112169	-379.607438	-379.599419	-379.598475	-379.640044	30.357	
C	 0.01488912	-1.2106093134	 0.0332084801	-0.385066
C	 0.0297512972	-0.0086575381	 0.0216766083	 0.282349
C	 0.0193158016	 1.4127649641	-0.047880688	 0.056999
C	-0.7346666597	 2.2584406144	-1.0959295271	-0.288675
C	 0.4430231028	 3.2829643729	-1.1080878357	-0.291449
C	 1.1717397577	 2.4296121898	-0.0551328564	 0.119169
N	 0.3529285654	 2.2086953982	 1.1280953216	-0.360736
C	 2.5858431438	 2.2285724145	 0.020312678	 0.259917
N	 3.7331219009	 2.0821242176	 0.0328722704	-0.342851
H	 0.0135668186	-2.2725236952	 0.059790402	 0.202695
H	-0.8470434292	 1.7421697936	-2.0499254958	 0.134876
H	-1.7132330743	 2.6194551427	-0.7670594623	 0.115285
H	 0.9631921053	 3.3078143791	-2.0665259283	 0.138165
H	 0.227287545	 4.3075912958	-0.7922472004	 0.118252
H	-0.3036750352	 2.9714753541	 1.2912829336	 0.241069
88.7462	149.2009	176.3701	202.5759	299.8545	428.3433	434.9369	496.7761	556.2148	576.9785	625.2669	640.0689	656.9118	671.0202	768.2274	780.214	810.8003	949.7829	999.8486	1054.4559	1080.6097	1105.746	1128.1079	1166.8148	1206.7197	1242.218	1256.726	1322.593	1428.6305	1479.1748	1498.9298	2243.3428	2354.5427	3062.9741	3069.5243	3125.3023	3140.8281	3456.3105	3500.6222
C#CC12CCC1(N2)C#N	C#C[C@]12CC[C@]1(N2)C#N	
InChI=1S/C7H6N2/c1-2-6-3-4-7(6,5-8)9-6/h1,9H,3-4H2	InChI=1S/C7H6N2/c1-2-6-3-4-7(6,5-8)9-6/h1,9H,3-4H2/t6-,7-/m0/s1
