23
gdb 41588	2.92641	1.50297	1.35645	0.1361	87.44	-0.2522	0.0729	0.3251	1085.8685	0.209877	-351.14083	-351.133446	-351.132502	-351.172705	31.03	
C	-0.1422643878	 1.2024080757	 0.6746687651	-0.228655
C	 1.1163257219	 1.7033378214	-0.0970475196	-0.234862
C	 1.4395417484	 0.2412943211	-0.5301336545	-0.037422
C	 0.0774505429	-0.2169947845	 0.1027923891	-0.029784
C	-0.4561415986	-0.5401664405	-1.3360888147	-0.006068
C	-1.4214385863	 0.3942558949	-2.089608766	-0.235477
C	-0.7407171259	 0.587422181	-3.4621374803	-0.18698
C	 0.7674038718	 0.6997830105	-3.1361412634	-0.241727
C	 0.9598825071	-0.2460470163	-1.9336529214	 0.01305
H	 0.00062282	 1.2278368125	 1.7585742862	 0.095962
H	-1.0937586762	 1.694730976	 0.454497714	 0.095352
H	 0.9071467848	 2.3965355146	-0.9159561675	 0.09709
H	 1.8815308606	 2.1624021139	 0.5334841562	 0.098299
H	 2.4040348813	-0.1407430427	-0.1912551462	 0.05648
H	 0.0067462964	-1.0488757329	 0.8055833827	 0.055828
H	-0.7794789556	-1.5799607036	-1.4337219358	 0.062422
H	-2.4348087397	-0.0094720829	-2.172724628	 0.090816
H	-1.5080504509	 1.3650908402	-1.5896321911	 0.098453
H	-0.9163683475	-0.2974149518	-4.0866758891	 0.095187
H	-1.1267404122	 1.450806133	-4.0132634236	 0.089718
H	 1.3965531283	 0.432979621	-3.9901601919	 0.09082
H	 1.0177883418	 1.7334899269	-2.8742728342	 0.099151
H	 1.4976617352	-1.1529091875	-2.2230524659	 0.062347
67.3498	172.0226	255.1917	293.5386	427.2093	464.4059	542.2351	597.3124	616.0788	718.8576	771.1781	776.8363	829.4919	838.7684	861.6539	882.6565	900.9182	919.5795	950.2952	956.6038	1001.9223	1004.4581	1011.6978	1055.1532	1067.6229	1094.9154	1123.5969	1139.7662	1162.1232	1185.0708	1196.7255	1210.4967	1235.3876	1245.3172	1263.9002	1275.1393	1283.2064	1296.5798	1310.7995	1315.62	1334.0727	1335.9403	1344.2418	1360.3746	1473.2051	1487.9954	1494.3208	1496.9649	1511.2256	3027.5013	3043.2386	3044.2387	3048.4876	3050.5286	3059.8424	3060.3969	3077.5689	3078.0491	3085.8222	3090.4317	3091.6612	3095.6315	3111.8326
C1CC2C1C1CCCC21	C1C[C@H]2[C@@H]1[C@H]1CCC[C@@H]21	
InChI=1S/C9H14/c1-2-6-7(3-1)9-5-4-8(6)9/h6-9H,1-5H2	InChI=1S/C9H14/c1-2-6-7(3-1)9-5-4-8(6)9/h6-9H,1-5H2/t6-,7+,8-,9+
