17
gdb 12388	2.95749	2.19614	1.3528	4.4584	64.97	-0.24	0.012	0.252	908.9233	0.143808	-401.031457	-401.023953	-401.023009	-401.063394	28.035	
C	 0.1081521095	 1.5673466046	-0.0508649401	-0.397245
C	 0.0833249751	 0.0406052424	-0.011428581	-0.099727
N	 0.6950669346	-0.5236029274	-1.2126920241	-0.308155
C	 0.7852774354	-1.9720335582	-1.12081553	-0.185587
C	 1.7787001515	-2.2794859295	-0.017586043	-0.041863
O	 1.4327851359	-1.6456625035	 1.2258883437	-0.235112
C	 0.7514847527	-0.4782240792	 1.2696195128	 0.443151
O	 0.6187243891	 0.0803695238	 2.3249133644	-0.328042
H	 1.1337629637	 1.9272853798	-0.1675560629	 0.131329
H	-0.4834463543	 1.9328715822	-0.8965807546	 0.106358
H	-0.3067287536	 1.9719534708	 0.872701119	 0.1483
H	-0.9702936216	-0.2889504043	 0.1010483938	 0.093014
H	 0.16191052	-0.2400818759	-2.027497964	 0.225124
H	-0.1826221005	-2.4606214882	-0.9008232318	 0.092165
H	 1.1612688241	-2.3827439919	-2.0631505877	 0.113156
H	 1.8256370963	-3.3495287322	 0.2007124819	 0.119415
H	 2.775564502	-1.9304098832	-0.3084730063	 0.123719
73.276	146.5069	221.9175	288.6119	311.4852	403.528	428.7731	475.1652	522.5808	621.6593	679.7195	762.5893	812.489	906.1856	927.1427	981.6206	1044.2396	1070.9675	1106.9394	1119.6581	1159.0905	1180.0405	1205.223	1265.6718	1282.9153	1331.2701	1343.887	1403.1254	1409.4734	1433.5001	1476.0992	1492.3024	1495.5989	1502.5099	1509.5917	1838.3899	2887.7233	2928.9078	3045.7623	3046.6379	3080.0295	3104.716	3115.8475	3155.1765	3525.9329
CC1NCCOC1=O	C[C@H]1NCCOC1=O	
InChI=1S/C5H9NO2/c1-4-5(7)8-3-2-6-4/h4,6H,2-3H2,1H3	InChI=1S/C5H9NO2/c1-4-5(7)8-3-2-6-4/h4,6H,2-3H2,1H3/t4-/m1/s1
