22
gdb 119581	2.91663	1.07916	0.91697	2.5816	83.87	-0.2245	0.0711	0.2955	1392.1935	0.193269	-404.295014	-404.28533	-404.284386	-404.329932	35.698	
C	-0.0503286264	 1.3867799213	-0.2503699502	-0.219579
O	-0.0618936144	-0.0198065658	-0.2882421478	-0.230113
C	-1.2830404176	-0.5699802676	 0.1684521064	-0.203711
C	-1.1837681246	-2.0574786098	 0.1637710592	 0.357796
N	-1.2565210628	-2.8438571929	-1.092372503	-0.364478
C	-2.2396112128	-3.0941094074	-0.0116387629	-0.122904
C	-1.5475667731	-4.0386426078	 0.9759705773	-0.237918
C	-0.4340740512	-2.9426943123	 1.181369645	-0.01242
C	 1.0160945325	-3.2936769259	 0.8857178505	-0.406471
H	 0.9265272541	 1.7160042768	-0.6122989688	 0.129437
H	-0.8324240245	 1.8206646872	-0.8944084997	 0.101455
H	-0.1995382308	 1.7710145408	 0.7716569083	 0.102655
H	-1.5018157656	-0.209228578	 1.1889771726	 0.087543
H	-2.1200868241	-0.2426427353	-0.4755567616	 0.077767
H	-1.7078000384	-2.2514635878	-1.7896509668	 0.224155
H	-3.3017902992	-2.9756024002	-0.1927828315	 0.088949
H	-2.1264059354	-4.2306576489	 1.8820576237	 0.097072
H	-1.2165645173	-4.9865941652	 0.5437576685	 0.10557
H	-0.5290232295	-2.5072789264	 2.1819864952	 0.067042
H	 1.1084858189	-3.6969409279	-0.1259201434	 0.136393
H	 1.6511157572	-2.4045707568	 0.9571573859	 0.118666
H	 1.3936295949	-4.0403231002	 1.5930853132	 0.103094
62.1136	93.6522	101.8094	194.7289	212.9836	227.5136	271.8309	322.2597	351.1879	377.274	474.9981	550.9207	670.4621	729.5237	792.2001	859.5357	892.252	915.7691	936.2996	968.3857	992.4502	1021.5463	1043.3431	1095.7476	1102.592	1113.4123	1147.1889	1154.456	1180.4718	1193.6737	1220.3714	1225.2634	1236.1457	1265.5797	1303.1312	1333.7356	1377.4294	1394.2283	1403.5481	1454.8604	1477.9039	1484.4057	1486.4348	1488.3136	1500.8264	1504.8238	1518.8912	2931.3291	2961.7148	2966.5973	3007.7597	3032.9408	3045.7997	3062.4063	3097.2427	3115.9517	3118.5507	3124.1242	3178.0999	3466.3195
COCC12NC1CC2C	COC[C@]12N[C@H]1C[C@H]2C	
InChI=1S/C7H13NO/c1-5-3-6-7(5,8-6)4-9-2/h5-6,8H,3-4H2,1-2H3	InChI=1S/C7H13NO/c1-5-3-6-7(5,8-6)4-9-2/h5-6,8H,3-4H2,1-2H3/t5-,6+,7-/m1/s1
