21
gdb 73268	2.30928	1.78283	1.40137	0.2448	77.8	-0.2289	0.0807	0.3096	1042.2993	0.183775	-424.218853	-424.21079	-424.209846	-424.25087	32.551	
C	 0.0264527367	 1.5195360559	-0.0944500501	-0.463298
C	-0.0345003182	 0.0077350586	 0.0440810251	 0.378898
C	-1.3368998242	-0.657498346	 0.5569919305	-0.261992
C	-0.4809450782	-1.6894420268	 1.3437784462	-0.280152
C	 0.709545896	-0.695256587	 1.2217628019	 0.111372
O	 2.0292715025	-1.1390712014	 1.0178138776	-0.268485
C	 2.2398218166	-1.7289239354	-0.2570509929	-0.084649
C	 1.6975859121	-0.833473279	-1.3606587683	-0.092845
O	 0.3015954738	-0.6327772921	-1.1934859808	-0.305858
H	 1.0397594459	 1.8613615154	-0.329909973	 0.120453
H	-0.6388410002	 1.8511112535	-0.897995781	 0.124134
H	-0.2823943099	 2.0081082631	 0.8349838794	 0.111853
H	-1.902732618	 0.0082973108	 1.2138426875	 0.099136
H	-1.9938437794	-1.0400795352	-0.2255129014	 0.11085
H	-0.7968031539	-1.9572201371	 2.353537921	 0.098667
H	-0.321627625	-2.6021341598	 0.7672425676	 0.113508
H	 0.7512211938	-0.0393416645	 2.0963232645	 0.083783
H	 3.321037409	-1.865124295	-0.3574764629	 0.106429
H	 1.7603623298	-2.7177721575	-0.3183586424	 0.097207
H	 2.2417764304	 0.1235293293	-1.3618720326	 0.094387
H	 1.8276270103	-1.3031357098	-2.3406725659	 0.106601
145.3472	193.4069	204.1836	245.2828	314.4002	359.4785	393.6266	408.4609	478.0228	518.1945	608.1742	654.3811	731.8469	760.8957	861.4298	884.6281	897.8706	922.7963	944.2068	966.0777	984.0875	1041.897	1110.5532	1114.4509	1127.6013	1148.6918	1168.0017	1186.4014	1214.4913	1244.6593	1251.1524	1265.3239	1277.3851	1309.1216	1315.354	1375.5487	1403.6231	1407.6925	1419.08	1470.2217	1482.9402	1488.7208	1490.4153	1497.4072	1500.1279	2986.5355	2997.2453	3034.2077	3065.1355	3070.265	3081.5232	3083.0348	3083.8936	3102.8584	3109.1682	3125.4717	3140.9094
CC12CCC1OCCO2	C[C@]12CC[C@H]1OCCO2	
InChI=1S/C7H12O2/c1-7-3-2-6(7)8-4-5-9-7/h6H,2-5H2,1H3	InChI=1S/C7H12O2/c1-7-3-2-6(7)8-4-5-9-7/h6H,2-5H2,1H3/t6-,7+/m1/s1
