17
gdb 11517	5.11426	1.05408	0.93297	3.5374	68.94	-0.287	0.0134	0.3004	1220.5803	0.141362	-363.855862	-363.847272	-363.846328	-363.889663	30.731	
O	 0.2760172608	 1.4856501661	-0.0937441152	-0.400852
C	 0.0488467098	 0.091214789	-0.0316007915	-0.017651
C	 0.5441858927	-0.6805914314	-1.2721483912	-0.231102
C	-0.1268339062	-0.2265715886	-2.5488898195	 0.033165
C	 0.423537983	 0.9262637609	-3.3470407236	-0.2413
C	 0.5331024125	-0.4786773043	-3.8821308587	-0.285564
C	 0.6368832763	-0.4853252634	 1.1978345074	 0.253781
N	 1.1310832275	-0.9270543849	 2.1445215648	-0.316107
H	 1.2277442283	 1.6355143697	-0.1299501004	 0.293532
H	-1.039762974	-0.0155271542	 0.0415683921	 0.14027
H	 1.6328635756	-0.5605821481	-1.3499690157	 0.105304
H	 0.3633628381	-1.7491190788	-1.1005722777	 0.124411
H	-1.2105691781	-0.3169831071	-2.5336159665	 0.087857
H	-0.2764900989	 1.6084349046	-3.8155371928	 0.118559
H	 1.3291676145	 1.4039758541	-2.9892325873	 0.104022
H	 1.5115943986	-0.9482245452	-3.8821609648	 0.114136
H	-0.0941259704	-0.7660352884	-4.7183897792	 0.117537
46.7716	96.8742	124.2118	200.2506	250.6795	316.5256	331.7926	354.1765	455.4803	563.0685	592.0967	770.266	805.6015	833.2173	858.2336	923.7505	937.2172	969.3363	1044.7278	1062.9257	1078.8602	1107.829	1128.0855	1137.2291	1195.9672	1228.6921	1243.5545	1281.5468	1329.1404	1355.7007	1413.7484	1425.2746	1468.9072	1478.1208	1508.1141	2353.2788	3020.9598	3050.7002	3066.5934	3131.4815	3132.8411	3138.7887	3210.3247	3225.4872	3802.3344
OC(CC1CC1)C#N	O[C@@H](CC1CC1)C#N	
InChI=1S/C6H9NO/c7-4-6(8)3-5-1-2-5/h5-6,8H,1-3H2	InChI=1S/C6H9NO/c7-4-6(8)3-5-1-2-5/h5-6,8H,1-3H2/t6-/m0/s1
