16
gdb 19449	5.40146	1.57752	1.56301	0.456	75.59	-0.23	0.0008	0.2307	859.7653	0.131431	-309.397355	-309.39087	-309.389926	-309.427605	26.6	
C	-0.0938275344	-1.2188712844	-0.1163644621	-0.437757
C	-0.0403507536	-0.0187967825	-0.0419391798	 0.299172
C	 0.004422359	 1.4279030467	 0.0283458186	-0.15277
C	 0.0060421199	 2.0811249241	 1.4774212065	-0.068545
C	 1.525818724	 1.7096465369	 1.5293571304	-0.21855
C	 1.4412210459	 2.1076246455	 0.0177790484	-0.068547
C	 1.0275123388	 3.5784136826	 0.1361082711	-0.097321
C	 0.0905729278	 3.5611121397	 1.0890020739	-0.097322
H	-0.1387580314	-2.2778378931	-0.1798387347	 0.191751
H	-0.7121366098	 1.8710284812	-0.6681586014	 0.095813
H	-0.7044846919	 1.7669599308	 2.2403108016	 0.070638
H	 2.1649030441	 2.3217375461	 2.1688421782	 0.094467
H	 1.7061640578	 0.643795701	 1.687328246	 0.113914
H	 2.1974503937	 1.8205424242	-0.7110896194	 0.070638
H	 1.417258295	 4.4003770603	-0.446951254	 0.10221
H	-0.5005795849	 4.364962361	 1.5035471767	 0.10221
152.6956	164.4791	391.3733	457.5815	476.1578	520.5555	553.3962	622.2868	629.6774	697.7191	718.6662	834.7656	841.3574	889.3001	904.6714	912.7665	920.9854	942.2492	988.402	1034.1055	1057.579	1077.7835	1108.6025	1139.8099	1190.6137	1222.0321	1223.4777	1249.7563	1250.4157	1322.451	1334.5626	1498.3485	1622.7028	2224.7684	3067.8929	3073.8012	3131.0653	3132.7614	3135.4687	3222.1845	3248.9084	3503.4321
C#CC1C2CC1C=C2	C#C[C@H]1[C@H]2C[C@@H]1C=C2	
InChI=1S/C8H8/c1-2-8-6-3-4-7(8)5-6/h1,3-4,6-8H,5H2	InChI=1S/C8H8/c1-2-8-6-3-4-7(8)5-6/h1,3-4,6-8H,5H2/t6-,7+,8+
