19
gdb 79345	3.12233	1.50312	1.4053	2.0656	73.52	-0.2391	0.0754	0.3145	994.2966	0.161371	-423.028596	-423.021214	-423.02027	-423.05977	30.863	
O	-0.0825773128	 1.4243185145	 0.0417526768	-0.444579
C	-0.0022496388	 0.0104695935	-0.0138422822	 0.141148
C	-1.3804980426	-0.589996823	-0.2232370974	-0.102722
C	-1.602546468	-0.6670447414	-1.732456623	-0.132354
C	-0.3499479716	-0.1037990542	-2.3938145626	-0.216068
C	 0.6518175703	-0.5617058152	-1.3055459981	-0.103772
C	 0.3268123106	-2.06534551	-1.1586304635	-0.297416
C	-1.177537733	-1.8964015763	-0.9470451838	 0.403988
O	-2.0176688777	-2.9676925322	-0.6795461887	-0.480713
H	 0.8080010509	 1.7667577945	 0.1695139504	 0.279436
H	 0.4879187582	-0.3851665429	 0.888594029	 0.061777
H	-2.1978441822	-0.4490920479	 0.4700548759	 0.093306
H	-2.5979814002	-0.5859492958	-2.1484475764	 0.082909
H	-0.1384501513	-0.5520814592	-3.3705640035	 0.085377
H	-0.376127898	 0.983881692	-2.4955724178	 0.108346
H	 1.6994881793	-0.301998296	-1.4643038936	 0.055515
H	 0.5719668666	-2.6443662109	-2.0571524145	 0.085697
H	 0.8196544422	-2.5317442999	-0.2991179335	 0.099385
H	-2.131125602	-3.4690661497	-1.4945746235	 0.280741
193.88	263.6964	276.9787	295.2904	319.6406	376.3467	424.6017	479.3472	525.5497	588.9631	687.8843	718.2377	798.5558	872.332	892.9229	905.1138	917.2038	927.8483	942.0655	960.5462	997.1547	1029.0105	1033.4063	1072.358	1098.2197	1136.4284	1145.7861	1169.3158	1203.2991	1224.2284	1241.7281	1264.5259	1281.4581	1300.3673	1326.3243	1334.5253	1349.1094	1431.2883	1449.0741	1487.0042	1508.3654	2986.0559	3031.5151	3048.0236	3079.3944	3103.5789	3106.0792	3203.9999	3219.8775	3792.2257	3813.0659
OC1C2C3CC1CC23O	O[C@H]1[C@H]2[C@H]3C[C@@H]1C[C@@]23O	
InChI=1S/C7H10O2/c8-6-3-1-4-5(6)7(4,9)2-3/h3-6,8-9H,1-2H2	InChI=1S/C7H10O2/c8-6-3-1-4-5(6)7(4,9)2-3/h3-6,8-9H,1-2H2/t3-,4-,5-,6-,7+/m1/s1
