18
gdb 11408	4.3149	1.33615	1.21566	2.0038	67.57	-0.2435	-0.0239	0.2196	1049.3446	0.153157	-384.969555	-384.961465	-384.96052	-385.002468	29.653	
C	-0.2705714512	 1.4184589539	-0.161399035	-0.381837
C	-0.1316196846	-0.102958662	-0.2368560742	-0.183205
C	 1.0423929016	-0.5505712339	-1.1149823831	 0.112561
C	 1.1296262831	-2.0722330015	-1.2892941273	-0.354316
C	 0.3673889696	-2.3195141554	-2.5911842907	 0.371042
O	-0.0383299754	-3.3673122847	-3.0166639254	-0.297979
C	 0.2092245796	-0.9495714443	-3.2557651497	-0.183162
O	 0.9273889509	-0.0318384287	-2.4579182233	-0.264169
H	 0.6183072427	 1.8728655603	 0.2903808492	 0.115193
H	-0.3879471483	 1.8430444539	-1.1616522128	 0.134256
H	-1.1364271413	 1.7070708143	 0.4413365251	 0.113003
H	 0.0157983224	-0.5224527692	 0.7666093755	 0.100251
H	-1.060410739	-0.5479605235	-0.6196615247	 0.097831
H	 1.9707436962	-0.1259570478	-0.7196558696	 0.086944
H	 2.1651051312	-2.3996077798	-1.4379239416	 0.138645
H	 0.706642866	-2.6561695111	-0.469383598	 0.134455
H	 0.6187929549	-0.9525850933	-4.2714233942	 0.137541
H	-0.8629537183	-0.7060425371	-3.3260637901	 0.122945
64.1612	107.5489	147.9542	224.8778	239.5654	359.0309	430.2519	464.3449	485.4122	623.2736	713.3153	753.0283	775.468	826.9481	866.1814	922.834	986.7903	1007.9367	1047.9829	1079.7088	1098.3858	1127.0075	1174.9818	1201.1184	1223.9898	1255.5347	1295.3916	1312.9922	1327.5677	1372.9374	1402.9036	1411.8858	1447.0118	1475.9968	1487.0178	1496.7554	1509.5049	1860.3377	2982.9182	3015.2691	3038.4365	3044.6122	3051.1808	3065.7566	3073.2125	3104.3014	3119.3887	3124.9907
CCC1CC(=O)CO1	CC[C@H]1CC(=O)CO1	
InChI=1S/C6H10O2/c1-2-6-3-5(7)4-8-6/h6H,2-4H2,1H3	InChI=1S/C6H10O2/c1-2-6-3-5(7)4-8-6/h6H,2-4H2,1H3/t6-/m0/s1
