22
gdb 88692	3.2781	0.95671	0.87861	2.3087	84.42	-0.2261	0.0852	0.3113	1456.0656	0.191375	-404.303957	-404.293757	-404.292813	-404.339448	37.561	
C	 0.3159508269	 1.7121615565	-0.4927754632	-0.312116
N	 0.0657852569	 0.3014556987	-0.2294954984	-0.083296
C	 1.2015462292	-0.5506409879	 0.07781402	-0.258618
C	 0.193363829	-0.2268531476	 1.133916836	-0.020888
C	 0.5884198599	 0.6325408449	 2.2886937898	 0.002017
O	-0.469348354	 1.2258578124	 3.062785915	-0.303832
C	 0.392066965	 0.2752003875	 3.7101387914	 0.382613
C	-0.2666126392	-1.0197495756	 4.1373424489	-0.456092
C	 1.3244856428	 0.8786057839	 4.7411368833	-0.450932
H	 1.2111289339	 2.122496971	-0.000598842	 0.099841
H	 0.4402538588	 1.8444440047	-1.5722364484	 0.122987
H	-0.5507741568	 2.2978921587	-0.1725652765	 0.136026
H	 1.216991282	-1.5315393347	-0.3904792238	 0.115602
H	 2.1810826604	-0.0800378681	 0.1734012992	 0.103541
H	-0.5672318319	-0.967970549	 1.3621418886	 0.092425
H	 1.4094273961	 1.3204435334	 2.0823409366	 0.082373
H	-1.0105556681	-1.3559158432	 3.4143848484	 0.133191
H	 0.4797942445	-1.8105628571	 4.2686657515	 0.121313
H	-0.7738565498	-0.8783607673	 5.0979981302	 0.124193
H	 0.7809244154	 1.0848961766	 5.669765598	 0.124892
H	 2.1429221604	 0.190298517	 4.978511906	 0.119634
H	 1.7507840084	 1.817699855	 4.3801407194	 0.125124
36.3627	108.1046	146.8635	165.2961	185.1601	212.5163	247.2988	327.2719	357.8916	390.9056	409.6427	452.9344	453.9365	571.2461	710.1329	748.697	838.3288	865.9849	909.4231	928.4745	945.2984	1003.7991	1032.8034	1066.362	1080.7349	1112.0331	1126.0864	1130.0849	1151.6136	1161.8177	1195.6557	1204.681	1260.8979	1323.4713	1339.9717	1379.3815	1408.0212	1418.3748	1450.487	1471.1477	1475.4654	1486.3009	1488.9664	1499.5995	1503.2677	1512.8593	1524.265	2981.096	3032.4906	3039.4979	3069.6124	3079.6637	3093.9966	3098.2032	3099.2622	3109.4922	3122.8783	3137.3242	3150.9756	3169.6525
CN1CC1C1OC1(C)C	CN1C[C@H]1[C@H]1OC1(C)C	
InChI=1S/C7H13NO/c1-7(2)6(9-7)5-4-8(5)3/h5-6H,4H2,1-3H3	InChI=1S/C7H13NO/c1-7(2)6(9-7)5-4-8(5)3/h5-6H,4H2,1-3H3/t5-,6+,8?/m0/s1
