15
gdb 16036	3.51027	1.74675	1.41758	3.1427	66.83	-0.2635	0.0084	0.2719	893.8424	0.118915	-362.634196	-362.626891	-362.625947	-362.665688	26.977	
C	-0.0067350106	 1.5537913622	 0.019982836	-0.426098
C	 0.0715864306	 0.0453918253	 0.0573881171	-0.083594
C	 1.324597733	-0.728504539	-0.1746110783	 0.051151
O	 2.4756471893	-0.0381024016	 0.2936016495	-0.272093
C	 1.9963993019	-0.0953027537	 1.661474349	-0.138049
C	 0.6822860273	-0.7478868355	 1.2205588554	 0.109528
C	-0.0120891337	-1.771256622	 1.9202231373	 0.192932
N	-0.5797395335	-2.5999905774	 2.4967586627	-0.348898
H	 0.9621910343	 2.0051660186	 0.2434529654	 0.142863
H	-0.3027192401	 1.8867233822	-0.9797741182	 0.13215
H	-0.7452419003	 1.9308970679	 0.733684486	 0.132
H	-0.802488186	-0.4756602211	-0.3276253058	 0.118754
H	 1.4655185887	-1.5190464549	-0.9028444207	 0.130364
H	 2.6209682728	-0.7661953773	 2.2580606039	 0.136012
H	 1.9381294962	 0.8911047863	 2.1323037209	 0.122979
137.8116	165.4407	175.9402	252.9056	255.9572	403.2369	506.6803	545.6938	564.7274	622.7164	753.2477	775.2818	914.1025	935.0865	983.8166	993.3704	1018.3607	1073.7098	1088.373	1107.639	1123.7892	1161.2156	1228.7253	1270.7009	1296.436	1353.3093	1413.2106	1452.869	1492.0995	1500.5399	1517.2794	2343.4686	3044.755	3047.2173	3103.2517	3108.3146	3130.1592	3148.0052	3188.2646
CC1C2OCC12C#N	C[C@H]1[C@H]2OC[C@@]12C#N	
InChI=1S/C6H7NO/c1-4-5-6(4,2-7)3-8-5/h4-5H,3H2,1H3	InChI=1S/C6H7NO/c1-4-5-6(4,2-7)3-8-5/h4-5H,3H2,1H3/t4-,5+,6-/m0/s1
