21
gdb 92676	3.16029	1.15339	0.93015	0.7487	93.96	-0.2234	-0.0143	0.2091	1320.1939	0.181623	-349.950415	-349.941009	-349.940064	-349.984154	36.307	
C	-0.94580272	 0.9984841236	-0.0252900077	-0.414825
C	 0.1205706366	-0.0943859523	 0.0177150749	 0.026654
C	 1.1927165606	 0.0066080734	-1.0981170111	-0.262929
C	 2.3876557928	-0.669679788	-0.482946146	-0.181294
C	 2.2531774942	-0.8178549175	 0.8441815901	 0.182595
C	 3.1990488403	-1.3832609661	 1.7327647425	 0.22081
C	 3.9656238805	-1.8590868335	 2.5326545127	-0.418314
C	 0.9378012485	-0.2180277397	 1.3417281735	-0.109724
C	 1.191345388	 1.0979514497	 2.0957422376	-0.394339
H	-0.5090533598	 1.9965260297	 0.082606227	 0.117802
H	-1.4821533078	 0.9749154653	-0.9799976526	 0.112325
H	-1.6864005888	 0.8689918778	 0.7712401672	 0.113577
H	-0.3788503129	-1.0614924007	-0.1200758625	 0.079466
H	 0.8662450387	-0.4636449548	-2.0329563071	 0.104783
H	 1.4240598079	 1.0534544414	-1.3492509804	 0.107047
H	 3.2624890021	-0.9708710782	-1.0475023104	 0.097905
H	 4.6536082047	-2.2803936593	 3.2227158822	 0.188155
H	 0.4379837279	-0.9080142336	 2.0315822171	 0.076355
H	 1.6665619066	 1.8446943301	 1.4508050765	 0.115055
H	 0.2599166233	 1.5227647026	 2.4819854011	 0.113424
H	 1.8587219265	 0.9216435001	 2.9447181854	 0.125472
72.8862	133.7784	171.6634	244.7484	250.273	262.9834	275.2222	328.5521	394.7187	441.7947	533.8299	563.2608	583.5003	628.5227	633.4264	660.3555	768.3971	822.5315	848.9046	895.474	938.0583	986.8019	1007.187	1038.4472	1066.4286	1090.5319	1123.5041	1147.91	1179.9681	1209.7995	1273.6758	1302.8296	1307.4669	1338.1269	1363.7188	1373.8621	1402.5539	1413.1363	1485.5258	1489.5604	1494.5198	1504.7949	1506.3386	1670.3348	2217.597	2989.8296	3016.5429	3029.7689	3034.8372	3036.0507	3053.3588	3093.8375	3101.5902	3105.6577	3109.2502	3201.2542	3503.9208
CC1CC=C(C#C)C1C	C[C@H]1CC=C(C#C)[C@H]1C	
InChI=1S/C9H12/c1-4-9-6-5-7(2)8(9)3/h1,6-8H,5H2,2-3H3	InChI=1S/C9H12/c1-4-9-6-5-7(2)8(9)3/h1,6-8H,5H2,2-3H3/t7-,8-/m0/s1
