20
gdb 66624	2.62044	1.9622	1.4738	1.8858	82.06	-0.2158	0.0895	0.3052	981.7151	0.171266	-365.942815	-365.93506	-365.934116	-365.974429	31.366	
C	 0.1186176953	 1.528366037	 0.0677616399	-0.527237
C	-0.038502084	 0.0526025564	-0.0821116803	 0.297409
C	 0.7118833029	-0.9858910312	-0.8292645256	-0.106099
C	-0.5104529268	-1.8830908836	-1.0876949044	-0.122198
C	-0.4475816255	-2.9908623609	-0.0081754459	-0.248723
C	-0.4717356258	-1.8040421731	 0.9671258504	-0.037835
N	 0.7606866755	-0.9585781808	 0.6803750689	-0.193093
C	-1.2579423132	-0.9248610633	-0.0612045667	 0.30459
C	-2.7255169645	-0.620221895	-0.0732732545	-0.536744
H	 1.1811848051	 1.788712334	 0.106225418	 0.13403
H	-0.3354574686	 2.0658595325	-0.772284156	 0.119318
H	-0.348512014	 1.8876375979	 0.9918993239	 0.122291
H	 1.6553663139	-0.9322666262	-1.3594561786	 0.089318
H	-0.8435595154	-2.0520122399	-2.1106677302	 0.068775
H	-1.3761473456	-3.5681459293	 0.039854751	 0.100127
H	 0.4152921545	-3.6623796494	 0.0094338035	 0.101724
H	-0.689485615	-1.8953275601	 2.0311169131	 0.06946
H	-3.0162949694	-0.0174322038	 0.7949857329	 0.122012
H	-3.0107716681	-0.0647303298	-0.9744198941	 0.120421
H	-3.3195504614	-1.5412074114	-0.0508325054	 0.122455
182.6988	189.4892	209.6224	228.9017	276.1533	285.3942	457.0256	565.179	576.357	606.7641	709.105	763.1424	796.2781	824.3357	841.0235	867.245	884.4843	921.3437	941.2407	963.9012	995.6651	1037.3811	1051.6649	1080.1574	1094.881	1108.4688	1130.4138	1159.813	1183.307	1209.7148	1224.2592	1242.0972	1270.2249	1276.5167	1348.5698	1399.0224	1412.4347	1446.9554	1479.0785	1480.2368	1486.8078	1489.982	1495.838	3018.4458	3025.4013	3050.0481	3080.9608	3085.527	3086.7225	3104.6614	3108.5398	3115.6923	3127.6568	3180.2717
CC12C3C4CC(N13)C24C	C[C@@]12[C@@H]3[C@H]4C[C@@H](N13)[C@@]24C	
InChI=1S/C8H11N/c1-7-4-3-5(7)9-6(4)8(7,9)2/h4-6H,3H2,1-2H3	InChI=1S/C8H11N/c1-7-4-3-5(7)9-6(4)8(7,9)2/h4-6H,3H2,1-2H3/t4-,5-,6+,7+,8+,9?/m1/s1
