15
gdb 18443	3.07365	2.10757	1.62057	1.8846	66.88	-0.2343	0.033	0.2673	822.6575	0.11794	-362.566714	-362.559289	-362.558344	-362.598129	28.235	
O	 0.0441517789	 1.422153335	-0.1927449229	-0.422868
C	 0.0163860434	 0.0288099429	-0.0182755666	 0.104412
C	 0.233273796	-0.6178816919	 1.3827274739	-0.218148
N	-1.0798573305	-1.3564434957	 1.2840523393	-0.150236
C	-2.1382522232	-0.3101521589	 1.245503292	-0.206093
C	-2.0897813885	 0.89722779	 2.0215685396	 0.378253
C	-2.1099874727	 1.8744872549	 2.7218556299	-0.46013
C	-1.3695221348	-0.5881346831	 0.0025226618	-0.047889
H	 0.9629682435	 1.7069596522	-0.2261603659	 0.286103
H	 0.6375735171	-0.478471757	-0.7687096221	 0.083422
H	 1.0572626242	-1.3317951425	 1.430179314	 0.109047
H	 0.284475239	 0.0761654932	 2.2247945495	 0.124409
H	-3.1178340417	-0.7842319284	 1.250319985	 0.122305
H	-2.1157417685	 2.7553630544	 3.3147786874	 0.198519
H	-1.8577890124	-1.0534385753	-0.8482655947	 0.098895
115.8994	161.2817	203.6048	247.0348	333.9652	412.7147	465.2273	550.6086	606.5768	613.8954	663.9894	737.8717	764.4648	767.029	883.68	925.4801	984.0293	985.5387	1033.6137	1066.8557	1107.0307	1154.8279	1195.877	1206.3893	1227.9247	1280.2657	1317.7306	1356.4738	1407.1348	1442.2093	1490.6588	2236.0835	3009.4505	3070.6773	3129.0073	3132.3347	3160.4215	3504.0055	3817.6918
OC1CN2C(C#C)C12	O[C@H]1CN2[C@@H](C#C)[C@@H]12	
InChI=1S/C6H7NO/c1-2-4-6-5(8)3-7(4)6/h1,4-6,8H,3H2	InChI=1S/C6H7NO/c1-2-4-6-5(8)3-7(4)6/h1,4-6,8H,3H2/t4-,5-,6-,7?/m0/s1
