18
gdb 6326	4.83492	1.1183	0.9238	1.3289	74.87	-0.2394	-0.0074	0.232	1264.5078	0.151131	-381.168573	-381.158469	-381.157525	-381.205716	33.567	
C	 0.8686868239	 1.8057630874	 0.0791618636	-0.320902
N	 0.8420133654	 0.3871482803	 0.3871867764	-0.284551
C	 0.3892458709	-0.4487741719	-0.4596913041	 0.377724
C	-0.1642882413	-0.1776125181	-1.8330538987	-0.464066
N	 0.4254039789	-1.7870426385	-0.0248483161	-0.354119
C	 0.028189569	-2.9479739339	-0.6558213719	 0.405245
C	 0.2501153236	-4.1922546496	 0.1924633772	-0.492922
O	-0.4505593389	-2.9909962151	-1.7711507178	-0.353673
H	 1.4911526361	 2.0389964643	-0.7957641751	 0.119478
H	-0.1323838915	 2.219368257	-0.1056251033	 0.119479
H	 1.2913503909	 2.3409275352	 0.9336028894	 0.122713
H	 0.4040414545	-0.720117665	-2.5917986004	 0.158269
H	-1.1904049714	-0.5429976124	-1.9141822093	 0.158267
H	-0.137471255	 0.8899899799	-2.0490083837	 0.121207
H	 0.8127205808	-1.861470099	 0.905996564	 0.249955
H	 1.3090499305	-4.309445923	 0.4456329529	 0.142393
H	-0.3113147587	-4.1310549847	 1.1306784783	 0.14251
H	-0.0844525478	-5.061371053	-0.3723521111	 0.152992
27.6412	39.5067	54.7963	105.0171	135.036	178.7181	272.8568	321.4865	354.6066	381.4883	537.8921	561.0966	599.9552	663.9885	707.5988	813.2209	949.2201	971.1747	1038.264	1050.4491	1054.2077	1104.1379	1109.7708	1160.4596	1238.7826	1326.4527	1385.8402	1412.3928	1438.8398	1457.2424	1467.7484	1472.5483	1483.192	1493.2111	1511.7775	1514.7257	1737.1478	1795.5969	2993.1395	3043.1774	3045.5299	3070.2263	3096.5808	3105.7159	3131.7221	3162.1319	3166.035	3596.4539
CN=C(C)NC(C)=O	CN=C(C)NC(=O)C	
InChI=1S/C5H10N2O/c1-4(6-3)7-5(2)8/h1-3H3,(H,6,7,8)	InChI=1S/C5H10N2O/c1-4(6-3)7-5(2)8/h1-3H3,(H,6,7,8)
