24
gdb 22242	2.99103	0.74548	0.66225	0.632	89.71	-0.238	0.0199	0.2579	1815.7309	0.214147	-405.52643	-405.514806	-405.513862	-405.563867	41.688	
C	-0.1466426378	 1.609988916	-0.0035485861	-0.381602
C	-0.0510642916	 0.0813624366	 0.0089183698	-0.172109
C	-1.4228576854	-0.5937527407	 0.1292512957	-0.163289
C	-1.3926394419	-2.1419412659	 0.0705566651	-0.061929
C	-0.6616775641	-2.7579547613	 1.2686873497	-0.390752
C	-2.8047836161	-2.6693931604	-0.1007205438	 0.347422
C	-3.5338058827	-2.4164550314	-1.3957411016	-0.468336
N	-3.321506697	-3.3080729383	 0.877806329	-0.17002
O	-4.6388592911	-3.7155325287	 0.5956431953	-0.405822
H	 0.8423899899	 2.0709346366	-0.0889606251	 0.111536
H	-0.7528059596	 1.9632696705	-0.845295544	 0.112983
H	-0.6101202736	 1.9848517199	 0.9157699099	 0.115541
H	 0.441112695	-0.2625793154	-0.9109599265	 0.09273
H	 0.5953673543	-0.2322672561	 0.8363893535	 0.102551
H	-1.9035920351	-0.2916706732	 1.0694947691	 0.101212
H	-2.0660402629	-0.2142691574	-0.6750318335	 0.093709
H	-0.8490345381	-2.418049273	-0.8467237719	 0.077116
H	-1.1410402857	-2.4725059861	 2.2090447215	 0.125668
H	-0.6754131228	-3.8492338041	 1.2149162769	 0.119016
H	 0.3808126179	-2.4299981402	 1.2969584225	 0.105378
H	-3.9285736961	-3.3569000025	-1.7917790928	 0.145734
H	-4.397735745	-1.7625810656	-1.2357679291	 0.144661
H	-2.8805870774	-1.9590431628	-2.1414586948	 0.115598
H	-4.8753953829	-4.1930957764	 1.3974062213	 0.303002
50.5037	68.7708	94.6409	96.8443	149.5335	219.3564	242.4773	246.1465	261.0753	306.547	325.2457	353.1567	394.1171	451.6226	485.8533	571.493	655.2789	744.7667	791.1619	858.9747	877.2485	929.108	966.7949	1000.6734	1020.1286	1030.6475	1045.6371	1063.5569	1124.6995	1134.0802	1176.2728	1233.0567	1262.6792	1296.6915	1332.4153	1342.0859	1370.0647	1392.5957	1396.8021	1401.6258	1411.0096	1415.2302	1473.2817	1480.2175	1484.5832	1492.5552	1493.807	1499.5344	1500.3128	1511.1447	1726.2689	2980.6501	3012.3455	3020.6034	3029.287	3042.6972	3044.826	3050.4438	3066.949	3097.2697	3100.9814	3101.4505	3120.9882	3123.2597	3132.6917	3822.8391
CCCC(C)C(C)=NO	CCC[C@@H](C)C(=NO)C	
InChI=1S/C7H15NO/c1-4-5-6(2)7(3)8-9/h6,9H,4-5H2,1-3H3	InChI=1S/C7H15NO/c1-4-5-6(2)7(3)8-9/h6,9H,4-5H2,1-3H3/t6-/m1/s1
