19
gdb 63325	2.52146	1.43191	1.14452	0.4541	78.2	-0.2542	-0.0053	0.2489	1142.4341	0.159723	-419.280895	-419.271957	-419.271012	-419.314795	33.842	
C	 0.0781039911	 1.4822404991	 0.0193089098	-0.42347
C	-0.0412420195	-0.0537974486	-0.0353644636	 0.154441
C	-1.5159507223	-0.4759595835	-0.0145815502	-0.428485
C	 0.7599353272	-0.6521579188	-1.2179140181	-0.328198
C	 2.0156750549	-1.2580011688	-0.6149023205	 0.385641
N	 3.0001639533	-1.6919953291	-1.2859844038	-0.528962
N	 1.833577565	-1.243828502	 0.7681478868	-0.365826
C	 0.6773223762	-0.6166294249	 1.2037300714	 0.409165
O	 0.3328203176	-0.5193855358	 2.3564903	-0.372804
H	 1.1242065097	 1.8043502042	-0.0121909056	 0.121944
H	-0.4395686636	 1.9303436657	-0.8348230952	 0.119935
H	-0.3692822617	 1.8668847626	 0.9396988192	 0.139658
H	-2.049922172	-0.043183059	-0.8666019566	 0.116998
H	-1.6206544934	-1.5645109994	-0.0656576992	 0.118856
H	-1.993604751	-0.1341122786	 0.9072466741	 0.140914
H	 0.2004401117	-1.4475782053	-1.7203880293	 0.135118
H	 1.0260333541	 0.0826159211	-1.9803802499	 0.136107
H	 3.7336728751	-2.073870004	-0.6859611402	 0.209978
H	 2.4929400574	-1.635329465	 1.4255269609	 0.258991
37.0506	129.7191	220.0353	224.1722	254.3578	294.9386	319.7345	362.3978	391.5785	529.3552	557.7206	595.9133	610.8165	635.5248	736.0631	764.6302	872.1586	883.2285	904.2297	927.9025	964.1491	986.967	1036.7264	1105.8333	1129.1418	1177.7522	1231.3553	1247.7464	1261.7043	1324.2575	1364.7231	1382.5935	1396.1562	1420.5195	1472.4124	1483.1589	1489.3402	1501.2245	1510.4139	1763.482	1843.0507	3032.8384	3036.5726	3062.2759	3101.4132	3104.2455	3113.6111	3120.327	3124.1166	3454.9882	3615.4677
CC1(C)CC(=N)NC1=O	CC1(C)C[C]([NH])NC1=O	
InChI=1S/C6H10N2O/c1-6(2)3-4(7)8-5(6)9/h3H2,1-2H3,(H2,7,8,9)	InChI=1S/C6H10N2O/c1-6(2)3-4(7)8-5(6)9/h3H2,1-2H3,(H2,7,8,9)
