19
gdb 69051	3.45315	0.97475	0.89143	2.3889	77.2	-0.2322	-0.0263	0.2059	1349.8869	0.156571	-422.997522	-422.988344	-422.9874	-423.032306	33.403	
C	-0.0001661783	 1.5033621944	-0.0246496988	-0.485682
C	-0.0061236873	 0.0137211448	 0.0756782718	 0.413241
C	 1.0749518347	-0.9291837639	-0.3616510552	-0.381281
C	 0.5492018553	-0.9955877445	 1.0676284996	 0.200085
C	 1.4051567486	-0.8595349581	 2.2986237051	-0.394481
C	 2.1062794285	-2.1619708507	 2.6432564006	 0.167497
O	 2.0652045279	-2.6996865674	 3.7188748892	-0.236088
C	-0.8486758414	-1.6069979966	 1.0176728921	-0.127856
O	-1.2758061679	-0.6514800983	 0.0115941095	-0.320729
H	 1.0081850057	 1.8971110981	 0.1326679243	 0.12306
H	-0.331817574	 1.8187710074	-1.0203300463	 0.138166
H	-0.6724676777	 1.9493544273	 0.7145413825	 0.131286
H	 0.8479150949	-1.7170194389	-1.075313894	 0.116404
H	 2.0657146591	-0.4941440411	-0.4581934843	 0.112769
H	 2.1862567638	-0.1075728664	 2.115769368	 0.121595
H	 0.8253251209	-0.5383941373	 3.169978844	 0.123642
H	 2.6761666227	-2.6083346873	 1.7959668242	 0.078899
H	-0.9444355492	-2.6448853006	 0.6767087099	 0.107548
H	-1.4172853464	-1.4700386708	 1.9453496377	 0.111927
49.7759	66.2301	127.88	193.8865	220.1141	259.2172	323.8511	372.4313	418.4569	468.3326	499.7735	613.262	725.851	758.615	822.3114	847.441	917.6734	946.7497	967.6058	983.2387	1001.3048	1046.2993	1055.0024	1078.075	1109.7236	1148.8622	1159.4944	1209.5179	1252.5729	1279.3978	1311.2141	1350.4027	1399.0356	1423.8228	1427.9118	1452.7022	1473.4019	1489.4413	1505.4257	1522.7802	1834.9003	2869.6075	3011.7808	3019.0529	3034.6585	3067.5157	3084.8677	3099.3101	3108.9621	3116.9967	3200.1465
CC12CC1(CC=O)CO2	C[C@@]12C[C@]1(CC=O)CO2	
InChI=1S/C7H10O2/c1-6-4-7(6,2-3-8)5-9-6/h3H,2,4-5H2,1H3	InChI=1S/C7H10O2/c1-6-4-7(6,2-3-8)5-9-6/h3H,2,4-5H2,1H3/t6-,7-/m1/s1
