17
gdb 45100	2.81714	1.76485	1.28831	3.7678	72.13	-0.2271	-0.0233	0.2038	976.6278	0.138317	-417.970674	-417.963667	-417.962723	-418.002069	28.041	
O	-0.0909712196	 0.7198874766	-1.4974424021	-0.320729
C	 0.0052968736	 1.3654942401	-0.4792213774	 0.434203
C	-1.1798414136	 1.6279062722	 0.4481665492	-0.27069
N	-1.3198955717	 3.0358030338	 0.8622985111	-0.10537
C	-0.9286531455	 3.4344591174	 2.2120432408	-0.248249
C	-0.1074661895	 3.8392995797	 1.0380637551	-0.013169
C	 1.237449322	 3.2168225094	 0.7865915499	-0.035255
N	 1.5160087235	 1.9402636376	 1.4312613096	-0.340426
C	 1.3020549802	 1.9642669185	-0.0389979023	-0.155812
H	-2.083723543	 1.3253728492	-0.0864048099	 0.130383
H	-1.0573856304	 0.9663528528	 1.3165812529	 0.133454
H	-1.5885066356	 4.1481198207	 2.698439423	 0.114906
H	-0.4932228175	 2.6771351273	 2.8598141058	 0.13091
H	-0.1921622844	 4.8522900625	 0.6477719578	 0.094626
H	 2.0575841619	 3.9209705583	 0.6656843719	 0.098638
H	 2.5080990783	 1.8449063104	 1.6288270475	 0.247312
H	 2.1424869313	 1.7982577837	-0.7050665429	 0.10527
98.8493	200.1616	257.3395	370.7416	438.3868	443.6064	454.2328	551.155	603.1825	666.6768	740.5885	784.4826	851.8364	875.116	903.2225	917.5136	943.1463	976.7175	1041.1312	1052.0444	1075.1159	1106.9456	1127.716	1143.6296	1158.0197	1175.3747	1221.263	1239.4747	1272.3465	1318.8536	1333.009	1385.5741	1410.0832	1443.1717	1468.3893	1504.6529	1813.2041	3018.2127	3095.859	3101.6125	3113.4913	3136.0198	3172.5116	3191.6401	3517.8802
O=C1CN2CC2C2NC12	O=C1CN2C[C@H]2[C@H]2N[C@@H]12	
InChI=1S/C6H8N2O/c9-4-2-8-1-3(8)5-6(4)7-5/h3,5-7H,1-2H2	InChI=1S/C6H8N2O/c9-4-2-8-1-3(8)5-6(4)7-5/h3,5-7H,1-2H2/t3-,5+,6-,8?/m0/s1
