17
gdb 42819	3.09792	1.48422	1.31992	2.6662	72.22	-0.2446	-0.0136	0.231	1009.8352	0.136468	-421.79605	-421.788859	-421.787914	-421.827694	28.585	
O	 0.0129768988	-0.0260381439	-0.0661418415	-0.31341
C	-0.003938749	 1.1566771311	 0.0558799387	 0.455976
C	-1.0323223243	 2.3153590319	 0.0406068681	-0.048108
C	-0.8037207772	 3.0002938567	 1.4038040605	-0.32153
C	 0.7455837422	 3.0055516741	 1.3718020108	 0.396694
C	 1.5964560051	 4.1238761083	 1.8954102428	-0.33228
C	 1.6314448075	 2.7663111479	 2.5619538537	-0.327906
C	 0.9813435579	 2.3509991112	 0.0170558555	-0.142329
O	-0.0486098297	 2.9792293605	-0.8216027672	-0.289441
H	-2.0324529064	 2.2474820997	-0.3820734422	 0.105437
H	-1.2274563516	 4.0081858689	 1.4113073537	 0.120022
H	-1.2247783901	 2.4301518307	 2.2373939949	 0.116955
H	 2.4586491003	 4.4324355023	 1.3131250535	 0.119116
H	 1.0958160566	 4.9346724625	 2.4151503843	 0.118057
H	 1.1599495469	 2.6582018353	 3.5330680258	 0.119713
H	 2.5179964608	 2.1540750327	 2.4301218753	 0.121713
H	 1.9782737022	 2.3256797101	-0.4185800765	 0.101322
98.6527	168.0635	250.9451	284.5992	394.5027	452.9052	488.5759	534.569	638.3693	753.0123	771.6648	780.3287	849.2271	866.9333	889.1171	900.6984	938.5893	952.515	978.0716	1000.5492	1047.691	1054.4084	1061.396	1081.586	1144.5218	1160.6988	1186.2269	1202.5063	1220.594	1263.2651	1282.2212	1296.0668	1388.1482	1466.6828	1483.6318	1504.6312	1925.6898	3054.5641	3103.9782	3124.876	3128.8503	3151.1162	3155.4965	3203.6702	3217.9812
O=C1C2CC3(CC3)C1O2	O=C1[C@H]2CC3(CC3)[C@@H]1O2	
InChI=1S/C7H8O2/c8-5-4-3-7(1-2-7)6(5)9-4/h4,6H,1-3H2	InChI=1S/C7H8O2/c8-5-4-3-7(1-2-7)6(5)9-4/h4,6H,1-3H2/t4-,6-/m1/s1
