21
gdb 123205	10.62566	0.40409	0.39441	4.9364	82.39	-0.2485	0.0219	0.2704	2662.8206	0.181118	-420.393644	-420.382687	-420.381743	-420.431383	36.763	
C	-0.0453404465	 1.3647638203	-0.0439419301	-0.229368
O	-0.0058176672	-0.0413340723	-0.0103059402	-0.229294
C	 0.6795594265	-0.5453730873	 1.1128683227	-0.047987
C	 0.6674447299	-2.0666834577	 1.038801798	-0.218177
C	 1.3633064917	-2.7169632957	 2.23226644	-0.126649
N	 1.3638241837	-4.1717631562	 2.0987645568	-0.298569
C	 1.9723927523	-4.8373916429	 3.2428645391	-0.259914
C	 1.9126733588	-6.2949893134	 3.1023069774	 0.256109
N	 1.8460692418	-7.4439130556	 3.0057632664	-0.296786
H	 0.9650583664	 1.8020892531	-0.086218128	 0.104011
H	-0.5930159965	 1.6555097721	-0.9435396042	 0.129308
H	-0.5609372373	 1.7813466573	 0.8362682678	 0.103135
H	 1.7180784236	-0.1694570929	 1.1317192703	 0.085712
H	 0.1981242585	-0.1987405517	 2.0448213416	 0.083831
H	-0.3760316321	-2.4021739139	 0.9856643623	 0.107665
H	 1.1533435502	-2.3894252655	 0.1127149572	 0.126059
H	 2.4100532562	-2.3866255566	 2.2786466851	 0.109364
H	 0.8893241194	-2.379326641	 3.1742546891	 0.083268
H	 0.4127502038	-4.5070977279	 1.9801374485	 0.231537
H	 3.0271896109	-4.5404180456	 3.3036851468	 0.156636
H	 1.5193543856	-4.5718554066	 4.2166994135	 0.130108
41.5801	68.2072	74.6262	99.5637	138.912	149.9291	159.2333	238.7442	267.4016	303.7529	394.0244	422.7404	505.7533	580.3599	775.3755	777.0511	891.348	939.7195	984.1089	999.2615	1039.3911	1063.5088	1114.6973	1146.829	1166.2112	1169.6618	1185.8403	1221.8993	1228.64	1265.8144	1297.3695	1308.8972	1316.7075	1363.4366	1421.552	1434.4774	1482.9603	1486.2892	1490.3835	1496.6901	1498.1517	1505.179	1521.4053	1534.7209	2369.0095	2914.9421	2929.6548	2938.8727	2962.7644	2969.1496	3011.3048	3023.4899	3038.704	3044.9051	3093.1863	3115.7114	3517.3334
COCCCNCC#N	COCCCNCC#N	
InChI=1S/C6H12N2O/c1-9-6-2-4-8-5-3-7/h8H,2,4-6H2,1H3	InChI=1S/C6H12N2O/c1-9-6-2-4-8-5-3-7/h8H,2,4-6H2,1H3
