19
gdb 15381	3.7211	1.07187	0.90064	1.6189	78.71	-0.2443	0.0379	0.2821	1324.3149	0.16408	-327.871583	-327.862526	-327.861582	-327.905684	33.034	
C	 0.0942041681	 1.5219311043	 0.1106447773	-0.381345
C	-0.0305493253	-0.0013589304	 0.1931902555	-0.160572
C	-1.3681844519	-0.5211992203	-0.3490359152	-0.18357
C	-1.4829620152	-2.0231172854	-0.2490461854	-0.004761
N	-1.8447544304	-2.5720216517	 1.061999873	-0.323414
C	-2.7920070539	-2.7318390083	-0.0705268712	-0.25777
C	-4.0496234593	-2.0400868574	 0.0049085976	 0.383846
C	-5.1131479658	-1.4797145117	 0.0332548029	-0.44806
H	 1.054655072	 1.8659539936	 0.5069588294	 0.110514
H	 0.0167610551	 1.8716095229	-0.925111146	 0.11207
H	-0.6989325225	 2.0136876631	 0.6844517822	 0.117811
H	 0.7949994688	-0.4678879946	-0.3614260531	 0.087667
H	 0.0742389996	-0.3282271391	 1.234661386	 0.111242
H	-2.1966471039	-0.0670055705	 0.2042792943	 0.116353
H	-1.4874641754	-0.2238513628	-1.3996803232	 0.095198
H	-0.7438259203	-2.5772182247	-0.8288519943	 0.085176
H	-1.3728096768	-3.4569290045	 1.2292392423	 0.234799
H	-2.8573767616	-3.7206762377	-0.5204614167	 0.107789
H	-6.0499884112	-0.9814329849	 0.0707166745	 0.197027
73.2387	86.2588	102.6097	186.251	225.5427	246.0062	325.3365	358.2981	455.3947	551.7194	594.1338	616.0431	656.32	745.6194	804.6471	822.8844	868.9075	899.808	924.514	968.8768	1007.9488	1052.5305	1070.4295	1120.8731	1146.8804	1198.4417	1232.1062	1249.6914	1283.3787	1303.5375	1329.2259	1383.2588	1408.3445	1412.6628	1460.4257	1476.6318	1493.1336	1499.9419	1509.6501	2239.275	3014.6362	3021.9895	3029.251	3054.9508	3081.2816	3096.2	3101.1059	3103.1913	3122.614	3502.4648	3504.3453
CCCC1NC1C#C	CCC[C@H]1N[C@H]1C#C	
InChI=1S/C7H11N/c1-3-5-7-6(4-2)8-7/h2,6-8H,3,5H2,1H3	InChI=1S/C7H11N/c1-3-5-7-6(4-2)8-7/h2,6-8H,3,5H2,1H3/t6-,7+/m0/s1
