13
gdb 48668	3.93189	1.23196	1.08377	0.6724	65.4	-0.2634	-0.0914	0.172	1060.46	0.087951	-456.564862	-456.557593	-456.556649	-456.596918	26.758	
O	-0.1737423818	 0.0400134347	 0.239749971	-0.247482
C	-0.0353085161	 1.2129760058	 0.0019676786	 0.086858
C	 1.2944550165	 1.8671133156	-0.1088196545	 0.280451
O	 1.3184647074	 3.283184815	 0.1986931089	-0.268405
C	 1.6090954222	 2.884441688	-1.1364075884	-0.167168
C	 3.1143679699	 2.7333139687	-1.4104177428	 0.409123
O	 3.7353710088	 3.3287454502	-2.2523539127	-0.300869
C	 3.6016647937	 1.6829415697	-0.4697141818	-0.206894
C	 2.5803367086	 1.1656733046	 0.22365185	-0.108777
H	-0.8897075041	 1.9057208163	-0.1458343312	 0.100348
H	 0.9310349964	 3.2241876701	-1.9137697472	 0.132699
H	 4.6473846263	 1.4154651245	-0.3953970692	 0.139429
H	 2.6223555422	 0.3692518268	 0.9549176192	 0.150688
86.4706	171.4252	182.3484	264.182	361.3097	414.2488	474.4829	494.198	615.5814	691.0849	731.5976	783.4106	829.4992	850.2535	883.4146	927.6985	984.0627	1030.1764	1055.1704	1105.6187	1157.2567	1241.5142	1276.7937	1341.0651	1378.5182	1424.47	1637.775	1816.9837	1836.3749	2926.0758	3170.2139	3221.1928	3241.6027
O=CC12OC1C(=O)C=C2	O=C[C@]12O[C@H]1C(=O)C=C2	
InChI=1S/C6H4O3/c7-3-6-2-1-4(8)5(6)9-6/h1-3,5H	InChI=1S/C6H4O3/c7-3-6-2-1-4(8)5(6)9-6/h1-3,5H/t5-,6-/m0/s1
