17
gdb 85309	2.46752	1.76972	1.33583	3.0758	67.18	-0.2397	-0.03	0.2097	978.624	0.137233	-458.964254	-458.956947	-458.956003	-458.996111	28.945	
O	 0.0371901148	 1.3683327385	-0.3637577789	-0.435553
C	 0.0610031437	-0.0073995108	-0.0350566819	 0.140932
C	 0.7048317265	-0.2599585551	 1.3560475558	-0.369954
C	-0.3176116963	-0.4531135494	 2.4810964502	 0.423864
O	-0.0617568208	-0.3268194249	 3.6518392487	-0.316922
C	-1.6996578255	-0.8298937215	 1.9528012948	-0.009171
C	-1.5807146248	-1.8248048446	 0.7784231807	-0.282682
C	-1.3786113129	-0.531963692	-0.0336291235	 0.05979
O	-2.0661708624	 0.2306267894	 1.0123520246	-0.309916
H	-0.6339699623	 1.7641750798	 0.2094953454	 0.289156
H	 0.6505990821	-0.4946321486	-0.8186653736	 0.090514
H	 1.3075294001	-1.1771532102	 1.334126989	 0.134532
H	 1.3878559653	 0.5538353049	 1.6097691772	 0.143784
H	-2.4309492908	-0.9759304087	 2.7485484395	 0.101766
H	-0.7802530161	-2.5670374854	 0.7966453347	 0.115662
H	-2.5350595098	-2.3047612838	 0.5583227852	 0.128243
H	-1.8596523006	-0.4146066674	-1.0070701179	 0.095956
81.0495	156.5286	286.6448	356.9251	418.6796	431.6759	442.7716	499.4757	516.1271	595.0719	690.698	741.791	816.2064	868.3567	895.1518	929.8692	945.9167	952.8955	980.2342	1015.7634	1064.2542	1099.3333	1111.5367	1182.2923	1212.0932	1216.4959	1251.8218	1268.5749	1286.6763	1304.1045	1314.3416	1341.1084	1362.3604	1432.4504	1447.3443	1491.8873	1835.5248	3034.9062	3060.8693	3078.5362	3096.2627	3113.437	3117.9319	3140.6722	3751.8188
OC1CC(=O)C2CC1O2	O[C@H]1CC(=O)[C@@H]2C[C@H]1O2	
InChI=1S/C6H8O3/c7-3-1-4(8)6-2-5(3)9-6/h3,5-7H,1-2H2	InChI=1S/C6H8O3/c7-3-1-4(8)6-2-5(3)9-6/h3,5-7H,1-2H2/t3-,5+,6-/m0/s1
