20
gdb 36039	3.00172	1.10258	0.9307	3.9554	83.02	-0.2635	0.0343	0.2978	1310.14	0.17083	-366.000296	-365.991277	-365.990333	-366.034835	33.953	
N	-0.0743018052	-1.2301090143	-0.0050599576	-0.317578
C	-0.0422579166	-0.0748795582	 0.0017617935	 0.265983
C	 0.0019668582	 1.3849857215	 0.0101115767	-0.436869
C	 1.4158306045	 1.9715439638	-0.0009189154	 0.350548
C	 2.5125136789	 1.2385239974	 0.7374749402	-0.305419
C	 2.4962665618	 1.2486673732	-0.7725111268	-0.305485
C	 1.4890151906	 3.477431045	 0.0085418723	-0.040842
C	 0.5258908006	 4.3760243648	-0.7289191049	-0.281378
C	 0.5443356885	 4.3654445574	 0.7818057858	-0.281377
H	-0.5621982664	 1.7367733409	-0.8620236641	 0.15476
H	-0.5441500923	 1.7261441077	 0.8978223636	 0.154717
H	 3.2549191941	 1.8382798567	 1.25254599	 0.113786
H	 2.2685638913	 0.3055941166	 1.2335645843	 0.135201
H	 2.241507355	 0.3224465635	-1.2756987265	 0.13517
H	 3.2275377455	 1.8553254099	-1.2953690314	 0.113794
H	 2.5198246343	 3.8222544014	-0.0016073932	 0.085459
H	 0.930263602	 5.2376475177	-1.2482990838	 0.116625
H	-0.3319163432	 3.9344884794	-1.2242066237	 0.113125
H	-0.3011596604	 3.9168148256	 1.291690463	 0.113141
H	 0.9614071488	 5.21978296	 1.303175028	 0.116639
36.5842	79.5492	137.844	218.172	235.6148	327.9943	330.5984	395.7234	409.1703	489.5309	529.6935	683.8177	780.7969	785.0562	821.9273	845.7965	848.3593	902.1732	944.4951	978.5889	984.071	1000.7919	1025.1902	1058.3647	1065.7985	1078.2357	1090.3851	1092.3574	1141.2298	1190.0193	1195.1235	1217.7141	1250.6298	1266.366	1309.8882	1360.0362	1425.3671	1468.2392	1471.2936	1472.895	1503.2303	1512.8936	2361.491	3033.7901	3068.8271	3131.6585	3134.6903	3135.9466	3138.2445	3141.0512	3210.3111	3214.9607	3225.2364	3227.8043
N#CCC1(CC1)C1CC1	N#CCC1(CC1)C1CC1	
InChI=1S/C8H11N/c9-6-5-8(3-4-8)7-1-2-7/h7H,1-5H2	InChI=1S/C8H11N/c9-6-5-8(3-4-8)7-1-2-7/h7H,1-5H2
