15
gdb 17508	5.0355	1.76238	1.61059	1.3148	71.27	-0.237	0.0276	0.2646	814.2327	0.119342	-325.422089	-325.415717	-325.414773	-325.452285	25.677	
C	 0.0135135189	-1.2357559435	-0.0286765551	-0.334585
C	 0.0220447086	-0.0323844179	-0.0186155962	 0.032941
C	 0.0411092825	 1.3985715927	 0.0067648033	 0.212817
C	-0.5263004079	 2.2513020242	-1.1733790645	-0.281054
C	 0.4242501556	 3.3449966183	-0.6986239257	-0.043425
C	 1.2975447005	 2.3825459066	 0.0076205939	-0.096961
N	 0.4968413997	 3.3433031644	 0.8072737708	-0.14942
C	-0.4116061284	 2.2335263794	 1.2298900409	-0.182968
H	 0.0035254554	-2.2974519774	-0.0398330588	 0.18313
H	-0.2111553494	 1.8516600312	-2.1395661168	 0.120063
H	-1.6054102649	 2.4356442343	-1.1747728234	 0.103398
H	 0.6850297209	 4.2748853136	-1.1852387445	 0.106387
H	 2.3665385181	 2.2378518561	 0.0876032171	 0.106272
H	-1.4747330254	 2.4890664863	 1.3044297455	 0.102391
H	-0.0514195041	 1.8281032016	 2.1774573536	 0.121014
157.0666	160.3889	410.7116	430.8057	492.7564	512.5176	554.3434	617.2695	645.5971	719.9977	746.906	800.3328	852.4706	904.0822	932.7116	964.4907	977.4894	996.0255	1018.7016	1076.9788	1099.0986	1143.7687	1149.3662	1163.7002	1204.974	1243.7652	1268.249	1312.703	1338.9666	1490.9632	1513.1058	2232.4294	3039.2181	3051.45	3117.1742	3120.3522	3203.7115	3218.1686	3502.2624
C#CC12CC3C1N3C2	C#C[C@]12C[C@@H]3[C@H]1N3C2	
InChI=1S/C7H7N/c1-2-7-3-5-6(7)8(5)4-7/h1,5-6H,3-4H2	InChI=1S/C7H7N/c1-2-7-3-5-6(7)8(5)4-7/h1,5-6H,3-4H2/t5-,6-,7-,8?/m1/s1
