18
gdb 107734	3.99541	1.16292	1.09506	2.1903	71.35	-0.2413	0.0611	0.3023	1140.0371	0.147523	-439.009958	-439.00188	-439.000935	-439.042591	31.621	
O	 0.1304496267	 1.2345650124	-0.3357305948	-0.418501
C	-0.004499945	-0.0508624791	 0.2485528088	-0.172038
C	-1.4288843298	-0.5116089811	 0.2434473183	 0.336078
C	-2.5962780881	-0.0532636626	 1.1182626132	-0.36204
C	-3.4069668786	-1.1779962348	 0.4214267392	 0.368652
O	-4.5392992454	-1.740543589	 0.9685986164	-0.469612
C	-3.4523744142	-0.7021517833	-1.0304199351	-0.181716
N	-1.9671606681	-0.8972669854	-1.1229761449	-0.19318
C	-2.0091752807	-1.8546115649	 0.0186373563	-0.212693
H	-0.2376763025	 1.1604748334	-1.2241233891	 0.29082
H	 0.6154357982	-0.7978206297	-0.2702341697	 0.096546
H	 0.3661625942	 0.0369978217	 1.2754545005	 0.10821
H	-2.3945864849	-0.2865773081	 2.1694880917	 0.096036
H	-2.967909792	 0.9723910141	 1.0265135809	 0.107757
H	-4.4095243675	-1.8525308532	 1.9162273367	 0.287011
H	-3.9399527843	-1.4177346806	-1.6968391129	 0.117813
H	-3.8130976522	 0.3129345775	-1.2329482391	 0.099389
H	-1.6009140358	-2.8572198572	-0.0072208963	 0.101468
67.5142	132.9151	258.6727	287.6453	309.5246	356.6212	420.7938	440.3841	468.3596	487.8735	634.2391	664.3008	712.0565	758.2012	864.1539	889.9825	921.125	959.8707	972.5995	983.5218	1000.0528	1067.3366	1080.1379	1102.6658	1106.4199	1128.5382	1149.7699	1179.2567	1201.4774	1267.5762	1284.0695	1336.8975	1366.0187	1400.439	1404.2388	1442.4762	1492.3106	1492.3967	1519.1728	2990.8157	3034.9088	3040.4072	3073.2486	3093.5888	3111.3475	3194.6558	3794.0111	3810.5113
OCC12CC3(O)CN1C23	OC[C@@]12C[C@@]3(O)CN1[C@@H]23	
InChI=1S/C6H9NO2/c8-3-5-1-6(9)2-7(5)4(5)6/h4,8-9H,1-3H2	InChI=1S/C6H9NO2/c8-3-5-1-6(9)2-7(5)4(5)6/h4,8-9H,1-3H2/t4-,5+,6+,7?/m0/s1
