24
gdb 7394	3.2894	1.14056	0.90671	0.8998	82.72	-0.2455	0.0845	0.33	1392.2559	0.220442	-351.415955	-351.40513	-351.404186	-351.452005	38.894	
C	-0.0029846575	 1.5258117069	 0.1099072926	-0.383727
C	 0.0880376749	 0.0144532589	-0.0273774651	-0.03734
O	 0.6573290395	-0.5056375478	 1.1560255644	-0.259878
C	 0.7572203526	-1.9266982791	 1.2152547903	 0.160819
C	 1.9896320697	-2.4079015925	 0.4422897747	-0.410307
C	 0.7766929536	-2.3057193293	 2.70821444	 0.037097
C	-0.4913113525	-1.807254441	 3.4149360371	-0.393559
C	 0.9576678344	-3.8148018641	 2.9235563177	-0.399844
H	 0.9912536347	 1.9574303833	 0.2565456027	 0.125405
H	-0.4433720291	 1.9654079023	-0.7902032588	 0.111969
H	-0.6228649959	 1.7969606629	 0.9693315901	 0.124644
H	-0.9134156431	-0.4195275795	-0.1883408904	 0.083694
H	 0.6948797628	-0.2460176938	-0.9093485246	 0.08533
H	-0.1475287885	-2.3673765912	 0.759217575	 0.056481
H	 2.0219191645	-3.4986778535	 0.3770857013	 0.116913
H	 1.9834314124	-2.0208873382	-0.5805948993	 0.114276
H	 2.9062174639	-2.0603114175	 0.9304085912	 0.119341
H	 1.6394442605	-1.7855018288	 3.1476619839	 0.077864
H	-1.3809441142	-2.3202527506	 3.0282486287	 0.102817
H	-0.4396128085	-2.0034538911	 4.4908052121	 0.104273
H	-0.6247842484	-0.7348758038	 3.2631858034	 0.127141
H	 0.1663778759	-4.3832100914	 2.4191884548	 0.110066
H	 1.9200411175	-4.1779324593	 2.5536915027	 0.114615
H	 0.9029063008	-4.055393872	 3.9900122757	 0.111909
50.7135	62.9496	95.9851	166.2569	205.1839	221.2365	239.9293	248.1247	291.9188	333.9132	359.7218	386.1772	446.9601	478.8771	532.6384	802.11	821.1647	856.7197	918.1528	930.7005	958.7396	966.2692	988.652	1054.5742	1107.2111	1127.4288	1146.9267	1163.4075	1187.3448	1191.3903	1218.032	1296.2415	1312.5452	1344.6473	1362.7949	1385.1683	1396.4404	1402.109	1406.3403	1418.9014	1436.952	1483.3606	1487.8954	1489.4292	1493.0862	1499.1905	1500.5321	1507.4938	1518.0808	1530.631	2939.3885	2959.0917	2986.4065	3010.6763	3024.7706	3030.7163	3041.0837	3043.5696	3086.6892	3094.0911	3109.4411	3111.0903	3117.6432	3120.1524	3121.0205	3135.6266
CCOC(C)C(C)C	CCO[C@@H](C)C(C)C	
InChI=1S/C7H16O/c1-5-8-7(4)6(2)3/h6-7H,5H2,1-4H3	InChI=1S/C7H16O/c1-5-8-7(4)6(2)3/h6-7H,5H2,1-4H3/t7-/m0/s1
