16
gdb 98754	2.97876	1.17563	1.0362	4.8339	67.53	-0.2638	-0.0573	0.2065	1179.2572	0.121797	-475.018445	-475.00936	-475.008416	-475.053096	31.618	
O	-0.0625063334	 1.3384222069	 0.1569319538	-0.418449
C	-0.063488827	-0.0491801362	 0.0038434215	-0.131894
C	-1.4821868805	-0.558408154	-0.2174518875	 0.391636
O	-2.4326962137	 0.1907097906	-0.1528635568	-0.363919
N	-1.5972892263	-1.8874425819	-0.5988154865	-0.086274
C	-1.0556849339	-3.0578745901	 0.0245937976	-0.246328
C	-2.5558935954	-2.8357152228	-0.0762319624	-0.106167
C	-3.2512476579	-2.507731285	 1.2157827134	 0.156394
O	-2.7263787801	-1.886444788	 2.1043165537	-0.251032
H	-0.9994416198	 1.5905551401	 0.1827261714	 0.297073
H	 0.565057665	-0.3536862183	-0.8456805433	 0.120508
H	 0.3404599988	-0.5550329783	 0.8974631711	 0.117447
H	-0.583850785	-3.7816335647	-0.6338746083	 0.140558
H	-0.6362674985	-2.9605114395	 1.0229691253	 0.157251
H	-3.1344132117	-3.3844836311	-0.8143483415	 0.119688
H	-4.2856050907	-2.8980361477	 1.3063242584	 0.103508
64.0575	85.4259	118.3921	132.3797	188.6402	269.5286	326.997	354.8378	408.5407	444.9763	562.5482	586.346	748.1297	787.9716	845.3184	898.9022	979.3485	1022.1008	1027.2774	1050.4037	1100.1937	1122.5315	1131.093	1159.5315	1170.1431	1247.9248	1310.1264	1348.3078	1415.4575	1424.0156	1465.2183	1495.0805	1498.9708	1781.5977	1823.0729	2925.8788	2966.6772	3014.917	3108.7776	3154.6511	3207.6679	3688.8921
OCC(=O)N1CC1C=O	OCC(=O)N1C[C@H]1C=O	
InChI=1S/C5H7NO3/c7-2-4-1-6(4)5(9)3-8/h2,4,8H,1,3H2	InChI=1S/C5H7NO3/c7-2-4-1-6(4)5(9)3-8/h2,4,8H,1,3H2/t4-,6?/m0/s1
