19
gdb 40242	2.83841	1.64795	1.25653	2.3716	75.29	-0.2456	0.0851	0.3307	1041.918	0.160456	-422.996999	-422.989536	-422.988592	-423.028741	30.118	
C	-0.0045936907	 1.4880053414	 0.0171200157	-0.32597
C	 1.3033737549	 0.7240435992	-0.0204294886	-0.332913
C	-0.0244775183	-0.0066269127	-0.0213816618	 0.433995
O	-0.4249654141	-0.6182683819	 1.172076247	-0.287805
C	-0.0417154978	-1.9858197856	 1.23144344	-0.093513
C	-0.8090883299	-2.8288431122	 0.2053317773	-0.237156
C	-0.8172904398	-2.1553638402	-1.1573236364	 0.03018
O	-1.8057282156	-1.1340918315	-1.3438197943	-0.253182
C	-0.4369930002	-0.7355367122	-1.2604875865	-0.024925
H	-0.2900360101	 1.9408843756	 0.9594268958	 0.130097
H	-0.3199412839	 2.030703306	-0.8669985841	 0.119793
H	 1.8939739673	 0.7463426788	-0.9304097416	 0.112482
H	 1.8770198919	 0.6758633293	 0.8978396045	 0.122163
H	 1.042213644	-2.0762553313	 1.0584099496	 0.091069
H	-0.25160729	-2.3176017063	 2.2516823936	 0.108025
H	-0.3503575103	-3.8212050856	 0.1321076916	 0.099666
H	-1.845797116	-2.968271432	 0.5293808565	 0.125567
H	-0.681576575	-2.7987759505	-2.0263264237	 0.092132
H	-0.0118319163	-0.3540265484	-2.1892990247	 0.090294
100.631	202.7261	238.8325	296.1458	358.2747	384.0566	445.3706	493.1843	559.8764	649.6652	766.7416	772.7159	798.9648	844.2724	885.1316	900.7906	933.2557	945.4165	966.3862	1002.59	1009.1464	1051.2626	1061.2656	1077.7651	1102.3062	1121.7983	1147.1413	1189.6461	1247.4299	1273.6582	1282.6858	1294.0297	1317.4997	1366.4934	1386.4544	1419.197	1451.6027	1463.3481	1471.1607	1492.2872	1507.9274	2983.018	3042.3317	3084.5558	3095.4844	3102.4203	3114.8596	3133.0204	3141.0668	3220.761	3235.5204
C1CC11OCCC2OC12	C1CC21OCC[C@H]1O[C@@H]21	
InChI=1S/C7H10O2/c1-4-8-7(2-3-7)6-5(1)9-6/h5-6H,1-4H2	InChI=1S/C7H10O2/c1-4-8-7(2-3-7)6-5(1)9-6/h5-6H,1-4H2/t5-,6-/m1/s1
