19
gdb 60703	3.41966	0.67736	0.60123	2.8805	88.8	-0.2352	-0.025	0.2102	1871.9496	0.156769	-385.862321	-385.852217	-385.851273	-385.899661	35.133	
C	 0.1310279286	 1.5762157277	-0.1254288617	-0.397151
C	-0.0654639282	 0.0552405759	 0.0802247923	-0.211769
C	 0.5162088964	-0.6851981753	-1.1277349999	 0.174138
O	-0.1416805645	-1.2384525151	-1.9665645405	-0.244787
C	 0.5884284942	-0.4210560472	 1.2945504744	 0.055617
C	 1.1707968788	-0.8343269931	 2.2672441398	 0.068244
C	 1.848473978	-1.3167834404	 3.4347755922	-0.157134
C	 1.16420688	-2.3100803147	 4.3623479988	-0.250933
C	 2.3094330835	-2.7653259815	 3.5095141034	-0.251753
H	 1.1922919598	 1.8187127929	-0.2351565217	 0.131044
H	-0.401014122	 1.9100145628	-1.0206999282	 0.131354
H	-0.2529795228	 2.1228562811	 0.7389305924	 0.137512
H	-1.1373746763	-0.1718284708	 0.1019964739	 0.120618
H	 1.6283324883	-0.6565122811	-1.1738629195	 0.084332
H	 2.4973569039	-0.5923942901	 3.9186118829	 0.11114
H	 1.3259581459	-2.1836866949	 5.4268096633	 0.120466
H	 0.1659582541	-2.6299763563	 4.0891023884	 0.129236
H	 2.0907815307	-3.3951670096	 2.6556809847	 0.129398
H	 3.2666725816	-2.9549861602	 3.9816240049	 0.120427
21.7364	46.0318	94.0559	102.9168	182.1541	203.0844	226.7219	311.4478	409.0056	430.083	503.5023	517.7396	543.6721	712.9364	794.5352	823.3216	869.2351	895.2952	901.7058	938.1575	1023.1167	1062.8276	1081.1969	1083.5604	1088.7329	1117.9775	1135.5565	1188.8155	1201.2618	1229.2858	1271.8175	1323.2591	1391.9732	1398.4995	1416.526	1467.5102	1491.8786	1497.3487	1498.158	1837.9544	2352.4389	2880.6331	3043.7861	3049.0537	3120.3264	3129.7618	3142.1264	3143.4054	3148.2719	3227.0557	3242.0251
CC(C=O)C#CC1CC1	C[C@@H](C=O)C#CC1CC1	
InChI=1S/C8H10O/c1-7(6-9)2-3-8-4-5-8/h6-8H,4-5H2,1H3	InChI=1S/C8H10O/c1-7(6-9)2-3-8-4-5-8/h6-8H,4-5H2,1H3/t7-/m1/s1
