19
gdb 72473	2.63778	1.8891	1.50662	1.3158	75.34	-0.2415	0.0139	0.2554	958.379	0.160931	-423.047036	-423.039646	-423.038702	-423.078344	30.114	
C	-0.0579555414	 1.484670806	 0.0303501242	-0.476298
C	 0.0597758951	-0.0263092562	-0.0170876872	 0.301689
C	 0.708485127	-0.6000863359	-1.2972785738	-0.094165
O	 0.1157948573	-1.8921324773	-1.4075603454	-0.281413
C	-0.9703682431	-1.9361959554	-0.4786800337	 0.184685
C	-0.5480696919	-2.7078161333	 0.7792836621	-0.279215
C	 0.4192466776	-1.8718533674	 1.5795318603	-0.071709
C	 0.7187166471	-0.6274618996	 1.2117642589	-0.081114
O	-1.2577716937	-0.5979454302	-0.1538979488	-0.279599
H	 0.9356621313	 1.9435754035	 0.0491209873	 0.120726
H	-0.59808494	 1.8520221961	-0.8459415868	 0.12871
H	-0.5965013718	 1.7984802622	 0.9287038733	 0.133787
H	 0.4577887628	 0.014062683	-2.1734393181	 0.092995
H	 1.7951834387	-0.7033657832	-1.2233068194	 0.106206
H	-1.8461224415	-2.3736089449	-0.9680840366	 0.085048
H	-1.4306541485	-2.9663852338	 1.3806855807	 0.109435
H	-0.0861027971	-3.6539649701	 0.4734852661	 0.119365
H	 0.8622099945	-2.3143541176	 2.4677144317	 0.094452
H	 1.4319061178	-0.0198569558	 1.7609587551	 0.086415
163.8381	209.781	254.2283	281.3693	330.9087	376.9205	462.0233	505.8873	552.4496	615.48	708.4252	718.5052	820.2747	843.0112	878.6511	896.657	922.0509	932.5585	982.7323	987.0442	1008.4079	1017.4086	1039.0987	1120.0967	1153.7706	1181.5573	1188.5965	1203.7692	1244.2577	1264.5079	1328.658	1345.4306	1373.0724	1381.6383	1409.3848	1420.0115	1461.9409	1482.6876	1496.3819	1516.2263	1709.6123	3003.8693	3015.5102	3044.2654	3060.926	3066.8522	3081.7535	3116.1798	3127.0655	3155.2996	3179.3252
CC12COC(CC=C1)O2	C[C@@]12CO[C@@H](CC=C1)O2	
InChI=1S/C7H10O2/c1-7-4-2-3-6(9-7)8-5-7/h2,4,6H,3,5H2,1H3	InChI=1S/C7H10O2/c1-7-4-2-3-6(9-7)8-5-7/h2,4,6H,3,5H2,1H3/t6-,7+/m1/s1
