17
gdb 52000	4.82129	0.5713	0.5391	1.2903	72.72	-0.2578	-0.0475	0.2103	1946.4477	0.13098	-458.997034	-458.986849	-458.985905	-459.035281	33.467	
O	-0.7374211095	 0.4450880819	 0.0416642249	-0.23263
C	-0.2085310338	 1.5249653303	 0.0740367407	 0.155678
C	 1.2646427338	 1.7779953874	-0.1476776878	-0.269329
C	 1.502392031	 2.7948203429	-1.2686356195	-0.325781
C	 2.9231664824	 3.3370432083	-1.2960328103	 0.370169
O	 3.7330625873	 3.0943912469	-0.4322638437	-0.297677
C	 3.2821649195	 4.2506020032	-2.4672171196	-0.377629
C	 3.8818088419	 5.5619309904	-1.9727033426	 0.163202
O	 3.5779864717	 6.6385684199	-2.4102518666	-0.227767
H	-0.8026076002	 2.4477432007	 0.2809383727	 0.071809
H	 1.6890962648	 2.1826111147	 0.7805240231	 0.144809
H	 1.7642936608	 0.8288882388	-0.3543271534	 0.134354
H	 1.2695497727	 2.3696797669	-2.2533221758	 0.142244
H	 0.8325510774	 3.6631323837	-1.1675072882	 0.139794
H	 4.067469308	 3.73549999	-3.0377045068	 0.16378
H	 2.4434337746	 4.4575680719	-3.1346233873	 0.13184
H	 4.6299148177	 5.4370727321	-1.1635827699	 0.113134
20.9043	49.6369	57.3981	98.5979	104.0939	155.4579	238.802	293.7877	360.383	464.554	505.473	517.646	643.2826	766.3161	777.9193	847.561	868.6587	968.2709	1021.0412	1021.832	1079.4001	1097.7403	1106.7361	1173.8432	1207.1802	1251.5283	1292.775	1307.5214	1375.0357	1407.7381	1429.3043	1440.9182	1446.8526	1464.9482	1798.8999	1838.9898	1842.9309	2842.5653	2935.3655	3004.6564	3031.8847	3038.5913	3054.3958	3118.1193	3124.1682
O=CCCC(=O)CC=O	O=CCCC(=O)CC=O	
InChI=1S/C6H8O3/c7-4-1-2-6(9)3-5-8/h4-5H,1-3H2	InChI=1S/C6H8O3/c7-4-1-2-6(9)3-5-8/h4-5H,1-3H2
