19
gdb 75620	2.01739	1.78501	1.10974	2.3327	76.12	-0.2435	-0.0257	0.2178	1132.8304	0.157014	-423.016475	-423.007076	-423.006131	-423.050665	34.556	
C	-0.7894427795	 1.1717934253	-0.0527501013	-0.40826
C	-0.0099062695	-0.1335524356	-0.0897101337	-0.176141
C	 1.3691425176	-0.1142920263	-0.7757802266	 0.32565
O	 1.8825300664	 0.624516077	-1.5698592815	-0.308374
C	 1.9810438806	-1.063017629	 0.2667391842	-0.008645
O	 3.2947885635	-0.8397871744	 0.6814309932	-0.426908
C	 0.7718368468	-0.6422937738	 1.1459558867	 0.284001
C	 0.934855559	 0.0741949614	 2.4519977967	-0.309399
C	 0.287034443	-1.2941479805	 2.3993124753	-0.338836
H	-0.1687449534	 1.9894436022	 0.3245419432	 0.126992
H	-1.1242651535	 1.4440695794	-1.0578151585	 0.134753
H	-1.6743536607	 1.0876888149	 0.5863922855	 0.119914
H	-0.6256916768	-0.942494919	-0.5044980963	 0.102415
H	 1.8867149258	-2.115416813	-0.0314371032	 0.110101
H	 3.5441741061	 0.0469342114	 0.3943059243	 0.295036
H	 1.9421629933	 0.1423715793	 2.8497566142	 0.126132
H	 0.3020918196	 0.930222435	 2.6614698421	 0.116092
H	-0.7844397781	-1.3541128047	 2.5642921926	 0.114369
H	 0.8474832199	-2.1409739096	 2.7832483831	 0.121106
66.202	128.2308	169.8478	189.9776	208.3706	212.4208	225.4044	283.0545	411.6148	474.4362	526.7726	587.1723	623.1685	750.9767	789.5829	828.8155	832.3299	916.5873	947.2899	956.4356	979.0192	1042.9366	1052.5934	1080.7952	1089.0997	1120.5443	1132.9423	1175.5454	1190.446	1229.3922	1246.9099	1311.9194	1348.0401	1379.2769	1406.994	1415.9906	1460.9985	1492.1843	1493.8623	1503.3051	1869.5622	3020.3998	3028.9749	3039.2673	3107.8812	3117.4733	3120.3239	3129.1729	3200.9296	3219.0168	3786.586
CC1C(=O)C(O)C11CC1	C[C@H]1C(=O)[C@@H](O)C21CC2	
InChI=1S/C7H10O2/c1-4-5(8)6(9)7(4)2-3-7/h4,6,9H,2-3H2,1H3	InChI=1S/C7H10O2/c1-4-5(8)6(9)7(4)2-3-7/h4,6,9H,2-3H2,1H3/t4-,6+/m0/s1
