21
gdb 57192	2.29019	1.38158	1.0823	5.4786	74.6	-0.2408	0.0234	0.2642	1204.8609	0.181983	-457.584231	-457.574244	-457.5733	-457.618297	38.385	
C	 0.1100595961	 1.5619003002	 0.0106911232	-0.422261
C	-0.0264051204	 0.0331163471	 0.0262105737	 0.249515
C	 0.4497608387	-0.5309091961	 1.3690842101	-0.417765
N	-1.4419555504	-0.3832346109	-0.186560246	-0.551735
H	-1.8718764053	 0.1875110087	-0.9106440975	 0.238122
H	-1.0626602681	-1.9596510307	-0.7228747601	 0.317896
H	-1.9827521474	-0.237297714	 0.6608821038	 0.242741
C	 0.8038186022	-0.5756195551	-1.1524643642	-0.142097
N	 2.1934922189	-0.142862425	-1.1018985287	-0.520353
C	 0.7621603385	-2.1252057572	-1.1963333482	 0.42245
O	-0.4278161141	-2.6836287042	-0.9988549365	-0.377498
O	 1.7520878546	-2.7756978953	-1.4293369444	-0.346979
H	 1.1521836373	 1.8562857017	 0.1527071294	 0.14489
H	-0.2357424207	 1.9781887679	-0.9438222676	 0.100815
H	-0.4898769445	 2.0086129556	 0.8108708224	 0.108353
H	-0.0445952815	-0.0220153545	 2.2039597699	 0.105485
H	 0.2394919953	-1.6014778206	 1.4474658952	 0.134013
H	 1.5272173761	-0.3794221972	 1.4612350799	 0.152668
H	 0.3004182231	-0.2515514118	-2.0808210524	 0.080542
H	 2.7679616816	-0.9552910621	-1.316006684	 0.251502
H	 2.3832385198	 0.5617879934	-1.8033412382	 0.229697
91.8526	112.4147	221.3468	229.9105	266.1659	268.1769	296.0236	311.2024	340.4724	362.2562	381.842	424.3605	444.9213	508.8743	565.0567	585.3939	723.8137	795.4772	855.7787	894.2373	925.8867	944.3573	954.9674	984.1902	1031.3449	1037.0503	1086.1414	1142.8098	1195.8079	1217.4097	1218.8645	1269.5064	1313.6143	1363.4135	1391.4298	1395.563	1416.379	1480.2485	1496.0326	1505.1072	1515.7803	1526.9695	1640.8048	1650.1029	1840.8611	2938.699	3021.1844	3037.6249	3077.9513	3086.0691	3105.5153	3129.3066	3138.4928	3482.1962	3485.925	3564.1097	3589.9471
CC(C)([NH3+])C(N)C([O-])=O	CC(C)(N)[C@@H](N)C(=O)O	
InChI=1S/C5H12N2O2/c1-5(2,7)3(6)4(8)9/h3H,6-7H2,1-2H3,(H,8,9)	InChI=1S/C5H12N2O2/c1-5(2,7)3(6)4(8)9/h3H,6-7H2,1-2H3,(H,8,9)/t3-/m0/s1
