20
gdb 88615	3.53764	1.23333	1.13666	1.9293	80.09	-0.2299	0.0843	0.3143	1162.3571	0.171786	-403.042165	-403.034254	-403.03331	-403.074908	30.93	
C	 0.1565320454	 1.490026599	-0.2408420013	-0.436137
C	-0.1102422472	 0.0507404028	 0.1157376958	 0.077065
O	 0.9712372644	-0.8845373278	-0.0315546976	-0.2542
C	 0.4684762271	-0.6410692015	 1.2830406863	 0.00889
C	 1.3051540099	 0.0103551021	 2.355584119	 0.024127
C	 2.5484463219	-0.6581218345	 3.0023938312	-0.082027
C	 3.2894299704	-0.2527523196	 1.7092115466	-0.180933
N	 2.4366008363	 1.0051276183	 2.0045204921	-0.15356
C	 2.881270263	 0.7764741497	 3.4617992568	-0.16719
H	 1.0921474542	 1.8386271391	 0.1995666524	 0.167486
H	 0.2031356743	 1.6037899049	-1.329275898	 0.121994
H	-0.6622802228	 2.1208588755	 0.1233333002	 0.115185
H	-1.0584751933	-0.3458958144	-0.2540495778	 0.085862
H	-0.1089718465	-1.4777963624	 1.6890924929	 0.088721
H	 0.6031862913	 0.4496410064	 3.0773878196	 0.07765
H	 2.6056151035	-1.5938552127	 3.5699164729	 0.064617
H	 4.3627521009	-0.0591333566	 1.7890308027	 0.096208
H	 3.0327587057	-0.7417704868	 0.7736762217	 0.144652
H	 2.2309482476	 1.2548079013	 4.2000067887	 0.098849
H	 3.9316065938	 1.0270077772	 3.6301635959	 0.102741
55.834	158.0067	202.0916	237.5379	274.2936	370.5379	412.3129	493.7352	602.9001	673.5365	762.1495	775.3551	789.308	849.3104	870.6969	879.8426	902.7247	923.7958	974.9434	1020.6678	1028.6521	1067.0362	1083.3202	1100.4055	1103.6457	1139.1238	1162.9382	1178.9	1183.0205	1192.8591	1203.1	1231.5451	1250.7119	1283.2259	1305.5101	1389.3946	1417.1133	1422.217	1466.9279	1500.1257	1507.4434	1515.6667	1554.7954	3014.0205	3033.5412	3035.3631	3052.1737	3056.7367	3070.1622	3083.125	3093.8635	3118.7485	3144.2139	3186.3177
CC1OC1C1C2CN1C2	C[C@H]1O[C@H]1[C@H]1[C@H]2CN1C2	
InChI=1S/C7H11NO/c1-4-7(9-4)6-5-2-8(6)3-5/h4-7H,2-3H2,1H3	InChI=1S/C7H11NO/c1-4-7(9-4)6-5-2-8(6)3-5/h4-7H,2-3H2,1H3/t4-,6-,7-/m1/s1
