18
gdb 111047	2.19029	1.69078	1.14061	2.6451	73.12	-0.2464	-0.0553	0.1911	1090.1672	0.148174	-439.011594	-439.003526	-439.002582	-439.044303	30.8	
O	 0.5049989148	 0.3162733614	 0.9429470693	-0.426174
C	-0.0459596173	 0.249470983	-0.3573955392	-0.118109
C	-1.4168334069	-0.4141726689	-0.3273815572	-0.027948
C	-2.1704435045	-1.0074135623	-1.5617175022	-0.059355
C	-1.1592634912	-2.1784425222	-1.6195835339	-0.242207
C	-1.5708014834	-1.9551532449	-0.1249834977	 0.232235
N	-3.000036079	-1.8986067512	-0.6379519558	-0.356575
C	-1.1328063361	-2.7860745936	 1.0301476566	 0.026623
O	-0.2042587073	-2.4822157529	 1.7456548853	-0.251331
H	 0.4978280753	-0.5819612869	 1.3075520298	 0.294767
H	-0.1504838332	 1.284029147	-0.7045942372	 0.108012
H	 0.6351167526	-0.2527984019	-1.0611197915	 0.085402
H	-2.0733486015	 0.1526160862	 0.3437937413	 0.080124
H	-2.6323574915	-0.4780058797	-2.3955360798	 0.093824
H	-1.5411153381	-3.0984336822	-2.0609986477	 0.12085
H	-0.1282666933	-1.9652494061	-1.8932281306	 0.117777
H	-3.5472685096	-1.2994694627	-0.0094968214	 0.211299
H	-1.69673909	-3.7288076321	 1.187723462	 0.110786
112.2895	123.3391	164.1325	232.8489	274.2214	329.7784	415.5859	459.733	561.8354	574.8357	605.8264	707.9535	773.4528	809.8891	866.5971	903.638	937.8445	988.6746	1012.2869	1038.6483	1064.8408	1089.3353	1093.5934	1127.5389	1148.2995	1172.8233	1198.4194	1218.3396	1237.1132	1265.2213	1297.5274	1307.1276	1358.6212	1402.39	1426.2267	1459.6368	1490.7519	1518.5998	1792.3802	2924.3197	2984.9234	3040.6128	3059.6656	3101.3097	3115.0351	3183.4321	3369.2922	3700.2034
OCC1C2CC1(N2)C=O	OC[C@H]1[C@H]2C[C@@]1(N2)C=O	
InChI=1S/C6H9NO2/c8-2-4-5-1-6(4,3-9)7-5/h3-5,7-8H,1-2H2	InChI=1S/C6H9NO2/c8-2-4-5-1-6(4,3-9)7-5/h3-5,7-8H,1-2H2/t4-,5+,6+/m0/s1
