21
gdb 94699	3.06503	1.45907	1.32585	1.2456	77.89	-0.232	0.0891	0.3211	1081.1568	0.182782	-424.222594	-424.214224	-424.21328	-424.254899	33.362	
C	-0.1916724356	 1.5587268397	 0.0873330037	-0.402959
C	 0.0464632485	 0.0527451695	 0.0063666484	 0.138811
O	 0.7807055205	-0.3020563971	-1.1759046652	-0.291726
C	 2.1935046996	-0.4035329084	-1.0222997404	-0.098635
C	 2.5658921586	-0.8903906945	 0.3784288192	 0.378616
C	 4.0276951668	-1.2133632649	 0.5666351072	-0.477242
C	 1.4560167834	-1.8358701448	 0.8984930368	-0.294758
C	 0.7789140213	-0.4951927785	 1.2323941207	 0.069985
O	 2.0831115733	 0.1492419962	 1.2972711912	-0.331937
H	 0.749001412	 2.0832860744	 0.2708006575	 0.134512
H	-0.6268262394	 1.9196427033	-0.8479707421	 0.120659
H	-0.8823187977	 1.7962480481	 0.9042009337	 0.108107
H	-0.9147337957	-0.4691846016	-0.094478844	 0.079614
H	 2.5321980582	-1.1050316856	-1.793733402	 0.101409
H	 2.6852099779	 0.5663028024	-1.1927168108	 0.097702
H	 4.6551543354	-0.364146338	 0.275387632	 0.127673
H	 4.2300591381	-1.4435885847	 1.6159295128	 0.127596
H	 4.3140543402	-2.0762293693	-0.043507595	 0.122248
H	 0.9660780028	-2.5016065374	 0.1861839128	 0.110667
H	 1.7706221967	-2.3756075484	 1.7931013391	 0.103422
H	 0.2073483351	-0.3800361004	 2.1574035244	 0.076237
132.6828	190.239	200.7787	231.8012	278.3954	308.1049	388.7499	400.228	447.2195	458.8612	553.783	653.3855	711.5151	776.3266	836.4148	868.3875	905.5832	911.3963	921.2979	974.8448	992.3601	1012.2562	1034.9518	1062.7717	1078.2586	1127.4685	1155.7113	1168.9726	1229.7309	1249.6625	1258.9406	1275.7793	1298.7217	1333.5835	1357.4105	1372.9874	1398.1368	1406.7336	1412.5577	1479.551	1483.0177	1485.9442	1493.9248	1495.8584	1504.8671	2990.1212	3018.2425	3036.4471	3040.4332	3058.371	3072.0959	3081.9533	3105.455	3110.9808	3119.9778	3135.3287	3142.4376
CC1OCC2(C)CC1O2	C[C@H]1OC[C@]2(C)C[C@H]1O2	
InChI=1S/C7H12O2/c1-5-6-3-7(2,9-6)4-8-5/h5-6H,3-4H2,1-2H3	InChI=1S/C7H12O2/c1-5-6-3-7(2,9-6)4-8-5/h5-6H,3-4H2,1-2H3/t5-,6-,7+/m1/s1
