12
gdb 25303	4.59358	1.05803	0.85996	4.9417	62.81	-0.2493	-0.1042	0.1452	1205.0918	0.077112	-472.658863	-472.651372	-472.650428	-472.692141	25.597	
O	-0.0716378646	 0.0170447691	 0.0026631179	-0.212014
C	-0.0289922662	 1.2168180165	 0.0081847441	 0.07935
C	 1.3278719805	 1.9634237683	-0.0021142665	 0.188063
O	 2.3707227059	 1.3489819788	-0.0165009969	-0.284023
C	 1.2799640897	 3.4342728125	 0.0064548099	 0.158776
C	 2.3385509086	 4.2941896421	-0.0001110751	-0.059811
O	 1.8554556534	 5.5567762304	 0.0120647985	-0.12742
C	 0.5019343144	 5.4082328708	 0.0256562168	 0.074438
N	 0.1013422003	 4.1846230802	 0.0231398236	-0.30095
H	-0.934485615	 1.8521229548	 0.0205697017	 0.123679
H	 3.4069925423	 4.1681926765	-0.0122113513	 0.188938
H	-0.0829654595	 6.3140955899	 0.0369044473	 0.170975
56.546	81.7703	154.1253	203.9298	292.9321	390.9388	491.513	551.8875	646.8224	703.24	834.4924	835.0256	866.4025	916.1588	929.0626	1017.3804	1046.1305	1089.5186	1140.9498	1239.5311	1297.3041	1347.582	1404.7314	1560.4322	1582.2949	1778.524	1833.2333	2965.3331	3284.2155	3306.1197
O=CC(=O)C1=COC=N1	O=CC(=O)c1cocn1	
InChI=1S/C5H3NO3/c7-1-5(8)4-2-9-3-6-4/h1-3H	InChI=1S/C5H3NO3/c7-1-5(8)4-2-9-3-6-4/h1-3H
