21
gdb 91821	3.28426	1.22661	1.03458	1.643	84.33	-0.2258	0.0111	0.2369	1233.1049	0.183096	-387.09179	-387.083216	-387.082271	-387.124513	34.41	
C	 0.1414924892	 1.6013572892	 0.0044891344	-0.399427
C	-0.0192778397	 0.0757132885	-0.0080024574	-0.025654
C	 0.5939796674	-0.5401894883	-1.2835187396	-0.225718
C	 0.6794151068	-2.0643587565	-1.2360800452	-0.124262
C	 2.0076891334	-2.7467229853	-0.9484546373	-0.324514
C	 0.9374075933	-2.7157992259	 0.1019067615	 0.409315
O	 0.3674836635	-3.9747813425	 0.3684463725	-0.469289
C	 1.0280069329	-1.8099663082	 1.2764583484	-0.190139
C	 0.5750338419	-0.5561675552	 1.2357806167	-0.035193
H	 1.2006143916	 1.8825029102	 0.0238896543	 0.117359
H	-0.3080679918	 2.0512572592	-0.8868414125	 0.111678
H	-0.3380644904	 2.0452489545	 0.8832958607	 0.111576
H	-1.0996189935	-0.1418322191	-0.0072756976	 0.081371
H	 0.0133318682	-0.2241744219	-2.1575897413	 0.095825
H	 1.5976290914	-0.1159015926	-1.4155297148	 0.098178
H	 0.0101575144	-2.6122211677	-1.8916229264	 0.086725
H	 2.1909767487	-3.708978023	-1.4138811866	 0.118547
H	 2.883342329	-2.1208836534	-0.8109575054	 0.111134
H	-0.5257125705	-3.8219648014	 0.6972688707	 0.276322
H	 1.441674323	-2.2327912059	 2.1891444014	 0.090766
H	 0.6231153611	 0.0652059754	 2.1280878136	 0.085398
83.465	172.042	238.7484	254.7292	291.867	337.9849	391.9226	393.7209	399.1922	476.0048	516.1338	576.6215	663.0306	728.6556	770.9576	833.5214	859.4935	898.5107	931.636	940.2656	948.6533	986.8351	1003.1484	1046.1515	1063.5924	1082.3473	1107.9577	1126.2514	1155.4449	1199.0607	1223.709	1261.6194	1277.4295	1310.6053	1324.8539	1346.3544	1363.2845	1405.0591	1412.4355	1428.6318	1475.3834	1488.6137	1498.4085	1500.7098	1704.7451	2968.1397	3018.7023	3027.6346	3061.5753	3095.8173	3099.4476	3128.3182	3136.4729	3159.1376	3161.672	3222.6546	3790.6435
CC1CC2CC2(O)C=C1	C[C@H]1C[C@H]2C[C@@]2(O)C=C1	
InChI=1S/C8H12O/c1-6-2-3-8(9)5-7(8)4-6/h2-3,6-7,9H,4-5H2,1H3	InChI=1S/C8H12O/c1-6-2-3-8(9)5-7(8)4-6/h2-3,6-7,9H,4-5H2,1H3/t6-,7+,8+/m1/s1
