19
gdb 112985	3.56912	1.01408	0.84075	5.0072	81.3	-0.2463	-0.02	0.2263	1400.6339	0.159059	-419.234957	-419.225552	-419.224608	-419.269818	33.309	
C	-0.1021195831	 1.5642568811	 0.0253737438	-0.385332
C	 0.0750238075	 0.0431952003	 0.0854009093	-0.196345
C	 0.7046493715	-0.5189583675	-1.1888708336	-0.137979
C	 0.7651213477	-2.0658315645	-1.3542743466	-0.211004
N	-0.087013546	-1.9272164187	-2.5466013984	-0.097232
C	-0.5762308117	-2.8999566651	-3.4001211335	 0.070175
N	-1.3131494919	-2.6351365955	-4.3985675459	-0.411911
C	-0.1976829072	-0.5286524402	-2.4429557712	 0.438661
O	-0.7903308259	 0.2883598583	-3.0839997493	-0.331842
H	 0.8658665376	 2.0691506019	-0.065958085	 0.115056
H	-0.7098411293	 1.8497823069	-0.8373341695	 0.154183
H	-0.5890527952	 1.9368307774	 0.9312703728	 0.113842
H	 0.7029254398	-0.2310119444	 0.9424137101	 0.1017
H	-0.8977459736	-0.4389422761	 0.2469235615	 0.105938
H	 1.6648588847	-0.0339302893	-1.3916756516	 0.106339
H	 1.7544939034	-2.482253297	-1.564971808	 0.120196
H	 0.2912983952	-2.6285447812	-0.5434534023	 0.119676
H	-0.240527782	-3.8998106096	-3.0936010832	 0.095576
H	-1.5571159716	-3.4944194567	-4.8882556994	 0.230303
56.689	102.4679	132.3817	153.6983	185.8396	197.9001	254.6871	315.0677	357.8293	475.5478	538.1747	668.0406	737.6567	778.1544	816.0474	831.1398	857.9859	969.2983	991.5892	1008.3187	1062.5777	1089.1164	1105.2214	1108.3874	1152.7319	1183.486	1215.0344	1247.0554	1276.9052	1290.0788	1342.0523	1372.4574	1400.2767	1414.9546	1428.1666	1489.5923	1499.3986	1511.4452	1521.1684	1717.2092	1889.4413	3019.1779	3026.3318	3038.1702	3043.3156	3049.9374	3069.4382	3094.841	3104.6006	3126.538	3501.3098
CCC1CN(C=N)C1=O	CC[C@H]1CN([CH][NH])C1=O	
InChI=1S/C6H10N2O/c1-2-5-3-8(4-7)6(5)9/h4-5,7H,2-3H2,1H3	InChI=1S/C6H10N2O/c1-2-5-3-8(4-7)6(5)9/h4-5,7H,2-3H2,1H3/t5-/m0/s1
