14
gdb 27591	3.36824	1.28639	0.93138	6.1832	80.58	-0.2341	-0.0564	0.1776	1165.585	0.103875	-395.812654	-395.805308	-395.804364	-395.844406	28.184	
N	-0.0413251036	 1.3659162856	 0.1554042936	-0.571218
C	 0.0173211722	-0.0035860813	 0.0591568006	 0.389262
N	-1.1530328588	-0.6460529559	 0.0455081068	-0.383297
C	-1.128473977	-1.9854226102	 0.0076182125	 0.222346
C	 0.0338747553	-2.7507659672	-0.0276980531	-0.189737
C	 1.2492965286	-2.0634209837	-0.0210862443	-0.062634
C	 1.2541762812	-0.6835684286	 0.0243907255	-0.176083
C	-2.4097580339	-2.6462784194	-0.0027767652	 0.236358
N	-3.4217885997	-3.2063500303	-0.0133335125	-0.330787
H	 0.749094263	 1.8970071728	-0.171433538	 0.257295
H	-0.9454266018	 1.7655605947	-0.0448957764	 0.265069
H	-0.0169592226	-3.8307680955	-0.0622654826	 0.123408
H	 2.1853211185	-2.610688987	-0.0499590812	 0.11798
H	 2.1838817985	-0.125310304	 0.0386767643	 0.102039
140.4988	153.9031	206.1889	376.7384	399.7534	403.4253	465.2933	480.821	512.3002	568.6424	591.7008	699.753	725.6113	756.6147	828.5425	895.0684	958.1643	995.7485	996.0015	1084.9353	1124.6123	1188.1095	1240.8258	1336.7387	1368.7914	1469.4312	1493.7089	1607.9345	1623.264	1652.0347	2351.2475	3181.1713	3197.5315	3224.6482	3588.6501	3707.5832
NC1=NC(=CC=C1)C#N	Nc1nc(ccc1)C#N	
InChI=1S/C6H5N3/c7-4-5-2-1-3-6(8)9-5/h1-3H,(H2,8,9)	InChI=1S/C6H5N3/c7-4-5-2-1-3-6(8)9-5/h1-3H,(H2,8,9)
