14
gdb 50606	2.44161	1.47939	1.04141	2.8375	71.03	-0.2542	-0.0699	0.1844	1101.3277	0.100067	-436.701756	-436.693708	-436.692764	-436.7353	28.071	
O	 0.3184507814	-0.1335877675	-0.1044315472	-0.224139
C	 0.0979817287	 1.0402612048	 0.0004491426	 0.143893
C	 1.2011421649	 2.1039663737	 0.1158699553	-0.084771
O	 2.4725344542	 1.5344342832	 0.3113743916	-0.243778
C	 3.2372852459	 1.6031933407	-0.8890140286	-0.113703
C	 2.4875022927	 2.5553268029	-1.7715311576	-0.195485
C	 1.3222984054	 2.8720523776	-1.1998063765	 0.179889
C	 0.3141006278	 3.7356700209	-1.6949027323	 0.221603
N	-0.5311114556	 4.4377627668	-2.0618349324	-0.32492
H	-0.9344671456	 1.4571353581	 0.0066056895	 0.098856
H	 0.9524740156	 2.7652767474	 0.9596979348	 0.125147
H	 4.2492984864	 1.9546605888	-0.6483801174	 0.132827
H	 3.3303325524	 0.6100648533	-1.3550188337	 0.139419
H	 2.8480912958	 2.9119238994	-2.7269394281	 0.14516
67.5622	87.877	147.0149	177.5977	257.981	291.7423	404.8064	504.8663	556.2384	607.3271	722.1729	783.7488	791.8061	852.2651	923.2599	944.9469	1016.8226	1026.9414	1046.6268	1140.146	1182.4912	1201.9606	1255.9734	1278.0805	1340.2147	1376.653	1411.9006	1505.3264	1682.444	1848.2105	2341.3766	2882.9919	2991.4589	3001.1756	3035.1261	3237.3504
O=CC1OCC=C1C#N	O=C[C@H]1OCC=C1C#N	
InChI=1S/C6H5NO2/c7-3-5-1-2-9-6(5)4-8/h1,4,6H,2H2	InChI=1S/C6H5NO2/c7-3-5-1-2-9-6(5)4-8/h1,4,6H,2H2/t6-/m1/s1
