16
gdb 54438	3.46955	1.22935	1.01526	2.1124	70.87	-0.253	-0.038	0.215	1150.233	0.122944	-437.901085	-437.892772	-437.891828	-437.934412	30.743	
C	 0.8526559881	 1.0166854524	 0.2152331196	-0.485358
C	-0.3325338007	 0.1352419102	-0.1112823799	 0.315119
O	-1.3226309082	 0.0712495879	 0.5854685961	-0.315455
C	-0.2350248086	-0.6924839962	-1.347779007	 0.248311
C	-1.3952589202	-1.4431541254	-1.9360007896	-0.312813
C	-0.236144717	-2.2347110239	-1.361648043	-0.247692
C	 0.9392265745	-2.115135734	-2.3232944854	 0.427755
O	 1.6256703629	-2.8692994823	-2.9469465303	-0.331435
N	 0.9334682453	-0.7046798903	-2.2353516995	-0.410716
H	 1.7788117991	 0.4338150763	 0.2087170038	 0.153618
H	 0.968670128	 1.7903970664	-0.5527905033	 0.140808
H	 0.6988270814	 1.48665937	 1.1867617044	 0.144545
H	-2.2937082252	-1.4494150599	-1.3279631844	 0.158452
H	-1.5487056593	-1.4100076561	-3.01016046	 0.129399
H	-0.3465932296	-2.9015168467	-0.5183383876	 0.139034
H	 1.0208298896	-0.1081599984	-3.051433984	 0.246429
67.0466	116.8612	143.4874	183.4186	277.5542	360.1177	419.8829	462.6116	495.5584	578.5458	594.2847	656.844	714.4589	754.7444	846.5825	878.9164	930.9464	949.6132	968.8463	987.4457	1049.3834	1065.0321	1078.3246	1117.9437	1164.8338	1240.0591	1251.0084	1324.3744	1368.6652	1393.8291	1456.9744	1469.2603	1470.588	1791.1615	1907.0576	3040.9897	3103.4625	3129.0015	3160.0545	3226.0738	3232.2615	3537.9441
CC(=O)C12CC1C(=O)N2	CC(=O)[C@]12C[C@H]1C(=O)N2	
InChI=1S/C6H7NO2/c1-3(8)6-2-4(6)5(9)7-6/h4H,2H2,1H3,(H,7,9)	InChI=1S/C6H7NO2/c1-3(8)6-2-4(6)5(9)7-6/h4H,2H2,1H3,(H,7,9)/t4-,6+/m0/s1
