22
gdb 107404	3.04759	1.18901	1.06846	2.6169	81.54	-0.2278	0.0677	0.2955	1252.8735	0.195569	-404.346943	-404.338033	-404.337089	-404.380289	34.938	
C	-0.391211093	 1.4573087685	 0.1269537011	-0.379814
C	 0.2338173534	 0.0759217262	-0.1047926052	-0.259862
C	 0.9017471542	-0.48368632	 1.1309789106	 0.355748
C	 2.173022769	 0.1752564755	 1.6633730852	-0.276376
C	 2.7870514998	-0.8344087761	 2.6521020231	 0.077751
O	 2.2833803231	-0.5091228444	 3.9536172242	-0.42521
C	 2.2936623283	-2.2187784435	 2.1656527943	-0.259872
C	 0.9793144686	-1.9372044874	 1.4581348986	-0.070023
N	 0.0032573403	-1.0721960436	 2.1405416853	-0.381922
H	 0.3646365213	 2.203497007	 0.3944695037	 0.111423
H	-0.9040506552	 1.8137697396	-0.7715903148	 0.107838
H	-1.1214661461	 1.4110109141	 0.9406551626	 0.131275
H	-0.545929103	-0.6250619193	-0.421140414	 0.103029
H	 0.9668981579	 0.1279932269	-0.9211314058	 0.086139
H	 2.8659440837	 0.3586714054	 0.8332354728	 0.098336
H	 1.9973145446	 1.1324100529	 2.1640538346	 0.116418
H	 3.8830032865	-0.7755585734	 2.6619766436	 0.07292
H	 2.5873386548	-1.1865881788	 4.5667866161	 0.282974
H	 3.0119020957	-2.651964705	 1.4580520587	 0.103038
H	 2.1997778544	-2.9257555798	 2.9998150292	 0.091642
H	 0.5524943392	-2.7030770889	 0.8154627583	 0.080557
H	 0.3275678525	-0.8502820161	 3.079881438	 0.233992
81.0252	126.1648	179.0791	222.0677	273.0501	328.5228	345.3807	389.4561	402.2131	434.8483	476.7865	620.1625	691.9037	777.4601	783.2028	824.316	861.3999	904.1276	915.4283	944.9366	959.7058	978.8996	1032.5365	1038.1272	1071.2172	1083.1923	1109.1206	1146.1644	1176.1805	1190.3741	1223.2623	1246.072	1274.1814	1306.7864	1314.0762	1326.2233	1345.3094	1365.0632	1376.7233	1405.5826	1414.9259	1447.3153	1472.9454	1475.4151	1486.6744	1499.9743	1508.8327	3008.6565	3017.8167	3023.2089	3035.3769	3039.6974	3058.582	3068.1446	3087.3351	3102.9452	3112.7558	3137.4797	3484.5749	3811.9961
CCC12CC(O)CC1N2	CC[C@]12C[C@@H](O)C[C@H]1N2	
InChI=1S/C7H13NO/c1-2-7-4-5(9)3-6(7)8-7/h5-6,8-9H,2-4H2,1H3	InChI=1S/C7H13NO/c1-2-7-4-5(9)3-6(7)8-7/h5-6,8-9H,2-4H2,1H3/t5-,6+,7-/m0/s1
