19
gdb 90500	2.08997	1.35477	1.1944	2.7148	77.35	-0.2374	-0.0216	0.2158	1167.9467	0.157342	-423.002361	-422.993263	-422.992319	-423.036028	34.159	
C	 0.2072583165	 1.2062012651	-0.9342607605	-0.427378
C	 0.5661222048	-0.2536371993	-0.6892326279	-0.030785
C	 1.8851359909	-0.8881667821	-1.2605689798	-0.268758
C	 2.2047507796	-1.4416639738	 0.1380851983	-0.141708
C	 2.3892303096	-0.3201708305	 1.1561658693	-0.165682
C	 3.0737262115	 0.9704621341	 0.9141238619	 0.133687
O	 3.5828731977	 1.6258095187	 1.7947189896	-0.275217
C	 0.9870283005	-0.7544517356	 0.7008398767	 0.359354
O	 0.1035731474	-1.2595541221	 1.632463008	-0.452888
H	 1.0061473649	 1.8912094071	-0.6370646723	 0.122791
H	-0.0009107324	 1.3808742699	-1.9953285512	 0.122472
H	-0.6931526143	 1.4834365589	-0.3744914748	 0.118249
H	-0.2739451284	-0.8836778013	-1.0006041565	 0.094121
H	 1.6875015223	-1.6765256758	-1.9892285682	 0.114192
H	 2.6141386035	-0.1991847702	-1.6933908514	 0.109325
H	 2.5945418126	-2.4287894244	 0.3535055959	 0.107312
H	 2.5712744287	-0.6917688062	 2.1613312002	 0.113622
H	 3.1182077304	 1.3175638707	-0.1391681955	 0.073528
H	-0.2098768658	-0.5366964832	 2.187605228	 0.293763
79.7101	140.1369	188.4882	197.6955	239.7076	253.9085	287.6291	337.8693	393.8608	464.6186	484.1585	565.4202	636.9553	657.9286	806.0725	844.2348	873.1913	914.2258	945.7386	992.25	1021.6009	1052.967	1078.9063	1100.2051	1117.687	1145.4407	1174.8994	1204.1885	1222.0869	1235.3746	1292.0048	1300.8548	1310.3128	1376.6636	1413.4255	1420.5531	1469.1174	1496.8982	1497.224	1502.2765	1797.1749	2906.4719	3033.3278	3049.2248	3071.4385	3093.3942	3114.0745	3119.8694	3156.0191	3193.0513	3794.5064
CC1CC2C(C=O)C12O	C[C@H]1C[C@H]2[C@@H](C=O)[C@@]12O	
InChI=1S/C7H10O2/c1-4-2-5-6(3-8)7(4,5)9/h3-6,9H,2H2,1H3	InChI=1S/C7H10O2/c1-4-2-5-6(3-8)7(4,5)9/h3-6,9H,2H2,1H3/t4-,5-,6+,7+/m0/s1
