17
gdb 55008	3.01897	1.13503	0.97871	8.3687	71.7	-0.2382	-0.0023	0.2359	1224.3565	0.136172	-455.184666	-455.175971	-455.175027	-455.218487	32.497	
N	-0.3984652768	 1.5045830324	-0.2150297449	-0.54332
C	-0.1665248469	 0.2797565963	-0.7740655338	 0.412364
N	 0.9713043403	-0.1313053913	-1.2118915493	-0.571377
H	 1.0887869102	-1.7617714053	-1.0480573292	 0.33717
H	 1.7195709029	 0.5510267032	-1.1180250368	 0.216059
C	-1.3651523849	-0.6016721986	-0.8424829478	-0.086399
C	-1.558839306	-1.5329193827	-2.0135863718	-0.296087
C	-1.3473931025	-2.1274748242	-0.647837727	-0.144992
C	-0.1829550925	-3.0416975692	-0.3208512671	 0.397437
O	-0.4071261584	-4.0705711336	 0.2706422196	-0.349575
O	 1.031601485	-2.7204450144	-0.7474154968	-0.391819
H	 0.3190247102	 2.2098785168	-0.2534649349	 0.260019
H	-1.3403275902	 1.8318824481	-0.0864293509	 0.266359
H	-2.2644164607	-0.1421297011	-0.4448670022	 0.092006
H	-2.5430784962	-1.5998315326	-2.4626989288	 0.128579
H	-0.7264608346	-1.591403861	-2.7057924184	 0.1517
H	-2.2370100488	-2.4976700127	-0.15225802	 0.12188
49.9881	99.2458	206.409	246.7383	253.243	295.2333	303.8854	401.0084	467.7016	496.851	592.8205	633.0118	703.9567	764.8785	788.7358	797.174	811.321	867.9959	936.9349	959.2968	980.5252	1043.1865	1078.2007	1094.7198	1134.3267	1150.3889	1171.8224	1219.0348	1318.0204	1352.9688	1373.8242	1471.1358	1490.5738	1522.6882	1643.2587	1701.9469	1830.4055	2962.6156	3141.3161	3154.7072	3187.2289	3235.952	3509.2832	3604.0237	3723.9754
NC(=[NH2+])C1CC1C([O-])=O	NC(=N)[C@H]1C[C@H]1C(=O)O	
InChI=1S/C5H8N2O2/c6-4(7)2-1-3(2)5(8)9/h2-3H,1H2,(H3,6,7)(H,8,9)	InChI=1S/C5H8N2O2/c6-4(7)2-1-3(2)5(8)9/h2-3H,1H2,(H3,6,7)(H,8,9)/t2-,3+/m0/s1
