21
gdb 76746	2.25733	1.61954	1.34222	1.774	77.54	-0.2429	0.0502	0.2931	1082.2027	0.182355	-424.200639	-424.191682	-424.190738	-424.23408	35.061	
C	-0.3274869552	 1.4810444641	 0.0027521933	-0.505897
C	 0.0124107781	 0.0076055185	 0.0255545552	 0.351852
C	-1.140039134	-1.0065264348	 0.2550215969	-0.28625
C	-0.3304229984	-1.6891299863	 1.3973748314	-0.227208
C	 0.8439796761	-0.70170899	 1.1737854467	-0.101929
C	 1.8927344582	-1.1615067167	 0.1388213496	 0.059843
O	 2.0042958977	-2.5732288707	 0.0173830989	-0.426057
C	 1.0703967482	-0.4920050799	-1.0172945209	 0.046813
O	 0.6633263353	-1.3742169075	-2.0295732724	-0.434509
H	 0.5748183796	 2.1036892524	-0.0261716573	 0.107952
H	-0.9273599556	 1.7269652019	-0.882367236	 0.12233
H	-0.9059659159	 1.7739366369	 0.8862693768	 0.111678
H	-2.0657202393	-0.5342523515	 0.5943782421	 0.09345
H	-1.3694335015	-1.6265962503	-0.6145640849	 0.104698
H	-0.7912156996	-1.5765299453	 2.3811770652	 0.097148
H	-0.0807703439	-2.741582563	 1.2544008064	 0.11558
H	 1.2322276049	-0.1806556085	 2.0505566731	 0.057278
H	 2.8791773953	-0.7100976415	 0.2928667521	 0.069377
H	 2.8022214051	-2.770227484	-0.4832596844	 0.293884
H	 1.5935740829	 0.3467628562	-1.4917855319	 0.068214
H	 0.7744549319	-2.2616105201	-1.6584298999	 0.281755
48.4987	204.8348	215.7445	231.0037	260.1257	268.7029	275.09	311.4463	484.2517	520.4825	542.8821	558.5354	619.2898	720.9834	734.4869	806.9227	825.6056	863.4198	886.7614	945.5763	955.5345	984.7128	1030.0217	1058.5074	1111.7361	1135.8699	1147.7412	1155.9634	1197.408	1210.2871	1229.3863	1236.249	1256.3661	1274.5818	1280.9555	1298.5071	1323.278	1368.204	1407.7741	1417.4115	1436.3828	1479.5398	1489.5388	1492.3129	1498.1693	3013.5333	3023.4106	3039.3294	3059.0012	3071.2236	3077.7898	3083.3099	3091.7514	3107.7053	3129.7966	3722.3263	3824.5336
CC12CCC1C(O)C2O	C[C@]12CC[C@H]1[C@@H](O)[C@H]2O	
InChI=1S/C7H12O2/c1-7-3-2-4(7)5(8)6(7)9/h4-6,8-9H,2-3H2,1H3	InChI=1S/C7H12O2/c1-7-3-2-4(7)5(8)6(7)9/h4-6,8-9H,2-3H2,1H3/t4-,5+,6+,7-/m0/s1
