19
gdb 77905	2.19623	1.52007	1.43212	3.8389	71.05	-0.2331	0.0553	0.2884	1053.5827	0.157928	-460.121558	-460.112533	-460.111589	-460.154351	35.353	
C	-0.1698708314	 1.596062867	-0.0361855097	-0.422364
C	 0.0439702728	 0.0844817574	-0.0557734993	-0.011176
C	 0.680559651	-0.5742120924	-1.2837285453	-0.21275
C	 2.1544204388	-0.2419842616	-1.4040163945	 0.093782
O	 2.7344159039	 1.0032311117	-1.1426711311	-0.43758
C	 1.7721625471	-1.2357747913	-0.3732520932	 0.322175
O	 2.3503945942	-2.4894656494	-0.3639714738	-0.455547
C	 1.1715121516	-0.5496539593	 0.8457835334	-0.014579
O	 2.097716432	 0.3088590368	 1.5053038941	-0.429753
H	 0.7336061476	 2.1336449027	-0.3239956211	 0.144377
H	-0.9614690334	 1.8716651296	-0.7409169212	 0.119566
H	-0.4892909651	 1.9381975166	 0.9564924135	 0.095006
H	-0.9011466555	-0.4138937791	 0.186924132	 0.070514
H	 0.1328566533	-0.9961688274	-2.1188323671	 0.088079
H	 2.603663302	-0.7147212655	-2.275248192	 0.108371
H	 2.8389876249	 1.0650640201	-0.1829894712	 0.296685
H	 1.7254585012	-3.1135892986	 0.0224353538	 0.282974
H	 0.7540577104	-1.2708984183	 1.5621650851	 0.070562
H	 1.6224659345	 0.829804261	 2.1615790178	 0.291659
155.1858	191.9772	205.3189	237.7111	252.7618	265.5972	307.9099	342.3559	373.8101	407.808	478.6205	520.4634	564.6363	628.688	710.2721	752.5458	803.5111	831.8663	900.5368	942.2898	970.3051	991.7347	1055.8225	1083.4136	1100.1654	1129.3424	1149.8757	1174.9906	1212.5501	1242.7027	1266.8345	1301.6689	1332.8226	1348.9976	1379.5898	1395.873	1410.0398	1440.6313	1493.4034	1507.126	1511.1024	2999.1387	3024.1705	3038.9814	3085.8413	3137.7323	3153.9907	3178.3018	3734.8864	3786.7532	3809.8313
CC1C2C(O)C2(O)C1O	C[C@H]1[C@H]2[C@@H](O)[C@@]2(O)[C@H]1O	
InChI=1S/C6H10O3/c1-2-3-5(8)6(3,9)4(2)7/h2-5,7-9H,1H3	InChI=1S/C6H10O3/c1-2-3-5(8)6(3,9)4(2)7/h2-5,7-9H,1H3/t2-,3-,4-,5+,6-/m0/s1
