20
gdb 73310	3.23812	1.54367	1.34622	0.6671	78.1	-0.2278	0.0847	0.3125	1043.231	0.171019	-403.115302	-403.107264	-403.10632	-403.147119	32.324	
C	-0.0240812613	 1.4632566026	 0.0108153703	-0.482752
C	-0.0293894017	-0.0395960799	-0.0697442834	 0.312219
C	 0.9068640645	-0.7416900547	-1.0502977656	-0.152215
O	 0.2996074447	-1.9997432309	-1.344145053	-0.29477
C	-0.648288961	-2.2458223114	-0.3064488552	 0.392159
C	-1.509374211	-3.4257710108	-0.6731077032	-0.483312
C	 0.0572760872	-2.1740728544	 1.0749248198	-0.207985
N	-0.3060021874	-0.7245921688	 1.2358563519	-0.191795
C	-1.2452853648	-0.8601501793	 0.0583771343	-0.156041
H	 0.964600938	 1.834137592	 0.3032646391	 0.124825
H	-0.2816226788	 1.909322823	-0.9557868572	 0.119188
H	-0.7419623551	 1.8055048933	 0.7596091456	 0.135625
H	 1.004912124	-0.1702736119	-1.9806220912	 0.107225
H	 1.9143314615	-0.8796948871	-0.6309116728	 0.09998
H	-0.8946651972	-4.3234762716	-0.7902418222	 0.130283
H	-2.2562017798	-3.6151317106	 0.1027548374	 0.121328
H	-2.0255056415	-3.2411824247	-1.6201160447	 0.12848
H	-0.4559202361	-2.7438026971	 1.8539220565	 0.10819
H	 1.1278067147	-2.4045490909	 1.0977824512	 0.101345
H	-2.2754239491	-0.5224922968	 0.0675828826	 0.088025
189.8604	201.8562	211.9529	240.6586	265.6764	324.2709	366.9483	424.1491	469.2811	567.032	615.5377	661.651	713.2032	810.552	847.4898	870.0414	893.4171	918.1074	965.3299	989.3852	995.7122	1018.5861	1022.379	1066.7456	1119.6137	1150.3411	1158.1948	1184.8036	1196.1424	1224.0872	1264.336	1291.5405	1329.1907	1364.3678	1411.0051	1417.9746	1426.6862	1481.6115	1488.5041	1494.0413	1495.0832	1496.4644	1523.2775	2994.6605	3033.7629	3040.7736	3044.5268	3052.1804	3094.4763	3103.1315	3113.1752	3121.2846	3126.724	3176.8375
CC12COC3(C)CN1C23	C[C@@]12CO[C@@]3(C)CN1[C@@H]23	
InChI=1S/C7H11NO/c1-6-4-9-7(2)3-8(6)5(6)7/h5H,3-4H2,1-2H3	InChI=1S/C7H11NO/c1-6-4-9-7(2)3-8(6)5(6)7/h5H,3-4H2,1-2H3/t5-,6-,7-,8?/m0/s1
