19
gdb 80299	2.43835	1.51809	1.23684	4.2616	75.02	-0.2646	0.0117	0.2763	1100.658	0.158801	-423.067666	-423.059073	-423.058129	-423.100687	32.626	
C	-0.3135008209	 1.4796576835	-0.1066301949	-0.429562
C	-0.0308664801	-0.0011318813	 0.0192985784	-0.089824
C	 1.333292888	-0.6054889913	-0.1916193659	 0.038299
O	 2.4405532916	 0.2745900699	-0.1914663295	-0.214416
C	 2.6446839926	 0.8070748856	 1.0529924684	 0.428708
O	 3.517873691	 1.5917263084	 1.2739390712	-0.331515
C	 1.5960125048	 0.2524890039	 2.0216924627	-0.445257
C	 0.7117284344	-0.6531236515	 1.1844034156	 0.282388
C	 0.182126644	-1.926142226	 1.8009213765	-0.483262
H	 0.5399371365	 2.1000485613	 0.1761068385	 0.141194
H	-0.565258097	 1.732355776	-1.1415938951	 0.129885
H	-1.1607476735	 1.7695009246	 0.5237811309	 0.123178
H	-0.8314124557	-0.6314271927	-0.3627267017	 0.09183
H	 1.500023306	-1.4705574072	-0.8224216697	 0.109177
H	 2.1115862233	-0.3042789768	 2.811439686	 0.13894
H	 1.0825948798	 1.0893011261	 2.5044470733	 0.141989
H	-0.5586604123	-1.7126363104	 2.5799675512	 0.1259
H	-0.3035326497	-2.5571269022	 1.0498969745	 0.120311
H	 0.9882086872	-2.5111863599	 2.2586976095	 0.122037
97.8362	150.5919	195.217	203.3958	216.7103	268.4281	310.7222	446.6488	488.3981	551.3835	563.7188	589.0018	691.0816	751.5768	799.3738	833.7633	894.3868	954.8356	970.4983	978.8402	1037.5998	1051.7896	1105.595	1118.437	1139.6942	1153.5477	1168.4607	1192.6277	1231.6725	1303.1811	1321.8906	1357.7096	1419.7418	1423.6357	1444.9984	1468.9897	1489.8755	1492.8987	1500.1132	1505.6376	1885.6821	3023.9378	3040.059	3056.1041	3085.1197	3094.8915	3098.7862	3099.6629	3118.2245	3134.9922	3183.6539
CC1C2OC(=O)CC12C	C[C@H]1[C@H]2OC(=O)C[C@@]12C	
InChI=1S/C7H10O2/c1-4-6-7(4,2)3-5(8)9-6/h4,6H,3H2,1-2H3	InChI=1S/C7H10O2/c1-4-6-7(4,2)3-5(8)9-6/h4,6H,3H2,1-2H3/t4-,6+,7-/m0/s1
