21
gdb 94005	1.91307	1.60632	1.38669	3.1032	77.42	-0.2365	-0.0274	0.2091	1110.964	0.181792	-424.240926	-424.23154	-424.230596	-424.275313	34.656	
C	 0.6562134999	 1.6362783345	-0.0407579253	-0.414684
C	 0.2584586684	 0.1559327661	 0.0075747156	-0.025023
C	 0.9480404584	-0.6689097655	-1.1135824523	-0.082816
O	 1.7023051644	-1.713506045	-0.4914017659	-0.24523
C	 1.9405222938	-1.3700542651	 0.8497263547	-0.008419
C	 3.2194329157	-0.5606377152	 1.0326903982	 0.152567
O	 3.8027249623	 0.0077111083	 0.1459127859	-0.246605
C	 0.6615909041	-0.6137835982	 1.3022361603	 0.002082
C	 0.7652465199	 0.2030492102	 2.5908298708	-0.429665
H	 1.7383379718	 1.7680862072	 0.0491701419	 0.141467
H	 0.3531572986	 2.0720105604	-0.9986584023	 0.117196
H	 0.1692120767	 2.2154643943	 0.7495558876	 0.1129
H	-0.8287752523	 0.0943569033	-0.1034167555	 0.07839
H	 0.2330232949	-1.1466132529	-1.7909013962	 0.102163
H	 1.6179282175	-0.0348008825	-1.706348173	 0.113551
H	 2.0703777502	-2.2988399483	 1.4230277121	 0.094259
H	 3.5973206267	-0.5338054305	 2.0822441858	 0.074421
H	-0.0884005361	-1.3969906854	 1.4580709166	 0.090334
H	 1.4940090188	 1.0150082811	 2.515980316	 0.130416
H	-0.2015855525	 0.6513865908	 2.8400563958	 0.124432
H	 1.0573367987	-0.4319405675	 3.4340080894	 0.118262
63.6942	87.963	114.0684	234.0145	253.3372	268.5654	281.2735	294.047	366.5176	384.0504	497.5582	603.2792	666.8646	735.6439	789.5204	811.1408	898.0706	930.0129	946.5039	974.4552	1001.5014	1034.3528	1038.9038	1087.5553	1141.6826	1149.7974	1168.9584	1181.4279	1235.7379	1250.921	1297.1499	1325.0166	1350.846	1368.3355	1382.1541	1400.2797	1413.0069	1419.632	1421.5321	1494.7847	1497.884	1508.6601	1511.583	1520.9259	1831.4157	2848.8167	3014.1769	3029.0224	3034.0068	3036.4985	3039.2138	3051.0805	3077.0035	3098.2576	3101.3963	3112.8409	3120.6898
CC1COC(C=O)C1C	C[C@H]1CO[C@@H](C=O)[C@H]1C	
InChI=1S/C7H12O2/c1-5-4-9-7(3-8)6(5)2/h3,5-7H,4H2,1-2H3	InChI=1S/C7H12O2/c1-5-4-9-7(3-8)6(5)2/h3,5-7H,4H2,1-2H3/t5-,6-,7-/m0/s1
