21
gdb 62512	1.91571	1.29753	1.12941	2.8461	82.	-0.2389	-0.0168	0.2221	1257.6989	0.178418	-424.231323	-424.220783	-424.219839	-424.266037	39.257	
C	 1.5612541849	 0.9888711813	-1.0316041994	-0.458627
C	 0.8744744532	-0.2559599196	-0.4930303327	 0.239507
C	-0.2749603524	-0.7146348067	-1.3749547338	-0.439948
C	 1.7187262016	-1.3916470476	 0.1360983952	-0.224122
C	 3.1870755612	-1.3511805582	 0.2570159024	 0.148918
O	 3.8926674276	-2.3339799971	 0.2221890867	-0.279853
C	 0.7790474009	-0.4957416414	 0.9793211804	 0.349018
C	 1.3242088755	 0.4592323744	 2.0200711009	-0.458395
O	-0.4103618746	-1.111493915	 1.39150159	-0.450881
H	 2.3845188241	 1.3454855302	-0.4112581855	 0.119253
H	 1.9624872812	 0.7960593383	-2.0323570375	 0.128004
H	 0.8355590227	 1.8052861616	-1.1187432006	 0.123983
H	 0.0926672253	-0.9610468121	-2.376808943	 0.117523
H	-0.7803463373	-1.5865361126	-0.9605181341	 0.138006
H	-1.0170826136	 0.0853607144	-1.4783387501	 0.118992
H	 1.335541528	-2.3934333817	-0.0318116171	 0.104361
H	 3.6390451205	-0.3436723855	 0.3920663802	 0.060288
H	 2.2459669947	 0.9540918859	 1.7116027964	 0.125278
H	 0.576031037	 1.2261829815	 2.2435936308	 0.133698
H	 1.5410992717	-0.0809429074	 2.9495735	 0.118489
H	-0.2201934621	-1.6232142428	 2.1858863908	 0.286508
85.1075	153.8084	185.247	188.6013	205.8852	214.5472	255.4417	272.7624	298.1136	332.9751	364.7116	405.804	446.563	462.1147	514.6553	533.0685	663.5887	682.7092	902.8205	933.1451	969.9219	980.8234	1009.6352	1030.8742	1048.7479	1082.5958	1136.4428	1147.6972	1164.0813	1191.2813	1279.8261	1295.1716	1303.1166	1407.7473	1414.5294	1420.5792	1443.4177	1453.4589	1480.4189	1487.4322	1492.2084	1495.1841	1507.6121	1527.7736	1794.8029	2875.9588	3032.6664	3033.4708	3038.491	3089.7889	3093.6514	3095.0422	3131.528	3145.2172	3151.3163	3166.8805	3795.2926
CC1(C)C(C=O)C1(C)O	CC1(C)[C@@H](C=O)[C@]1(C)O	
InChI=1S/C7H12O2/c1-6(2)5(4-8)7(6,3)9/h4-5,9H,1-3H3	InChI=1S/C7H12O2/c1-6(2)5(4-8)7(6,3)9/h4-5,9H,1-3H3/t5-,7+/m1/s1
