20
gdb 35246	2.90878	1.14537	0.92479	0.8085	86.51	-0.228	0.0345	0.2625	1317.775	0.17009	-365.93426	-365.925377	-365.924433	-365.968397	33.785	
C	-0.3655278854	-1.253559816	 0.3145001456	-0.476362
C	-0.2185712541	-0.0632447255	 0.2169678077	 0.346162
C	-0.0733611592	 1.3578910926	 0.0542870628	-0.175479
C	 0.5404543593	 2.1826620843	 1.1466293258	-0.248747
N	 1.2504820523	 1.9965530218	-0.1080774735	-0.095625
C	 2.4299825032	 1.149007504	-0.0819787441	 0.09576
C	 2.951721989	 0.6464863141	-1.4510637793	-0.23398
C	 4.3941815779	 0.9511368895	-0.9607770401	-0.213969
C	 3.7828151501	 1.8766468181	 0.1277317806	-0.238408
H	-0.4955806584	-2.303050437	 0.4102501401	 0.199841
H	-0.8440271714	 1.8188305924	-0.5592167163	 0.117314
H	 0.1606611071	 3.1820788924	 1.3410679352	 0.120062
H	 0.8915329363	 1.6408289501	 2.0230699389	 0.120865
H	 2.3257539585	 0.3096390459	 0.6212619072	 0.070408
H	 2.704069558	-0.3761056754	-1.742838814	 0.100018
H	 2.6425128356	 1.3323183224	-2.2446408837	 0.108531
H	 4.8731505656	 0.0697823039	-0.525443809	 0.102181
H	 5.0852339394	 1.4031455298	-1.6749688023	 0.099349
H	 3.7106149399	 2.9115136288	-0.2179567177	 0.109481
H	 4.2213902664	 1.8629875039	 1.1284088162	 0.092595
49.5295	98.7163	137.7203	173.1799	233.5854	299.6279	380.9045	428.6789	526.5135	585.3587	596.3076	637.9826	661.422	732.5909	783.7622	794.5547	851.5459	905.1097	927.4414	938.394	953.578	988.12	1025.3609	1064.2553	1080.2492	1114.5521	1122.1794	1145.1454	1179.9294	1199.8051	1244.0376	1251.1336	1259.7448	1276.153	1296.3181	1320.2954	1368.8447	1386.2737	1473.8251	1485.6881	1501.0073	1509.2049	2230.5671	2989.9919	3058.3744	3061.9233	3066.2999	3096.1773	3105.3793	3116.6812	3127.7682	3129.8913	3186.0932	3502.9878
C#CC1CN1C1CCC1	C#C[C@H]1CN1C1CCC1	
InChI=1S/C8H11N/c1-2-7-6-9(7)8-4-3-5-8/h1,7-8H,3-6H2	InChI=1S/C8H11N/c1-2-7-6-9(7)8-4-3-5-8/h1,7-8H,3-6H2/t7-,9?/m0/s1
