13
gdb 132062	2.39878	1.89396	1.05888	3.9695	65.87	-0.2152	-0.03	0.1852	1014.4452	0.090933	-494.099833	-494.092476	-494.091532	-494.13154	28.013	
N	 0.0286543239	 1.3648494157	 0.1442116786	-0.564173
C	 0.0070093537	 0.0023821949	 0.0568100149	 0.279588
C	-1.1718626831	-0.7043846526	 0.0309654513	 0.057438
F	-2.3346209609	-0.0336194851	 0.0397860456	-0.081882
C	-1.216684065	-2.1341488389	-0.0104812468	 0.336331
O	-2.1836330481	-2.8709903323	-0.0378969901	-0.392062
N	 0.1053540354	-2.6663428305	-0.0207083166	-0.347892
C	 1.2251761282	-1.9123553482	-0.006237412	 0.105237
N	 1.2343513191	-0.6180657018	 0.0308617685	-0.339904
H	 0.8972998547	 1.8068193259	-0.1092210286	 0.266428
H	-0.8197413845	 1.8582243859	-0.0794095835	 0.26967
H	 0.1573592096	-3.6758991365	-0.050693523	 0.270137
H	 2.168607637	-2.4512262165	-0.0286383783	 0.141084
128.9302	199.4336	277.1654	288.4882	327.678	417.7307	459.6599	514.55	531.3653	534.8402	564.0841	655.0368	703.139	735.8941	763.2018	892.1686	950.7966	1002.2318	1090.8606	1176.6852	1244.3009	1321.812	1385.0645	1457.5944	1472.4184	1603.0327	1630.3019	1685.4975	1803.0233	3172.5655	3599.633	3601.5537	3724.4204
NC1=C(F)C(=O)NC=N1	Nc1c(F)c(=O)[nH]cn1	
InChI=1S/C4H4FN3O/c5-2-3(6)7-1-8-4(2)9/h1H,(H3,6,7,8,9)	InChI=1S/C4H4FN3O/c5-2-3(6)7-1-8-4(2)9/h1H,(H3,6,7,8,9)
