20
gdb 40696	3.65367	0.99098	0.91506	1.7427	79.88	-0.2426	0.0876	0.3302	1360.0001	0.171637	-403.082673	-403.074146	-403.073202	-403.116465	32.197	
C	 0.2172761572	 1.7456517353	 0.3368536153	-0.266504
C	 1.0656827905	 0.6281379001	-0.2034626194	-0.26966
C	-0.3899014811	 0.3771716834	 0.124839695	-0.026718
C	-0.7139508235	-0.4631315766	 1.3108715055	 0.065031
O	-2.0559148339	-0.4182340441	 1.8417717837	-0.272269
C	-1.5880547883	-1.6483614381	 1.2791699001	 0.010471
C	-2.2972549014	-2.1185428634	 0.0425027913	-0.032348
C	-3.7682225748	-2.3153067209	 0.0808107073	-0.240455
N	-3.1817676308	-1.1995709668	-0.6842474342	-0.318056
H	 0.3908048086	 2.0672209008	 1.3584487663	 0.117605
H	-0.0837495986	 2.5411812943	-0.3350180885	 0.119269
H	 1.3498836833	 0.6469907797	-1.2492005149	 0.119683
H	 1.8156171355	 0.1970541318	 0.4519316774	 0.113838
H	-1.0615619329	 0.2663059833	-0.7183215477	 0.116164
H	 0.0465535228	-0.4365679762	 2.0950690092	 0.088427
H	-1.3951130744	-2.4326676368	 2.0148966329	 0.094052
H	-1.7021752997	-2.7706133843	-0.5945098021	 0.098299
H	-4.2300560131	-3.0955049262	-0.5171529029	 0.117928
H	-4.2816204176	-2.0817119488	 1.0099368628	 0.122073
H	-3.2698816279	-0.3555439566	-0.1190338771	 0.243171
62.597	109.966	120.4026	190.2828	257.0565	287.4461	325.9719	463.4571	548.3564	637.7301	732.8875	771.8691	832.6318	841.7216	853.9441	866.5181	906.269	923.4112	957.0586	983.6663	1007.0058	1010.6309	1062.7384	1080.1103	1106.1242	1128.6085	1138.9794	1143.0769	1152.0876	1193.6873	1199.8261	1214.5125	1229.9134	1282.5851	1296.7897	1314.5931	1340.6642	1391.6998	1429.4737	1470.4745	1488.0526	1508.3898	1512.442	3073.2439	3085.9109	3110.0897	3124.097	3133.1619	3137.7925	3184.4468	3198.2376	3212.6495	3228.1139	3476.5555
C1CC1C1OC1C1CN1	C1CC1[C@H]1O[C@H]1[C@H]1CN1	
InChI=1S/C7H11NO/c1-2-4(1)6-7(9-6)5-3-8-5/h4-8H,1-3H2	InChI=1S/C7H11NO/c1-2-4(1)6-7(9-6)5-3-8-5/h4-8H,1-3H2/t5-,6-,7+/m1/s1
