16
gdb 125310	3.2364	1.71537	1.13698	3.5606	76.88	-0.2316	-0.0313	0.2003	1029.9114	0.127597	-396.972116	-396.96502	-396.964076	-397.003679	26.871	
C	-0.019336268	 1.5112046118	 0.0392188298	-0.495633
C	-0.0072338334	 0.0189896662	 0.0180332671	 0.212318
C	-0.0261586287	-0.8193879849	-1.0378337226	-0.205795
C	-0.0025985978	-2.2744496781	-0.6031795586	-0.2389
N	 0.031484812	-2.1117447158	 0.834533613	 0.05241
N	 0.0654685394	-2.9335208103	 1.901392796	-0.274888
C	 0.0811128165	-2.048452503	 2.8986374006	 0.014318
N	 0.0618934253	-0.7295104249	 2.5378230065	-0.373465
C	 0.0297199602	-0.8193151827	 1.2178077458	 0.344455
H	 0.870697721	 1.8987601442	 0.5468770627	 0.148604
H	-0.0520125479	 1.9229993383	-0.9720484667	 0.12757
H	-0.8848981117	 1.8837882361	 0.5977633928	 0.148641
H	-0.0545687687	-0.5336737155	-2.0805415055	 0.11559
H	-0.8926707286	-2.8285142518	-0.922880561	 0.150911
H	 0.8802681525	-2.8128468363	-0.9666369098	 0.150927
H	 0.1093849578	-2.3716424735	 3.9287424398	 0.122938
138.4466	181.8962	188.6833	236.7158	291.9908	509.0772	512.4066	591.4931	671.5873	676.186	750.1612	800.4152	804.3962	895.5965	952.1751	983.4115	989.395	1019.449	1068.2592	1112.3346	1166.069	1176.4665	1211.8521	1269.7337	1282.2479	1317.8397	1353.8002	1416.3571	1430.0287	1452.0462	1474.7589	1486.4485	1489.6121	1576.6838	1665.2568	3037.6691	3042.2457	3077.6884	3091.8686	3126.6152	3230.5065	3258.5848
CC1=CCN2N=CN=C12	CC1=CCn2ncnc12	
InChI=1S/C6H7N3/c1-5-2-3-9-6(5)7-4-8-9/h2,4H,3H2,1H3	InChI=1S/C6H7N3/c1-5-2-3-9-6(5)7-4-8-9/h2,4H,3H2,1H3
