19
gdb 126233	1.86325	1.75463	0.9748	3.6623	79.09	-0.2064	0.0219	0.2283	1240.9368	0.15855	-419.222734	-419.213067	-419.212123	-419.25807	35.005	
C	 0.0444417093	 1.6250865221	 0.0043011149	-0.365233
C	 0.0030696343	 0.0860864694	 0.000384776	-0.319853
C	-1.3822961814	-0.4873192346	 0.0168328042	 0.002487
C	-2.1677873196	-0.7866201755	 1.0980324928	 0.398539
N	-1.9833738983	-0.6367732418	 2.4550208993	-0.595903
O	-3.3562994958	-1.2650579297	 0.7143265273	-0.22081
N	-3.3948284314	-1.2966288288	-0.6993457385	-0.232795
C	-2.2273574476	-0.8339369407	-1.080763785	 0.340351
C	-1.9202868157	-0.735785396	-2.5413963576	-0.501727
H	 1.0762031558	 1.9916869784	-0.0061698591	 0.110142
H	-0.4690240222	 2.032904682	-0.8719787488	 0.122176
H	-0.4526512764	 2.0273586438	 0.8924980911	 0.123611
H	 0.5391935249	-0.2870391627	-0.8804072482	 0.108057
H	 0.5693141371	-0.2886787699	 0.8646359381	 0.089447
H	-1.0155468359	-0.6432752415	 2.7437136227	 0.260616
H	-2.5533905264	-1.2575227535	 3.0134328309	 0.265008
H	-1.7197611983	 0.2999187557	-2.8355436326	 0.134264
H	-1.033515729	-1.3257236556	-2.7976608796	 0.132639
H	-2.7650886534	-1.1062825811	-3.1251270079	 0.148983
22.9922	123.5167	152.0898	176.9677	188.3511	249.1538	268.3651	296.9451	368.2641	420.2416	490.3268	576.668	615.6215	657.5276	681.8644	751.4365	765.1761	802.3823	912.6726	966.2156	1004.4986	1025.9997	1063.4369	1070.2907	1087.1083	1158.4132	1259.9808	1299.1373	1357.9019	1368.1003	1408.7442	1410.4183	1471.0988	1481.4089	1484.5999	1490.4698	1496.6903	1507.9945	1553.4353	1633.3978	1687.1798	3004.6778	3033.9839	3037.9947	3049.2469	3091.9275	3104.8735	3109.7164	3137.4641	3557.7775	3660.6291
CCC1=C(N)ON=C1C	CCc1c(N)onc1C	
InChI=1S/C6H10N2O/c1-3-5-4(2)8-9-6(5)7/h3,7H2,1-2H3	InChI=1S/C6H10N2O/c1-3-5-4(2)8-9-6(5)7/h3,7H2,1-2H3
