16
gdb 94970	3.59709	1.38936	1.19003	2.9726	65.3	-0.263	0.0089	0.2719	1027.4423	0.12517	-475.011337	-475.003778	-475.002834	-475.043556	28.608	
O	 0.032584903	 1.31571154	 0.0736099438	-0.435743
C	-0.0451984121	-0.0939409467	-0.0486492578	 0.094248
C	 0.5075143159	-0.8422523221	 1.1805141754	-0.134467
O	-0.5173698457	-0.774605609	 2.1703290796	-0.246386
C	-1.7478575736	-0.8735320282	 1.4978577871	-0.007533
C	-1.5333886487	-0.4235747864	 0.0303677253	 0.073905
O	-1.8469498331	-1.7697246299	-0.4388267498	-0.274371
C	-2.0707303983	-2.2270629818	 0.8527949282	 0.401093
N	-2.4111683199	-3.35582269	 1.2702390402	-0.540941
H	 0.9460818747	 1.5584883644	 0.2526084061	 0.291212
H	 0.4029580587	-0.4548048115	-0.9841501839	 0.089076
H	 0.7328589366	-1.8861355602	 0.9174705587	 0.115661
H	 1.4090660865	-0.3849516253	 1.5976859222	 0.110478
H	-2.5319198374	-0.4296108065	 2.1096695825	 0.120571
H	-2.1746530641	 0.329745038	-0.4244951661	 0.111382
H	-2.5261818326	-4.0230104448	 0.5044558384	 0.231816
90.9332	141.132	222.5591	264.4796	283.1017	364.4235	430.5565	459.4785	636.7383	701.5337	768.7542	814.4367	857.5648	862.9598	879.658	943.0739	971.485	989.8238	998.471	1010.8018	1041.753	1119.0022	1138.2175	1177.579	1203.6031	1227.3738	1242.194	1285.1069	1311.4574	1337.4017	1353.6792	1378.9467	1419.7226	1499.0952	1827.4752	3001.8746	3025.1127	3093.333	3131.8567	3141.0877	3468.3839	3827.1487
OC1COC2C1OC2=N	O[C@H]1CO[C@H]2[C@@H]1O[C]2[NH]	
InChI=1S/C5H7NO3/c6-5-4-3(9-5)2(7)1-8-4/h2-4,6-7H,1H2	InChI=1S/C5H7NO3/c6-5-4-3(9-5)2(7)1-8-4/h2-4,6-7H,1H2/t2-,3+,4-/m0/s1
