22
gdb 84017	2.08024	1.68667	1.42652	0.3001	82.04	-0.2134	0.0884	0.3018	1091.9164	0.194992	-404.32824	-404.319431	-404.318487	-404.360985	34.631	
C	-0.2547529403	 1.5500929554	-0.0072448316	-0.440736
C	-0.0317238765	 0.0538655203	 0.0229361714	-0.02263
N	 1.2597095582	-0.5910939707	-0.2909110579	-0.152719
C	 2.4309487227	 0.2557783649	-0.5622093783	-0.156724
C	 3.2022107622	 0.6211630291	 0.7039269969	-0.085122
O	 2.3247312841	 1.1413539531	 1.688923638	-0.235753
C	 1.4611705724	 0.1306408834	 2.1778914341	-0.158841
C	 0.7358982071	-0.6559951844	 1.0873290183	 0.278878
C	 0.291245464	-2.0325715032	 1.5398106469	-0.455525
H	 0.5191542937	 2.1032564917	 0.5256331195	 0.146304
H	-0.2954750403	 1.9148746769	-1.0407215318	 0.118549
H	-1.221410975	 1.7819377255	 0.4532872043	 0.117114
H	-0.8643662035	-0.5012109662	-0.4117098449	 0.078363
H	 3.0934629093	-0.2891370057	-1.2464585186	 0.101464
H	 2.124298156	 1.1727391467	-1.078886792	 0.10649
H	 3.7289462296	-0.2624335644	 1.1013418508	 0.091708
H	 3.9463787182	 1.3961286502	 0.4986843741	 0.108884
H	 2.0432884093	-0.581139281	 2.7884147545	 0.091522
H	 0.7461692244	 0.6274037592	 2.8424933496	 0.113634
H	-0.3966855123	-1.9635822684	 2.3913344498	 0.112411
H	-0.2178087098	-2.5556981139	 0.7272036406	 0.12764
H	 1.1489275465	-2.6409922086	 1.8487906362	 0.115092
138.4886	178.8706	184.4676	217.7085	247.9023	276.1183	334.6178	353.046	448.1624	463.5475	497.6104	555.8263	599.4832	727.6814	746.065	791.6113	876.6542	920.8127	942.1937	994.1696	1012.651	1022.6961	1062.9684	1104.0212	1118.0307	1138.1169	1148.6605	1157.0674	1169.3699	1253.4366	1268.9417	1276.2428	1321.2423	1362.7021	1379.4687	1384.9729	1405.4353	1410.5254	1418.0491	1455.4748	1485.2985	1491.6483	1493.13	1497.8546	1498.6827	1510.4776	1517.2768	2956.8048	2969.1994	3019.7464	3024.7501	3030.0969	3056.6007	3065.1446	3082.6643	3084.3085	3084.6322	3087.9215	3123.3387	3146.9939
CC1N2CCOCC12C	C[C@H]1N2CCOC[C@@]12C	
InChI=1S/C7H13NO/c1-6-7(2)5-9-4-3-8(6)7/h6H,3-5H2,1-2H3	InChI=1S/C7H13NO/c1-6-7(2)5-9-4-3-8(6)7/h6H,3-5H2,1-2H3/t6-,7+,8?/m1/s1
