17
gdb 43277	3.22314	1.68825	1.35271	3.3634	78.9	-0.2342	-0.0544	0.1797	957.6749	0.138011	-384.636502	-384.630016	-384.629072	-384.667171	26.993	
O	-0.1499745604	-0.0554796653	-0.3430729061	-0.321188
C	-0.0556598828	 1.1193727888	-0.0874850751	 0.311202
C	-1.2106712305	 2.0836606505	 0.1011449622	-0.165547
C	-0.8213259363	 3.2462508081	 0.6613884973	-0.233927
C	 0.6393940007	 3.1417587858	 0.9584137191	 0.31123
C	 2.0537669965	 3.7973959816	 0.8925010386	-0.30677
C	 2.2924085255	 2.2505954407	 1.1287572845	-0.086712
C	 1.1771182422	 2.3228360491	 2.1935485037	-0.243847
C	 1.178173756	 2.0228816786	 0.0516611596	-0.091536
H	-2.2277793826	 1.7906485253	-0.1312812193	 0.118632
H	-1.4802755404	 4.0588456969	 0.9490263073	 0.119783
H	 2.3624445915	 4.202032046	-0.0743897986	 0.103019
H	 2.3410676034	 4.4550275002	 1.7170711747	 0.099041
H	 3.2565392172	 1.7497093052	 1.210118285	 0.085069
H	 1.3919528484	 2.8967760807	 3.0980355689	 0.095343
H	 0.6447490764	 1.3956609939	 2.4191330159	 0.111325
H	 1.4447006953	 2.366230394	-0.9562271477	 0.094884
138.2878	235.2258	333.2763	382.3636	482.094	557.6842	589.9341	608.3743	655.1013	742.5809	755.2378	806.9637	852.6063	894.3471	900.8743	950.6087	963.6178	978.173	997.2711	1013.079	1028.6221	1083.2634	1101.84	1130.1839	1135.7232	1150.0559	1165.8432	1198.4309	1211.385	1228.5539	1258.5676	1344.8394	1356.7122	1497.0829	1534.2404	1589.3899	1820.046	3026.6063	3053.895	3059.0901	3119.9451	3123.7452	3127.6413	3182.2315	3214.2291
O=C1C=CC23CC(C2)C13	O=C1C=C[C@@]23C[C@@H](C2)[C@@H]13	
InChI=1S/C8H8O/c9-6-1-2-8-3-5(4-8)7(6)8/h1-2,5,7H,3-4H2	InChI=1S/C8H8O/c9-6-1-2-8-3-5(4-8)7(6)8/h1-2,5,7H,3-4H2/t5-,7-,8+/m0/s1
