16
gdb 55991	3.56912	0.98782	0.82582	2.8064	66.86	-0.2576	0.0236	0.2812	1338.2707	0.125174	-471.26034	-471.251407	-471.250463	-471.295137	31.993	
N	 0.0363151683	 1.3361900509	 0.0236115356	-0.565736
C	-0.1440782079	 0.0057741308	 0.3629877131	 0.457753
O	 0.3766218328	-0.5152257982	 1.3314719396	-0.3892
N	-0.9598107596	-0.6971564981	-0.5046732209	-0.3635
C	-0.9987253532	-2.1320517071	-0.3970359252	-0.082731
C	-1.9875540089	-2.7706178819	 0.6246488278	-0.158781
N	-2.6463339428	-3.4061687974	-0.5272017217	-0.328984
C	-1.8929428057	-2.7844001239	-1.4845654898	 0.400635
O	-1.9440819847	-2.7270927572	-2.685218308	-0.36649
H	 0.4329057935	 1.8843105122	 0.7712244069	 0.263502
H	-0.6945483192	 1.8003135814	-0.4936499004	 0.251909
H	-1.0881037844	-0.339087951	-1.440660254	 0.255373
H	 0.0019942782	-2.56940596	-0.3272060618	 0.123726
H	-1.5439467227	-3.4704505159	 1.336480371	 0.124561
H	-2.6081685146	-2.0373217445	 1.145851193	 0.122267
H	-3.4799849291	-3.9695751199	-0.6057784951	 0.255698
36.8743	88.7143	120.4983	149.9029	223.6135	344.9797	389.9415	404.0215	471.1993	516.044	522.8984	551.3946	665.4562	704.9902	755.1858	780.2539	881.2593	938.2341	981.3941	1014.0794	1066.5849	1101.9615	1153.1738	1172.4672	1190.1503	1231.0886	1294.7673	1327.9574	1371.2166	1402.6884	1515.8178	1519.4456	1628.0315	1802.2617	1892.886	3061.9313	3065.93	3119.3809	3580.3385	3596.459	3612.8419	3696.6656
NC(=O)NC1CNC1=O	NC(=O)N[C@H]1CNC1=O	
InChI=1S/C4H7N3O2/c5-4(9)7-2-1-6-3(2)8/h2H,1H2,(H,6,8)(H3,5,7,9)	InChI=1S/C4H7N3O2/c5-4(9)7-2-1-6-3(2)8/h2H,1H2,(H,6,8)(H3,5,7,9)/t2-/m0/s1
