23
gdb 93674	2.46594	1.36988	1.18828	2.5236	81.33	-0.237	0.0623	0.2993	1206.1896	0.204095	-425.44341	-425.433299	-425.432355	-425.477812	38.739	
C	-0.4126067338	 1.4266512819	 0.0004890254	-0.445365
C	 0.082843042	-0.0161183975	 0.0462722389	 0.008362
C	 0.9575040707	-0.4462449649	-1.1344382434	-0.080689
O	 1.6043681496	-1.6348321263	-0.7120660329	-0.306453
C	 1.7315041428	-1.6519936532	 0.7301044136	 0.371587
C	 1.0065640518	-2.9066194676	 1.2331498818	-0.414593
C	 3.2182937107	-1.7056214251	 1.0827458792	-0.409991
C	 1.0174914913	-0.3633530432	 1.2265211574	 0.047872
O	 1.9867130213	 0.6518970849	 1.4596708744	-0.435222
H	 0.4241675147	 2.1296951248	-0.0582851885	 0.123167
H	-1.0454762739	 1.5948879173	-0.8766500041	 0.122828
H	-1.0113870252	 1.6752361083	 0.8843859222	 0.112085
H	-0.7796637725	-0.6923493901	 0.0971921446	 0.079224
H	 0.386897818	-0.6674509125	-2.0424589055	 0.098468
H	 1.6903347111	 0.3418569619	-1.3716855549	 0.091351
H	 1.3903917451	-3.7853628148	 0.707676329	 0.124556
H	 1.1622880739	-3.0492436774	 2.3073727885	 0.109906
H	-0.0698830103	-2.8463110188	 1.04446265	 0.108993
H	 3.7438689102	-0.8429810608	 0.6728684958	 0.130455
H	 3.3673583142	-1.7130631389	 2.1666955156	 0.108266
H	 3.6541904315	-2.6175700152	 0.6643294374	 0.110783
H	 0.4560508093	-0.5658573926	 2.1488377106	 0.058464
H	 1.5317280476	 1.4152399196	 1.827184575	 0.285947
53.9508	150.0991	206.8886	216.1119	234.4595	249.9493	266.6155	312.7046	323.8146	339.0945	361.7463	411.8472	493.2493	523.8558	624.0261	641.0033	795.9904	852.2642	863.0333	923.5557	932.4557	952.2404	973.4112	1001.8951	1027.6821	1088.7567	1099.9788	1141.8974	1153.6301	1175.2812	1212.2627	1217.3192	1262.2661	1266.5126	1315.7263	1338.337	1346.7672	1395.7835	1399.9228	1407.4285	1412.9447	1430.4629	1474.4351	1480.693	1495.5492	1500.0542	1502.4689	1510.6748	1518.2196	2973.8214	3003.2973	3029.1297	3031.2709	3036.3895	3047.9899	3068.3417	3093.5966	3105.4457	3106.8149	3112.0457	3119.2977	3148.2901	3832.1344
CC1COC(C)(C)C1O	C[C@H]1COC(C)(C)[C@H]1O	
InChI=1S/C7H14O2/c1-5-4-9-7(2,3)6(5)8/h5-6,8H,4H2,1-3H3	InChI=1S/C7H14O2/c1-5-4-9-7(2,3)6(5)8/h5-6,8H,4H2,1-3H3/t5-,6-/m0/s1
