16
gdb 127368	2.47752	1.88815	1.0787	2.6442	77.21	-0.2111	-0.0237	0.1874	1061.7851	0.127318	-430.257258	-430.249229	-430.248284	-430.289944	29.954	
C	-0.3999986482	 1.3774002439	 0.0078819564	-0.330456
N	-0.0276863614	-0.0320410991	-0.0088269499	-0.130751
C	 0.0165560804	-0.7394772477	-1.1865367803	 0.116051
N	 0.3306455288	-1.9769394309	-1.3105114289	-0.255238
N	 0.6453176817	-2.6212570288	-0.1391148783	-0.333024
C	 0.657874974	-2.0878521596	 1.1271463197	 0.343728
N	 0.9507516866	-2.689436049	 2.2175485941	-0.546005
C	 0.2815400446	-0.6349995451	 1.2073562221	 0.370109
N	 0.2353174804	 0.0363123056	 2.2865059309	-0.537001
H	 0.4114811346	 1.9761808282	 0.4290737336	 0.157563
H	-0.6106344175	 1.7003412282	-1.0125475478	 0.128678
H	-1.2817501072	 1.5264043239	 0.6361765309	 0.157556
H	-0.2391903429	-0.1912085761	-2.0846057699	 0.13938
H	 0.8878440087	-3.5910592533	-0.2672934204	 0.261492
H	 1.1927828631	-3.6692103113	 2.0671819107	 0.209133
H	 0.4949750443	-0.588253039	 3.0523379471	 0.248783
98.1183	133.4951	140.1486	212.3816	331.7338	371.5517	473.3379	488.6437	512.1066	539.4609	573.0823	603.3571	697.6783	776.3248	816.7295	884.1498	887.2061	922.0701	993.2692	1072.1198	1101.9633	1156.1747	1160.6115	1218.4216	1337.9782	1375.2486	1395.1137	1438.5518	1457.7694	1466.1189	1487.9217	1516.1125	1698.819	1710.1746	1716.7069	3054.1571	3120.0152	3149.7262	3215.8268	3473.3886	3477.1298	3631.1744
CN1C=NNC(=N)C1=N	Cn1cn[nH]c([NH])c1[NH]	
InChI=1S/C4H7N5/c1-9-2-7-8-3(5)4(9)6/h2,6H,1H3,(H2,5,8)	InChI=1S/C4H7N5/c1-9-2-7-8-3(5)4(9)6/h2,6H,1H3,(H2,5,8)
