18
gdb 9327	7.61987	0.72618	0.67393	4.0192	69.91	-0.2474	-0.0916	0.1557	1636.0763	0.150108	-384.962446	-384.952798	-384.951854	-384.998209	32.424	
C	 0.0922559274	 1.5507894825	 0.0089598767	-0.380765
C	 0.0113499065	 0.0220071606	 0.0018659294	-0.173172
C	-1.4302462292	-0.4961811592	 0.0129819951	-0.157634
C	-1.5191739252	-2.0205784797	 0.0059976415	-0.326405
C	-2.9348498786	-2.5553791183	 0.0168781603	 0.297922
O	-3.9265525297	-1.8714322732	 0.0302673284	-0.265146
C	-3.0601279408	-4.1015516117	 0.0096906549	 0.092097
O	-4.1186450507	-4.6643479481	 0.0165619995	-0.202713
H	 1.1308740792	 1.8950191514	 0.0008157298	 0.114124
H	-0.4078870765	 1.9768082178	-0.867602062	 0.118338
H	-0.391020472	 1.9677155032	 0.8992474797	 0.118339
H	 0.5327665808	-0.369277537	-0.8820801726	 0.095406
H	 0.5495299668	-0.3783056754	 0.8716086908	 0.095406
H	-1.9601289895	-0.1129491967	 0.8929561353	 0.114914
H	-1.976807615	-0.1039678789	-0.8527218172	 0.1149
H	-1.0070428686	-2.4475049151	-0.8709405166	 0.129329
H	-0.9903883078	-2.45640924	 0.8685616542	 0.129347
H	-2.0945533971	-4.6574928722	-0.0023685573	 0.085714
43.8987	70.091	95.7511	101.3976	145.4202	240.7985	242.1132	295.3241	342.853	459.5376	464.7205	721.7271	724.7322	773.1322	854.7523	887.9638	919.5223	978.0965	1008.672	1053.706	1073.1137	1120.1587	1139.214	1231.9168	1287.3979	1308.6843	1329.7183	1370.5874	1402.1442	1409.4175	1415.518	1443.2102	1483.8042	1494.8143	1499.3698	1511.6148	1813.0362	1846.6398	2869.2243	2993.1462	3011.7864	3015.3848	3031.9796	3038.3832	3040.7812	3078.9644	3100.0114	3105.3753
CCCCC(=O)C=O	CCCCC(=O)C=O	
InChI=1S/C6H10O2/c1-2-3-4-6(8)5-7/h5H,2-4H2,1H3	InChI=1S/C6H10O2/c1-2-3-4-6(8)5-7/h5H,2-4H2,1H3
