16
gdb 14916	4.6957	1.49459	1.20657	0.3579	67.38	-0.2397	0.0299	0.2696	975.5928	0.130725	-383.694393	-383.687112	-383.686168	-383.725804	27.76	
C	-0.0017183475	-1.1883095265	-0.016225297	-0.414215
C	 0.0327839303	 0.0121470221	-0.0119899901	 0.295166
C	 0.0194103398	 1.4678731778	 0.0293220088	-0.066659
C	-0.7062507598	 1.9897805877	 1.2836632915	-0.091817
O	-0.6663132071	 3.4029977303	 1.322761109	-0.249904
C	 0.6714670195	 3.8797028959	 1.3045009591	-0.079825
C	 1.3957992486	 3.370361651	 0.0647081606	-0.07393
O	 1.3626582588	 1.9502624829	 0.0138846868	-0.263132
H	-0.0214702783	-2.2500641299	-0.0318978359	 0.200237
H	-0.5141044184	 1.8582454991	-0.8547972749	 0.101118
H	-1.7589778253	 1.6967740393	 1.2671060883	 0.120278
H	-0.2255102758	 1.5557429868	 2.174112241	 0.104417
H	 0.6182089635	 4.9724241261	 1.3088448833	 0.110609
H	 1.2068650663	 3.546383984	 2.2082207545	 0.098032
H	 0.9249385294	 3.7948825714	-0.8369963486	 0.097038
H	 2.4517267859	 3.655786652	 0.0775017438	 0.112586
115.988	147.516	257.7541	274.4307	390.7806	415.4741	455.1158	511.2826	544.0491	597.9498	630.4027	678.4741	844.4773	885.3578	916.2331	989.151	1029.6167	1049.4364	1104.0367	1125.4725	1138.5384	1145.0627	1247.5744	1284.6514	1306.1266	1325.4375	1366.7671	1378.1057	1408.7701	1418.6303	1478.6277	1484.5427	1492.7323	2245.5824	2954.231	2974.6861	2984.8739	2993.9558	3089.703	3091.3982	3104.2259	3504.3267
C#CC1COCCO1	C#C[C@H]1COCCO1	
InChI=1S/C6H8O2/c1-2-6-5-7-3-4-8-6/h1,6H,3-5H2	InChI=1S/C6H8O2/c1-2-6-5-7-3-4-8-6/h1,6H,3-5H2/t6-/m0/s1
