17
gdb 32380	6.50146	0.8475	0.75511	1.6698	90.54	-0.1772	0.0046	0.1818	1472.9157	0.13613	-380.867915	-380.858955	-380.858011	-380.901378	33.712	
C	-0.0295165406	 1.4427170067	-0.0996235997	-0.321833
N	 0.032057542	 0.01900193	 0.1718373557	-0.391896
C	-1.1586785758	-0.7075882151	 0.0844194551	 0.337506
C	-2.4500441244	-0.2022946561	 0.0605739597	-0.175128
N	-3.3163696643	-1.2685991337	 0.0351673119	-0.334167
C	-2.6118912921	-2.4494332359	 0.0276170316	 0.220303
C	-1.2630776695	-2.1234478236	 0.0609040706	-0.390243
C	-3.2557208506	-3.7008508618	-0.0061830446	 0.264723
C	-3.8211137151	-4.7656764775	-0.0364316929	-0.455517
H	 0.979374614	 1.8606934145	-0.064841772	 0.120273
H	-0.4801427612	 1.6899125814	-1.0758873558	 0.104564
H	-0.6213457993	 1.9416977382	 0.676423047	 0.128165
H	 0.7935041737	-0.4375016972	-0.3096825756	 0.2317
H	-2.8138372076	 0.8107835943	 0.067440517	 0.114812
H	-4.3186753195	-1.2095006844	 0.0124435502	 0.264029
H	-0.4501022554	-2.8326269206	 0.0742091074	 0.09585
H	-4.3089890643	-5.708093559	-0.0613925658	 0.186859
73.8666	129.5647	151.0917	200.7594	234.4712	318.211	394.4521	401.8575	469.2968	506.7247	526.8716	550.0622	626.9384	639.7013	675.2813	678.204	694.882	732.5671	797.8936	978.0428	997.4571	1081.3267	1135.267	1145.7225	1161.2988	1202.3602	1270.293	1332.974	1400.556	1448.8309	1459.1106	1480.8812	1493.9463	1519.8688	1547.6931	1631.4075	2222.8261	2959.3809	3054.0529	3115.0978	3253.6368	3278.3425	3503.221	3584.9924	3693.0743
CNC1=CNC(=C1)C#C	CNc1c[nH]c(c1)C#C	
InChI=1S/C7H8N2/c1-3-6-4-7(8-2)5-9-6/h1,4-5,8-9H,2H3	InChI=1S/C7H8N2/c1-3-6-4-7(8-2)5-9-6/h1,4-5,8-9H,2H3
