20
gdb 76721	3.30642	0.92293	0.82211	5.2662	77.89	-0.2476	0.0352	0.2828	1453.5625	0.169653	-440.259984	-440.250007	-440.249063	-440.295395	35.85	
C	 0.0909468392	 1.3690468269	-0.4155218949	-0.418945
C	 0.135406646	-0.0684774089	 0.0609263708	-0.069176
C	 1.4502870486	-0.7440351138	 0.3866818508	 0.064713
O	 2.6271816979	 0.0178957004	 0.3941210585	-0.411544
C	 0.4714461702	-0.4527068638	 1.4944507053	-0.057871
C	 0.7744567823	 0.5787838797	 2.5564219706	-0.113217
O	 1.3084323993	-0.0280987497	 3.738762173	-0.187988
C	 2.6211568554	-0.3419403967	 3.7129679962	 0.106941
N	 3.1440600268	-0.9137746282	 4.711339737	-0.447133
H	 0.9435926026	 1.9456713474	-0.0500484607	 0.128536
H	 0.1090161118	 1.4097731457	-1.5103771338	 0.116862
H	-0.8244400642	 1.8711559055	-0.0858779002	 0.12567
H	-0.6044951966	-0.7102596513	-0.4108239573	 0.091374
H	 1.5903181263	-1.7827226192	 0.0906544978	 0.093612
H	 2.8972814131	 0.1710361786	-0.5174118596	 0.294656
H	-0.0622903024	-1.3110102182	 1.8923918816	 0.105063
H	 1.45951671	 1.3461972699	 2.1847204764	 0.120597
H	-0.1444113799	 1.0691693934	 2.8886732547	 0.119845
H	 3.1258491063	-0.0533648773	 2.7833829952	 0.114835
H	 4.1350657273	-1.0657577404	 4.5335700488	 0.223168
59.4112	78.3153	138.209	147.377	191.287	203.9886	259.367	301.879	303.5354	365.3869	461.5081	552.0554	583.454	656.2071	764.0504	804.735	827.0967	898.3895	940.5945	973.7276	995.9278	1024.8113	1062.2235	1077.9875	1116.3003	1131.7093	1153.083	1173.0108	1178.7261	1249.2443	1259.3641	1288.0849	1327.4654	1370.8833	1381.0568	1410.0985	1423.3112	1432.6341	1456.406	1498.1514	1503.7759	1508.728	1740.387	3035.6453	3056.9632	3064.8076	3090.5279	3104.8596	3106.8518	3122.1622	3138.7233	3156.2049	3510.9963	3807.4826
CC1C(O)C1COC=N	C[C@H]1[C@@H](O)[C@H]1CO[CH][NH]	
InChI=1S/C6H11NO2/c1-4-5(6(4)8)2-9-3-7/h3-8H,2H2,1H3	InChI=1S/C6H11NO2/c1-4-5(6(4)8)2-9-3-7/h3-8H,2H2,1H3/t4-,5+,6-/m1/s1
