21
gdb 114670	3.27781	1.09402	1.00542	0.8313	77.74	-0.2441	0.0718	0.3159	1261.4766	0.183738	-424.201108	-424.192488	-424.191544	-424.234199	33.765	
O	-0.1654503415	 1.4393734195	-0.0462415544	-0.422198
C	 0.008790544	 0.0339274594	 0.0827923337	-0.113008
C	-1.3662808074	-0.6070639348	-0.0282947285	 0.051608
C	-2.0698680667	-0.4284069909	-1.4229251855	-0.227699
C	-2.3650948239	-1.9037671715	-1.7510854008	-0.05839
C	-2.8619622287	-2.4446829463	-0.3756964884	-0.267266
C	-1.3913992191	-2.1479429666	 0.0508756168	-0.086001
C	-0.9942958056	-2.5672680634	-1.4063666091	 0.190168
O	-0.8428408598	-3.9425454245	-1.6637286483	-0.459323
H	 0.7022253565	 1.8531642095	-0.0272477998	 0.286334
H	 0.6829810697	-0.3511923168	-0.6977050134	 0.08716
H	 0.4569762472	-0.2218993006	 1.0570620427	 0.083898
H	-1.9830511756	-0.1777510797	 0.7687987287	 0.078456
H	-2.975626124	 0.1794881232	-1.3582899909	 0.100292
H	-1.4076908828	 0.0413354504	-2.1563553177	 0.104114
H	-2.8813085642	-2.1256746738	-2.6858785061	 0.060476
H	-3.6599339686	-1.8960853786	 0.1330618759	 0.094986
H	-3.1171497418	-3.5078460744	-0.3802454726	 0.082937
H	-0.932720707	-2.621002914	 0.9207880958	 0.059159
H	-0.1051947574	-2.1013733266	-1.8388764037	 0.074557
H	-1.6063018234	-4.4160059895	-1.3188188446	 0.279741
90.2229	143.251	202.7191	219.8928	273.4701	284.8234	343.9341	388.794	437.0028	478.7547	558.9185	635.9186	814.615	827.939	837.6407	876.3832	885.8318	943.4957	945.9866	981.3761	1002.9409	1025.7057	1038.0882	1069.1415	1076.6766	1098.0726	1114.634	1139.973	1176.8151	1201.3001	1224.2915	1241.376	1246.6131	1260.13	1263.2563	1285.2003	1290.9997	1314.4042	1321.8679	1378.9955	1444.7508	1463.8982	1497.2092	1521.9975	1524.9544	2963.2778	2994.6886	3043.4944	3052.8796	3057.7261	3077.8397	3099.5835	3101.9797	3102.7272	3110.8619	3820.9079	3831.4783
OCC1CC2CC1C2O	OC[C@H]1C[C@@H]2C[C@H]1[C@H]2O	
InChI=1S/C7H12O2/c8-3-5-1-4-2-6(5)7(4)9/h4-9H,1-3H2	InChI=1S/C7H12O2/c8-3-5-1-4-2-6(5)7(4)9/h4-9H,1-3H2/t4-,5-,6-,7+/m1/s1
