23
gdb 101573	4.37752	0.67384	0.6442	1.5026	83.31	-0.2676	0.018	0.2857	1864.3302	0.202975	-425.475335	-425.46399	-425.463046	-425.513164	39.509	
C	 0.1325676682	 1.5242164295	-0.020352866	-0.392411
C	-0.0448609506	 0.0043759363	 0.0500419127	-0.174133
C	-1.4962105854	-0.4810207251	-0.1221767087	 0.058427
C	-2.0755244134	-0.1318170668	-1.5008180457	-0.39888
C	-1.5777349918	-1.9925761848	 0.1377224372	-0.337699
C	-2.9915397467	-2.507579139	 0.3209569281	 0.44418
O	-3.9643245896	-1.8368272354	 0.5637435135	-0.360161
O	-3.0299923805	-3.8522196943	 0.2055316739	-0.231225
C	-4.3162047038	-4.4483860876	 0.4124798797	-0.239076
H	 1.1703385374	 1.8046139255	 0.1854558894	 0.111687
H	-0.1240837826	 1.9229876887	-1.0063004002	 0.119588
H	-0.5007491043	 2.0294211724	 0.7175859851	 0.1158
H	 0.5887939674	-0.4744986062	-0.7098787429	 0.09107
H	 0.32842729	-0.3495680778	 1.0200277375	 0.089684
H	-2.1162381501	 0.0102588053	 0.6383802983	 0.092112
H	-1.4794689006	-0.5867315925	-2.3020056639	 0.105111
H	-3.1037787069	-0.4910691145	-1.5910746722	 0.130355
H	-2.0898310025	 0.9482557985	-1.6692493743	 0.116014
H	-1.0979308063	-2.5657973891	-0.6637908164	 0.122937
H	-1.0323326161	-2.2531282597	 1.0550389383	 0.126436
H	-4.1707348172	-5.5211755588	 0.2845915196	 0.131591
H	-4.6870239819	-4.2298172517	 1.4172725053	 0.138939
H	-5.0387988624	-4.0708105028	-0.3154804485	 0.139653
27.5658	64.859	92.3937	119.9915	130.6301	179.7299	215.9717	248.2748	270.8917	284.0145	332.9499	364.856	418.7587	513.8198	598.0605	704.5308	775.4073	834.1523	895.028	902.9339	934.0911	975.6604	1013.4726	1031.6294	1054.4923	1131.6193	1152.4091	1171.8047	1179.3571	1205.6565	1218.6921	1251.5335	1289.104	1312.5883	1371.4374	1377.1767	1394.5129	1411.7375	1414.2806	1453.562	1473.2323	1482.0155	1484.6354	1497.0453	1497.802	1498.5922	1507.8236	1518.0226	1814.4876	3005.3054	3024.6825	3025.4873	3031.9387	3034.3126	3044.0089	3050.7617	3072.7993	3098.9927	3101.0905	3108.7793	3122.7454	3124.2411	3157.1752
CCC(C)CC(=O)OC	CC[C@@H](C)CC(=O)OC	
InChI=1S/C7H14O2/c1-4-6(2)5-7(8)9-3/h6H,4-5H2,1-3H3	InChI=1S/C7H14O2/c1-4-6(2)5-7(8)9-3/h6H,4-5H2,1-3H3/t6-/m1/s1
