17
gdb 38804	3.27207	1.94997	1.68139	0.8087	70.04	-0.227	0.0116	0.2386	840.6911	0.141485	-417.990433	-417.984633	-417.983688	-418.020286	24.922	
C	 0.029215792	 1.5896039041	 0.105072337	-0.226977
C	 1.546181759	 1.8183663442	 0.0031581897	-0.034294
N	 2.0077843229	 0.8274556003	 1.0490957067	-0.329798
C	 1.5775399345	-0.180046555	 0.0204381405	-0.073067
C	 1.9780925549	 0.8009160278	-1.1103682914	 0.03188
N	 1.2965233439	 0.7239960116	-2.3854750579	-0.287557
C	 0.1897625168	 0.103433103	-2.3709242029	 0.118207
O	-0.4728352883	-0.3949566151	-1.3004027601	-0.239457
C	 0.0521152439	 0.0389473776	-0.0273798758	 0.126739
H	-0.357036974	 1.921743183	 1.0697737204	 0.116391
H	-0.5456740375	 2.0559354837	-0.697031372	 0.118347
H	 1.9237379937	 2.8388288232	 0.0613600693	 0.075707
H	 3.0292079402	 0.8292733707	 1.0528020502	 0.21976
H	 1.9388397577	-1.204586095	 0.0956450169	 0.077117
H	 3.0595210358	 0.8312516712	-1.26599386	 0.081197
H	-0.3631857921	-0.0928088754	-3.2873582967	 0.127304
H	-0.5222866335	-0.49697038	 0.7254358861	 0.0985
249.8246	314.0074	377.1554	495.0185	501.5481	565.6625	580.7389	730.3817	801.8671	824.1901	842.5346	866.6385	900.2819	931.6124	956.6868	971.9003	981.046	986.3819	1014.1921	1032.9553	1074.7863	1100.2511	1138.1351	1157.891	1175.593	1195.5216	1214.56	1231.1638	1286.8831	1296.9986	1336.5166	1343.2023	1363.4213	1381.447	1404.4552	1478.672	1697.1332	3079.5728	3083.8243	3124.898	3128.7279	3136.1688	3143.2929	3164.1972	3442.8674
C1C2NC3C2N=COC13	C1[C@H]2N[C@@H]3[C@H]2N=CO[C@H]13	
InChI=1S/C6H8N2O/c1-3-5-6(8-3)4(1)9-2-7-5/h2-6,8H,1H2	InChI=1S/C6H8N2O/c1-3-5-6(8-3)4(1)9-2-7-5/h2-6,8H,1H2/t3-,4-,5+,6+/m1/s1
