21
gdb 83513	2.93655	1.41712	1.35773	1.7589	82.98	-0.2299	0.0187	0.2485	1094.8302	0.183784	-387.100644	-387.092447	-387.091503	-387.132867	32.672	
C	-0.1066470466	 1.5340125923	-0.0268181736	-0.430385
C	 0.0377997184	 0.0162810348	-0.0089916509	 0.030534
C	 1.1005462848	-0.5814359916	-0.9561116666	 0.056943
O	 2.3372955075	-0.0201937409	-0.4121036355	-0.27912
C	 2.1842682269	-0.0626094344	 1.010118115	-0.080695
C	 0.7500467153	-0.6371722065	 1.2167441298	-0.158278
C	 0.8398776792	-2.0862032672	 0.7534933158	 0.341492
C	 0.8186385686	-3.2587231731	 1.6765995371	-0.513556
C	 1.0500108057	-2.0462580924	-0.5708360223	-0.191479
H	 0.8640254908	 2.0348755894	-0.0317582801	 0.135753
H	-0.648315524	 1.8538855917	-0.9234702185	 0.114319
H	-0.6745681233	 1.8857403495	 0.8416013622	 0.110273
H	-0.9328945359	-0.4608980445	-0.1656306214	 0.073512
H	 1.0638031753	-0.3251240766	-2.0141455404	 0.067479
H	 2.9553982399	-0.7001497733	 1.4588744032	 0.094973
H	 2.2848349108	 0.9495103629	 1.4210785954	 0.09516
H	 0.3256128776	-0.4600155348	 2.2063494342	 0.0602
H	-0.1236709272	-3.3067734091	 2.2372046133	 0.125794
H	 0.9405857407	-4.1994384093	 1.1324317945	 0.126412
H	 1.6204912142	-3.1939756358	 2.4234983852	 0.128573
H	 1.2671029412	-2.8795900813	-1.2276965163	 0.092097
153.7664	166.0033	181.821	235.7308	270.5346	291.5689	356.5808	467.1024	503.1236	557.3782	634.3613	738.6732	765.2226	809.4295	815.7656	866.5293	882.7949	935.6552	945.4911	958.0143	991.1941	1014.9961	1038.2419	1057.4679	1078.5046	1090.3674	1119.2671	1150.7681	1197.2318	1216.2123	1254.5144	1266.0901	1285.8508	1290.7634	1333.9425	1363.4826	1379.1064	1406.4004	1413.7199	1478.5353	1486.0374	1490.5427	1501.4897	1524.0979	1684.7545	3014.7526	3015.9657	3035.1554	3051.9299	3060.5372	3075.8461	3092.5127	3103.4547	3108.33	3128.3837	3131.0578	3204.9633
CC1C2OCC1C(C)=C2	C[C@H]1[C@H]2OC[C@@H]1C(=C2)C	
InChI=1S/C8H12O/c1-5-3-8-6(2)7(5)4-9-8/h3,6-8H,4H2,1-2H3	InChI=1S/C8H12O/c1-5-3-8-6(2)7(5)4-9-8/h3,6-8H,4H2,1-2H3/t6-,7-,8+/m1/s1
