19
gdb 66763	2.44079	2.28307	1.80771	0.2797	81.67	-0.2309	0.0174	0.2483	877.6318	0.161394	-348.71368	-348.707058	-348.706113	-348.744061	28.637	
C	-0.0206526261	 1.5198528652	 0.0148720464	-0.526085
C	 0.0213379361	 0.0186788369	-0.0321053982	 0.353943
C	 0.5782623663	-0.8963559952	-1.1894685733	-0.178102
C	-0.4551722549	-1.9016040469	-0.7579271758	-0.068786
C	 0.9257420715	-1.8833456694	-0.1078722874	-0.068789
C	 0.7973439847	-0.8300732377	 1.0377116028	-0.116394
C	-0.2199415361	-1.1879402081	 2.0883114193	-0.091897
C	-1.4327605103	-1.2040085469	 1.5173990079	-0.091896
C	-1.278951475	-0.8575503794	 0.0603426687	-0.116398
H	 0.9853824915	 1.9487459821	-0.0557618734	 0.116325
H	-0.6160520168	 1.927545815	-0.8099497268	 0.116327
H	-0.4680772013	 1.8613662988	 0.955328265	 0.124819
H	 1.0267009811	-0.6803326816	-2.1481522831	 0.085169
H	-0.8252367025	-2.7686534339	-1.2892726018	 0.0827
H	 1.5896712387	-2.7367268491	-0.1524686742	 0.082699
H	 1.7543909659	-0.4252939385	 1.3710994663	 0.057735
H	 0.0155291114	-1.4656761368	 3.1091478617	 0.090446
H	-2.3633599538	-1.4971866201	 1.9893333715	 0.090447
H	-2.1542467701	-0.4770172744	-0.4687931554	 0.057735
219.3357	224.8098	270.7408	395.8802	409.6185	555.4252	593.0815	670.3324	724.1354	736.1498	807.8622	809.5023	810.6262	826.6421	846.2105	894.6133	920.1506	937.4808	946.4475	974.6697	976.9274	991.4365	1008.1497	1040.3183	1041.9642	1116.281	1131.5102	1139.6037	1156.7303	1186.3359	1193.4131	1239.4284	1259.0686	1289.6422	1350.8053	1358.7763	1360.882	1408.8885	1486.8488	1491.224	1633.4058	3021.38	3086.5111	3091.1519	3097.8483	3099.8206	3184.8957	3193.3858	3199.6003	3210.3208	3223.6528
CC12C3C4C3C1C=CC24	C[C@@]12[C@@H]3[C@H]4[C@@H]3[C@@H]1C=C[C@@H]24	
InChI=1S/C9H10/c1-9-4-2-3-5(9)7-6(4)8(7)9/h2-8H,1H3	InChI=1S/C9H10/c1-9-4-2-3-5(9)7-6(4)8(7)9/h2-8H,1H3/t4-,5+,6-,7+,8-,9+
