25
gdb 117844	1.92363	1.05776	0.80574	2.3033	85.49	-0.2532	0.0624	0.3157	1591.8068	0.226165	-426.634369	-426.622583	-426.621639	-426.671562	42.972	
C	 2.3239803881	 1.5741047295	-1.4803023841	-0.384499
C	 2.3061377514	 0.0428568793	-1.5071075792	-0.175503
C	 0.8831761501	-0.5209071979	-1.6237438983	-0.200534
C	 0.7449491842	-2.0406674967	-1.4297816762	 0.361726
O	 1.2999328167	-2.3529097389	-0.1509587127	-0.473896
C	-0.7389922619	-2.4846366532	-1.4914389171	-0.206027
C	-1.6096543241	-1.9662778172	-0.3438981652	-0.391155
C	 1.5422288235	-2.8167072192	-2.4926368529	-0.124149
O	 1.5174547946	-4.1931979135	-2.109890473	-0.434668
H	 1.8798697391	 1.9956980022	-2.3895073113	 0.109102
H	 1.7551812185	 1.9604842422	-0.6272172045	 0.11543
H	 3.3454685063	 1.9594449513	-1.4007645973	 0.108583
H	 2.9257514911	-0.3035176518	-2.3436227395	 0.087044
H	 2.7630159503	-0.354625251	-0.5954594691	 0.118627
H	 0.2606699486	-0.035693996	-0.8638070687	 0.105673
H	 0.4486662433	-0.2504581724	-2.5953089008	 0.086839
H	 1.4740689584	-3.3031233622	-0.1724345025	 0.282442
H	-1.1585733381	-2.173848003	-2.4573528223	 0.083622
H	-0.7533957971	-3.5798822129	-1.488935784	 0.107529
H	-2.5972998208	-2.4371284414	-0.368451405	 0.104339
H	-1.1430580608	-2.1938544985	 0.6179348991	 0.12925
H	-1.7641149774	-0.8840028811	-0.3947382338	 0.111818
H	 1.0925398371	-2.675472406	-3.4866293897	 0.089645
H	 2.5749553013	-2.4509706781	-2.5215279481	 0.094307
H	 2.2166667676	-4.6548307634	-2.5796658039	 0.294453
46.708	90.3137	93.1119	132.7198	169.1705	217.6866	221.1976	239.9983	250.0273	287.3683	324.6794	361.3208	364.0707	408.1016	478.8628	544.3625	615.7611	737.3127	750.8951	789.0186	861.6484	893.2661	927.3109	989.6857	1009.1828	1009.5629	1052.2309	1058.7819	1091.9883	1098.419	1146.5645	1163.8742	1201.2712	1243.2423	1262.7426	1286.5883	1307.9064	1323.3213	1342.1232	1364.8623	1395.9951	1406.3483	1411.0493	1420.8941	1447.9755	1475.3755	1488.0672	1494.4535	1499.4234	1500.309	1508.5642	1511.6794	1512.474	2993.6759	3019.1028	3024.691	3025.6948	3027.8901	3041.4826	3057.4791	3066.023	3070.4219	3078.8605	3099.4069	3101.0562	3103.9095	3124.1665	3763.1123	3848.2397
CCCC(O)(CC)CO	CCC[C@@](O)(CC)CO	
InChI=1S/C7H16O2/c1-3-5-7(9,4-2)6-8/h8-9H,3-6H2,1-2H3	InChI=1S/C7H16O2/c1-3-5-7(9,4-2)6-8/h8-9H,3-6H2,1-2H3/t7-/m0/s1
