18
gdb 32137	3.77314	1.12083	0.8736	2.6518	83.52	-0.2412	-0.0033	0.2379	1325.961	0.148535	-402.011929	-402.003407	-402.002463	-402.045475	31.348	
C	-0.1646592964	 1.4021167408	-0.0027757044	-0.249363
O	-0.1288962621	-0.0119695695	 0.0984420216	-0.260633
C	 0.6039725843	-0.5635222542	 1.092064489	 0.435891
C	 1.3389094138	 0.1480765932	 2.0404157817	-0.287248
C	 2.0380460043	-0.5874557925	 2.9962638312	 0.001294
N	 2.0576964412	-1.9146831943	 3.072796391	-0.33482
C	 1.3457734185	-2.5937086142	 2.153750231	 0.344471
C	 1.38452431	-4.0959257134	 2.262280809	-0.463728
C	 0.6132909763	-1.9606058616	 1.1575396995	-0.27813
H	 0.8350751622	 1.8182910741	-0.1771505274	 0.130127
H	-0.8028306011	 1.6273071627	-0.8583103289	 0.14009
H	-0.5919856923	 1.8591644003	 0.8980994742	 0.130127
H	 1.3792317541	 1.2287138243	 2.0528533166	 0.097132
H	 2.6197323224	-0.0572732196	 3.7481191548	 0.103392
H	 0.7852256746	-4.576314239	 1.4852344132	 0.115539
H	 2.4157946474	-4.4545850367	 2.1832640594	 0.138431
H	 1.0119310393	-4.4143708881	 3.2411396428	 0.138431
H	 0.0464392632	-2.5252923525	 0.4266855056	 0.098997
68.1196	93.3239	200.6802	217.388	229.2064	267.8723	339.0644	455.9398	462.7067	545.4156	587.5137	611.8397	757.3597	769.0984	835.6571	891.198	926.3308	980.6689	999.307	1017.6495	1061.5088	1083.7512	1131.7329	1177.0281	1190.8103	1221.3987	1291.8927	1329.1639	1334.6469	1408.4854	1444.5501	1475.2254	1480.3213	1490.3119	1491.6727	1505.3102	1519.8617	1607.2325	1640.5473	3012.5352	3040.9744	3075.5913	3101.0943	3125.8224	3139.5801	3142.7484	3198.802	3220.5322
COC1=CC=NC(C)=C1	COc1ccnc(C)c1	
InChI=1S/C7H9NO/c1-6-5-7(9-2)3-4-8-6/h3-5H,1-2H3	InChI=1S/C7H9NO/c1-6-5-7(9-2)3-4-8-6/h3-5H,1-2H3
