19
gdb 40020	3.29326	1.47678	1.25591	2.2621	82.13	-0.2183	0.004	0.2223	1046.847	0.162092	-382.024047	-382.016768	-382.015824	-382.055521	29.826	
C	-0.5999049662	 1.228118134	 0.1030953742	-0.276801
N	 0.8661886381	 1.2068541956	 0.051764068	-0.362136
C	 0.1324069542	-0.0729592932	 0.0088924402	 0.280342
C	 0.3526518292	-0.9444889623	 1.2486244027	-0.210643
N	-0.3479338891	-2.227054461	 1.2776798947	-0.103079
C	-1.734222299	-2.2964042005	 0.8491984834	-0.242009
C	-0.6391010349	-2.8524827764	-0.0193920244	-0.06647
C	-0.2735243912	-2.1336221771	-1.2612962851	-0.059803
C	 0.0679335561	-0.8416648438	-1.2544180493	-0.157739
H	-1.0215690268	 1.5356285881	 1.0577176981	 0.118628
H	-1.1528677131	 1.5694895629	-0.7687821822	 0.111295
H	 1.1897351211	 1.4558273256	-0.8807989399	 0.229198
H	 1.4237080414	-1.1672056143	 1.3100193705	 0.119067
H	 0.0889876875	-0.3856745569	 2.151633683	 0.112547
H	-2.3661341967	-2.9697979287	 1.4232493299	 0.1143
H	-2.2267688848	-1.3951051143	 0.4908065347	 0.12001
H	-0.500601984	-3.9313507924	-0.0365486134	 0.092975
H	-0.2951314803	-2.6986721213	-2.1882265403	 0.094486
H	 0.3110574686	-0.3214134539	-2.178448585	 0.085832
99.0123	215.5292	324.9201	332.8267	350.2515	356.5713	455.0048	533.5827	592.6328	677.8458	737.564	761.6305	790.7602	826.1146	895.7806	920.9703	935.0536	945.6988	974.2139	981.1661	1020.6965	1048.3763	1065.1705	1075.6637	1110.778	1114.9511	1132.9605	1164.2545	1184.5635	1247.0199	1273.6288	1314.0366	1334.5372	1346.4588	1359.777	1398.4501	1436.6367	1482.1837	1504.8976	1509.3249	1697.6259	3042.7902	3087.3983	3094.6849	3096.7537	3125.8852	3143.2655	3178.8953	3181.4597	3184.6387	3485.2104
C1NC11CN2CC2C=C1	C1N[C@]21CN1C[C@H]1C=C2	
InChI=1S/C7H10N2/c1-2-7(4-8-7)5-9-3-6(1)9/h1-2,6,8H,3-5H2	InChI=1S/C7H10N2/c1-2-7(4-8-7)5-9-3-6(1)9/h1-2,6,8H,3-5H2/t6-,7-,9?/m1/s1
