17
gdb 81103	2.53194	1.7421	1.30138	4.042	73.14	-0.2484	-0.0356	0.2128	1005.1002	0.134258	-421.781665	-421.773738	-421.772794	-421.814084	30.446	
C	-0.0669053544	 1.5308353044	 0.0793227591	-0.428312
C	-0.0000903353	 0.0150931466	 0.0328934773	-0.01852
C	 1.2655272537	-0.611330015	-0.6515104372	 0.001606
O	 2.0213443459	-0.3004550548	 0.56571875	-0.301769
C	 0.7861678318	-0.6957596638	 1.2227990351	 0.28579
C	 0.6018046079	-0.295175301	 2.6493389153	 0.040112
O	 1.3383833607	 0.4314942674	 3.2621570982	-0.238558
C	 0.6499847803	-2.1768532512	 0.8051159171	-0.139547
C	 0.9979746349	-2.1143214276	-0.4816965609	-0.082728
H	 0.8924939084	 1.9525239489	 0.3854964392	 0.152134
H	-0.3283026794	 1.9289069601	-0.9073084074	 0.119808
H	-0.8362196035	 1.868450849	 0.7816996414	 0.123011
H	-0.9569940023	-0.4418154871	-0.2301879173	 0.080793
H	 1.7066586342	-0.2209998194	-1.5678101651	 0.087045
H	-0.3207024665	-0.7219631948	 3.1093464506	 0.077077
H	 0.3493585208	-3.005645811	 1.4285123823	 0.122076
H	 1.0664735529	-2.8852748808	-1.2346428676	 0.119982
78.6467	176.6916	208.4003	220.1114	269.9519	325.8705	446.523	495.5206	530.7412	633.3917	691.0335	712.1129	738.7242	816.5725	836.0233	868.4875	896.3724	901.0074	967.2193	999.515	1049.1079	1056.2362	1071.5255	1085.4563	1123.4654	1204.1081	1212.8221	1265.2523	1286.3218	1302.3723	1361.9446	1405.3051	1424.4699	1488.2371	1499.3367	1609.8857	1834.4765	2854.4357	3037.0658	3083.9372	3095.5724	3134.7082	3138.8067	3233.9619	3260.6822
CC1C2OC1(C=O)C=C2	C[C@H]1[C@H]2O[C@]1(C=O)C=C2	
InChI=1S/C7H8O2/c1-5-6-2-3-7(5,4-8)9-6/h2-6H,1H3	InChI=1S/C7H8O2/c1-5-6-2-3-7(5,4-8)9-6/h2-6H,1H3/t5-,6-,7-/m0/s1
