19
gdb 40536	4.57765	1.03597	0.9625	1.954	83.04	-0.2177	0.0142	0.2318	1267.5542	0.161884	-382.021979	-382.014371	-382.013426	-382.054464	30.009	
C	 0.2612204224	 1.4896370582	 0.013016941	-0.243755
N	 1.2834316828	 0.4487186712	-0.1222600685	-0.310934
C	-0.1320093307	 0.0476815268	 0.0538772708	-0.129583
C	-0.4908656953	-0.6570670208	 1.2990434463	 0.381369
C	-1.4518904453	-1.5827364555	 1.424254653	-0.189239
C	-1.4772248512	-2.1468689869	 2.8025104842	-0.077112
N	-0.2036116009	-2.8494123899	 3.1509828634	-0.333933
C	-0.4047297046	-1.4408388321	 3.5544572271	-0.045972
C	 0.2398312944	-0.4286377503	 2.6143746129	-0.313094
H	 0.3142871604	 2.0644726799	 0.9330001406	 0.120218
H	-0.0335648769	 2.0646255289	-0.8613810548	 0.112417
H	 1.5524850243	 0.3402383481	-1.0962232567	 0.235198
H	-0.6540935024	-0.3147735981	-0.8296165593	 0.079922
H	-2.0969603112	-1.926747471	 0.6238451886	 0.086546
H	-2.3994111289	-2.4877628296	 3.2611901914	 0.083647
H	-0.3751685314	-3.4348499752	 3.9678232203	 0.222928
H	-0.4971174893	-1.2118618718	 4.6106638859	 0.083499
H	 1.3166495699	-0.5874696151	 2.5002572139	 0.138983
H	 0.1023584539	 0.5970930532	 2.9816750702	 0.098895
65.2137	132.8717	181.9955	279.5404	362.7442	407.2906	511.4462	532.2681	614.4514	707.1144	797.168	812.4702	830.0507	844.1436	876.3362	902.8423	914.78	922.6381	955.7334	964.778	972.6766	1010.9908	1073.1158	1086.6859	1116.7707	1128.4725	1147.2495	1168.3704	1185.9096	1205.2988	1236.5649	1269.5303	1283.1953	1292.6272	1347.4557	1380.3088	1407.9564	1430.1166	1466.5417	1511.8538	1690.3772	3021.9729	3084.5453	3107.2427	3123.3435	3159.898	3169.5311	3193.0807	3195.4178	3466.7459	3509.0517
C1NC1C1=CC2NC2C1	C1N[C@H]1C1=C[C@H]2N[C@H]2C1	
InChI=1S/C7H10N2/c1-4(7-3-8-7)2-6-5(1)9-6/h1,5-9H,2-3H2	InChI=1S/C7H10N2/c1-4(7-3-8-7)2-6-5(1)9-6/h1,5-9H,2-3H2/t5-,6+,7-/m1/s1
