19
gdb 63563	2.55636	1.46299	1.11573	3.2874	77.6	-0.2407	-0.0369	0.2038	1154.3823	0.155979	-423.028666	-423.019372	-423.018427	-423.062532	34.597	
C	-0.0495743736	 1.5156196455	-0.0817209353	-0.451707
C	-0.036397737	 0.0070898919	 0.01653439	 0.283897
C	-1.1402937121	-0.7282489541	-0.7091694693	-0.464282
O	 1.2624656298	-0.5948467545	-0.0937286448	-0.310807
C	 0.6387129219	-0.6365502752	 1.1738356437	 0.28981
C	 1.1765861338	-0.0347684887	 2.4860071207	-0.342627
C	 0.5547003769	-1.2325523402	 3.2702182768	-0.344848
C	 0.2076132041	-1.8938623678	 1.9176941402	 0.338577
O	-0.201189672	-2.9696759876	 1.5877353467	-0.306552
H	 0.8105133568	 1.9520923112	 0.4301124197	 0.131169
H	-0.0149035842	 1.8230171226	-1.1326168141	 0.132181
H	-0.966746122	 1.9249493958	 0.3549029116	 0.123982
H	-1.0810210461	-0.5232970976	-1.7836940224	 0.126001
H	-1.0576314596	-1.8044777843	-0.5493233057	 0.160719
H	-2.1221914554	-0.3931138372	-0.3585912974	 0.119836
H	 2.2682354717	-0.0193392418	 2.5179877284	 0.127046
H	 0.797527835	 0.9548793244	 2.7464850463	 0.114568
H	 1.2361971407	-1.8151883544	 3.8943180156	 0.138077
H	-0.3330178887	-0.9855368982	 3.8594073393	 0.13496
84.4088	122.1921	158.5024	183.2759	197.4401	242.0997	305.2412	352.2556	409.4974	464.3091	492.1369	537.2939	619.4756	695.2253	726.3881	758.2622	836.647	920.8394	950.7124	955.4324	986.9193	1019.2942	1039.969	1086.5146	1100.5211	1130.7836	1175.7822	1206.5252	1218.9386	1254.7904	1257.0177	1407.9272	1414.717	1430.4905	1444.8426	1475.87	1482.9878	1484.0116	1498.5288	1512.3401	1881.2319	3034.7662	3039.6596	3067.8699	3077.0142	3096.3706	3101.501	3117.7638	3131.4726	3134.2502	3144.759
CC1(C)OC11CCC1=O	CC1(C)O[C@]21CCC2=O	
InChI=1S/C7H10O2/c1-6(2)7(9-6)4-3-5(7)8/h3-4H2,1-2H3	InChI=1S/C7H10O2/c1-6(2)7(9-6)4-3-5(7)8/h3-4H2,1-2H3/t7-/m1/s1
