13
gdb 25142	3.63078	1.27372	0.94293	5.7235	78.25	-0.2422	-0.0767	0.1656	1140.6427	0.090411	-415.637932	-415.630635	-415.62969	-415.669921	27.489	
O	-0.0605742278	-0.0621858309	 0.0038090097	-0.376548
C	 0.0079018715	 1.1457390724	 0.0090350711	 0.429826
N	-1.194519679	 1.9059278863	 0.0295070214	-0.330241
C	-1.2366017749	 3.2551749143	 0.0369732851	 0.051821
C	-0.0741563159	 3.9598205641	 0.0245415936	-0.211447
C	 1.1336653615	 3.1907831673	 0.0041010401	 0.168905
N	 1.1825270066	 1.87818408	-0.0033657071	-0.376833
C	 2.3789284477	 3.9006761044	-0.0096786871	 0.227118
C	 3.4002309249	 4.5361057317	-0.0207237316	-0.336101
H	-2.0410425156	 1.3546902813	 0.0383485755	 0.273371
H	-2.2181495143	 3.7152250092	 0.0528130778	 0.148318
H	-0.0562974805	 5.0389373242	 0.0297349073	 0.123525
H	 4.3159900458	 5.0749602256	-0.0308295658	 0.208288
117.191	142.5454	147.3375	349.822	424.0166	451.8475	470.7042	569.5022	585.4277	652.9122	664.3321	677.3789	733.4648	748.7058	797.9221	810.6645	911.9362	969.2049	997.617	1122.0078	1143.1845	1213.1869	1256.9806	1415.2173	1483.6415	1549.3869	1665.1115	1815.0655	2232.6601	3202.1014	3253.0163	3498.8823	3612.9398
O=C1NC=CC(=N1)C#C	O=c1[nH]ccc(n1)C#C	
InChI=1S/C6H4N2O/c1-2-5-3-4-7-6(9)8-5/h1,3-4H,(H,7,8,9)	InChI=1S/C6H4N2O/c1-2-5-3-4-7-6(9)8-5/h1,3-4H,(H,7,8,9)
