23
gdb 123111	6.73203	0.4459	0.42479	1.5527	84.61	-0.2433	-0.0087	0.2346	2574.5084	0.201823	-425.444433	-425.43269	-425.431746	-425.483804	39.39	
C	-0.0512191402	 1.3825708648	-0.0668274595	-0.227032
O	 0.0104341212	-0.0219101689	-0.0459755962	-0.231233
C	 0.6614110689	-0.5268366249	 1.0998182017	-0.050426
C	 0.6735812828	-2.0476443747	 1.0238250003	-0.205626
C	 1.3629757297	-2.6908698173	 2.2301853161	-0.173906
C	 1.3769611726	-4.2170861728	 2.157293824	-0.30298
C	 2.0574244181	-4.8857232386	 3.3459980175	 0.376212
C	 2.1013254287	-6.4046262941	 3.3270651769	-0.472547
O	 2.5360285028	-4.2452934528	 4.2540426096	-0.28995
H	 0.9524516553	 1.837826321	-0.0647148159	 0.101748
H	-0.568404086	 1.6756627591	-0.9839640635	 0.124736
H	-0.6070205358	 1.7821601369	 0.7969024559	 0.101748
H	 1.6931110735	-0.1370578849	 1.1586219749	 0.083886
H	 0.1422141426	-0.192285629	 2.0154029223	 0.083886
H	-0.3624368922	-2.3998713313	 0.9438455113	 0.102779
H	 1.1750616453	-2.3451147216	 0.0944052537	 0.10278
H	 2.394290162	-2.3294500773	 2.3145238581	 0.111388
H	 0.8672437733	-2.3837453291	 3.1582297579	 0.1114
H	 0.3550554921	-4.6166248231	 2.0834578705	 0.118497
H	 1.8786521843	-4.5624855068	 1.2416665086	 0.118484
H	 2.6260521795	-6.7608281802	 2.433377687	 0.137081
H	 2.6074189167	-6.7722323942	 4.2204318201	 0.142014
H	 1.0865703649	-6.8159622303	 3.2827523487	 0.13706
30.9215	46.9229	75.7365	81.0006	104.9766	125.9149	147.3507	195.0109	236.9379	251.2656	345.9313	451.566	478.5778	482.8086	599.8773	726.0049	783.0054	827.9669	887.477	934.1761	983.2005	990.6032	1045.773	1061.4059	1101.2106	1143.9562	1165.3545	1175.5507	1178.6666	1216.2401	1224.7103	1274.5617	1277.7776	1314.4479	1325.2254	1352.0757	1382.5949	1399.6644	1429.3133	1450.8241	1465.4784	1477.2719	1481.683	1484.9928	1486.9289	1500.5505	1508.0699	1533.5448	1811.4001	2941.2225	2966.7348	2966.7898	3007.0635	3008.5337	3025.6739	3033.7912	3036.7861	3043.1263	3058.8538	3085.902	3096.7153	3110.747	3151.6371
COCCCCC(C)=O	COCCCCC(=O)C	
InChI=1S/C7H14O2/c1-7(8)5-3-4-6-9-2/h3-6H2,1-2H3	InChI=1S/C7H14O2/c1-7(8)5-3-4-6-9-2/h3-6H2,1-2H3
