27
gdb 122884	3.78761	0.56525	0.55944	0.9526	94.04	-0.2496	0.0745	0.3241	2192.325	0.248728	-390.695929	-390.683799	-390.682855	-390.733763	43.852	
C	 0.0049706236	 1.4847784533	-0.0317977236	-0.226611
O	-0.0006765665	 0.0797549625	 0.0053501528	-0.230878
C	 0.6360825927	-0.502329161	-1.1118851683	-0.046001
C	 0.5757671819	-2.0184572894	-0.9758932087	-0.220608
C	 1.2501490883	-2.7263765014	-2.1571125945	-0.184815
C	 1.2544917343	-4.2762574883	-2.1365391983	 0.263215
C	-0.1823285407	-4.8302598339	-2.1410738448	-0.400648
C	 1.9768627419	-4.7613492401	-3.4076080635	-0.401728
C	 2.0093822987	-4.8077859046	-0.9040626181	-0.400652
H	 1.0293168521	 1.8917010205	-0.0412693301	 0.100463
H	-0.5229119548	 1.8747733542	-0.9173511188	 0.100463
H	-0.5059832404	 1.840246209	 0.8666297457	 0.124402
H	 0.141519977	-0.1791919164	-2.0454296954	 0.08052
H	 1.6854249428	-0.1624588555	-1.1742250552	 0.080518
H	 1.0541524363	-2.29409484	-0.0298681041	 0.107664
H	-0.4766942312	-2.3106903011	-0.8938808207	 0.107668
H	 0.7654636261	-2.3998733781	-3.0880913924	 0.087083
H	 2.2924379329	-2.3840898323	-2.2258013324	 0.087089
H	-0.7491479187	-4.4526382262	-2.9997612394	 0.105876
H	-0.1741387197	-5.9239993315	-2.2044926871	 0.107066
H	-0.7296113447	-4.5600673671	-1.2328653052	 0.114149
H	 3.008791434	-4.3944251262	-3.4415374634	 0.106213
H	 2.0104487343	-5.8556209043	-3.4474436765	 0.106246
H	 1.4671564614	-4.4100720299	-4.3117491759	 0.106213
H	 1.5104043339	-4.5372402474	 0.0314497336	 0.114143
H	 2.0765973761	-5.9009101875	-0.9343386033	 0.107071
H	 3.0313917384	-4.4137485474	-0.8658740224	 0.105878
52.4203	60.5891	100.6735	122.9454	135.2251	224.5834	230.3344	242.4689	260.969	269.1955	281.6741	329.1647	352.2373	407.6116	423.5054	461.8772	529.4736	747.0944	755.9555	863.9457	908.527	933.8044	937.0622	955.7405	994.6925	1011.8068	1022.9565	1064.0675	1087.0519	1108.9858	1164.7499	1179.2159	1212.2726	1219.13	1238.4333	1266.9533	1271.208	1303.3295	1314.2324	1342.35	1388.6646	1394.3992	1400.1433	1426.108	1430.8371	1475.1555	1480.1902	1482.3542	1485.7552	1487.3838	1487.4587	1498.5796	1507.1217	1507.2296	1507.9123	1518.1473	1532.7025	2936.6378	2961.7682	2965.0585	2997.4681	3005.0674	3019.9085	3023.4201	3030.1459	3030.9117	3045.3283	3086.516	3087.4354	3087.7265	3092.3073	3095.1366	3101.259	3104.0902	3110.0854
COCCCC(C)(C)C	COCCCC(C)(C)C	
InChI=1S/C8H18O/c1-8(2,3)6-5-7-9-4/h5-7H2,1-4H3	InChI=1S/C8H18O/c1-8(2,3)6-5-7-9-4/h5-7H2,1-4H3
