18
gdb 10813	4.51034	1.47149	1.17743	3.7253	75.27	-0.2349	-0.0471	0.1878	1027.8905	0.15487	-347.85137	-347.843824	-347.84288	-347.883136	28.926	
C	-0.0935319949	 1.5669265689	 0.0241499647	-0.406112
C	 0.0141958898	 0.0349163942	 0.0002365065	-0.017199
C	 0.6625954317	-0.4756589094	-1.2966980034	-0.217165
C	 0.9518399049	-1.9800175346	-1.2352888715	-0.325686
C	 1.8018785089	-2.3536737477	-0.026430106	 0.38555
O	 2.58002416	-3.2864848069	-0.0413338257	-0.334351
C	 1.5845058629	-1.5363074133	 1.1874802557	-0.171829
C	 0.7589276676	-0.4816801711	 1.2055861927	-0.026159
H	 0.8990499024	 2.0291183152	-0.006856839	 0.124015
H	-0.6606207996	 1.9288464421	-0.8390725984	 0.119311
H	-0.599130812	 1.9167538325	 0.9300235315	 0.116949
H	-1.0107484636	-0.3690815722	 0.0552405072	 0.094923
H	 0.0205940708	-0.2438077574	-2.1533511821	 0.10062
H	 1.6040141341	 0.0678618377	-1.4525600336	 0.107069
H	 0.0069484049	-2.5364159721	-1.1475548647	 0.121506
H	 1.4528023125	-2.3455727725	-2.1352129988	 0.121157
H	 2.1192930202	-1.8604648626	 2.0751080404	 0.105056
H	 0.6015479695	 0.0570622992	 2.1391799745	 0.102345
78.3071	192.9399	224.6486	271.7544	312.0529	390.7256	415.9793	479.0451	524.9082	627.2438	715.5473	755.6111	761.0457	845.0828	918.8161	947.7659	963.3508	1025.3173	1026.7333	1071.0585	1101.6663	1111.385	1162.6623	1216.7731	1234.5332	1264.3181	1314.1878	1335.3517	1354.2659	1375.8711	1402.4033	1418.7517	1461.2566	1491.2781	1496.9748	1501.3054	1678.4388	1780.0803	2963.873	3010.2216	3023.6855	3032.46	3070.4217	3100.8742	3101.9487	3107.0464	3135.6299	3184.6658
CC1CCC(=O)C=C1	C[C@H]1CCC(=O)C=C1	
InChI=1S/C7H10O/c1-6-2-4-7(8)5-3-6/h2,4,6H,3,5H2,1H3	InChI=1S/C7H10O/c1-6-2-4-7(8)5-3-6/h2,4,6H,3,5H2,1H3/t6-/m1/s1
