14
gdb 131124	3.95745	1.07646	0.96794	3.5867	64.17	-0.2619	-0.0625	0.1993	1170.9976	0.101453	-470.002622	-469.994905	-469.993961	-470.035958	27.539	
O	-0.9902161904	 0.2058317014	 0.0084168039	-0.435594
C	 0.21553942	-0.4670068955	-0.2366546566	-0.070463
C	 1.1270590134	 0.4066872678	-1.1041628278	 0.137812
O	 0.7498273157	 1.4751656798	-1.5121865916	-0.245819
C	 0.909155595	-0.7958839319	 1.0546294135	 0.318996
C	 1.9741765659	-1.5901380087	 1.4176405786	-0.17208
N	 2.1827769896	-1.4543697926	 2.7580801599	-0.182098
N	 1.3047951334	-0.6248303758	 3.2451144255	-0.108628
N	 0.5395306573	-0.2156909394	 2.2185698647	-0.212183
H	-0.9419814147	 1.0200449717	-0.5211790078	 0.303536
H	 0.0432658798	-1.3998953645	-0.8013696977	 0.127079
H	 2.1332970241	 0.0029840054	-1.3241072806	 0.12227
H	 2.5846896832	-2.2424370604	 0.8142056405	 0.125805
H	-0.2449876324	 0.4022440528	 2.3594998956	 0.291367
49.3426	87.264	170.9562	232.3485	311.8659	367.7554	436.5927	518.5585	636.8978	670.7145	711.9047	742.2723	782.8228	842.9186	869.2021	998.6883	1023.4347	1062.6332	1072.4837	1131.9617	1147.2865	1221.5727	1251.1695	1299.5163	1342.1179	1363.9325	1385.3101	1429.2321	1454.7892	1589.8443	1819.1663	2955.5295	2970.2427	3268.3398	3653.845	3660.1206
OC(C=O)C1=CN=NN1	O[C@@H](C=O)c1cnn[nH]1	
InChI=1S/C4H5N3O2/c8-2-4(9)3-1-5-7-6-3/h1-2,4,9H,(H,5,6,7)	InChI=1S/C4H5N3O2/c8-2-4(9)3-1-5-7-6-3/h1-2,4,9H,(H,5,6,7)/t4-/m0/s1
