20
gdb 96835	2.31655	1.39817	0.92383	3.4036	84.65	-0.2209	0.0031	0.224	1316.9127	0.169956	-399.370061	-399.360062	-399.359118	-399.405078	35.719	
C	-0.0481180185	 1.4232233953	 0.0362947779	-0.338725
N	-0.0454387547	-0.0308469391	 0.0209622825	-0.326669
C	 0.5574679885	-0.6263845335	 0.9635477385	 0.406179
N	 1.2446221473	-0.1001298605	 2.0572930392	-0.394463
C	 1.7005570881	-1.1527976577	 2.8568938324	 0.366899
C	 2.4453570407	-0.8585002971	 4.1172766406	-0.492898
N	 1.4327374917	-2.3199018578	 2.4100817869	-0.293038
C	 0.6853567599	-2.1388531521	 1.1531221193	-0.066468
C	-0.668064927	-2.8513569476	 1.1785562823	-0.377578
H	 0.9691623202	 1.8444057706	-0.002825125	 0.105606
H	-0.5922993538	 1.7980278025	-0.8340426691	 0.126865
H	-0.5409910568	 1.8319900391	 0.9333035819	 0.103549
H	 1.302884267	 0.8757523025	 2.2911747321	 0.257738
H	 1.8342320627	-0.2614056578	 4.8036559077	 0.136433
H	 2.7134598215	-1.7967516745	 4.6025108909	 0.160128
H	 3.3576272123	-0.288594842	 3.9083308885	 0.13908
H	 1.2850917252	-2.5510852845	 0.331189188	 0.112638
H	-1.2760713926	-2.4920260648	 2.0142391776	 0.115111
H	-1.2049916648	-2.6513907416	 0.2480324931	 0.136415
H	-0.5255345769	-3.9285303694	 1.2950407747	 0.123199
80.9914	97.0581	137.8505	158.7896	173.8472	190.6992	224.0291	284.4744	337.6939	355.5171	445.0829	515.8548	619.2894	624.2221	680.2659	738.4557	826.6179	906.885	977.7897	1012.2691	1029.7171	1057.2788	1065.2414	1102.5433	1117.89	1123.3164	1162.3406	1214.5824	1268.1753	1290.8312	1323.274	1396.7225	1398.4837	1432.3051	1436.646	1480.4356	1481.4272	1486.9547	1494.8217	1496.3611	1507.19	1712.075	1777.1569	2962.0047	3007.5931	3024.5317	3037.2876	3046.0074	3091.4255	3100.6574	3120.3845	3135.1122	3159.71	3673.8072
CN=C1NC(C)=NC1C	CN=C1NC(=N[C@H]1C)C	
InChI=1S/C6H11N3/c1-4-6(7-3)9-5(2)8-4/h4H,1-3H3,(H,7,8,9)	InChI=1S/C6H11N3/c1-4-6(7-3)9-5(2)8-4/h4H,1-3H3,(H,7,8,9)/t4-/m0/s1
