19
gdb 53585	4.37317	0.66927	0.61733	0.9273	91.92	-0.2373	0.0435	0.2808	1832.5175	0.156392	-348.687557	-348.677239	-348.676295	-348.725038	36.393	
C	-0.0215058651	 1.4180051023	-0.3354476355	-0.496445
C	-0.0408320443	-0.0052093249	-0.0278577821	 0.085517
C	-0.04748748	-1.1820192921	 0.2267403053	 0.053525
C	-0.0805818061	-2.6097063995	 0.5335615541	-0.389402
C	-1.4240062906	-3.2460410417	 0.2105545116	 0.012031
C	-1.7287371917	-3.7324146611	-1.1722899845	-0.278846
C	-1.5281141962	-4.7454139563	-0.0505412052	-0.210348
C	-0.365907232	-5.5842834401	-0.0295519256	 0.338833
C	 0.6041035874	-6.2963792623	-0.0027113843	-0.475974
H	 0.7978466906	 1.6678288946	-1.0188257626	 0.145972
H	-0.9558969536	 1.7354065544	-0.8118496655	 0.145418
H	 0.1083501067	 2.0214014784	 0.5699680991	 0.14543
H	 0.7087092155	-3.1340751766	-0.0181888754	 0.136919
H	 0.1473571052	-2.7662087778	 1.5964088406	 0.130008
H	-2.2567009042	-2.8249772233	 0.7659222959	 0.100231
H	-2.7319493093	-3.6137238797	-1.5654885903	 0.118627
H	-0.9403655244	-3.6665177043	-1.9137868301	 0.129495
H	-2.4300752807	-5.2204815361	 0.3245388414	 0.113629
H	 1.4583068229	-6.9264142941	 0.0166020533	 0.19538
17.6132	41.9753	71.5621	130.1514	198.1569	208.3185	265.048	322.624	358.3615	383.4755	480.6005	526.0671	573.1645	595.4505	648.9877	764.8443	787.0515	814.2606	877.4946	883.8458	955.8162	1028.7199	1053.3504	1055.0859	1068.1299	1112.2082	1122.3429	1155.8316	1168.209	1227.0438	1252.0353	1328.2283	1374.3199	1414.1391	1415.847	1468.4562	1479.195	1479.9084	1489.7232	2232.9861	2374.2894	3019.2234	3025.0643	3056.8569	3084.6483	3084.714	3138.6485	3143.8986	3157.0625	3228.5462	3504.5431
CC#CCC1CC1C#C	CC#CC[C@H]1C[C@H]1C#C	
InChI=1S/C9H10/c1-3-5-6-9-7-8(9)4-2/h2,8-9H,6-7H2,1H3	InChI=1S/C9H10/c1-3-5-6-9-7-8(9)4-2/h2,8-9H,6-7H2,1H3/t8-,9+/m1/s1
