23
gdb 95067	2.70516	1.48518	1.18125	1.3142	84.67	-0.2359	0.0798	0.3157	1157.9968	0.208366	-388.286834	-388.278737	-388.277793	-388.318853	33.406	
C	 0.2817925772	 1.6287171878	-0.0445347283	-0.403411
C	-0.0110980878	 0.122551975	 0.0069863001	 0.007214
C	 0.5327039044	-0.5510095219	-1.2638602673	-0.067206
O	 0.0476741679	-1.8558460985	-1.5342565835	-0.27287
C	 0.2156972254	-2.8603781295	-0.5512372062	 0.139003
C	-0.6769104686	-2.6924488547	 0.7143082458	-0.244579
C	 0.5332217129	-2.0116155683	 1.4214597753	-0.01617
C	 1.4507608559	-2.7165401846	 0.3792108667	-0.257981
C	 0.5407934804	-0.48005133	 1.3175645716	-0.203061
H	 1.3596181845	 1.8183678985	-0.1157181949	 0.114298
H	-0.1984858418	 2.1013038608	-0.907446924	 0.112745
H	-0.0806157898	 2.1307732698	 0.8581496115	 0.114293
H	-1.1005349738	-0.0095986585	-0.0080253125	 0.082817
H	 0.2270527868	 0.0334376871	-2.1381205858	 0.101043
H	 1.6346314233	-0.5362267921	-1.2424807407	 0.085794
H	 0.1129512373	-3.8024706531	-1.0957093914	 0.075038
H	-1.6042291827	-2.1277656727	 0.5956620221	 0.098646
H	-0.9095137571	-3.6647589517	 1.1585356694	 0.093391
H	 0.7040658524	-2.3005221826	 2.4625487778	 0.061465
H	 1.7719572298	-3.7010118699	 0.7303012012	 0.097684
H	 2.3277763971	-2.1826002257	 0.0052291117	 0.097536
H	 1.5730509893	-0.1290519539	 1.4623857264	 0.09064
H	-0.0392853428	-0.0617574314	 2.1502097349	 0.093672
133.37	209.4649	243.5012	298.0616	304.6199	326.5149	373.7255	418.2145	428.966	496.8707	564.8443	772.7216	774.5143	806.7143	854.6924	861.7387	885.1463	922.7749	936.0546	946.0499	987.7538	994.0858	1039.2684	1060.165	1071.0547	1109.3413	1137.0268	1143.3152	1173.308	1185.8766	1223.7281	1237.1464	1256.35	1271.6409	1291.9894	1316.32	1325.1188	1348.0379	1364.6881	1387.6195	1398.4112	1405.9319	1426.7159	1464.6781	1481.0308	1489.91	1498.1175	1500.2058	1510.5582	2970.6236	2999.921	3023.4889	3027.3914	3044.1267	3051.8929	3057.1583	3064.1224	3067.034	3077.9707	3091.968	3102.2804	3110.5928	3115.6209
CC1COC2CC(C2)C1	C[C@H]1CO[C@@H]2C[C@@H](C2)C1	
InChI=1S/C8H14O/c1-6-2-7-3-8(4-7)9-5-6/h6-8H,2-5H2,1H3	InChI=1S/C8H14O/c1-6-2-7-3-8(4-7)9-5-6/h6-8H,2-5H2,1H3/t6-,7-,8+/m1/s1
