17
gdb 27889	1.97779	1.81233	0.95688	0.6037	78.96	-0.2486	-0.0208	0.2278	1209.3932	0.136269	-418.099435	-418.090748	-418.089804	-418.133705	31.43	
C	-0.1142986037	 1.5097552375	 0.0470777616	-0.467924
C	-0.0334171781	 0.0106159361	-0.0268643017	 0.335076
C	-0.016880602	-0.6644574325	-1.2362566521	-0.276102
C	 0.0606802194	-2.057315344	-1.1619685476	 0.436184
O	 0.080914957	-2.7765208756	-2.295716301	-0.410695
N	 0.1162100618	-2.7161638893	-0.0134679944	-0.385518
C	 0.0942803127	-1.9707744135	 1.1044745795	 0.341252
C	 0.1572642866	-2.7164106697	 2.4085171263	-0.45891
N	 0.0223380223	-0.6432626097	 1.1511597561	-0.34607
H	 0.7533332656	 1.9053370492	 0.5845316247	 0.145093
H	-0.1559756003	 1.9653435644	-0.9447313212	 0.1215
H	-1.001387931	 1.8092204796	 0.6141085849	 0.145092
H	-0.0607854976	-0.1579518538	-2.1914227835	 0.109676
H	 0.1363462058	-3.7039458991	-2.0225629531	 0.299703
H	 1.0717875205	-3.3161232649	 2.4583444291	 0.137553
H	 0.132896333	-2.0172718283	 3.2441808564	 0.136543
H	-0.6837315721	-3.4127542164	 2.4879102561	 0.137549
42.75	72.9195	181.5213	195.5249	229.2139	282.9837	317.8683	502.9433	547.7235	561.4999	562.4527	583.6264	618.9767	670.4456	797.101	871.3272	960.6344	971.606	1004.3109	1052.6823	1057.4322	1067.1058	1075.2953	1182.7303	1221.756	1297.7248	1383.8187	1402.7716	1430.0904	1450.1965	1459.4173	1473.1939	1479.6849	1484.167	1498.8403	1614.1152	1648.637	3044.2976	3046.705	3103.042	3105.6141	3132.1474	3158.1008	3217.5564	3752.4429
CC1=CC(O)=NC(C)=N1	Cc1cc(O)nc(C)n1	
InChI=1S/C6H8N2O/c1-4-3-6(9)8-5(2)7-4/h3H,1-2H3,(H,7,8,9)	InChI=1S/C6H8N2O/c1-4-3-6(9)8-5(2)7-4/h3H,1-2H3,(H,7,8,9)
