25
gdb 113194	2.95028	0.86991	0.84666	1.4114	89.51	-0.2545	0.0715	0.326	1585.4761	0.226364	-389.488719	-389.477428	-389.476483	-389.524872	42.01	
C	-0.1540765148	 1.5973571228	-0.4607889228	-0.370334
C	-0.0332406123	 0.194010291	 0.1465525692	-0.21242
C	-1.3542173294	-0.5493051168	 0.1400003525	-0.015383
C	-1.8004843382	-1.3612811456	-1.0559896224	-0.341299
C	-1.4947254597	-2.0519843138	 0.2562546747	 0.34209
C	-0.2600562966	-2.9293860215	 0.3582403341	-0.491527
C	-2.7024098822	-2.5317436971	 1.0627738945	 0.075619
C	-3.2358179105	-3.8994656807	 0.6282760929	-0.415834
O	-2.4429504073	-2.5049079865	 2.4665575716	-0.43989
H	 0.8056900216	 2.1232176122	-0.4405076765	 0.107883
H	-0.4909284582	 1.5475029642	-1.501613855	 0.116671
H	-0.8789254268	 2.2049636522	 0.0920750022	 0.114493
H	 0.7250303136	-0.3702734697	-0.4075327013	 0.09176
H	 0.3361273364	 0.2740150085	 1.1774544117	 0.10002
H	-2.1469781343	 0.0046975444	 0.6402405448	 0.081247
H	-2.8334082008	-1.2930858517	-1.3842220704	 0.102904
H	-1.090477485	-1.4916841803	-1.8678023401	 0.101954
H	 0.5722411185	-2.5286761621	-0.2240786154	 0.12049
H	 0.0832647246	-3.011680386	 1.3966464896	 0.110058
H	-0.453956921	-3.9410576866	-0.0145678043	 0.115962
H	-3.5026259034	-1.7942980611	 0.9245474283	 0.079448
H	-2.4972645962	-4.6908810427	 0.8011745779	 0.108147
H	-4.1337743777	-4.1485331073	 1.2003064492	 0.121629
H	-3.4859667592	-3.9048891321	-0.4371228025	 0.119724
H	-1.8723830011	-3.2522407439	 2.6735940475	 0.276589
56.8045	89.0878	137.0741	145.1521	200.839	230.8544	245.7642	256.3665	280.0321	292.218	307.8984	337.2216	431.2882	459.5521	516.3301	563.9753	709.4403	776.3397	809.7995	854.1198	912.9519	916.9404	940.2155	951.3351	990.7343	1035.4747	1051.5105	1058.6085	1082.1094	1102.8206	1117.1776	1128.3349	1140.5148	1197.3415	1265.2043	1280.5625	1302.372	1321.3643	1345.9387	1384.1718	1402.2766	1409.126	1416.8981	1420.9101	1435.0948	1481.7632	1489.2527	1492.7553	1495.8915	1498.96	1504.8321	1508.0367	1512.5387	3019.6134	3027.0168	3030.67	3031.2074	3035.0419	3057.6853	3083.064	3099.2092	3100.8596	3103.5218	3114.1777	3117.4017	3118.7072	3121.2908	3195.7673	3812.8338
CCC1CC1(C)C(C)O	CC[C@H]1C[C@]1(C)[C@@H](C)O	
InChI=1S/C8H16O/c1-4-7-5-8(7,3)6(2)9/h6-7,9H,4-5H2,1-3H3	InChI=1S/C8H16O/c1-4-7-5-8(7,3)6(2)9/h6-7,9H,4-5H2,1-3H3/t6-,7+,8-/m1/s1
