18
gdb 79605	2.2242	1.89815	1.52658	4.0682	74.88	-0.2469	-0.0128	0.2341	965.4019	0.14915	-401.930346	-401.922822	-401.921878	-401.962198	29.637	
C	-0.0552658108	 1.5612850088	 0.0586060117	-0.434264
C	 0.0492963117	 0.0490074308	-0.0504803897	-0.014971
C	 0.6076873413	-0.79598879	-1.1734853081	-0.083535
C	 1.6240866413	-0.3069981761	-2.1902555599	-0.027449
C	 2.1345312572	 1.090591319	-2.2845969991	-0.270335
N	 2.8570195324	 0.0686895912	-1.4962101801	-0.120025
C	 2.6147265046	-0.0147152484	-0.0810139373	 0.376734
O	 3.3672028373	 0.4137197495	 0.7514486429	-0.322975
C	 1.3155279901	-0.7618924684	 0.1682732688	-0.177675
H	 0.9164158857	 2.0540625174	 0.1327919	 0.144838
H	-0.6034464206	 1.99324916	-0.7852650758	 0.125595
H	-0.6013592661	 1.8187556679	 0.9711860207	 0.126051
H	-0.8111201391	-0.4447283327	 0.3962312092	 0.101244
H	 0.0224786223	-1.6553432333	-1.4788121847	 0.096841
H	 1.7568876625	-0.9549792141	-3.0531604735	 0.102524
H	 2.6556163296	 1.4049903352	-3.1850360018	 0.130664
H	 1.6310016958	 1.8890894304	-1.757885729	 0.135356
H	 1.3259469249	-1.5591593571	 0.9021244257	 0.111381
113.0466	168.3258	175.9071	278.2791	327.5406	392.5997	478.0668	571.6571	617.1408	664.2467	699.064	735.7993	780.87	825.4151	863.4477	870.7274	933.5102	962.2846	1019.3062	1034.6916	1043.0007	1073.8985	1089.8732	1100.166	1117.541	1133.9819	1157.6363	1164.2761	1231.4388	1293.087	1318.7348	1371.2856	1381.0391	1421.6448	1436.1716	1494.9298	1502.0554	1523.3168	1842.9759	3039.907	3099.4093	3116.1123	3128.8736	3131.1577	3136.6703	3175.9615	3184.6359	3247.672
CC1C2C3CN3C(=O)C12	C[C@H]1[C@H]2[C@H]3CN3C(=O)[C@@H]12	
InChI=1S/C7H9NO/c1-3-5-4-2-8(4)7(9)6(3)5/h3-6H,2H2,1H3	InChI=1S/C7H9NO/c1-3-5-4-2-8(4)7(9)6(3)5/h3-6H,2H2,1H3/t3-,4+,5-,6-,8?/m0/s1
