21
gdb 105486	1.83528	1.63049	1.23542	2.0956	78.08	-0.2317	-0.0158	0.2159	1172.8698	0.17972	-424.236738	-424.226552	-424.225608	-424.272845	36.386	
C	 0.4295784876	 1.4704476903	-0.1290239852	-0.39882
C	 0.1736994852	-0.0276835052	-0.3196379074	-0.219613
C	-1.2737993109	-0.4269183886	-0.0374933255	 0.332106
C	-1.522545365	-1.9444564379	 0.2007749626	-0.332172
C	-1.8788613386	-1.5183470269	 1.63675023	-0.072841
O	-1.6711689304	-0.1235840985	 1.3275045377	-0.319073
C	-2.2270097561	 0.1769502025	-1.0785401406	 0.332806
C	-3.4424265657	 0.9172515631	-0.5670306673	-0.475948
O	-1.9944599853	 0.0271233796	-2.2572411137	-0.317868
H	 1.4885845525	 1.7042049883	-0.2702982336	 0.115573
H	-0.1387495892	 2.0667989304	-0.8503825748	 0.124197
H	 0.1425138747	 1.7840927357	 0.8788160622	 0.132926
H	 0.4022743263	-0.3318008567	-1.3464440867	 0.124308
H	 0.8222946425	-0.6041767391	 0.3501226549	 0.091627
H	-2.3378758599	-2.3797591985	-0.3788125556	 0.121335
H	-0.6337477171	-2.5673786877	 0.0902482409	 0.119001
H	-2.9096629359	-1.7160074919	 1.9538106084	 0.10555
H	-1.1957887745	-1.8673116315	 2.4198719074	 0.108619
H	-4.0656606517	 0.2538617295	 0.0421769254	 0.140525
H	-3.1355244961	 1.7319791522	 0.0962588804	 0.15368
H	-4.0171890824	 1.3012617509	-1.4105502994	 0.134084
27.7365	81.5237	103.3412	152.1769	180.3556	209.6676	227.4663	265.6495	340.8091	404.4993	468.0521	500.2082	594.8913	641.0888	765.0318	786.7169	850.9383	869.9436	947.3436	962.0699	977.3635	997.6449	1022.6732	1039.6054	1048.7616	1134.3738	1157.0351	1165.528	1185.3924	1209.9358	1253.8229	1267.58	1321.1878	1350.2781	1366.617	1381.3306	1406.6305	1449.5514	1465.1201	1470.1162	1494.0713	1500.3194	1508.3461	1532.7017	1802.0378	3021.7749	3036.0799	3040.5484	3044.7804	3061.7331	3082.9546	3084.7866	3105.8845	3109.1117	3119.4922	3137.8606	3155.5445
CCC1(CCO1)C(C)=O	CC[C@]1(CCO1)C(=O)C	
InChI=1S/C7H12O2/c1-3-7(6(2)8)4-5-9-7/h3-5H2,1-2H3	InChI=1S/C7H12O2/c1-3-7(6(2)8)4-5-9-7/h3-5H2,1-2H3/t7-/m0/s1
