16
gdb 71182	2.61967	1.70507	1.37631	4.4197	72.01	-0.2455	0.0042	0.2496	963.404	0.125514	-396.865013	-396.857488	-396.856543	-396.896916	29.164	
N	-0.0823447878	 1.4800476804	 0.0313264357	-0.623787
C	-0.0743078582	 0.0564723324	-0.0394987479	 0.288637
C	 0.4653582681	-0.8067623637	-1.2271305144	-0.311642
C	-0.4863891621	-1.8846414866	-0.7213367789	-0.025861
C	-1.3317917813	-0.9126750016	 0.0023052838	-0.097324
N	-0.5090686523	-1.881710143	 0.7903902056	-0.148644
C	 0.3957307617	-0.7507059021	 1.1919464652	-0.108787
C	 1.8186345155	-1.0440396144	 1.3529116151	 0.281064
N	 2.9510356411	-1.2506832723	 1.4612771607	-0.329314
H	 0.8386953952	 1.8316110457	 0.2796955614	 0.244423
H	-0.3258305042	 1.8915687558	-0.8646662982	 0.237511
H	 0.1169978789	-0.4055018625	-2.1831629853	 0.107911
H	 1.5391121021	-1.0126487847	-1.2723368336	 0.125995
H	-0.7649703325	-2.8212468309	-1.1840430179	 0.11212
H	-2.3960013864	-0.7740373319	 0.1357140059	 0.111997
H	 0.0021121921	-0.3237431205	 2.1179955728	 0.135699
117.2506	146.368	172.2783	312.0964	328.9266	407.4568	427.4309	542.0087	573.5464	644.2708	739.7894	744.9631	806.248	828.8193	849.8679	896.8839	942.3078	962.2231	976.4014	1022.5817	1031.5645	1034.811	1074.1536	1121.2054	1152.7582	1182.0878	1200.8584	1251.4651	1313.6241	1323.5878	1345.7173	1386.6464	1496.5959	1651.8377	2350.3719	3051.3777	3086.5588	3109.4892	3209.1273	3222.9995	3488.3934	3567.2111
NC12CC3C1N3C2C#N	N[C@]12C[C@@H]3[C@H]1N3[C@H]2C#N	
InChI=1S/C6H7N3/c7-2-4-6(8)1-3-5(6)9(3)4/h3-5H,1,8H2	InChI=1S/C6H7N3/c7-2-4-6(8)1-3-5(6)9(3)4/h3-5H,1,8H2/t3-,4+,5-,6+,9?/m1/s1
