19
gdb 91701	2.64246	1.59273	1.43488	1.7693	75.36	-0.2356	0.0077	0.2433	1029.2393	0.159761	-423.028566	-423.020675	-423.019731	-423.060648	31.11	
C	-0.1977435879	 1.5449366488	-0.0336154837	-0.410665
C	 0.0407836874	 0.0462735417	 0.0095511666	 0.149842
O	 0.9057295028	-0.3745150764	-1.0634397165	-0.300605
C	 1.9015338533	-1.1940726935	-0.4029110367	 0.069977
O	 1.1976365186	-1.7956579641	 0.6557070321	-0.232728
C	 0.8015697878	-0.5400103456	 1.2511456981	-0.036571
C	 2.1309701577	 0.1859357506	 1.3654821497	-0.21903
C	 2.8477621438	-0.2225758358	 0.3131853319	 0.364464
C	 4.1713780616	 0.2110917585	-0.2125583902	-0.513533
H	 0.7406763328	 2.096068197	 0.0630627616	 0.122539
H	-0.6606682625	 1.8228689204	-0.9847691517	 0.129186
H	-0.874078596	 1.8503690153	 0.7725460231	 0.111571
H	-0.9092417735	-0.494934892	-0.083560868	 0.084786
H	 2.3032982155	-1.9217400141	-1.106697564	 0.087012
H	 0.2044466405	-0.6954901671	 2.1475029703	 0.087722
H	 2.3670081374	 0.9632322029	 2.0793675179	 0.104325
H	 4.6404474623	 0.9531316545	 0.4389492961	 0.128809
H	 4.8588842298	-0.6377033573	-0.3159395521	 0.1315
H	 4.0641559088	 0.6530892664	-1.2110943444	 0.1414
124.5538	174.6662	199.947	239.7554	279.1338	307.0771	448.4627	513.6404	547.1684	597.1598	622.5577	771.4151	781.9847	806.6995	840.8564	864.2824	885.2315	915.0727	936.5668	977.1282	1006.791	1053.1131	1063.3195	1090.8999	1116.9182	1146.3675	1198.3691	1242.4275	1252.8285	1269.6861	1320.1819	1333.1623	1345.9247	1377.4338	1408.7199	1411.6807	1478.8622	1486.1588	1486.4014	1500.0521	1696.2151	3020.0007	3021.8762	3039.8692	3068.3388	3107.6316	3112.6988	3128.8577	3138.4884	3145.821	3224.6257
CC1OC2OC1C=C2C	C[C@H]1O[C@@H]2O[C@H]1C=C2C	
InChI=1S/C7H10O2/c1-4-3-6-5(2)8-7(4)9-6/h3,5-7H,1-2H3	InChI=1S/C7H10O2/c1-4-3-6-5(2)8-7(4)9-6/h3,5-7H,1-2H3/t5-,6+,7-/m1/s1
