21
gdb 104664	1.85801	1.38533	1.06064	1.1915	74.46	-0.2318	0.0519	0.2837	1260.3312	0.179969	-461.330035	-461.319456	-461.318512	-461.365452	38.903	
C	-1.7456711804	-1.1312094812	-0.7084508345	-0.383677
C	-0.4547729798	-0.4574207025	-0.2252155594	-0.262014
C	 0.7143493504	-0.6311903316	-1.1852313302	 0.231883
C	 0.6743204679	 0.2125276455	-2.4482277763	-0.138417
O	 0.9731539056	 1.5844527191	-2.225901551	-0.417733
C	 2.1058839136	-0.8691073031	-0.6421300562	-0.019377
O	 2.2267055754	-0.9861056424	 0.7571663485	-0.433199
C	 1.3694503275	-2.0033415071	-1.3162730765	 0.041782
O	 0.9526040155	-3.0602518585	-0.5069901131	-0.433875
H	-2.0707760271	-0.7474323947	-1.6811641757	 0.110853
H	-1.5931335007	-2.2093505077	-0.8030408741	 0.141676
H	-2.5616966312	-0.9592307469	 0.0006149267	 0.108097
H	-0.6283604166	 0.6165228054	-0.063469698	 0.078411
H	-0.1849321372	-0.8505306292	 0.757448833	 0.11554
H	 1.4353049391	-0.1344139767	-3.1558517231	 0.101981
H	-0.3007537546	 0.0945370314	-2.9452917425	 0.095026
H	 0.3104911223	 1.9374934204	-1.6242138743	 0.284603
H	 2.9369689282	-0.3646244378	-1.12940741	 0.101434
H	 3.0975362755	-1.3529997906	 0.945041873	 0.297732
H	 1.6739644534	-2.3450428323	-2.3018529106	 0.094926
H	 1.2233709834	-2.8269883296	 0.3925651144	 0.284347
60.0917	101.9078	133.8981	184.8183	206.8401	241.3759	256.8791	268.6379	291.1538	306.5076	362.4053	377.1362	495.4148	537.9403	616.6403	669.9816	701.8692	777.4561	829.7491	888.968	958.0229	978.2476	1026.4366	1040.3437	1058.7294	1077.5335	1100.4165	1144.2272	1153.0454	1204.5467	1222.6105	1247.6227	1297.1717	1322.2736	1342.6598	1371.8027	1375.313	1406.9287	1412.7235	1427.9757	1472.1832	1492.1448	1495.917	1507.2871	1512.3604	2988.1756	2999.1039	3038.049	3062.7975	3089.8148	3106.7977	3125.5485	3127.7238	3143.6787	3729.0041	3805.5173	3823.0412
CCC1(CO)C(O)C1O	CC[C@@]1(CO)[C@@H](O)[C@H]1O	
InChI=1S/C6H12O3/c1-2-6(3-7)4(8)5(6)9/h4-5,7-9H,2-3H2,1H3	InChI=1S/C6H12O3/c1-2-6(3-7)4(8)5(6)9/h4-5,7-9H,2-3H2,1H3/t4-,5+,6+
