20
gdb 61817	3.15925	0.93706	0.817	4.0231	76.1	-0.2468	-0.015	0.2318	1441.2897	0.168116	-440.265414	-440.255282	-440.254337	-440.301244	36.493	
C	 0.5228570516	-0.6788105125	-1.2614921554	-0.466919
C	-0.005891871	 0.0743862853	-0.0570202384	 0.298104
C	 0.9449906151	 0.8999916842	 0.7381955011	-0.284651
N	-0.071552641	 1.5427085242	-0.117317236	-0.346558
C	-1.2015315355	-0.610911556	 0.6071356475	 0.061426
O	-0.8483066349	-1.9191720277	 1.0512045192	-0.425391
C	-1.8660482967	 0.1927764439	 1.7288603846	-0.313103
C	-3.1328207683	-0.478071341	 2.208950061	 0.170337
O	-3.41406689	-0.6691949808	 3.3630741932	-0.244228
H	 1.4330707321	-0.2130773778	-1.6521134556	 0.110154
H	 0.7472367468	-1.7152691625	-0.9972115256	 0.142825
H	-0.2238856671	-0.6953435012	-2.0644518584	 0.122455
H	 0.8056289638	 1.0578470643	 1.8037118409	 0.119576
H	 1.9831612538	 0.9170491702	 0.4168009984	 0.114884
H	 0.354683246	 1.8749619691	-0.9790964755	 0.231916
H	-1.9510960783	-0.7896473084	-0.1766837037	 0.092818
H	-0.2202642022	-1.8223565754	 1.7764976972	 0.283804
H	-1.2017931891	 0.3229281564	 2.5895581233	 0.110082
H	-2.1165412167	 1.189300263	 1.343059413	 0.151065
H	-3.8269000984	-0.7843672072	 1.3911380793	 0.071406
55.4037	61.8129	85.52	160.3699	213.3367	240.2667	288.1321	312.4576	329.0795	369.1145	432.777	461.5716	512.905	578.498	726.2517	777.2949	851.26	913.6319	930.8292	953.4834	983.7634	994.9792	1048.2198	1051.675	1074.8514	1109.6722	1125.3946	1156.614	1188.7352	1241.337	1272.7669	1291.8161	1323.8301	1379.7709	1400.4884	1411.6912	1415.755	1430.8939	1456.9663	1482.5605	1504.8845	1516.2765	1838.2721	2855.5133	3014.6871	3029.902	3036.7991	3092.0753	3093.8354	3110.6561	3123.1591	3192.6406	3496.1009	3793.8166
CC1(CN1)C(O)CC=O	C[C@]1(CN1)[C@@H](O)CC=O	
InChI=1S/C6H11NO2/c1-6(4-7-6)5(9)2-3-8/h3,5,7,9H,2,4H2,1H3	InChI=1S/C6H11NO2/c1-6(4-7-6)5(9)2-3-8/h3,5,7,9H,2,4H2,1H3/t5-,6-/m0/s1
