16
gdb 128005	3.95453	1.1432	0.89667	2.5678	80.91	-0.2432	-0.0884	0.1548	1276.4804	0.121575	-434.0291	-434.02012	-434.019176	-434.063448	31.61	
C	-0.0201212538	 1.440642135	-0.1093493472	-0.32264
N	 0.0356026134	-0.0126596846	-0.0667742293	-0.315793
C	-1.0331424461	-0.6532640485	 0.1692786961	 0.453816
O	-2.2364760889	-0.0147656979	 0.3852143345	-0.307806
N	-3.4652558013	-0.7738304425	 0.6562460756	 0.04236
N	-3.4079952738	-1.9941906011	 0.6895272799	-0.148279
C	-2.2229972587	-2.742117164	 0.482228222	 0.343497
C	-2.4131834753	-4.2212689935	 0.5745687857	-0.462348
C	-1.0735673169	-2.0992319532	 0.2305684171	-0.243404
H	 0.9781188393	 1.8275361129	-0.3251575333	 0.120614
H	-0.7103138616	 1.8017820893	-0.8832696361	 0.128351
H	-0.3611998778	 1.8653413011	 0.8441000248	 0.12837
H	-2.8027773653	-4.4972718461	 1.5603916289	 0.153105
H	-3.1476717571	-4.5605402851	-0.1637943772	 0.153105
H	-1.4723654786	-4.7483124281	 0.4058052091	 0.137693
H	-0.1381104173	-2.6189519636	 0.0640436295	 0.139357
52.5162	102.1839	135.5877	155.4826	179.6828	301.7217	317.483	380.8099	426.1993	477.7731	510.9854	629.1622	719.5398	733.7054	788.0759	876.2303	927.4068	943.378	1015.1749	1048.3632	1070.058	1104.5822	1145.8493	1212.8806	1251.353	1335.8975	1416.754	1436.2328	1470.2071	1481.3871	1484.7561	1496.2697	1630.727	1701.8085	1736.765	3005.024	3040.1365	3055.5061	3096.2654	3112.4642	3139.3948	3219.3079
CN=C1ON=NC(C)=C1	C[N]C1=CC(=N[N]O1)C	
InChI=1S/C5H7N3O/c1-4-3-5(6-2)9-8-7-4/h3H,1-2H3	InChI=1S/C5H7N3O/c1-4-3-5(6-2)9-8-7-4/h3H,1-2H3
