17
gdb 46742	2.73653	1.83021	1.42416	3.4947	70.46	-0.2097	-0.0146	0.1951	935.9915	0.13849	-417.964811	-417.957849	-417.956905	-417.996257	27.885	
O	-0.0279921882	 0.0659548534	 0.4007469929	-0.321464
C	-0.0453119977	 1.2333049512	 0.1089457863	 0.419291
C	-1.3074537832	 2.0576505383	-0.2105140488	-0.274181
N	-0.884254896	 3.349194393	-0.7771276161	-0.303323
C	 0.5438170872	 3.5201725181	-0.5116549186	-0.022222
C	 0.9732174125	 4.1627423755	 0.8261044273	-0.033818
N	 0.3538734623	 3.3685886	 1.9139199289	-0.339538
C	 1.5991230731	 2.8860835518	 1.2726367677	-0.051657
C	 1.1576677975	 2.1675994643	-0.0212512155	-0.171813
H	-1.9645210362	 1.5059015286	-0.8899004235	 0.116982
H	-1.8435905723	 2.1973991601	 0.735412351	 0.150805
H	-1.0439559074	 3.3524524013	-1.776140671	 0.222719
H	 1.0576812902	 3.9791740263	-1.3580936472	 0.079817
H	 1.2725061096	 5.1894088422	 0.9994113137	 0.095779
H	 0.6123987532	 3.8108102825	 2.7945853307	 0.235122
H	 2.4948145634	 2.6987838186	 1.849543797	 0.102266
H	 1.9654691818	 1.733743675	-0.6105481249	 0.095235
95.2997	167.1351	225.6134	352.5813	438.4735	525.4433	563.3501	630.4193	647.2606	703.9475	768.3559	778.6267	824.6383	840.5287	872.8041	905.8704	944.9487	968.299	983.9612	1018.7099	1038.3323	1090.5089	1096.5798	1119.896	1142.4223	1177.6763	1215.422	1217.7745	1226.37	1291.4574	1301.2866	1318.28	1370.2347	1378.6455	1461.0796	1464.3275	1846.1673	3040.3699	3087.614	3095.3871	3119.3553	3183.6312	3208.8965	3485.4384	3556.478
O=C1CNC2C3NC3C12	O=C1CN[C@H]2[C@H]3N[C@H]3[C@@H]12	
InChI=1S/C6H8N2O/c9-2-1-7-4-3(2)5-6(4)8-5/h3-8H,1H2	InChI=1S/C6H8N2O/c9-2-1-7-4-3(2)5-6(4)8-5/h3-8H,1H2/t3-,4+,5-,6+/m0/s1
