18
gdb 99235	3.97675	0.84602	0.83068	2.0839	70.31	-0.2452	-0.0122	0.233	1486.4237	0.144556	-476.283946	-476.273337	-476.272392	-476.321501	35.375	
C	 0.4208493079	 0.9133323937	-0.4551968875	-0.328319
N	-0.1525983762	-0.1062918896	 0.3973453884	-0.356798
C	 0.6089413818	-0.866462887	 1.2212632283	 0.54131
O	 1.7955678985	-0.7393406494	 1.4278679404	-0.423097
O	-0.1788096157	-1.7987256307	 1.8395789107	-0.26104
C	 0.5364851463	-2.7394806815	 2.6139787487	-0.179802
C	 1.2106361428	-3.8079403742	 1.7493951629	 0.383337
C	 2.090584169	-4.7847756359	 2.5036622469	-0.485703
O	 1.0479062844	-3.8499048088	 0.5556927958	-0.285003
H	 0.4347131821	 0.606168276	-1.507864867	 0.129487
H	-0.1372659363	 1.8513899529	-0.3700579444	 0.125683
H	 1.4474229004	 1.0786576013	-0.1268984805	 0.16928
H	-1.1029553283	-0.4047566931	 0.2544349572	 0.256295
H	 1.2921286234	-2.2459738425	 3.2342954129	 0.144324
H	-0.1967809959	-3.2196010676	 3.270973709	 0.131373
H	 3.0152695663	-4.2762496546	 2.8013243548	 0.157869
H	 1.6072386133	-5.1382614667	 3.4207562304	 0.132268
H	 2.3407667465	-5.6295795422	 1.8611102529	 0.148536
44.0828	49.9871	71.1228	84.1188	114.2544	135.6712	232.0564	281.1836	334.9997	371.8533	456.7967	485.3874	510.0946	639.6077	686.5225	775.2773	811.951	857.0826	929.5147	962.165	1071.8447	1099.6035	1156.8394	1167.8323	1180.7733	1205.128	1257.4485	1297.8382	1381.1487	1394.2824	1440.0272	1448.7273	1464.5088	1477.2155	1496.4594	1500.8972	1569.1593	1821.5471	1834.9523	3025.9579	3036.1278	3049.0576	3081.0011	3094.3552	3101.3464	3153.5322	3154.9761	3656.4452
CNC(=O)OCC(C)=O	CNC(=O)OCC(=O)C	
InChI=1S/C5H9NO3/c1-4(7)3-9-5(8)6-2/h3H2,1-2H3,(H,6,8)	InChI=1S/C5H9NO3/c1-4(7)3-9-5(8)6-2/h3H2,1-2H3,(H,6,8)
