19
gdb 82141	2.98872	1.17033	1.00892	4.0963	77.31	-0.2379	0.0342	0.2721	1229.6625	0.160095	-419.190862	-419.182189	-419.181245	-419.22488	32.277	
C	-0.185996149	 1.5926194062	-0.2421810602	-0.41245
C	-0.0302056188	 0.0842839706	-0.1391823559	 0.002543
C	 0.7375347119	-0.6562094413	-1.2414526157	-0.059038
N	 2.1421764296	-0.1768806693	-1.1751995192	-0.353074
C	 1.6820907224	-1.2551515664	-0.2623574394	-0.075754
C	 1.0117440797	-0.5239234377	 0.9031218573	 0.018388
N	 1.8706695032	 0.3741713615	 1.6280767626	-0.265215
C	 1.8027791643	 0.5635919089	 2.9716585655	 0.15059
O	 1.0217945361	 0.0130093029	 3.7201966036	-0.330501
H	 0.7652846485	 2.0682128806	-0.4937027067	 0.12558
H	-0.9116577344	 1.854630505	-1.0197712253	 0.11362
H	-0.5422516627	 2.0136421007	 0.7034305709	 0.125389
H	-1.000203011	-0.3935416385	 0.0287736528	 0.083102
H	 0.344967665	-1.0761567042	-2.1591810699	 0.097019
H	 2.6539343545	-0.6210498326	-1.93592634	 0.233848
H	 2.1725006369	-2.2207703405	-0.250914321	 0.098766
H	 0.5252167965	-1.1745876156	 1.6281399226	 0.117771
H	 2.5500514295	 0.8851056993	 1.084514697	 0.258174
H	 2.561873938	 1.2919299302	 3.3210736209	 0.071242
41.3261	117.4675	181.6105	207.2976	208.5918	267.7655	278.7637	451.3802	539.6	598.8517	621.6238	670.6342	733.9228	819.5913	830.4652	846.0137	897.8102	924.115	987.8117	1000.6051	1032.7514	1035.361	1070.2947	1107.4102	1111.1915	1126.7249	1144.3026	1186.0813	1213.7692	1260.1029	1295.2143	1326.3288	1347.1322	1367.7197	1383.933	1407.3788	1430.6515	1489.5503	1501.7993	1524.2274	1800.5752	2931.5982	3036.9639	3062.1335	3099.9962	3123.0244	3137.9894	3185.2122	3199.1052	3486.5079	3623.3437
CC1C2NC2C1NC=O	C[C@H]1[C@H]2N[C@H]2[C@H]1NC=O	
InChI=1S/C6H10N2O/c1-3-4(7-2-9)6-5(3)8-6/h2-6,8H,1H3,(H,7,9)	InChI=1S/C6H10N2O/c1-3-4(7-2-9)6-5(3)8-6/h2-6,8H,1H3,(H,7,9)/t3-,4+,5-,6+/m1/s1
