16
gdb 41062	3.36115	2.16986	1.9373	1.0426	69.5	-0.2102	0.0382	0.2484	772.7973	0.12613	-400.574233	-400.568538	-400.567594	-400.603817	24.84	
C	 0.0059338797	 1.5156183027	-0.1260881457	-0.198415
O	 1.4495047894	 1.5244064979	 0.1704360292	-0.333375
C	 1.363126852	 0.1421778937	 0.5457129108	 0.33802
C	 0.7861682353	-0.3128295166	 1.9183729014	-0.243143
N	-0.2906147261	-1.0273762657	 1.1185134406	-0.205563
C	 0.5286377642	-1.9275204856	 0.206814977	-0.013803
C	 1.7571233119	-1.0954979848	-0.2552558688	-0.161905
C	 0.4326717788	-1.0920314356	-1.0277092549	-0.173021
C	-0.0286554637	-0.0163154248	-0.0307359452	 0.217141
H	-0.5699651809	 2.053940056	 0.6352144701	 0.123371
H	-0.2026164721	 1.9381990607	-1.1132642918	 0.126848
H	 1.3750141254	-0.9563479284	 2.576291691	 0.107213
H	 0.3467861388	 0.5110957388	 2.4850719927	 0.116979
H	 0.5412348738	-3.0019166644	 0.3239020537	 0.104494
H	 2.7108473714	-1.5568690594	-0.4785566916	 0.09441
H	 0.160139122	-1.3494563046	-2.0424166083	 0.100747
266.7061	334.9374	400.7166	479.0544	553.2981	597.6616	727.9357	760.795	772.9318	798.218	807.8971	837.4874	848.8371	858.5199	915.7755	938.1568	957.9268	986.6017	1000.678	1043.612	1056.8261	1095.5587	1107.4637	1117.3194	1131.5069	1161.8638	1189.344	1221.9005	1247.4543	1278.8212	1282.3655	1318.7143	1339.5032	1487.5457	1502.7487	3033.2636	3065.4293	3093.2566	3130.2749	3190.0927	3202.5535	3223.0754
C1OC23CN4C5C2C5C134	C1O[C@]23CN4[C@@H]5[C@H]2[C@@H]5[C@]134	
InChI=1S/C7H7NO/c1-7-4-3-5(4)8(1)6(3,7)2-9-7/h3-5H,1-2H2	InChI=1S/C7H7NO/c1-7-4-3-5(4)8(1)6(3,7)2-9-7/h3-5H,1-2H2/t3-,4+,5-,6+,7+/m0/s1
