19
gdb 116750	5.53138	0.62326	0.56764	1.3174	77.67	-0.25	-0.0168	0.2332	1955.2697	0.157205	-456.369682	-456.359135	-456.35819	-456.406689	36.053	
C	 0.4844803538	 0.8661824117	 0.5595713058	-0.400384
C	-0.2701064412	 0.2322237148	-0.6117510641	-0.115189
N	 0.4439176154	-0.6762870409	-1.4972921588	-0.212437
C	 1.6534126196	-0.9289448246	-1.2973613078	 0.109732
O	 2.2798080411	-1.7989091807	-2.1693383672	-0.220583
C	 3.6008365798	-2.0820934647	-1.9592709386	 0.42454
O	 4.2626964182	-1.626898986	-1.0653619943	-0.341472
C	 4.0993796238	-3.0533224809	-3.0215948638	-0.278619
N	 5.4936598419	-3.4338643814	-2.9076611655	-0.486012
H	 0.8699066445	 0.1114054173	 1.2530771961	 0.125943
H	 1.3265530475	 1.4779892777	 0.2192791847	 0.125941
H	-0.1928748488	 1.5168281151	 1.1204579029	 0.119245
H	-1.1389257549	-0.3222217057	-0.2340282766	 0.120982
H	-0.6901824612	 1.0204667501	-1.2498247443	 0.120974
H	 2.3154822507	-0.5594938959	-0.5164901655	 0.136224
H	 3.4596865653	-3.9431590543	-2.9845912644	 0.147664
H	 3.9094510386	-2.5997760689	-4.0017017644	 0.14766
H	 6.0724797876	-2.5990215135	-2.9311348573	 0.237895
H	 5.656723768	-3.8408397792	-1.990967667	 0.237895
45.7702	53.1411	88.4748	98.6048	179.0573	206.0942	211.1356	259.2582	313.5383	340.3064	372.1614	449.6576	565.037	598.0643	706.4807	778.1597	863.5308	917.5838	918.401	957.3578	992.2215	1068.3804	1087.5582	1130.6615	1147.3398	1168.6445	1181.0245	1185.8966	1313.0112	1367.0058	1373.154	1387.6308	1387.7768	1411.7747	1450.9808	1478.7418	1496.1098	1504.5977	1678.6124	1777.298	1835.0764	3024.0063	3035.2758	3043.487	3045.083	3078.4647	3104.5403	3110.5626	3155.1066	3497.2772	3566.0982
CCN=COC(=O)CN	CCN=COC(=O)CN	
InChI=1S/C5H10N2O2/c1-2-7-4-9-5(8)3-6/h4H,2-3,6H2,1H3	InChI=1S/C5H10N2O2/c1-2-7-4-9-5(8)3-6/h4H,2-3,6H2,1H3
