16
gdb 28808	3.09624	1.43909	1.11659	3.0452	83.73	-0.2416	-0.0714	0.1702	1097.1696	0.125299	-396.948421	-396.940553	-396.939609	-396.980958	29.415	
C	 0.0693390658	 1.3725127432	 0.3608288604	-0.455442
C	-0.0309183634	-0.0599986441	-0.0833377752	 0.299862
C	-1.2356194336	-0.6882395193	-0.2116160698	-0.149477
C	-1.4280598185	-2.0614290986	-0.5933851704	-0.004638
N	-0.6200208571	-3.0613038223	-0.4652036773	-0.257254
C	 0.6302507	-2.9157151173	 0.1331733435	 0.284555
N	 1.1209057117	-3.6718713893	 1.0302426633	-0.495875
C	 1.4775532394	-1.8366850299	-0.45643043	-0.00474
N	 1.1754030855	-0.5969056345	-0.4862843335	-0.22764
H	 0.4998475633	 1.9891835526	-0.4344924436	 0.149346
H	-0.9036899042	 1.77637565	 0.646402135	 0.126886
H	 0.7463811322	 1.4478500579	 1.219312814	 0.147203
H	-2.1351337626	-0.0884926634	-0.1050504321	 0.102045
H	-2.3990373613	-2.3010967107	-1.0334505681	 0.119613
H	 0.4240840806	-4.3678600403	 1.3122181403	 0.223948
H	 2.428436632	-2.141924664	-0.8957686566	 0.141606
81.2546	130.8123	179.8609	290.0805	315.2606	347.4603	394.7438	423.2387	520.4533	602.2285	664.3547	738.2424	755.0478	836.8189	883.6416	889.7768	933.4328	957.6475	986.244	1001.543	1053.8127	1065.2612	1125.3491	1211.1551	1324.1909	1349.4538	1405.7994	1408.7369	1434.2046	1469.9965	1482.5081	1573.262	1657.473	1684.3088	1725.1898	3039.54	3097.294	3099.5083	3123.1662	3137.2495	3168.1511	3432.0809
CC1=CC=NC(=N)C=N1	CC1=CC=N[C]([NH])C=N1	
InChI=1S/C6H7N3/c1-5-2-3-8-6(7)4-9-5/h2-4,7H,1H3	InChI=1S/C6H7N3/c1-5-2-3-8-6(7)4-9-5/h2-4,7H,1H3
