14
gdb 48902	3.17638	1.46335	1.15216	2.1029	67.48	-0.2456	-0.0501	0.1955	1012.0556	0.100225	-436.605248	-436.598159	-436.597214	-436.637188	26.606	
O	 0.0616271312	-0.0491073762	-0.0579627397	-0.238324
C	 0.11309574	 1.1485294293	-0.1597225556	 0.036713
C	 1.3819167528	 1.9231639048	-0.0912878299	 0.285573
N	 2.7491329536	 1.3395016245	-0.042156542	-0.369403
C	 2.9416298866	 2.8188119044	 0.0433697754	-0.012797
C	 1.8418013513	 3.0993258338	-1.0459662011	-0.239455
C	 1.185540464	 4.1200615918	-0.1274912439	 0.447336
O	 0.6032751927	 5.1585926602	-0.1983383243	-0.320879
C	 1.6661710024	 3.1303100352	 0.9231754375	-0.264794
H	-0.7951190157	 1.7776122576	-0.2951363979	 0.095993
H	 2.9140234171	 0.894268585	 0.8634934819	 0.225991
H	 3.9136012191	 3.3042219495	 0.1137660622	 0.117856
H	 1.963174904	 3.026344613	-2.1231879323	 0.123982
H	 1.5822618107	 3.093460507	 2.0075852298	 0.112208
105.5496	109.3879	217.503	278.826	385.3971	432.0197	568.6233	616.0141	633.726	721.4571	786.4153	797.759	823.8679	853.0376	952.2237	968.9683	1004.057	1013.912	1073.5389	1091.2223	1098.7932	1115.6205	1120.8678	1191.8751	1226.5835	1272.2172	1289.9409	1316.5058	1417.2918	1824.174	1921.2861	2886.8526	3132.6201	3150.7746	3172.2639	3422.6348
O=CC12NC3C1C(=O)C23	O=C[C@@]12N[C@H]3[C@@H]1C(=O)[C@@H]23	
InChI=1S/C6H5NO2/c8-1-6-2-4(7-6)3(6)5(2)9/h1-4,7H	InChI=1S/C6H5NO2/c8-1-6-2-4(7-6)3(6)5(2)9/h1-4,7H/t2-,3+,4+,6-
