18
gdb 86510	5.37894	0.59448	0.58258	3.4294	87.34	-0.2291	-0.0604	0.1688	1904.5982	0.145875	-401.898181	-401.888624	-401.88768	-401.934955	32.835	
C	 0.0835341077	 1.5344487062	 0.1307634809	-0.320335
N	-0.0303362104	 0.0935952687	 0.1748662064	-0.067759
C	-1.2917193097	-0.4961754231	 0.6539954931	-0.172947
C	-0.4562961824	-1.6318422462	 1.3217013236	-0.189141
C	 0.7399102051	-0.6410943601	 1.1936806396	-0.172667
C	-0.8422178364	-2.1133398943	 2.6249309666	 0.125672
C	-1.1542876837	-2.5085169657	 3.7243938497	 0.009383
C	-1.5648492013	-2.9854149491	 5.0183845751	 0.01832
O	-0.8380055484	-3.0730938437	 5.982056309	-0.229884
H	 1.0997503013	 1.8159435375	-0.1640568357	 0.126395
H	-0.6063100961	 1.9375122541	-0.6179946065	 0.125321
H	-0.1398924136	 2.0172873923	 1.1009474275	 0.09553
H	-1.8052367076	 0.1179489964	 1.411471509	 0.098062
H	-2.0046369662	-0.7826354173	-0.1249910812	 0.114291
H	-0.3358907755	-2.4720430093	 0.6318780392	 0.125764
H	 1.6996305753	-1.0447743907	 0.8578157743	 0.115216
H	 0.8878581601	-0.0750832865	 2.1272953922	 0.101608
H	-2.633535178	-3.2781084392	 5.0742693174	 0.09717
14.583	64.1511	83.7834	157.9695	196.7459	232.2189	290.3554	332.8403	350.704	428.143	514.3881	579.5825	654.1092	765.8483	892.1753	908.3828	976.3392	981.2655	1007.0352	1021.8127	1090.6412	1124.7239	1143.0739	1176.1494	1199.7716	1227.2971	1228.6198	1232.7137	1298.3845	1335.6047	1362.2762	1423.1896	1452.3092	1486.0703	1498.6767	1503.0248	1529.655	1764.9597	2322.8523	2913.588	2929.6447	2971.4206	2981.8408	3059.9524	3065.0614	3073.8796	3081.7769	3101.9184
CN1CC(C1)C#CC=O	CN1CC(C1)C#CC=O	
InChI=1S/C7H9NO/c1-8-5-7(6-8)3-2-4-9/h4,7H,5-6H2,1H3	InChI=1S/C7H9NO/c1-8-5-7(6-8)3-2-4-9/h4,7H,5-6H2,1H3
