12
gdb 27855	2.09055	2.01082	1.02496	3.7372	60.93	-0.2663	-0.0349	0.2314	1039.3366	0.078712	-506.039208	-506.031732	-506.030788	-506.071294	27.59	
N	 0.0206882171	 1.309094608	 0.0076256223	-0.534955
C	 0.0079623067	-0.0310862241	 0.0003368203	 0.465332
N	-1.171953261	-0.6328970594	 0.0035616079	-0.39874
C	-1.2294319843	-1.9659146501	-0.002640662	 0.44291
O	-2.1395537402	-2.7278718293	-0.0017244773	-0.321019
O	 0.1273399257	-2.6571990086	-0.0130338964	-0.280383
C	 1.2027430396	-1.9079575544	-0.0143280375	 0.507891
O	 2.3410960339	-2.58647621	-0.0245025801	-0.371197
N	 1.246124917	-0.614796781	-0.0084694151	-0.395096
H	 0.9000851645	 1.7947321824	 0.0058996199	 0.281142
H	-0.8508173223	 1.8096265595	 0.0148461856	 0.28211
H	 2.1241304733	-3.529820583	-0.0284124675	 0.322005
122.312	172.4527	191.6123	271.4661	310.6833	364.4963	498.2509	541.4493	545.7808	600.3806	614.1799	637.7935	753.6731	756.6941	763.025	812.4518	952.4253	1027.586	1124.3334	1240.5775	1286.6654	1439.0868	1490.7462	1555.873	1653.5986	1707.0808	1949.5118	3624.2088	3765.2725	3776.7953
NC1=NC(=O)OC(O)=N1	Nc1nc(=O)oc(O)n1	
InChI=1S/C3H3N3O3/c4-1-5-2(7)9-3(8)6-1/h(H3,4,5,6,7,8)	InChI=1S/C3H3N3O3/c4-1-5-2(7)9-3(8)6-1/h(H3,4,5,6,7,8)
