20
gdb 40223	2.15172	1.99829	1.28762	1.1611	78.53	-0.2245	0.0755	0.3	1045.5107	0.171989	-403.109079	-403.101054	-403.10011	-403.141737	31.799	
C	-0.2418049257	 1.5800249226	 0.0675746168	-0.323966
C	 1.1346185009	 0.9416216772	-0.0378530666	-0.348695
C	-0.0963062492	 0.0888990576	-0.0490137322	 0.42013
O	-0.385570768	-0.662993257	 1.113922409	-0.313399
C	-1.0759413587	-1.8624004679	 0.7456047273	-0.079891
C	-1.6558352462	-1.6002955755	-0.6489426511	-0.298984
C	-0.5688681589	-0.7162310489	-1.2338804049	 0.2504
C	-0.471729957	-0.2652682659	-2.6338864938	-0.315669
N	 0.3860694773	-1.3677660213	-2.1505444427	-0.354869
H	-0.5380356414	 1.9605403178	 1.0388830986	 0.122685
H	-0.6190706786	 2.1390317385	-0.7819344999	 0.112586
H	 1.6969830252	 1.0751875285	-0.9582015725	 0.106608
H	 1.7415200064	 0.9050417671	 0.8595203437	 0.12854
H	-0.3711107936	-2.7058369742	 0.7181677912	 0.103373
H	-1.8318235944	-2.0662038931	 1.5093613697	 0.106484
H	-1.8076249815	-2.5080745367	-1.2345823217	 0.116193
H	-2.6013739857	-1.0516209092	-0.5774403676	 0.108148
H	-1.23163425	-0.5563090064	-3.3543826655	 0.119586
H	-0.0150415435	 0.7017283688	-2.8346676818	 0.111372
H	 1.3239986025	-1.014265942	-1.9717365163	 0.229368
57.8817	153.7665	223.5266	230.32	321.3661	363.5376	390.6227	515.3618	539.7489	571.5658	659.7132	765.8224	803.091	849.9857	864.0993	898.8254	915.2613	920.1882	949.7269	972.2345	975.7464	985.4493	1041.7855	1064.4068	1069.1372	1088.039	1110.6834	1133.7019	1189.5358	1195.9347	1205.5838	1234.6774	1270.0153	1288.7251	1311.0385	1367.0736	1390.5365	1428.5884	1447.5133	1477.0218	1493.2901	1517.6912	1526.565	3000.9887	3049.4877	3083.3669	3098.0607	3118.001	3129.0588	3131.5013	3180.0102	3210.5393	3227.134	3486.8028
C1CC11OCCC11CN1	C1CC21OCC[C@]12CN1	
InChI=1S/C7H11NO/c1-2-7(1)6(5-8-6)3-4-9-7/h8H,1-5H2	InChI=1S/C7H11NO/c1-2-7(1)6(5-8-6)3-4-9-7/h8H,1-5H2/t6-/m1/s1
