17
gdb 41012	3.15139	2.00783	1.50273	0.9899	71.68	-0.2321	0.0528	0.2849	878.1397	0.13902	-417.871633	-417.865554	-417.864609	-417.901737	26.095	
C	-0.0386315935	 1.4996493327	 0.2051300736	-0.241269
N	 1.4588223553	 1.4982208966	-0.0318887912	-0.442116
C	 1.2499947483	 0.3161282027	-0.8602695634	 0.439763
C	 0.0346647088	-0.0430091955	-0.0673796723	 0.082185
O	-0.6904834532	-0.8963499781	-0.9536159893	-0.290338
C	 0.2883089019	-1.0587960094	-1.979499433	 0.111353
C	 0.8276557616	 0.3138888518	-2.3900235682	-0.13614
N	 2.1893505793	-0.2207654275	-2.7524822092	-0.337443
C	 1.8407236263	-0.9607771705	-1.4939245815	-0.209644
H	-0.3309012084	 1.8247533115	 1.205756401	 0.112445
H	-0.6084017875	 2.0427305543	-0.5576600081	 0.10985
H	 1.8273826373	 2.3086206698	-0.5196172473	 0.231854
H	 0.2352713225	-0.5725344092	 0.8686604403	 0.099653
H	-0.0004367779	-1.8145095108	-2.7100981158	 0.094629
H	 0.3260546619	 1.0942738805	-2.9638422606	 0.081266
H	 2.1031057714	-0.8458116697	-3.5608722847	 0.208529
H	 2.4821187059	-1.7273999893	-1.0581863402	 0.085424
215.3781	316.8329	336.1225	420.139	485.0993	575.6694	632.9677	679.159	693.0506	757.4996	772.0409	857.179	880.298	905.9521	924.569	941.2692	971.8081	999.5256	1025.1454	1060.0378	1082.3024	1106.019	1113.3462	1124.7051	1138.3797	1150.2567	1170.0013	1223.4768	1230.5511	1251.1262	1283.5373	1308.5388	1319.5336	1337.3906	1372.7439	1384.4408	1503.1729	3036.4214	3064.8115	3107.2978	3114.4158	3114.9123	3136.7755	3376.2553	3522.7742
C1NC23C1OC1C2NC31	C1N[C@@]23[C@@H]1O[C@H]1[C@@H]2N[C@@H]31	
InChI=1S/C6H8N2O/c1-2-6(7-1)4-3(9-2)5(6)8-4/h2-5,7-8H,1H2	InChI=1S/C6H8N2O/c1-2-6(7-1)4-3(9-2)5(6)8-4/h2-5,7-8H,1H2/t2-,3-,4-,5+,6-/m1/s1
