16
gdb 79506	2.4105	1.83691	1.26625	3.3586	69.77	-0.2487	-0.045	0.2037	989.1318	0.12317	-437.778376	-437.770607	-437.769663	-437.810989	29.006	
O	-0.1109632694	 1.5614919064	-0.0718845361	-0.43805
C	 0.0457099472	 0.1710258018	 0.0041229178	 0.055924
C	-0.0347175723	-0.5205691938	 1.373310774	-0.060423
C	-1.5810364804	-0.3487663372	 1.5011515717	-0.100364
C	-1.7027189248	-1.8520011737	 1.722504623	-0.193561
N	-0.5609402867	-1.8206292337	 0.7014487041	-0.202994
C	-1.2727959144	-0.6034286743	-0.0045563902	 0.272638
C	-2.2285322666	-0.8615385693	-1.1226856798	 0.03562
O	-3.4248457813	-0.9113442484	-0.9809247065	-0.243295
H	 0.7478837804	 1.9751558868	 0.0597692111	 0.292825
H	 0.8210533803	-0.2186891594	-0.6691223058	 0.088533
H	 0.6970277895	-0.5831627039	 2.1807720607	 0.086732
H	-2.1386437148	 0.4863969124	 1.9273514433	 0.089317
H	-1.3885692821	-2.2570421552	 2.6896891261	 0.104776
H	-2.6013543754	-2.3571951921	 1.3608734377	 0.125711
H	-1.7507041492	-1.0289580664	-2.1133402212	 0.086611
63.5373	174.3133	197.2531	211.4699	259.437	312.9946	453.7373	527.929	556.8099	680.354	722.5538	804.097	809.2392	858.1791	896.3098	934.562	952.14	1023.7105	1026.05	1064.849	1087.8056	1122.7307	1133.3357	1153.0675	1165.5527	1188.854	1235.4899	1261.5314	1271.4459	1303.8353	1311.9898	1415.1054	1443.3767	1518.8808	1813.795	2889.0546	3023.3133	3050.5054	3097.0088	3107.0724	3118.9878	3823.3291
OC1C2C3CN2C13C=O	O[C@H]1[C@H]2[C@@H]3CN2[C@]13C=O	
InChI=1S/C6H7NO2/c8-2-6-3-1-7(6)4(3)5(6)9/h2-5,9H,1H2	InChI=1S/C6H7NO2/c8-2-6-3-1-7(6)4(3)5(6)9/h2-5,9H,1H2/t3-,4+,5-,6-/m0/s1
