23
gdb 92912	2.82883	1.19835	0.93773	0.0545	94.24	-0.2327	0.0235	0.2562	1363.2428	0.206752	-351.169528	-351.160238	-351.159294	-351.203822	36.003	
C	-0.8944048504	 1.2367850157	-0.4225054789	-0.399123
C	-0.2414214643	-0.1520772755	-0.326721802	-0.024023
C	 0.3494282144	-0.5598309502	-1.6918609467	-0.246439
C	 0.7945996318	-1.9957334995	-1.7971609714	-0.083018
C	 1.5796808217	-2.6722896993	-0.9610190099	-0.045468
C	 2.2959175645	-2.2114933419	 0.2823511868	-0.083426
C	 3.8101435072	-2.0696130697	-0.0224109239	-0.379601
C	 1.7978708712	-0.9921987739	 1.0156677717	-0.062242
C	 0.7719652581	-0.170112186	 0.7950446457	-0.056421
H	-0.1524273022	 2.0022321315	-0.6780403572	 0.116173
H	-1.67395848	 1.2545273488	-1.1906973896	 0.108651
H	-1.3535130781	 1.5234403869	 0.5292609579	 0.111894
H	-1.034911289	-0.8750475616	-0.0862670018	 0.088628
H	-0.4062444637	-0.3714122281	-2.4630166955	 0.091982
H	 1.1860814758	 0.1149317499	-1.9209845974	 0.109173
H	 0.4247421284	-2.5342899807	-2.6676295296	 0.081144
H	 1.8037059093	-3.7069105561	-1.2197331146	 0.080742
H	 2.2194638052	-3.0377556019	 1.0091659538	 0.090109
H	 3.9829010785	-1.2609730345	-0.738692844	 0.123388
H	 4.3731387328	-1.8466630781	 0.8899320214	 0.111241
H	 4.2093148161	-2.9945162984	-0.4502434861	 0.112208
H	 2.3919177233	-0.7872028223	 1.9070253989	 0.079496
H	 0.6254784895	 0.6167799149	 1.5346451923	 0.074932
33.2752	120.6661	210.2503	238.3941	245.9201	278.6068	315.3638	341.2936	368.621	414.3201	510.2186	591.5497	635.888	715.709	741.5763	778.6297	826.768	852.2669	895.8191	926.6483	974.0281	1001.2983	1009.7607	1018.3495	1029.8554	1070.7525	1078.1702	1097.5224	1146.3107	1164.8962	1220.4976	1267.6089	1288.4237	1302.7767	1314.1475	1349.7302	1365.0559	1393.27	1398.9153	1407.0189	1425.3239	1449.5387	1481.7167	1494.1492	1498.4997	1499.1672	1500.6004	1733.0397	1744.2252	2957.1605	2989.6585	3011.6	3027.4353	3032.3792	3054.1991	3094.9935	3101.0546	3102.8014	3106.1344	3113.2692	3118.3106	3131.612	3146.7079
CC1CC=CC(C)C=C1	C[C@H]1CC=C[C@@H](C)C=C1	
InChI=1S/C9H14/c1-8-4-3-5-9(2)7-6-8/h3-4,6-9H,5H2,1-2H3	InChI=1S/C9H14/c1-8-4-3-5-9(2)7-6-8/h3-4,6-9H,5H2,1-2H3/t8-,9+/m1/s1
