18
gdb 115016	2.55949	1.5873	1.11977	2.0434	73.84	-0.2382	0.0199	0.2582	1114.8338	0.147702	-439.080424	-439.07214	-439.071196	-439.113593	30.853	
C	-0.0020572872	 1.395017637	 0.0300111607	-0.243318
O	 0.1813689024	-0.0107272839	-0.0441050431	-0.221978
C	 0.6464785053	-0.5830157265	 1.1280008134	 0.114296
O	-0.3679562649	-0.5339820676	 2.1669617423	-0.239629
C	-0.7526420821	-1.8251887698	 2.3604042801	 0.087062
N	-0.1430322794	-2.7531818862	 1.7490522341	-0.296828
C	 0.8649707649	-2.0870094318	 0.9554118825	 0.323059
C	 1.3101608957	-2.6900533203	-0.34642673	-0.301798
C	 2.2360954958	-2.7043671074	 0.8421630461	-0.318939
H	 0.9281370421	 1.9018877397	 0.3264182964	 0.110412
H	-0.2894649134	 1.7296373365	-0.9684187598	 0.133613
H	-0.7909951596	 1.6573727921	 0.7438153207	 0.131885
H	 1.5110580985	-0.0258069116	 1.5157077999	 0.081531
H	-1.5736153651	-1.9547219703	 3.0556185721	 0.139891
H	 0.8322556904	-3.619804554	-0.6309001983	 0.129475
H	 1.5165509553	-2.0060276217	-1.1605788354	 0.128951
H	 3.0900528632	-2.0341110788	 0.8397975243	 0.11439
H	 2.3890248083	-3.6420294553	 1.3632672539	 0.127927
76.3357	118.24	176.9427	188.7027	278.3246	298.4824	327.7789	463.8644	504.8459	588.5908	615.866	776.3661	828.8755	867.2871	905.5252	928.0329	939.3396	959.7002	977.622	1007.7711	1031.0063	1055.948	1079.7538	1098.4233	1154.907	1180.1027	1194.2114	1227.9328	1252.8903	1302.3424	1340.3314	1385.3859	1401.5769	1456.4687	1479.0227	1485.5596	1495.7647	1510.5866	1696.2832	2996.5182	3006.7343	3071.6331	3130.3459	3132.7292	3149.8933	3222.4045	3222.6492	3243.7798
COC1OC=NC11CC1	CO[C@H]1OC=NC21CC2	
InChI=1S/C6H9NO2/c1-8-5-6(2-3-6)7-4-9-5/h4-5H,2-3H2,1H3	InChI=1S/C6H9NO2/c1-8-5-6(2-3-6)7-4-9-5/h4-5H,2-3H2,1H3/t5-/m0/s1
