18
gdb 22371	3.31001	1.16946	1.01004	1.2206	76.43	-0.2433	-0.0009	0.2424	1210.9407	0.14589	-439.014016	-439.005427	-439.004482	-439.04725	32.59	
C	-0.2096236511	 1.4872926551	 0.2742407736	-0.475383
C	 0.0631503696	 0.0235051413	 0.061151236	 0.445922
C	-1.1267377524	-0.976484425	-0.074797695	-0.371917
C	-0.3980240795	-1.8837980915	 0.9026958098	 0.43106
N	-0.6495391993	-2.9733632138	 1.4971840366	-0.244846
O	-1.887500768	-3.4967287177	 1.0832523317	-0.390344
C	 0.7815537778	-0.9574433936	 1.0632761634	-0.23996
C	 1.8305165597	-1.0802826425	-0.0635684271	-0.088755
O	 1.0719303307	-0.2252642685	-0.9468595764	-0.325114
H	 0.7129495482	 2.0250495677	 0.5110345464	 0.125845
H	-0.6332217297	 1.9251316862	-0.6366624204	 0.133464
H	-0.9247571853	 1.6380135368	 1.0890261407	 0.121199
H	-2.0841446477	-0.6135888916	 0.3145029556	 0.125293
H	-1.2781509792	-1.3675153374	-1.0839113453	 0.133109
H	-1.9581522311	-4.2967153753	 1.6150745375	 0.307289
H	 1.1253178999	-0.7098927358	 2.066786334	 0.093949
H	 2.8006156179	-0.6326134134	 0.1855761876	 0.106016
H	 1.9902785795	-2.0820545208	-0.4770547188	 0.113174
66.2821	171.4101	185.3921	210.6011	253.9032	319.3716	360.8037	383.7181	418.3645	477.0577	541.0907	627.9599	679.0313	766.2143	834.1663	896.7988	911.0297	932.2217	949.2511	992.0153	1005.0308	1040.6344	1088.5271	1108.1508	1142.1687	1166.9102	1171.7664	1209.3223	1222.4142	1269.152	1324.5841	1345.5006	1405.4583	1409.596	1440.4031	1479.163	1488.2767	1523.6246	1780.7691	3017.6851	3033.3315	3050.7219	3069.8079	3102.2048	3110.2815	3115.3305	3123.5917	3817.0258
CC12CC(=NO)C1CO2	C[C@]12CC(=NO)[C@H]1CO2	
InChI=1S/C6H9NO2/c1-6-2-5(7-8)4(6)3-9-6/h4,8H,2-3H2,1H3	InChI=1S/C6H9NO2/c1-6-2-5(7-8)4(6)3-9-6/h4,8H,2-3H2,1H3/t4-,6+/m1/s1
