18
gdb 73256	2.48519	1.7909	1.44542	1.7231	72.21	-0.2502	0.0197	0.2699	977.1996	0.148929	-439.08136	-439.073661	-439.072716	-439.113463	29.584	
C	-0.0468253588	 1.5356182744	-0.0067536003	-0.450038
C	 0.0231104675	 0.0180225376	-0.0027425861	 0.240771
C	-1.2288040043	-0.7653327298	 0.4826454255	-0.090234
O	-0.4306944033	-1.5459307971	 1.3986030212	-0.295741
C	 0.7060954882	-0.6842175391	 1.2027933054	 0.079487
C	 1.9862671694	-1.4184873268	 0.8804088981	-0.107319
O	 1.9738242314	-2.0432022184	-0.4078097925	-0.218574
C	 1.2904326466	-1.4056219177	-1.3838127703	 0.12308
N	 0.446643425	-0.4656107903	-1.3067857804	-0.302682
H	 0.946410098	 1.9677776475	-0.1674147077	 0.120078
H	-0.6919310956	 1.8783705779	-0.8208700965	 0.133615
H	-0.4399544451	 1.9159991147	 0.941146901	 0.112222
H	-1.9670505721	-0.1483893952	 1.0118176675	 0.09592
H	-1.7250744034	-1.3820817276	-0.2719955546	 0.114986
H	 0.8713378328	-0.0335929631	 2.0739965571	 0.071259
H	 2.8220593229	-0.7061281143	 0.9126273626	 0.11418
H	 2.1760435535	-2.2159810526	 1.6033105692	 0.132835
H	 1.5551298872	-1.8275113301	-2.3520871791	 0.126155
101.0014	157.3358	217.5853	261.519	312.923	331.5998	376.6074	492.3222	561.1487	641.6304	649.6967	791.4434	857.4991	868.6959	879.5395	910.3525	970.0083	980.094	998.0156	1016.6078	1049.6521	1093.7201	1155.8334	1168.6097	1182.9581	1212.537	1256.9842	1276.1337	1296.0705	1362.6407	1370.1244	1398.6983	1408.1296	1423.0807	1483.951	1485.7276	1494.2756	1518.7479	1722.5938	2993.4926	3013.6253	3022.6755	3036.3639	3090.234	3102.0711	3105.6262	3117.4749	3154.6982
CC12COC1COC=N2	C[C@]12CO[C@H]1COC=N2	
InChI=1S/C6H9NO2/c1-6-3-9-5(6)2-8-4-7-6/h4-5H,2-3H2,1H3	InChI=1S/C6H9NO2/c1-6-3-9-5(6)2-8-4-7-6/h4-5H,2-3H2,1H3/t5-,6-/m0/s1
