15
gdb 127946	2.62774	1.64263	1.01725	0.7952	74.75	-0.2161	-0.0497	0.1663	1105.8942	0.114493	-450.136416	-450.128614	-450.127669	-450.16882	29.029	
C	-0.18634583	 1.3912758093	 0.0681900515	-0.345628
N	-0.1815997285	-0.0582775058	 0.0716066816	-0.305482
C	 0.610518824	-0.6426320669	 0.8864373459	 0.339748
N	 1.4838726125	-0.0423665699	 1.7865034831	-0.318338
N	 2.3239333237	-0.6692361354	 2.6504981786	-0.197947
C	 2.2846273053	-1.9607844449	 2.6081270173	 0.075886
N	 1.4912070692	-2.7332224529	 1.7900986384	-0.359586
C	 0.7023557636	-2.1093536724	 0.9788970501	 0.403812
O	-0.0917306911	-2.7891124975	 0.1603611498	-0.364599
H	 0.7976752239	 1.8174114145	-0.1920597452	 0.111226
H	-0.904278807	 1.7499176656	-0.6726333475	 0.133065
H	-0.4784874651	 1.8158923	 1.0438783612	 0.111319
H	 1.5279668415	 0.9622083295	 1.8335495623	 0.27453
H	 2.9440737298	-2.4886691227	 3.2860953167	 0.134564
H	 0.078859358	-3.7276605405	 0.3346795362	 0.307429
97.3781	191.6609	202.7346	206.6024	256.0384	344.7285	480.4832	529.4043	548.5691	563.9947	590.0146	645.2494	647.8957	760.9228	799.1433	924.9024	931.9733	1039.3648	1102.0835	1108.9771	1131.5388	1189.143	1272.1424	1311.7845	1389.2621	1423.5351	1446.1247	1479.2768	1506.0908	1510.4538	1600.901	1654.8665	1713.9588	2947.8477	2989.425	3106.3409	3214.774	3656.1916	3740.9817
CN=C1NN=CN=C1O	C[N]c1[nH]ncnc1O	
InChI=1S/C4H6N4O/c1-5-3-4(9)6-2-7-8-3/h2H,1H3,(H,5,8)(H,6,7,9)	InChI=1S/C4H11N4O/c1-5-3-4(9)6-2-7-8-3/h3-4,6-9H,2H2,1H3
