18
gdb 56344	2.51543	0.45276	0.42696	2.0083	69.61	-0.2362	-0.0299	0.2064	2497.4876	0.138279	-476.252393	-476.2382	-476.237255	-476.302076	40.737	
O	 0.7959287517	 0.4731024367	-1.9544912622	-0.296901
C	 0.9347894935	 1.5728683273	-1.6033131569	 0.589312
O	 1.0858367421	 2.6732302492	-1.2581217998	-0.299326
C	-1.6191010395	 1.8809101587	 0.7119348609	-0.255604
C	-1.9041833691	 0.6993328775	 0.1691982777	-0.253437
N	-5.335246995	 1.2651394694	 1.5175923597	-0.506115
H	-5.7634861454	 2.1501951214	 1.7748696796	 0.231165
H	-4.3276024455	 1.4056898301	 1.5241891719	 0.245478
C	-5.7616054519	 0.8539503362	 0.1753613173	-0.208671
C	-5.3760923782	 1.8886095011	-0.866475112	 0.151111
O	-4.558760722	 1.7308651687	-1.7394082151	-0.236418
H	-1.0068120153	 1.9752362804	 1.6040081089	 0.120748
H	-1.9792352429	 2.80822269	 0.2761069359	 0.12706
H	-2.5194231566	 0.6188226576	-0.7217526211	 0.153053
H	-1.5370351835	-0.2292126495	 0.5965429489	 0.121493
H	-5.2970167741	-0.1022029201	-0.0803854645	 0.129756
H	-6.8507017206	 0.721352011	 0.1757849336	 0.119606
H	-5.8705708578	 2.8798864741	-0.7204302028	 0.067689
4.9522	16.0499	17.7118	23.2357	48.3725	55.7891	64.8437	80.199	84.979	97.9565	113.185	193.5496	331.3946	351.6569	493.5608	679.8986	688.4394	809.7085	831.5565	868.7946	979.7081	981.1036	1009.9462	1041.3223	1082.7865	1109.1247	1193.0641	1241.4282	1333.0903	1378.6576	1380.7247	1384.7416	1421.6694	1468.4524	1471.1054	1662.6805	1684.1163	1821.529	2433.5772	2838.7574	3034.3983	3106.6698	3137.656	3151.2449	3213.2275	3241.1323	3476.8293	3562.7091
[O-]C(=O)CC[NH2+]CC=O	O=C=O.C=C.NCC=O	
InChI=1S/C5H9NO3/c7-4-3-6-2-1-5(8)9/h4,6H,1-3H2,(H,8,9)	InChI=1S/C2H5NO.C2H4.CO2/c3-1-2-4;1-2;2-1-3/h2H,1,3H2;1-2H2;
