17
gdb 62204	5.86065	0.61109	0.57218	5.3107	76.53	-0.2657	0.0107	0.2764	1832.8614	0.134195	-417.960824	-417.950968	-417.950024	-417.996652	34.654	
O	 0.0950265982	 1.438211475	-0.1224596658	-0.419203
C	 0.0312233226	 0.0412826284	 0.0259522503	-0.015212
C	 0.6330945251	-0.6622841305	-1.2114965909	-0.167196
N	-0.0051089664	-0.0941277585	-2.3940415369	-0.319989
C	 0.7220911444	-0.3509580323	-3.644741765	-0.284074
C	-0.0151047116	 0.1533577244	-4.7967851639	 0.266195
C	-0.6402798446	 0.550329508	-5.7422315759	-0.406586
C	 0.756014248	-0.3584521819	 1.2417545841	 0.285458
N	 1.3212174567	-0.7161705423	 2.1830735699	-0.314283
H	-0.037983034	 1.5747711459	-1.075794679	 0.294693
H	-1.0133430456	-0.2965497161	 0.1485330046	 0.11135
H	 1.701615739	-0.4268424533	-1.2537706321	 0.136858
H	 0.5323578686	-1.7543386577	-1.1175452118	 0.11501
H	-0.954579454	-0.4427845146	-2.4881368105	 0.234947
H	 1.6960705071	 0.150233261	-3.5777220212	 0.148943
H	 0.9361596996	-1.4236060863	-3.7952826202	 0.126077
H	-1.182961103	 0.9079876708	-6.5824074458	 0.207012
42.8011	75.6499	95.4599	145.6526	157.8442	250.41	300.5562	332.5424	342.1206	431.8194	524.4422	559.1704	588.6043	599.0322	623.896	676.5283	808.3922	879.58	953.8643	963.4447	999.17	1028.157	1110.5184	1129.9254	1139.4591	1214.5143	1294.1985	1303.06	1332.3541	1355.294	1404.5906	1451.9107	1486.2767	1493.0416	1505.3271	2246.9536	2367.9047	2946.4966	2950.3766	2991.8361	3039.8952	3081.9073	3504.1309	3512.4071	3663.1051
OC(CNCC#C)C#N	O[C@@H](CNCC#C)C#N	
InChI=1S/C6H8N2O/c1-2-3-8-5-6(9)4-7/h1,6,8-9H,3,5H2	InChI=1S/C6H8N2O/c1-2-3-8-5-6(9)4-7/h1,6,8-9H,3,5H2/t6-/m1/s1
