19
gdb 122035	2.57266	0.79011	0.63018	3.458	78.45	-0.2612	-0.0573	0.2038	1763.3915	0.156892	-419.212291	-419.201689	-419.200745	-419.250049	35.707	
C	-0.3091237741	 1.4905934761	-0.0261994373	-0.382712
C	 0.1539072706	 0.0329439399	 0.0363773393	-0.185023
C	 0.6229560825	-0.4893145544	-1.3203449083	-0.122978
N	 1.035062039	-1.8947418425	-1.2162253809	-0.317569
C	 1.5555978854	-2.4782540584	-2.4506431519	-0.183179
C	 1.8903066092	-3.9503212678	-2.1238293292	 0.159209
O	 3.0149237064	-4.3535868005	-2.0326884384	-0.225927
C	 0.5426394291	-2.4491430614	-3.5133000827	 0.294633
N	-0.2384856302	-2.4605895084	-4.364557377	-0.315566
H	 0.4966759743	 2.1514143596	-0.3637108733	 0.119067
H	-1.1486976503	 1.6099849894	-0.7192291942	 0.124342
H	-0.6365659176	 1.8406752151	 0.956786975	 0.120603
H	 0.9732421416	-0.0608622106	 0.7625616466	 0.095508
H	-0.656015576	-0.610197471	 0.3980216708	 0.116729
H	-0.1988598068	-0.4332341864	-2.0431668406	 0.134727
H	 1.4332374817	 0.1533264899	-1.7097262496	 0.088456
H	 1.7606533154	-1.978596702	-0.5095113115	 0.233937
H	 2.4728361364	-2.0022919898	-2.8362641943	 0.125675
H	 1.0000769935	-4.5792878268	-1.9247431124	 0.120069
30.3039	54.4349	73.7782	104.8844	136.7785	191.0944	228.2099	243.8131	285.4574	346.7748	441.1273	473.1105	524.8744	613.9138	762.0903	774.7246	898.6584	908.4355	940.127	974.4754	1035.0079	1050.8253	1077.8579	1135.986	1149.1139	1182.2648	1252.34	1263.9727	1320.5015	1334.7669	1347.4817	1402.5289	1411.8981	1415.9888	1490.4577	1498.1511	1501.2248	1505.8253	1521.9117	1845.0843	2359.8788	2941.7285	2944.2664	2969.8632	3015.307	3035.0994	3058.7816	3072.4778	3102.9985	3111.3708	3505.6552
CCCNC(C=O)C#N	CCCN[C@@H](C=O)C#N	
InChI=1S/C6H10N2O/c1-2-3-8-6(4-7)5-9/h5-6,8H,2-3H2,1H3	InChI=1S/C6H10N2O/c1-2-3-8-6(4-7)5-9/h5-6,8H,2-3H2,1H3/t6-/m1/s1
