17
gdb 41562	3.03963	1.89009	1.86223	1.2378	69.38	-0.2446	0.0044	0.249	833.842	0.139254	-421.791415	-421.785415	-421.784471	-421.821512	25.514	
C	 0.0062254279	 1.5604985381	 0.1582870923	-0.090147
O	 1.4501082508	 1.5801451264	 0.0721634646	-0.292005
C	 1.5020292834	 0.1430017925	-0.0399947589	 0.123975
C	-0.036316523	 0.0313960348	-0.0434327263	-0.085389
C	-0.2734556315	-0.6037542706	-1.4595553321	 0.011687
O	 0.8622214299	-1.4883294372	-1.5144308523	-0.249381
C	 1.8666557012	-0.4628821068	-1.4447919495	-0.024885
C	 1.4046898541	 0.5179820211	-2.5128245232	-0.053482
C	 0.0753147589	 0.4189382684	-2.5329693305	-0.096792
H	-0.3353251106	 1.8959633459	 1.144589179	 0.100597
H	-0.4601366439	 2.1763285646	-0.6188022702	 0.099586
H	 2.072880813	-0.3183737272	 0.7707665411	 0.085358
H	-0.5080218966	-0.5566027084	 0.7425072306	 0.089498
H	-1.1988628319	-1.1657522064	-1.5760020123	 0.08026
H	 2.8619115911	-0.8941477143	-1.539103936	 0.078959
H	 2.0421839948	 1.1986796507	-3.0583373658	 0.114953
H	-0.6368852576	 0.9960387984	-3.1062290904	 0.107208
189.3952	256.2366	365.8156	491.2549	509.5076	575.2647	684.2106	737.2637	760.8938	775.6476	832.9197	864.7138	891.5991	901.29	927.299	940.503	965.4198	969.5159	997.2417	1025.0358	1037.2338	1063.1345	1080.2596	1095.7655	1157.2339	1168.3765	1231.3016	1245.6926	1262.6689	1274.6367	1293.2105	1318.5846	1346.5959	1350.6907	1364.5144	1512.9186	1641.9476	3022.7497	3067.4396	3068.6472	3119.8855	3132.5955	3137.4259	3222.268	3248.7135
C1OC2C1C1OC2C=C1	C1O[C@H]2[C@@H]1[C@@H]1O[C@H]2C=C1	
InChI=1S/C7H8O2/c1-2-6-7-4(3-8-7)5(1)9-6/h1-2,4-7H,3H2	InChI=1S/C7H8O2/c1-2-6-7-4(3-8-7)5(1)9-6/h1-2,4-7H,3H2/t4-,5+,6-,7-/m0/s1
