17
gdb 98799	2.99463	1.13105	0.90294	3.1643	69.24	-0.2643	-0.0356	0.2288	1294.7677	0.134285	-459.011091	-459.002043	-459.001098	-459.046112	31.56	
C	 0.1890833976	 1.4692064529	 0.2459251266	-0.382699
C	 0.2508765948	-0.0341650218	-0.0105777833	-0.289877
C	 0.6145642643	-0.3936807865	-1.4373798115	 0.369096
O	 0.7732421158	 0.4201848996	-2.3160592035	-0.292875
C	 0.8131764134	-1.8861115403	-1.6991826548	-0.298786
C	 1.3817543006	-2.3039970527	-3.0576744186	-0.100619
O	 2.6046819594	-2.7989032961	-2.4019080565	-0.23156
C	 2.1504534401	-2.445668019	-1.1673409769	 0.459462
O	 2.6887434635	-2.5574894847	-0.1138343973	-0.318032
H	 1.1564405823	 1.938227288	 0.0490729016	 0.136026
H	-0.5449893435	 1.9477015059	-0.4070112757	 0.133113
H	-0.0863580332	 1.669394698	 1.2846153289	 0.117197
H	 0.9780817339	-0.5341190742	 0.6445151534	 0.156727
H	-0.7108428297	-0.517098914	 0.215585914	 0.124996
H	-0.0411801507	-2.4607993626	-1.3329932444	 0.132355
H	 0.870929998	-3.1171227505	-3.5740567307	 0.130212
H	 1.6085427633	-1.4751592121	-3.7274599214	 0.155266
56.0725	62.2905	120.1861	134.0032	197.8914	224.0523	312.912	374.0563	461.0181	527.4611	609.9606	697.4405	747.7079	771.7961	827.403	915.9413	953.7727	964.4413	1015.2454	1033.8339	1087.4037	1103.2608	1118.8561	1142.1638	1161.3789	1164.7304	1278.274	1317.4805	1343.59	1382.5767	1415.2041	1451.8687	1493.6845	1498.2397	1513.3716	1809.3575	1928.8318	3014.8756	3045.4863	3054.221	3091.8048	3097.1504	3127.0269	3129.2535	3166.9181
CCC(=O)C1COC1=O	CCC(=O)[C@H]1COC1=O	
InChI=1S/C6H8O3/c1-2-5(7)4-3-9-6(4)8/h4H,2-3H2,1H3	InChI=1S/C6H8O3/c1-2-5(7)4-3-9-6(4)8/h4H,2-3H2,1H3/t4-/m1/s1
