17
gdb 127787	2.4869	1.81183	1.062	1.2257	80.8	-0.2278	-0.0611	0.1667	1103.6979	0.136721	-414.178122	-414.169862	-414.168918	-414.210783	31.	
C	-0.0194050101	 1.429750528	-0.0186655077	-0.34027
N	-0.0050256129	-0.0220725001	 0.0380496719	-0.081158
N	-0.0337758662	-0.6204746761	-1.1785292166	-0.063193
N	-0.0249009672	-1.8856014363	-1.2596419682	-0.225185
C	 0.0141477945	-2.6391678977	-0.1003470661	-0.050008
C	 0.0445629667	-2.1253205029	 1.1499154846	 0.223133
C	 0.0866117385	-2.9507840665	 2.3944967934	-0.475717
C	 0.0355709021	-0.6758452149	 1.2854740429	 0.351643
N	 0.0625424379	-0.1053283707	 2.4343576772	-0.561224
H	 0.8808982467	 1.841852092	 0.449510096	 0.147556
H	-0.0511327819	 1.7127915536	-1.0693482031	 0.164716
H	-0.8994015351	 1.8261765407	 0.4990394241	 0.147555
H	 0.0187389509	-3.7099739153	-0.274061609	 0.123922
H	 0.0897210579	-4.0183844514	 2.1633564732	 0.120161
H	 0.9746080765	-2.7025723058	 2.9850380013	 0.152842
H	-0.7714418282	-2.7182019735	 3.0336682186	 0.15284
H	 0.0518582499	 0.9097067769	 2.3742240076	 0.212388
94.1295	165.0014	213.001	236.7633	246.3829	285.9537	357.7013	415.3558	489.2009	515.3696	583.3436	619.5386	692.3149	766.9753	793.5193	905.8675	931.9351	941.1427	990.4136	1034.385	1065.8505	1140.3267	1149.5351	1187.2564	1253.8743	1293.5752	1315.6138	1408.7324	1423.6145	1433.2005	1462.1151	1476.6748	1481.8076	1508.6504	1514.3429	1642.7127	1695.3021	3033.7272	3041.6019	3092.6496	3097.6746	3131.0534	3171.7677	3190.8158	3522.7441
CN1N=NC=C(C)C1=N	Cn1nncc(C)c1[NH]	
InChI=1S/C5H8N4/c1-4-3-7-8-9(2)5(4)6/h3,6H,1-2H3	InChI=1S/C5H13N4/c1-4-3-7-8-9(2)5(4)6/h4-8H,3H2,1-2H3
