20
gdb 78692	4.07656	1.21774	1.12323	1.4828	79.55	-0.2094	0.0715	0.2809	1164.4049	0.169212	-403.047478	-403.039048	-403.038104	-403.079737	33.685	
C	 0.0790294861	 1.533224758	-0.2222804387	-0.3247
N	 0.052069404	 0.0826199024	-0.0670357945	-0.122015
C	-1.0925574288	-0.4689321543	 0.7198439936	-0.031175
C	-0.2544521537	-1.7063495621	 1.1634852071	-0.129001
C	 0.6717078925	-0.4513844315	 1.184175237	-0.01619
C	-0.5277414278	-0.0763290131	 2.138400956	-0.108578
C	-0.6374419972	-1.5205859798	 2.6496983486	 0.405664
C	-1.9856044595	-2.0372235969	 3.128375994	-0.467834
O	 0.3861227962	-1.8075473584	 3.5887332743	-0.48343
H	 1.0771740283	 1.8392032246	-0.5533467647	 0.118143
H	-0.6329628346	 1.8251052502	-1.0017189963	 0.116251
H	-0.1653160171	 2.0974866272	 0.6937994591	 0.09414
H	-2.1248846274	-0.4412339283	 0.3679628249	 0.078069
H	-0.0933284817	-2.611555243	 0.5773645694	 0.074709
H	 1.7393574849	-0.4057450018	 1.3934241734	 0.0889
H	-0.6838145023	 0.8423397339	 2.7030206739	 0.076788
H	-2.7908927702	-1.7807939408	 2.4338425471	 0.121562
H	-1.9702994102	-3.130592334	 3.2239615543	 0.107017
H	-2.2262322863	-1.618523482	 4.1105376429	 0.126445
H	 0.3581484547	-2.7498190003	 3.7858713886	 0.275237
161.7595	197.5676	213.8751	234.3413	247.1862	277.8177	343.8025	366.4065	417.099	556.6921	583.8949	639.1273	759.5652	788.9926	817.1408	825.4236	844.5531	895.3317	902.5325	954.9979	971.3546	1020.1337	1071.745	1091.5815	1106.1559	1117.4099	1133.8837	1151.2983	1162.0222	1162.7291	1178.2182	1205.5359	1206.9314	1224.6877	1288.5183	1319.2487	1392.9657	1411.0131	1445.803	1488.598	1490.4485	1495.5178	1497.1596	2962.1567	3022.6824	3059.6284	3087.561	3095.071	3098.5177	3114.2943	3114.7866	3119.6051	3134.8982	3805.0832
CN1C2C3C1C2C3(C)O	CN1[C@H]2[C@H]3[C@@H]1[C@@H]2[C@]3(C)O	
InChI=1S/C7H11NO/c1-7(9)3-5-4(7)6(3)8(5)2/h3-6,9H,1-2H3	InChI=1S/C7H11NO/c1-7(9)3-5-4(7)6(3)8(5)2/h3-6,9H,1-2H3/t3-,4+,5-,6+,7-
