19
gdb 86991	4.94608	0.68162	0.67634	2.2497	78.76	-0.2537	0.0322	0.2859	1689.3039	0.156553	-422.958945	-422.949419	-422.948475	-422.994027	35.088	
O	 0.5295387618	 0.167712693	-0.8665798808	-0.428649
C	-0.2072537219	-0.4422618303	 0.1586766155	 0.174855
C	 0.1422587588	-0.1637243948	 1.6479409395	-0.288285
C	-1.3681256688	-0.2109299404	 1.9661147528	 0.149193
C	-1.6640106566	 0.0160373953	 0.4523750164	-0.298486
O	-1.6966014961	-1.5094749785	 2.4216045125	-0.261084
C	-3.0746609522	-1.6608585089	 2.7094187413	-0.214146
C	-3.3374578124	-3.0154923718	 3.1767922942	 0.282543
C	-3.5819026113	-4.1255563105	 3.5636220007	-0.417
H	 0.5264853702	 1.1187370053	-0.7138994042	 0.275608
H	-0.175202067	-1.5139739346	-0.0498705304	 0.108906
H	 0.7724282809	-0.8777829073	 2.1808874118	 0.11797
H	 0.5435150041	 0.8470005727	 1.7778767097	 0.093011
H	-1.7606436875	 0.5430454338	 2.6623590199	 0.064848
H	-1.7955537117	 1.0812920581	 0.2310553779	 0.092424
H	-2.4850193298	-0.5436159404	-0.0019384283	 0.108289
H	-3.3843879657	-0.9344572034	 3.4804936781	 0.118331
H	-3.6892429587	-1.4538530745	 1.8182760816	 0.120735
H	-3.7909797761	-5.1089748527	 3.9055206018	 0.200937
44.8501	84.0922	118.8665	149.1963	252.4342	302.3466	320.7625	335.9723	381.4296	453.2464	461.983	534.0844	609.2424	671.7813	676.0375	796.3325	864.4032	911.6076	926.7204	964.2893	981.463	1007.4111	1032.8156	1069.0515	1086.0211	1107.6835	1160.0842	1199.1707	1207.6799	1254.3083	1262.8481	1268.3885	1291.7329	1335.018	1363.8272	1426.5118	1434.4315	1455.5907	1484.0419	1502.0145	2248.7355	2956.6676	2982.477	3000.0605	3044.7152	3056.5508	3089.9199	3111.84	3128.2127	3506.0569	3803.6242
OC1CC(C1)OCC#C	O[C@H]1C[C@@H](C1)OCC#C	
InChI=1S/C7H10O2/c1-2-3-9-7-4-6(8)5-7/h1,6-8H,3-5H2	InChI=1S/C7H10O2/c1-2-3-9-7-4-6(8)5-7/h1,6-8H,3-5H2/t6-,7-
