13
gdb 28987	3.10361	1.56068	1.03847	2.6621	74.45	-0.2567	-0.0636	0.1931	1042.0484	0.09231	-411.871681	-411.864207	-411.863263	-411.903769	27.238	
N	-0.03685904	 1.3439775695	 0.0077424871	-0.578185
C	 0.0104622799	-0.0010723875	 0.0007327988	 0.388531
N	-1.1565374912	-0.6637539705	 0.0044819077	-0.321402
C	-1.0940920648	-1.989163373	-0.0024996812	 0.087378
N	-0.0028580091	-2.7626059556	-0.0129752235	-0.274317
C	 1.1549309369	-2.1041932749	-0.0166916665	-0.03398
C	 1.2414663511	-0.7139081641	-0.0102625424	 0.040466
C	 2.4790844858	-0.0165161498	-0.0142493648	 0.206606
N	 3.4560267869	 0.6079700324	-0.0170595934	-0.346615
H	 0.800822697	 1.8999166195	 0.0053998665	 0.286477
H	-0.9378467576	 1.7905379853	 0.0153650466	 0.276503
H	-2.0495921921	-2.508901562	 0.0006614345	 0.129762
H	 2.0657086772	-2.6976267893	-0.0251655394	 0.138776
119.8386	139.0971	183.347	220.8466	374.6007	388.4875	478.7756	513.4361	577.7447	585.9842	602.8197	618.4221	760.2671	822.0343	921.3151	973.2141	1022.3838	1027.5472	1165.6238	1213.2765	1279.092	1328.2812	1387.7308	1438.8551	1507.1604	1577.4625	1616.0529	1653.648	2328.1639	3165.1618	3169.9235	3612.7305	3746.1998
NC1=NC=NC=C1C#N	Nc1ncncc1C#N	
InChI=1S/C5H4N4/c6-1-4-2-8-3-9-5(4)7/h2-3H,(H2,7,8,9)	InChI=1S/C5H4N4/c6-1-4-2-8-3-9-5(4)7/h2-3H,(H2,7,8,9)
