18
gdb 49601	2.99195	1.53761	1.17364	4.0088	76.99	-0.2289	0.0251	0.254	1058.8908	0.149565	-401.944396	-401.937115	-401.936171	-401.97631	28.982	
O	-0.0119150003	 0.0020352588	-0.1016799571	-0.337864
C	 0.0491971309	 1.2135472103	-0.0659106132	 0.134374
N	 1.2017903301	 1.9316917719	 0.0076952163	-0.044628
C	 2.4997223313	 1.3039188723	 0.1222662868	 0.026368
C	 3.4990939405	 1.5217582316	-0.9866690392	-0.31351
C	 3.5070086153	 2.4239971088	 0.2286845424	-0.075896
C	 2.7280591304	 3.7274511634	 0.2264494022	-0.063487
C	 1.9288358866	 4.1512609297	-0.9865420269	-0.318287
C	 1.2637083722	 3.3709214203	 0.123764818	 0.004238
H	-0.8445891093	 1.8685787112	-0.0751008151	 0.070195
H	 2.5140718175	 0.390774207	 0.7036853151	 0.123547
H	 4.3027974419	 0.7967530582	-1.0596138574	 0.12139
H	 3.157272513	 1.8998714877	-1.9423869289	 0.121972
H	 4.3407049239	 2.3559056343	 0.9162477977	 0.098328
H	 3.0595266596	 4.4956003869	 0.9138259838	 0.099382
H	 1.6770637077	 5.2041844633	-1.0594678623	 0.11903
H	 2.0940441057	 3.6670916857	-1.9411938358	 0.124652
H	 0.489422793	 3.8318564885	 0.7272625636	 0.110197
69.6742	197.8548	247.4154	286.4555	333.8263	465.7554	506.9657	526.9016	688.4463	712.7165	723.6674	786.4321	803.5144	833.4941	878.9381	946.8951	974.9547	981.9419	1006.6543	1032.1726	1041.4836	1050.3736	1069.5891	1090.9351	1095.2434	1104.6901	1121.1342	1187.9974	1218.8301	1253.0978	1307.7305	1335.0058	1346.3741	1382.2116	1423.608	1448.293	1472.8195	1496.2716	1791.6325	2935.1016	3137.332	3142.8594	3165.0237	3182.3045	3192.6699	3197.8046	3225.2054	3231.3029
O=CN1C2CC2C2CC12	O=CN1[C@H]2C[C@H]2[C@H]2C[C@@H]12	
InChI=1S/C7H9NO/c9-3-8-6-1-4(6)5-2-7(5)8/h3-7H,1-2H2	InChI=1S/C7H9NO/c9-3-8-6-1-4(6)5-2-7(5)8/h3-7H,1-2H2/t4-,5+,6-,7+
