18
gdb 18344	3.30725	2.05079	1.37424	1.9133	75.22	-0.2263	0.0124	0.2387	923.7167	0.154596	-347.77905	-347.771729	-347.770785	-347.810448	28.011	
C	-0.0411303312	 1.4821923314	-0.0489270648	-0.494265
C	-0.0055894476	-0.0032227276	 0.1056529132	 0.188607
C	-1.0073519917	-0.8596288304	 0.2908226563	 0.095086
C	-2.4009721712	-1.2212283533	-0.1605499908	-0.155243
O	-1.8663846087	-2.4882585098	-0.6559962625	-0.307817
C	-0.6250359087	-2.2896744244	 0.1123707775	 0.120407
C	 0.7548675418	-2.2145430767	-0.5592057362	-0.249494
C	 1.2804296758	-0.8244967949	-0.0679721307	-0.291835
H	 0.5234573501	 1.9803629229	 0.7500056839	 0.130633
H	 0.4216785727	 1.7919997159	-0.9946145064	 0.126195
H	-1.0643303477	 1.8669306125	-0.022045225	 0.12415
H	-3.1426592509	-1.3932938469	 0.6310894361	 0.103491
H	-2.8473771773	-0.6094099354	-0.952377425	 0.113667
H	-0.643234972	-2.9451524954	 0.9941357679	 0.073377
H	 1.4239583104	-3.0445474162	-0.3153479527	 0.093951
H	 0.6154460458	-2.1899400803	-1.6446372112	 0.117316
H	 1.954562459	-0.355199744	-0.7935723474	 0.104121
H	 1.8510349015	-0.9177214973	 0.8663100578	 0.107653
140.6053	171.6576	176.5625	237.8918	299.6811	403.1966	464.4886	565.3536	613.0638	689.1205	776.519	849.9083	895.1695	917.1788	924.7295	950.0933	962.4225	1008.4581	1052.4317	1079.976	1111.9254	1124.7305	1145.5465	1161.3217	1195.292	1242.0421	1266.4711	1284.158	1327.1951	1334.2152	1358.3749	1411.8993	1475.8198	1479.5887	1487.935	1493.9369	1512.4282	1776.4016	3000.6542	3008.8446	3011.8748	3016.4467	3051.5256	3060.0937	3062.575	3064.4184	3106.7623	3108.9098
CC1=C2COC2CC1	C[C]1[C]2CO[C@H]2CC1	
InChI=1S/C7H10O/c1-5-2-3-7-6(5)4-8-7/h7H,2-4H2,1H3	InChI=1S/C7H10O/c1-5-2-3-7-6(5)4-8-7/h7H,2-4H2,1H3/t7-/m0/s1
