19
gdb 115159	3.2882	1.11871	0.92166	3.3402	71.32	-0.2595	0.0004	0.2599	1292.1959	0.15935	-460.207687	-460.19861	-460.197666	-460.24185	33.18	
C	-0.0456552508	 1.6038058066	 0.003135077	-0.393213
C	 0.0217951946	 0.0762799543	 0.1103902545	-0.197361
C	-1.3486999788	-0.5956357301	 0.0014023655	-0.012646
C	-2.0806004198	-0.3790123169	-1.3368683671	-0.088388
O	-2.998550976	-1.4821828346	-1.4665462992	-0.219885
C	-2.6190850756	-2.5141721866	-0.6763134291	 0.415818
O	-3.17280517	-3.5771441871	-0.6726979249	-0.352074
C	-1.3565775751	-2.1209972851	 0.1075340337	-0.039126
O	-0.231116017	-2.6619202979	-0.5742725591	-0.435301
H	 0.9481167888	 2.046255566	 0.117723043	 0.121383
H	-0.4365529943	 1.926068205	-0.9680853346	 0.120245
H	-0.6914884953	 2.0309134804	 0.7785995869	 0.116916
H	 0.6785364259	-0.3296167547	-0.6650238431	 0.123996
H	 0.473298063	-0.2034053572	 1.0695343463	 0.104891
H	-2.0010508229	-0.2204760825	 0.8011349324	 0.089432
H	-2.6654776874	 0.5411413759	-1.3779371359	 0.125958
H	-1.3878819607	-0.4024094588	-2.1857955985	 0.125723
H	-1.4122558371	-2.4869541013	 1.1394509804	 0.092872
H	-0.3728606015	-3.6125004553	-0.6545048084	 0.30076
69.6713	93.4432	163.193	181.0356	233.2971	250.5825	298.8833	349.6086	380.1225	459.7749	526.5627	677.7412	686.3328	750.3676	781.4947	853.7188	892.1083	954.524	980.4538	990.3426	1044.6487	1052.4837	1108.7088	1151.6729	1160.7516	1200.4167	1216.4983	1248.888	1282.4663	1306.4198	1341.1099	1361.0059	1383.8396	1390.6475	1415.9121	1426.8316	1488.9283	1502.4219	1506.9313	1518.6398	1873.7235	3018.9763	3031.5313	3040.0469	3041.8519	3047.3861	3080.2081	3103.7954	3108.0139	3120.453	3798.0301
CCC1COC(=O)C1O	CC[C@H]1COC(=O)[C@H]1O	
InChI=1S/C6H10O3/c1-2-4-3-9-6(8)5(4)7/h4-5,7H,2-3H2,1H3	InChI=1S/C6H10O3/c1-2-4-3-9-6(8)5(4)7/h4-5,7H,2-3H2,1H3/t4-,5-/m0/s1
