16
gdb 83416	2.78291	1.39864	1.14028	3.9097	65.45	-0.2508	-0.0003	0.2505	1075.5517	0.12523	-475.010133	-475.002193	-475.001249	-475.042751	29.984	
O	 0.0745670657	 1.4554511392	 0.2899019149	-0.421449
C	 0.044296748	 0.0664940821	 0.1727133509	 0.055777
C	-0.3849323405	-0.7455656763	 1.3417297535	-0.166167
C	-1.5455661074	-0.0721412707	 2.0772995461	-0.174628
N	-2.3552299152	-0.0258472917	 0.8147929743	-0.393102
H	-3.3238933584	-1.4651869914	-0.3174375534	 0.304283
H	-2.5185079481	 0.9285805728	 0.4994344628	 0.229368
C	-1.2679906697	-0.670039544	 0.0655973003	 0.122894
C	-1.5774162701	-1.7219290103	-0.9399937758	 0.375179
O	-2.8920511075	-2.0063912179	-1.0062613499	-0.380241
O	-0.7518294967	-2.2736744373	-1.6201051068	-0.353449
H	 0.0562376729	 1.8314000921	-0.5969502424	 0.296175
H	 0.8358188304	-0.3878424126	-0.4204464898	 0.128863
H	 0.1848792873	-1.5932955027	 1.6983688578	 0.122694
H	-2.0215906594	-0.7144160336	 2.8217913777	 0.124546
H	-1.3262883415	 0.9040043723	 2.5168975198	 0.129255
92.6712	149.6547	187.0609	234.1718	273.6698	338.0237	384.5361	482.8207	532.0685	611.9867	698.1069	732.5206	759.2471	775.5044	843.5299	889.8323	919.3315	980.5149	1000.5753	1003.7209	1046.5275	1087.7892	1125.2542	1174.4471	1188.3819	1223.5087	1252.155	1294.4296	1320.002	1336.1589	1380.7443	1406.7584	1479.6692	1504.8259	1857.6691	3063.0621	3115.7846	3139.1384	3208.9876	3475.4248	3592.8809	3806.4776
OC1C2C[NH2+]C12C([O-])=O	O[C@H]1[C@H]2CN[C@@]12C(=O)O	
InChI=1S/C5H7NO3/c7-3-2-1-6-5(2,3)4(8)9/h2-3,6-7H,1H2,(H,8,9)	InChI=1S/C5H7NO3/c7-3-2-1-6-5(2,3)4(8)9/h2-3,6-7H,1H2,(H,8,9)/t2-,3+,5-/m1/s1
