29
gdb 122877	3.67607	0.54467	0.53863	0.0492	100.56	-0.2928	0.0764	0.3692	2317.8893	0.272495	-354.782875	-354.770505	-354.769561	-354.820805	45.647	
C	-0.0116728872	 1.6882175762	-0.006879993	-0.378997
C	-0.0050217406	 0.1571892852	 0.0130687589	-0.165003
C	 0.6882223581	-0.4599021122	-1.2063290233	-0.152938
C	 0.6994915701	-1.9935423481	-1.1948790579	-0.202476
C	 1.3991041365	-2.5857336727	-2.4252617675	-0.181525
C	 1.4737181914	-4.1304399118	-2.528098992	 0.263948
C	 0.0635966981	-4.7476547866	-2.5777420359	-0.399404
C	 2.2137612178	-4.4814478075	-3.8327925045	-0.400695
C	 2.2549848205	-4.7241580007	-1.3411216464	-0.399391
H	 1.0083064393	 2.0883375915	-0.0264865626	 0.112325
H	-0.5314632993	 2.0703627974	-0.8926678604	 0.112326
H	-0.5127976539	 2.0988822938	 0.875423547	 0.109359
H	 0.4904196633	-0.1951823226	 0.9276678243	 0.092674
H	-1.0375301634	-0.2129891398	 0.0680190305	 0.092674
H	 0.1931235752	-0.1062647308	-2.1218605811	 0.089515
H	 1.7213644049	-0.0885478538	-1.2620253218	 0.089513
H	 1.1937395022	-2.3375300319	-0.2773917927	 0.093979
H	-0.3351128967	-2.3551471211	-1.1381645111	 0.093971
H	 0.897364207	-2.2077215119	-3.3273579948	 0.084594
H	 2.4242994074	-2.1912124603	-2.4669333462	 0.084593
H	-0.5224710189	-4.3285722258	-3.4036703095	 0.105357
H	 0.1206231204	-5.8314757874	-2.7283773393	 0.10585
H	-0.4926553331	-4.5759097389	-1.6510910049	 0.111121
H	 3.2278340235	-4.0664039835	-3.8366985319	 0.105835
H	 2.2967350369	-5.5665987403	-3.9592584693	 0.104643
H	 1.6864333297	-4.0828867289	-4.7066918393	 0.105833
H	 1.7464177056	-4.5519303837	-0.3875507489	 0.111125
H	 2.3721432295	-5.8073263401	-1.4578878928	 0.105841
H	 3.2579840853	-4.2880063538	-1.2702220335	 0.105352
50.6682	63.3343	97.161	130.9169	138.1155	221.0266	224.498	246.0647	257.4898	268.8775	277.3767	330.1699	343.8326	407.6559	408.5885	453.5105	512.0615	733.0092	746.2923	755.6503	841.6739	889.5324	924.3885	931.2772	940.4986	954.8215	959.6424	1004.0913	1030.9999	1041.8607	1063.9913	1069.9138	1118.3544	1127.844	1222.7342	1225.4675	1266.7589	1268.9141	1281.84	1317.3948	1333.6862	1345.6827	1349.237	1392.3338	1393.9266	1400.1179	1401.4784	1412.882	1430.4439	1473.303	1480.1907	1484.3054	1486.8986	1487.1556	1490.5029	1499.2258	1503.8294	1507.1586	1507.7953	1514.0489	1518.3483	2995.0406	3001.4871	3012.4697	3019.1966	3022.2024	3023.2154	3024.0558	3027.014	3028.1403	3030.7887	3046.5263	3067.6057	3086.1065	3086.6183	3091.1085	3094.0591	3094.2058	3098.779	3099.5586	3102.6138
CCCCCC(C)(C)C	CCCCCC(C)(C)C	
InChI=1S/C9H20/c1-5-6-7-8-9(2,3)4/h5-8H2,1-4H3	InChI=1S/C9H20/c1-5-6-7-8-9(2,3)4/h5-8H2,1-4H3
