17
gdb 65631	3.29964	1.31052	1.17701	3.2128	72.64	-0.2345	0.0088	0.2432	1079.3971	0.136351	-417.968564	-417.960415	-417.959471	-418.001187	31.089	
O	-0.0747850727	 1.3467771	 0.0254578232	-0.452478
C	 0.0159459295	-0.050156811	 0.0361467838	 0.296125
C	 0.3230630249	-0.7988196151	 1.3866189591	-0.313912
C	-0.8937995563	-1.7387325587	 1.1429326286	-0.030252
C	-2.1838239591	-1.323321324	 1.8796080668	-0.17002
N	-2.335211684	-0.2021930734	 0.9206556687	-0.303865
C	-1.358966914	-0.7889258461	-0.0082699255	-0.049585
C	 0.8928525793	-0.5334803073	-1.043786796	 0.220369
N	 1.5928740409	-0.9013369259	-1.8877319151	-0.337361
H	 0.8152477196	 1.7168000123	 0.0332389554	 0.293101
H	 1.3027240938	-1.2747219018	 1.4463128792	 0.120748
H	 0.1859099786	-0.1271729429	 2.2367335263	 0.125153
H	-0.6788962702	-2.7954804136	 1.0055901231	 0.088939
H	-2.9661985421	-2.0911211518	 1.8074018134	 0.097288
H	-2.0880913494	-1.0148699948	 2.9276298556	 0.104291
H	-3.259393693	-0.0343183138	 0.5471990249	 0.228149
H	-1.724234276	-1.1099795021	-0.9864056914	 0.083308
91.7344	141.5041	186.0444	249.8829	253.7254	352.6452	377.2953	461.8988	483.6962	567.5946	603.4182	665.1011	761.0126	801.8619	827.9256	860.4521	946.2907	967.141	989.6923	1014.7247	1031.4362	1060.2395	1113.8618	1136.8588	1156.9197	1160.5308	1208.1108	1224.785	1252.5816	1294.0891	1306.5194	1336.6413	1364.3463	1396.1888	1467.6218	1519.7952	2342.654	3002.0203	3051.078	3075.394	3080.9993	3135.6649	3148.2714	3575.8968	3804.8268
OC1(CC2CNC12)C#N	O[C@]1(C[C@H]2CN[C@@H]12)C#N	
InChI=1S/C6H8N2O/c7-3-6(9)1-4-2-8-5(4)6/h4-5,8-9H,1-2H2	InChI=1S/C6H8N2O/c7-3-6(9)1-4-2-8-5(4)6/h4-5,8-9H,1-2H2/t4-,5+,6+/m0/s1
