21
gdb 91391	2.74817	1.31124	1.30921	2.8552	81.78	-0.2302	-0.0057	0.2245	1129.9283	0.184568	-387.115605	-387.107588	-387.106644	-387.147873	32.117	
C	-0.8447715439	 1.0764638117	 0.055850734	-0.416313
C	 0.1692873583	-0.0666086269	-0.0098638623	 0.04263
C	 0.9565642536	-0.0775968988	-1.343891246	-0.217184
C	 2.2388173115	-0.9331036924	-1.2270971746	-0.137177
C	 3.1997825394	-0.2641307891	-0.1952027538	-0.235791
C	 2.3709351235	-0.9405470487	 0.9411328397	-0.137176
C	 1.112706832	-0.0863951328	 1.2186000681	-0.217184
C	 2.0350687723	-1.9989022473	-0.130188517	 0.416598
O	 1.8696565791	-3.1840808777	-0.1241772465	-0.325123
H	-0.3403999657	 2.0495908786	 0.0284606758	 0.11377
H	-1.5418030432	 1.0388586714	-0.7880259821	 0.114735
H	-1.434204696	 1.0327944934	 0.977835999	 0.114735
H	-0.3889424264	-1.012284502	 0.0209046367	 0.095357
H	 0.3095101908	-0.4650604179	-2.1381329699	 0.107457
H	 1.240278238	 0.9413778714	-1.6371034773	 0.099535
H	 2.6297952424	-1.2517308914	-2.1947016666	 0.083102
H	 4.2177281079	-0.6545216221	-0.2585703541	 0.109518
H	 3.2193184537	 0.8285006038	-0.1926434327	 0.098419
H	 2.8763722803	-1.2656248541	 1.8519036315	 0.083102
H	 1.4303465028	 0.9306681051	 1.48216085	 0.099535
H	 0.5667119696	-0.4795532639	 2.0828590982	 0.107457
103.8776	157.8358	229.2279	255.1033	306.7134	385.4678	429.6277	451.2833	462.9631	469.4694	648.9908	773.1112	776.9974	813.6141	843.3994	873.7276	927.1376	928.0217	940.2376	985.4462	1022.247	1034.8879	1057.389	1080.8124	1112.4097	1114.0916	1120.7495	1169.488	1213.6291	1221.0958	1240.6885	1275.1781	1278.2566	1295.9752	1338.3308	1341.2737	1378.9966	1388.4066	1414.9536	1486.2624	1486.348	1497.1235	1499.1324	1504.8285	1886.9423	3004.7037	3021.0952	3022.7503	3028.6029	3060.4182	3068.9285	3072.2157	3093.2263	3098.2197	3100.6303	3101.8227	3121.8195
CC1CC2CC(C1)C2=O	C[C@H]1C[C@H]2C[C@@H](C1)C2=O	
InChI=1S/C8H12O/c1-5-2-6-4-7(3-5)8(6)9/h5-7H,2-4H2,1H3	InChI=1S/C8H12O/c1-5-2-6-4-7(3-5)8(6)9/h5-7H,2-4H2,1H3/t5-,6-,7+
