13
gdb 128997	4.08593	1.76241	1.2313	1.4259	73.02	-0.2559	-0.0699	0.186	907.6373	0.094686	-411.844897	-411.839178	-411.838234	-411.87488	22.86	
N	 0.0143645195	 1.3109918974	 0.0092411685	-0.321806
N	 1.2720347577	 1.8261891287	 0.0002006278	-0.183049
C	 2.1045172218	 0.8017488665	-0.0136149882	-0.099622
C	 1.3870642342	-0.4301299995	-0.0137771509	 0.242826
C	 0.021751108	-0.0459382107	 0.0014331871	 0.452527
N	-1.0092866336	-0.8890319661	 0.0064608796	-0.343193
C	-0.623333563	-2.1622499426	-0.0044765509	-0.028819
C	 0.730675099	-2.5691737649	-0.0197112297	-0.044078
N	 1.7517226405	-1.7198395418	-0.0246072075	-0.32956
H	-0.7776808778	 1.9315350923	 0.0203509826	 0.282597
H	 3.1712351713	 0.9667500061	-0.0228587742	 0.134203
H	-1.4096533089	-2.9122516943	-0.001253779	 0.121233
H	 0.9685864113	-3.629290811	-0.0280259853	 0.11674
234.4836	251.8904	449.5566	454.2744	483.7391	560.7238	612.745	663.2713	679.039	775.0851	830.6849	877.7179	896.4846	934.8555	939.8102	980.8476	1061.0472	1097.2114	1212.2807	1242.7215	1290.2808	1326.7631	1369.9205	1384.49	1435.8602	1492.5777	1537.034	1597.6683	1622.9666	3161.2688	3178.8741	3256.3602	3669.8726
N1N=CC2=C1N=CC=N2	[nH]1ncc2c1nccn2	
InChI=1S/C5H4N4/c1-2-7-5-4(6-1)3-8-9-5/h1-3H,(H,7,8,9)	InChI=1S/C5H4N4/c1-2-7-5-4(6-1)3-8-9-5/h1-3H,(H,7,8,9)
