14
gdb 43614	6.29873	0.65138	0.64222	2.3676	88.04	-0.2586	-0.0412	0.2174	1686.5053	0.099439	-399.488439	-399.480088	-399.479143	-399.522187	30.454	
N	 0.0968969152	 1.0022843387	 0.7103981559	-0.533335
C	-0.0029562047	-0.0810580872	 0.0927916587	 0.445541
C	-1.1536166063	-0.9786003705	-0.3059832278	-0.36606
C	-0.0403572806	-1.8403492991	-0.9662001645	-0.116423
O	 0.9687681144	-0.8802440078	-0.4835475776	-0.247504
C	 0.1657090562	-3.1800292645	-0.4683158241	 0.523645
C	 0.3228178925	-4.3111643913	-0.0676853828	-0.329261
C	 0.4988299908	-5.5801015274	 0.3876776912	 0.312344
C	 0.6552974064	-6.7072673028	 0.7909062884	-0.55443
H	 1.0687346569	 1.3079443355	 0.7824608958	 0.234085
H	-1.6746331163	-1.4536814377	 0.5251806976	 0.153926
H	-1.872964769	-0.5348866102	-0.9948859297	 0.146985
H	-0.0546258891	-1.8284053882	-2.0605248086	 0.130078
H	 0.7939752638	-7.6982930976	 1.1461401074	 0.200409
55.4879	89.486	137.5876	233.5849	265.9252	414.4287	423.1235	492.4558	509.7051	537.3595	567.6922	599.7219	619.5987	687.7249	756.1902	864.4213	901.9371	914.2877	967.8746	1015.0053	1019.9086	1120.2741	1190.3699	1217.7049	1233.851	1300.2784	1364.8532	1462.3054	1835.1337	2184.1241	2361.1115	3062.3235	3099.0225	3159.0983	3480.6058	3503.9903
N=C1CC(O1)C#CC#C	[NH][C]1C[C@@H](O1)C#CC#C	
InChI=1S/C7H5NO/c1-2-3-4-6-5-7(8)9-6/h1,6,8H,5H2	InChI=1S/C7H5NO/c1-2-3-4-6-5-7(8)9-6/h1,6,8H,5H2/t6-/m0/s1
