19
gdb 102358	1.86683	1.33435	1.28601	4.5212	76.28	-0.2616	-0.0457	0.2159	1193.1713	0.156373	-419.217009	-419.206429	-419.205485	-419.252717	36.886	
C	-0.1240733483	 1.4375736948	 0.2929716831	-0.407264
C	-0.0080436808	-0.071646031	 0.0730723618	-0.227669
C	 0.6699663815	-0.4928919525	-1.2635413079	-0.005363
N	 0.757320011	-1.9475430462	-1.2983248336	-0.308779
C	 1.4881244708	-2.5161673737	-2.4328525292	-0.344324
C	-0.2838102539	-0.059837565	-2.3948482683	 0.170271
O	-0.1502715362	 0.9036409251	-3.0934009134	-0.232989
C	 1.9848770266	 0.1721145278	-1.398712827	 0.299484
N	 3.0483087844	 0.6181355141	-1.4768780295	-0.351203
H	 0.860907572	 1.9108709189	 0.3243835003	 0.151789
H	-0.7010930814	 1.9209641107	-0.5002938274	 0.140365
H	-0.6262144139	 1.6359634172	 1.2436942614	 0.124759
H	 0.5735255783	-0.5251137975	 0.8847755809	 0.118405
H	-0.9931591617	-0.550738356	 0.0881156523	 0.124828
H	 1.1506137677	-2.2821287114	-0.4254300536	 0.233477
H	 0.9778272594	-2.259940162	-3.367401823	 0.137829
H	 2.5301191609	-2.1733311535	-2.51105559	 0.137163
H	 1.4808412583	-3.6048756452	-2.3405096584	 0.132636
H	-1.1548406943	-0.7477079744	-2.4641843886	 0.106587
73.4302	96.1858	115.4665	139.8737	159.6634	194.8616	207.1045	235.4695	303.6394	328.5996	391.0276	413.6914	472.1453	602.0431	642.3621	704.6852	742.2819	792.4331	909.2561	990.1433	994.3237	1026.2411	1089.8575	1108.7979	1151.1334	1165.2145	1199.2657	1236.8662	1304.1952	1346.6822	1388.8825	1423.2922	1463.1028	1481.1072	1486.5233	1492.0924	1498.9033	1507.2324	1521.9569	1848.0048	2347.7516	2903.4371	3000.9124	3033.3152	3050.8816	3076.192	3076.9364	3120.078	3121.7834	3127.6057	3532.8032
CCC(NC)(C=O)C#N	CC[C@@](NC)(C=O)C#N	
InChI=1S/C6H10N2O/c1-3-6(4-7,5-9)8-2/h5,8H,3H2,1-2H3	InChI=1S/C6H10N2O/c1-3-6(4-7,5-9)8-2/h5,8H,3H2,1-2H3/t6-/m0/s1
