17
gdb 110165	2.43415	1.23944	0.87496	1.5298	76.56	-0.2324	-0.0334	0.199	1305.4113	0.132448	-421.782622	-421.773222	-421.772278	-421.81734	33.681	
C	-0.3471663291	 1.3521986965	-0.0395573661	-0.250758
O	 0.2086066965	 0.0608460191	 0.1635092596	-0.242194
C	 0.6921986439	-0.5215228298	-1.001802	 0.042648
C	 1.3396663748	-1.9355985264	-0.8162825813	-0.221253
C	 0.5695135887	-2.4487150971	-2.0844652349	-0.361678
C	-0.3060711024	-1.1903610068	-1.9815389034	 0.35841
O	-1.3950182727	-0.8938612006	-2.3784675721	-0.292516
C	 2.7833367493	-2.0249378508	-0.8081338883	 0.302978
C	 3.9838379569	-2.089476373	-0.8227733417	-0.436432
H	 0.4042706641	 2.0469656633	-0.4443692666	 0.110154
H	-1.2042468935	 1.3168641596	-0.7216172313	 0.141628
H	-0.6742538823	 1.711510907	 0.9381710682	 0.133296
H	 1.3739422438	 0.1482168354	-1.5538315629	 0.098818
H	 0.9125002099	-2.3821673297	 0.086720938	 0.128333
H	 1.1925816951	-2.4439824055	-2.9834044246	 0.145498
H	 0.0576362493	-3.4092769286	-2.0077235976	 0.143551
H	 5.0439746077	-2.1497821727	-0.826827985	 0.199517
66.3602	82.5808	139.6908	165.0757	183.719	238.9749	271.4484	380.6279	416.8067	468.7588	513.0985	610.0659	627.5413	632.9434	643.7619	744.2592	813.0222	946.1322	1000.1749	1018.8885	1057.8214	1068.5696	1124.9199	1169.2347	1180.8786	1192.2612	1197.066	1231.1987	1252.0644	1339.4484	1373.0003	1441.3797	1480.8417	1487.162	1511.9306	1891.3934	2239.1172	2961.7749	2991.8491	3068.4323	3070.2595	3073.3136	3130.5533	3136.2022	3503.5282
COC1C(CC1=O)C#C	CO[C@H]1[C@@H](CC1=O)C#C	
InChI=1S/C7H8O2/c1-3-5-4-6(8)7(5)9-2/h1,5,7H,4H2,2H3	InChI=1S/C7H8O2/c1-3-5-4-6(8)7(5)9-2/h1,5,7H,4H2,2H3/t5-,7+/m1/s1
