20
gdb 6585	4.02114	1.78394	1.5676	1.5667	74.95	-0.2326	0.0862	0.3189	915.1661	0.177197	-349.000957	-348.993309	-348.992364	-349.032071	30.861	
C	-0.0686860117	 1.5297561572	 0.0283918305	-0.502061
C	 0.0348286154	 0.0235973481	 0.0290094191	 0.285666
C	 0.9940212651	-0.7779297008	-0.9128532881	-0.299098
C	 0.6804498546	-1.905385261	 0.107565748	 0.441697
C	 1.419244582	-3.2099255884	 0.2064387333	-0.489508
C	 0.6743112133	-0.7990047968	 1.1969041679	-0.299098
O	-0.729841342	-2.1381612977	-0.1084757874	-0.311064
C	-1.2493022075	-0.7958971825	-0.1737909873	-0.102544
H	 0.9108902845	 1.9938170313	 0.1812330867	 0.117231
H	-0.468184352	 1.8994204927	-0.9231998485	 0.117752
H	-0.7328676363	 1.8819351358	 0.8262695586	 0.117756
H	 0.6876238475	-0.9436275407	-1.9495999834	 0.092356
H	 2.0251730711	-0.421211562	-0.861742428	 0.092912
H	 2.4862901546	-3.0362038918	 0.3714483405	 0.114667
H	 1.0311472965	-3.8080273121	 1.0368525356	 0.126384
H	 1.298926764	-3.7892410578	-0.7143508597	 0.126351
H	 1.6732704687	-0.4444314518	 1.4605185235	 0.092908
H	 0.075030811	-0.9839677546	 2.092911406	 0.092355
H	-1.9927820033	-0.6353554137	 0.6177084533	 0.092669
H	-1.7253689954	-0.6177036233	-1.1467330405	 0.092667
201.4713	208.0496	234.0458	237.979	294.7469	349.0981	411.124	483.8898	515.4684	580.3847	616.7736	684.5953	797.6934	866.8327	870.0057	893.1954	937.9679	944.7244	1002.1265	1002.1397	1023.0608	1046.7345	1048.8774	1134.5319	1136.647	1177.334	1188.0878	1205.4069	1236.75	1260.1451	1285.4433	1334.6816	1379.7708	1414.3298	1420.6289	1472.1169	1480.0031	1493.2303	1493.3803	1494.2866	1505.8435	1534.1046	3007.6613	3024.344	3039.7365	3045.6151	3051.8609	3060.2715	3085.7739	3097.2455	3109.2789	3116.8489	3118.3174	3125.875
CC12CC(C)(C1)OC2	C[C@@]12C[C@@](C)(C1)OC2	
InChI=1S/C7H12O/c1-6-3-7(2,4-6)8-5-6/h3-5H2,1-2H3	InChI=1S/C7H12O/c1-6-3-7(2,4-6)8-5-6/h3-5H2,1-2H3/t6-,7+
