17
gdb 13094	4.20221	1.28876	1.08051	3.1547	67.05	-0.2556	0.016	0.2716	1096.641	0.141032	-400.974748	-400.966331	-400.965387	-401.008942	29.255	
C	-0.197852907	 1.4426015547	 0.3083611844	-0.396394
C	 0.1260314514	-0.0250560501	 0.120758299	 0.119415
O	 1.1581483627	-0.2544496498	-0.8728079789	-0.289309
C	 2.0538116945	-0.8278916886	 0.0984924525	-0.09805
C	 0.9981750498	-0.7165933777	 1.2070084144	 0.054846
O	 1.4107500607	 0.0873547558	 2.2945814389	-0.181446
C	 0.8779305516	-0.1658561591	 3.5090504084	 0.122793
N	 1.1284522131	 0.5996437909	 4.4784974452	-0.43813
H	 0.6830298329	 2.0026335514	 0.6291107292	 0.14018
H	-0.5591379953	 1.8593526405	-0.6364225254	 0.128692
H	-0.9814896673	 1.571237295	 1.0626148447	 0.119527
H	-0.7788063874	-0.5925127484	-0.1354076212	 0.077296
H	 2.3696445093	-1.8419850466	-0.171650898	 0.107176
H	 2.9369247234	-0.2037912497	 0.2789385801	 0.121614
H	 0.5994196423	-1.6696130718	 1.5687471848	 0.091712
H	 0.2561449211	-1.0721100333	 3.5307212235	 0.087988
H	 0.6735318541	 0.2548742368	 5.3211052783	 0.232092
42.8682	60.4837	115.9534	208.3879	220.1975	263.1769	386.1021	410.7001	483.1469	627.4958	765.5579	818.9679	850.8221	882.3173	915.1056	998.3641	1017.8381	1043.3109	1055.5277	1092.3686	1110.5624	1149.3512	1161.1387	1189.6725	1253.0463	1282.5086	1295.5123	1351.1267	1376.2465	1397.2046	1409.4524	1434.5262	1485.4456	1488.42	1517.5905	1747.5085	3009.8971	3016.3167	3025.3709	3043.4514	3055.9529	3076.6876	3111.7587	3137.4478	3521.0744
CC1OCC1OC=N	C[C@H]1OC[C@H]1O[CH][NH]	
InChI=1S/C5H9NO2/c1-4-5(2-7-4)8-3-6/h3-6H,2H2,1H3	InChI=1S/C5H9NO2/c1-4-5(2-7-4)8-3-6/h3-6H,2H2,1H3/t4-,5-/m1/s1
