14
gdb 33485	2.26769	1.79353	1.20475	4.2528	71.95	-0.2692	-0.0257	0.2435	1014.9013	0.098872	-399.464914	-399.457032	-399.456088	-399.497295	29.696	
C	-0.0049272531	-1.2261482674	-0.0473499151	-0.410126
C	 0.0173459467	-0.026274647	-0.01181806	 0.309522
C	 0.0691154984	 1.4274492781	 0.0324931254	 0.080532
O	-0.1613855966	 1.9858421745	 1.3633725513	-0.306092
C	 1.0717105263	 2.722558531	 1.2905781788	 0.100784
C	 2.2297290926	 1.7855855738	 1.2126946393	-0.312134
C	 1.4484913672	 2.1218575202	-0.0388514875	-0.151796
C	-0.8870698949	 2.0178350098	-0.9207935463	 0.275275
N	-1.6129204424	 2.4969079638	-1.6806334743	-0.329577
H	-0.0334830178	-2.2880485791	-0.0799473651	 0.215303
H	 1.0712345439	 3.7369179089	 1.667245471	 0.12611
H	 3.2116694846	 2.2471737774	 1.2477113698	 0.131142
H	 2.1589305136	 0.8009049993	 1.6637865301	 0.138324
H	 1.8685775117	 2.5481971366	-0.9377174976	 0.132731
123.2029	133.1942	166.0915	178.8836	323.3561	418.1848	487.1341	513.9794	544.8482	575.5836	586.7207	653.3993	684.9611	768.3752	812.9761	882.8499	928.0925	974.2338	985.2129	1020.4675	1046.0849	1060.032	1084.9426	1109.67	1160.7815	1213.5834	1262.9027	1345.4079	1469.0567	2243.5378	2362.2963	3127.1369	3205.8375	3218.7692	3230.3097	3497.7048
C#CC1(OC2CC12)C#N	C#C[C@]1(O[C@H]2C[C@@H]12)C#N	
InChI=1S/C7H5NO/c1-2-7(4-8)5-3-6(5)9-7/h1,5-6H,3H2	InChI=1S/C7H5NO/c1-2-7(4-8)5-3-6(5)9-7/h1,5-6H,3H2/t5-,6+,7+/m1/s1
