16
gdb 35084	3.42088	1.44539	1.2655	5.224	72.8	-0.2599	-0.0228	0.2371	1002.4758	0.126541	-400.741178	-400.734252	-400.733308	-400.772595	27.284	
N	-0.0192819007	-1.1777592999	-0.1178802064	-0.318883
C	-0.0049255648	-0.0246759575	-0.0440383562	 0.274987
C	 0.007515358	 1.4394511726	 0.0363989409	-0.199207
C	-0.6803466492	 1.9315578429	 1.3089886864	-0.074566
C	 0.014379338	 2.7008171301	 2.1437000813	-0.051469
C	 1.4470789427	 3.0005609858	 1.7538777268	 0.0417
C	 1.4799584134	 3.5122013404	 0.2918269798	-0.257826
C	 1.4599063861	 1.9947935366	 0.0092925961	 0.080076
O	 2.0661675661	 1.7541706027	 1.2990312518	-0.280865
H	-0.5311517415	 1.8142620817	-0.8454854016	 0.133764
H	-1.7055582596	 1.6263069751	 1.4859103791	 0.121965
H	-0.4106334952	 3.1092772046	 3.0538177606	 0.109257
H	 2.035546267	 3.4982232069	 2.5252758392	 0.089358
H	 0.6563938287	 4.136390992	-0.0584174859	 0.109086
H	 2.4442130076	 3.9459486626	 0.0237844053	 0.12067
H	 2.0424018033	 1.5840075733	-0.8178647075	 0.101954
104.3563	147.7283	303.0826	349.306	429.6974	436.0001	504.6258	573.5954	618.209	718.9694	735.2626	835.0249	857.758	890.2474	935.5423	952.4634	961.2241	968.2019	986.9289	1006.2431	1067.013	1109.805	1117.6262	1167.0756	1205.6735	1248.3186	1265.1514	1283.0219	1315.2935	1328.4125	1357.9423	1389.9075	1484.12	1697.6787	2358.304	3014.9713	3077.9172	3095.9819	3111.5767	3145.0137	3183.8995	3205.7732
N#CC1C=CC2CC1O2	N#C[C@H]1C=C[C@@H]2C[C@H]1O2	
InChI=1S/C7H7NO/c8-4-5-1-2-6-3-7(5)9-6/h1-2,5-7H,3H2	InChI=1S/C7H7NO/c8-4-5-1-2-6-3-7(5)9-6/h1-2,5-7H,3H2/t5-,6-,7-/m1/s1
