19
gdb 57517	2.82458	0.99461	0.87785	1.0062	72.64	-0.2594	-0.1061	0.1533	1382.733	0.15461	-460.190765	-460.180533	-460.179589	-460.22635	37.078	
C	 0.3904386355	 1.437846499	 0.0845693602	-0.397007
C	 0.0579302982	-0.0554627688	 0.066133165	 0.343008
C	 0.6767037776	-0.7576593335	 1.2873019807	-0.423202
O	-1.3628486853	-0.1341675657	 0.1106020275	-0.470236
C	 0.5769854851	-0.6778241642	-1.2530296928	-0.330771
C	 0.174007936	-2.1105868718	-1.4870950103	 0.284998
O	-0.7411351092	-2.689676426	-0.937217631	-0.29803
C	 0.9766380246	-2.9127939697	-2.5260718063	 0.102505
O	 1.9480147661	-2.4869208741	-3.0908698346	-0.212939
H	 1.4706751062	 1.6048909938	 0.0366665565	 0.110848
H	-0.0815537734	 1.9430924782	-0.7629649419	 0.119874
H	 0.0079154596	 1.8893488699	 1.0039981308	 0.125488
H	 0.2828298322	-0.3078011933	 2.202529254	 0.126728
H	 0.4281365691	-1.8228134311	 1.3009433653	 0.121113
H	 1.7676232754	-0.6596346614	 1.2955014753	 0.11037
H	-1.5898414728	-1.071077192	 0.0451452144	 0.289164
H	 0.1706327852	-0.10779826	-2.1020334895	 0.146614
H	 1.6656284893	-0.6049271688	-1.3491411286	 0.138811
H	 0.5660017206	-3.9317287903	-2.6869294648	 0.112666
36.7853	109.1112	133.3235	153.9391	218.7281	225.4952	266.4372	313.5653	329.4252	397.4679	438.4474	449.4955	477.4167	539.8509	548.5238	627.725	781.7406	821.3653	867.8069	925.1638	931.4373	972.7952	1006.5673	1029.0372	1128.0699	1140.8932	1187.518	1237.8521	1269.5625	1351.4393	1363.9775	1392.7858	1411.8872	1426.248	1428.0509	1478.6468	1490.5085	1500.9725	1511.7356	1781.869	1827.3432	2928.6006	3015.5806	3036.9122	3043.4113	3081.5597	3108.5027	3118.0094	3119.1851	3123.8028	3759.5797
CC(C)(O)CC(=O)C=O	CC(C)(O)CC(=O)C=O	
InChI=1S/C6H10O3/c1-6(2,9)3-5(8)4-7/h4,9H,3H2,1-2H3	InChI=1S/C6H10O3/c1-6(2,9)3-5(8)4-7/h4,9H,3H2,1-2H3
