19
gdb 102540	2.6663	0.99018	0.8264	3.3074	68.54	-0.2503	-0.0428	0.2074	1398.3106	0.156576	-497.292165	-497.281945	-497.281001	-497.327762	36.408	
O	 0.0683875681	 1.4978802828	 0.2701227197	-0.432084
C	 0.0700064097	 0.1130303646	-0.0024924059	-0.061248
C	-1.3511933612	-0.488112999	-0.028323864	-0.044251
C	-2.1158525103	-0.0871114434	-1.2921532659	-0.099234
O	-2.1677740056	 1.3394831538	-1.3666001471	-0.426637
C	-1.3338568662	-2.0267101004	 0.078051745	 0.03318
O	-0.6031746027	-2.6125805143	-0.9675632401	-0.437188
C	-0.7894352408	-2.4830270798	 1.4175263233	 0.135878
O	 0.118300448	-3.2747950847	 1.4960493713	-0.262902
H	-0.5626043432	 1.8892977084	-0.3485256297	 0.288608
H	 0.5750745114	-0.1219777118	-0.9521242979	 0.098245
H	 0.6627538346	-0.3557455869	 0.7925238869	 0.105928
H	-1.8933852004	-0.0922920448	 0.8417810255	 0.092038
H	-1.6032692276	-0.5074799862	-2.1673778778	 0.122474
H	-3.1341830981	-0.5041893159	-1.2632931733	 0.093556
H	-2.4348005042	 1.5908738725	-2.2552862607	 0.296507
H	-2.3845895986	-2.378883362	 0.0550970636	 0.093458
H	 0.0365493333	-3.2041140196	-0.5393873101	 0.297408
H	-1.2804453063	-2.0616065632	 2.3179971771	 0.106266
67.0898	91.663	107.0071	133.5691	218.7551	233.9648	259.4173	287.7293	311.2524	361.0472	382.3227	459.4258	482.1877	554.0903	647.1117	760.8104	851.6483	871.359	913.8377	977.912	986.3007	1060.3191	1089.0255	1100.6573	1141.0337	1158.2738	1214.7308	1245.4162	1260.0132	1290.6156	1299.1086	1334.288	1366.0441	1390.8947	1400.5684	1437.7827	1457.9707	1468.7002	1510.5033	1525.5067	1812.9315	2908.63	2937.9253	2982.4904	2986.9473	3019.575	3044.6006	3050.8855	3684.5463	3753.1392	3837.2434
OCC(CO)C(O)C=O	OCC(CO)[C@@H](O)C=O	
InChI=1S/C5H10O4/c6-1-4(2-7)5(9)3-8/h3-7,9H,1-2H2	InChI=1S/C5H10O4/c6-1-4(2-7)5(9)3-8/h3-7,9H,1-2H2/t5-/m0/s1
