15
gdb 44396	3.88205	1.59454	1.45288	5.2572	63.43	-0.2698	0.0065	0.2764	893.8762	0.114889	-457.756845	-457.750773	-457.749829	-457.787324	24.566	
O	-0.1436565861	 0.1060775755	 0.242604311	-0.324242
C	-0.0277608443	 1.2714559445	 0.0564775743	 0.467945
O	-1.0218874261	 2.1807622543	-0.2427562622	-0.250968
C	-0.0704498898	 3.2789512611	-0.3332945906	 0.117107
C	 0.0069718096	 4.1532149918	 0.934959856	 0.034105
C	 1.5260026721	 4.4603708856	 1.0097031333	-0.234345
C	 1.4962354916	 2.9458898019	 1.3483657731	 0.062187
O	 0.2009238912	 3.1602581593	 1.9831196678	-0.279779
C	 1.0972630848	 2.3156382831	-0.0061631471	-0.257836
H	-0.1395337965	 3.7990910535	-1.2872740003	 0.105586
H	-0.7801093342	 4.8766194931	 1.1391458604	 0.101591
H	 2.0526387172	 4.7982531608	 0.1128046114	 0.107141
H	 1.7757045254	 5.0718762249	 1.876725428	 0.128668
H	 2.2261622615	 2.4405170709	 1.9773648934	 0.1058
H	 1.9040632936	 2.1377179498	-0.7147459184	 0.11704
135.3853	242.7915	323.8337	442.9007	500.9621	600.674	662.471	713.2053	804.8386	822.8578	857.3134	870.8414	886.8696	889.5471	946.3256	961.9949	981.431	997.8428	1029.5971	1073.7184	1082.1463	1100.7767	1175.612	1182.1544	1217.6012	1240.3748	1248.1708	1268.3595	1287.9361	1326.1756	1330.5692	1486.2442	1946.8818	3066.8754	3132.3773	3141.1081	3147.6016	3149.3254	3154.7876
O=C1OC2C3CC(O3)C12	O=C1O[C@H]2[C@@H]3C[C@@H](O3)[C@@H]12	
InChI=1S/C6H6O3/c7-6-4-2-1-3(8-2)5(4)9-6/h2-5H,1H2	InChI=1S/C6H6O3/c7-6-4-2-1-3(8-2)5(4)9-6/h2-5H,1H2/t2-,3+,4-,5+/m1/s1
