16
gdb 29979	3.24123	1.65252	1.16008	1.5081	76.96	-0.2071	-0.0254	0.1817	1024.7888	0.126591	-400.780929	-400.773949	-400.773005	-400.812294	27.263	
C	-0.0885896663	 1.586320069	 0.0033269782	-0.391148
C	 0.0162244196	 0.0517348061	 0.0318327697	-0.196026
C	 0.8397006561	-0.5303135449	-1.1217605596	-0.074854
C	 1.8687156706	-1.2941793334	-0.6876182041	-0.232838
C	 1.7950850023	-1.2687365319	 0.7588389135	 0.307272
C	 0.7606938187	-0.5160136288	 1.2046559313	 0.242735
N	 0.7429285504	-0.5197923401	 2.5853749956	-0.34504
C	 1.7598038222	-1.2699153653	 2.8902388874	 0.025824
O	 2.4650784847	-1.7747988726	 1.8243688187	-0.199261
H	 0.9052614233	 2.0417897849	 0.0293797505	 0.127692
H	-0.5994521367	 1.9250206613	-0.9031048576	 0.116259
H	-0.6518974413	 1.9441441906	 0.8694331896	 0.135374
H	-0.9992605237	-0.3680184623	-0.0200330516	 0.113235
H	 0.598675017	-0.3276294274	-2.1574246703	 0.106213
H	 2.5950428758	-1.8172213659	-1.2933163009	 0.117424
H	 2.1199752974	-1.5465924794	 3.8679779096	 0.147139
129.8292	164.4067	251.6988	289.3512	364.5667	473.5279	548.2208	639.1905	644.5249	690.0575	705.6099	771.4765	794.7379	811.7127	906.9706	930.2218	940.7513	1013.8986	1061.616	1068.9833	1074.9966	1093.5327	1157.3271	1219.8835	1267.5805	1279.9784	1327.552	1378.7808	1407.2402	1458.4942	1495.5305	1496.7339	1508.4511	1549.7644	1621.1912	3011.0572	3041.6398	3114.1965	3122.1841	3214.4842	3241.4536	3283.4261
CC1C=CC2=C1N=CO2	C[C@H]1C=Cc2c1nco2	
InChI=1S/C7H7NO/c1-5-2-3-6-7(5)8-4-9-6/h2-5H,1H3	InChI=1S/C7H7NO/c1-5-2-3-6-7(5)8-4-9-6/h2-5H,1H3/t5-/m0/s1
