20
gdb 118458	2.55524	0.93903	0.73107	5.5479	71.7	-0.2526	0.022	0.2747	1540.2724	0.170901	-477.452054	-477.441992	-477.441047	-477.487736	36.147	
N	-0.1011655441	 0.9204818248	 0.087091313	-0.52519
H	 0.0691022003	-0.0747660143	 0.1833600316	 0.251081
H	 1.2120053796	 2.0775671751	 0.1755145855	 0.312898
H	-0.7006164102	 1.0459366179	-0.7232389669	 0.247495
C	-0.7426505987	 1.4715742652	 1.2972559378	-0.191655
C	-0.6455663001	 3.0123268766	 1.314508512	-0.150026
C	-1.4892189909	 3.6258458376	 2.4420069244	-0.199232
C	-1.8722716184	 5.0890626785	 2.1938746461	-0.07519
O	-2.6780799267	 5.6125096452	 3.2389914118	-0.421162
C	 0.8189576854	 3.4991127296	 1.3806741211	 0.421035
O	 1.6783477005	 2.8535753386	 0.5867493766	-0.379074
O	 1.1734998001	 4.409949147	 2.0868907919	-0.33522
H	-1.7973691928	 1.1793181485	 1.3844479295	 0.110737
H	-0.2214107051	 1.0582755232	 2.1677730967	 0.130587
H	-1.0389390057	 3.36439478	 0.3467659829	 0.097705
H	-2.4136715295	 3.0502101243	 2.5692162898	 0.092811
H	-0.930642168	 3.5591423557	 3.3826438628	 0.106692
H	-0.9669239364	 5.6871203017	 2.0405900835	 0.123266
H	-2.4824897491	 5.1607131248	 1.2849559649	 0.097958
H	-2.1076608203	 5.74870826	 4.0019555451	 0.284483
69.4249	75.5118	95.9718	144.0577	192.7389	271.8171	301.7535	303.7845	324.8838	356.6086	390.6513	429.9519	580.1367	611.6929	727.206	775.3558	808.2034	890.0088	963.6708	981.7113	996.1595	1031.4819	1062.5219	1075.1243	1089.7154	1109.617	1158.0287	1180.088	1245.7644	1284.0537	1311.0402	1324.0164	1353.2937	1373.6551	1407.2512	1412.5348	1421.4367	1474.9149	1498.0187	1511.71	1514.6461	1650.6162	1840.2372	2979.4562	3012.0947	3025.1482	3034.539	3064.4911	3074.7117	3088.8392	3207.9937	3502.8379	3585.2845	3820.2234
[NH3+]CC(CCO)C([O-])=O	NC[C@@H](CCO)C(=O)O	
InChI=1S/C5H11NO3/c6-3-4(1-2-7)5(8)9/h4,7H,1-3,6H2,(H,8,9)	InChI=1S/C5H11NO3/c6-3-4(1-2-7)5(8)9/h4,7H,1-3,6H2,(H,8,9)/t4-/m1/s1
