22
gdb 60198	2.7394	0.89581	0.78827	3.6636	84.41	-0.2486	0.0043	0.253	1561.2123	0.192425	-404.35184	-404.341643	-404.340699	-404.387725	36.918	
C	-0.2376779345	 1.3814865203	-0.3244660008	-0.389668
C	-0.1336783277	-0.1354431314	-0.1174554005	 0.038186
C	 0.8345029176	-0.4614417838	 1.0283915718	-0.386267
C	-1.5375715275	-0.7337326016	 0.1110482491	-0.206476
C	-1.5992993494	-2.2447348474	 0.18232036	-0.016051
C	-2.8631963426	-2.9745057913	-0.1840684631	-0.253903
N	-1.6944697574	-3.0554416254	-1.0261824182	-0.061603
C	-1.6492377642	-2.6320778811	-2.3398552963	 0.134497
O	-2.5456293673	-2.7583862604	-3.1394370177	-0.292611
H	 0.7453463569	 1.8202597852	-0.5227254679	 0.114376
H	-0.8921036866	 1.6276004289	-1.1672070483	 0.115843
H	-0.6451059974	 1.8711532022	 0.5683347982	 0.114074
H	 0.2733004041	-0.5735024066	-1.0396154641	 0.079095
H	 1.8157871982	-0.0123702555	 0.8453907085	 0.116739
H	 0.460924318	-0.063979896	 1.9800381944	 0.113534
H	 0.9847503327	-1.538158851	 1.1510585436	 0.116727
H	-1.9422005454	-0.3337055219	 1.0517252604	 0.104959
H	-2.2109279812	-0.3925576561	-0.6856132192	 0.107422
H	-0.9835850531	-2.7005522884	 0.9555856604	 0.104193
H	-3.1370594244	-3.8837838596	 0.3438766965	 0.126813
H	-3.69795658	-2.3893824951	-0.5624891472	 0.13585
H	-0.6538501587	-2.228614344	-2.6072873497	 0.08427
45.0499	73.0455	115.9811	152.3405	214.97	232.0127	254.1589	287.3417	316.883	375.3996	411.4577	448.7857	503.9021	620.9657	802.6028	812.4851	866.6738	906.2951	928.9892	951.1783	966.991	978.8906	1037.9919	1050.1208	1088.039	1124.8681	1135.7044	1156.1399	1162.9526	1188.646	1197.0993	1270.2363	1307.2334	1360.4536	1372.7465	1385.3832	1402.4729	1419.2462	1421.9606	1437.3423	1471.9896	1488.2596	1494.5636	1505.4036	1511.6062	1512.2801	1794.4912	2950.4143	3002.5711	3012.5396	3024.6375	3030.4508	3054.4565	3090.203	3096.4205	3102.1736	3105.7605	3108.8836	3125.402	3197.2288
CC(C)CC1CN1C=O	CC(C)C[C@H]1CN1C=O	
InChI=1S/C7H13NO/c1-6(2)3-7-4-8(7)5-9/h5-7H,3-4H2,1-2H3	InChI=1S/C7H13NO/c1-6(2)3-7-4-8(7)5-9/h5-7H,3-4H2,1-2H3/t7-,8?/m0/s1
