18
gdb 56270	2.56468	1.09459	0.93488	2.2197	67.29	-0.2409	0.0253	0.2662	1289.1344	0.146094	-476.21342	-476.203829	-476.202885	-476.249385	33.809	
N	 0.3521729308	-0.8603298549	-0.6996466683	-0.503829
C	-0.2259201115	-0.8561005186	 0.5298968717	 0.36617
O	 0.3852577787	-0.8478420759	 1.5799258986	-0.364225
C	-1.7589768611	-0.8031348668	 0.4958656288	-0.177523
O	-2.3370241791	-1.2259220349	-0.7274320652	-0.247581
C	-2.7659391491	-2.5803190841	-0.7496408289	-0.115969
C	-1.6330281286	-3.5862664386	-0.7565012922	 0.069656
C	-1.196488755	-4.2800851381	 0.4625020025	-0.166237
O	-2.0291000936	-4.9322416863	-0.4991853157	-0.23243
H	 1.3547920283	-0.8206139992	-0.7725965857	 0.263543
H	-0.2225087781	-0.8332402477	-1.5245099068	 0.267409
H	-2.1344961157	-1.3742219029	 1.3519402973	 0.125741
H	-2.0488441062	 0.2443785408	 0.6431655196	 0.139138
H	-3.4290260493	-2.7950820933	 0.1011916961	 0.108824
H	-3.3528029743	-2.6854742418	-1.6679079844	 0.121828
H	-0.9114245321	-3.4715772632	-1.5659591484	 0.095307
H	-0.1769966226	-4.6544037513	 0.531785662	 0.127453
H	-1.6742469613	-4.0528899932	 1.4142506989	 0.122727
35.1202	56.9771	102.9974	108.4654	213.364	271.665	316.109	345.3737	390.2316	461.2737	509.378	526.4442	577.5965	682.4421	835.4476	864.8719	877.8785	903.921	956.331	1002.2838	1032.7821	1091.7462	1106.5523	1122.8992	1158.2957	1162.8449	1177.0629	1263.2485	1283.3211	1307.814	1356.3476	1371.4927	1387.9747	1446.912	1469.5252	1489.6443	1528.6852	1594.871	1808.5896	3004.3994	3033.777	3080.327	3084.0102	3090.8105	3110.9377	3179.6388	3602.2131	3743.0673
NC(=O)COCC1CO1	NC(=O)COC[C@H]1CO1	
InChI=1S/C5H9NO3/c6-5(7)3-8-1-4-2-9-4/h4H,1-3H2,(H2,6,7)	InChI=1S/C5H9NO3/c6-5(7)3-8-1-4-2-9-4/h4H,1-3H2,(H2,6,7)/t4-/m0/s1
