18
gdb 23528	3.29246	1.21776	1.14354	1.5858	76.42	-0.2396	0.0062	0.2458	1144.3004	0.147697	-439.008472	-439.000345	-438.999401	-439.040988	31.402	
C	-0.0947287247	 1.5812468159	 0.0357891249	-0.439115
C	 0.0291119444	 0.0664629718	-0.0008361181	 0.016216
C	 0.8844611031	-0.6645960984	-1.115074015	-0.182891
C	 2.2622140682	-0.0154817326	-0.8884619262	-0.087246
O	 2.3148515913	 0.0000293542	 0.562961002	-0.278685
C	 1.0755258498	-0.639803687	 0.9231962745	-0.014476
C	 0.984802378	-1.7777112161	-0.08483059	 0.492267
N	 0.8653732433	-3.0304292778	-0.1550087724	-0.306254
O	 0.9138084701	-3.6228773149	 1.1256950412	-0.395761
H	 0.8803875679	 2.0604691003	 0.1456897218	 0.139822
H	-0.5701738496	 1.9603930399	-0.8749541692	 0.119451
H	-0.7129037072	 1.8896578077	 0.8851247602	 0.122731
H	-0.9459963326	-0.4206943892	 0.0826720487	 0.094393
H	 0.5377743472	-0.8199291354	-2.1339664321	 0.089661
H	 3.0855864176	-0.6177747366	-1.2865899378	 0.116249
H	 2.3404114614	 1.0054166521	-1.27651236	 0.105564
H	 0.994869514	-0.7440156926	 2.0008482919	 0.101925
H	 0.8231107079	-4.5586059112	 0.9156180855	 0.306151
107.2346	171.6938	176.6822	252.5771	289.41	298.9371	367.7632	411.4651	499.7302	582.9797	684.1095	694.5286	743.4043	779.2129	802.4564	905.2345	921.4983	939.8344	970.8419	1003.9168	1045.2749	1058.0667	1065.1989	1113.3689	1131.0895	1138.9883	1183.0096	1210.258	1233.4871	1257.5219	1279.6074	1357.8885	1382.4403	1405.3338	1411.0555	1489.5638	1501.7746	1529.7881	1814.4274	3036.9753	3040.3242	3078.5953	3080.7456	3100.017	3131.0696	3154.5632	3180.2828	3817.4727
CC1C2COC1C2=NO	C[C@H]1[C@H]2CO[C@@H]1C2=NO	
InChI=1S/C6H9NO2/c1-3-4-2-9-6(3)5(4)7-8/h3-4,6,8H,2H2,1H3	InChI=1S/C6H9NO2/c1-3-4-2-9-6(3)5(4)7-8/h3-4,6,8H,2H2,1H3/t3-,4+,6-/m0/s1
