14
gdb 48306	2.35762	1.09593	0.88058	1.8123	63.68	-0.2705	-0.0666	0.2039	1287.0707	0.096832	-473.823771	-473.814481	-473.813537	-473.859263	30.882	
O	-0.279855967	 0.6764192454	 0.7856129535	-0.233824
C	 0.2785051917	 1.7068896727	 0.5221966774	 0.148961
C	 1.6724304889	 1.7716335773	-0.1112516298	-0.078055
O	 2.1535131191	 0.5331335984	-0.5668324668	-0.241928
C	 2.5382327087	-0.3929230688	 0.4321010332	-0.193199
C	 3.6783610599	 0.0910196527	 1.2315690372	 0.246857
N	 4.5573044698	 0.5017149729	 1.8590762399	-0.298004
C	 1.6480759291	 2.7243381487	-1.3084030628	 0.133265
O	 1.215213897	 3.8420656331	-1.242058058	-0.234973
H	-0.1661759826	 2.7041219545	 0.7137716056	 0.127999
H	 2.3431952963	 2.2315396945	 0.637508287	 0.151774
H	 1.7042065535	-0.6353059477	 1.0984673103	 0.178467
H	 2.8322911567	-1.3035998748	-0.0963929196	 0.170212
H	 2.0581070388	 2.2751968312	-2.236190557	 0.122448
44.4297	74.5128	118.445	139.4708	197.7752	204.1473	266.1366	322.7053	373.3778	411.0615	540.6377	624.687	704.7606	790.6064	875.0777	904.6558	1018.3688	1023.5004	1071.9168	1096.1104	1174.0697	1230.5387	1282.6036	1325.4913	1374.8928	1388.2449	1405.0738	1483.2675	1818.4582	1848.6476	2358.0693	2933.8778	2941.3185	2959.2659	3064.9196	3113.2339
O=CC(OCC#N)C=O	O=CC(OCC#N)C=O	
InChI=1S/C5H5NO3/c6-1-2-9-5(3-7)4-8/h3-5H,2H2	InChI=1S/C5H5NO3/c6-1-2-9-5(3-7)4-8/h3-5H,2H2
