19
gdb 115825	3.52613	1.13078	1.06483	1.6653	71.66	-0.2615	0.0765	0.338	1214.4696	0.158553	-460.140236	-460.131557	-460.130613	-460.174386	31.848	
C	-0.5713448945	 1.0394496266	-0.2757938102	-0.242844
O	-0.2363892031	-0.3312826601	-0.3990603133	-0.242705
C	 0.9965825065	-0.553097512	-1.0257834597	 0.210501
C	 1.2305522371	-2.0626299469	-1.086121077	-0.330368
C	 0.5442508556	-2.4410163334	-2.39225012	 0.402904
C	 0.5813259424	-3.773143538	-2.9985299875	-0.254457
O	-0.5991838535	-3.292191348	-2.3458402103	-0.262819
C	 0.4120100554	-1.1383586243	-3.1854857691	-0.152814
O	 1.0060642236	-0.1231422815	-2.376985653	-0.265586
H	 0.1727074166	 1.5779954066	 0.331052845	 0.104763
H	-0.6413649241	 1.5268455309	-1.2550064782	 0.125654
H	-1.5401491136	 1.0871378052	 0.2254805169	 0.128206
H	 1.7892747599	 0.0200420058	-0.5250425904	 0.070975
H	 2.3043831084	-2.2650818178	-1.135792884	 0.113331
H	 0.7987162762	-2.5870703091	-0.2335827893	 0.135014
H	 0.5079589941	-3.880334059	-4.0807988149	 0.113505
H	 1.1003264994	-4.5861241001	-2.4907268953	 0.11435
H	 0.9449715089	-1.1548560812	-4.140924778	 0.110763
H	-0.6498926153	-0.9369581736	-3.3732060218	 0.121627
39.7837	101.4298	137.9501	199.3638	258.0943	301.2182	374.655	388.8629	397.4688	515.6787	573.8568	770.1193	790.6897	829.2943	855.2423	920.1691	942.9279	963.489	1004.7092	1005.4741	1068.6003	1096.0493	1127.3274	1139.574	1164.3912	1180.9944	1190.1463	1213.4089	1237.3229	1239.1268	1293.9753	1333.7449	1374.3479	1394.4483	1436.4021	1465.3416	1477.3246	1484.4279	1510.5568	1513.9308	1536.1908	2989.4853	3015.007	3028.4751	3064.9934	3068.656	3072.6355	3082.0274	3127.9161	3142.8121	3156.6909
COC1CC2(CO2)CO1	CO[C@H]1C[C@]2(CO2)CO1	
InChI=1S/C6H10O3/c1-7-5-2-6(3-8-5)4-9-6/h5H,2-4H2,1H3	InChI=1S/C6H10O3/c1-7-5-2-6(3-8-5)4-9-6/h5H,2-4H2,1H3/t5-,6-/m1/s1
