18
gdb 12066	3.96717	1.67264	1.49897	2.3566	66.98	-0.2392	0.0751	0.3143	905.952	0.152905	-384.896855	-384.889057	-384.888113	-384.928529	30.279	
C	-0.1213278611	 1.619133515	 0.1325239741	-0.441474
C	-0.038084166	 0.104974145	 0.1547011086	 0.381995
C	-1.3874266197	-0.5582467485	-0.1370834322	-0.085742
O	-1.8051014512	-0.2834733298	-1.4582358554	-0.422735
O	 0.9059359241	-0.4198418582	-0.8572250104	-0.345967
C	 1.5600284184	-1.1993035896	 0.1486316663	 0.105974
C	 2.2185615318	-0.3193178295	 1.1606100046	-0.312115
C	 0.7353886866	-0.6126903692	 1.2672260059	-0.176075
H	 0.8657910194	 2.0774031851	 0.2198905927	 0.118733
H	-0.5827527087	 1.9494814445	-0.8019168865	 0.138916
H	-0.7432421714	 1.9703584851	 0.962953934	 0.118345
H	-1.2995096697	-1.6410717446	 0.0423528254	 0.084098
H	-2.1595558515	-0.1657244271	 0.5341276947	 0.104305
H	-1.0609419497	-0.5402587168	-2.0182348972	 0.29152
H	 1.8510533627	-2.2128943849	-0.1004932934	 0.104822
H	 2.8257725632	-0.8327607564	 1.9001038047	 0.117191
H	 2.5846824308	 0.6597359076	 0.8676688375	 0.118903
H	 0.2852114519	-1.0804723878	 2.1330712967	 0.099305
116.6368	187.7992	206.8252	223.0347	302.5429	348.2116	408.7492	482.6596	499.0584	551.3178	679.4363	759.9953	812.1383	846.9899	889.9337	922.7374	959.5842	979.012	983.2571	1027.0892	1047.7368	1056.7782	1082.6258	1084.7135	1123.1756	1169.7017	1210.5177	1223.6334	1274.2774	1303.483	1354.0487	1381.6612	1410.7261	1431.4278	1472.6856	1479.3766	1495.8959	1502.0766	2982.8318	3044.0858	3068.2171	3114.9924	3121.226	3134.6299	3180.4336	3196.2618	3211.3539	3771.8447
CC1(CO)OC2CC12	C[C@@]1(CO)O[C@H]2C[C@@H]12	
InChI=1S/C6H10O2/c1-6(3-7)4-2-5(4)8-6/h4-5,7H,2-3H2,1H3	InChI=1S/C6H10O2/c1-6(3-7)4-2-5(4)8-6/h4-5,7H,2-3H2,1H3/t4-,5+,6+/m1/s1
