21
gdb 57909	2.96741	1.11346	0.94487	1.5637	78.64	-0.2318	-0.0178	0.214	1342.2404	0.180425	-424.229144	-424.219023	-424.218079	-424.265596	35.68	
C	-1.2002602034	 1.1331565399	-0.0467791939	-0.394061
C	-0.1092040003	 0.0579512792	 0.1516160498	-0.058681
C	 1.1154703072	 0.6208842934	 0.8801911572	-0.388728
C	-0.7184709181	-1.1046216989	 0.930158069	 0.346342
O	-0.7257226799	-1.1565078764	 2.1398862627	-0.32029
C	-1.3257108807	-2.2462064301	 0.1210611131	 0.055737
C	-2.6435791849	-2.8601576761	 0.628817793	-0.286336
C	-3.196217994	-2.4434770116	-0.7495242328	-0.063849
O	-1.9356608684	-1.8333410614	-1.1241771174	-0.290499
H	-0.7936623132	 1.9789217082	-0.6099189837	 0.117483
H	-2.050402144	 0.7288240579	-0.6003689823	 0.133805
H	-1.5513636881	 1.5054057017	 0.9211474206	 0.126276
H	 0.1750014386	-0.3115931489	-0.8407475444	 0.093713
H	 1.5164627494	 1.4847095186	 0.3413506199	 0.109095
H	 0.8455002788	 0.933617338	 1.8920240183	 0.136336
H	 1.9104236016	-0.1265224097	 0.9647756675	 0.113759
H	-0.5192718164	-2.9757587725	-0.0578568734	 0.102039
H	-2.6224014284	-3.9310229807	 0.8301248437	 0.117088
H	-3.0638842154	-2.3386880905	 1.4890022551	 0.131118
H	-3.4535919315	-3.2702577339	-1.42141476	 0.108526
H	-4.0146141988	-1.7150363562	-0.7483185621	 0.111129
32.7131	54.3301	77.8742	162.9086	189.8506	216.3181	244.3955	285.94	305.5602	338.5438	468.0882	535.2798	694.2214	766.307	805.7759	828.0972	878.6615	931.3208	945.9342	953.7004	973.2147	1019.2741	1040.7333	1058.3989	1106.9583	1127.2128	1138.7481	1165.9416	1199.5214	1208.8416	1254.2213	1258.3265	1320.7279	1347.0103	1353.3791	1376.6886	1391.9567	1412.6579	1485.2043	1490.5309	1496.4637	1499.5607	1514.5509	1529.2727	1801.3142	2974.5362	3027.3548	3036.8901	3041.2322	3042.63	3070.4543	3095.3085	3106.3547	3107.7659	3125.8694	3131.5926	3151.0893
CC(C)C(=O)C1CCO1	CC(C)C(=O)[C@H]1CCO1	
InChI=1S/C7H12O2/c1-5(2)7(8)6-3-4-9-6/h5-6H,3-4H2,1-2H3	InChI=1S/C7H12O2/c1-5(2)7(8)6-3-4-9-6/h5-6H,3-4H2,1-2H3/t6-/m1/s1
