20
gdb 57506	2.98676	1.02669	0.92209	0.7198	84.66	-0.2601	-0.0243	0.2359	1373.1869	0.166819	-403.130581	-403.12011	-403.119165	-403.165601	39.003	
C	-0.1276137931	 1.5726933783	 0.1082884187	-0.415557
C	 0.028719911	 0.049249256	 0.0773731463	 0.367943
C	 0.6537215006	-0.4982207762	 1.3642046462	-0.415561
C	-1.3178877987	-0.6248908245	-0.1964769267	-0.399514
O	 0.8217932196	-0.3597453864	-1.0904482146	-0.284798
C	 2.0959590062	 0.0097767935	-1.2743572024	 0.24141
N	 2.7674502492	 0.7460324838	-0.4785709019	-0.533174
C	 2.6120141182	-0.5412952779	-2.5037933446	 0.289631
C	 3.0926332844	-0.9745775474	-3.51711114	-0.412083
H	 0.8249862054	 2.0638170505	 0.3041202646	 0.153031
H	-0.5248166479	 1.9331485571	-0.8454988861	 0.116072
H	-0.8364762668	 1.8463083152	 0.896198026	 0.112029
H	-0.0234667197	-0.3082029335	 2.2029323571	 0.112045
H	 0.8003967695	-1.5797061221	 1.2849379326	 0.116076
H	 1.6128624923	-0.0243537858	 1.5703481329	 0.153012
H	-1.7436186581	-0.2670726232	-1.1379417267	 0.121566
H	-1.1992415417	-1.7098436773	-0.2630784927	 0.121567
H	-2.0208917626	-0.4006695337	 0.6107325519	 0.115314
H	 3.7082756035	 0.8811372704	-0.8413302832	 0.232608
H	 3.5133550286	-1.3593866469	-4.4136279475	 0.208385
60.6021	117.1956	133.895	195.6395	235.1601	244.0816	258.4343	278.864	323.609	352.9645	367.654	415.4645	457.971	538.8745	597.4509	655.3612	661.5977	733.6219	761.097	839.4282	849.9242	920.0799	925.493	935.1673	967.0477	1050.6817	1057.2276	1122.929	1208.8197	1264.283	1277.4725	1383.819	1394.8724	1402.7831	1425.7985	1466.1452	1488.4856	1489.0424	1492.9762	1502.3304	1525.74	1673.9201	2233.0527	3042.4951	3043.0421	3050.2503	3107.4821	3109.6357	3121.5228	3124.3905	3157.2028	3160.0925	3500.4095	3521.345
CC(C)(C)OC(=N)C#C	CC(C)(C)O[C]([NH])C#C	
InChI=1S/C7H11NO/c1-5-6(8)9-7(2,3)4/h1,8H,2-4H3	InChI=1S/C7H11NO/c1-5-6(8)9-7(2,3)4/h1,8H,2-4H3
