21
gdb 76756	2.34897	1.59653	1.3596	2.4173	77.58	-0.2431	0.0614	0.3045	1084.584	0.182075	-424.202656	-424.193741	-424.192797	-424.235917	34.603	
C	-0.7117184773	 1.2540906145	-0.1410193529	-0.406429
C	-0.0312513427	-0.0975283353	 0.0132593032	-0.022172
C	 1.2355739135	-0.3907440345	-0.8808360991	 0.07675
O	 1.792475576	 0.6708894472	-1.603786996	-0.435338
C	 2.0325604954	-0.7727867652	 0.4057766419	 0.414361
C	 2.8761973195	-2.0160156212	 0.4485941368	-0.492216
O	 2.741538503	 0.4120481331	 0.8761249173	-0.340657
C	 1.6813084476	 0.7201614383	 1.822998822	-0.097615
C	 0.7974859671	-0.4162021628	 1.293826457	-0.151325
H	 0.0092989786	 2.0759594646	-0.1385541559	 0.118645
H	-1.2459300892	 1.3063253699	-1.0947553931	 0.123638
H	-1.4361093217	 1.4283523456	 0.6621297665	 0.108896
H	-0.7685633858	-0.8935540167	-0.1355785813	 0.070898
H	 1.0824930967	-1.2243443948	-1.5740565566	 0.075612
H	 2.356020867	 1.1395611924	-0.9681545608	 0.288432
H	 3.7246175787	-1.9166205819	-0.2378535362	 0.135938
H	 3.2688377976	-2.19574988	 1.454019109	 0.122874
H	 2.2913033763	-2.8886671683	 0.139948273	 0.120545
H	 2.0324768776	 0.5766191143	 2.8519144255	 0.107229
H	 1.3144588042	 1.7461490274	 1.7139006545	 0.107907
H	 0.3586681977	-1.0912609466	 2.0281401752	 0.074026
65.8944	189.1113	210.2956	220.9211	229.8825	270.6831	284.0407	327.7454	473.2995	511.3177	543.4839	568.2252	667.5837	674.3415	754.1469	840.5077	855.7261	906.1751	917.1572	966.1615	990.1277	1002.2172	1022.8612	1107.2225	1111.5095	1139.2178	1150.7127	1161.2535	1178.328	1195.9308	1203.3444	1253.1937	1313.1623	1316.8349	1334.6098	1345.4884	1370.6305	1408.3943	1414.282	1449.2623	1479.7803	1486.7691	1490.299	1498.9973	1529.4665	3024.3193	3031.0426	3035.8906	3039.3424	3057.1265	3074.3769	3101.2739	3101.4644	3109.6246	3111.0078	3115.5287	3690.1337
CC1C(O)C2(C)OCC12	C[C@H]1[C@@H](O)[C@@]2(C)OC[C@@H]12	
InChI=1S/C7H12O2/c1-4-5-3-9-7(5,2)6(4)8/h4-6,8H,3H2,1-2H3	InChI=1S/C7H12O2/c1-4-5-3-9-7(5,2)6(4)8/h4-6,8H,3H2,1-2H3/t4-,5+,6-,7+/m1/s1
