20
gdb 110946	1.95684	1.79328	1.15358	3.3016	73.64	-0.231	0.0414	0.2724	1115.4154	0.172068	-440.214704	-440.205989	-440.205045	-440.248049	33.333	
O	 0.0974436306	 0.2012234955	-1.5917635604	-0.429765
C	-0.5239958886	 0.1496930559	-0.3236486225	-0.101255
C	-1.6493431758	-0.8702148389	-0.3030847553	-0.00369
C	-1.5008545325	-2.3391399559	-0.3503361963	-0.072932
C	-0.3441747234	-2.9047485759	 0.4819522394	-0.04476
C	 1.1050701709	-2.6840745218	 0.0101357192	-0.110269
O	 1.2199248089	-2.479387516	-1.4001596546	-0.40076
C	-0.9402551259	-2.0942670637	 1.6673757341	-0.187883
N	-2.1336178801	-1.6485138918	 0.8595671712	-0.161462
H	 0.4928161914	-0.6709619474	-1.7465330088	 0.2946
H	 0.2034545014	-0.0316086383	 0.4789554049	 0.078348
H	-0.9444029718	 1.1447928934	-0.1417824398	 0.109481
H	-2.5091915355	-0.5309250383	-0.8785952385	 0.103431
H	-2.104142352	-2.9414880207	-1.0241819555	 0.092755
H	-0.5121560669	-3.9721939617	 0.650803011	 0.087904
H	 1.5297194727	-1.781594746	 0.4571055678	 0.12642
H	 1.7405198004	-3.5246594091	 0.3209155952	 0.103351
H	 0.8219311597	-3.2298478335	-1.8534622179	 0.292769
H	-1.2850019648	-2.7175581099	 2.4941028427	 0.115114
H	-0.3284942889	-1.2838317157	 2.0747266143	 0.108602
79.0043	146.6999	165.203	194.6456	266.4967	274.1419	319.2265	398.2406	463.9128	487.5246	613.	653.7986	698.8747	754.3319	773.477	854.9871	905.8546	935.8572	981.5164	997.3275	1012.2785	1046.0681	1075.0039	1079.2005	1088.924	1120.3791	1144.729	1176.4857	1225.2704	1233.8967	1251.1615	1260.4183	1297.271	1348.6276	1372.2432	1374.1763	1392.7177	1422.5705	1453.1203	1472.3809	1501.6046	1505.2361	1527.7247	3008.2252	3009.935	3056.6061	3060.1116	3064.7114	3097.2429	3115.472	3123.9122	3144.0356	3686.4428	3816.9963
OCC1C2C(CO)CN12	OC[C@H]1[C@H]2[C@@H](CO)CN12	
InChI=1S/C6H11NO2/c8-2-4-1-7-5(3-9)6(4)7/h4-6,8-9H,1-3H2	InChI=1S/C6H11NO2/c8-2-4-1-7-5(3-9)6(4)7/h4-6,8-9H,1-3H2/t4-,5+,6-,7?/m1/s1
