17
gdb 126120	4.52613	0.96855	0.80569	1.5993	76.2	-0.2426	-0.0325	0.2101	1385.3868	0.137162	-418.056733	-418.048216	-418.047272	-418.090835	30.503	
C	 0.0485106251	 1.5546471382	 0.0101467764	-0.380855
C	-0.0403447181	 0.0309616873	 0.0032360932	-0.291182
C	-1.4730429109	-0.4893417865	 0.0120263292	 0.279133
O	-2.4288212235	 0.2639841486	 0.0233673322	-0.335331
C	-1.6569378363	-1.9511854658	 0.0059902186	 0.133547
C	-2.8844079837	-2.599395975	 0.0123593782	-0.091364
N	-2.6183379938	-3.9167937934	 0.0035442809	-0.177648
N	-1.2943437235	-4.2012767277	-0.0083240766	-0.221416
C	-0.7114725077	-3.0107890842	-0.0069268286	-0.096628
H	 1.0923777201	 1.8805882999	 0.0034182799	 0.106736
H	-0.4535726998	 1.9781429861	-0.8632497612	 0.131169
H	-0.4394852082	 1.9693470268	 0.8956646134	 0.131167
H	 0.4664592424	-0.391013159	-0.875513726	 0.122719
H	 0.4803037742	-0.3997289915	 0.8695775889	 0.122716
H	-3.8853987317	-2.2000471312	 0.0223027728	 0.164686
H	-3.2761553423	-4.6787612319	 0.0048437072	 0.282588
H	 0.3667784976	-2.9488482108	-0.0151367185	 0.11996
56.3694	78.8732	141.5849	169.3894	213.2975	281.0464	363.3912	493.4005	543.6556	578.0829	673.2101	696.7965	708.913	812.0345	851.463	904.1185	928.3101	949.7977	1003.946	1026.1929	1068.3161	1088.9484	1123.708	1164.1197	1234.6714	1277.5794	1325.097	1365.2238	1393.3504	1412.3481	1428.3884	1456.3232	1490.4495	1494.6103	1497.3674	1586.4039	1764.922	3017.6725	3046.0935	3051.5013	3122.3014	3128.1778	3249.4632	3278.5011	3667.6385
CCC(=O)C1=CNN=C1	CCC(=O)c1c[nH]nc1	
InChI=1S/C6H8N2O/c1-2-6(9)5-3-7-8-4-5/h3-4H,2H2,1H3,(H,7,8)	InChI=1S/C6H8N2O/c1-2-6(9)5-3-7-8-4-5/h3-4H,2H2,1H3,(H,7,8)
