13
gdb 11090	8.94707	1.07578	1.03	4.2337	65.6	-0.2812	-0.0207	0.2605	1075.0305	0.094406	-361.411687	-361.404152	-361.403208	-361.444323	26.612	
C	-0.4341499678	-1.1160519984	-0.511848085	-0.440373
C	-0.1096842252	 0.0007462999	-0.2094082969	 0.327118
C	 0.2627245026	 1.3514905454	 0.1615651935	-0.028602
C	-0.1339241079	 1.8393122226	 1.5820103192	-0.310319
C	 1.3904984711	 2.0188474098	 1.7915697122	 0.006173
O	 1.6800372484	 1.493687795	 0.4826979726	-0.278826
C	 1.8545715096	 3.3994142444	 1.9615630193	 0.275027
N	 2.2068236179	 4.4903548102	 2.1068914224	-0.312929
H	-0.7161035176	-2.103143907	-0.7858711578	 0.212608
H	-0.0126614124	 2.0526619254	-0.6349488177	 0.126469
H	-0.7279580681	 2.7510259742	 1.6152174568	 0.144857
H	-0.5795996481	 1.0726786347	 2.2133845489	 0.141469
H	 1.8314992875	 1.3992082737	 2.5801776225	 0.137327
36.0407	118.2503	191.9879	224.0097	266.7951	461.3464	493.528	547.6775	608.1242	632.2857	685.5486	746.9471	780.0072	902.6868	952.8984	1002.638	1011.9768	1056.9154	1094.7968	1150.4267	1246.0334	1258.1166	1283.8671	1351.4099	1378.7429	1487.4793	2238.9513	2356.7108	3038.0289	3050.5937	3109.2425	3174.9624	3500.2133
C#CC1CC(O1)C#N	C#C[C@H]1C[C@@H](O1)C#N	
InChI=1S/C6H5NO/c1-2-5-3-6(4-7)8-5/h1,5-6H,3H2	InChI=1S/C6H5NO/c1-2-5-3-6(4-7)8-5/h1,5-6H,3H2/t5-,6+/m0/s1
