15
gdb 27951	3.61401	1.20736	0.91011	3.3627	77.65	-0.2515	-0.0841	0.1674	1217.3479	0.113036	-416.87366	-416.865699	-416.864755	-416.907039	28.23	
C	-0.0029533794	 1.4945150759	-0.0313342871	-0.476251
C	-0.0131398543	-0.0082151046	 0.0058014378	 0.303596
N	 0.0738822885	-0.6629293363	-1.1553497776	-0.345222
C	 0.0635008959	-1.998707604	-1.1052249452	 0.190588
C	 0.1613776965	-2.7116509752	-2.4097986898	 0.103671
O	 0.1643473291	-3.913463121	-2.5231376599	-0.250634
C	-0.0336465827	-2.695314863	 0.1018397451	-0.037243
N	-0.1210759396	-2.0557509476	 1.2672748091	-0.239796
C	-0.110047963	-0.7235364437	 1.2085475693	-0.039219
H	 0.9179461708	 1.8578081916	-0.497889552	 0.149989
H	-0.8371462741	 1.8663299112	-0.6343131335	 0.149989
H	-0.0788175004	 1.9213961612	 0.9713689627	 0.129662
H	 0.2322450075	-2.025412448	-3.2792159253	 0.093853
H	-0.0394727478	-3.7804496684	 0.1090229508	 0.145747
H	-0.1810307871	-0.1933268579	 2.1553698056	 0.121269
50.2085	108.8055	187.6501	190.1798	245.1965	336.9441	456.6635	474.2179	529.7673	564.4646	653.3876	772.6646	774.4791	916.8661	950.6045	990.5279	1016.8761	1044.1309	1047.922	1063.4598	1193.3955	1244.7481	1274.2861	1295.394	1384.7599	1411.7352	1434.6547	1471.8954	1475.5051	1495.6314	1579.2831	1612.2039	1808.8683	2926.6013	3044.9857	3107.1505	3130.197	3158.8296	3191.9764
CC1=NC(C=O)=CN=C1	Cc1nc(C=O)cnc1	
InChI=1S/C6H6N2O/c1-5-2-7-3-6(4-9)8-5/h2-4H,1H3	InChI=1S/C6H6N2O/c1-5-2-7-3-6(4-9)8-5/h2-4H,1H3
