20
gdb 11476	3.22683	1.70054	1.3959	0.6383	70.79	-0.2553	0.0844	0.3397	991.3836	0.177226	-386.153955	-386.145402	-386.144458	-386.187296	31.312	
C	-0.3000463088	 1.3405241394	 0.5072933654	-0.2422
O	-0.2945205621	-0.0723187226	 0.5904105066	-0.241855
C	-1.3551937777	-0.6790294328	-0.1095509554	 0.231027
C	-1.182910806	-2.2061799841	 0.0017788253	-0.271278
C	-2.4753031714	-2.685449347	 0.6926684271	-0.220058
C	-3.0271271579	-1.4020550078	 1.3397148484	 0.116753
C	-2.524924724	-1.1515467771	 2.7623185431	-0.395687
O	-2.6189511042	-0.3619986172	 0.4373489493	-0.264747
H	 0.568930565	 1.6983530741	 1.0640974878	 0.122483
H	-0.2183755094	 1.6794860406	-0.5371573156	 0.102763
H	-1.2124686552	 1.7655153399	 0.9412875528	 0.123832
H	-1.3672973797	-0.2983129412	-1.1418243124	 0.066325
H	-1.0396831494	-2.665512782	-0.9781616439	 0.107554
H	-0.2919912688	-2.4085589082	 0.5995025477	 0.123707
H	-3.188631116	-3.0631681025	-0.0453830356	 0.104318
H	-2.2967895477	-3.4796853993	 1.4216378641	 0.103106
H	-4.121890889	-1.3867731231	 1.3353635987	 0.076446
H	-1.4326237714	-1.1708671939	 2.8039276142	 0.1315
H	-2.8605184031	-0.1711325505	 3.1124980527	 0.119341
H	-2.9177047532	-1.9126956344	 3.4452348997	 0.106672
55.6849	123.255	137.3988	188.3321	242.3306	274.6089	341.1233	404.7756	437.7133	554.1661	677.1387	753.1735	792.9139	854.168	865.2224	906.41	956.6408	993.459	1022.8992	1044.7042	1081.9771	1114.0101	1124.4004	1148.1255	1181.7674	1204.2737	1231.9334	1243.8003	1297.0199	1326.5354	1336.7432	1374.24	1391.4981	1400.2221	1406.8047	1474.2213	1480.9195	1482.8267	1490.788	1499.5303	1503.7012	1514.6233	2984.6518	2993.031	3036.9633	3047.858	3062.6249	3063.0394	3080.5232	3103.2339	3109.0698	3121.8055	3124.5203	3129.6551
COC1CCC(C)O1	CO[C@H]1CC[C@@H](C)O1	
InChI=1S/C6H12O2/c1-5-3-4-6(7-2)8-5/h5-6H,3-4H2,1-2H3	InChI=1S/C6H12O2/c1-5-3-4-6(7-2)8-5/h5-6H,3-4H2,1-2H3/t5-,6-/m1/s1
