15
gdb 78741	4.91744	1.14386	1.06383	3.8924	67.08	-0.2449	-0.0295	0.2154	1098.0127	0.111109	-457.687682	-457.680229	-457.679285	-457.719665	28.351	
O	-0.0000792737	 1.3062207036	 0.1201041759	-0.430403
C	 0.0105927095	-0.0950847438	-0.0208343873	 0.123165
C	-1.421862023	-0.5995632734	-0.1463030118	-0.177438
C	-1.3957191397	-0.4593380203	-1.6482531088	-0.171366
C	 0.1655282876	-0.5798018606	-1.4975103569	 0.004023
O	 0.0945637875	-2.025539774	-1.3799865889	-0.309385
C	-1.2806797536	-1.8480345335	-1.0731134721	 0.387533
C	-2.2508250299	-2.946409868	-1.0697874022	 0.049171
O	-1.9837761404	-4.1068131018	-1.2547053038	-0.259675
H	 0.9132575051	 1.6111718823	 0.116768205	 0.290764
H	 0.6699460716	-0.586719537	 0.7061850359	 0.085296
H	-2.2481253188	-0.4706475573	 0.5402572238	 0.113927
H	-2.0736546993	-0.0312097398	-2.372564429	 0.120095
H	 0.9429162253	-0.218651087	-2.1677302051	 0.097286
H	-3.2918755983	-2.5982009094	-0.8749305048	 0.077007
97.873	157.7075	232.3554	286.3315	306.3722	332.9455	424.8881	519.3747	589.6609	714.1661	768.5586	795.6096	831.6258	865.5288	903.2081	933.1856	947.9179	977.3029	1029.4315	1036.0862	1044.0093	1108.7076	1120.6664	1146.1755	1185.5089	1221.6584	1247.8168	1290.948	1311.869	1367.0592	1429.0148	1446.1222	1818.5166	2862.0292	3025.7142	3148.7387	3209.9168	3223.5848	3813.1332
OC1C2C3C1OC23C=O	O[C@H]1[C@H]2[C@H]3[C@@H]1O[C@@]23C=O	
InChI=1S/C6H6O3/c7-1-6-2-3(6)5(9-6)4(2)8/h1-5,8H	InChI=1S/C6H6O3/c7-1-6-2-3(6)5(9-6)4(2)8/h1-5,8H/t2-,3+,4+,5+,6+/m1/s1
