20
gdb 8945	4.10332	0.9921	0.9514	2.2771	67.16	-0.2551	0.0605	0.3156	1284.4674	0.175025	-423.264267	-423.254241	-423.253296	-423.299134	36.012	
C	-0.0368560413	 1.6163001514	-0.0941436246	-0.420135
C	 0.012859598	 0.0830804812	-0.0043350119	 0.014073
C	 0.7192258555	-0.5112599078	-1.2266101331	-0.07998
O	 0.0120747287	-0.1090026102	-2.3912144786	-0.425288
C	 0.6633510624	-0.4497863982	 1.284087271	 0.088628
O	 2.0202745357	-0.0107745897	 1.4492499795	-0.448828
C	-0.1125240949	-0.1476495598	 2.5692110629	-0.076302
O	 0.5499185618	-0.6987764056	 3.688205826	-0.42523
H	 0.9687200872	 2.0553170598	-0.0612843416	 0.102127
H	-0.4788918677	 1.9106070924	-1.0475197706	 0.146649
H	-0.6288547794	 2.0594240111	 0.7110274156	 0.118537
H	-1.0193321844	-0.293251509	-0.018742646	 0.088699
H	 1.7630277471	-0.1641347514	-1.2479851638	 0.096199
H	 0.7392237178	-1.6091577473	-1.1378643143	 0.086013
H	 0.5084736712	-0.400965541	-3.1608052797	 0.28817
H	 0.7502918853	-1.5408039642	 1.2103968302	 0.093957
H	 2.0160623891	 0.9536183018	 1.4570876499	 0.284552
H	-0.2426007025	 0.9428353555	 2.6827953386	 0.077083
H	-1.1124532132	-0.5933382598	 2.5230772863	 0.107024
H	 1.4891554836	-0.5335262091	 3.5326804244	 0.284052
61.2792	91.7151	130.5897	170.9883	224.9738	242.5892	271.8162	302.5589	316.6652	346.6085	361.0895	471.0418	509.1178	527.9197	665.5718	826.6395	872.7618	925.3833	962.9977	1001.6018	1039.3831	1079.7545	1094.838	1110.6825	1123.7365	1175.731	1206.6134	1238.9022	1269.1972	1289.4168	1301.4633	1344.0109	1374.8998	1393.0465	1404.5086	1430.0563	1444.4107	1458.0823	1491.2131	1509.6102	1515.5367	1523.5091	2952.9827	2971.0202	3005.3022	3022.0553	3030.1908	3042.3087	3067.5089	3100.1338	3138.675	3764.8225	3792.9659	3836.5053
CC(CO)C(O)CO	C[C@@H](CO)[C@@H](O)CO	
InChI=1S/C5H12O3/c1-4(2-6)5(8)3-7/h4-8H,2-3H2,1H3	InChI=1S/C5H12O3/c1-4(2-6)5(8)3-7/h4-8H,2-3H2,1H3/t4-,5-/m0/s1
