21
gdb 15197	8.76912	0.63131	0.6165	1.0683	76.43	-0.2307	0.0803	0.311	1814.2462	0.187789	-366.224596	-366.215047	-366.214103	-366.259891	33.605	
O	-0.0157165445	 1.399325122	 0.0761075566	-0.422051
C	 0.0095703505	-0.0180329361	 0.1600040254	-0.073465
C	-1.4050228774	-0.5293584843	-0.0774343988	-0.165435
C	-1.5061811848	-2.0547765227	-0.0011297631	-0.184106
C	-2.9250179985	-2.565655748	-0.2513487815	-0.140417
N	-2.9738123545	-4.0230564135	-0.1955815533	-0.059635
C	-3.2324290786	-4.6091155748	 1.115800671	-0.21921
C	-4.2803167172	-4.6171272406	 0.0579824866	-0.220446
H	 0.8782547902	 1.7246340754	 0.2154207402	 0.284571
H	 0.6913425143	-0.4500635797	-0.5909951518	 0.084494
H	 0.3641981718	-0.3522411707	 1.1492903549	 0.08247
H	-2.0683908019	-0.0654252019	 0.6631691404	 0.1035
H	-1.7402538392	-0.1743721382	-1.059990393	 0.104906
H	-0.8355605232	-2.5191074296	-0.7343111228	 0.106868
H	-1.1715344665	-2.4014562901	 0.9857848055	 0.095722
H	-3.6214469056	-2.1028783885	 0.4738994793	 0.075849
H	-3.258809658	-2.2589307687	-1.2506599155	 0.102338
H	-2.676689152	-5.5117788706	 1.3530557415	 0.114973
H	-3.3833712003	-3.9321641712	 1.9561251953	 0.106579
H	-5.1284922054	-3.9477885176	 0.1961918138	 0.107319
H	-4.503804409	-5.5256475203	-0.4942060609	 0.115178
56.0933	69.2287	102.4982	128.1739	148.3801	247.8087	264.388	297.1419	396.9383	418.6198	519.9879	751.0571	769.9529	807.8593	842.4957	899.6349	945.7848	992.4578	1022.8907	1039.591	1053.6806	1067.1941	1095.76	1112.8084	1116.3167	1152.4793	1174.9229	1194.3286	1230.7302	1233.6322	1291.4135	1295.645	1315.4339	1319.5162	1327.9345	1369.2717	1409.9817	1463.4338	1484.9659	1491.1109	1494.9945	1508.0546	1523.2216	1529.9381	2919.7849	2957.5057	2982.3178	3017.512	3028.1166	3039.9071	3054.6638	3078.3599	3089.0195	3094.2014	3173.1471	3187.4771	3830.2621
OCCCCN1CC1	OCCCCN1CC1	
InChI=1S/C6H13NO/c8-6-2-1-3-7-4-5-7/h8H,1-6H2	InChI=1S/C6H13NO/c8-6-2-1-3-7-4-5-7/h8H,1-6H2
