17
gdb 83197	2.97305	1.47153	1.27953	3.8834	69.74	-0.2288	0.022	0.2508	1023.4313	0.138114	-455.116447	-455.108931	-455.107987	-455.148693	29.49	
O	 0.2635757105	 1.1748219131	 0.4016032353	-0.420959
C	 0.0901723061	-0.1577228621	 0.0844116051	 0.100525
C	-1.3380296557	-0.6753127513	-0.0257290756	-0.139154
N	-2.3361506702	 0.3608968367	 0.0513556082	-0.323875
C	-3.0341473283	 0.5249742156	-1.2273548484	-0.252498
C	-2.046071747	 0.9691878132	-2.283037629	 0.422228
N	-2.3781038973	 1.7830875983	-3.1901667556	-0.516217
O	-0.7802682787	 0.4628278608	-2.1936382279	-0.234423
C	-0.4812479487	-0.5509168613	-1.2646163111	 0.044028
H	-0.6350538868	 1.5444866056	 0.4485601907	 0.287023
H	 0.8528947662	-0.8027217076	 0.5097774064	 0.106457
H	-1.6010851545	-1.6717971197	 0.3252300454	 0.092656
H	-2.9806625928	 0.2096670987	 0.8158825577	 0.242329
H	-3.5239033857	-0.404385939	-1.5641557078	 0.114074
H	-3.7975584897	 1.2993176552	-1.1489890487	 0.144522
H	-1.592502355	 1.9471088419	-3.8233846626	 0.223886
H	-0.1227653024	-1.4529964182	-1.7507448623	 0.109397
64.0597	160.9574	205.3567	314.8624	390.666	437.0316	478.1689	543.4361	583.213	629.4517	647.1845	695.7098	738.3258	791.0573	812.1482	894.2066	918.6113	955.1292	998.9923	1037.5953	1062.2882	1070.8749	1112.0574	1115.4833	1166.7269	1171.1885	1240.8084	1255.8982	1297.4281	1316.7853	1345.6688	1381.4732	1413.4412	1448.1936	1484.1434	1489.828	1763.9582	2962.188	3107.6677	3131.4049	3150.4576	3163.0171	3465.4131	3570.3731	3642.0986
OC1C2NCC(=N)OC12	O[C@H]1[C@H]2NC[C]([NH])O[C@@H]12	
InChI=1S/C5H8N2O2/c6-2-1-7-3-4(8)5(3)9-2/h3-8H,1H2	InChI=1S/C5H8N2O2/c6-2-1-7-3-4(8)5(3)9-2/h3-8H,1H2/t3-,4+,5-/m1/s1
