22
gdb 119928	2.38569	0.99388	0.86757	1.0349	89.69	-0.2206	0.0368	0.2574	1493.2131	0.191361	-367.15537	-367.144771	-367.143827	-367.191249	38.731	
C	-0.2379618559	 1.5391124303	 1.1876182319	-0.380979
C	-0.5261485435	 0.0357872474	 1.1738484743	-0.16981
C	-1.2442486547	-0.4088009342	-0.1018220965	-0.118217
N	-1.428680184	-1.8585724946	-0.1001186909	-0.109263
C	-2.6567052596	-2.4586627994	 0.4084041889	 0.005028
C	-3.8174890301	-1.6730175128	 0.976405449	-0.425257
C	-2.3550670238	-2.4728546267	-1.0702292094	-0.220217
C	-3.1284314562	-1.6751414172	-1.9819593641	 0.357252
C	-3.756082602	-1.023720455	-2.7760688232	-0.479749
H	 0.2750653631	 1.8356871573	 2.1073559019	 0.113588
H	 0.3982537984	 1.829117929	 0.3439684556	 0.115921
H	-1.1621865267	 2.1237957126	 1.1193477606	 0.114151
H	 0.4061565226	-0.5324883317	 1.2665069383	 0.107773
H	-1.1369984639	-0.2324686257	 2.0450892332	 0.096676
H	-2.1809301036	 0.1546627116	-0.2205527956	 0.095258
H	-0.627036816	-0.1670383606	-0.9756311383	 0.105684
H	-2.470360083	-3.3968709564	 0.931012865	 0.093967
H	-4.1016757813	-0.8289017635	 0.3461979041	 0.138689
H	-4.6906005617	-2.327881511	 1.0635523391	 0.125932
H	-3.5829992918	-1.2996995509	 1.9790456472	 0.1241
H	-1.9733348026	-3.393897384	-1.5075102566	 0.111309
H	-4.3119410637	-0.4509225347	-3.4764489446	 0.198164
73.8022	83.5428	90.0666	142.8496	162.3369	209.861	236.6465	270.943	339.6541	357.7788	378.0472	497.8487	586.0484	596.9939	622.8502	658.2907	748.2191	752.8444	783.9578	861.8374	894.5801	914.3469	979.7297	1038.245	1043.2729	1053.411	1117.6972	1137.9505	1147.6862	1170.1749	1194.2719	1273.3952	1319.1508	1327.6107	1335.0563	1361.5971	1393.1233	1410.0832	1415.2054	1419.7552	1484.6451	1491.9529	1495.8514	1500.2292	1504.3389	1517.5232	2227.0322	2999.424	3028.1188	3030.6165	3040.9043	3048.4986	3069.9624	3097.1148	3098.4593	3099.5387	3104.8389	3115.1152	3139.857	3503.0059
CCCN1C(C)C1C#C	CCCN1[C@@H](C)[C@H]1C#C	
InChI=1S/C8H13N/c1-4-6-9-7(3)8(9)5-2/h2,7-8H,4,6H2,1,3H3	InChI=1S/C8H13N/c1-4-6-9-7(3)8(9)5-2/h2,7-8H,4,6H2,1,3H3/t7-,8+,9?/m0/s1
