21
gdb 93886	1.90422	1.6986	1.03099	2.3827	78.71	-0.2422	-0.0241	0.2181	1220.698	0.18129	-424.246716	-424.237052	-424.236107	-424.281661	35.058	
C	-0.7012003614	 1.3045135328	 0.0201514278	-0.422864
C	 0.077446259	-0.0114306872	 0.0092813351	-0.017092
C	 1.1726861802	-0.1017415005	-1.0834982206	-0.08062
O	 2.2967044132	-0.7618762358	-0.5062388745	-0.269452
C	 1.9043638138	-1.351733647	 0.7306782786	 0.122828
C	 3.1440575581	-1.6299340439	 1.5658515545	-0.413928
C	 0.8621471901	-0.3652481174	 1.3055148915	-0.121612
C	 1.5186136097	 0.8472419101	 1.9266898145	 0.165139
O	 1.2502590525	 1.2813310043	 3.0191474208	-0.26538
H	-0.0401912403	 2.1674426705	 0.1526952518	 0.126537
H	-1.2391395527	 1.4421268953	-0.9235150047	 0.120235
H	-1.4372688779	 1.3222273185	 0.8295268332	 0.131307
H	-0.6346088161	-0.8296882604	-0.1477486956	 0.089302
H	 0.8137591254	-0.6543428621	-1.9623863846	 0.1
H	 1.4984022654	 0.889931685	-1.4213668238	 0.104229
H	 1.3828806783	-2.3063104052	 0.5408001497	 0.070108
H	 3.7037068863	-0.7136205676	 1.7725701253	 0.129271
H	 2.8652188904	-2.0899882654	 2.5184803694	 0.124981
H	 3.8064150343	-2.3166153008	 1.0320578433	 0.131023
H	 0.218540925	-0.822037907	 2.0614482949	 0.088688
H	 2.2896272067	 1.3391123139	 1.2919619135	 0.0873
66.854	70.1214	115.3228	191.3706	212.354	235.3201	274.8156	288.5664	361.1633	430.5447	461.0089	497.4462	643.9061	664.6904	815.1351	860.9985	910.2708	935.0729	959.1532	973.1072	1023.6633	1050.0325	1061.9276	1097.7065	1135.7408	1156.5895	1174.9914	1179.2293	1220.3982	1252.2806	1286.6556	1319.1329	1354.8173	1366.8681	1392.8159	1399.4132	1417.0936	1418.8724	1434.6436	1482.6739	1495.1547	1501.3687	1502.2585	1528.6687	1824.8727	2877.1589	2941.3977	3005.3173	3028.8848	3035.617	3047.1737	3050.3362	3088.9651	3102.5397	3109.8592	3121.7837	3123.0957
CC1COC(C)C1C=O	C[C@H]1CO[C@@H](C)[C@H]1C=O	
InChI=1S/C7H12O2/c1-5-4-9-6(2)7(5)3-8/h3,5-7H,4H2,1-2H3	InChI=1S/C7H12O2/c1-5-4-9-6(2)7(5)3-8/h3,5-7H,4H2,1-2H3/t5-,6-,7-/m0/s1
