21
gdb 123075	7.12353	0.40722	0.38989	2.0161	86.43	-0.2421	0.0418	0.2839	2754.5158	0.178633	-424.182377	-424.170541	-424.169597	-424.222696	38.696	
C	-0.0487201844	 1.4659431738	 0.0108216083	-0.498704
C	-0.0477989075	 0.010627342	 0.0027385628	 0.137486
C	-0.0527275145	-1.1924602821	-0.0038584665	 0.000022
C	-0.0304653324	-2.6485157798	-0.0121670017	-0.207377
O	-1.3504723718	-3.159823717	-0.0019263991	-0.244384
C	-1.3807034809	-4.5717973628	-0.0093108892	-0.040522
C	-2.8349972421	-5.0192240196	 0.0024875498	-0.184462
C	-2.9822164703	-6.5351074766	-0.0041744722	-0.072335
O	-4.3695426934	-6.8333408785	 0.0077814227	-0.419044
H	 0.9735305673	 1.860094686	 0.0027836648	 0.148864
H	-0.5659015893	 1.8692109449	-0.8666146804	 0.150233
H	-0.5481990275	 1.8593777716	 0.9028561744	 0.150233
H	 0.5117900335	-3.0108036481	-0.9035804748	 0.110559
H	 0.52934111	-3.0206289614	 0.8642262792	 0.110556
H	-0.8609528938	-4.9610053846	-0.9031609357	 0.083443
H	-0.8436044504	-4.970637263	 0.8699172741	 0.083445
H	-3.331508361	-4.6135370013	 0.8900660667	 0.118685
H	-3.3487038494	-4.6041262394	-0.8708378666	 0.118678
H	-2.4924174864	-6.9559412503	-0.8981157711	 0.084572
H	-2.4751017229	-6.9654128145	 0.8754908757	 0.084573
H	-4.4712597927	-7.7894307993	 0.0033905586	 0.285479
18.3725	38.2312	55.8177	70.9659	115.9032	133.2817	142.5554	211.2494	267.0685	275.4954	294.4274	378.3955	383.5462	492.6111	539.2009	777.8869	797.2817	888.3737	995.1998	1030.8857	1043.3236	1052.6594	1054.0109	1058.8281	1101.8232	1139.0555	1178.4609	1181.1036	1229.7436	1245.0435	1257.4538	1300.2653	1305.6784	1316.6253	1390.0993	1414.5833	1451.4608	1467.8331	1476.3284	1479.7178	1495.8688	1501.0974	1524.3456	1534.8752	2380.8138	2932.8811	2945.2003	2955.6792	2956.6319	2960.075	2980.228	3028.3763	3053.0756	3089.665	3090.2188	3099.715	3831.4411
CC#CCOCCCO	CC#CCOCCCO	
InChI=1S/C7H12O2/c1-2-3-6-9-7-4-5-8/h8H,4-7H2,1H3	InChI=1S/C7H12O2/c1-2-3-6-9-7-4-5-8/h8H,4-7H2,1H3
