17
gdb 52893	1.97118	1.21308	0.8403	3.4472	84.4	-0.2549	-0.0009	0.254	1413.1334	0.133784	-380.836652	-380.826624	-380.825679	-380.872959	34.642	
C	 0.1060530468	 1.4986827129	 0.0453993717	-0.505512
C	 0.0511831986	 0.0453909388	 0.031261887	 0.158751
C	 0.0130280732	-1.1575834639	 0.0302064977	 0.016631
C	-0.0177100543	-2.5959045248	-0.0061231052	-0.028851
N	-0.535792294	-3.3049084888	 1.2013331404	-0.343366
C	-1.3174766907	-3.3799732822	-0.0262519999	-0.022965
C	-2.6536908858	-2.6860375434	-0.0439005814	-0.404323
C	 1.0948775205	-3.2166246069	-0.6977908612	 0.224878
N	 1.9802739956	-3.7319421527	-1.2349879863	-0.341194
H	 1.1072909264	 1.8535058078	-0.2210899333	 0.160538
H	-0.6037455658	 1.9319843902	-0.6673235808	 0.154614
H	-0.1335687076	 1.8909756599	 1.0394762331	 0.158186
H	 0.0042518124	-4.1545945893	 1.3502892847	 0.253917
H	-1.26410608	-4.3077710215	-0.5935525132	 0.113044
H	-2.6053745747	-1.7399062628	 0.4980866558	 0.144199
H	-2.9704770414	-2.4885227195	-1.0725741807	 0.130279
H	-3.4088501892	-3.320436214	 0.4312330316	 0.131173
26.424	77.4738	108.8285	150.0425	170.9914	186.7728	253.9889	316.7019	357.1362	409.7132	473.9459	521.3043	540.5175	593.2097	614.0486	771.5466	859.553	913.8192	996.2738	1041.7564	1051.1886	1052.5452	1056.6025	1125.8102	1145.4125	1233.0703	1248.9278	1361.1629	1405.503	1413.4763	1442.6766	1474.4131	1475.6923	1485.8341	1492.0131	2349.5475	2375.9179	3032.0816	3044.8705	3095.2823	3097.3797	3110.1713	3123.1096	3145.1536	3502.4928
CC#CC1(NC1C)C#N	CC#C[C@]1(N[C@H]1C)C#N	
InChI=1S/C7H8N2/c1-3-4-7(5-8)6(2)9-7/h6,9H,1-2H3	InChI=1S/C7H8N2/c1-3-4-7(5-8)6(2)9-7/h6,9H,1-2H3/t6-,7-/m0/s1
