21
gdb 40724	3.9591	1.10399	1.03747	1.7915	82.18	-0.2601	0.0896	0.3498	1234.4692	0.18515	-387.057162	-387.049657	-387.048713	-387.089516	30.207	
C	 0.2570837593	 1.4976251446	 0.0402146232	-0.186644
O	 1.199999291	 0.4456914803	-0.1693234589	-0.243522
C	-0.1808650642	 0.0969203923	-0.0145167984	 0.069975
C	-0.5429996298	-0.6809546551	 1.2234133603	 0.018676
C	-2.0843730964	-0.7610664473	 1.5132498471	-0.246545
C	-2.2490296333	-2.2932255981	 1.5793487781	-0.005392
C	-1.0001418089	-2.7199554915	 2.4046870601	-0.22849
C	-0.2424861926	-2.1979806539	 1.1492591775	-0.020633
C	-1.4454876156	-2.7550735616	 0.3310597125	-0.22578
H	 0.3253828509	 1.9999209627	 1.0048542362	 0.109197
H	 0.0901802885	 2.1551589159	-0.8121855884	 0.111549
H	-0.6494955391	-0.2401176173	-0.9413104887	 0.088813
H	-0.0020487291	-0.2335370785	 2.0639725586	 0.070748
H	-2.3580829125	-0.2628051443	 2.4473746896	 0.097264
H	-2.6813554405	-0.3155283603	 0.7102066761	 0.095456
H	-3.2459311827	-2.6771996291	 1.7980772458	 0.058073
H	-0.8160315671	-2.2215693986	 3.3619630912	 0.085926
H	-0.9226108426	-3.803249905	 2.522715095	 0.095625
H	 0.7875942207	-2.4805476266	 0.9326618369	 0.071038
H	-1.4081698172	-3.8423329164	 0.2331303945	 0.096925
H	-1.6851114887	-2.3049796423	-0.6368867186	 0.087739
67.9923	148.8612	169.4442	320.8223	384.9982	415.832	481.4788	527.7643	663.3536	804.9684	831.0591	836.3056	853.1475	857.3786	865.6572	910.6618	940.1609	945.4979	971.7015	986.0352	1024.0298	1031.038	1047.3864	1082.483	1089.0633	1103.4166	1113.0959	1153.416	1165.7512	1171.7771	1199.7331	1225.7265	1243.263	1246.6833	1269.8578	1288.6443	1297.3479	1302.7967	1321.6249	1340.3647	1456.3837	1488.7823	1498.7561	1526.3548	1530.6201	3043.4789	3045.2533	3048.1405	3055.3541	3077.715	3088.3187	3093.2382	3107.5115	3111.3196	3114.661	3121.5031	3163.3501
C1OC1C1CC2CC1C2	C1O[C@H]1[C@H]1C[C@@H]2C[C@H]1C2	
InChI=1S/C8H12O/c1-5-2-6(1)7(3-5)8-4-9-8/h5-8H,1-4H2	InChI=1S/C8H12O/c1-5-2-6(1)7(3-5)8-4-9-8/h5-8H,1-4H2/t5-,6+,7-,8+/m0/s1
