20
gdb 82894	2.62023	1.92025	1.46442	1.2142	77.86	-0.2117	0.0784	0.2901	976.7303	0.171699	-403.089085	-403.081464	-403.08052	-403.120523	31.232	
C	-0.0061261547	 1.4767999591	-0.1642596905	-0.335597
N	 0.0125540434	 0.0244627519	-0.0230256611	-0.133564
C	-1.2217393076	-0.5288757525	 0.6380723817	-0.060716
C	-0.9408863435	-2.031386648	 0.4802649207	-0.207875
C	 0.2823868555	-1.9616639743	 1.4114292504	 0.012033
O	-0.3473036626	-1.6158186958	 2.682198178	-0.297587
C	-0.5575178876	-0.332239284	 2.0904541782	 0.039585
C	 0.709121449	-0.4368433688	 1.2082586514	 0.340609
C	 2.1053432204	-0.0018282623	 1.5465825574	-0.532328
H	 0.9760581139	 1.8266812408	-0.497075182	 0.12191
H	-0.7328959961	 1.7476234854	-0.9364929655	 0.120419
H	-0.2680422666	 2.0304201141	 0.7553825674	 0.094404
H	-2.182275913	-0.1116851148	 0.3403105428	 0.070446
H	-1.7005030065	-2.6951745398	 0.8972025756	 0.104339
H	-0.7199887154	-2.2818393426	-0.5578081757	 0.108458
H	 0.9903794504	-2.7865833437	 1.478827605	 0.079988
H	-0.8645435014	 0.4548089083	 2.7773915747	 0.086852
H	 2.3955966439	-0.4137056991	 2.5178591413	 0.137287
H	 2.8170366594	-0.3607625338	 0.79484914	 0.12858
H	 2.1905222492	 1.08780738	 1.6015893401	 0.122757
186.0622	218.6333	236.8548	263.5683	268.8699	331.0464	449.1183	504.1905	529.1608	634.0597	697.2032	753.9409	772.8266	818.7841	851.794	864.2213	915.7236	929.398	944.2533	969.695	1003.1752	1023.7771	1076.7813	1110.7033	1127.3259	1137.1405	1170.6726	1172.9385	1191.3512	1198.704	1227.5337	1240.5073	1272.3193	1294.4031	1322.4442	1366.7794	1411.8191	1452.3427	1463.8955	1486.4791	1491.3136	1498.6541	1503.0937	2942.457	3034.1866	3063.4975	3081.8097	3099.6409	3102.5735	3112.3582	3127.8154	3132.9211	3139.1948	3147.208
CN1C2CC3OC2C13C	CN1[C@H]2C[C@@H]3O[C@H]2[C@]13C	
InChI=1S/C7H11NO/c1-7-5-3-4(8(7)2)6(7)9-5/h4-6H,3H2,1-2H3	InChI=1S/C7H11NO/c1-7-5-3-4(8(7)2)6(7)9-5/h4-6H,3H2,1-2H3/t4-,5-,6+,7+/m0/s1
