16
gdb 47698	2.37614	1.68696	1.02687	3.5089	68.97	-0.2349	0.0085	0.2433	1102.789	0.127462	-471.250339	-471.242429	-471.241485	-471.283579	29.262	
N	-0.0604406524	 1.1141560824	-0.8392898931	-0.557354
C	-0.0748149174	 0.0743213329	-0.0938317907	 0.429246
N	-1.2899900724	-0.3909664038	 0.3478145562	-0.306755
C	-1.5324644659	-1.2432768088	 1.4904671437	-0.174275
C	-0.6494597537	-2.4764492368	 1.4714809241	-0.077152
O	 0.668145058	-2.2111544943	 1.9558442456	-0.228411
C	 1.5501986713	-1.485029143	 1.2478793444	 0.454403
O	 2.7270444526	-1.5540695667	 1.4884399002	-0.367079
N	 1.09419076	-0.6608169878	 0.2124232643	-0.425777
H	 0.8712073287	 1.3370280493	-1.1785131097	 0.211222
H	-2.014370761	 0.2733779784	 0.1196307185	 0.259878
H	-1.3950677123	-0.7318292472	 2.456433662	 0.123418
H	-2.5776156707	-1.5646769354	 1.436768856	 0.125279
H	-1.040253902	-3.2273692893	 2.1606101593	 0.135397
H	-0.6064089562	-2.9041860231	 0.463596644	 0.133317
H	 1.9082554236	-0.2405865669	-0.2132681549	 0.264644
68.998	82.8704	129.7893	295.3809	333.6891	393.2337	440.6763	521.8622	562.8738	624.261	630.9583	692.5424	717.1301	764.2177	778.972	829.9419	922.6929	955.5861	1010.0502	1101.0661	1115.0764	1147.5606	1200.8528	1265.0888	1278.2703	1312.7356	1400.1956	1418.5692	1448.958	1460.8776	1479.5487	1496.671	1509.7286	1730.3871	1837.5617	2982.514	3050.8036	3075.9178	3123.1037	3525.8689	3609.9931	3622.1594
N=C1NCCOC(=O)N1	[NH][C]1NCCOC(=O)N1	
InChI=1S/C4H7N3O2/c5-3-6-1-2-9-4(8)7-3/h1-2H2,(H3,5,6,7,8)	InChI=1S/C4H7N3O2/c5-3-6-1-2-9-4(8)7-3/h1-2H2,(H3,5,6,7,8)
