23
gdb 92645	2.81839	1.43268	1.1328	1.2271	85.55	-0.2373	0.0828	0.3201	1187.8808	0.208271	-388.297226	-388.288918	-388.287974	-388.329739	33.417	
C	-0.1546872869	 1.5964580384	-0.0205129748	-0.409638
C	 0.0324032034	 0.0891753437	 0.0266196277	 0.031281
C	 1.0377804011	-0.5984219868	-0.9428481149	-0.260194
C	 1.3869034891	-1.5925426987	 0.2018863411	 0.012719
C	 2.8130606146	-2.0869467267	 0.4413141316	-0.237391
C	 3.7133514625	-0.9812848463	 1.0132086855	-0.200748
C	 2.983328271	-0.2491862581	 2.1380624602	-0.060904
O	 1.802406923	 0.3703490719	 1.6537247121	-0.264267
C	 0.8178622115	-0.5467776545	 1.2067794115	 0.097465
H	 0.7992262425	 2.1088971522	 0.1253082546	 0.128295
H	-0.5692572944	 1.9036467008	-0.9870787324	 0.106419
H	-0.8418074222	 1.9393937545	 0.7609964553	 0.110594
H	-0.9376056941	-0.4162537534	-0.0470445004	 0.068563
H	 0.6463572394	-1.0194543716	-1.8722880841	 0.089449
H	 1.8733056463	 0.0656814359	-1.182200894	 0.103079
H	 0.7001414393	-2.4441829063	 0.1517705633	 0.068831
H	 2.7815961358	-2.9154454599	 1.1621380086	 0.093695
H	 3.2359397143	-2.4983759614	-0.4831945689	 0.095204
H	 4.6526924936	-1.4055413024	 1.3857716238	 0.091267
H	 3.9739754668	-0.2506078095	 0.2384407165	 0.104517
H	 2.7436438987	-0.9494901914	 2.9575896927	 0.080292
H	 3.5956569886	 0.555487858	 2.5560674381	 0.102434
H	 0.2472860359	-0.9271839184	 2.0675141169	 0.04904
109.0988	162.4754	198.6615	224.4337	314.9658	326.0913	369.1252	430.533	480.6102	510.0564	608.0271	661.858	752.8762	838.4723	847.8856	875.0975	895.9861	910.5607	948.1094	955.8631	983.7854	1002.574	1052.2556	1078.8271	1089.7078	1132.9716	1146.8412	1158.1568	1182.483	1219.5114	1238.6175	1242.7142	1272.4032	1279.8751	1290.1406	1321.7842	1348.1174	1358.1052	1372.1541	1377.1772	1397.7609	1405.4888	1416.017	1475.974	1484.7046	1490.0239	1492.6431	1502.7008	1503.7818	2953.5974	2979.948	3009.7212	3030.6263	3030.6701	3038.9799	3049.3751	3052.2672	3056.9112	3075.354	3080.2819	3090.6039	3109.6658	3124.368
CC1CC2CCCOC12	C[C@H]1C[C@H]2CCCO[C@@H]12	
InChI=1S/C8H14O/c1-6-5-7-3-2-4-9-8(6)7/h6-8H,2-5H2,1H3	InChI=1S/C8H14O/c1-6-5-7-3-2-4-9-8(6)7/h6-8H,2-5H2,1H3/t6-,7+,8-/m0/s1
