24
gdb 98268	2.59449	0.99441	0.85715	3.1875	87.08	-0.2392	0.0389	0.2781	1520.766	0.214995	-405.597797	-405.586046	-405.585102	-405.635551	41.58	
C	-0.170110507	 1.4544035078	-0.4133849864	-0.334824
N	-0.2830670937	 0.0094040188	-0.4428677261	-0.316605
C	-1.1329138476	-0.6804573419	 0.3731221932	 0.420328
O	-1.8586974121	-0.1323967774	 1.187184948	-0.396618
C	-1.100658635	-2.2050987032	 0.2221599856	-0.080559
C	-0.5170366829	-2.788562197	 1.5213941587	-0.403528
C	-2.525703817	-2.7194972483	-0.1022844577	 0.06949
C	-3.0450795834	-2.1149563117	-1.4155126032	-0.404448
C	-2.6000193513	-4.2510517605	-0.1611527513	-0.410138
H	 0.8553400787	 1.7699866066	-0.1910408174	 0.123475
H	-0.474266907	 1.9013607821	-1.3668977744	 0.123837
H	-0.8336966368	 1.8125235941	 0.374618782	 0.171606
H	 0.272529683	-0.5076149321	-1.1029914322	 0.243594
H	-0.4398697892	-2.4776307006	-0.6140315558	 0.053122
H	-1.1683283357	-2.5472456317	 2.3660161951	 0.13983
H	-0.4040321514	-3.87324062	 1.4596445862	 0.11535
H	 0.4702825558	-2.3631075013	 1.7287710878	 0.112206
H	-3.1714053242	-2.366042169	 0.7108604513	 0.099211
H	-4.0651947189	-2.4542047133	-1.6216189872	 0.111387
H	-3.0607925425	-1.0219460787	-1.3814146439	 0.126944
H	-2.4201665944	-2.4198873005	-2.264609727	 0.101503
H	-2.3610953996	-4.7189994293	 0.7972688382	 0.116627
H	-3.609570106	-4.5716741485	-0.4385010366	 0.111908
H	-1.9101317819	-4.6535159345	-0.9136861969	 0.106302
33.4124	58.4906	85.1855	118.3258	186.4074	208.3319	210.6515	227.5299	243.3483	299.4361	323.7464	346.1953	389.8055	428.3264	474.4635	492.6925	698.7607	759.0221	812.8013	867.2488	924.7514	929.6237	966.796	985.4045	1028.8638	1073.9101	1096.0081	1140.5947	1155.0696	1171.1954	1183.4629	1202.5027	1221.0799	1298.1683	1344.43	1360.1464	1379.8054	1397.9291	1403.3255	1421.3325	1436.5935	1485.0263	1489.1705	1491.1404	1498.2351	1500.8079	1503.2053	1504.4711	1517.8976	1555.9694	1768.1615	2990.4424	3021.5601	3025.1613	3025.6418	3040.7843	3042.8937	3076.6771	3086.1097	3093.7896	3106.4509	3110.9578	3113.7062	3130.4687	3152.8922	3655.2738
CNC(=O)C(C)C(C)C	CNC(=O)[C@@H](C)C(C)C	
InChI=1S/C7H15NO/c1-5(2)6(3)7(9)8-4/h5-6H,1-4H3,(H,8,9)	InChI=1S/C7H15NO/c1-5(2)6(3)7(9)8-4/h5-6H,1-4H3,(H,8,9)/t6-/m0/s1
