14
gdb 31918	6.25552	0.86726	0.76787	7.0351	74.52	-0.2409	-0.0379	0.203	1374.329	0.102279	-432.907132	-432.898887	-432.897942	-432.941026	28.859	
O	 0.0356021361	 1.3551969969	 0.275182885	-0.401899
C	 0.0079697882	-0.0270903571	-0.0166611621	-0.19877
C	-1.4226269097	-0.4590513264	-0.0053475872	 0.313215
C	-2.5964367152	 0.2614668235	-0.065483525	-0.146086
N	-3.6810254176	-0.5689068214	-0.0449894197	-0.288112
C	-3.1848844699	-1.7894987734	 0.0255839822	 0.244991
N	-1.8109115735	-1.7703992096	 0.0539782751	-0.359298
C	-3.9125225234	-3.0054793645	 0.0696497003	 0.234726
N	-4.4644614189	-4.0228972255	 0.1073266793	-0.337733
H	 0.9150520194	 1.6884121405	 0.0755617293	 0.299327
H	 0.4549808595	-0.23835387	-1.0027148188	 0.115961
H	 0.5808266825	-0.6128518279	 0.723362782	 0.105342
H	-2.6995920295	 1.3330132641	-0.1140820963	 0.136912
H	-1.212417278	-2.5784601092	 0.1188193561	 0.281425
34.8349	127.095	138.6038	215.0865	219.2581	269.9711	413.0317	505.0948	554.1171	575.7153	611.428	654.7801	706.282	724.6795	870.1598	997.5284	1035.6779	1046.377	1099.4299	1183.4833	1193.1258	1231.9302	1254.3289	1285.5321	1399.0352	1433.3017	1465.1983	1496.6699	1515.5901	1608.8781	2346.4458	2947.0526	2966.7054	3277.3792	3650.9966	3840.3041
OCC1=CN=C(N1)C#N	OCc1cnc([nH]1)C#N	
InChI=1S/C5H5N3O/c6-1-5-7-2-4(3-9)8-5/h2,9H,3H2,(H,7,8)	InChI=1S/C5H5N3O/c6-1-5-7-2-4(3-9)8-5/h2,9H,3H2,(H,7,8)
