18
gdb 80039	2.84661	1.52202	1.26894	2.2024	77.61	-0.2171	-0.0248	0.1923	1037.9968	0.146328	-401.882466	-401.874507	-401.873563	-401.914887	30.79	
C	 0.0948980589	 1.4419855886	 0.1590270821	-0.342773
N	 0.1513071734	-0.0029711207	 0.003239953	-0.081145
C	-1.1010701617	-0.7639551057	 0.4035637031	-0.097567
C	-0.6429870473	-2.1796385849	 0.0299198695	-0.071682
C	 0.5985091	-2.2152696911	 0.5227423925	-0.068839
C	 0.7451428829	-0.8209394141	 1.1438348508	-0.072096
C	-0.6228715259	-0.7214504688	 1.9080279966	-0.04468
C	-0.8857247382	 0.4512319937	 2.8170077097	 0.09832
O	-0.0613857702	 0.920705489	 3.563992226	-0.255746
H	 1.115092979	 1.8382736757	 0.1730890408	 0.130624
H	-0.4156481122	 1.8616814447	-0.7147509197	 0.122726
H	-0.4206779155	 1.8242859242	 1.0557494398	 0.111096
H	-2.0671844073	-0.3921075388	 0.0610039361	 0.073905
H	-1.2109940212	-2.9181938824	-0.5157170948	 0.110905
H	 1.3463617566	-2.9937544617	 0.501591859	 0.112178
H	 1.6882642822	-0.5001260181	 1.5821094711	 0.087542
H	-0.907714752	-1.6078721291	 2.4904119425	 0.112035
H	-1.9410886416	 0.8137115494	 2.824119232	 0.075199
88.1418	151.0641	199.3262	238.6553	289.295	311.5437	399.6028	521.9574	566.2223	627.1507	679.114	725.8713	744.1799	784.9592	873.1712	896.9017	908.445	915.6533	965.6025	980.2359	1026.9051	1053.2871	1105.9763	1125.0897	1139.2283	1165.0599	1169.9668	1191.9929	1216.9969	1233.4543	1284.7655	1310.2167	1324.9076	1414.0954	1448.9417	1482.8343	1498.6337	1616.4106	1802.3928	2847.0147	2965.1461	3023.9676	3057.1132	3101.6041	3119.3156	3146.9432	3232.528	3258.763
CN1C2C=CC1C2C=O	CN1[C@H]2C=C[C@@H]1[C@H]2C=O	
InChI=1S/C7H9NO/c1-8-6-2-3-7(8)5(6)4-9/h2-7H,1H3	InChI=1S/C7H9NO/c1-8-6-2-3-7(8)5(6)4-9/h2-7H,1H3/t5-,6-,7+
