18
gdb 17996	4.37083	1.45679	1.27837	2.9929	71.75	-0.2404	-0.0249	0.2155	985.542	0.154324	-347.783313	-347.775928	-347.774984	-347.815927	27.618	
O	-0.1159842324	 0.0149721966	-0.1297887494	-0.253899
C	 0.0074437466	 1.2144375579	-0.1348163406	 0.15097
C	 1.3166571047	 1.9449603572	-0.0304215976	-0.060836
C	 1.532618302	 3.2009900398	-0.9356414023	-0.270762
C	 2.0357933901	 4.0188747972	 0.2888998505	-0.00218
C	 0.9779475951	 4.9472424822	 0.929436452	-0.221532
C	 0.4193422134	 3.7390531057	 1.743179134	-0.236949
C	 1.5855873973	 2.8411689391	 1.2226876508	-0.03975
H	-0.8880072374	 1.8732378935	-0.2272235358	 0.067136
H	 2.1184810577	 1.2121989465	-0.1474602216	 0.092974
H	 2.2531946717	 3.0512821265	-1.7417749873	 0.113789
H	 0.610339508	 3.5964100935	-1.375618462	 0.101593
H	 3.0654031553	 4.3738716246	 0.2327411443	 0.068015
H	 1.4178742542	 5.7150262259	 1.5712832554	 0.103649
H	 0.2883058727	 5.4383616953	 0.2362538599	 0.097535
H	 0.4378644212	 3.8837482262	 2.8254232809	 0.110146
H	-0.5890282428	 3.4174681855	 1.474187802	 0.104505
H	 2.2197171726	 2.3979777168	 1.9909034868	 0.075593
47.7578	66.5581	231.4163	289.1044	349.9351	416.8379	445.7663	656.5379	725.3246	742.3621	778.9608	836.4612	884.0598	895.9596	924.2555	957.3471	986.0066	1016.7732	1048.6521	1068.6151	1090.3633	1139.815	1150.536	1189.8785	1212.5229	1228.0697	1252.0235	1259.1579	1272.5002	1290.4655	1299.6111	1319.3099	1324.016	1434.4272	1476.9269	1481.2989	1500.0159	1821.7571	2850.818	3044.2153	3050.1955	3071.7386	3080.9888	3090.2677	3099.3025	3102.7349	3115.2564	3123.3237
O=CC1CC2CCC12	O=C[C@H]1C[C@H]2CC[C@@H]12	
InChI=1S/C7H10O/c8-4-6-3-5-1-2-7(5)6/h4-7H,1-3H2	InChI=1S/C7H10O/c8-4-6-3-5-1-2-7(5)6/h4-7H,1-3H2/t5-,6-,7-/m1/s1
