22
gdb 121979	2.37597	0.74061	0.60831	4.7388	80.65	-0.2475	0.0343	0.2818	1859.8999	0.192165	-441.512686	-441.501449	-441.500505	-441.551264	38.855	
C	 0.0616126102	 1.6878626027	-0.0788564324	-0.394771
C	 0.0588816982	 0.1553121883	-0.0121186924	 0.035814
C	 0.725535049	-0.4723763355	-1.2464588569	-0.197721
C	 0.6284913278	-1.9986125401	-1.3064067542	-0.168371
C	 1.2853814678	-2.5793615109	-2.5519311738	-0.07246
O	 1.1659440143	-3.9918311952	-2.4909626102	-0.419333
N	 0.6956616989	-0.3137319994	 1.2173609573	-0.27018
C	 0.005583808	-0.7759398866	 2.2943008092	 0.155731
O	-1.2000193881	-0.892634939	 2.3602938569	-0.325311
H	 1.0851254641	 2.0792926038	-0.1173176734	 0.107161
H	-0.4643187945	 2.0375502579	-0.972841403	 0.118999
H	-0.4337082699	 2.1110935607	 0.7988988934	 0.132232
H	-0.9750612107	-0.194827993	 0.0590838872	 0.125291
H	 0.2584933193	-0.0358245636	-2.1383686243	 0.102051
H	 1.7809447975	-0.1613787524	-1.2790704606	 0.085937
H	 1.1004725337	-2.4443666342	-0.4241837353	 0.108733
H	-0.4225102097	-2.3103495535	-1.2867843928	 0.114994
H	 0.7964305807	-2.1757617169	-3.4542391483	 0.083567
H	 2.3436781612	-2.2700084566	-2.5933106351	 0.079578
H	 1.555236863	-4.3623610994	-3.2882203408	 0.285519
H	 1.6960059611	-0.2164277297	 1.3053827336	 0.241305
H	 0.6841673281	-1.0495685974	 3.127469456	 0.071235
16.6027	61.4607	74.8678	122.684	150.3199	191.6587	205.2936	239.5775	268.2595	308.7927	316.0972	420.9735	486.986	515.5376	532.7259	752.7441	764.3037	844.6103	889.6084	937.8595	1003.3002	1006.9477	1030.0651	1052.5832	1076.0987	1110.6541	1150.3424	1167.094	1199.9716	1230.4085	1239.4976	1297.6546	1304.3632	1315.7627	1356.1673	1372.0167	1395.944	1410.5615	1431.672	1463.4585	1480.1768	1489.2408	1496.8023	1500.2482	1527.4252	1530.7907	1804.1112	2928.2913	2951.2541	2976.3315	2995.0465	3030.0711	3041.9688	3044.4095	3079.6003	3088.1172	3103.1393	3120.5496	3616.1252	3831.3616
CC(CCCO)NC=O	C[C@@H](CCCO)NC=O	
InChI=1S/C6H13NO2/c1-6(7-5-9)3-2-4-8/h5-6,8H,2-4H2,1H3,(H,7,9)	InChI=1S/C6H13NO2/c1-6(7-5-9)3-2-4-8/h5-6,8H,2-4H2,1H3,(H,7,9)/t6-/m0/s1
