18
gdb 78813	2.4488	1.72418	1.45155	1.1299	70.65	-0.2372	0.0553	0.2925	982.8807	0.147137	-439.01311	-439.005088	-439.004144	-439.045085	31.961	
C	-0.067283034	 1.5759054407	-0.0062557843	-0.429031
C	 0.0846739494	 0.0671569276	 0.0603080394	 0.04118
N	 1.1401923838	-0.5778711955	-0.8167848199	-0.15468
C	 2.4003088526	-0.6266729043	 0.0030075012	-0.088147
C	 1.3378602347	-1.6566231635	 0.1777819559	-0.178943
C	 0.7129685318	-0.6408160159	 1.2624068525	 0.344551
O	 0.0170023077	-0.8894263894	 2.4158585458	-0.478324
C	 2.1368291445	-0.0341218332	 1.3798904109	 0.056661
O	 2.8510161947	-0.6525747914	 2.4412278554	-0.453771
H	 0.8741917062	 2.1009731902	 0.1750753435	 0.122849
H	-0.4283420407	 1.8731762123	-0.9954990089	 0.129545
H	-0.7968464234	 1.9137225903	 0.737102916	 0.130472
H	-0.8584863046	-0.4186045333	-0.2113912939	 0.091686
H	 3.333224218	-0.6755856744	-0.5443905022	 0.102652
H	 1.2692082597	-2.7121206807	-0.0516509473	 0.103833
H	 0.6808333751	-0.9930600841	 3.1146340303	 0.286558
H	 2.2327397695	 1.0412863423	 1.5479587846	 0.08656
H	 3.031545065	-1.5641986777	 2.1788667714	 0.286349
156.257	189.473	205.342	231.5823	277.9714	361.3182	389.4849	433.6684	534.3343	566.9908	578.4592	679.2372	687.6593	764.9525	807.9142	844.8809	897.1037	926.7681	942.4985	965.2366	970.7566	1030.5402	1087.0625	1101.7703	1129.1821	1138.1642	1147.5595	1195.3166	1224.7366	1244.1871	1276.2141	1305.0663	1353.9718	1384.6276	1407.4157	1429.9967	1433.9876	1489.2179	1499.0819	3041.142	3053.6989	3084.8994	3110.4729	3119.4629	3191.4718	3205.0397	3713.0152	3776.6418
CC1N2C3C2C1(O)C3O	C[C@H]1N2[C@@H]3[C@H]2[C@@]1(O)[C@H]3O	
InChI=1S/C6H9NO2/c1-2-6(9)4-3(5(6)8)7(2)4/h2-5,8-9H,1H3	InChI=1S/C6H9NO2/c1-2-6(9)4-3(5(6)8)7(2)4/h2-5,8-9H,1H3/t2-,3-,4+,5+,6-,7?/m1/s1
