13
gdb 29256	3.31365	1.4711	1.02011	3.953	65.42	-0.2266	-0.0453	0.1813	1060.4422	0.090018	-489.933791	-489.926268	-489.925323	-489.965969	28.168	
N	 0.0402333264	 1.4107032079	 0.3356934745	-0.589898
C	-0.0159588553	 0.0545635592	 0.0521889339	 0.168907
C	-1.1245007264	-0.6912535299	-0.0548065105	-0.023602
O	-1.096207365	-2.0533458318	-0.2761821902	-0.21654
C	 0.0642409758	-2.7320351786	-0.373319106	 0.470667
O	 0.1000156898	-3.9079225435	-0.539509664	-0.338724
O	 1.2130808225	-1.9987987171	-0.2764464878	-0.255642
C	 1.2685392848	-0.6270455352	-0.097069276	 0.399055
N	 2.3702817928	-0.0102108995	-0.0720653309	-0.529518
H	 0.9424801084	 1.806172756	 0.1043749323	 0.274579
H	-0.7358665719	 1.9622973918	 0.0018560385	 0.253938
H	-2.1402455717	-0.3307498887	 0.0203069545	 0.141902
H	 3.1613417197	-0.6406966505	-0.1986788783	 0.244875
92.3644	129.3165	268.7678	313.8888	348.1557	385.5305	393.9965	471.4365	533.454	616.3948	639.7767	730.995	749.287	761.1711	818.4323	830.2301	879.7044	928.5471	1068.7288	1112.0482	1128.6857	1235.2077	1272.149	1369.9023	1454.4622	1629.6122	1726.0541	1749.5983	1910.3135	3242.6816	3508.1887	3551.4196	3662.9099
NC1=COC(=O)OC1=N	NC1=C(OC(=O)O[CH]1)[NH]	
InChI=1S/C4H4N2O3/c5-2-1-8-4(7)9-3(2)6/h1,6H,5H2	InChI=1S/C4H4N2O3/c5-2-1-8-4(7)9-3(2)6/h1,6H,5H2
