20
gdb 99111	2.75588	1.07792	0.94774	2.9733	76.34	-0.2393	0.0323	0.2716	1342.4997	0.16903	-440.306203	-440.29601	-440.295066	-440.34225	36.121	
C	 0.0808836961	 0.2187749989	 0.843579146	-0.332145
N	 0.1481802596	-0.9318498872	-0.0341279091	-0.296573
C	 0.9883138862	-1.9792880701	 0.1930390784	 0.380696
O	 1.7345808712	-2.0589949841	 1.153247366	-0.378116
C	 0.8920493949	-3.0922780916	-0.8614916319	-0.370115
C	 1.0781600215	-2.6077872241	-2.2908945326	 0.404104
C	 2.4503260226	-2.0824150923	-2.6466844653	-0.457122
C	 0.1892743517	-3.1215227416	-3.3444830614	-0.232175
O	-0.022316558	-1.8161321718	-2.7937708542	-0.279589
H	 0.7674342998	 0.0402273543	 1.6719614579	 0.166814
H	 0.3781124474	 1.1372473034	 0.3243509571	 0.123896
H	-0.9309783417	 0.357346037	 1.2408061402	 0.123089
H	-0.3902066897	-0.941750499	-0.8879682339	 0.264401
H	 1.6568788307	-3.8299396809	-0.608723256	 0.130062
H	-0.0871690968	-3.5741692912	-0.7672044449	 0.117673
H	 3.1989490489	-2.8769388049	-2.5632655482	 0.129861
H	 2.4605669076	-1.694665241	-3.6679499069	 0.127604
H	 2.7430660783	-1.2758124181	-1.9671854061	 0.142822
H	 0.5280752616	-3.132143814	-4.3793825371	 0.118075
H	-0.5705301018	-3.8623557616	-3.0996982581	 0.11674
45.2519	75.7226	89.6867	121.8386	184.6978	193.7266	277.4956	337.2847	343.1975	375.5972	410.4179	475.5842	568.1929	643.8734	703.628	761.1861	847.9838	863.5838	918.4518	925.8904	940.9091	1035.2468	1083.709	1115.0552	1132.3753	1151.729	1159.2848	1178.5197	1199.4554	1268.4463	1295.293	1318.8776	1399.1701	1421.1652	1439.3069	1460.8402	1485.6244	1494.6286	1498.8933	1501.0673	1529.2346	1578.7241	1783.055	3025.1978	3041.8525	3051.1233	3074.9058	3083.9239	3108.0383	3118.3261	3128.8775	3152.2513	3171.0786	3606.0235
CNC(=O)CC1(C)CO1	CNC(=O)C[C@@]1(C)CO1	
InChI=1S/C6H11NO2/c1-6(4-9-6)3-5(8)7-2/h3-4H2,1-2H3,(H,7,8)	InChI=1S/C6H11NO2/c1-6(4-9-6)3-5(8)7-2/h3-4H2,1-2H3,(H,7,8)/t6-/m0/s1
