16
gdb 34208	4.07606	1.43381	1.26063	4.2579	72.93	-0.2254	0.0021	0.2275	983.3236	0.126981	-396.861053	-396.854357	-396.853413	-396.892062	26.756	
N	 0.1164136262	-1.1872117668	 0.0868492272	-0.337579
C	 0.0646506687	-0.0338570208	 0.0267162939	 0.219047
C	-0.0441787427	 1.413089074	-0.0364719598	 0.191003
C	-1.2206043982	 2.1085660081	 0.7065353637	-0.215253
N	-1.3860015073	 3.1159949068	-0.3916457503	-0.147104
C	-0.3005976291	 4.1585187871	-0.3100411995	-0.186891
C	 0.7383495228	 3.1973696193	-0.9292046772	-0.005415
N	 1.2352179919	 2.1522071445	-0.0062844671	-0.348726
C	-0.4670093627	 2.2795115175	-1.2707824743	-0.052556
H	-2.1096093944	 1.4731037465	 0.7645338821	 0.13158
H	-1.0033703757	 2.5184293489	 1.6982569127	 0.111432
H	-0.553028049	 4.9935367813	-0.9719303284	 0.119509
H	-0.1024882959	 4.548825337	 0.6941354171	 0.10406
H	 1.485763709	 3.5811939739	-1.6262432235	 0.090752
H	 1.5492356772	 2.458239125	 0.9120652986	 0.222474
H	-0.7977478909	 1.9158321679	-2.2400957153	 0.103669
143.314	151.7835	316.5395	350.9616	459.1519	473.1653	555.2287	563.1394	639.3311	753.622	804.5467	816.5743	871.2567	889.384	916.683	954.754	969.6726	999.8399	1006.0359	1043.9502	1081.5663	1123.5613	1163.0651	1185.9074	1195.9572	1201.923	1229.8484	1243.7399	1297.7625	1308.513	1328.7564	1371.2975	1485.319	1497.6259	2352.1772	3033.8206	3041.8438	3084.8727	3090.3633	3098.8704	3156.4162	3486.2259
N#CC12CN3CC(N1)C23	N#C[C@@]12CN3C[C@@H](N1)[C@@H]23	
InChI=1S/C6H7N3/c7-2-6-3-9-1-4(8-6)5(6)9/h4-5,8H,1,3H2	InChI=1S/C6H7N3/c7-2-6-3-9-1-4(8-6)5(6)9/h4-5,8H,1,3H2/t4-,5+,6+/m1/s1
