15
gdb 27923	2.47841	1.41385	0.90607	5.3926	73.21	-0.221	-0.0415	0.1796	1216.3997	0.112348	-454.000802	-453.992318	-453.991374	-454.033969	30.657	
C	 0.1333440201	 1.4627929562	 0.0634035894	-0.496888
C	-0.0502103468	-0.0065615867	 0.0007471309	 0.290588
C	-1.1075897007	-0.86329557	-0.1093605807	 0.06751
C	-2.5182737376	-0.4959537786	-0.2075547541	 0.072113
O	-3.4406220289	-1.2720003522	-0.2986875766	-0.267472
N	-0.6478511348	-2.1861826403	-0.1060080125	-0.367273
C	 0.6319145342	-2.0625627647	-0.006629075	 0.451327
N	 1.5901862366	-3.0377271292	-0.0311978162	-0.589954
O	 1.0872833643	-0.7769298069	 0.0665777482	-0.215053
H	 0.7622723781	 1.8174921452	-0.7610503219	 0.150712
H	-0.8310345972	 1.9694398409	 0.0016988332	 0.151276
H	 0.6197440864	 1.7612665273	 0.9991491501	 0.148443
H	-2.694099997	 0.6036951926	-0.1912985883	 0.058209
H	 1.2231552064	-3.9599882961	 0.1501616337	 0.278442
H	 2.4394132471	-2.8250059076	 0.4703668598	 0.268019
116.775	147.092	175.6993	200.946	219.9638	267.2988	315.5824	398.2233	423.9065	539.1656	578.4383	635.0199	671.2998	703.0801	756.6945	871.8446	954.2133	1004.8298	1018.0874	1060.1834	1118.3133	1151.9789	1245.194	1351.0701	1413.7905	1430.7886	1437.6213	1468.9258	1484.6297	1608.8416	1641.0244	1709.585	1798.5987	2866.6582	3032.7451	3083.1995	3141.5747	3581.2641	3691.1079
CC1=C(C=O)N=C(N)O1	Cc1c(C=O)nc(N)o1	
InChI=1S/C5H6N2O2/c1-3-4(2-8)7-5(6)9-3/h2H,1H3,(H2,6,7)	InChI=1S/C5H6N2O2/c1-3-4(2-8)7-5(6)9-3/h2H,1H3,(H2,6,7)
