20
gdb 74472	3.0118	1.4047	1.10221	1.4368	87.27	-0.214	0.0219	0.2358	1169.7986	0.171899	-365.986361	-365.97829	-365.977346	-366.018606	32.322	
C	-0.035423472	 1.5030924555	 0.0805698098	-0.498984
C	-0.0188203565	 0.0105752166	 0.0006902104	 0.35402
C	 0.0387119689	-0.757668464	-1.095905845	-0.274458
C	 0.0418863095	-2.2128761207	-0.773852194	 0.409205
C	-0.7406847683	-3.2230019102	-1.5905434178	-0.322732
C	 0.7627496794	-3.2351184789	-1.6240012679	-0.300404
C	 0.0530942779	-2.2678567481	 0.7339067019	-0.162894
N	 1.2513956188	-1.6510591655	 1.3517379987	-0.344309
C	-0.0129755011	-0.8640326174	 1.218768451	-0.160619
H	 0.8478709564	 1.8809862017	 0.6111935905	 0.132126
H	-0.0551042012	 1.9582629535	-0.9134591447	 0.121599
H	-0.911611895	 1.8643320541	 0.6346907357	 0.120505
H	 0.1130051278	-0.3888910742	-2.1139695884	 0.088304
H	-1.2488399168	-4.0157380266	-1.0498466765	 0.110049
H	-1.2768677656	-2.8641351696	-2.4627069027	 0.111535
H	 1.2594882029	-2.8813114442	-2.5211291387	 0.113648
H	 1.2878780194	-4.0328268016	-1.1100032901	 0.11609
H	-0.4387706175	-3.0870862686	 1.2489403168	 0.082786
H	 1.3134421298	-1.9912512518	 2.3109774114	 0.223012
H	-0.5383901867	-0.5701336799	 2.1224289395	 0.081521
121.5106	182.2743	190.1428	225.3755	267.9831	346.802	406.3391	472.2542	517.4534	603.2506	627.084	773.313	817.0494	839.7461	842.1464	860.2539	870.9766	908.5161	925.6716	935.318	953.1175	985.8047	1021.2959	1057.005	1057.6412	1072.4219	1076.6722	1134.1194	1158.9427	1172.3836	1189.8831	1251.4317	1264.7323	1300.492	1338.4243	1393.106	1413.4594	1425.1771	1467.1746	1479.162	1490.6129	1500.7158	1697.1008	3014.5076	3059.7255	3108.2671	3122.6796	3132.3378	3150.7243	3160.6992	3181.2621	3203.8816	3221.3224	3464.9941
CC1=CC2(CC2)C2NC12	CC1=CC2(CC2)[C@H]2N[C@@H]12	
InChI=1S/C8H11N/c1-5-4-8(2-3-8)7-6(5)9-7/h4,6-7,9H,2-3H2,1H3	InChI=1S/C8H11N/c1-5-4-8(2-3-8)7-6(5)9-7/h4,6-7,9H,2-3H2,1H3/t6-,7-/m0/s1
