20
gdb 69806	3.10181	1.5846	1.2616	1.4596	84.25	-0.2262	0.0164	0.2426	1057.9494	0.173306	-365.992202	-365.984615	-365.983671	-366.023687	31.403	
C	-0.0321079784	 1.5110860282	-0.0058061385	-0.472867
C	-0.0364866398	-0.0070018559	 0.0035030532	 0.310705
C	-0.8338229613	-0.7016633988	 1.0973183072	-0.328044
C	 0.6692683995	-0.7366736662	 1.1433397816	-0.07125
C	 1.4209053737	-2.0020055999	 0.8360977973	-0.051708
N	 0.6431031573	-3.2040601817	 0.4962290947	-0.339889
C	 1.4428116104	-2.5236614885	-0.5624829406	-0.088835
C	 0.7044763981	-1.773497184	-1.6010528885	-0.051602
C	 0.0417319222	-0.6429980729	-1.3337408198	-0.129362
H	 0.8790428766	 1.9058030877	-0.469307482	 0.117942
H	-0.8881877101	 1.9026998612	-0.5684913414	 0.116089
H	-0.0928945838	 1.9130396571	 1.0102162588	 0.112417
H	-1.3512077634	-0.068907073	 1.8112814832	 0.102543
H	-1.3302999116	-1.6314942435	 0.848371985	 0.139199
H	 1.15466468	-0.0991627295	 1.8753629613	 0.07744
H	 2.3251770134	-2.1429239719	 1.4223449289	 0.079276
H	 1.1414255404	-4.0331952069	 0.8111606795	 0.227405
H	 2.3364030702	-3.0444659498	-0.8988639086	 0.081685
H	 0.7234314191	-2.1650302004	-2.6142848668	 0.085795
H	-0.4666229627	-0.1196928314	-2.1414380446	 0.083061
159.3922	186.8501	219.6094	307.5106	343.8752	376.7082	468.3732	497.7223	542.1295	638.2137	671.7325	713.8386	776.5954	810.3777	850.0801	878.0162	898.8283	915.5849	930.6347	955.3666	980.5965	987.011	1028.6977	1060.8142	1073.722	1092.9687	1118.4052	1124.6204	1162.6234	1193.7798	1222.7376	1238.4971	1270.1003	1317.3226	1386.718	1409.4476	1417.3404	1430.2331	1453.5832	1479.4353	1490.8556	1502.5181	1700.2492	3021.7094	3081.9808	3099.9281	3125.6752	3131.6031	3135.7877	3138.3969	3158.8904	3169.1218	3233.5118	3492.0412
CC12CC1C1NC1C=C2	C[C@]12C[C@H]1[C@H]1N[C@H]1C=C2	
InChI=1S/C8H11N/c1-8-3-2-6-7(9-6)5(8)4-8/h2-3,5-7,9H,4H2,1H3	InChI=1S/C8H11N/c1-8-3-2-6-7(9-6)5(8)4-8/h2-3,5-7,9H,4H2,1H3/t5-,6-,7+,8-/m0/s1
