23
gdb 114548	2.60987	1.35496	1.08472	1.6121	84.73	-0.2374	0.0848	0.3222	1241.7211	0.206188	-388.287433	-388.278508	-388.277564	-388.320647	35.271	
C	-0.0051820527	 1.5868856898	 0.0266605134	-0.379808
C	-0.0579484747	 0.0551703026	-0.0038724147	-0.206761
C	 0.7152491527	-0.5491727619	-1.1779887556	 0.021742
C	 2.2745249698	-0.41760069	-1.1167849647	-0.242573
C	 2.6071292354	-1.9126203066	-1.2907528906	 0.077959
C	 1.6779674163	-2.6189494783	-0.2861191174	-0.274913
C	 0.6559106317	-2.0981735019	-1.3304474399	 0.397692
C	-0.6580315156	-2.7646842503	-1.6264837265	-0.502704
O	 1.6905342784	-2.3084295282	-2.3569031939	-0.335787
H	 1.0241593022	 1.9501239518	 0.114546205	 0.118718
H	-0.4276772838	 2.0129190576	-0.8900623135	 0.115428
H	-0.5726240901	 1.9867343309	 0.8728152511	 0.110783
H	 0.3303906456	-0.3403446627	 0.9435434839	 0.093406
H	-1.1073132945	-0.2627802786	-0.0598303011	 0.094826
H	 0.3374597107	-0.1139007139	-2.110301103	 0.071606
H	 2.6866848941	 0.1853853965	-1.9284958379	 0.103791
H	 2.6352580718	-0.0133961781	-0.1652534124	 0.092945
H	 3.6422993248	-2.2090191416	-1.4604718145	 0.073615
H	 1.7750349947	-3.7044909814	-0.332163963	 0.104532
H	 1.631115532	-2.2661602762	 0.7474524139	 0.090268
H	-1.3554141149	-2.6312122029	-0.7933793481	 0.122983
H	-1.113425898	-2.3336985776	-2.5247301975	 0.126442
H	-0.5197323059	-3.8365295689	-1.791919993	 0.125807
101.4478	146.2422	173.4261	203.7809	249.7307	274.9822	324.6914	381.0252	428.6077	484.4066	565.265	603.8812	699.4493	777.7611	800.0799	836.2306	854.9766	874.5725	902.0603	948.1455	957.7	968.0664	990.7276	1019.2242	1047.1183	1077.5888	1098.1297	1119.3849	1145.5225	1176.5415	1201.4364	1219.0391	1248.6067	1279.434	1282.017	1297.9044	1311.6935	1338.5082	1354.3038	1387.5922	1411.6995	1415.427	1480.7863	1481.2558	1485.9259	1493.295	1499.7837	1501.1266	1507.7852	3014.4322	3031.3883	3033.6789	3036.8908	3051.5528	3052.6667	3064.9459	3099.3169	3103.0872	3105.285	3109.8177	3117.2045	3120.2275	3137.3516
CCC1CC2CC1(C)O2	CC[C@H]1C[C@H]2C[C@]1(C)O2	
InChI=1S/C8H14O/c1-3-6-4-7-5-8(6,2)9-7/h6-7H,3-5H2,1-2H3	InChI=1S/C8H14O/c1-3-6-4-7-5-8(6,2)9-7/h6-7H,3-5H2,1-2H3/t6-,7-,8-/m0/s1
