15
gdb 17200	5.38472	1.61091	1.46145	1.4718	61.4	-0.2509	0.0728	0.3237	851.3391	0.119567	-399.689693	-399.683307	-399.682362	-399.719977	25.5	
O	 0.1057186633	 1.448919063	-0.0646092416	-0.456056
C	 0.0811643375	 0.0641908275	-0.0627155401	 0.236031
C	 0.0527823703	-0.6797399226	 1.3142450697	-0.208012
N	-1.360789912	-0.106055799	 1.4583663683	-0.36942
C	-1.3048310711	-0.6574232358	 0.029753875	-0.20801
C	-0.5458502026	-1.8743664448	 0.5663127595	 0.55202
C	-0.1254735348	-3.1874829074	 0.0991790726	-0.310848
O	-1.1146196894	-3.0187284897	 1.147570832	-0.294615
H	-0.533687871	 1.7106627584	 0.6157466856	 0.292495
H	 0.7832433307	-0.3050903486	-0.8111753453	 0.093353
H	 0.7748548911	-0.6515734494	 2.1298887071	 0.093945
H	-1.9260093542	-0.7243336556	 2.0450216073	 0.233338
H	-2.1584485561	-0.6033589692	-0.6454280789	 0.093945
H	-0.5135282142	-3.5871247181	-0.8362041414	 0.125916
H	 0.8228132925	-3.6091056087	 0.4281593202	 0.125916
159.9021	263.6755	284.7338	335.4502	448.1679	479.1403	589.5321	613.9694	726.7709	727.1936	794.3823	852.3946	878.9881	890.5004	910.9776	1010.0736	1042.0961	1087.351	1110.7042	1116.7728	1132.5876	1148.9423	1160.6719	1188.9991	1189.1679	1214.1076	1258.0726	1270.609	1344.6677	1449.4471	1467.3883	1553.7222	3088.9981	3116.4956	3124.7418	3130.6324	3176.7737	3428.0524	3717.0064
OC1C2NC1C21CO1	O[C@H]1[C@H]2N[C@@H]1[C@]12CO1	
InChI=1S/C5H7NO2/c7-2-3-5(1-8-5)4(2)6-3/h2-4,6-7H,1H2	InChI=1S/C5H7NO2/c7-2-3-5(1-8-5)4(2)6-3/h2-4,6-7H,1H2/t2-,3+,4-,5+
