18
gdb 91985	2.40599	1.68695	1.10758	2.3257	78.07	-0.217	0.0434	0.2604	1105.5242	0.146493	-401.882549	-401.87416	-401.873216	-401.915403	31.969	
C	-0.0582108474	 1.4612826302	 0.049705129	-0.323771
N	-0.0717192295	 0.0167647637	 0.0955291498	-0.051357
C	-1.3880923703	-0.6100268142	 0.0182927632	-0.193554
C	-1.1582894313	-2.0074382027	 0.5516610837	 0.028979
O	-0.0006772092	-2.6554554998	 0.0116301663	-0.237558
C	 0.1138988448	-2.0068155254	 1.2741965143	 0.023788
C	 0.6768991927	-0.5882395631	 1.2047930268	-0.193401
C	 2.1235831217	-0.5082152008	 1.0110079733	 0.347383
C	 3.316402427	-0.4396364797	 0.8851193905	-0.435403
H	 0.9761034945	 1.8171223664	 0.0426994246	 0.134998
H	-0.540789853	 1.8051915696	-0.870770518	 0.121939
H	-0.5808808685	 1.9325604533	 0.9051364751	 0.088309
H	-2.1469148996	-0.1179968569	 0.6586180557	 0.082847
H	-1.7598836282	-0.5896866527	-1.0132040842	 0.116728
H	-1.9960776577	-2.6508498349	 0.8034876112	 0.102763
H	 0.3470853103	-2.6350078629	 2.1283708245	 0.108922
H	 0.4349736082	-0.1151478015	 2.1800961725	 0.08186
H	 4.3695319154	-0.3884091387	 0.7583212918	 0.196528
94.3721	139.1926	158.4069	238.7281	309.6432	317.9645	336.8289	392.5296	491.7505	529.5662	619.7164	659.5964	677.6994	698.6974	836.8462	864.1695	881.4922	910.1186	969.4131	1012.1702	1058.052	1069.9953	1074.5678	1113.0782	1149.4914	1200.6189	1233.7876	1244.2072	1261.9279	1303.3842	1330.6085	1356.5081	1376.1988	1440.1959	1460.2798	1488.7004	1502.9956	1509.9361	2240.4107	2871.026	2909.2514	2917.4813	3044.9727	3063.3484	3110.6382	3158.1155	3171.1166	3503.1544
CN1CC2OC2C1C#C	CN1C[C@H]2O[C@H]2[C@H]1C#C	
InChI=1S/C7H9NO/c1-3-5-7-6(9-7)4-8(5)2/h1,5-7H,4H2,2H3	InChI=1S/C7H9NO/c1-3-5-7-6(9-7)4-8(5)2/h1,5-7H,4H2,2H3/t5-,6-,7+/m1/s1
