15
gdb 51279	5.36027	0.92628	0.79369	2.6666	72.12	-0.201	-0.0167	0.1843	1333.4274	0.11339	-454.015592	-454.007477	-454.006532	-454.048747	29.729	
O	-0.2982542056	 0.065159483	 0.0009058472	-0.309485
C	-0.0804602057	 1.2580062031	 0.0078901433	 0.141572
N	 1.1634484439	 1.8228188915	 0.000511473	-0.386513
C	 2.372521621	 1.1229169602	-0.0157276537	 0.322482
C	 2.5800304792	-0.2032629859	-0.028697207	-0.105521
N	 3.9642102912	-0.471499599	-0.0424915124	-0.324681
C	 4.7237348594	 0.676598005	-0.0388484544	 0.436858
O	 5.9301913024	 0.7495816205	-0.0484194622	-0.368413
C	 3.7010315305	 1.8332457978	-0.020718119	-0.47854
H	-0.8772995631	 2.0253602497	 0.0210489022	 0.086171
H	 1.2141340954	 2.8295286587	 0.0072387101	 0.257508
H	 1.8579680465	-1.0004050175	-0.0292833189	 0.165863
H	 4.373478725	-1.3905542212	-0.0534439827	 0.264515
H	 3.8579907452	 2.4698143765	-0.899245304	 0.149086
H	 3.8723989246	 2.4548556376	 0.8657861184	 0.1491
61.6514	126.9483	171.1159	216.9322	294.9387	358.5993	427.1786	485.3189	499.4461	548.4416	548.6807	584.1279	728.7897	839.2032	850.61	860.5366	942.9204	958.9926	1002.0953	1078.5228	1136.5456	1150.4483	1194.4744	1220.7873	1305.1876	1341.7268	1399.1625	1431.3729	1439.7064	1546.104	1707.2178	1791.0735	1841.106	2956.4943	3042.4815	3079.2677	3303.4863	3631.362	3669.3883
O=CNC1=CNC(=O)C1	O=CNC1=CNC(=O)C1	
InChI=1S/C5H6N2O2/c8-3-7-4-1-5(9)6-2-4/h2-3H,1H2,(H,6,9)(H,7,8)	InChI=1S/C5H6N2O2/c8-3-7-4-1-5(9)6-2-4/h2-3H,1H2,(H,6,9)(H,7,8)
