15
gdb 51483	3.23414	1.31316	1.21212	3.943	61.16	-0.2483	-0.0015	0.2468	1035.8885	0.111929	-494.875896	-494.868131	-494.867187	-494.909119	27.4	
O	 0.6132864747	 0.1312050066	 0.2741181913	-0.269784
C	 0.6095910701	 1.3157796156	 0.4010939106	 0.187228
O	 1.0280610059	 2.1465839121	-0.5919824481	-0.191637
C	 0.9769879091	 3.5210097632	-0.3152411921	 0.011192
C	 1.8473711097	 4.1028337513	 0.7945460797	-0.001632
O	 2.8408460884	 3.261744165	 1.306201852	-0.259055
C	 3.7144765838	 2.8940472	 0.2380568401	 0.027594
O	 3.4105870153	 3.7095708564	-0.8826524803	-0.248961
C	 2.2007686494	 4.3597920699	-0.6367966896	 0.026951
H	 0.2762219099	 1.8627282913	 1.3002686205	 0.095791
H	 0.0093973499	 3.9856241583	-0.4926974494	 0.118913
H	 1.4767577754	 4.8238878011	 1.5125958072	 0.124092
H	 4.7528398495	 3.0681802722	 0.5444941706	 0.122632
H	 3.5569086372	 1.8394948919	-0.0169185215	 0.130224
H	 2.1087673818	 5.304315615	-1.1577754409	 0.126452
66.7602	122.5376	137.3676	160.7233	235.9064	291.8985	535.61	590.3469	699.087	756.402	772.8962	776.0287	805.9923	945.0738	950.6146	1037.4714	1042.2156	1066.4531	1089.8939	1092.8355	1120.7918	1140.7808	1148.9746	1163.4811	1208.4249	1233.7025	1300.3779	1339.8027	1403.4812	1426.8592	1443.5592	1548.5867	1873.6461	2991.6661	3021.2006	3067.7917	3130.8282	3190.1389	3200.8012
O=COC1C2OCOC12	O=CO[C@H]1[C@H]2OCO[C@@H]12	
InChI=1S/C5H6O4/c6-1-7-3-4-5(3)9-2-8-4/h1,3-5H,2H2	InChI=1S/C5H6O4/c6-1-7-3-4-5(3)9-2-8-4/h1,3-5H,2H2/t3-,4+,5-
