17
gdb 43164	2.22094	1.91589	1.82288	4.1856	72.	-0.2149	-0.0203	0.1946	895.3298	0.139551	-418.036621	-418.029502	-418.028558	-418.068149	27.949	
O	 0.0010087733	 0.0350867884	 0.092299107	-0.327689
C	-0.0025992988	 1.2337406037	 0.02267805	 0.423328
C	-1.2247488161	 2.1734255604	 0.0074250282	-0.096228
C	-0.8275178537	 3.2055974479	 1.0847088393	-0.228191
C	 0.7489337111	 3.2180934352	 1.0776701418	-0.220458
C	 1.1550031694	 2.2190572135	-0.025743125	-0.082599
N	 1.1424199286	 2.8928546978	-1.3501116921	-0.258162
C	-0.0058109407	 3.1260596267	-1.8588682274	 0.08047
N	-1.2268013402	 2.7415642798	-1.3507507144	-0.296746
H	-2.161851379	 1.6476491173	 0.1871982	 0.098759
H	-1.2509893366	 4.1888619252	 0.864035548	 0.105021
H	-1.2090818993	 2.8972537572	 2.0626696629	 0.115069
H	 1.152602782	 4.2083778325	 0.8564467122	 0.118719
H	 1.1428252353	 2.9029184967	 2.0485344676	 0.111276
H	 2.1276930049	 1.7526743203	 0.1274460419	 0.092447
H	-0.0615719292	 3.6513226031	-2.8131081792	 0.119291
H	-2.0404669109	 3.2636019143	-1.6423052809	 0.245694
102.09	137.3277	299.3574	308.4488	386.9463	445.6442	471.2485	571.2344	597.6366	712.9114	759.1106	772.6217	814.8428	841.4972	875.3386	921.3031	963.2413	969.6755	1027.856	1035.0042	1060.1549	1132.9629	1162.8222	1189.5494	1210.8777	1231.3702	1260.3275	1295.5194	1314.5522	1328.0899	1337.4916	1397.9378	1471.1373	1483.1873	1497.8081	1706.2668	1869.142	3051.6675	3061.7192	3095.0552	3116.4795	3120.1394	3125.3915	3129.4448	3593.4906
O=C1C2CCC1N=CN2	O=C1[C@H]2CC[C@@H]1N=CN2	
InChI=1S/C6H8N2O/c9-6-4-1-2-5(6)8-3-7-4/h3-5H,1-2H2,(H,7,8)	InChI=1S/C6H8N2O/c9-6-4-1-2-5(6)8-3-7-4/h3-5H,1-2H2,(H,7,8)/t4-,5+
