20
gdb 5979	3.12947	1.16961	1.06375	2.9426	71.85	-0.2488	-0.0231	0.2257	1225.8884	0.172871	-386.157404	-386.147094	-386.14615	-386.192924	36.211	
C	-0.198412358	 1.6133804114	 0.0408861469	-0.381053
C	-0.0488563162	 0.0901769179	 0.1106829923	-0.201409
C	-1.379758718	-0.6348414345	-0.1224883805	-0.177045
C	-1.3129651123	-2.1804918446	-0.0135924738	 0.250485
C	-0.4987723527	-2.8289035429	-1.1374422916	-0.436217
O	-0.856678395	-2.5874146306	 1.2759462506	-0.471837
C	-2.7582717041	-2.6761925705	-0.0688256246	 0.153874
O	-3.3994343951	-2.7795409821	-1.0813384694	-0.263647
H	 0.758073014	 2.114245894	 0.2189294173	 0.114762
H	-0.5637722214	 1.9296006876	-0.9420340026	 0.12001
H	-0.9102937718	 1.9752567136	 0.7905451355	 0.119885
H	 0.6936041487	-0.2326811733	-0.6288832556	 0.102773
H	 0.346865887	-0.1853650831	 1.0966872621	 0.093812
H	-2.1070475163	-0.2741050111	 0.6168703249	 0.101475
H	-1.7827383446	-0.3808249912	-1.1099615471	 0.113349
H	 0.5203120372	-2.4317473367	-1.1729423954	 0.110784
H	-0.4403636896	-3.9092162391	-0.9785063803	 0.127994
H	-0.9797803207	-2.6473054276	-2.1014102102	 0.142992
H	 0.0861980716	-2.405926331	 1.3314907459	 0.285966
H	-3.1814058829	-2.9100291163	 0.9329604858	 0.093044
53.8102	68.8119	107.778	165.1505	219.2562	227.3103	250.4261	266.2035	290.223	315.2917	354.0923	432.5163	490.0858	637.2079	746.1181	769.1319	867.1819	885.3873	942.4075	946.5483	996.288	1047.2502	1051.4401	1088.6492	1133.4298	1192.2556	1210.1699	1283.7563	1304.0107	1337.0868	1361.3374	1389.0066	1399.9637	1407.8215	1412.8845	1474.598	1488.4217	1492.9989	1497.8176	1499.824	1509.5042	1837.6388	2897.8076	3016.1701	3022.4327	3032.849	3044.0369	3052.4067	3074.8782	3102.3212	3105.5238	3114.7095	3133.7433	3833.634
CCCC(C)(O)C=O	CCC[C@@](C)(O)C=O	
InChI=1S/C6H12O2/c1-3-4-6(2,8)5-7/h5,8H,3-4H2,1-2H3	InChI=1S/C6H12O2/c1-3-4-6(2,8)5-7/h5,8H,3-4H2,1-2H3/t6-/m1/s1
