13
gdb 24048	4.06718	1.09372	0.96141	5.1464	65.01	-0.2412	-0.0023	0.2389	1169.9317	0.089471	-452.758068	-452.75046	-452.749516	-452.791486	26.817	
N	 0.26944688	-0.9150573608	-0.6411337019	-0.310948
C	 0.2207982826	 0.1458640704	-0.1862725935	 0.27076
C	 0.1675672804	 1.4997644794	 0.3895981497	-0.292609
N	 1.4407896795	 2.2020835113	 0.307014931	-0.365108
C	 1.7803474528	 2.6422610265	-0.8211154291	 0.554506
O	 1.0959757136	 2.5463087741	-2.0035495997	-0.216161
C	 1.8669745487	 3.1846712778	-2.9610484224	-0.051779
C	 2.9669758767	 3.6461372009	-2.379090695	-0.041395
O	 2.9386814089	 3.3206672373	-1.0365480085	-0.209428
H	-0.6487206985	 2.0424940327	-0.1080564879	 0.152241
H	-0.1025134663	 1.4061287279	 1.4455997349	 0.160807
H	 1.4877572259	 3.2049186177	-3.966658614	 0.174487
H	 3.8245542258	 4.1892955246	-2.7325947036	 0.174627
35.8035	97.4415	187.3763	212.491	306.8156	370.7848	466.2845	567.6224	640.0538	714.3111	724.1689	760.8127	805.5111	872.8456	911.2831	919.0718	1008.7173	1049.8095	1096.5973	1122.1872	1140.058	1202.7077	1280.2483	1359.866	1370.3422	1476.6872	1678.4982	1809.8777	2359.4805	3010.5998	3082.8727	3303.1756	3328.9567
N#CCN=C1OC=CO1	N#CCN=c1occo1	
InChI=1S/C5H4N2O2/c6-1-2-7-5-8-3-4-9-5/h3-4H,2H2	InChI=1S/C5H4N2O2/c6-1-2-7-5-8-3-4-9-5/h3-4H,2H2
