20
gdb 7772	3.15422	1.8236	1.25099	0.9667	77.38	-0.2412	0.0239	0.2651	1027.8721	0.177153	-349.025453	-349.017297	-349.016353	-349.05758	31.467	
C	 0.005838376	 1.5146632691	 0.0862748199	-0.402709
C	 0.0383775123	-0.0022701831	-0.0177616158	 0.144365
C	 0.7746288471	-0.510981306	-1.2642719862	-0.253165
C	 1.0458803025	-1.9865448726	-1.1430110603	-0.085437
C	 0.9450510095	-2.6196731135	 0.0225780339	-0.05842
C	 0.6168692046	-1.900081664	 1.3065107593	 0.101404
C	 1.5781289756	-2.2661752984	 2.4359110312	-0.396255
O	 0.6768443525	-0.4889009883	 1.1576800284	-0.278134
H	 1.0236788778	 1.9110449931	 0.1568462826	 0.122845
H	-0.4768265565	 1.9511441732	-0.793655007	 0.111539
H	-0.5451208988	 1.8263054088	 0.9776387574	 0.120491
H	-0.9953679384	-0.3891220538	-0.0489917259	 0.062832
H	 0.1716318554	-0.3070953403	-2.1586565977	 0.100627
H	 1.7143902717	 0.0447996384	-1.3946891603	 0.108457
H	 1.3147589182	-2.531017024	-2.0446309224	 0.087513
H	 1.1039874191	-3.6925855751	 0.096651335	 0.086606
H	-0.4072520079	-2.185664513	 1.617354046	 0.068846
H	 2.6048349404	-2.0154552324	 2.1544908846	 0.124828
H	 1.3194508946	-1.7115176933	 3.3418143875	 0.122746
H	 1.5252516243	-3.3370680949	 2.6542464697	 0.111023
109.2401	154.2892	230.9117	238.3895	249.551	307.7488	389.4977	453.7239	473.1727	480.917	570.0718	688.1062	775.9111	835.2097	858.8448	901.2286	933.8384	979.3941	988.1853	997.1272	1068.6406	1090.1896	1110.8085	1132.8015	1139.3617	1191.3624	1213.9288	1238.457	1319.3912	1340.5179	1342.7096	1389.7182	1393.7306	1402.9096	1409.475	1422.0673	1469.0813	1484.164	1484.4493	1498.0992	1500.674	1724.9967	2905.3783	2946.8727	3005.4226	3040.4326	3042.765	3043.6617	3113.5226	3118.5481	3120.4462	3124.2059	3146.7921	3170.2883
CC1CC=CC(C)O1	C[C@H]1CC=C[C@@H](C)O1	
InChI=1S/C7H12O/c1-6-4-3-5-7(2)8-6/h3-4,6-7H,5H2,1-2H3	InChI=1S/C7H12O/c1-6-4-3-5-7(2)8-6/h3-4,6-7H,5H2,1-2H3/t6-,7+/m1/s1
