16
gdb 78832	3.60442	1.31596	1.1422	4.5179	72.41	-0.2686	0.0365	0.3051	1059.2763	0.125462	-400.708054	-400.700791	-400.699847	-400.739736	28.439	
O	-0.058012299	 1.4757939577	-0.2302182181	-0.430246
C	-0.0353953911	 0.0753077983	-0.1023919452	 0.122332
C	-1.3833371331	-0.6167754257	-0.094859976	-0.108501
C	-1.7811978557	-0.8718963591	-1.5505917185	-0.060512
C	-0.815154286	-1.7974467421	-0.8572630485	-0.081178
C	 0.3090572742	-0.804927189	-1.3436954095	-0.121868
C	-0.6766318605	-0.2650873463	-2.4310658904	-0.161739
C	-0.5354026291	-0.9358341252	-3.7147012488	 0.265776
N	-0.4177209727	-1.4616858335	-4.7378219536	-0.331019
H	 0.8349689828	 1.8133154454	-0.1061509353	 0.287786
H	 0.5629961936	-0.2470573904	 0.7599043292	 0.080555
H	-2.1246967157	-0.6226209726	 0.69297105	 0.100691
H	-2.8081003519	-1.0600715973	-1.8314651168	 0.109775
H	-0.8319618532	-2.8568455532	-0.6567120699	 0.108641
H	 1.3340810676	-1.0522897713	-1.6073036938	 0.091758
H	-0.6776880402	 0.8203115141	-2.5692459049	 0.127749
122.5505	159.4043	223.2841	285.4813	306.8326	440.4571	526.4179	546.7912	587.7959	729.0385	787.5367	806.5498	819.8197	840.349	906.3336	927.8428	961.2554	976.3153	1016.0515	1025.5253	1035.7272	1044.2192	1073.4367	1133.9332	1143.9783	1170.2224	1194.2355	1219.8197	1230.4451	1273.908	1316.9435	1346.6708	1362.3019	1434.0395	2354.5581	3021.3626	3073.1078	3154.6166	3207.0763	3218.2977	3249.0441	3817.7952
OC1C2C3C2C1C3C#N	O[C@H]1[C@H]2[C@@H]3[C@H]2[C@H]1[C@H]3C#N	
InChI=1S/C7H7NO/c8-1-2-3-5-4(2)7(9)6(3)5/h2-7,9H	InChI=1S/C7H7NO/c8-1-2-3-5-4(2)7(9)6(3)5/h2-7,9H/t2-,3-,4+,5-,6-,7+/m0/s1
