20
gdb 66445	2.58293	1.69453	1.32614	2.1153	82.91	-0.1992	0.0762	0.2754	1070.5285	0.16871	-365.911259	-365.902365	-365.901421	-365.944121	34.106	
C	-0.0752790831	 1.4966942257	 0.04050814	-0.52791
C	-0.0030289443	 0.0068830293	-0.0103440459	 0.287048
C	 0.8868820227	-0.9821632742	-0.8107603389	-0.19285
N	 0.8276504106	-2.0090422617	 0.2953976963	-0.220127
C	-0.0710834291	-1.0489177212	 1.0692807263	-0.126316
C	-1.1282777807	-1.0477440652	-0.0108618471	 0.226602
C	-2.6104268795	-0.8749931064	 0.043258169	-0.527244
C	-0.1929589311	-2.0063731665	-0.8153267371	 0.308613
C	-0.4515349091	-3.1910766401	-1.6827852175	-0.525114
H	 0.8739591891	 1.9334566124	 0.3729056922	 0.126208
H	-0.3136248411	 1.9235147702	-0.9411034506	 0.121475
H	-0.8511168278	 1.8253220234	 0.7407296355	 0.122703
H	 1.7652891105	-0.8566296077	-1.4355915602	 0.086588
H	-0.1283503866	-0.9911247392	 2.150536006	 0.090244
H	-2.8819716542	-0.082835515	 0.7497559489	 0.123784
H	-3.0232120612	-0.5999721357	-0.9346777364	 0.121267
H	-3.1127821316	-1.7922948573	 0.3723638608	 0.12546
H	-0.9853351358	-2.9077613886	-2.5969474161	 0.119811
H	 0.4978090231	-3.654435862	-1.9697695633	 0.134557
H	-1.048671331	-3.9454430002	-1.158199672	 0.125202
166.6958	169.6846	184.9567	194.8267	197.2233	200.2732	295.9917	323.1645	395.3031	549.9045	626.2517	652.4548	672.4078	746.4428	756.5581	818.3712	842.1347	874.1332	941.4628	950.5603	970.7253	986.4787	1013.1668	1084.1396	1093.172	1101.5022	1130.6637	1145.2786	1187.6691	1201.5117	1269.7448	1349.334	1393.3871	1412.2551	1414.7161	1430.1393	1466.0591	1477.2428	1479.8005	1484.5617	1490.8865	1495.3288	1505.4859	3016.4424	3018.8583	3025.8964	3074.3885	3075.3122	3087.3783	3088.4757	3090.9668	3105.1831	3160.1497	3170.0045
CC12C3N4C1C2(C)C34C	C[C@@]12[C@H]3N4[C@@H]1[C@]2(C)[C@@]34C	
InChI=1S/C8H11N/c1-6-4-7(6,2)8(3)5(6)9(4)8/h4-5H,1-3H3	InChI=1S/C8H11N/c1-6-4-7(6,2)8(3)5(6)9(4)8/h4-5H,1-3H3/t4-,5+,6-,7-,8+,9?/m0/s1
