19
gdb 98629	4.02277	1.00981	0.92658	3.4272	77.07	-0.251	-0.0247	0.2264	1307.9691	0.159072	-423.009704	-423.001235	-423.00029	-423.0435	32.01	
O	 0.26095841	 1.3113724285	 0.0201380913	-0.422919
C	 0.0631282056	-0.0678524853	 0.0053296079	-0.132664
C	-1.4181810326	-0.416965696	 0.1328115649	 0.350053
O	-2.2191858432	 0.496935193	 0.2282592728	-0.355179
C	-1.7573713725	-1.8590147562	 0.1293462809	-0.108593
C	-2.8404549821	-2.5224272335	 0.9729226774	-0.074222
C	-4.0871236845	-1.6410390009	 1.1325805655	-0.222511
C	-4.229257469	-1.6037839061	-0.4240768461	-0.222536
C	-2.978141445	-2.4863270124	-0.5346774863	-0.074186
H	-0.6321585547	 1.6845231235	 0.1110179984	 0.292599
H	 0.4424842286	-0.5220263774	-0.9264096746	 0.113927
H	 0.6035778054	-0.5639862944	 0.8300043689	 0.113932
H	-0.8802292244	-2.4952591624	 0.0339886156	 0.094012
H	-2.5587663957	-3.3467298922	 1.617832465	 0.095251
H	-4.90465413	-2.1870280621	 1.6084298126	 0.104197
H	-3.9494464363	-0.6838914871	 1.6356695248	 0.124704
H	-5.1217455398	-2.1301975924	-0.7693989148	 0.104207
H	-4.1808550631	-0.6232663819	-0.8978320078	 0.124682
H	-2.8212847468	-3.2779188646	-1.2582326167	 0.095245
39.1474	118.5458	162.2953	204.2908	280.5347	325.6453	374.3564	422.4979	455.5775	571.3336	726.3477	726.5827	776.1951	777.3258	787.8069	893.5771	937.6004	937.831	965.6552	992.0362	1019.2942	1028.0533	1052.3676	1082.9868	1105.0498	1148.0449	1153.0742	1189.6568	1221.3878	1242.5729	1243.8502	1259.433	1305.6916	1305.8293	1348.7217	1436.5453	1459.935	1471.0933	1493.1453	1493.6881	1769.9757	2961.4427	2976.0479	3073.7094	3081.2014	3130.9666	3136.0359	3143.7062	3171.7604	3184.6345	3659.3465
OCC(=O)C1C2CCC12	OCC(=O)[C@H]1[C@H]2CC[C@@H]12	
InChI=1S/C7H10O2/c8-3-6(9)7-4-1-2-5(4)7/h4-5,7-8H,1-3H2	InChI=1S/C7H10O2/c8-3-6(9)7-4-1-2-5(4)7/h4-5,7-8H,1-3H2/t4-,5+,7-
