17
gdb 54432	2.49958	1.62545	1.2198	5.9626	69.54	-0.2263	0.0106	0.2368	1038.2185	0.137306	-455.127312	-455.11926	-455.118316	-455.159778	31.291	
N	 0.1384390425	 1.1438991026	 0.1059171776	-0.590556
H	-0.0967290243	 0.2347751745	-0.2799391587	 0.246232
H	 1.6060052819	 0.7628633615	 1.5682312872	 0.308611
H	 0.1223329463	 1.8241589791	-0.6479834757	 0.247599
C	-0.7165274721	 1.5043168536	 1.1892119957	 0.19956
C	-0.2852129622	 2.6126746519	 2.1038430016	-0.328888
C	-0.4216862108	 1.2188137176	 2.6672138706	 0.185683
N	-1.8476505769	 0.9986553836	 2.9640468723	-0.370244
C	-2.1594637567	 1.0629949223	 1.492794204	-0.221307
C	 0.674666774	 0.3841100774	 3.2015346125	 0.338267
O	 0.576475777	-0.2895021847	 4.1935343924	-0.34312
O	 1.804094373	 0.4006161089	 2.4541972221	-0.389568
H	 0.726935143	 2.966247464	 1.941637332	 0.131195
H	-0.9965121013	 3.353686504	 2.454569575	 0.133471
H	-1.9872351861	 0.0683747851	 3.3460908981	 0.238464
H	-2.9713382651	 1.7525558916	 1.2364903954	 0.110082
H	-2.3717127021	 0.078997627	 1.057648788	 0.10452
98.7795	151.1758	171.2287	275.2392	349.7488	355.1462	398.3079	418.0371	504.3404	557.9765	642.9786	715.8387	723.3462	756.1505	787.3337	824.4255	834.7344	882.0577	954.7417	963.6386	996.9591	1028.4878	1076.981	1105.5433	1133.3892	1158.2855	1229.5542	1283.3463	1284.8815	1306.928	1371.6648	1393.8761	1431.4922	1483.5119	1509.1006	1656.4487	1847.5651	3023.278	3073.8001	3130.3528	3228.8221	3490.2563	3528.9836	3559.8621	3571.9647
[NH3+]C12CC1(NC2)C([O-])=O	N[C@]12C[C@]1(NC2)C(=O)O	
InChI=1S/C5H8N2O2/c6-4-1-5(4,3(8)9)7-2-4/h7H,1-2,6H2,(H,8,9)	InChI=1S/C5H8N2O2/c6-4-1-5(4,3(8)9)7-2-4/h7H,1-2,6H2,(H,8,9)/t4-,5-/m0/s1
