17
gdb 90585	3.41995	1.36052	1.08006	2.504	75.38	-0.2328	-0.0299	0.2028	1114.7389	0.136531	-417.995901	-417.987941	-417.986997	-418.028643	29.539	
C	 0.1995057401	 1.1993295161	 0.2971599281	-0.331726
N	 0.0048446999	 0.1089127632	-0.6407323969	-0.123565
C	-1.1781672716	-0.8216102982	-0.5923774852	-0.210902
C	-0.2262812879	-1.969988833	-1.0680158705	-0.228406
C	 0.8399450617	-0.9986738641	-0.6836901032	 0.362148
N	 1.9213059665	-1.3773395606	-0.1245166997	-0.321436
C	 1.8500261404	-2.8530677789	-0.1572312961	-0.265134
C	 0.3302028283	-3.2020879936	-0.3198849572	 0.351368
O	-0.2301645024	-4.1890441434	 0.0587279125	-0.282316
H	 1.1643623411	 1.6711460084	 0.0983200156	 0.151813
H	-0.5865025831	 1.9463329531	 0.159915087	 0.12955
H	 0.1936086787	 0.8553075115	 1.3425537762	 0.12073
H	-1.554137223	-0.9596102165	 0.4281683919	 0.126694
H	-1.992335586	-0.5471782598	-1.2658655162	 0.126344
H	-0.3369204488	-2.2091105719	-2.128626452	 0.128905
H	 2.4183194023	-3.2963403567	-0.9876121828	 0.12923
H	 2.2439776038	-3.2803495058	 0.7697339283	 0.136702
84.5896	131.6804	162.7797	233.8921	254.9131	319.3834	408.519	527.5535	564.3733	583.3457	638.1395	735.4259	764.3768	847.9925	907.1484	931.9754	966.2367	1020.3486	1048.1166	1068.0779	1112.0022	1121.0271	1160.148	1175.0189	1182.4979	1221.9736	1249.3526	1269.3111	1278.8906	1388.1061	1451.2585	1466.4231	1486.6387	1495.5957	1505.8429	1737.891	1871.3073	2993.8465	3009.5075	3037.8953	3086.192	3089.2978	3091.8448	3115.7399	3133.4933
CN1CC2C1=NCC2=O	CN1C[C@H]2[C]1[N]CC2=O	
InChI=1S/C6H8N2O/c1-8-3-4-5(9)2-7-6(4)8/h4H,2-3H2,1H3	InChI=1S/C6H8N2O/c1-8-3-4-5(9)2-7-6(4)8/h4H,2-3H2,1H3/t4-/m1/s1
