17
gdb 44794	2.83137	1.52769	1.18146	2.4119	73.68	-0.2391	0.0097	0.2488	1057.5089	0.136917	-417.945199	-417.937503	-417.936559	-417.977864	29.425	
N	-0.1328967987	 1.2479928132	 0.1824292365	-0.56786
C	-0.0944323281	-0.0061272697	 0.1751177483	 0.396867
O	 0.986619878	-0.8783848749	 0.2358573362	-0.271123
C	 0.0980562389	-1.9938262166	-0.0577788869	 0.03474
C	-0.8679195704	-2.1509916018	 1.0565337177	-0.345209
C	-1.1172893929	-1.0816059094	-0.0203080675	 0.215736
C	-2.3559207875	-0.9858874213	-0.8319218778	-0.123864
C	-3.2172343448	 0.2233663592	-0.7449454867	-0.241428
N	-2.4474549032	-0.0575659763	-1.9698024485	-0.327051
H	 0.8001655972	 1.6523391989	 0.2772628728	 0.235341
H	 0.4422490515	-2.7256029867	-0.7750163515	 0.133996
H	-1.5443176637	-2.9981626316	 0.9841049415	 0.132865
H	-0.5802021735	-1.8708477666	 2.0650699575	 0.135629
H	-2.8358149006	-1.9455936213	-1.0152901441	 0.089123
H	-4.2945491445	 0.1231577793	-0.8429897809	 0.115975
H	-2.8764756828	 1.032516554	-0.1062941319	 0.14223
H	-1.6283320947	 0.5476367617	-1.9802243047	 0.244032
58.798	150.4399	171.1916	208.2453	356.0675	430.7322	462.2244	471.7747	642.3514	673.4804	757.0259	833.9056	849.6759	858.7947	864.7259	903.1935	927.8718	950.1128	972.402	1011.1713	1016.1646	1027.9406	1051.5358	1085.5271	1113.0976	1146.4011	1171.9654	1199.7013	1246.9225	1275.602	1297.6483	1307.8805	1376.6547	1445.5286	1487.29	1506.5938	1818.8222	3113.5968	3118.88	3121.8068	3208.7047	3212.4148	3224.6837	3479.9008	3490.1561
N=C1OC2CC12C1CN1	[NH][C]1O[C@H]2C[C@@]12[C@H]1CN1	
InChI=1S/C6H8N2O/c7-5-6(3-2-8-3)1-4(6)9-5/h3-4,7-8H,1-2H2	InChI=1S/C6H8N2O/c7-5-6(3-2-8-3)1-4(6)9-5/h3-4,7-8H,1-2H2/t3-,4+,6+/m1/s1
