25
gdb 62554	1.76195	1.55535	1.55107	0.2538	93.59	-0.2303	0.0817	0.312	1181.1504	0.22712	-352.345265	-352.334817	-352.333872	-352.379432	40.461	
C	 1.631908784	 1.904124086	-0.1767958398	-0.462106
C	 0.8287538302	 0.669787064	-0.5642778942	 0.232547
C	 0.145500828	 0.8834362419	-1.9095820504	-0.460417
C	 1.3018940223	-0.7482713733	-0.2733266558	 0.261423
C	 1.4630165081	-1.8355227984	-1.3027978143	-0.498216
C	 2.0628879801	-0.79381846	 1.0616501276	-0.284023
C	 0.8148407715	-0.2093860671	 1.7884137155	-0.284035
C	 0.0601385571	-0.1670754964	 0.4497432897	 0.261426
C	-1.4081716128	-0.4918218785	 0.3692155746	-0.498233
H	 2.1463309243	 1.8096669824	 0.7802157704	 0.11672
H	 2.3916347694	 2.1214627104	-0.9373376303	 0.10929
H	 0.9781059594	 2.7823278761	-0.1123275325	 0.109306
H	 0.8894177113	 1.0866387205	-2.688918065	 0.111945
H	-0.4472157632	 0.0292081863	-2.2400107607	 0.11605
H	-0.5252800766	 1.7495500949	-1.865124181	 0.111936
H	 2.4684210827	-1.8074158254	-1.7430332919	 0.116567
H	 1.3376611344	-2.8255825553	-0.848365907	 0.112021
H	 0.7469664582	-1.7570854809	-2.1240664727	 0.115738
H	 2.2747345355	-1.8199374702	 1.3748303744	 0.093757
H	 2.996087116	-0.2237452865	 1.1197186685	 0.090104
H	 0.3723069408	-0.9288382829	 2.4829757703	 0.093751
H	 0.9363773988	 0.7409516024	 2.3187905511	 0.090118
H	-2.0055454238	 0.2864770522	 0.8619931612	 0.116566
H	-1.7718409366	-0.5787064825	-0.6572099678	 0.115741
H	-1.6276349492	-1.4376487596	 0.8788138302	 0.112026
148.3233	153.7055	156.5495	161.6954	192.0755	200.1409	273.3844	291.4388	332.5991	333.2931	390.7778	391.0625	474.2578	517.4662	615.6395	642.7449	673.9129	702.1914	800.8548	896.6844	919.9759	954.4287	963.6652	989.8654	994.0991	1023.2543	1043.6581	1099.6832	1133.6581	1139.7102	1182.4969	1191.2071	1196.7909	1213.2862	1236.681	1250.0549	1296.0137	1316.9989	1402.3613	1409.275	1411.2214	1432.4813	1441.2292	1471.7067	1483.993	1485.6063	1489.7544	1491.3361	1495.7225	1500.6995	1511.9963	1515.5425	1524.5581	3016.9164	3017.9351	3022.5167	3029.0026	3037.9747	3045.3321	3066.3049	3067.4474	3072.6559	3078.3631	3079.7179	3097.6894	3114.7386	3119.5332	3131.3567	3134.7072
CC1(C)C2(C)CCC12C	CC1(C)[C@@]2(C)CC[C@@]12C	
InChI=1S/C9H16/c1-7(2)8(3)5-6-9(7,8)4/h5-6H2,1-4H3	InChI=1S/C9H16/c1-7(2)8(3)5-6-9(7,8)4/h5-6H2,1-4H3/t8-,9+
