20
gdb 38613	2.5755	2.22743	1.62757	1.5814	80.74	-0.2234	0.0826	0.306	905.9022	0.175025	-365.974638	-365.968125	-365.967181	-366.005011	28.265	
C	 0.0310602126	 1.4519434989	-0.0483472238	-0.403502
C	 1.34895269	 0.7128775795	 0.1015447494	-0.052526
C	 2.2234133413	 0.2021010909	-1.0403848159	-0.184306
N	 1.4865524559	-0.8897828192	-1.7095303004	-0.1113
C	 0.8909779065	-2.0031427486	-0.9041198389	-0.018932
C	 0.8955602677	-2.1276049179	 0.6360665834	-0.237007
C	-0.158200401	-1.0826793317	 1.1224485381	-0.293931
C	 0.0385256719	-0.0426193576	 0.0348605243	 0.320236
C	 0.0907797091	-0.8129161571	-1.2818305038	-0.109548
H	-0.2903201004	 2.0414695003	 0.8051985535	 0.113153
H	-0.2343957142	 1.8876273497	-1.0081994782	 0.11361
H	 1.8181103799	 0.8052860668	 1.0761718412	 0.084227
H	 2.4360579808	 0.9565307757	-1.8076829339	 0.106727
H	 3.1876748193	-0.1554209231	-0.6623187071	 0.104132
H	 0.860461832	-2.9245257828	-1.4766104822	 0.093299
H	 0.6359695628	-3.1520996889	 0.918817228	 0.099513
H	 1.8791290572	-1.915199689	 1.0689566175	 0.104619
H	-1.163768317	-1.5201996705	 1.1140014884	 0.096549
H	 0.0367661625	-0.7066413246	 2.1315099233	 0.095272
H	-0.7031026269	-0.7628325009	-2.0216798429	 0.079715
208.6218	228.4935	340.7298	371.1857	442.7667	517.1972	608.1304	676.0001	692.207	716.2462	799.4298	823.0936	831.8249	863.0909	887.9115	911.6195	918.2294	935.453	961.2891	1002.5646	1029.228	1044.9101	1079.0691	1083.1509	1095.0805	1108.5098	1127.045	1154.6233	1208.6618	1228.9742	1248.972	1267.6543	1293.2635	1299.6507	1302.5234	1329.9166	1340.0901	1370.9517	1402.6559	1480.0872	1487.9561	1498.2111	1502.7386	3027.5209	3030.8588	3044.4501	3067.3266	3080.599	3092.5069	3111.6592	3143.1483	3152.6162	3160.9086	3195.5619
C1C2CN3C4CCC12C34	C1[C@@H]2CN3[C@H]4CC[C@@]12[C@@H]34	
InChI=1S/C8H11N/c1-2-8-3-5(8)4-9-6(1)7(8)9/h5-7H,1-4H2	InChI=1S/C8H11N/c1-2-8-3-5(8)4-9-6(1)7(8)9/h5-7H,1-4H2/t5-,6+,7+,8-,9?/m1/s1
