19
gdb 79710	2.79536	1.73373	1.36557	2.111	74.83	-0.2088	0.0744	0.2832	988.2456	0.161027	-419.120468	-419.112925	-419.11198	-419.152453	30.553	
C	-0.1447407962	 1.5240621644	-0.0697987567	-0.309263
N	 0.042880872	 0.0731203929	-0.0538299668	-0.101457
C	 0.9275135071	-0.6859717431	-0.9747352975	-0.08119
C	 2.3796534004	-0.3644238247	-0.5580423936	-0.05334
N	 2.5254284059	 0.8936473213	 0.2085960012	-0.341213
C	 2.2244612492	-0.3682098063	 0.9219389764	-0.05334
C	 0.7176405631	-0.6910884025	 1.0267012029	-0.08119
C	 0.6371475226	-1.8926387815	 0.0034600449	 0.200306
O	-0.5982638542	-2.5134939364	-0.1276739996	-0.452723
H	 0.4017517717	 1.9911129864	-0.8923697576	 0.127462
H	-1.2128886522	 1.7528496788	-0.1813030769	 0.09589
H	 0.218826337	 1.9866230995	 0.8506748084	 0.127458
H	 0.6630263391	-0.7144600517	-2.0323513551	 0.072725
H	 3.2281085144	-0.7952210193	-1.0766533527	 0.092718
H	 3.5200221028	 1.0839171269	 0.3133753461	 0.230758
H	 2.9471066877	-0.8020784448	 1.6030860051	 0.092718
H	 0.2395277855	-0.7247842975	 2.0062876251	 0.072725
H	 1.403939205	-2.6658644516	 0.0818898731	 0.080566
H	-1.2299604509	-1.7818024009	-0.1920435766	 0.280389
64.3555	215.7368	254.8297	287.7544	316.2021	433.1745	463.8453	507.5767	591.3278	674.7312	706.41	719.8071	780.7242	842.2119	848.1817	877.188	890.1324	920.7774	935.6726	967.948	1030.0992	1061.2286	1100.0687	1113.5795	1117.2242	1132.0928	1148.6271	1186.8426	1194.3748	1223.151	1225.3175	1246.2987	1250.7027	1301.5657	1326.4987	1328.0903	1384.8434	1439.7255	1454.9627	1484.6033	1502.4407	3008.4693	3088.1599	3102.5281	3110.5471	3114.2274	3124.6936	3176.7947	3186.7467	3492.1552	3727.4626
CN1C2C3NC3C1C2O	CN1[C@H]2[C@H]3N[C@H]3[C@@H]1[C@H]2O	
InChI=1S/C6H10N2O/c1-8-4-2-3(7-2)5(8)6(4)9/h2-7,9H,1H3	InChI=1S/C6H10N2O/c1-8-4-2-3(7-2)5(8)6(4)9/h2-7,9H,1H3/t2-,3+,4-,5+,6-
