14
gdb 27004	3.32183	1.31548	0.97287	2.4284	67.92	-0.2128	-0.0058	0.2069	1122.5123	0.102461	-432.91001	-432.902068	-432.901124	-432.94316	28.719	
N	-0.036994971	 1.3368375626	-0.39405149	-0.60628
C	-0.049524787	-0.0198566621	-0.1322285716	 0.215751
C	-1.0859909346	-0.8980972661	 0.0006704888	 0.272739
C	-2.5734027019	-0.8305822608	-0.1178226811	-0.461573
C	-2.9826778226	 0.2259662234	-1.0453099918	 0.275824
N	-3.2638945182	 1.0837637428	-1.7667425097	-0.31428
O	-0.5439948901	-2.125738416	 0.3387831288	-0.185414
C	 0.7790923455	-1.9037292317	 0.3857486953	 0.073016
N	 1.141548389	-0.6916071581	 0.1180421243	-0.299143
H	 0.8561396358	 1.6481791504	-0.7493841644	 0.259599
H	-0.8117910618	 1.6758845125	-0.9486196167	 0.269131
H	-2.9567826328	-1.7888804606	-0.4882541365	 0.176082
H	-3.0689107527	-0.6504931489	 0.8475604129	 0.169799
H	 1.4075827823	-2.7438516073	 0.6364584117	 0.154749
47.8682	114.3234	205.4476	268.0318	311.5402	330.9163	378.1197	434.8274	486.0351	619.3982	650.1653	716.3907	739.8425	770.8611	839.3767	939.8362	943.1944	963.3514	1042.5322	1138.084	1176.6888	1227.7555	1267.0169	1320.5966	1341.1191	1429.1798	1462.6925	1559.3637	1640.0658	1703.5664	2362.6593	3000.4625	3060.3579	3275.8726	3552.1571	3655.6565
NC1=C(CC#N)OC=N1	Nc1c(CC#N)ocn1	
InChI=1S/C5H5N3O/c6-2-1-4-5(7)8-3-9-4/h3H,1,7H2	InChI=1S/C5H5N3O/c6-2-1-4-5(7)8-3-9-4/h3H,1,7H2
