17
gdb 32887	4.49594	0.79801	0.71389	1.7578	71.96	-0.1961	0.0299	0.2261	1534.412	0.1369	-455.181455	-455.172549	-455.171605	-455.216154	32.48	
O	 0.0543482466	 1.433750237	 0.1913800852	-0.414459
C	 0.0416831712	 0.0182481562	 0.2299571863	-0.055612
C	-1.3329111803	-0.5657724751	-0.1491218163	-0.324143
C	-1.3534933817	-2.0575587528	-0.0957731321	 0.343905
N	-0.7572747826	-2.8677558158	-0.957868155	-0.385531
C	-0.9944576836	-4.1313447555	-0.5002585593	 0.33883
O	-0.5260942341	-5.2166217537	-1.1554102171	-0.438456
C	-1.7385110903	-4.1192119902	 0.6505814589	-0.213312
N	-1.9548359127	-2.7690939934	 0.8918976949	-0.277166
H	-0.019679476	 1.7051912904	-0.7290790258	 0.284283
H	 0.8109513693	-0.4213009331	-0.4198000289	 0.113886
H	 0.2882675493	-0.2574222208	 1.2606179284	 0.112873
H	-2.0925187723	-0.1457062597	 0.5191571698	 0.105095
H	-1.5842169592	-0.2446740152	-1.1671841226	 0.118366
H	-0.05061806	-4.8791239721	-1.9240110676	 0.29902
H	-2.1244292283	-4.8974124156	 1.2836809637	 0.128519
H	-2.4773704854	-2.3858631505	 1.6612857775	 0.263901
33.9267	97.3639	99.6182	271.3452	299.9512	305.9762	354.0384	370.5758	378.7791	464.9737	515.7036	644.4795	664.8375	703.01	736.6232	781.6095	799.1283	1004.2467	1015.2689	1017.9712	1060.6694	1077.7908	1106.2825	1151.4032	1178.9673	1266.9639	1306.6635	1316.3146	1336.1479	1394.1505	1413.1311	1425.1532	1476.4581	1489.9511	1511.9699	1561.2634	1662.6202	3013.538	3033.0111	3069.6514	3092.2033	3297.3239	3668.0846	3805.9277	3817.0807
OCCC1=NC(O)=CN1	OCCc1nc(O)c[nH]1	
InChI=1S/C5H8N2O2/c8-2-1-4-6-3-5(9)7-4/h3,8-9H,1-2H2,(H,6,7)	InChI=1S/C5H8N2O2/c8-2-1-4-6-3-5(9)7-4/h3,8-9H,1-2H2,(H,6,7)
