17
gdb 56605	3.84903	0.97421	0.9088	2.2669	70.17	-0.2598	0.0342	0.2939	1300.6943	0.133125	-458.888439	-458.87905	-458.878106	-458.92307	34.264	
O	 0.136728089	 1.5253204809	-0.063365423	-0.416733
C	 0.092326195	 0.1094176196	-0.0271006708	-0.083964
C	 0.6252951464	-0.4965329476	-1.2520360946	 0.310354
C	 1.0779444656	-0.9874832937	-2.251130632	-0.437637
C	 0.8407518416	-0.4185861251	 1.2254885966	 0.085643
O	 2.1525211971	 0.1059890219	 1.2542153457	-0.447991
C	 0.1058280866	-0.0454184807	 2.5105884757	 0.051732
C	 0.7630966565	-0.1822408424	 3.8140215343	-0.193162
O	 0.6282304139	 1.1043206615	 3.1862990703	-0.238913
H	 1.073354588	 1.75604045	-0.1109941866	 0.286786
H	-0.9696107727	-0.152030393	 0.0646116372	 0.114261
H	 1.4718702768	-1.41863743	-3.1382370723	 0.198603
H	 0.9062824812	-1.511665246	 1.1528712085	 0.104355
H	 2.1087181479	 0.8578928287	 1.8667432876	 0.297815
H	-0.981768482	-0.0848744722	 2.4679531749	 0.108258
H	 0.1639948602	-0.319593148	 4.7113626761	 0.128277
H	 1.7798349689	-0.5667241438	 3.8562440325	 0.132316
55.5035	81.7509	126.5714	188.4501	227.4951	262.6268	316.4802	353.3692	376.9272	412.8998	565.665	629.812	631.3775	656.4853	671.0594	760.2846	801.0105	858.0049	886.5727	947.7438	988.82	1042.7755	1068.9349	1100.0775	1133.9401	1163.6688	1166.9779	1250.5313	1255.9259	1282.8694	1328.1934	1351.3276	1413.6583	1421.4657	1450.7944	1516.4071	2234.8327	3031.5625	3037.0397	3099.5293	3126.4206	3193.1528	3502.9203	3683.0393	3780.1677
OC(C#C)C(O)C1CO1	O[C@@H](C#C)[C@@H](O)[C@H]1CO1	
InChI=1S/C6H8O3/c1-2-4(7)6(8)5-3-9-5/h1,4-8H,3H2	InChI=1S/C6H8O3/c1-2-4(7)6(8)5-3-9-5/h1,4-8H,3H2/t4-,5+,6+/m0/s1
