21
gdb 85831	2.40952	1.30808	1.11445	4.6703	82.91	-0.2448	0.0264	0.2712	1225.4827	0.181468	-383.276656	-383.266776	-383.265832	-383.310882	37.09	
C	-0.8918963364	 1.0462978944	-0.0749693312	-0.400323
C	 0.1108998651	-0.088952305	 0.0373878558	 0.057234
N	 1.4053780386	 0.1495397812	-0.6474463249	-0.340217
C	 2.1615994227	-0.5036801364	 0.4457494143	 0.158953
C	 2.5465489703	-1.9688821051	 0.1966724085	-0.449989
C	 3.3593254307	 0.2542932828	 0.8423086085	 0.273613
N	 4.3042065038	 0.8342209005	 1.1696974949	-0.352776
C	 0.8967627597	-0.332114198	 1.3673398987	-0.048622
C	 0.9410076221	 0.8118439217	 2.3704680949	-0.413395
H	-0.4544376083	 1.9978889387	 0.2354238831	 0.129172
H	-1.2236216208	 1.1534150541	-1.1134033566	 0.117998
H	-1.7779905978	 0.8467700491	 0.5376522162	 0.114662
H	-0.3741235662	-1.0232905017	-0.2827841103	 0.066248
H	 1.5246837183	-0.27295404	-1.5629497697	 0.217763
H	 3.2720538964	-2.045226175	-0.6193720781	 0.134727
H	 2.9957390425	-2.4139826312	 1.0897641119	 0.13899
H	 1.6574908173	-2.5480315519	-0.0695513647	 0.124108
H	 0.6286211628	-1.2626958251	 1.8736631356	 0.079451
H	 1.2513332929	 1.7505962033	 1.9046970191	 0.144313
H	-0.0432680147	 0.9630419756	 2.8248416777	 0.116887
H	 1.6512313413	 0.5923635579	 3.1734307463	 0.131202
70.3044	139.5805	188.3761	215.0491	226.6241	240.3758	266.4176	267.0658	295.0408	390.8286	405.0422	479.4334	560.6123	581.5478	620.0611	711.6664	778.4451	804.8014	905.2137	939.1852	959.0663	998.2118	1023.0163	1054.9149	1075.5746	1113.2693	1142.7015	1169.0733	1186.3106	1237.0032	1251.6374	1308.0447	1364.564	1380.1397	1394.6231	1405.0235	1417.8831	1420.7856	1481.8959	1485.3045	1488.9765	1492.5126	1497.8315	1505.8343	2350.3695	2977.4274	3035.3419	3036.6595	3042.5063	3073.0296	3097.3784	3107.8479	3111.264	3116.9763	3122.6653	3129.8595	3514.2251
CC1NC(C)(C#N)C1C	C[C@H]1N[C@@](C)(C#N)[C@H]1C	
InChI=1S/C7H12N2/c1-5-6(2)9-7(5,3)4-8/h5-6,9H,1-3H3	InChI=1S/C7H12N2/c1-5-6(2)9-7(5,3)4-8/h5-6,9H,1-3H3/t5-,6+,7-/m0/s1
