17
gdb 48992	3.24692	1.48933	1.30824	2.5702	67.76	-0.2529	-0.0383	0.2146	991.0795	0.136679	-458.966595	-458.95926	-458.958316	-458.998603	28.245	
O	-0.7571862415	 1.0243514912	 0.4665253238	-0.259106
C	 0.3113152186	 0.8556064169	-0.0630164538	 0.079358
C	 1.4363391582	 1.8532357828	-0.011190737	 0.293814
C	 1.6059117999	 2.6755726896	 1.2759491358	-0.105483
O	 2.4753986956	 3.7498627938	 0.8565331218	-0.282123
C	 2.7488699081	 3.5123863591	-0.5286797237	 0.061041
C	 3.6124644165	 2.247718668	-0.6307095126	-0.084135
O	 2.6785233916	 1.1969026744	-0.2887100198	-0.326606
C	 1.4072945365	 2.9906615689	-1.0632398085	-0.27521
H	 0.5483455258	-0.0534408216	-0.6563758131	 0.097784
H	 0.6558277529	 3.0733763313	 1.6465872665	 0.123608
H	 2.0891454848	 2.0823955635	 2.0586208571	 0.115121
H	 3.1693580171	 4.4150909423	-0.9707372587	 0.092693
H	 4.0125622523	 2.0737450844	-1.6373042497	 0.105017
H	 4.4349492616	 2.266528935	 0.0908555424	 0.117984
H	 1.4386934946	 2.6139212327	-2.0872020003	 0.116275
H	 0.5862297876	 3.6947365278	-0.9268568102	 0.129968
78.2251	169.3733	231.5686	238.3448	392.8627	418.2632	452.7049	498.5076	604.6718	710.4381	778.7759	821.8513	863.8896	884.9676	920.6332	961.091	966.3539	976.5765	1001.4505	1025.375	1063.1528	1114.7631	1131.5662	1180.7113	1194.1349	1212.1352	1219.4745	1265.6207	1285.5389	1317.9141	1365.1298	1376.4362	1403.5525	1476.9595	1512.7002	1518.6781	1828.9286	2909.5605	3025.7289	3043.3705	3084.3837	3086.3253	3094.7701	3133.0699	3154.7041
O=CC12COC(CO1)C2	O=C[C@@]12CO[C@@H](CO1)C2	
InChI=1S/C6H8O3/c7-3-6-1-5(2-9-6)8-4-6/h3,5H,1-2,4H2	InChI=1S/C6H8O3/c7-3-6-1-5(2-9-6)8-4-6/h3,5H,1-2,4H2/t5-,6+/m1/s1
