19
gdb 9270	6.43691	0.77619	0.72596	4.058	72.93	-0.2832	0.0399	0.3231	1541.4239	0.164032	-365.087974	-365.078412	-365.077467	-365.122698	33.775	
C	 0.0232782709	 1.5762905235	-0.0867031698	-0.382111
C	 0.0017733832	 0.0489089335	 0.0080432401	-0.197699
C	-1.4154524763	-0.5341847342	 0.0357142624	 0.1327
O	-2.166466806	-0.1591743147	-1.118811121	-0.427647
C	-1.4093644913	-2.0581353875	 0.2167218742	-0.202765
C	-2.8395326368	-2.6287524805	 0.2697216261	-0.33966
C	-2.8627206524	-4.0867047227	 0.34060066	 0.254245
N	-2.861095183	-5.2411956102	 0.3949357196	-0.308308
H	 1.0474799521	 1.9524236249	-0.1625933224	 0.114978
H	-0.5360994999	 1.9184584093	-0.9612725292	 0.128088
H	-0.4357322365	 2.0309635548	 0.797858786	 0.118181
H	 0.5419170534	-0.3894084486	-0.8444666812	 0.090542
H	 0.5369445816	-0.2822383614	 0.9064911861	 0.103502
H	-1.967888407	-0.082191909	 0.8710931629	 0.090229
H	-1.6679814338	-0.4382566624	-1.8959867526	 0.280956
H	-0.8633912089	-2.5227103815	-0.6143332154	 0.1111
H	-0.8698296903	-2.3212555801	 1.132753439	 0.120196
H	-3.3752970942	-2.2282580462	 1.1384848426	 0.149461
H	-3.3912883048	-2.3000062671	-0.6163709975	 0.164011
60.9789	91.447	118.6794	134.3128	215.8443	224.8967	290.5416	338.2184	362.0682	397.6752	465.1657	498.0845	583.7619	766.6616	785.3692	862.4582	941.6925	957.3872	1000.3268	1012.8214	1057.0976	1086.8817	1109.6149	1145.4706	1178.3136	1260.7905	1262.0899	1299.0198	1328.3551	1362.6489	1379.1257	1392.6011	1410.0315	1422.6277	1469.396	1479.9838	1491.3509	1496.8519	1509.1232	2361.5322	3000.0079	3018.0068	3032.9811	3040.5098	3048.6442	3053.4389	3078.689	3099.9781	3106.279	3123.9814	3788.0579
CCC(O)CCC#N	CC[C@@H](O)CCC#N	
InChI=1S/C6H11NO/c1-2-6(8)4-3-5-7/h6,8H,2-4H2,1H3	InChI=1S/C6H11NO/c1-2-6(8)4-3-5-7/h6,8H,2-4H2,1H3/t6-/m1/s1
