18
gdb 95097	2.40664	1.56811	1.17017	3.7251	75.97	-0.2537	0.0278	0.2815	1091.4011	0.148572	-401.956852	-401.948707	-401.947763	-401.989425	31.164	
C	 0.007470881	 1.5795974183	-0.0211364141	-0.411257
C	 0.034355376	 0.0536050186	 0.0446230005	-0.072174
C	 0.7866718003	-0.6059863833	-1.1366296715	-0.112963
O	 1.3158514436	-1.8445833114	-0.6628040061	-0.250072
C	 1.5487725949	-1.7214595957	 0.7050073133	 0.080717
C	 2.2887617074	-0.5292814675	 1.2295397177	-0.367979
C	 0.7555239288	-0.5455472178	 1.2587148824	 0.152427
C	 0.0715122138	-0.5980376586	 2.5139518597	 0.206301
N	-0.4871841879	-0.6330436177	 3.5274087075	-0.35021
H	 1.020934823	 1.9942164598	-0.0095616229	 0.120607
H	-0.4855405478	 1.9210528393	-0.9371245361	 0.124573
H	-0.5391505839	 1.9984878034	 0.8283935058	 0.1404
H	-0.9936749457	-0.3250189709	 0.0693650129	 0.103233
H	 0.1396497937	-0.8249420239	-1.9891702649	 0.125152
H	 1.5979031254	 0.0487589474	-1.4864025077	 0.10348
H	 1.6074122794	-2.6786602964	 1.2078663774	 0.131869
H	 2.786390045	-0.6402465532	 2.1858152712	 0.143775
H	 2.7782661428	 0.1489178496	 0.5399635452	 0.132122
109.7466	147.5398	187.0283	228.0747	255.0182	314.7947	425.7471	463.5998	490.5686	561.6641	585.3096	646.3884	698.5938	833.6003	865.8081	904.0166	920.4847	953.7496	990.2418	1014.5173	1045.8341	1072.3874	1099.6461	1126.1849	1143.228	1180.2273	1227.1414	1247.5636	1267.0307	1319.4152	1358.5987	1376.7051	1413.6447	1415.6787	1472.0593	1494.6563	1500.3025	1526.6936	2345.5368	3000.6529	3036.6653	3045.6044	3100.5466	3105.6387	3115.6103	3144.5944	3201.4128	3235.6216
CC1COC2CC12C#N	C[C@H]1CO[C@H]2C[C@@]12C#N	
InChI=1S/C7H9NO/c1-5-3-9-6-2-7(5,6)4-8/h5-6H,2-3H2,1H3	InChI=1S/C7H9NO/c1-5-3-9-6-2-7(5,6)4-8/h5-6H,2-3H2,1H3/t5-,6-,7+/m0/s1
