20
gdb 63308	2.63897	1.46808	1.24319	4.1633	78.12	-0.2475	-0.0075	0.24	1103.0181	0.170589	-403.165939	-403.157411	-403.156467	-403.19872	33.528	
C	-0.1818728464	 1.6100382423	 0.0044581583	-0.431528
C	 0.0143470091	 0.0885614946	 0.0047210544	 0.285884
C	-1.3504986595	-0.6222309964	-0.0391096259	-0.432474
C	 0.9117415796	-0.4146913502	-1.1474028341	-0.394277
C	 1.8312234735	-1.4852274198	-0.5400404004	 0.389375
O	 2.524729383	-2.2518814781	-1.1439209603	-0.307934
N	 1.7546774358	-1.45446666	 0.8991535335	-0.141419
C	 2.2120826393	-0.127606118	 1.4103656066	-0.27551
C	 0.7723664554	-0.4039763811	 1.2473829592	-0.030864
H	 0.7762070903	 2.1381402986	 0.0380290944	 0.113664
H	-0.7144474624	 1.9356058501	-0.8954883782	 0.119473
H	-0.7704143892	 1.9295146135	 0.8714417155	 0.11742
H	-1.9022704887	-0.3449295838	-0.9432004569	 0.11778
H	-1.2311963224	-1.7107972873	-0.0359568732	 0.12835
H	-1.9644884188	-0.349429605	 0.8259239198	 0.11662
H	 0.3531021115	-0.8346936445	-1.9867654984	 0.135984
H	 1.5485280053	 0.3756517672	-1.5610337515	 0.130727
H	 2.672080569	-0.1695717549	 2.3922005655	 0.135872
H	 2.7069398184	 0.5393259797	 0.7087430884	 0.125782
H	 0.1809791073	-0.613517017	 2.1351918433	 0.097076
74.7328	174.7023	232.0455	251.2733	282.5363	324.9048	344.1702	358.3402	469.2469	494.0009	557.518	571.0159	662.2149	735.5474	781.9273	834.2014	876.9164	921.0183	943.5714	957.3243	976.3129	1005.1095	1042.9349	1061.5722	1100.7016	1119.6955	1139.9121	1175.4476	1213.3077	1246.9274	1256.4894	1283.0688	1292.4921	1384.3652	1402.6375	1425.8496	1461.0736	1484.3261	1490.5896	1504.0204	1508.6583	1511.5011	1867.4603	3026.8708	3030.9411	3051.4353	3094.8352	3099.9004	3102.0833	3104.1989	3109.3545	3114.4865	3140.8238	3203.3826
CC1(C)CC(=O)N2CC12	CC1(C)CC(=O)N2C[C@@H]12	
InChI=1S/C7H11NO/c1-7(2)3-6(9)8-4-5(7)8/h5H,3-4H2,1-2H3	InChI=1S/C7H11NO/c1-7(2)3-6(9)8-4-5(7)8/h5H,3-4H2,1-2H3/t5-,8?/m0/s1
