16
gdb 45845	2.31293	1.7023	1.04741	3.232	71.77	-0.2592	-0.0342	0.225	1093.9644	0.12613	-437.960464	-437.952849	-437.951905	-437.992905	28.926	
O	 0.0391258741	-0.078777594	-0.1494187063	-0.327177
C	-0.0556968481	 1.1177847632	-0.0029363665	 0.406448
C	-1.4022388255	 1.8260546893	 0.097963078	-0.365319
C	-1.5239540351	 2.7554311244	 1.2799455894	-0.065784
C	-0.7755018042	 3.8490851109	 1.3915183213	-0.065779
C	 0.2409028107	 4.2271583813	 0.3428843417	-0.365317
C	 1.3996148205	 3.2444350207	 0.2138279281	 0.406446
O	 2.555723338	 3.598667053	 0.2257800077	-0.327173
N	 1.1103141596	 1.88594145	 0.058277686	-0.344665
H	-1.5480417074	 2.3853675088	-0.8384623075	 0.138157
H	-2.150191092	 1.0339404331	 0.1196280267	 0.141513
H	-2.2360755353	 2.4886314573	 2.0539486888	 0.112494
H	-0.8626871734	 4.4954614325	 2.2586841909	 0.112495
H	-0.2418570765	 4.2942112852	-0.6437393941	 0.138151
H	 0.6978452649	 5.1956762133	 0.5441914316	 0.141515
H	 1.9487977099	 1.319886161	-0.0176317257	 0.263996
84.5403	120.2418	201.4992	314.0689	322.2778	418.6882	449.7236	545.2609	558.1031	569.4492	638.8119	686.4189	773.0104	786.305	866.1721	926.3239	932.4492	967.5408	984.6364	989.3276	1050.6429	1173.4288	1195.2325	1240.361	1286.6169	1315.1962	1316.4388	1342.9744	1398.3884	1436.4465	1458.5102	1476.2407	1717.1654	1802.1433	1805.2186	2998.7322	3008.6334	3136.1347	3137.1523	3175.0179	3196.3815	3562.6073
O=C1CC=CCC(=O)N1	O=C1CC=CCC(=O)N1	
InChI=1S/C6H7NO2/c8-5-3-1-2-4-6(9)7-5/h1-2H,3-4H2,(H,7,8,9)	InChI=1S/C6H7NO2/c8-5-3-1-2-4-6(9)7-5/h1-2H,3-4H2,(H,7,8,9)
