20
gdb 64507	3.48071	1.24828	1.12461	2.6797	78.73	-0.23	0.0801	0.3101	1160.2453	0.170815	-403.07547	-403.067098	-403.066154	-403.10838	32.326	
C	-0.2928958244	 1.6982852148	-0.7066820893	-0.485854
C	-0.141179917	 0.2726669342	-0.2126841279	 0.300997
C	-1.3781424093	-0.2008674012	 0.5070144524	 0.008157
C	-1.3388969241	-0.9950699413	 1.7391698561	-0.168023
O	-1.6489920031	 0.4018174545	 1.774673429	-0.2458
C	 0.6119637681	-0.7906300043	-0.9225788664	-0.063587
C	 1.8415036399	-0.2660768446	-1.6616614389	-0.267834
C	 2.27577425	 0.3469587358	-0.3057383048	-0.158992
N	 1.0942988054	-0.2462385838	 0.4173984375	-0.171195
H	 0.5263095793	 2.0332108738	-1.343861785	 0.121028
H	-1.217678244	 1.7888559617	-1.2866216643	 0.122128
H	-0.3715382428	 2.377757511	 0.1478015168	 0.144542
H	-2.2582226595	-0.2837830609	-0.1349209972	 0.090072
H	-2.1697578395	-1.6608067454	 1.9709960207	 0.104375
H	-0.3701927984	-1.2622811777	 2.1505013834	 0.137739
H	 0.2205337119	-1.800639112	-1.0116620249	 0.088833
H	 2.5070030513	-1.0654634173	-1.991720437	 0.11407
H	 1.6620593833	 0.4071737192	-2.5050032977	 0.10577
H	 3.1920392873	-0.0901214712	 0.0951576874	 0.114368
H	 2.3487885157	 1.4356301545	-0.2350182898	 0.109207
78.9123	153.6603	173.7282	214.7008	264.5401	319.0845	336.8164	428.6675	464.9738	576.9095	646.5455	761.2939	786.5686	816.7692	847.8797	868.5992	911.5966	953.0268	965.786	990.3425	1000.3091	1016.7911	1058.3264	1101.3618	1104.3369	1121.5076	1151.3189	1159.6481	1175.8949	1216.2357	1236.0496	1264.3829	1283.7036	1297.6538	1304.0498	1409.7162	1416.1057	1437.2043	1479.6044	1497.4242	1503.5417	1513.3973	1518.2641	3043.0103	3055.9434	3064.9489	3080.2284	3092.2806	3102.5549	3107.162	3124.1609	3137.614	3143.5482	3200.4203
CC1(C2CO2)C2CCN12	C[C@@]1([C@H]2CO2)[C@H]2CCN12	
InChI=1S/C7H11NO/c1-7(6-4-9-6)5-2-3-8(5)7/h5-6H,2-4H2,1H3	InChI=1S/C7H11NO/c1-7(6-4-9-6)5-2-3-8(5)7/h5-6H,2-4H2,1H3/t5-,6-,7+,8?/m1/s1
