20
gdb 84129	2.73023	1.34836	1.01329	1.8426	81.72	-0.2393	0.0112	0.2505	1226.5764	0.171444	-403.139833	-403.131117	-403.130173	-403.173244	33.755	
C	-0.1084235536	 1.4779605673	 0.013957325	-0.486724
C	 0.0027650416	-0.0129034153	-0.0208193409	 0.320809
C	-0.1620955482	-0.8085876012	-1.0822059293	-0.228843
C	 0.0134960436	-2.2681975082	-0.7660748051	 0.010397
O	 0.9716267361	-2.9311526244	-1.5943461012	-0.430029
C	 0.4068087062	-2.2486268142	 0.7340662096	 0.305657
C	 0.2083800313	-3.4444309214	 1.5836078234	-0.291562
N	 1.5634952434	-3.0459240365	 1.1630612372	-0.354654
C	 0.3019989178	-0.8070811297	 1.2321813658	-0.373254
H	 0.8204610907	 1.9315094259	 0.3820989348	 0.130354
H	-0.326444467	 1.892756752	-0.9736682809	 0.125516
H	-0.9015656803	 1.7968055137	 0.7020689309	 0.130057
H	-0.4021431897	-0.4714656817	-2.0853320636	 0.092286
H	-0.9079407244	-2.8411728152	-0.9274595702	 0.092842
H	 1.7384387551	-2.3492095538	-1.6582405459	 0.278834
H	 0.005656498	-3.33201574	 2.6461525406	 0.109708
H	-0.2405574722	-4.324833952	 1.1279240088	 0.109347
H	 1.8455692929	-3.6241815343	 0.3716297311	 0.232318
H	 1.2288070422	-0.4850856728	 1.7225853975	 0.118464
H	-0.5016118135	-0.6838085483	 1.9714210323	 0.108477
54.8294	140.1793	188.8191	249.7897	285.7136	301.4427	387.4772	398.4333	426.9693	466.2474	500.3148	555.4918	656.5601	775.3301	850.883	856.6595	878.4471	907.0807	944.0931	985.4875	999.2365	1011.1184	1027.6034	1060.1979	1077.366	1097.3527	1131.286	1188.4593	1196.6417	1248.5608	1265.7556	1271.2687	1300.1503	1312.4486	1346.2603	1399.463	1412.2372	1425.6047	1478.4024	1480.1282	1486.4683	1512.706	1715.7627	3011.7759	3020.4441	3029.1751	3050.5552	3067.3064	3092.476	3113.5777	3176.2944	3185.8059	3465.3272	3787.63
CC1=CC(O)C2(CN2)C1	CC1=C[C@@H](O)[C@]2(CN2)C1	
InChI=1S/C7H11NO/c1-5-2-6(9)7(3-5)4-8-7/h2,6,8-9H,3-4H2,1H3	InChI=1S/C7H11NO/c1-5-2-6(9)7(3-5)4-8-7/h2,6,8-9H,3-4H2,1H3/t6-,7-/m1/s1
