19
gdb 108183	3.25787	1.50892	1.38806	1.3419	75.26	-0.2383	0.0089	0.2472	1015.3141	0.160324	-423.015605	-423.007941	-423.006997	-423.047625	30.515	
C	-0.0667650844	 1.3776928835	-0.0468566662	-0.26379
O	-0.0384696651	-0.0429551022	-0.0892798257	-0.304497
C	 0.6867414776	-0.587786873	-1.1166708871	 0.498405
C	 0.5976578248	-2.1124190052	-1.2503702724	-0.272532
C	 1.4681143108	-2.0940931607	-2.5321419184	-0.110381
C	 0.6084064579	-1.0967686752	-3.3727816399	-0.070256
O	 0.1418160311	-0.1509104169	-2.4100675239	-0.311032
C	 2.6609414765	-1.2854277086	-2.0447273427	-0.080499
C	 2.1971744165	-0.359618844	-1.1993144673	-0.147194
H	 0.9336767205	 1.8008293872	 0.1148377369	 0.109082
H	-0.4854421509	 1.7918363422	-0.9690400536	 0.139388
H	-0.7025463224	 1.6470098839	 0.7986841576	 0.128038
H	 1.0647760771	-2.6439695015	-0.4212956139	 0.108559
H	-0.4315239283	-2.4477472916	-1.4010635491	 0.105766
H	 1.6773019103	-3.0424927706	-3.0247432278	 0.071689
H	 1.1920234676	-0.5922043887	-4.1517777459	 0.096089
H	-0.247706347	-1.6006536609	-3.8393398072	 0.099736
H	 3.6716353075	-1.3902870469	-2.4192563286	 0.100339
H	 2.7379396598	 0.4544121391	-0.7359482049	 0.10309
85.3278	163.274	209.2146	279.5019	375.6394	396.2312	440.7244	523.0129	529.1915	634.7788	670.4934	725.9619	794.4128	808.7868	862.8284	884.1531	923.2919	939.6409	948.3801	1003.4204	1033.899	1045.0837	1074.7626	1098.7846	1120.8272	1164.5482	1178.2145	1193.46	1216.6555	1233.1894	1268.2832	1296.092	1298.4836	1360.5311	1374.4768	1479.0397	1488.6565	1494.7793	1508.1824	1523.2313	1638.1449	3013.0578	3014.0015	3055.8745	3075.4424	3088.8849	3128.1745	3133.5021	3146.1981	3200.6527	3230.5273
COC12CC(CO1)C=C2	CO[C@@]12C[C@@H](CO1)C=C2	
InChI=1S/C7H10O2/c1-8-7-3-2-6(4-7)5-9-7/h2-3,6H,4-5H2,1H3	InChI=1S/C7H10O2/c1-8-7-3-2-6(4-7)5-9-7/h2-3,6H,4-5H2,1H3/t6-,7+/m0/s1
