18
gdb 89400	2.93386	1.41602	1.10681	4.3585	73.18	-0.2354	0.0266	0.2621	1118.4066	0.147822	-439.112914	-439.104376	-439.103431	-439.145806	32.199	
C	-0.0506319933	 1.3917136425	-0.0488365946	-0.341507
N	-0.0005527261	-0.0504715566	-0.0361014791	-0.086993
C	-1.1895759191	-0.8676137023	 0.1231523106	-0.244021
C	-0.6655066952	-2.3039152001	 0.0752374611	 0.384331
O	-1.3066696944	-3.2481471065	 0.8699400838	-0.462785
C	 0.0692226172	-2.7130648547	-1.164288143	-0.346184
C	 0.835340271	-2.2123845862	 0.0573647609	-0.215288
C	 1.1858323875	-0.7494345792	 0.0451983394	 0.429893
O	 2.2923687207	-0.2535590621	 0.0924655916	-0.400147
H	 0.9763995568	 1.7551126254	-0.1137256188	 0.165751
H	-0.6236679679	 1.762789841	-0.9072830714	 0.119827
H	-0.5111701367	 1.7844996753	 0.8675304759	 0.121358
H	-1.6729933457	-0.691734225	 1.0953471982	 0.115461
H	-1.9266486133	-0.6551582081	-0.6639538761	 0.10307
H	-2.0496789243	-3.6077768831	 0.3733049801	 0.288748
H	 0.1404273493	-3.7798313586	-1.3468894953	 0.124054
H	 0.0282521419	-2.0894522263	-2.0521056728	 0.123083
H	 1.4790474216	-2.8951769453	 0.5942515995	 0.121346
121.7199	144.6662	164.3593	213.8655	272.0559	285.033	339.69	374.1102	417.3596	487.1418	557.4595	650.9813	698.6963	755.265	793.1526	891.7615	929.7838	941.9313	984.8716	1034.3527	1044.5175	1067.791	1079.2415	1148.825	1156.1987	1201.0504	1233.3024	1255.1132	1304.6814	1309.2521	1324.1109	1404.1557	1426.5742	1445.3881	1485.533	1493.3104	1511.2666	1537.6563	1808.3424	2991.7982	3009.7095	3023.8193	3057.96	3125.1019	3142.4102	3216.3374	3224.1355	3800.4779
CN1CC2(O)CC2C1=O	CN1C[C@@]2(O)C[C@H]2C1=O	
InChI=1S/C6H9NO2/c1-7-3-6(9)2-4(6)5(7)8/h4,9H,2-3H2,1H3	InChI=1S/C6H9NO2/c1-7-3-6(9)2-4(6)5(7)8/h4,9H,2-3H2,1H3/t4-,6-/m0/s1
