17
gdb 41117	3.53379	1.92774	1.55442	1.6126	75.21	-0.221	0.0045	0.2255	865.3956	0.138288	-384.622736	-384.616681	-384.615737	-384.652713	26.142	
C	 0.0839193391	 1.4945604598	-0.1412076742	-0.183661
O	 1.4767689619	 1.3810671392	 0.2457821633	-0.304122
C	 1.3024387552	 0.0093065276	 0.6997813997	 0.105329
C	 1.7909165198	-1.0749502893	-0.2087753648	-0.109175
C	 0.6398899889	-2.143370053	-0.4311836884	-0.096873
C	-0.5701797131	-2.1797183833	 0.4498450241	-0.088765
C	-1.0722763337	-0.9419444651	 0.591071103	-0.222133
C	-0.0931946854	-0.0133156778	-0.0496069456	 0.248311
C	 0.6379612199	-0.8403582149	-1.1567899842	-0.104271
H	-0.4923360821	 2.065613557	 0.6009887799	 0.098777
H	-0.0362834003	 1.9584691623	-1.1266884845	 0.103764
H	 1.4086890896	-0.0648790253	 1.7862686828	 0.070873
H	 2.8119604489	-1.3683835004	-0.4232404418	 0.094661
H	 0.9892417645	-3.0397150068	-0.9302250472	 0.091256
H	-0.9446254514	-3.0828205055	 0.9150936273	 0.102153
H	-1.8975246771	-0.6424066848	 1.2243728181	 0.103974
H	 0.6095547552	-0.6820814698	-2.2288582976	 0.089901
226.6439	292.1656	370.1124	388.9384	517.7919	593.6982	676.2969	719.2245	730.0601	755.175	787.2542	822.6631	848.2459	858.4205	909.6338	955.6368	963.1984	971.3953	993.1988	1002.5144	1029.7157	1056.8549	1063.7145	1093.9264	1104.4345	1144.2678	1182.174	1200.0051	1235.3526	1255.7475	1303.0938	1322.7937	1349.518	1369.2549	1389.2558	1518.2804	1613.7692	2996.9862	3059.7085	3060.839	3170.7238	3178.5656	3190.8568	3203.0701	3226.2288
C1OC2C3C4C=CC12C34	C1O[C@@H]2[C@H]3[C@H]4C=C[C@@]12[C@@H]34	
InChI=1S/C8H8O/c1-2-8-3-9-7(8)5-4(1)6(5)8/h1-2,4-7H,3H2	InChI=1S/C8H8O/c1-2-8-3-9-7(8)5-4(1)6(5)8/h1-2,4-7H,3H2/t4-,5+,6-,7-,8+/m1/s1
