16
gdb 32671	2.96789	1.53415	1.09672	4.3601	72.48	-0.2646	-0.0633	0.2013	1082.6523	0.126604	-434.137031	-434.12926	-434.128316	-434.169754	28.451	
C	 0.0094546143	 1.561333549	-0.0354894801	-0.383243
C	-0.0207971186	 0.0379092416	 0.0807635607	-0.159454
N	-1.3885966217	-0.4989136966	 0.0743028612	-0.104992
C	-2.0043225772	-0.8844362916	 1.2050344808	 0.128379
N	-3.2176946997	-1.3568042793	 1.2618380134	-0.297981
C	-3.830771545	-1.4356774554	 0.0427556628	 0.082049
N	-3.3525497288	-1.1056438091	-1.1212127846	-0.30435
C	-2.0706198175	-0.5959835884	-1.1858679552	 0.45645
O	-1.5048256191	-0.2411828217	-2.1941256227	-0.381131
H	 1.0465857478	 1.9086994095	-0.0323972223	 0.130116
H	-0.4579896785	 1.8769598694	-0.9699568145	 0.164716
H	-0.5123566331	 2.0330538033	 0.8028340608	 0.123007
H	 0.4994132951	-0.4157396079	-0.7648609162	 0.154756
H	 0.4559764938	-0.2984585522	 1.0061607169	 0.116627
H	-1.4244158029	-0.7880466483	 2.1215920083	 0.141085
H	-4.8457622288	-1.8295102321	 0.0647403806	 0.133967
85.6221	101.7449	173.4134	229.239	328.9559	350.3498	438.3318	521.911	558.9954	569.778	642.9854	740.3963	792.6476	826.8851	909.512	977.272	980.0223	1027.7771	1040.6454	1096.9182	1125.881	1188.1283	1205.6045	1294.2581	1389.0106	1396.2548	1409.7634	1426.9719	1451.062	1473.8115	1490.4695	1508.5981	1539.8234	1663.8811	1810.1484	3048.2626	3063.7166	3112.8504	3129.1531	3147.934	3149.8149	3153.9638
CCN1C=NC=NC1=O	CCn1cncnc1=O	
InChI=1S/C5H7N3O/c1-2-8-4-6-3-7-5(8)9/h3-4H,2H2,1H3	InChI=1S/C5H7N3O/c1-2-8-4-6-3-7-5(8)9/h3-4H,2H2,1H3
