23
gdb 87164	3.27439	1.08148	0.92937	1.6895	86.07	-0.2539	0.0871	0.341	1380.2468	0.204459	-388.274804	-388.265009	-388.264065	-388.309384	36.854	
C	 0.0756316818	 1.364090527	-0.3175134579	-0.425965
C	 0.2428927122	-0.0840303835	 0.0673964096	 0.030487
O	 1.5787069704	-0.5702573467	 0.2710964148	-0.298982
C	 0.6683699949	-0.5856241055	 1.3885237907	 0.356159
C	 1.0227874495	 0.3471513238	 2.5277379957	-0.467855
C	 0.2392558096	-1.9686648937	 1.832969172	-0.014556
C	 0.0213321342	-3.0897382502	 0.779495246	-0.237792
C	 0.6955834305	-4.0888959332	 1.7566503944	-0.224063
C	 1.3088536242	-2.8798815929	 2.5106889028	-0.226826
H	 0.6915393839	 2.0287883473	 0.2904803369	 0.125558
H	 0.3590815479	 1.5077150007	-1.3657179832	 0.128988
H	-0.9725868809	 1.6654902692	-0.2127799218	 0.120142
H	-0.3706858768	-0.765121457	-0.5268844094	 0.081531
H	 1.4131011974	 1.3002573081	 2.1688297211	 0.126112
H	 0.1453744601	 0.5412739112	 3.1546097133	 0.117857
H	 1.7896367828	-0.1095321369	 3.1623428414	 0.12945
H	-0.6390012661	-1.8732491752	 2.4828289028	 0.067717
H	-1.0019688826	-3.29846786	 0.4578489582	 0.089141
H	 0.6477926181	-2.9094103633	-0.0980106004	 0.121155
H	-0.0405001512	-4.6166205031	 2.3701882717	 0.098441
H	 1.3842036505	-4.8231187408	 1.3325873302	 0.097428
H	 2.3090178337	-2.6405708403	 2.1372599959	 0.113633
H	 1.3365181057	-2.9161431352	 3.6023649452	 0.092239
76.8038	118.0088	147.5096	152.9426	161.7037	224.5505	276.8852	301.4187	349.8777	445.3013	477.5505	577.0516	592.0794	715.673	771.039	786.8225	834.4875	892.0072	908.7425	937.3943	954.2178	963.6334	989.2429	1018.1272	1037.7659	1055.535	1110.4395	1133.8516	1142.7371	1189.2399	1202.643	1227.929	1253.1474	1258.1522	1262.9273	1284.5368	1287.7744	1348.4213	1377.338	1405.1348	1416.0835	1460.9378	1475.5388	1476.6297	1485.7051	1486.7885	1499.858	1508.7654	1520.6939	3032.1093	3037.1183	3040.4773	3053.6804	3055.4966	3062.1513	3079.7539	3096.1099	3097.2906	3099.5847	3111.4477	3123.9701	3132.4998	3143.6747
CC1OC1(C)C1CCC1	C[C@H]1O[C@]1(C)C1CCC1	
InChI=1S/C8H14O/c1-6-8(2,9-6)7-4-3-5-7/h6-7H,3-5H2,1-2H3	InChI=1S/C8H14O/c1-6-8(2,9-6)7-4-3-5-7/h6-7H,3-5H2,1-2H3/t6-,8+/m1/s1
