22
gdb 120940	3.27513	0.93662	0.84751	1.6776	83.69	-0.2212	0.0782	0.2995	1484.168	0.193314	-404.296631	-404.286941	-404.285996	-404.331506	35.732	
C	-0.03040448	 1.3878703848	 0.1302955634	-0.222354
O	-0.0115187499	-0.0169663392	 0.1699299656	-0.235816
C	-1.2701242313	-0.5910653812	-0.1271821564	-0.073055
C	-1.1458134352	-2.0959583744	-0.0001741805	-0.045631
C	-0.9382019676	-2.7098928587	 1.4307901591	-0.227019
C	-2.2189247084	-3.5203642566	 1.2198651903	-0.10401
N	-3.3023273165	-2.5240427729	 1.0018879545	-0.371518
C	-2.434640584	-2.9352763307	-0.1340966513	 0.324268
C	-3.0029436141	-3.5113857207	-1.3942257738	-0.50972
H	 0.9743753401	 1.7386994262	 0.3799926588	 0.122299
H	-0.2993403632	 1.7670981215	-0.8693407552	 0.098461
H	-0.74463607	 1.8095611363	 0.8557450799	 0.102603
H	-2.0416677436	-0.2206255928	 0.5640092495	 0.106684
H	-1.5826002458	-0.3149490314	-1.1507891472	 0.073664
H	-0.3747973265	-2.4580598895	-0.6870436717	 0.075785
H	-0.0354606638	-3.3199368708	 1.4975676965	 0.101013
H	-0.9655939851	-2.0041639168	 2.2644266672	 0.108187
H	-2.4556710264	-4.5106892808	 1.5917381655	 0.087541
H	-4.1723563773	-3.0490050157	 0.9076341384	 0.22004
H	-3.4729426586	-2.7379202458	-2.0135727772	 0.127424
H	-2.2218737705	-3.9890239027	-1.995799828	 0.124927
H	-3.764370872	-4.2675965482	-1.1721054974	 0.116228
68.2523	92.3738	121.4908	168.303	209.4766	234.9564	258.0358	310.2018	345.7067	417.4282	484.0661	543.3151	631.1845	697.3679	836.6802	856.3366	887.0979	914.012	937.1112	972.0216	989.9485	1026.8056	1062.1579	1093.3335	1097.6277	1112.4969	1147.5624	1159.6046	1178.9952	1196.2413	1210.7128	1235.8739	1241.7547	1260.6555	1307.7011	1328.8979	1364.9032	1404.2621	1416.6976	1447.7046	1480.3237	1481.3054	1483.5001	1485.1776	1498.8586	1504.3807	1530.0259	2938.0351	2964.9808	3005.6892	3011.9848	3020.0771	3064.4785	3070.4448	3081.0192	3092.5292	3107.5521	3126.5951	3178.4177	3460.4407
COCC1CC2NC12C	COC[C@H]1C[C@H]2N[C@@]12C	
InChI=1S/C7H13NO/c1-7-5(4-9-2)3-6(7)8-7/h5-6,8H,3-4H2,1-2H3	InChI=1S/C7H13NO/c1-7-5(4-9-2)3-6(7)8-7/h5-6,8H,3-4H2,1-2H3/t5-,6-,7+/m1/s1
