19
gdb 51283	3.47938	1.03467	0.91051	2.5457	82.53	-0.2288	-0.0282	0.2006	1318.5357	0.159295	-385.900546	-385.892219	-385.891275	-385.934847	31.126	
O	 0.1388473358	-0.1576407538	-0.4587735345	-0.235874
C	 0.0681599003	 1.0185410307	-0.217045968	 0.15974
C	 1.2633572223	 1.9477027544	-0.0535267478	-0.382776
C	 1.285258427	 2.9551864069	-1.1702488326	 0.318773
C	 0.9999836748	 4.2605133638	-1.0883698869	-0.195231
C	 1.0674450901	 4.9540183387	-2.4322233306	-0.265086
C	 1.5619336532	 3.8569468944	-3.3764369747	-0.034108
C	 2.9060093871	 3.2367447404	-3.1025156822	-0.278868
C	 1.6512373246	 2.5708384149	-2.5702621471	-0.126773
H	-0.9154165344	 1.5326884508	-0.119110645	 0.079593
H	 1.1599874188	 2.4625242995	 0.9096478751	 0.117879
H	 2.1706274932	 1.3354258076	-0.0408547212	 0.125817
H	 0.7730040487	 4.7886615304	-0.1682753452	 0.089056
H	 0.0796461616	 5.3278944388	-2.7347343188	 0.109014
H	 1.7332508398	 5.8268176633	-2.4167729933	 0.110477
H	 1.1991686555	 3.845411474	-4.3971649224	 0.08785
H	 3.4070756866	 2.7616414625	-3.9394703923	 0.111761
H	 3.5695580472	 3.7106549276	-2.3855664576	 0.11061
H	 1.3589147878	 1.602918195	-2.9630498451	 0.098148
36.3945	54.5871	146.3183	253.5139	293.1484	313.6171	379.8159	474.6681	600.1635	624.8612	714.4559	775.3773	809.8775	822.6313	832.7138	874.48	898.7911	948.5092	988.3472	1001.0342	1021.0192	1053.6048	1061.4967	1073.6166	1098.0216	1101.9079	1162.585	1184.7589	1199.0345	1207.4589	1275.4247	1289.0593	1317.7956	1371.9574	1382.8453	1419.6286	1459.1794	1473.3671	1484.7817	1692.0203	1832.7808	2871.8324	3011.4572	3030.4971	3039.2772	3094.6516	3121.5309	3167.4353	3180.7123	3187.9884	3211.3809
O=CCC1=CCC2CC12	O=CCC1=CC[C@H]2C[C@@H]12	
InChI=1S/C8H10O/c9-4-3-6-1-2-7-5-8(6)7/h1,4,7-8H,2-3,5H2	InChI=1S/C8H10O/c9-4-3-6-1-2-7-5-8(6)7/h1,4,7-8H,2-3,5H2/t7-,8-/m0/s1
