16
gdb 35356	3.16673	1.40396	1.20201	3.6481	75.13	-0.2523	0.0013	0.2535	1053.0219	0.124804	-400.68624	-400.678777	-400.677833	-400.718284	28.906	
C	-0.4030797497	-1.215457728	-0.1652625609	-0.445182
C	-0.2386494877	-0.0318847384	-0.0390011884	 0.397719
C	-0.0217069204	 1.3911430998	 0.0834437174	-0.161101
O	 0.0474627872	 1.8283928176	 1.518006865	-0.271694
C	 1.3944152889	 2.0122127642	 1.3504519433	 0.438475
N	 2.4220065968	 1.8618814839	 2.0622830205	-0.303942
C	 3.4994067749	 1.6952608675	 1.0349106286	-0.156701
C	 2.7802608158	 1.2008786599	-0.281109398	-0.273675
C	 1.4424457042	 1.9350596785	-0.133556103	-0.1392
H	-0.55830538	-2.2614205931	-0.2693705528	 0.213688
H	-0.7952309336	 1.969105905	-0.4257828601	 0.126426
H	 4.0341825099	 2.6400547869	 0.8719541445	 0.109854
H	 4.2253993391	 0.9668190912	 1.4039489307	 0.119781
H	 3.3304471512	 1.4403666864	-1.1936738907	 0.106427
H	 2.6366702417	 0.1169799754	-0.2326818121	 0.127514
H	 1.4097216717	 2.8983453032	-0.6476679239	 0.111611
87.3983	138.3224	224.8845	288.7008	321.6539	451.1366	515.7981	558.3768	623.3064	640.7392	675.2356	683.9165	767.0301	774.7361	837.3712	869.201	907.5227	933.3805	989.6375	1008.42	1075.2098	1093.5715	1146.0988	1163.8495	1188.5114	1228.4183	1283.9268	1303.1123	1321.3811	1333.2738	1356.7337	1483.4064	1502.2409	1777.1952	2240.1283	3025.6349	3061.3203	3082.906	3097.7577	3099.4409	3121.3175	3500.4791
C#CC1OC2=NCCC12	C#C[C@H]1O[C]2[N]CC[C@@H]12	
InChI=1S/C7H7NO/c1-2-6-5-3-4-8-7(5)9-6/h1,5-6H,3-4H2	InChI=1S/C7H7NO/c1-2-6-5-3-4-8-7(5)9-6/h1,5-6H,3-4H2/t5-,6+/m0/s1
