23
gdb 67704	2.08942	1.87738	1.63115	0.1918	87.36	-0.2474	0.0786	0.326	1034.2369	0.209477	-351.179524	-351.171736	-351.170792	-351.211313	32.292	
C	-0.0250161037	 1.4874735562	-0.0068663377	-0.504693
C	 0.0044158313	-0.0186627608	-0.0012601379	 0.3526
C	-0.2873850943	-0.8904465308	-1.2018470653	-0.086323
C	 0.7684652082	-1.9846228326	-1.3395163929	-0.236381
C	 1.8161993603	-1.6482115264	-0.2484173177	-0.198199
C	 1.064263072	-0.8074902895	 0.8105003679	-0.090863
C	 0.2365764037	-1.6716079948	 1.7911985056	-0.198195
C	-1.0782023322	-2.0119392129	 1.0448993863	-0.236384
C	-1.2212458949	-0.9042647501	 0.0039483393	-0.08634
H	 0.909752375	 1.9080282457	-0.3973252927	 0.112433
H	-0.8410723482	 1.8624661527	-0.6336564943	 0.112304
H	-0.1723354515	 1.8920641369	 1.0019533175	 0.112432
H	-0.6869932779	-0.4419413745	-2.1065058007	 0.071798
H	 0.3435175757	-2.9856463373	-1.1991869022	 0.098233
H	 1.2120784414	-1.9756559483	-2.3395616895	 0.092944
H	 2.2955968064	-2.535358918	 0.178818551	 0.087114
H	 2.6098592985	-1.0354659515	-0.6908910834	 0.093404
H	 1.751118099	-0.1491377005	 1.3500047011	 0.060621
H	 0.7799922928	-2.557823838	 2.1357318786	 0.087115
H	 0.0000250534	-1.0741388789	 2.6790100945	 0.093405
H	-1.037614631	-3.0060797781	 0.584078484	 0.098233
H	-1.9354548445	-2.0221786149	 1.7245891302	 0.092944
H	-2.2020367994	-0.4643672335	-0.1502989316	 0.071798
118.4523	200.6951	216.6849	259.1109	273.7822	374.9083	472.0464	540.8838	557.1362	673.0562	696.9402	728.2294	784.9954	817.1056	836.4764	893.7004	895.3154	910.8808	927.9549	962.6081	974.4547	993.7534	1007.2918	1066.8875	1081.126	1092.2943	1106.0429	1126.0865	1152.4799	1176.4704	1196.7601	1232.3566	1246.7436	1265.0932	1286.1575	1294.0572	1314.0052	1323.5748	1334.7722	1353.1632	1358.9342	1415.9349	1448.0701	1480.086	1489.0587	1496.5668	1498.2521	1500.5902	1519.0612	3015.3321	3029.0466	3031.4385	3032.9996	3033.5861	3067.3598	3068.053	3071.1854	3071.76	3082.0569	3087.2003	3090.4118	3143.3066	3154.7411
CC12C3CCC1CCC23	C[C@@]12[C@H]3CC[C@@H]1CC[C@@H]23	
InChI=1S/C9H14/c1-9-6-2-4-7(9)8(9)5-3-6/h6-8H,2-5H2,1H3	InChI=1S/C9H14/c1-9-6-2-4-7(9)8(9)5-3-6/h6-8H,2-5H2,1H3/t6-,7+,8-,9+
