19
gdb 98153	2.59389	1.11678	0.97421	2.9192	77.73	-0.2617	-0.0303	0.2314	1298.7649	0.154697	-423.005626	-422.995161	-422.994216	-423.041076	38.303	
C	-0.1651399577	 1.5662369687	-0.117356568	-0.404689
C	 0.0132511417	 0.023089648	-0.0257724789	-0.072156
C	 0.7985684887	-0.3397438369	 1.2555886176	-0.425961
C	-1.3014908693	-0.6187640342	 0.008654677	 0.369309
C	-2.3797413732	-1.142407523	 0.084130596	-0.477989
C	 0.7564889695	-0.3922157868	-1.3157192521	 0.359379
O	 0.1686587278	-0.6225353031	-2.3478497073	-0.322908
C	 2.2819964713	-0.4526812793	-1.3185840297	-0.140849
O	 2.768338527	-0.6876273682	-2.6043621929	-0.42202
H	 0.8076394976	 2.0667778748	-0.1512386239	 0.122234
H	-0.7327164546	 1.8330906117	-1.0110811682	 0.148745
H	-0.7076833208	 1.9228993959	 0.7617664564	 0.135253
H	 0.2294719293	-0.0175767597	 2.130978605	 0.135808
H	 0.9542005293	-1.4185834143	 1.3354058498	 0.135521
H	 1.7702880396	 0.1613084311	 1.2827827898	 0.124393
H	-3.3327321781	-1.6089606316	 0.1302336904	 0.200464
H	 2.6825822178	 0.4893462218	-0.911596725	 0.118104
H	 2.5945513459	-1.246063583	-0.6194134418	 0.121947
H	 1.9770946683	-0.8183753618	-3.1524621242	 0.295414
37.2939	116.2216	142.9666	179.5243	218.7867	244.4431	256.0533	277.9675	325.6355	353.845	413.539	440.652	449.3083	524.0573	580.5614	625.0688	638.8371	649.4074	774.7985	841.8229	930.3909	958.6362	999.3908	1025.1348	1048.1166	1145.2035	1147.5673	1213.348	1256.6022	1266.9649	1313.5765	1393.0918	1417.51	1452.0912	1478.0444	1485.3393	1492.1654	1501.6081	1507.6449	1794.9146	2240.581	2974.5569	2996.2102	3043.2644	3047.5402	3118.4615	3122.8348	3127.2977	3139.493	3501.9935	3673.6061
CC(C)(C#C)C(=O)CO	CC(C)(C#C)C(=O)CO	
InChI=1S/C7H10O2/c1-4-7(2,3)6(9)5-8/h1,8H,5H2,2-3H3	InChI=1S/C7H10O2/c1-4-7(2,3)6(9)5-8/h1,8H,5H2,2-3H3
