18
gdb 67264	2.62063	2.30411	1.74907	0.9754	73.33	-0.2278	0.0648	0.2926	854.4933	0.149836	-401.875255	-401.868858	-401.867914	-401.905616	27.017	
C	-0.1240490311	 1.4962823662	 0.0069431038	-0.526923
C	-0.0472869113	 0.0011324893	 0.061958213	 0.324438
C	 0.8804038125	-0.8479199026	-0.9133028396	 0.040683
O	 1.8549517318	-1.0502508956	 0.1424827696	-0.300261
C	 0.7516362704	-0.892822799	 1.0435057391	 0.023077
C	-0.3421782301	-1.9247005958	 0.6252864043	-0.026877
C	-0.0309492447	-2.0875210297	-0.9038677427	-0.074949
C	-1.4408311439	-1.5037476657	-1.1392300016	-0.194832
N	-1.3066726203	-0.8188426451	 0.1935915722	-0.18553
H	 0.8812440516	 1.9294636289	-0.0144584431	 0.131138
H	-0.6555888576	 1.8262022679	-0.8932897566	 0.122274
H	-0.6583646832	 1.8910951647	 0.8759334169	 0.131571
H	 1.3077481913	-0.4870232488	-1.8479162518	 0.082317
H	 1.016165718	-0.7026655433	 2.082050521	 0.088337
H	-0.7181684379	-2.7464599074	 1.2312812123	 0.07886
H	 0.3436912552	-3.0006696077	-1.366135458	 0.074286
H	-1.5993489113	-0.8386426208	-1.996328975	 0.100298
H	-2.2437813396	-2.2447940357	-1.0997292839	 0.112095
208.0166	228.492	266.5751	376.7086	478.1999	541.5313	619.0712	707.0398	733.7602	794.2747	829.9339	839.9288	868.4404	880.2294	892.225	913.9285	935.3047	954.7264	976.7682	1011.6018	1029.1155	1038.3434	1113.3307	1135.7891	1143.2398	1150.4025	1176.5129	1198.4476	1214.0971	1225.3571	1256.0926	1272.7412	1284.5284	1319.6227	1362.4984	1413.0215	1481.3018	1491.2683	1505.297	3030.1743	3034.6533	3095.6479	3099.2177	3113.143	3115.7654	3132.632	3135.2782	3146.3064
CC12C3OC1C1C3CN21	C[C@@]12[C@H]3O[C@@H]1[C@@H]1[C@H]3CN21	
InChI=1S/C7H9NO/c1-7-5-3-2-8(7)4(3)6(7)9-5/h3-6H,2H2,1H3	InChI=1S/C7H9NO/c1-7-5-3-2-8(7)4(3)6(7)9-5/h3-6H,2H2,1H3/t3-,4+,5+,6-,7-/m1/s1
