17
gdb 81207	3.18596	1.38583	1.29376	2.2246	74.31	-0.2431	-0.0241	0.219	1024.3808	0.135349	-421.720254	-421.712865	-421.711921	-421.751848	29.705	
O	-0.1768734225	 1.4417637593	-0.1019233109	-0.446347
C	-0.0205223905	 0.0567730457	 0.0531692353	 0.137625
C	 0.0076272282	-0.5728178109	 1.4671989765	-0.142815
C	-1.5220870068	-0.1552338512	 1.5945315448	-0.320895
C	-1.3500919877	-0.748651944	 0.1531294426	 0.25416
C	-1.7689681343	-1.5998471217	-1.0589953823	-0.440168
C	-0.4843203939	-2.4644088375	-0.6958118743	 0.338583
O	 0.1712736153	-3.2513532905	-1.3017404008	-0.279385
C	-0.5180728477	-1.8803329178	 0.767171074	-0.136428
H	 0.6905256295	 1.8530987564	-0.0369677136	 0.287781
H	 0.7239977893	-0.3443572127	-0.6482042072	 0.080783
H	 0.773803715	-0.4733022372	 2.239688661	 0.078757
H	-2.1240555458	-0.7457811347	 2.28862196	 0.100277
H	-1.7184169708	 0.9127261844	 1.6788689898	 0.122858
H	-2.6714189645	-2.1993247572	-0.8991963768	 0.133715
H	-1.8058892271	-1.1405556505	-2.0495072783	 0.131288
H	-1.0663327156	-2.5680669798	 1.4200323801	 0.100211
109.0703	228.2264	267.9965	274.0041	334.56	410.5124	462.7829	501.5407	563.4012	626.3586	667.7969	748.6806	798.3755	830.3666	867.0589	889.8751	922.663	965.2283	984.8687	1017.6366	1041.4599	1065.1906	1069.6944	1121.3818	1144.9544	1171.9923	1184.2628	1196.5709	1199.9265	1217.567	1248.8993	1295.6088	1309.9493	1444.089	1449.1317	1504.9688	1891.6424	3011.1306	3052.2246	3057.7988	3073.5905	3087.547	3119.5007	3158.0547	3823.421
OC1C2CC11CC(=O)C21	O[C@H]1[C@H]2C[C@]31CC(=O)[C@@H]23	
InChI=1S/C7H8O2/c8-4-2-7-1-3(5(4)7)6(7)9/h3,5-6,9H,1-2H2	InChI=1S/C7H8O2/c8-4-2-7-1-3(5(4)7)6(7)9/h3,5-6,9H,1-2H2/t3-,5+,6-,7-/m0/s1
