20
gdb 116606	2.99645	0.97307	0.89876	0.9647	79.22	-0.2513	0.0219	0.2732	1433.9412	0.168425	-440.283979	-440.273716	-440.272771	-440.32016	36.399	
C	-0.2177153687	 1.4247703351	-0.1958843229	-0.362084
C	 0.1866301452	-0.0198169599	 0.0988299951	-0.149993
N	 0.8626197433	-0.6032207701	-1.0587983709	-0.350085
C	 1.9444950859	-1.2104194351	-0.9092685035	 0.41959
O	 2.6999520146	-1.4869596858	 0.2151872562	-0.272651
C	 3.7705080195	-2.0642081444	-0.6007371463	-0.102499
C	 2.9299777191	-1.8475844405	-1.8810762626	 0.233488
C	 2.4374597584	-3.0922826596	-2.6062588573	-0.443315
O	 3.5416333801	-0.9257079693	-2.761367643	-0.468729
H	 0.6652186085	 2.0497048516	-0.3624058123	 0.118111
H	-0.8401659393	 1.4735264927	-1.0940041057	 0.122739
H	-0.7809364852	 1.8459168212	 0.6428355688	 0.109886
H	 0.8030195614	-0.0662355839	 1.0060399183	 0.112084
H	-0.7151608686	-0.615467227	 0.2907330572	 0.109427
H	 4.6740120112	-1.4535640156	-0.5570239163	 0.129758
H	 3.9714882418	-3.0969410441	-0.3078825324	 0.117384
H	 2.0251887241	-3.8260538723	-1.9069001502	 0.123842
H	 1.6491393067	-2.8217250033	-3.3154270049	 0.131719
H	 3.2621914893	-3.5510803666	-3.1594849199	 0.128394
H	 2.832700933	-0.4333484032	-3.1916528276	 0.292934
30.1581	86.739	106.1189	147.0071	191.7025	226.4834	242.9123	284.0968	311.3555	354.7113	384.2277	453.1171	583.3221	672.7984	717.221	775.0658	822.5835	893.2054	910.8161	939.0236	966.4664	983.235	1064.4575	1089.6841	1121.2929	1130.9314	1153.1622	1174.136	1225.1205	1244.331	1301.6673	1348.3765	1374.9208	1383.2661	1405.8743	1407.082	1487.0606	1488.2371	1489.1386	1492.4637	1506.2974	1509.4566	1844.2132	3011.635	3038.3597	3038.5703	3047.1879	3070.9956	3110.0919	3113.5097	3117.6906	3119.3729	3139.406	3799.6296
CCN=C1OCC1(C)O	CCN=C1OC[C@]1(C)O	
InChI=1S/C6H11NO2/c1-3-7-5-6(2,8)4-9-5/h8H,3-4H2,1-2H3	InChI=1S/C6H11NO2/c1-3-7-5-6(2,8)4-9-5/h8H,3-4H2,1-2H3/t6-/m0/s1
