14
gdb 20444	6.35997	1.40409	1.24388	5.9345	63.94	-0.2442	-0.0007	0.2435	935.604	0.110187	-374.868187	-374.861658	-374.860714	-374.899663	23.795	
C	 0.0598092501	 1.569573832	 0.0069164124	-0.225076
N	 1.2446639703	 0.7103487616	-0.0656023019	-0.292796
C	-0.0783877255	 0.0796931942	 0.0291427467	-0.168654
C	-0.3439041222	-0.6611465794	 1.2756722481	 0.386759
C	 0.4104106589	-0.8995544089	 2.4026487711	-0.148219
N	-0.3247070346	-1.637031671	 3.2814400819	-0.184849
N	-1.4957236489	-1.8752032815	 2.7686769873	-0.11595
N	-1.5162967862	-1.2862573823	 1.5532863464	-0.260207
H	-0.0448342717	 2.1222596569	 0.9354846872	 0.135712
H	-0.2704447663	 2.0952023683	-0.8854346123	 0.120615
H	 1.5933306722	 0.6551530973	-1.0181035989	 0.242688
H	-0.4917838458	-0.3701109422	-0.8724250065	 0.096985
H	 1.4204704896	-0.5897554898	 2.6103164941	 0.136843
H	-2.3497908999	-1.350606935	 0.9907806844	 0.276149
53.3393	155.6368	182.7356	386.2581	449.8933	570.3233	646.4235	710.8278	728.1545	856.8591	870.7662	899.0206	912.0091	970.4979	995.8074	1057.9076	1065.5628	1096.9317	1120.7539	1129.3151	1190.2627	1210.1044	1235.2303	1286.2481	1328.5526	1353.5013	1430.4161	1456.1961	1508.8701	1616.989	3110.0825	3114.686	3204.5868	3288.7078	3518.2864	3654.5493
C1NC1C1=CN=NN1	C1N[C@H]1c1cnn[nH]1	
InChI=1S/C4H6N4/c1-3(5-1)4-2-6-8-7-4/h2-3,5H,1H2,(H,6,7,8)	InChI=1S/C4H6N4/c1-3(5-1)4-2-6-8-7-4/h2-3,5H,1H2,(H,6,7,8)/t3-/m1/s1
