20
gdb 80994	2.61976	1.56974	1.23259	3.4061	80.82	-0.2489	0.0363	0.2852	1098.29	0.171494	-403.155885	-403.14759	-403.146645	-403.188173	32.99	
C	-0.1839478803	 1.5403186432	-0.0786686169	-0.442185
C	 0.0197879412	 0.0338936789	-0.0100054429	-0.005784
C	 1.1985138321	-0.5917120358	-0.8541746652	-0.142852
C	 2.1441473557	-0.2038439875	 0.3338384719	-0.288003
C	 0.877444115	-0.566410862	 1.1480215914	 0.423931
C	 0.6720901055	-0.3114256547	 2.6122175714	-0.500224
O	 0.7588398079	-2.003689178	 0.854386253	-0.298079
C	 0.9755974999	-2.0402377419	-0.5087568717	 0.44501
N	 0.9739101852	-3.057785027	-1.2507627606	-0.583478
H	 0.7447399576	 2.1101031352	 0.0097459927	 0.121254
H	-0.648317106	 1.8139488021	-1.0316462217	 0.128722
H	-0.8562711544	 1.8735103295	 0.7195319314	 0.124153
H	-0.9416804681	-0.4755421339	-0.13246016	 0.087402
H	 1.3951440076	-0.3489558428	-1.8947646888	 0.092934
H	 3.0305056344	-0.8193606624	 0.5022603441	 0.113572
H	 2.4017392241	 0.8541090825	 0.3593350079	 0.110205
H	 0.7406984676	 0.7596082503	 2.8233001528	 0.125287
H	-0.3126720321	-0.6661509642	 2.9314946108	 0.133543
H	 1.43141155	-0.8297876176	 3.2054081796	 0.134604
H	 0.7830322271	-3.8990500043	-0.7023385692	 0.219988
158.7608	192.2644	197.5345	201.8001	256.4078	293.522	359.9417	474.8654	486.6989	515.0309	599.3012	653.8642	701.9602	800.5849	814.842	842.1783	875.7968	891.562	896.0672	938.7172	984.1601	1023.7827	1044.6885	1059.9406	1096.4091	1107.9828	1130.3158	1166.8081	1197.2203	1225.7531	1239.7445	1250.2512	1320.9438	1334.1434	1387.3022	1415.2472	1419.8546	1480.1998	1490.4796	1494.2581	1496.8973	1512.3588	1807.3196	3036.9932	3041.8563	3054.3498	3082.523	3097.0088	3113.6532	3114.7708	3118.477	3153.0516	3164.5526	3462.297
CC1C2CC1(C)OC2=N	C[C@H]1[C@H]2C[C@]1(C)O[C]2[NH]	
InChI=1S/C7H11NO/c1-4-5-3-7(4,2)9-6(5)8/h4-5,8H,3H2,1-2H3	InChI=1S/C7H11NO/c1-4-5-3-7(4,2)9-6(5)8/h4-5,8H,3H2,1-2H3/t4-,5+,7-/m0/s1
