23
gdb 101121	3.28914	1.02627	0.89776	1.2181	85.94	-0.2439	0.0723	0.3162	1416.9478	0.205114	-388.266176	-388.256476	-388.255532	-388.30085	36.934	
C	 0.0290378074	 1.5709256013	-0.1094374069	-0.38339
C	-0.0061805185	 0.0409304286	-0.0970871008	-0.191334
C	-1.4224682016	-0.5323905607	 0.059476602	-0.013837
O	-2.2871161364	-0.0953231348	-0.9869859516	-0.428698
C	-1.413225704	-2.0381558363	 0.1896288248	 0.406531
C	-1.5308533662	-2.9816765287	-0.9772001948	-0.336358
C	-2.5696948691	-3.0361000601	 0.1132921824	-0.106102
C	-2.0226161519	-3.8049123238	 1.3204022986	-0.222215
C	-0.8311605911	-2.7936539012	 1.3974151657	-0.298279
H	 1.0443016241	 1.9438421392	-0.2746212314	 0.108288
H	-0.6165341582	 1.9676339447	-0.8976769916	 0.124139
H	-0.3265809854	 1.9790003289	 0.8431543658	 0.114808
H	 0.4270836703	-0.3579339319	-1.0261274085	 0.087704
H	 0.6205416854	-0.3449059905	 0.7164529804	 0.10274
H	-1.868850049	-0.110907517	 0.9716636528	 0.081295
H	-1.8505816664	-0.294627377	-1.8226769846	 0.278131
H	-1.8817713813	-2.542001855	-1.9054230418	 0.097838
H	-0.8214646292	-3.796732096	-1.1096877683	 0.098201
H	-3.61340231	-2.8398860796	-0.1003131277	 0.090901
H	-2.6683695743	-3.7474286892	 2.1994163046	 0.1026
H	-1.7677070299	-4.8557424047	 1.1455472601	 0.09395
H	 0.1780425339	-3.2004163649	 1.2731563513	 0.092297
H	-0.8536426587	-2.2011082713	 2.3163925496	 0.100791
56.5942	96.7893	127.0182	196.5441	227.8422	250.7881	318.2215	322.178	326.8118	413.0093	473.2264	501.1891	702.4447	734.9536	782.1244	787.5584	835.6127	880.6748	901.3474	930.5125	959.8695	968.6457	987.4984	1015.4675	1035.8514	1061.1805	1080.3242	1096.5021	1104.4256	1127.5795	1156.2417	1202.6913	1223.9142	1242.5094	1254.8788	1274.3302	1289.2846	1316.8421	1336.8314	1380.8384	1398.258	1405.1568	1419.2806	1478.4549	1482.1166	1483.0342	1495.1706	1508.2239	1509.1904	2999.1029	3012.1174	3036.6845	3037.4015	3045.8722	3053.721	3086.2863	3097.1572	3101.4637	3108.1936	3118.8848	3183.3325	3194.051	3800.364
CCC(O)C12CC1CC2	CC[C@@H](O)[C@]12C[C@H]1CC2	
InChI=1S/C8H14O/c1-2-7(9)8-4-3-6(8)5-8/h6-7,9H,2-5H2,1H3	InChI=1S/C8H14O/c1-2-7(9)8-4-3-6(8)5-8/h6-7,9H,2-5H2,1H3/t6-,7-,8-/m1/s1
