18
gdb 90284	3.58072	1.23993	1.08201	5.1046	80.77	-0.2226	-0.0162	0.2064	1143.0839	0.14926	-401.958242	-401.950568	-401.949624	-401.990338	30.316	
C	-0.1896478757	 1.4476117763	-0.2609568799	-0.39971
C	-0.0741609804	-0.0444721257	-0.0007343645	 0.006589
N	 1.103304548	-0.7023374213	-0.6901194183	-0.381688
C	 1.8200298435	-0.6634397824	 0.4855726133	 0.391106
C	 3.0067679334	-0.4263389009	 1.0752257689	-0.388263
C	 2.7063050024	 0.0869499302	 2.4320730787	 0.393631
O	 3.4903929832	 0.3929436275	 3.3005422207	-0.345748
C	 1.1549508217	 0.3253915697	 2.5293024714	-0.375898
C	 0.6132287999	-0.485556103	 1.3530367745	-0.082464
H	 0.7455473458	 1.9662978931	-0.027240335	 0.1328
H	-0.4378900808	 1.6446061516	-1.3093441676	 0.123233
H	-0.9852257875	 1.8784915544	 0.3552997439	 0.133546
H	-1.0151581301	-0.5555953121	-0.2224826571	 0.089915
H	 1.4843056362	-0.3618802273	-1.5652069582	 0.242667
H	 4.0008890933	-0.4227241765	 0.6526605843	 0.104472
H	 0.7705393547	 0.033398634	 3.5086435064	 0.120332
H	 0.9892641583	 1.4026891046	 2.4160880201	 0.127037
H	 0.1888503741	-1.4387436422	 1.6782085783	 0.108444
93.2359	167.4302	214.5327	262.5347	384.1105	393.7696	444.4722	530.8247	543.3542	591.5881	620.8379	710.2829	760.9361	799.2502	800.8807	835.7035	857.5233	935.9955	955.8822	1033.8049	1064.2859	1095.7737	1114.4847	1130.7239	1178.1294	1183.4727	1208.3431	1229.7305	1251.819	1322.7988	1339.308	1349.3383	1384.1934	1414.131	1465.9194	1491.4116	1499.3749	1692.6134	1810.3263	3034.4241	3054.3518	3062.6265	3077.3953	3102.9836	3113.2807	3117.0553	3239.6867	3552.62
CC1NC2=CC(=O)CC12	C[C@H]1N[C]2[CH]C(=O)C[C@@H]12	
InChI=1S/C7H9NO/c1-4-6-2-5(9)3-7(6)8-4/h3-4,6,8H,2H2,1H3	InChI=1S/C7H9NO/c1-4-6-2-5(9)3-7(6)8-4/h3-4,6,8H,2H2,1H3/t4-,6+/m1/s1
