16
gdb 21991	3.8188	1.11681	0.8659	4.3549	82.17	-0.1658	0.0036	0.1694	1265.5883	0.126258	-434.058691	-434.050463	-434.049519	-434.091064	32.015	
N	 0.0885153754	 1.3908003582	 0.1337022616	-0.591924
C	-0.0201181416	-0.0026498412	 0.0272456424	 0.402823
C	-1.1733227315	-0.7087702846	 0.0103753269	-0.277237
C	-1.172946604	-2.1601820194	 0.0021512095	 0.372466
C	 0.1439295655	-2.7878727183	-0.0187838061	-0.213683
C	 1.2561023965	-2.0310463695	-0.0124007784	 0.002706
N	 1.2045603346	-0.6499966215	-0.0200120305	-0.381863
N	-2.3142868834	-2.776087224	-0.0020951377	-0.286852
O	-2.1220527126	-4.1843999949	-0.0240217744	-0.415971
H	 0.6635989589	 1.7983561254	-0.596431045	 0.247638
H	-0.8179594304	 1.8394611093	 0.1375971	 0.256322
H	-2.1260185122	-0.1938646207	-0.0118417512	 0.08919
H	 0.2142958535	-3.8645016249	-0.044447892	 0.121667
H	 2.2548493092	-2.4510134911	-0.0174777015	 0.123326
H	 2.0146737964	-0.127428826	 0.2719502857	 0.255137
H	-3.0301300744	-4.4995544469	-0.0374699093	 0.296253
123.7816	179.7848	230.2868	283.3178	294.2713	356.1779	371.3851	405.3026	449.4755	455.5109	536.8593	603.7133	649.8312	705.0323	764.057	786.1204	815.0787	854.956	910.5385	947.4054	966.2741	1004.5062	1093.8027	1154.8444	1232.2422	1243.0044	1290.2673	1365.2569	1419.2824	1441.7124	1516.5245	1635.5141	1647.2672	1672.0418	1736.8799	3203.217	3204.1758	3256.0268	3513.2691	3623.0706	3638.7292	3840.1339
NC1=CC(C=CN1)=NO	Nc1cc(=NO)cc[nH]1	
InChI=1S/C5H7N3O/c6-5-3-4(8-9)1-2-7-5/h1-3,9H,(H3,6,7,8)	InChI=1S/C5H7N3O/c6-5-3-4(8-9)1-2-7-5/h1-3,9H,(H3,6,7,8)
