21
gdb 103357	3.04963	1.40954	1.24737	1.7495	81.7	-0.2314	-0.0005	0.2308	1114.5382	0.181918	-387.043917	-387.035386	-387.034441	-387.076667	34.012	
C	 0.0857353665	 1.5308263018	 0.1736237851	-0.392595
C	-0.1006053622	 0.0394426729	-0.1378356605	-0.228676
C	 0.6625218157	-0.4649321869	-1.3746607357	 0.339861
C	 0.1751364773	 0.2264244854	-2.6436823827	-0.479965
C	 2.2147697157	-0.6717641077	-1.1117850831	-0.0233
O	 1.8620048502	-1.8386303031	-0.3014487297	-0.285585
C	 0.8603420952	-2.0397389749	-1.3502397428	-0.029693
C	 1.760451536	-2.2912909419	-2.5693984914	-0.086619
C	 2.6917598283	-1.3482885274	-2.4068661057	-0.084335
H	 1.1434262686	 1.7829630011	 0.3080900745	 0.114636
H	-0.312450201	 2.1752865612	-0.6157547523	 0.11601
H	-0.4323545116	 1.7929007977	 1.1012946451	 0.114915
H	 0.2122463144	-0.5495019004	 0.7265104042	 0.119859
H	-1.169804099	-0.1611611687	-0.2914860271	 0.087842
H	 0.3783986345	 1.3013117867	-2.6059660734	 0.119355
H	 0.6483406305	-0.1704898754	-3.5420747813	 0.118447
H	-0.9097389326	 0.106792821	-2.7462519667	 0.113178
H	 2.8480303727	 0.0579254683	-0.6071073493	 0.074915
H	 0.0661264471	-2.7411074615	-1.0926080523	 0.073263
H	 1.626479875	-3.0318937429	-3.3438390526	 0.109346
H	 3.5500603788	-1.0858559755	-3.0074317822	 0.109138
84.9638	156.7151	184.2726	225.1316	278.95	324.7429	381.6322	390.1566	510.6695	561.183	610.5038	630.5778	730.2888	752.2696	789.9837	835.5364	847.8097	875.7201	896.3763	909.2684	918.9992	944.4876	992.0691	1009.2023	1031.5242	1058.8418	1134.0413	1137.3257	1156.9104	1176.9005	1230.2555	1233.5593	1267.9656	1295.3827	1301.4985	1329.7689	1363.3948	1407.9642	1412.4226	1484.6613	1490.9946	1500.2776	1505.9597	1513.9302	1612.1543	3015.3757	3035.154	3037.2058	3091.6454	3097.1772	3100.9303	3117.8763	3118.731	3124.1184	3139.222	3230.445	3257.7256
CCC1(C)C2OC1C=C2	CC[C@@]1(C)[C@H]2O[C@@H]1C=C2	
InChI=1S/C8H12O/c1-3-8(2)6-4-5-7(8)9-6/h4-7H,3H2,1-2H3	InChI=1S/C8H12O/c1-3-8(2)6-4-5-7(8)9-6/h4-7H,3H2,1-2H3/t6-,7+,8-
