21
gdb 74415	2.71956	1.3921	1.06917	1.883	84.87	-0.229	0.0131	0.2421	1227.2289	0.180224	-387.107021	-387.097595	-387.096651	-387.140446	36.201	
C	 0.0714182892	 1.511900469	 0.0551462359	-0.485102
C	-0.0493137239	 0.0233808249	-0.011386578	 0.310049
C	-0.1297546058	-0.7397613823	-1.1067024843	-0.239261
C	-0.1483637981	-2.1958663935	-0.7585926882	 0.337449
C	-0.7462310221	-3.2093284152	-1.6933655528	-0.494657
O	 1.064811232	-2.601628612	-0.0601677885	-0.343098
C	-0.0938400916	-2.2687639802	 0.7200701901	 0.338225
C	-0.6549790119	-3.3642011189	 1.5854485923	-0.485524
C	-0.0561346087	-0.8314592492	 1.2447354604	-0.375267
H	 1.0197376783	 1.8108787199	 0.5198318015	 0.130102
H	 0.0250906281	 1.9639314736	-0.9392691782	 0.124443
H	-0.7264644787	 1.9492986451	 0.6690669408	 0.123092
H	-0.1413270194	-0.3748849433	-2.127948846	 0.08883
H	-0.1706320963	-3.2558944042	-2.6246470821	 0.128047
H	-0.7459444299	-4.2076641356	-1.2508083999	 0.127708
H	-1.7758204957	-2.9381312428	-1.9504800711	 0.122082
H	-0.671951432	-4.3181611341	 1.053876046	 0.127423
H	-0.0402834206	-3.4936579996	 2.483614933	 0.12661
H	-1.6732000212	-3.1237419034	 1.9094978625	 0.118025
H	 0.8330607142	-0.6570324419	 1.8640345913	 0.11751
H	-0.9284853458	-0.6115563462	 1.8757097751	 0.103314
139.7411	169.0991	170.3408	175.1223	219.0065	241.9032	251.4239	347.3663	388.5293	429.9699	464.4328	531.5782	566.8178	582.4205	710.073	729.5363	824.7382	865.2497	890.7743	915.7021	942.6507	974.3262	1016.829	1038.0482	1075.3962	1107.9351	1118.7844	1163.0543	1200.4166	1206.4421	1248.5233	1334.22	1338.1734	1410.3356	1411.6322	1413.7073	1443.9462	1460.81	1476.5577	1478.0459	1485.8537	1487.7787	1495.0111	1507.7375	1705.2853	3012.8749	3017.7069	3033.1472	3035.8253	3051.7731	3062.0313	3092.5365	3093.9625	3110.8195	3123.7054	3129.8576	3189.6243
CC1=CC2(C)OC2(C)C1	CC1=C[C@@]2(C)O[C@@]2(C)C1	
InChI=1S/C8H12O/c1-6-4-7(2)8(3,5-6)9-7/h4H,5H2,1-3H3	InChI=1S/C8H12O/c1-6-4-7(2)8(3,5-6)9-7/h4H,5H2,1-3H3/t7-,8+/m1/s1
