15
gdb 89216	2.64436	1.56001	1.20918	3.9193	61.28	-0.2664	-0.0036	0.2628	1015.4115	0.11133	-494.893332	-494.885231	-494.884287	-494.926111	30.097	
O	-0.4202656852	 1.4972242802	 0.3585079289	-0.421566
C	-0.0803514964	 0.1711241453	 0.0717831433	 0.137117
C	 0.4806337517	-0.7466902395	 1.2096864554	-0.332867
C	-0.6524022236	-1.7773439042	 0.9357118847	 0.221217
O	-0.2208849654	-3.0729387132	 0.7497903124	-0.458487
C	-1.2921707523	-0.7597087337	-0.0879061716	 0.006834
O	-2.3408306418	-0.4824811271	 0.8884221017	-0.242172
C	-1.9124893519	-1.465373176	 1.7512041786	 0.383583
O	-2.4502309605	-1.8668285525	 2.7319000545	-0.327581
H	 0.390410502	 2.0068227513	 0.455871173	 0.292095
H	 0.5535160136	 0.0883765309	-0.8234055845	 0.084547
H	 1.4626429397	-1.1731002365	 0.996947409	 0.126172
H	 0.4768221929	-0.3107309263	 2.2101653023	 0.128738
H	-0.9800230298	-3.6669699139	 0.7630146105	 0.299928
H	-1.7138329828	-0.9851931049	-1.0656745682	 0.102442
75.6432	147.5525	230.788	251.3196	259.0747	317.849	327.3544	415.2665	457.1055	597.7788	627.8251	705.9064	748.9628	812.8359	858.4004	888.6652	932.2471	976.0868	1000.7797	1032.9062	1101.9197	1130.0884	1170.7016	1183.1866	1208.0857	1237.0944	1311.4283	1327.6086	1351.6596	1370.7138	1433.0991	1470.6333	1932.8127	2993.611	3078.5822	3137.7512	3141.2111	3802.4018	3821.1808
OC1CC2(O)C1OC2=O	O[C@H]1C[C@]2(O)[C@H]1OC2=O	
InChI=1S/C5H6O4/c6-2-1-5(8)3(2)9-4(5)7/h2-3,6,8H,1H2	InChI=1S/C5H6O4/c6-2-1-5(8)3(2)9-4(5)7/h2-3,6,8H,1H2/t2-,3-,5-/m0/s1
