17
gdb 55164	3.57688	1.26337	1.05711	4.3599	68.69	-0.2378	0.0574	0.2952	1124.828	0.137839	-455.169562	-455.161678	-455.160733	-455.202504	29.869	
N	-0.0579436812	 1.3619498803	 0.0328893756	-0.568097
C	 0.0162379528	-0.028427118	 0.0110416896	 0.446832
O	 1.0793521076	-0.6221432965	-0.0452307388	-0.404858
N	-1.1966930182	-0.6753497569	 0.0244692069	-0.116067
C	-2.4932744816	-0.0405658891	-0.2106806504	-0.215013
C	-3.3167928156	-1.1329490514	-0.8621753387	 0.034906
O	-2.7109156503	-1.6599806999	-2.0432014023	-0.245582
C	-2.5549959799	-2.385099158	-0.8180336803	 0.031211
C	-1.2309334748	-2.1313694094	-0.1346049961	-0.187412
H	 0.8437842221	 1.7756274278	 0.2174612541	 0.26007
H	-0.8135201812	 1.790402855	 0.5456612791	 0.25102
H	-2.9821163206	 0.2830061533	 0.7218828923	 0.102968
H	-2.3837023126	 0.8315222458	-0.8641041459	 0.137375
H	-4.4016791484	-1.0777289719	-0.8567315085	 0.105315
H	-3.0159715183	-3.3676497497	-0.7800869183	 0.106151
H	-0.3668280543	-2.4559660318	-0.7187495989	 0.152376
H	-1.2013598256	-2.6514694696	 0.8332082505	 0.108805
51.3372	116.6898	236.8171	240.0822	336.5015	369.2227	410.5356	477.2336	549.9169	573.2256	667.2901	696.7549	777.3506	835.8365	844.4723	868.7798	918.6041	972.6902	1008.684	1037.444	1067.43	1095.4532	1127.8288	1150.353	1207.2985	1235.7629	1248.3387	1263.4389	1320.8788	1359.2608	1373.3998	1429.0452	1460.9954	1505.1691	1513.9492	1624.2543	1784.6839	2977.7402	3010.451	3066.7581	3106.2069	3155.2945	3168.3074	3575.3933	3687.0209
NC(=O)N1CC2OC2C1	NC(=O)N1C[C@H]2O[C@H]2C1	
InChI=1S/C5H8N2O2/c6-5(8)7-1-3-4(2-7)9-3/h3-4H,1-2H2,(H2,6,8)	InChI=1S/C5H8N2O2/c6-5(8)7-1-3-4(2-7)9-3/h3-4H,1-2H2,(H2,6,8)/t3-,4+
