18
gdb 50478	3.77307	1.07835	0.90816	2.0103	74.44	-0.2513	-0.0276	0.2237	1254.1064	0.149173	-439.144821	-439.136648	-439.135704	-439.178253	30.346	
O	-0.096917679	-0.0448185395	-0.0361130833	-0.335184
C	-0.026407593	 1.1652020152	-0.031604233	 0.148579
N	 1.1287784526	 1.8906788633	-0.0775773362	-0.036612
C	 2.4247263216	 1.2296873078	-0.1031272543	-0.193047
C	 3.2721774391	 1.644946819	 1.117285536	-0.297618
C	 3.3105952903	 3.1593093249	 1.2745301343	 0.383962
O	 4.3348259059	 3.7775057031	 1.4395527723	-0.298606
C	 1.945829273	 3.8374206657	 1.1976927705	-0.292715
C	 1.1460075517	 3.3394202045	-0.0254499821	-0.195527
H	-0.9180861908	 1.822042706	 0.0090897088	 0.075894
H	 2.2406219838	 0.154874978	-0.1150532968	 0.156655
H	 2.9529315928	 1.5001924215	-1.0275763394	 0.11918
H	 2.8170565358	 1.218763098	 2.0208243953	 0.133375
H	 4.2945982862	 1.2694486227	 1.0371402363	 0.128071
H	 1.3885997954	 3.5837792509	 2.1088514906	 0.128213
H	 2.0877423001	 4.9199534319	 1.1678809092	 0.127386
H	 1.6006683718	 3.7382647637	-0.9432472124	 0.122669
H	 0.1154093127	 3.7039863632	 0.0120086044	 0.125325
52.2544	108.9508	146.0909	284.8568	309.7705	348.2614	383.7253	439.3718	493.4806	498.5154	650.0777	697.5762	764.5059	780.6491	826.2178	942.6244	977.0144	989.9014	1004.062	1030.4473	1100.9757	1145.3953	1179.9941	1198.2196	1237.4427	1246.1259	1294.2862	1327.9781	1332.6576	1376.1748	1399.9504	1432.5686	1456.1038	1459.7	1466.449	1493.0463	1503.1077	1795.6176	1823.2228	2934.4363	3006.6127	3014.9249	3032.1162	3037.988	3087.3752	3116.9782	3117.9998	3133.5843
O=CN1CCC(=O)CC1	O=CN1CCC(=O)CC1	
InChI=1S/C6H9NO2/c8-5-7-3-1-6(9)2-4-7/h5H,1-4H2	InChI=1S/C6H9NO2/c8-5-7-3-1-6(9)2-4-7/h5H,1-4H2
