17
gdb 126283	3.45834	1.15797	0.92462	0.2217	81.6	-0.2321	-0.0666	0.1655	1269.2334	0.137228	-414.178274	-414.170034	-414.169089	-414.211545	30.687	
C	 0.0159395735	 1.5679348646	 0.1153573113	-0.376143
C	-0.0361743399	 0.0430758845	-0.0793910159	-0.259031
C	-1.4438256728	-0.4801842254	-0.1247290527	 0.37327
C	-2.0224647334	-1.0090779148	-1.2252773044	-0.23152
C	-3.3902548249	-1.4766256009	-1.179827823	 0.429243
N	-4.0056987898	-1.9885716436	-2.1777204515	-0.551352
N	-3.9282076249	-1.2852889307	 0.1068168532	-0.304418
N	-3.3248933916	-0.7572465674	 1.1877114756	-0.043112
N	-2.126147638	-0.3614018941	 1.0957496611	-0.258199
H	 1.0523098381	 1.9090107019	 0.1904975232	 0.11929
H	-0.4541644316	 2.0868154376	-0.725872483	 0.120874
H	-0.509184234	 1.8548118365	 1.0299691101	 0.144969
H	 0.4851729675	-0.2422037579	-0.9981478804	 0.108944
H	 0.4812878508	-0.442504106	 0.7565063144	 0.126328
H	-1.4968320177	-1.1050445144	-2.1676587929	 0.127138
H	-4.9627743967	-2.2562740757	-1.9433315295	 0.203026
H	-4.8801654945	-1.5675151545	 0.2953156143	 0.270691
62.5133	128.6554	154.9283	209.645	275.7733	323.5403	429.8379	453.0854	533.1716	558.1476	648.0076	672.6237	757.5433	771.8883	796.4337	804.5549	915.7877	925.2297	972.1017	1016.0124	1068.953	1089.7219	1111.7165	1130.9872	1198.7321	1271.42	1305.7333	1352.3595	1359.4345	1404.8379	1422.8288	1477.0691	1495.577	1508.9722	1554.219	1651.4169	1733.0296	3038.6344	3043.5298	3086.0452	3114.465	3128.9247	3211.135	3462.5791	3604.5312
CCC1=CC(=N)NN=N1	CCc1cc([NH])[nH]nn1	
InChI=1S/C5H8N4/c1-2-4-3-5(6)8-9-7-4/h3H,2H2,1H3,(H2,6,7,8)	InChI=1S/C5H13N4/c1-2-4-3-5(6)8-9-7-4/h4-9H,2-3H2,1H3
