16
gdb 69640	4.01267	1.13821	1.1228	5.2725	71.12	-0.2316	-0.0449	0.1867	1131.356	0.121451	-437.78861	-437.780496	-437.779552	-437.821289	30.431	
C	 0.0339222124	 1.5259023744	-0.0846243444	-0.512922
C	 0.0944760518	 0.0358726841	 0.0137016457	 0.303355
N	-0.8786907578	-0.7964381554	 0.7560159628	-0.344028
C	 0.5668605102	-0.8796184116	 1.0764552826	-0.235849
C	 1.2375665879	-1.8151226829	 0.0071352239	 0.339828
O	 0.2615792629	-2.219534565	-0.9498621075	-0.224793
C	 0.7516045914	-0.9075858036	-1.0674119475	-0.069184
C	 2.5326952898	-2.5175084676	 0.1035582504	 0.05631
O	 2.9690230578	-3.2772563549	-0.72399895	-0.255983
H	 0.9869061085	 1.9363460169	-0.4364180748	 0.132492
H	-0.7464313384	 1.8454558101	-0.7849135689	 0.139341
H	-0.1821188186	 1.9739601066	 0.8908908901	 0.126177
H	-1.296967898	-0.189981456	 1.4630990694	 0.233107
H	 0.9621567438	-0.6650927391	 2.0610120494	 0.106774
H	 1.2404220716	-0.6154780031	-1.990568086	 0.130104
H	 3.1032658447	-2.2646474727	 1.0262103947	 0.075269
89.5518	149.477	186.2618	213.5488	272.3275	304.431	387.1721	439.6835	490.8305	565.9711	690.8688	745.7453	785.4806	812.849	837.9688	874.9559	906.7447	931.8082	983.5127	1007.3421	1038.4901	1055.6784	1084.0978	1107.7985	1133.1822	1215.206	1265.3595	1324.6971	1387.5737	1415.884	1434.3535	1448.1748	1481.846	1497.1263	1813.2529	2871.1178	3025.5751	3088.3496	3099.3889	3183.581	3200.5189	3462.8603
CC12NC1C1(OC21)C=O	C[C@]12N[C@H]1[C@]1(O[C@@H]21)C=O	
InChI=1S/C6H7NO2/c1-5-3(7-5)6(2-8)4(5)9-6/h2-4,7H,1H3	InChI=1S/C6H7NO2/c1-5-3(7-5)6(2-8)4(5)9-6/h2-4,7H,1H3/t3-,4+,5+,6-/m1/s1
