23
gdb 92652	2.66553	1.42518	1.14335	1.5205	84.98	-0.2365	0.0823	0.3188	1192.3387	0.208389	-388.300946	-388.292543	-388.291599	-388.333956	33.356	
C	-0.083637442	 1.5836653382	-0.168444948	-0.416
C	 0.0617759381	 0.0896902168	 0.0266890396	 0.160808
O	 0.9539179518	-0.5218244405	-0.9360656785	-0.316886
C	 1.3921548885	-1.4725268663	 0.0656763094	 0.16253
C	 2.8672957164	-1.8285243988	-0.0086248053	-0.229789
C	 3.783705084	-0.746555355	 0.5746668546	-0.188829
C	 3.3007743144	-0.3389773243	 1.9721073687	-0.191432
C	 1.9202966595	 0.3293139992	 1.8863111232	-0.208704
C	 0.8587855176	-0.5530205301	 1.1992430327	-0.091088
H	 0.8830794729	 2.0925627618	-0.1706792612	 0.125519
H	-0.5663498626	 1.7807084727	-1.1310911732	 0.126428
H	-0.7094069765	 2.0166747779	 0.6193744231	 0.115568
H	-0.934120113	-0.3787614246	-0.0434642666	 0.062999
H	 0.7864190887	-2.3890802228	-0.015948663	 0.05926
H	 3.0152365578	-2.7614800032	 0.551968562	 0.093783
H	 3.1175606431	-2.0467887269	-1.0535514369	 0.106457
H	 4.814188466	-1.1156250397	 0.6105108885	 0.088328
H	 3.7837282987	 0.1335640095	-0.0806224017	 0.103544
H	 3.2574295109	-1.2270899087	 2.6184354922	 0.088595
H	 4.0106949508	 0.3521750599	 2.4396090368	 0.090769
H	 1.569128662	 0.6123387609	 2.8843246798	 0.091701
H	 2.0470228219	 1.265863149	 1.3339081784	 0.101566
H	 0.2439217911	-1.063753825	 1.9447851054	 0.064874
66.1151	133.9298	185.3288	261.1521	303.2089	334.6457	375.615	433.732	459.1897	507.626	617.3394	736.406	766.0405	777.1189	829.8599	862.6489	882.8878	901.4408	938.6307	976.9133	1001.0559	1019.0851	1055.9537	1075.8129	1102.9219	1105.3378	1148.5966	1155.3464	1181.3721	1200.1491	1237.4766	1275.3408	1282.8744	1298.3018	1342.7729	1350.7773	1360.1598	1369.6768	1378.7957	1387.2073	1391.8685	1403.0999	1432.8843	1463.8382	1478.2869	1486.9405	1491.3859	1499.2895	1506.1208	2955.9028	2966.5434	3008.57	3019.017	3028.2933	3037.4624	3041.5777	3060.5384	3063.6549	3068.2185	3074.3889	3086.0849	3105.3064	3124.2765
CC1OC2CCCCC12	C[C@H]1O[C@H]2CCCC[C@@H]12	
InChI=1S/C8H14O/c1-6-7-4-2-3-5-8(7)9-6/h6-8H,2-5H2,1H3	InChI=1S/C8H14O/c1-6-7-4-2-3-5-8(7)9-6/h6-8H,2-5H2,1H3/t6-,7+,8+/m1/s1
