18
gdb 15808	5.45699	1.12114	1.02955	2.8319	70.33	-0.2419	0.0402	0.2821	1195.758	0.153657	-381.134145	-381.125243	-381.124299	-381.169273	31.018	
C	-0.0030154261	 1.2498313876	 0.0234093583	-0.371477
C	-0.2948590233	-0.2507014298	-0.0674210673	-0.138734
N	 0.0577452684	-0.8353346757	-1.3515064013	-0.323511
C	 1.3184751895	-1.2872569335	-1.6097621079	 0.436357
O	 2.2084899754	-1.3472807921	-0.7832481095	-0.385814
N	 1.4737117197	-1.6563294274	-2.9762706855	-0.148798
C	 2.527602067	-2.6075679243	-3.2835134801	-0.2074
C	 1.100208699	-3.0222030721	-3.3717257922	-0.23482
H	 1.064406916	 1.4368199147	-0.1211156923	 0.142171
H	-0.5580143015	 1.810158454	-0.7367228241	 0.109938
H	-0.2911962065	 1.6372289934	 1.0061044209	 0.115963
H	 0.279542848	-0.7881179581	 0.6906080856	 0.141313
H	-1.3567515174	-0.4474648542	 0.1166105662	 0.101637
H	-0.5255088019	-0.6435982913	-2.150361306	 0.247268
H	 3.0883336937	-2.3970675451	-4.1891231011	 0.120087
H	 3.1093205107	-2.9678293526	-2.4406924805	 0.144494
H	 0.7216369448	-3.6817548911	-2.5948146441	 0.130633
H	 0.6044834145	-3.1124966723	-4.334209389	 0.120693
30.122	48.8911	77.5958	188.6952	227.0904	260.6749	332.3904	410.9615	481.8192	506.155	604.8563	757.1722	784.7404	829.4452	860.8587	895.2984	928.9425	977.5136	1043.5837	1080.7627	1114.7304	1129.4258	1135.6525	1168.3109	1179.1682	1185.9585	1235.3711	1324.383	1339.9324	1395.9804	1410.0508	1474.3796	1490.9029	1493.3128	1502.9542	1515.9073	1539.2018	1784.2126	3035.4139	3046.8265	3097.0062	3107.5343	3115.0166	3123.3326	3127.7663	3193.3228	3216.8964	3636.9906
CCNC(=O)N1CC1	CCNC(=O)N1CC1	
InChI=1S/C5H10N2O/c1-2-6-5(8)7-3-4-7/h2-4H2,1H3,(H,6,8)	InChI=1S/C5H10N2O/c1-2-6-5(8)7-3-4-7/h2-4H2,1H3,(H,6,8)
