20
gdb 40368	3.42928	1.28685	1.16282	1.5901	82.57	-0.2001	0.0784	0.2785	1139.8331	0.171715	-365.906312	-365.898633	-365.897689	-365.938554	31.392	
C	-0.1026653147	 1.4481926995	-0.185260679	-0.277823
C	 1.282393441	 0.9020624384	 0.0600876427	-0.269707
C	 0.0936995457	-0.0321479564	 0.0468623607	-0.10056
C	-0.3643653933	-0.7013137655	 1.2918586093	 0.387126
C	-0.3409542598	-2.1935036573	 1.5008539562	-0.348116
C	-1.6599266822	-1.4631653153	 1.5756412304	-0.124654
C	-1.8138608222	-0.6698934865	 2.9036458187	-0.050016
N	-0.627637306	-0.9271226749	 3.7621980217	-0.340998
C	-0.5579592737	 0.0563702922	 2.6496440856	-0.134883
H	-0.5663979815	 2.0348509771	 0.6005159294	 0.109987
H	-0.3571109927	 1.7782389299	-1.1865608355	 0.108937
H	 1.9801119381	 0.8629867676	-0.769073547	 0.110732
H	 1.7460167123	 1.1101856327	 1.0188198123	 0.112921
H	 0.0001945977	-0.6588945372	-0.8362413785	 0.078833
H	-0.2020634882	-2.7639789738	 0.5868766484	 0.102249
H	 0.0992422438	-2.6296625343	 2.3884206511	 0.139387
H	-2.484407563	-1.6606062128	 0.9025937747	 0.086178
H	-2.7479672356	-0.3247768655	 3.3271555393	 0.09184
H	-0.7610266682	-0.3907735092	 4.6193183752	 0.227458
H	-0.2951504674	 1.0897036212	 2.8367446443	 0.091111
74.5184	146.4368	172.0372	340.819	372.0207	421.5736	467.0393	532.01	621.3563	730.933	774.1601	780.6525	811.3952	822.2523	840.3857	847.8952	901.1866	914.05	917.7887	920.9712	976.0216	984.6232	1010.4411	1046.513	1057.2938	1060.5291	1072.9894	1100.3526	1109.3928	1130.0066	1130.9196	1197.1321	1208.329	1216.9893	1234.2702	1276.3514	1314.475	1330.8672	1373.4427	1432.5353	1470.6464	1476.6717	1509.3936	3130.3741	3131.627	3133.9842	3138.446	3185.7258	3192.5545	3202.9559	3207.3523	3222.5327	3228.0542	3471.0546
C1CC1C12CC1C1NC21	C1CC1[C@]12C[C@H]1[C@H]1N[C@@H]21	
InChI=1S/C8H11N/c1-2-4(1)8-3-5(8)6-7(8)9-6/h4-7,9H,1-3H2	InChI=1S/C8H11N/c1-2-4(1)8-3-5(8)6-7(8)9-6/h4-7,9H,1-3H2/t5-,6+,7+,8+/m0/s1
