19
gdb 84960	2.22944	1.66274	1.08217	4.3089	78.02	-0.2337	-0.0558	0.1779	1149.4791	0.159867	-419.252552	-419.243612	-419.242668	-419.286088	33.769	
C	 0.2633035531	 1.5819970616	-0.2580958237	-0.388563
C	 0.0140652134	 0.0951615127	 0.021821026	-0.00685
N	 0.4937720125	-0.7627077512	-1.0668263975	-0.309759
C	 1.7417938534	-1.2925799717	-0.8595649415	 0.279624
N	 2.4886018432	-1.8426013496	-1.7323679623	-0.54343
C	 2.0322861084	-1.0865565362	 0.617495479	 0.33913
O	 3.0699506192	-1.3678835478	 1.1591823542	-0.318156
C	 0.7858028219	-0.4734269051	 1.24611128	-0.104451
C	 1.0681820688	 0.4500517571	 2.4266767507	-0.411802
H	 1.3325482825	 1.7935490247	-0.3642890815	 0.130092
H	-0.2299795976	 1.8766897102	-1.1900273217	 0.1186
H	-0.137217895	 2.2090599123	 0.5438765306	 0.126137
H	-1.0629053086	-0.0603187395	 0.1515245297	 0.090302
H	 0.1687804459	-0.6251960841	-2.0119257842	 0.251455
H	 3.3391436847	-2.1629847175	-1.2642591935	 0.231211
H	 0.2114773093	-1.3411728681	 1.6040705947	 0.124202
H	 1.6335235467	 1.3347794438	 2.1227838397	 0.1298
H	 0.1421073052	 0.7819883016	 2.9050490914	 0.118852
H	 1.6682775429	-0.0842681433	 3.16746524	 0.143605
74.8155	105.8026	196.8656	232.2207	259.5852	281.1352	311.3614	379.6829	418.7275	479.1144	509.2973	572.2859	608.2054	689.2869	714.1898	795.6632	827.2994	866.6659	941.7026	1002.4127	1004.8976	1028.6595	1091.4786	1102.9513	1134.2971	1168.596	1186.997	1250.123	1304.5346	1344.6095	1378.1928	1402.5083	1409.0782	1416.562	1436.5158	1488.6798	1489.6231	1500.2652	1507.1205	1742.8433	1850.019	3001.4118	3033.5586	3036.2101	3049.4181	3104.2769	3114.0689	3120.053	3128.5298	3458.7468	3622.2996
CC1NC(=N)C(=O)C1C	C[C@H]1N[C]([NH])C(=O)[C@H]1C	
InChI=1S/C6H10N2O/c1-3-4(2)8-6(7)5(3)9/h3-4H,1-2H3,(H2,7,8)	InChI=1S/C6H10N2O/c1-3-4(2)8-6(7)5(3)9/h3-4H,1-2H3,(H2,7,8)/t3-,4+/m0/s1
