17
gdb 10745	3.12486	1.67524	1.42423	2.4789	69.91	-0.2405	0.0278	0.2683	946.628	0.139683	-363.795883	-363.786974	-363.78603	-363.828892	32.982	
C	-0.1117419403	 1.5939549439	 0.0441876046	-0.404247
C	 0.0502709448	 0.0644276913	-0.0141457716	 0.137028
O	 0.8357543219	-0.3931923854	 1.0943742836	-0.456692
C	-1.2688210438	-0.5873159825	 0.0097841945	 0.315912
C	-2.3517895706	-1.1063394525	 0.0644480118	-0.483662
C	 0.8044170922	-0.3386932922	-1.2840041556	 0.024544
C	 2.2854009884	-0.3694501908	-1.2951292463	-0.250632
N	 1.5029224505	-1.6213121087	-1.3541017985	-0.32788
H	 0.8768532094	 2.0583420742	 0.0755858949	 0.129411
H	-0.6528821588	 1.9617042166	-0.8323640111	 0.127857
H	-0.6720582244	 1.8854645144	 0.9371573242	 0.117013
H	 0.254809968	-0.4591774027	 1.8586227756	 0.291111
H	-3.3042150147	-1.5756508022	 0.099571996	 0.203852
H	 0.2713546837	-0.0662969106	-2.1916470218	 0.097391
H	 2.8223212022	-0.118503071	-2.2054867678	 0.112979
H	 2.801684736	-0.1348312168	-0.3700906304	 0.127142
H	 1.4958489055	-2.0303000349	-0.4211587621	 0.23887
81.677	141.6775	176.3953	204.8262	237.4892	246.5678	292.4635	377.1632	428.028	469.1883	558.4907	601.5745	632.0652	672.2147	709.7607	836.5992	873.7866	923.6433	933.5749	979.1057	1021.4557	1085.0237	1108.0364	1127.8884	1158.8669	1183.1646	1222.2078	1273.8301	1309.5512	1336.7839	1397.6094	1423.7547	1484.6069	1488.6933	1503.5588	2230.2363	3043.5922	3117.568	3118.5322	3131.8438	3139.1896	3209.4261	3490.6585	3499.5248	3831.7979
CC(O)(C#C)C1CN1	C[C@@](O)(C#C)[C@H]1CN1	
InChI=1S/C6H9NO/c1-3-6(2,8)5-4-7-5/h1,5,7-8H,4H2,2H3	InChI=1S/C6H9NO/c1-3-6(2,8)5-4-7-5/h1,5,7-8H,4H2,2H3/t5-,6-/m1/s1
