23
gdb 58117	2.93141	1.01668	0.90695	1.5296	87.62	-0.2561	0.0452	0.3013	1416.1828	0.201209	-388.265534	-388.254155	-388.253211	-388.301432	42.682	
C	-0.0866476434	 1.5755053032	 0.025382805	-0.423699
C	-0.0175848378	 0.0388735049	-0.0077975964	 0.04268
C	-1.4362956462	-0.5321861675	 0.1462034746	-0.409784
C	 0.6908188725	-0.5092982648	-1.2880545383	 0.355904
C	 0.6447091488	-2.039269527	-1.3467180426	-0.41557
O	 0.0114245483	-0.0686793251	-2.464241533	-0.461875
C	 2.1748635587	-0.0329099327	-1.3154643499	-0.428708
C	 2.9223429758	-0.4575118647	-2.4922544714	 0.323815
C	 3.5498227738	-0.7968919401	-3.4597216529	-0.444347
H	 0.8968599044	 2.0536067677	 0.0178485017	 0.114425
H	-0.6623048023	 1.9608852535	-0.8241686105	 0.114091
H	-0.5968652759	 1.9084631874	 0.9341145178	 0.118288
H	 0.5825850493	-0.2911148099	 0.8518573815	 0.067787
H	-2.0200659748	-0.3452209824	-0.760410496	 0.130388
H	-1.4324779752	-1.6086244993	 0.3320180287	 0.11486
H	-1.9499833305	-0.054996346	 0.986621716	 0.104943
H	-0.3765268823	-2.382937199	-1.5181253392	 0.127856
H	 1.265764069	-2.3985598564	-2.1697980669	 0.135617
H	 1.0110131787	-2.477675031	-0.4130726487	 0.106953
H	 0.2089449724	 0.8629617899	-2.6030311495	 0.280582
H	 2.2086684387	 1.0615763113	-1.2583237433	 0.121896
H	 2.676487216	-0.3959571271	-0.4092786003	 0.13038
H	 4.099927032	-1.099398025	-4.3159208963	 0.193518
65.1709	68.0556	129.4436	203.2803	222.5999	235.6456	260.1693	271.3931	287.2037	343.0509	354.034	366.0127	375.1136	404.7812	451.7218	506.7218	615.5611	616.8783	637.9959	748.8293	841.4539	897.8941	922.7979	934.2466	953.5066	966.3852	983.2333	1056.8847	1071.7211	1130.2812	1167.0648	1184.0619	1203.2803	1254.3321	1334.4675	1336.0642	1349.067	1378.3986	1396.9827	1412.2734	1420.0112	1466.8935	1483.6409	1490.8978	1496.4578	1506.4517	1512.2027	1523.3051	2237.3321	3005.4121	3025.7049	3031.7484	3042.286	3051.0812	3060.7028	3096.8806	3105.9829	3109.1412	3123.06	3126.5508	3143.1396	3506.4123	3817.0892
CC(C)C(C)(O)CC#C	CC(C)[C@@](C)(O)CC#C	
InChI=1S/C8H14O/c1-5-6-8(4,9)7(2)3/h1,7,9H,6H2,2-4H3	InChI=1S/C8H14O/c1-5-6-8(4,9)7(2)3/h1,7,9H,6H2,2-4H3/t8-/m0/s1
