21
gdb 59717	3.02512	1.21709	0.9744	1.3295	77.23	-0.2292	0.0684	0.2976	1257.5773	0.182583	-424.210685	-424.201827	-424.200883	-424.244113	34.301	
C	 0.0187133158	 1.546997552	 0.0028799928	-0.410577
C	 0.0057006507	 0.0173901597	 0.0305619891	 0.130391
O	 0.7457146672	-0.4787588805	 1.1434904169	-0.432325
C	-1.4119049473	-0.5680393207	 0.0122033068	-0.025397
C	-2.2382749453	-0.1879066864	-1.2436479518	-0.117355
O	-3.1406026659	-1.2609757307	-1.4974932485	-0.258789
C	-2.592727109	-2.431957624	-0.9449422588	 0.108675
C	-1.1774521947	-2.8012400183	-1.3039456791	-0.329332
C	-1.4862385053	-2.0893511411	 0.0058753954	-0.07586
H	 1.0466424871	 1.9144134053	 0.0624117293	 0.126418
H	-0.4357343618	 1.940498228	-0.912185356	 0.12237
H	-0.5405630823	 1.9551866014	 0.8547046406	 0.106187
H	 0.5472044952	-0.3636961337	-0.8441868032	 0.089041
H	 0.3438192712	-0.1215931088	 1.9434730091	 0.274163
H	-1.9372905372	-0.2097076171	 0.9101918132	 0.064391
H	-2.828632342	 0.7236251256	-1.1183446156	 0.111872
H	-1.5715573061	-0.0373407653	-2.1069027819	 0.095105
H	-3.3482138534	-3.1879280588	-0.7674696242	 0.099777
H	-0.9031676067	-3.848377952	-1.2367319762	 0.114328
H	-0.6808868274	-2.264761487	-2.1055135986	 0.115247
H	-1.3345615527	-2.6192066372	 0.9372317805	 0.09167
82.4279	128.8423	162.0044	241.7661	263.1683	276.3115	333.7556	381.6093	402.401	468.024	518.1682	654.36	701.3914	765.9481	807.8951	857.1013	900.3376	948.6093	962.9175	976.3968	978.3462	1022.7653	1029.7599	1056.5977	1077.7079	1096.0168	1097.5409	1131.3589	1161.2482	1173.706	1202.1745	1236.7586	1260.0458	1304.6656	1316.6473	1327.3278	1378.8064	1382.8642	1403.6989	1407.6788	1421.0391	1478.7062	1490.5947	1496.153	1525.5299	2980.0738	2992.0982	3021.7586	3039.7801	3085.4265	3092.0359	3118.3095	3132.731	3183.4567	3194.7411	3218.1398	3795.0137
CC(O)C1COC2CC12	C[C@@H](O)[C@H]1CO[C@H]2C[C@@H]12	
InChI=1S/C7H12O2/c1-4(8)6-3-9-7-2-5(6)7/h4-8H,2-3H2,1H3	InChI=1S/C7H12O2/c1-4(8)6-3-9-7-2-5(6)7/h4-8H,2-3H2,1H3/t4-,5+,6-,7+/m1/s1
