17
gdb 25908	4.15664	1.07923	0.86232	2.7805	80.4	-0.1925	-0.022	0.1706	1302.9825	0.136595	-418.069955	-418.061314	-418.06037	-418.103239	32.445	
C	-0.0176250502	 1.5092838504	-0.0085751376	-0.504503
C	 0.0524567654	-0.004988448	 0.0001297599	 0.42129
O	 1.0964459931	-0.6168724735	-0.0143912928	-0.33123
N	-1.172088808	-0.6824572747	 0.0259046941	-0.071947
C	-2.449741549	-0.1413998126	 0.0390285852	-0.060941
C	-3.3496565001	-1.1644710051	 0.0600471303	-0.231374
C	-2.6080023096	-2.3991472397	 0.0561215337	 0.230517
N	-3.1836082302	-3.6715826696	 0.1503022754	-0.601028
C	-1.2785213792	-2.0766934877	 0.0316678145	-0.156766
H	 1.002924031	 1.889480444	-0.0253371042	 0.15213
H	-0.5553455285	 1.8765225089	-0.8878452048	 0.148117
H	-0.5308064844	 1.8876570417	 0.8805567707	 0.149081
H	-2.6053212382	 0.9233597351	 0.0331366675	 0.129358
H	-4.4248658843	-1.0658330875	 0.0849909893	 0.10035
H	-4.0535851996	-3.7512143043	-0.3595040629	 0.243975
H	-2.5573877979	-4.4145891199	-0.13008896	 0.245225
H	-0.3855786103	-2.6760266875	 0.0234319918	 0.137747
88.6108	131.8008	149.4154	193.7179	236.4496	322.9818	351.9315	414.9147	537.2083	562.1405	611.9107	629.2628	642.7485	677.367	699.8819	731.6642	783.5025	824.7928	938.495	984.0622	1000.9674	1051.6246	1085.8154	1107.297	1116.8311	1263.3674	1285.0729	1358.8171	1384.5568	1396.9414	1457.7834	1474.7691	1482.0023	1535.6564	1640.2591	1668.9276	1797.1105	3050.6794	3115.6271	3166.4711	3241.5756	3291.0027	3297.9767	3541.6701	3632.8017
CC(=O)N1C=CC(N)=C1	CC(=O)n1ccc(N)c1	
InChI=1S/C6H8N2O/c1-5(9)8-3-2-6(7)4-8/h2-4H,7H2,1H3	InChI=1S/C6H8N2O/c1-5(9)8-3-2-6(7)4-8/h2-4H,7H2,1H3
