20
gdb 41973	2.42114	2.08549	1.62747	1.5173	76.49	-0.2118	0.0789	0.2907	926.1286	0.175395	-403.127208	-403.120442	-403.119498	-403.158017	28.434	
C	-0.0814735622	 1.4636810307	-0.223857189	-0.252731
C	 1.3081811805	 1.9951961633	 0.2152108428	-0.23266
C	 1.9565757936	 0.8915886208	 1.0887644319	 0.089767
O	 1.7918398194	 1.1003520714	 2.492337233	-0.256498
C	 0.4324123174	 1.1943326779	 2.878434047	-0.099106
C	-0.3584905372	-0.0690900001	 2.4951824665	-0.155262
N	 0.0068285169	-0.7062924018	 1.2302367434	-0.095798
C	 0.0167129077	-0.0551431192	-0.0751306879	-0.023536
C	 1.2974451718	-0.4106670064	 0.6219196493	-0.066884
H	-0.89967278	 1.8789089249	 0.3740993934	 0.106563
H	-0.2987553201	 1.7218280183	-1.2646504632	 0.102546
H	 1.9319949927	 2.1221249535	-0.6757422084	 0.104943
H	 1.2836680636	 2.9610432813	 0.7282966056	 0.107836
H	 3.0397047395	 0.8598630126	 0.9504351414	 0.082821
H	 0.4316978357	 1.3131114536	 3.9661126798	 0.107051
H	-0.0268167844	 2.0983850101	 2.4534647816	 0.08956
H	-0.1917265863	-0.8315778175	 3.2650499488	 0.113684
H	-1.4327523419	 0.1470622229	 2.4859986785	 0.10443
H	-0.3943114555	-0.6727955023	-0.8698130075	 0.088545
H	 1.9198340987	-1.263894364	 0.363377123	 0.08473
159.4967	209.5159	285.8755	386.7231	414.6801	492.6	508.2804	619.2004	690.7607	717.5662	751.289	791.0372	826.7878	860.2858	895.3295	911.0406	940.6953	965.8507	975.2394	1031.3537	1046.8296	1081.4107	1106.876	1112.9091	1126.0189	1144.0822	1203.082	1214.8274	1280.5877	1285.4302	1289.4468	1309.9798	1313.2959	1326.5754	1352.9372	1375.6365	1385.0277	1413.9853	1414.9404	1478.9568	1484.8615	1494.5502	1515.3785	2999.1921	3028.3802	3043.9522	3048.3013	3068.9237	3077.6386	3082.6506	3084.3488	3098.6425	3127.6874	3138.4275
C1CC2OCCN3C1C23	C1C[C@H]2OCCN3[C@@H]1[C@@H]23	
InChI=1S/C7H11NO/c1-2-6-7-5(1)8(7)3-4-9-6/h5-7H,1-4H2	InChI=1S/C7H11NO/c1-2-6-7-5(1)8(7)3-4-9-6/h5-7H,1-4H2/t5-,6+,7-,8?/m0/s1
