12
gdb 123279	9.62969	0.66311	0.62039	2.1441	89.76	-0.2393	-0.0517	0.1876	1639.6953	0.076981	-398.289339	-398.281767	-398.280823	-398.322001	27.551	
C	 0.0717395479	-3.7645842459	-0.019123768	-0.605197
C	 0.0449395625	-2.5566541457	-0.0120517041	 0.263406
C	 0.0155896613	-1.1994893045	-0.0041138248	-0.094654
C	-0.0166179915	 0.0130115768	 0.0030590406	 0.37847
C	-0.0275939388	 1.4179641167	 0.0110154291	-0.041762
C	-1.0965278679	 2.2741408348	 0.0299285348	-0.049397
O	-0.6849364715	 3.5415088075	 0.0315229506	-0.153507
N	 0.7107081861	 3.5725053161	 0.0132410939	-0.108647
C	 1.0857339657	 2.3226878146	 0.0013355121	-0.102273
H	 0.0946876591	-4.8260514329	-0.0253321445	 0.196116
H	-2.1625551489	 2.1112998038	 0.0431127393	 0.168066
H	 2.137959186	 2.0787941285	-0.0139329188	 0.149379
74.8818	86.3342	227.936	234.3591	431.3161	444.7704	472.6556	519.6011	534.0238	593.5026	610.3551	612.8863	665.265	841.1756	881.275	908.0873	927.9382	938.0834	1060.0587	1162.6461	1214.8122	1317.7372	1352.71	1489.2902	1624.8391	2182.6967	2346.1234	3256.0539	3275.0173	3504.4194
C#CC#CC1=CON=C1	C#CC#Cc1conc1	
InChI=1S/C7H3NO/c1-2-3-4-7-5-8-9-6-7/h1,5-6H	InChI=1S/C7H3NO/c1-2-3-4-7-5-8-9-6-7/h1,5-6H
