14
gdb 42615	2.70356	1.94824	1.39024	5.2467	65.44	-0.2503	-0.0266	0.2237	893.9008	0.102508	-436.70679	-436.70029	-436.699346	-436.737701	25.884	
O	 0.0051416131	 0.084186927	 0.0892253847	-0.314231
C	-0.0365993456	 1.27862938	 0.1098657079	 0.439917
C	-1.1368815632	 2.2749154965	-0.0257152578	-0.226235
C	-0.7368856102	 3.6021171158	 0.6551130382	-0.003004
N	 0.2361055437	 3.6265336185	 1.709769594	-0.330508
C	 1.3693592459	 2.9055673903	 1.3614241159	 0.422407
O	 2.3226047763	 2.6796794374	 2.0633925397	-0.358701
C	 1.0810823188	 2.3740542996	-0.0460225668	-0.305799
C	-0.0664409743	 3.2539009589	-0.61121327	-0.080471
H	-2.1535963063	 2.0829306104	-0.3445073332	 0.119557
H	-1.5103847641	 4.3592986042	 0.6872234659	 0.128755
H	-0.0114772411	 3.7250857135	 2.6821284969	 0.260391
H	 1.9531498363	 2.1029059865	-0.6328746933	 0.120693
H	-0.0898086594	 3.7820061214	-1.552945042	 0.127228
136.3638	152.5853	400.6089	424.8932	431.1178	484.863	562.5985	646.9111	662.4167	734.0367	759.4762	796.7758	847.4324	854.0474	876.1875	912.7189	946.7542	992.3763	1001.285	1051.8153	1092.7321	1121.7852	1130.5353	1196.9862	1219.0447	1283.3463	1301.6351	1367.5003	1425.1	1843.4835	1887.8286	3180.7538	3196.0753	3205.022	3230.9282	3637.6907
O=C1C2C3NC(=O)C1C23	O=C1[C@H]2[C@H]3NC(=O)[C@@H]1[C@@H]23	
InChI=1S/C6H5NO2/c8-5-2-1-3(5)6(9)7-4(1)2/h1-4H,(H,7,9)	InChI=1S/C6H5NO2/c8-5-2-1-3(5)6(9)7-4(1)2/h1-4H,(H,7,9)/t1-,2-,3-,4+/m1/s1
