19
gdb 72731	2.63046	1.97945	1.58695	2.4836	75.3	-0.2211	0.0572	0.2783	915.6129	0.160142	-422.919203	-422.912128	-422.911184	-422.949945	30.415	
O	 0.1168899634	 1.3475800451	 0.1333505117	-0.472047
C	 0.1081775334	-0.0624558828	-0.010105488	 0.434336
C	 0.2264022826	-0.4354630121	-1.5320570806	-0.357966
C	-1.3728250868	-0.4589449094	-1.5275059128	-0.354583
C	-1.2611417868	-0.7477712032	 0.0003069505	 0.195604
C	-1.4054561431	-0.2521572987	 1.4870374223	-0.336199
C	 0.1512552941	-0.641714554	 1.4582032628	 0.02449
O	 0.1355488287	-2.047243849	 1.3230895171	-0.266839
C	-0.8644501564	-2.2121070763	 0.2927844303	-0.099021
H	-0.2299527577	 1.7518223145	-0.6693620996	 0.278613
H	 0.7175816385	 0.3154741139	-2.1575242252	 0.099257
H	 0.6624063323	-1.407866378	-1.7553991223	 0.129688
H	-1.7873620444	 0.5249285582	-1.7627704783	 0.107054
H	-1.8771928983	-1.2002282525	-2.1523761005	 0.108827
H	-1.5818217554	 0.8122511578	 1.5989981127	 0.125247
H	-2.0201125175	-0.8455836951	 2.1687343822	 0.09685
H	 0.8656376495	-0.3304153759	 2.2205103151	 0.087516
H	-1.7107137194	-2.7925653748	 0.680308507	 0.101191
H	-0.4370658267	-2.7543282275	-0.5557152243	 0.097981
228.0009	263.5843	303.5435	327.894	376.0096	450.9582	482.0699	493.6868	546.6766	609.1217	678.4473	714.518	784.5431	833.9344	859.7887	886.4428	906.0497	936.2325	943.9978	965.3756	986.3259	1028.3579	1048.1448	1070.3939	1127.6311	1140.8685	1157.8843	1178.2676	1182.7425	1199.2856	1201.4478	1216.76	1235.5065	1245.7162	1287.425	1353.6523	1371.9902	1472.4601	1480.4231	1494.9694	1539.8258	3024.5809	3058.346	3066.0336	3075.6408	3077.7008	3108.8719	3126.5361	3149.6277	3198.4461	3797.4383
OC12CCC11CC2OC1	O[C@]12CC[C@@]31C[C@H]2OC3	
InChI=1S/C7H10O2/c8-7-2-1-6(7)3-5(7)9-4-6/h5,8H,1-4H2	InChI=1S/C7H10O2/c8-7-2-1-6(7)3-5(7)9-4-6/h5,8H,1-4H2/t5-,6-,7+/m1/s1
