17
gdb 23514	3.92825	1.33086	1.19311	1.0415	75.57	-0.2221	0.0108	0.2329	1047.3438	0.137744	-417.921495	-417.914488	-417.913544	-417.952839	28.357	
O	-0.1242145426	 1.3464538985	 0.0934793893	-0.397663
N	 0.0384058739	-0.0533945267	 0.0002544162	-0.259959
C	-1.0943438067	-0.6309376799	-0.0444090301	 0.411711
C	-2.4976634215	-0.036862289	-0.0298692637	-0.265602
N	-3.3816690865	-1.1582588285	-0.4096729743	-0.132555
C	-3.0021691531	-1.6319470628	-1.7974360634	-0.190151
C	-2.1364205069	-2.7192165865	-1.1859456502	-0.08501
C	-2.7285270195	-2.3847149431	 0.1519561819	-0.042132
C	-1.2632789962	-2.1047462189	-0.0734544623	-0.134714
H	 0.787892663	 1.654309251	 0.1131461464	 0.305305
H	-2.7518231515	 0.3098076341	 0.9791093809	 0.128265
H	-2.6102103817	 0.8106124294	-0.7097815943	 0.13456
H	-3.8838405987	-2.0246537432	-2.3112690661	 0.115012
H	-2.5192555832	-0.8759826017	-2.4271385834	 0.109063
H	-1.8893276598	-3.6874163761	-1.604416512	 0.09722
H	-3.1690145771	-2.9760057976	 0.9441740056	 0.09983
H	-0.500673412	-2.750482239	 0.3422665094	 0.106818
103.9184	213.3557	256.8564	365.6749	406.6966	440.6015	491.5843	536.6453	668.5067	716.6762	745.3627	775.6484	812.9658	843.7459	890.1779	910.5415	962.4971	981.567	993.2996	1020.9497	1033.7307	1044.3812	1066.2337	1088.0453	1113.8663	1192.6009	1209.2802	1228.4213	1237.0654	1284.7265	1310.4294	1314.8789	1359.8539	1413.4355	1471.1905	1509.8627	1755.7823	3034.7793	3040.6379	3092.2965	3111.5844	3182.7762	3196.7601	3210.6824	3821.9628
ON=C1CN2CC3C2C13	ON=C1CN2C[C@@H]3[C@H]2[C@H]13	
InChI=1S/C6H8N2O/c9-7-4-2-8-1-3-5(4)6(3)8/h3,5-6,9H,1-2H2	InChI=1S/C6H8N2O/c9-7-4-2-8-1-3-5(4)6(3)8/h3,5-6,9H,1-2H2/t3-,5-,6-/m0/s1
