22
gdb 103901	3.4411	0.77231	0.70895	3.3094	84.67	-0.2373	-0.0181	0.2192	1672.8939	0.191648	-404.342782	-404.332202	-404.331258	-404.379426	37.849	
C	 0.4804956233	 1.4676880436	 0.2668167829	-0.384233
C	-0.1878294505	 0.1460329605	-0.1328715578	-0.225931
C	 0.4430898674	-0.4970427576	-1.3593762803	 0.32977
C	 0.2554244357	 0.2711340391	-2.6559609019	-0.467262
N	 1.7575162648	-1.1269323668	-1.1208439902	-0.367753
C	 0.6059594427	-1.9784022483	-1.4810692459	-0.082811
C	 0.1662327275	-3.01174058	-0.4601498566	-0.291989
C	 1.1121618738	-4.1954099881	-0.455357312	 0.159587
O	 0.778719507	-5.3443015334	-0.5956781326	-0.241993
H	 1.5504146003	 1.3145971693	 0.4375995431	 0.131764
H	 0.3656199348	 2.2364892856	-0.503554282	 0.114532
H	 0.0412983468	 1.8598648008	 1.1888241675	 0.11363
H	-0.1250644368	-0.5434654374	 0.7130903099	 0.102237
H	-1.2560349265	 0.3076699518	-0.3276213505	 0.095786
H	 0.7305332633	 1.2567479041	-2.6077946758	 0.127312
H	 0.692350286	-0.2691254948	-3.5019643436	 0.11342
H	-0.8075643123	 0.4269193033	-2.8710253734	 0.125408
H	 2.3706731519	-0.9952293368	-1.9214335656	 0.227762
H	 0.5790793703	-2.3545474024	-2.5039444218	 0.089223
H	 0.1919742662	-2.5741422118	 0.5442442776	 0.125145
H	-0.847397275	-3.370607768	-0.662418577	 0.118692
H	 2.1802131394	-3.9162725729	-0.3135906939	 0.087708
46.5517	61.8869	72.0347	151.2135	178.7267	217.7848	224.4442	285.7884	289.0088	377.5493	403.3037	472.2841	512.7585	561.4113	688.4824	778.8908	801.5698	832.3131	883.3773	940.4526	980.8661	1005.2591	1017.1711	1025.6274	1062.0473	1092.3643	1097.7876	1131.9274	1147.217	1196.6208	1257.0666	1278.6027	1290.1647	1328.9778	1338.8588	1388.5205	1405.903	1417.9881	1420.0535	1447.7699	1459.9422	1474.9381	1489.5219	1501.185	1507.511	1510.5936	1831.83	2886.9916	3026.6744	3030.4786	3040.5133	3044.5174	3084.1981	3094.8013	3095.5372	3099.8253	3109.9346	3111.4903	3116.5157	3496.3064
CCC1(C)NC1CC=O	CC[C@@]1(C)N[C@H]1CC=O	
InChI=1S/C7H13NO/c1-3-7(2)6(8-7)4-5-9/h5-6,8H,3-4H2,1-2H3	InChI=1S/C7H13NO/c1-3-7(2)6(8-7)4-5-9/h5-6,8H,3-4H2,1-2H3/t6-,7+/m0/s1
