21
gdb 121972	6.27555	0.5478	0.52384	0.8422	82.59	-0.2518	0.0462	0.298	2101.7106	0.178458	-424.17787	-424.16664	-424.165696	-424.215218	39.183	
C	-0.1246962099	 1.3738495133	-0.0226129081	-0.22757
O	-0.0217709943	-0.0290259277	-0.0214349412	-0.233172
C	 0.6529123176	-0.5269087573	 1.1142262289	-0.057731
C	 0.6926534643	-2.0465282397	 1.018663637	-0.217106
C	 1.3836794718	-2.6970326967	 2.2219284149	 0.123172
O	 0.7659620477	-2.3355636568	 3.4488620051	-0.420295
C	 1.4622101413	-4.2314227976	 2.0533505997	-0.391926
C	 2.1648239844	-4.9010011942	 3.1394996083	 0.311819
C	 2.7552887984	-5.4493749618	 4.0306978512	-0.434376
H	 0.8653341418	 1.857696079	-0.0297361665	 0.102799
H	-0.6641739681	 1.6630503237	-0.9279917071	 0.125194
H	-0.677839475	 1.7450052371	 0.8550319634	 0.103153
H	 1.6789290129	-0.1208459045	 1.1616120553	 0.083806
H	 0.1432742614	-0.2192582561	 2.0400452205	 0.099101
H	-0.3360772395	-2.4233645664	 0.9349028796	 0.09682
H	 1.2077462629	-2.3328035509	 0.0942623705	 0.107313
H	 2.4060873971	-2.3102985615	 2.3085307798	 0.102106
H	-0.122956164	-2.7089375298	 3.4566147272	 0.27947
H	 0.4397855371	-4.6282998746	 1.969695032	 0.119853
H	 1.9522518047	-4.4593171362	 1.0982077211	 0.133247
H	 3.2733463176	-5.9319942113	 4.8217363286	 0.194322
46.5696	70.0865	83.1636	98.3325	142.9475	170.6674	233.2712	275.39	282.1879	314.5083	346.4081	385.1231	450.8406	497.5491	599.4879	618.5828	638.7094	801.813	862.3536	939.8034	950.1678	989.6503	1033.5339	1074.0957	1101.4164	1120.6736	1164.8022	1179.8029	1193.1742	1221.6887	1229.6017	1274.9436	1297.6936	1334.0257	1355.1455	1376.0338	1419.4665	1428.753	1464.1108	1481.0293	1485.0314	1486.1303	1506.0408	1533.8319	2242.2084	2948.2822	2968.3135	3002.5138	3003.395	3010.0973	3018.2893	3042.6818	3052.0406	3075.0569	3111.6823	3508.0575	3792.6294
COCCC(O)CC#C	COCC[C@@H](O)CC#C	
InChI=1S/C7H12O2/c1-3-4-7(8)5-6-9-2/h1,7-8H,4-6H2,2H3	InChI=1S/C7H12O2/c1-3-4-7(8)5-6-9-2/h1,7-8H,4-6H2,2H3/t7-/m0/s1
