23
gdb 113875	5.47391	0.55643	0.53827	0.1134	96.13	-0.2383	0.0645	0.3028	2170.8293	0.203603	-351.126934	-351.115765	-351.114821	-351.165778	39.026	
C	-0.0320012829	 1.4471780188	-0.7069454155	-0.377905
C	-0.0046961514	 0.1589454092	 0.1246561432	-0.188908
C	-1.3672881907	-0.5007808982	 0.2101318903	 0.00041
C	-1.8443237373	-1.4567784619	-0.8606933119	-0.283646
C	-1.5755389279	-1.9625886842	 0.5343764367	-0.000427
C	-0.4199249629	-2.9163684367	 0.8143972176	-0.38416
C	-0.786976325	-4.3176357779	 0.6193900187	 0.053525
C	-1.1115859257	-5.466230233	 0.4605028583	 0.085639
C	-1.4956758233	-6.8574859896	 0.2666341887	-0.496321
H	 0.9576677134	 1.9124032929	-0.7528146969	 0.109037
H	-0.3595515531	 1.244977453	-1.732011552	 0.118744
H	-0.7249677743	 2.1790073242	-0.277234091	 0.113225
H	 0.7236432955	-0.5338133596	-0.3121857206	 0.094202
H	 0.3588461746	 0.3861658243	 1.1358541855	 0.095355
H	-2.132759726	 0.1591947653	 0.6145205009	 0.078207
H	-2.8686099139	-1.397175557	-1.2118534139	 0.107437
H	-1.1294838138	-1.7327411198	-1.6311195402	 0.108167
H	-2.4549542023	-2.1851749294	 1.1323250545	 0.088836
H	 0.4332752469	-2.6727821863	 0.1702168853	 0.122017
H	-0.066762413	-2.7727736088	 1.8451306274	 0.123357
H	-0.8148824749	-7.3677640612	-0.4240655266	 0.144313
H	-1.4829014437	-7.4122043458	 1.2116428407	 0.143963
H	-2.5065945283	-6.9378795383	-0.1486823393	 0.144931
15.269	36.1511	71.514	86.7047	149.1586	207.1755	215.5064	257.9378	273.8914	335.4606	381.5337	414.6682	471.4946	539.6527	750.1015	782.6952	797.0257	818.4058	869.995	880.218	954.0124	982.7392	1018.3654	1050.5846	1053.5687	1056.5765	1070.8716	1116.8959	1143.9137	1151.1266	1165.87	1200.8165	1245.663	1254.6714	1297.8105	1322.3755	1344.3387	1398.3829	1410.3784	1415.6117	1433.18	1468.88	1479.6456	1479.9727	1483.4881	1497.6965	1498.8215	1507.5715	2373.3557	3007.6894	3016.3181	3023.5608	3030.7014	3045.475	3058.9327	3082.5982	3082.924	3098.305	3104.2739	3117.2124	3121.6495	3143.7198	3206.2774
CCC1CC1CC#CC	CC[C@H]1C[C@H]1CC#CC	
InChI=1S/C9H14/c1-3-5-6-9-7-8(9)4-2/h8-9H,4,6-7H2,1-2H3	InChI=1S/C9H14/c1-3-5-6-9-7-8(9)4-2/h8-9H,4,6-7H2,1-2H3/t8-,9+/m0/s1
