18
gdb 32883	5.58838	0.74158	0.69005	1.2408	76.3	-0.1898	0.0291	0.2189	1614.566	0.147823	-439.102669	-439.093399	-439.092455	-439.137405	33.707	
N	-0.0889843956	 1.4781690471	-0.0387105658	-0.60571
C	 0.0151465978	 0.0800250208	 0.0085076589	 0.233878
C	-0.9575956875	-0.8385209297	 0.2675763937	-0.103604
O	-0.4188021245	-2.1001615203	 0.3078929462	-0.191389
C	 0.9120073174	-1.9803762235	 0.0616610395	 0.377958
C	 1.7134949798	-3.2345064408	 0.0603340906	-0.295992
C	 1.7834888638	-3.9009931373	 1.4374097752	-0.067814
O	 2.5588407686	-5.0808709135	 1.2966646673	-0.419845
C	 1.2339216126	-0.6705202865	-0.12408644	-0.351654
H	 0.513916887	 1.8874386702	-0.7409891892	 0.244009
H	-1.0371196682	 1.796576324	-0.1919535265	 0.241894
H	-2.0171151513	-0.7693625144	 0.4464250211	 0.11592
H	 1.2934137579	-3.9592987667	-0.6476561695	 0.123308
H	 2.729208895	-3.006629018	-0.2759215474	 0.119348
H	 2.2354135705	-3.2025709928	 2.1589132042	 0.091271
H	 0.7645030141	-4.1242998554	 1.7858908255	 0.101901
H	 2.5909324028	-5.5227183065	 2.1499531304	 0.286744
H	 2.2182251496	-0.2764327367	-0.3271632242	 0.099777
49.9017	91.0521	102.0874	213.6143	250.9005	257.4668	287.742	345.9604	380.6517	430.3009	617.149	637.9487	667.4964	684.8085	757.46	780.4845	794.2562	803.526	954.6429	1001.9674	1008.4211	1058.045	1079.019	1107.8696	1156.4314	1178.2803	1213.2895	1239.9188	1270.0293	1307.375	1327.5646	1347.8847	1449.0698	1455.5923	1478.4789	1529.1631	1587.7955	1652.5044	1681.507	2978.3422	3014.4806	3038.065	3098.3318	3247.5264	3279.3918	3535.7496	3624.4051	3832.8206
NC1=COC(CCO)=C1	Nc1coc(CCO)c1	
InChI=1S/C6H9NO2/c7-5-3-6(1-2-8)9-4-5/h3-4,8H,1-2,7H2	InChI=1S/C6H9NO2/c7-5-3-6(1-2-8)9-4-5/h3-4,8H,1-2,7H2
