18
gdb 68122	3.47058	1.32911	1.14547	3.3612	77.45	-0.2344	-0.0321	0.2024	1103.9169	0.14677	-401.905135	-401.897081	-401.896136	-401.937546	31.443	
C	 0.0891897353	 1.5243549089	 0.0441122979	-0.513487
C	 0.0230084055	 0.0203041095	 0.0082903628	 0.283325
C	 0.6907703934	-0.8587852635	-1.1048120251	-0.290956
C	 0.5430587209	-1.900798318	 0.0717261668	 0.203817
N	 0.8047961228	-0.7792644069	 1.0560141814	-0.36317
C	 1.3948483487	-3.1239031287	 0.1096367598	 0.039758
O	 2.4399862147	-3.1956400397	 0.7064808008	-0.25189
C	-0.9907698456	-1.9854862347	 0.1658879151	-0.117858
C	-1.3345377091	-0.698652977	 0.1390438781	-0.097611
H	 1.1169754935	 1.8799488122	-0.0792847668	 0.120204
H	-0.5166417389	 1.9598229536	-0.7574742146	 0.124893
H	-0.2873721184	 1.9004181222	 1.0007571502	 0.137368
H	 0.1476795329	-1.0438556787	-2.0358059044	 0.101463
H	 1.7348162299	-0.5880820387	-1.2967016624	 0.104173
H	 1.7963307285	-0.5355188353	 0.9658171416	 0.213984
H	 1.0119218541	-3.9782099752	-0.4950595644	 0.07682
H	-1.5840350609	-2.8829980012	 0.2600063926	 0.117322
H	-2.3040704072	-0.226113869	 0.2061480506	 0.111844
90.4382	159.9859	201.1489	228.5301	305.6488	323.5426	436.0522	488.6253	537.2952	594.9288	609.7936	702.481	715.33	732.8141	815.5097	873.7336	877.8743	895.7385	902.0015	978.9568	1023.6345	1052.6834	1058.5332	1078.8473	1112.0051	1128.0354	1179.5813	1221.4853	1242.4878	1262.5277	1329.9677	1362.8783	1415.3757	1425.6341	1486.8762	1492.5521	1495.9646	1626.0903	1820.9855	2866.5617	3033.8578	3036.8998	3103.7621	3107.7828	3108.734	3225.3874	3253.135	3401.7309
CC12CC(N1)(C=O)C=C2	C[C@@]12C[C@](N1)(C=O)C=C2	
InChI=1S/C7H9NO/c1-6-2-3-7(4-6,5-9)8-6/h2-3,5,8H,4H2,1H3	InChI=1S/C7H9NO/c1-6-2-3-7(4-6,5-9)8-6/h2-3,5,8H,4H2,1H3/t6-,7+/m1/s1
