18
gdb 117909	2.88075	1.1133	0.86331	5.1621	77.98	-0.2475	-0.0396	0.2079	1334.6664	0.145375	-439.06817	-439.058121	-439.057177	-439.103847	35.536	
C	 0.1066557047	 1.5301946658	 0.0361577613	-0.350355
N	-0.0742031567	 0.0888392451	-0.0230074454	-0.092684
C	-0.1113254003	-0.6404282802	 1.253558806	-0.206236
C	-1.5091147704	-1.0966955676	 1.7006857186	-0.031527
O	-1.9208595195	-2.3083375173	 1.1222249574	-0.428124
C	-0.1960358134	-0.6158898448	-1.1775390025	 0.308378
O	-0.4430074838	-1.8204441566	-1.2050608577	-0.399701
C	-0.0040553052	 0.1085893302	-2.4237407198	 0.201682
C	 0.1397840148	 0.61574125	-3.5046758001	-0.381846
H	 1.0612047853	 1.7821404998	 0.5133593409	 0.135162
H	 0.0964384255	 1.9480049307	-0.9694401611	 0.159286
H	-0.7011188979	 1.9925858315	 0.6150834678	 0.137972
H	 0.5322138313	-1.5226620376	 1.1732588856	 0.140496
H	 0.3167184845	 0.0298930527	 2.0043383837	 0.108199
H	-1.4871296805	-1.2469381806	 2.7880733537	 0.100905
H	-2.2248704902	-0.2773738486	 1.5056945783	 0.078253
H	-1.5540214255	-2.3394019013	 0.2237811997	 0.306587
H	 0.2661282375	 1.0594794489	-4.4623115666	 0.213554
42.3648	76.4662	130.5545	148.1219	180.0307	199.5665	276.4986	294.2983	348.9547	403.8718	486.6343	545.2093	554.3662	582.1894	653.9051	687.7248	727.7571	760.3982	868.09	894.8447	1041.4254	1076.5667	1108.75	1153.6611	1157.1537	1213.2397	1264.2118	1321.6303	1372.5416	1394.4347	1436.3686	1459.8648	1482.7217	1484.1542	1486.9372	1509.9166	1526.868	1696.5764	2224.306	2939.1279	3022.6332	3031.6161	3053.6074	3074.6438	3104.8666	3161.6509	3494.4491	3656.287
CN(CCO)C(=O)C#C	CN(CCO)C(=O)C#C	
InChI=1S/C6H9NO2/c1-3-6(9)7(2)4-5-8/h1,8H,4-5H2,2H3	InChI=1S/C6H9NO2/c1-3-6(9)7(2)4-5-8/h1,8H,4-5H2,2H3
