16
gdb 35676	4.07181	1.00479	0.94293	1.9794	72.91	-0.2729	0.0024	0.2753	1230.0601	0.126558	-396.955959	-396.947707	-396.946763	-396.990249	29.686	
N	 0.7143530876	-1.1107601352	 0.423655483	-0.319468
C	 0.3023054893	-0.0437190182	 0.253891341	 0.259535
C	-0.168169549	 1.3418783173	 0.0265008264	-0.129043
C	-0.8631973004	 1.9152949592	 1.2759362798	-0.209881
C	 0.3228637337	 2.3497831021	 2.1519355539	-0.240768
C	 1.4321458749	 2.745251926	 1.1275476586	-0.123809
N	 0.920060148	 2.294628945	-0.1792349152	-0.28527
C	 1.6900750695	 4.1947567929	 1.0981297641	 0.295181
N	 1.9042565967	 5.330076359	 1.092446866	-0.317007
H	-0.8307058653	 1.3335330436	-0.8446881165	 0.137365
H	-1.4599515681	 2.7766844438	 0.9661143618	 0.136507
H	-1.5159382366	 1.1927520532	 1.7671556398	 0.134159
H	 0.0756262357	 3.1689019176	 2.8272107067	 0.141999
H	 0.6800885135	 1.5110714248	 2.7536872255	 0.139232
H	 2.3759260084	 2.2570610824	 1.4025834015	 0.133005
H	 1.6462533621	 1.9654262766	-0.8019182165	 0.248263
21.2418	103.9954	159.1931	202.1856	256.6179	301.7846	448.6826	484.2759	548.1558	565.1675	642.8535	686.4619	794.6263	813.296	842.0916	910.0622	946.4908	964.8312	993.5766	1072.3022	1086.308	1124.0766	1188.7143	1209.9495	1242.2488	1301.0276	1328.5068	1349.6703	1357.1733	1372.3209	1444.4605	1483.737	1498.4039	2344.2484	2359.8509	3018.4708	3063.893	3080.571	3083.1671	3134.6577	3144.8369	3578.2089
N#CC1CCC(N1)C#N	N#C[C@H]1CC[C@@H](N1)C#N	
InChI=1S/C6H7N3/c7-3-5-1-2-6(4-8)9-5/h5-6,9H,1-2H2	InChI=1S/C6H7N3/c7-3-5-1-2-6(4-8)9-5/h5-6,9H,1-2H2/t5-,6-/m1/s1
