18
gdb 17684	4.17377	1.42548	1.27074	2.2574	67.66	-0.2319	0.0648	0.2967	1006.0628	0.152541	-384.899702	-384.891515	-384.89057	-384.932055	31.662	
O	 0.2422678012	 1.1761720654	-0.0211967834	-0.43073
C	 0.0051298914	-0.1900379803	 0.2008207511	 0.016158
C	-0.8959100109	-0.6167606078	 1.3411553148	-0.402908
C	-1.4040722811	-0.6332220602	-0.092293889	 0.425514
O	-2.2880568059	 0.3903344868	-0.453639724	-0.481659
C	-1.6928074554	-1.8982903066	-0.8330313668	-0.03836
C	-1.2893345696	-3.2586211228	-0.3216521779	-0.281972
C	-2.7419870005	-2.8599885347	-0.3311863423	-0.254492
H	 0.6464944211	 1.55132113	 0.7676204763	 0.29528
H	 0.828786159	-0.844579322	-0.0777590543	 0.096901
H	-0.6591383992	-1.5363715818	 1.8654971384	 0.114905
H	-1.3109349212	 0.1714175096	 1.9610858299	 0.112906
H	-1.752215046	 1.1944154222	-0.512900135	 0.287817
H	-1.6514386458	-1.7640625876	-1.9106509889	 0.089949
H	-0.9459737086	-3.9844343055	-1.0503396262	 0.111542
H	-0.7908323001	-3.3329257457	 0.6383296912	 0.109575
H	-3.2046105889	-2.6325559669	 0.6228581089	 0.117511
H	-3.4050999595	-3.321680872	-1.053695943	 0.112063
72.6447	151.0248	219.9656	270.0187	292.3275	304.2021	394.5333	438.3044	474.2334	486.4942	620.6853	689.2194	769.4991	822.0768	831.8696	877.0377	897.5074	941.6541	945.5965	1006.6377	1034.2564	1061.096	1071.4116	1082.5037	1125.7439	1137.1513	1166.6156	1196.8012	1212.1555	1240.9689	1277.9337	1299.1717	1370.3096	1393.4596	1443.4323	1467.8991	1487.069	1510.7923	3120.0498	3128.1153	3136.8082	3138.9118	3144.0598	3213.7466	3219.7197	3229.3376	3728.8977	3813.9513
OC1CC1(O)C1CC1	O[C@H]1C[C@]1(O)C1CC1	
InChI=1S/C6H10O2/c7-5-3-6(5,8)4-1-2-4/h4-5,7-8H,1-3H2	InChI=1S/C6H10O2/c7-5-3-6(5,8)4-1-2-4/h4-5,7-8H,1-3H2/t5-,6-/m0/s1
