19
gdb 40854	4.9205	1.28628	1.18765	1.5528	79.73	-0.2341	0.0907	0.3248	1084.2049	0.160394	-385.795688	-385.788657	-385.787713	-385.827401	28.244	
C	-0.0485429577	 1.3998843805	-0.3583307352	-0.076899
C	 1.4119584476	 1.5919661269	 0.0924444339	-0.379568
C	 1.2458787653	 0.1970833808	 0.7233721113	 0.513074
O	-0.114853182	 0.0997189333	 0.2629490149	-0.33473
C	 2.1816618225	-1.0027307111	 0.5473348306	-0.136784
C	 3.0551723143	-0.5570973576	 1.7745807204	-0.043485
C	 2.9664158547	-1.9487467586	 2.4327993946	-0.271942
C	 1.5763662411	-1.7285024604	 1.8036211257	-0.034623
C	 1.5765474198	-0.1986972887	 2.1656763148	-0.136785
H	-0.7772739843	 2.0964963408	 0.0732655844	 0.101306
H	-0.2107537425	 1.3438002048	-1.4414456788	 0.101304
H	 2.1485951231	 1.654669793	-0.7110530127	 0.111205
H	 1.5833661465	 2.4055044747	 0.8002226771	 0.111206
H	 2.5412153235	-1.4793248387	-0.3661693253	 0.06841
H	 3.8938819786	 0.1396040244	 1.7420462535	 0.070765
H	 3.585906923	-2.7400842885	 1.9983029961	 0.092313
H	 3.0146307017	-1.9810153712	 3.5261454267	 0.092313
H	 0.7042857223	-2.3807861996	 1.8016106349	 0.08451
H	 1.2432427526	 0.2453325351	 3.105174043	 0.068409
71.0799	145.0172	236.9265	308.4223	441.3852	472.8265	545.1032	734.6253	784.4115	806.0997	838.3873	849.2604	866.928	872.2641	897.0011	914.5946	963.9618	969.5608	1009.2405	1019.129	1025.2319	1058.4594	1061.2277	1082.6521	1134.477	1142.0757	1150.419	1161.7819	1168.0818	1170.4857	1188.6159	1206.9752	1234.4004	1240.4993	1252.603	1308.4143	1349.8689	1365.3821	1485.3388	1508.0632	1532.7622	3017.609	3034.7124	3056.2374	3072.2738	3091.2674	3096.1189	3099.8679	3108.6284	3125.5563	3128.4092
C1CC2(O1)C1C3CC1C23	C1C[C@@]2(O1)[C@H]1[C@@H]3C[C@H]1[C@H]23	
InChI=1S/C8H10O/c1-2-9-8(1)6-4-3-5(6)7(4)8/h4-7H,1-3H2	InChI=1S/C8H10O/c1-2-9-8(1)6-4-3-5(6)7(4)8/h4-7H,1-3H2/t4-,5+,6-,7+,8-
