18
gdb 51952	5.56115	0.6674	0.65418	3.7484	76.45	-0.2503	-0.0312	0.2191	1714.7269	0.146085	-439.113883	-439.104364	-439.10342	-439.149998	33.223	
O	-0.3567501676	 0.3372189566	 0.3906825577	-0.231017
C	 0.1423439276	 1.3848673882	 0.0770930133	 0.152317
C	 1.5212491781	 1.5216507953	-0.5508745801	-0.243573
N	 1.5809140594	 2.5911280833	-1.5216463345	-0.35045
C	 2.312788554	 3.7317837501	-1.3050315687	 0.447872
O	 2.9332958341	 3.9194979783	-0.2709408953	-0.389098
C	 2.2894073112	 4.7188374464	-2.4246298564	-0.131881
C	 2.3445766951	 6.1884074074	-2.0463728926	-0.248001
C	 3.5486857186	 5.5383590378	-2.6430606813	-0.248082
H	-0.3776185606	 2.3584824788	 0.2300659558	 0.084803
H	 2.2290135095	 1.7922522978	 0.2432574389	 0.17614
H	 1.8217740031	 0.5574686005	-0.9733758556	 0.13101
H	 1.1116592874	 2.4733023291	-2.4043928573	 0.251366
H	 1.7092688148	 4.452880428	-3.3024178446	 0.079026
H	 1.7652009807	 6.8770516442	-2.6502980006	 0.11736
H	 2.3677968248	 6.3994721003	-0.983911652	 0.14221
H	 4.3743162622	 5.3149836911	-1.9780600336	 0.142722
H	 3.8176422578	 5.7693619565	-3.6672046533	 0.117276
36.5339	58.3613	80.5877	103.1156	200.065	261.7502	310.4655	334.526	381.5768	457.5311	547.0337	653.6347	753.0924	759.639	795.5652	830.7597	876.359	919.1908	940.9079	1052.7995	1067.5517	1081.3812	1097.3625	1104.343	1118.0327	1125.6624	1209.8171	1213.7539	1232.7375	1263.6782	1332.8563	1408.3564	1414.5357	1443.6483	1453.0419	1486.6671	1532.812	1765.6154	1839.9537	2875.9728	3037.8998	3093.9135	3143.977	3145.298	3156.2721	3232.5043	3246.2643	3646.6314
O=CCNC(=O)C1CC1	O=CCNC(=O)C1CC1	
InChI=1S/C6H9NO2/c8-4-3-7-6(9)5-1-2-5/h4-5H,1-3H2,(H,7,9)	InChI=1S/C6H9NO2/c8-4-3-7-6(9)5-1-2-5/h4-5H,1-3H2,(H,7,9)
