17
gdb 28590	3.8352	1.17276	0.96717	2.1935	78.7	-0.1769	0.0356	0.2125	1217.1594	0.13685	-417.998234	-417.990082	-417.989138	-418.031335	30.849	
N	 0.0940601779	 1.3352758369	-0.3425746986	-0.594041
C	-0.0772824687	-0.0236485819	-0.1009090203	 0.362837
C	-1.1460129492	-0.7929960322	 0.2443530875	-0.264544
C	-0.6743233263	-2.1529113899	 0.2188406559	-0.239248
C	 0.6335497972	-2.1151440999	-0.126815715	 0.387029
O	 1.0163676571	-0.7922127495	-0.3336630879	-0.213705
N	 1.5737387253	-3.1259382872	-0.2854871231	-0.187495
C	 2.6059733019	-2.9879656495	-1.3224890713	-0.22668
C	 2.9661996954	-2.8802401624	 0.1163416625	-0.227043
H	 0.9942261114	 1.676146406	-0.0262228041	 0.251658
H	-0.6494692917	 1.8886997585	 0.0614437512	 0.253388
H	-2.1372834797	-0.4453896391	 0.4871588111	 0.093754
H	-1.2344035359	-3.047556398	 0.4382258781	 0.106906
H	 2.8227910462	-3.8973763398	-1.8754123254	 0.120069
H	 2.6098601344	-2.072522562	-1.906539889	 0.131534
H	 3.211559397	-1.8922286786	 0.4945135992	 0.125674
H	 3.4489779577	-3.7092490013	 0.6257195691	 0.119908
60.9495	151.3599	159.7103	172.9718	279.2471	365.8924	432.3932	483.6667	580.3908	647.6347	674.462	694.4716	736.2818	768.785	819.2811	819.7115	852.4359	892.3751	960.5465	1004.1309	1027.2591	1035.5081	1103.9212	1105.2091	1127.6094	1145.531	1181.5156	1204.4555	1233.0912	1294.2308	1339.4211	1433.4282	1485.3522	1511.6725	1613.6618	1657.9525	1678.3319	3112.6821	3116.1919	3198.6802	3213.8747	3255.6385	3269.9969	3532.7667	3635.5162
NC1=CC=C(O1)N1CC1	Nc1ccc(o1)N1CC1	
InChI=1S/C6H8N2O/c7-5-1-2-6(9-5)8-3-4-8/h1-2H,3-4,7H2	InChI=1S/C6H8N2O/c7-5-1-2-6(9-5)8-3-4-8/h1-2H,3-4,7H2
