18
gdb 93347	2.07016	1.63214	0.94996	11.945	81.75	-0.182	-0.0058	0.1762	1211.0492	0.148112	-439.070556	-439.061876	-439.060932	-439.104019	32.132	
C	-0.1986412999	 1.5234278155	-0.006295998	-0.414297
C	 0.0272354188	 0.0200556137	 0.0773765067	-0.106788
N	 0.8747754544	-0.4401457138	-1.1331802223	-0.246792
H	 0.3407548793	-0.4333659961	-2.0053203581	 0.284218
H	 1.6528429599	 0.2161224048	-1.2192140401	 0.2968
C	 1.4142419373	-1.7870723266	-0.7493634117	-0.322731
C	 1.6089843262	-1.6501028182	 0.8029174991	 0.310087
O	 2.3329615066	-2.438633172	 1.383834764	-0.365512
C	 0.8356340492	-0.5257367453	 1.2128289611	 0.025139
C	 0.7439398508	-0.003026199	 2.5453447352	 0.038673
O	 1.3425600906	-0.3867288748	 3.5363016832	-0.313587
H	 0.7450657984	 2.0682550469	 0.1017357318	 0.135104
H	-0.6839458038	 1.8102306997	-0.9473671138	 0.10769
H	-0.8525429852	 1.8367041297	 0.8102294664	 0.167459
H	-0.9373549564	-0.4909854357	-0.1038150104	 0.09932
H	 0.6602614922	-2.5369629141	-1.0058571245	 0.150849
H	 2.3446371042	-1.9971252505	-1.276320576	 0.151963
H	 0.0303691073	 0.8584725659	 2.6402330773	 0.002406
76.8803	164.514	173.9932	191.2833	229.3062	267.6294	295.4793	441.9874	452.7202	478.8849	554.9503	614.1328	664.9804	712.5433	767.319	879.2782	947.7321	971.3889	1000.737	1016.8155	1028.3876	1053.5404	1090.4783	1169.5077	1212.3257	1247.1416	1312.8864	1339.6338	1348.8557	1373.7843	1409.6558	1423.5197	1463.6568	1484.6557	1486.5573	1497.5254	1606.8254	1722.8387	1795.9874	2754.576	2909.7825	3025.5065	3072.4689	3098.348	3134.7292	3152.5309	3405.4672	3489.8718
CC1[NH2+]CC(=O)[C-]1C=O	C[C@H]1[NH2]CC(=O)[C]1C=O	
InChI=1S/C6H8NO2/c1-4-5(3-8)6(9)2-7-4/h3-4,7H,2H2,1H3/q-1/p+1	InChI=1S/C6H9NO2/c1-4-5(3-8)6(9)2-7-4/h3-4H,2,7H2,1H3/t4-/m1/s1
