18
gdb 22172	2.33172	1.50163	1.12573	1.0444	78.9	-0.2281	-0.0335	0.1947	1132.1103	0.146341	-439.06388	-439.054929	-439.053985	-439.097421	34.159	
C	-0.0130365433	 1.5586461232	 0.0305821183	-0.429577
C	 0.0121375993	 0.0269428734	 0.0221431114	 0.314747
O	-1.314662464	-0.4942024769	 0.0166667007	-0.46975
C	 0.7632079404	-0.5558918604	-1.20553469	-0.306509
C	 1.9324068527	-1.3031602585	-0.6222620662	-0.070925
C	 1.9475056818	-1.2868395558	 0.7188982037	-0.157395
C	 0.8056375556	-0.5302058559	 1.2116209687	 0.342949
N	 0.3799514988	-0.309700602	 2.3956395592	-0.259119
O	 1.1809856027	-0.9250549685	 3.3700347741	-0.391256
H	 1.0000141459	 1.9712656857	-0.0223660863	 0.114798
H	-0.5884930526	 1.9240815449	-0.8250704957	 0.119129
H	-0.4769338652	 1.9209174935	 0.9528074952	 0.124163
H	-1.6449768502	-0.4068076321	 0.9191882035	 0.282885
H	 0.0905170081	-1.2216386501	-1.7577178219	 0.135252
H	 1.0846890672	 0.2246071355	-1.9050503412	 0.111767
H	 2.6678613614	-1.8025093059	-1.2437298172	 0.108977
H	 2.6706701671	-1.7620987723	 1.3661651664	 0.123535
H	 0.7486580744	-0.6612756176	 4.1889925576	 0.306328
51.6346	154.831	195.7802	274.0923	292.5663	310.3634	326.3988	354.2025	376.818	410.1697	455.8393	561.8174	604.9022	664.2317	741.4868	805.7108	818.3273	901.9805	929.5698	958.3749	969.4901	989.0775	995.4595	1100.2587	1108.5564	1135.9452	1153.7267	1234.7275	1248.6396	1332.8425	1357.7687	1379.7794	1399.7952	1407.39	1467.4344	1486.2219	1493.0803	1642.1367	1728.1852	3033.3193	3037.7633	3073.4388	3108.0108	3118.3685	3193.9357	3244.5962	3786.1429	3821.2783
CC1(O)CC=CC1=NO	C[C@@]1(O)CC=CC1=NO	
InChI=1S/C6H9NO2/c1-6(8)4-2-3-5(6)7-9/h2-3,8-9H,4H2,1H3	InChI=1S/C6H9NO2/c1-6(8)4-2-3-5(6)7-9/h2-3,8-9H,4H2,1H3/t6-/m1/s1
