21
gdb 38237	3.05239	1.70291	1.37805	0.4321	87.98	-0.2369	0.0254	0.2622	1013.6921	0.186304	-349.91639	-349.909529	-349.908585	-349.947157	29.62	
C	-0.0289060905	 1.604497452	 0.1789054361	-0.254669
C	 1.4669540538	 1.2333914283	 0.0523603281	-0.080544
C	 1.175831511	 0.0455057384	 1.0324464772	-0.303457
C	 0.007051407	 0.0454941869	 0.0041644779	 0.354727
C	-1.1689440577	-0.8339418833	-0.3228420451	-0.352639
C	-1.8012920797	-0.2952210103	-1.6344877442	-0.255036
C	-0.8268474468	 0.2728545176	-2.6490160955	-0.028253
C	 0.4572902191	 0.5722462748	-2.4222654416	-0.137879
C	 1.0740692455	 0.2430842963	-1.1023387656	-0.000462
H	-0.3582634571	 1.9692525056	 1.1561114891	 0.081104
H	-0.4647505294	 2.1865668967	-0.6341250505	 0.098068
H	 2.3223294414	 1.9099969821	 0.0862587771	 0.066146
H	 1.8626087883	-0.8054954293	 0.994310752	 0.08609
H	 0.9342097267	 0.3202002386	 2.0631946534	 0.085824
H	-0.8195157171	-1.8631962593	-0.4725972502	 0.100607
H	-1.921548897	-0.8621359469	 0.4730326438	 0.094767
H	-2.3981699759	-1.0832898464	-2.1101541748	 0.103607
H	-2.5232376603	 0.4968439772	-1.3858175873	 0.113947
H	-1.2518467772	 0.469075815	-3.6319188618	 0.083861
H	 1.0722126599	 0.9784562937	-3.2227265797	 0.079092
H	 1.791351316	-0.5833819776	-1.2027901985	 0.065099
160.1783	243.2905	302.4562	367.0422	433.2763	464.4629	533.0982	583.1176	653.5024	677.2876	754.2809	789.6978	834.8229	841.4315	881.7203	903.518	917.0511	956.2457	984.6991	995.167	1009.8201	1023.5385	1037.4666	1063.5899	1073.9453	1117.3304	1129.6757	1143.1381	1151.3477	1193.8823	1213.1166	1220.038	1227.2869	1251.3059	1274.7054	1298.6779	1343.0984	1380.1476	1383.8517	1417.4927	1472.2364	1490.8392	1495.8142	1537.5223	1693.6544	2999.7161	3001.494	3023.4541	3042.442	3043.9352	3056.7892	3067.7753	3098.0269	3108.0278	3130.6363	3131.3561	3154.4171
C1C2CC11CCC=CC21	C1[C@H]2C[C@]31CCC=C[C@@H]23	
InChI=1S/C9H12/c1-2-4-9-5-7(6-9)8(9)3-1/h1,3,7-8H,2,4-6H2	InChI=1S/C9H12/c1-2-4-9-5-7(6-9)8(9)3-1/h1,3,7-8H,2,4-6H2/t7-,8-,9+/m0/s1
