14
gdb 24323	4.10075	1.67571	1.1896	5.1695	77.77	-0.2092	-0.0481	0.1611	946.1393	0.106366	-395.798794	-395.792874	-395.79193	-395.82892	24.087	
N	-0.0077517536	 1.3386216317	 0.0098405451	-0.215059
C	 1.2423794998	 1.8799416985	 0.0005137634	-0.213057
C	 2.1316097328	 0.8105775989	-0.014103562	 0.205512
C	 3.5333720224	 0.641264302	-0.0288286047	-0.070661
N	 4.0764024936	-0.5528325693	-0.0407453306	-0.276383
C	 3.2263410202	-1.6317194337	-0.0383172463	 0.044679
N	 1.9178207896	-1.6392425041	-0.025470167	-0.332731
C	 1.3471162361	-0.4031814506	-0.0130554268	 0.268756
C	 0.009757583	-0.0316374101	 0.0021755453	-0.187527
H	-0.8536285278	 1.8851403026	 0.021165633	 0.275587
H	 1.3944493535	 2.9465799738	 0.0048850308	 0.140055
H	 4.2083438883	 1.4972935222	-0.0307714261	 0.111775
H	 3.7239455889	-2.598631209	-0.048519146	 0.109152
H	-0.895680707	-0.613812903	 0.0078953819	 0.139902
214.9299	237.7897	425.3013	443.8321	567.1548	599.8667	613.3575	635.3716	648.3868	666.2116	735.72	774.4326	826.7736	907.1596	918.4278	945.9398	1002.4182	1082.3322	1101.4685	1147.9919	1229.5388	1264.2742	1325.1545	1357.5807	1394.0648	1430.1082	1435.2689	1485.1247	1557.5919	1568.0924	1647.1519	3124.7592	3162.0135	3269.8656	3284.0929	3659.8516
N1C=C2C=NC=NC2=C1	[nH]1cc2cncnc2c1	
InChI=1S/C6H5N3/c1-5-2-8-4-9-6(5)3-7-1/h1-4,7H	InChI=1S/C6H5N3/c1-5-2-8-4-9-6(5)3-7-1/h1-4,7H
