17
gdb 70716	2.3239	1.88615	1.24659	2.6973	68.97	-0.2466	-0.0304	0.2162	1005.5937	0.136142	-458.96248	-458.954699	-458.953754	-458.994603	30.324	
O	-0.0286904447	 1.3822761129	-0.0186974958	-0.475913
C	-0.0181087253	-0.0010644793	-0.0049656612	 0.36276
C	-0.4393386864	-0.7382207466	-1.2722124368	-0.350314
C	-1.3279113643	-0.7622429199	-0.0574133508	-0.126032
C	-1.4461671896	-2.0445583996	 0.7679715272	-0.09957
O	-0.4317948028	-2.1989496777	 1.7493325688	-0.238669
C	 0.877145833	-2.0455874629	 1.2292875195	-0.199165
C	 1.0712920597	-0.5930646599	 0.8128409116	 0.331583
O	 2.0003593774	 0.0968159071	 1.1837246466	-0.349249
H	 0.8250300963	 1.6371561061	 0.3665626477	 0.295951
H	-0.7160431041	-0.0834894642	-2.0903499408	 0.138197
H	 0.0766116365	-1.6487985974	-1.5609725407	 0.119733
H	-2.2090990024	-0.1305209903	-0.0958398233	 0.118518
H	-2.3864012775	-2.0478042715	 1.32443948	 0.125344
H	-1.4459528408	-2.9190902854	 0.0962630662	 0.097666
H	 1.5824178694	-2.2773560777	 2.0293596172	 0.141638
H	 1.0620787056	-2.7330815838	 0.3856157046	 0.107522
96.5926	167.2595	223.2102	317.0407	342.6039	370.2046	412.9327	464.9416	475.9135	505.2014	602.3456	663.849	756.438	820.0842	859.1519	907.724	925.248	948.6964	1007.5934	1030.6785	1040.3971	1074.1105	1107.5649	1150.2777	1170.9862	1219.6207	1253.4042	1312.845	1322.6398	1354.1065	1396.6874	1401.7816	1439.6439	1476.2714	1486.0464	1499.3394	1787.1633	2956.0407	2967.3911	3098.2657	3121.8254	3129.6174	3171.3981	3228.211	3696.0602
OC12CC1COCC2=O	O[C@]12C[C@H]1COCC2=O	
InChI=1S/C6H8O3/c7-5-3-9-2-4-1-6(4,5)8/h4,8H,1-3H2	InChI=1S/C6H8O3/c7-5-3-9-2-4-1-6(4,5)8/h4,8H,1-3H2/t4-,6+/m0/s1
