17
gdb 12444	3.29332	2.02868	1.37336	2.8638	70.98	-0.2488	0.0058	0.2546	903.154	0.144014	-363.871329	-363.864011	-363.863067	-363.903335	27.492	
N	 0.0254701461	 1.3684372973	 0.2118138485	-0.471779
C	-0.0124811079	 0.1215578077	-0.003601299	 0.35878
C	-1.3393659438	-0.6005452005	-0.0922508691	-0.303235
C	-1.6228662307	-1.3446598627	-1.3805198471	-0.064922
C	-0.8307357428	-2.271486461	-1.9136665844	-0.0596
C	 0.504147685	-2.6692522492	-1.3326042281	-0.259491
C	 1.4528329613	-1.489792706	-1.1097973154	-0.070629
O	 1.1331326451	-0.6363672357	-0.0039624017	-0.258352
H	 1.0005510259	 1.6702334898	 0.2819007013	 0.217306
H	-1.3740496777	-1.3128695562	 0.746153129	 0.130128
H	-2.108352552	 0.1500552288	 0.0898725846	 0.135813
H	-2.56621997	-1.1097377099	-1.8651931073	 0.099535
H	-1.1455421441	-2.7736681757	-2.824470645	 0.092906
H	 0.3738333588	-3.1971092731	-0.3770327622	 0.121446
H	 1.0097162077	-3.3706615751	-2.0051557186	 0.108319
H	 2.4533928688	-1.8603081761	-0.8699670039	 0.115498
H	 1.5209749801	-0.8866345023	-2.0248974217	 0.108276
72.4667	84.9173	256.6064	317.5091	331.1315	425.7662	482.9451	533.5188	605.8703	703.0746	716.2408	813.2565	871.2412	906.2569	947.2224	962.237	993.9248	994.6932	1040.5629	1057.2789	1083.0973	1132.9654	1209.0875	1230.6266	1253.5504	1312.032	1324.2626	1341.4973	1364.4887	1410.6417	1430.8674	1461.5811	1471.6103	1498.5263	1725.5869	1739.6994	2999.873	3010.7511	3020.5443	3071.5767	3091.7212	3130.4382	3154.1951	3177.7299	3451.2695
N=C1CC=CCCO1	[NH][C]1CC=CCCO1	
InChI=1S/C6H9NO/c7-6-4-2-1-3-5-8-6/h1-2,7H,3-5H2	InChI=1S/C6H9NO/c7-6-4-2-1-3-5-8-6/h1-2,7H,3-5H2
