17
gdb 25767	4.23269	1.03117	0.83775	3.3004	80.56	-0.2343	-0.0471	0.1873	1359.3532	0.134651	-421.889858	-421.880919	-421.879974	-421.924075	31.844	
C	-0.1247121491	 1.5178870537	-0.0094074867	-0.485828
C	 0.0553960647	 0.0119719642	 0.0208040867	 0.292394
O	 1.1503663831	-0.5175654369	 0.0508398489	-0.315949
C	-1.1590465906	-0.8109489429	 0.013462151	 0.285557
C	-1.3324778366	-2.1674220874	 0.0355354489	-0.356929
C	-2.7392936497	-2.4116651556	 0.014404381	 0.254522
C	-3.4412468	-3.7343675321	 0.0263271456	-0.500321
C	-3.3128288189	-1.1713942059	-0.0195514018	-0.102796
O	-2.3799900782	-0.1926246656	-0.0208615319	-0.177872
H	 0.8569021319	 1.992114069	-0.0073071554	 0.139075
H	-0.6859823843	 1.8210057526	-0.8992575685	 0.143355
H	-0.703900239	 1.8527513469	 0.8574455335	 0.143546
H	-0.5349172461	-2.893312223	 0.0638723209	 0.13691
H	-3.1890204513	-4.3118007222	 0.9222926044	 0.137853
H	-4.5268612623	-3.606246692	 0.006199041	 0.127729
H	-3.1600764946	-4.343090032	-0.8398319519	 0.137873
H	-4.340217799	-0.8433861508	-0.0446054856	 0.140881
75.2297	110.6793	112.4449	151.9519	154.9345	299.7714	301.695	378.578	500.5541	557.7665	600.5585	621.9552	687.7926	690.1342	782.1071	871.4845	916.8345	981.0719	988.8064	1017.0588	1042.7077	1066.1388	1082.9442	1173.9005	1214.0918	1255.0127	1325.8394	1382.0558	1394.7039	1421.9257	1461.701	1471.8176	1483.2273	1498.4385	1540.9378	1643.0808	1767.0941	3034.9839	3044.5241	3088.9976	3106.6451	3114.3491	3158.4215	3264.3927	3265.7251
CC(=O)C1=CC(C)=CO1	CC(=O)c1cc(C)co1	
InChI=1S/C7H8O2/c1-5-3-7(6(2)8)9-4-5/h3-4H,1-2H3	InChI=1S/C7H8O2/c1-5-3-7(6(2)8)9-4-5/h3-4H,1-2H3
