17
gdb 131833	2.97834	1.29829	0.94111	4.4184	71.39	-0.2275	0.0257	0.2532	1204.4413	0.137425	-455.158666	-455.150272	-455.149328	-455.192378	31.052	
O	-0.0790002201	 0.4420741655	-1.2347497695	-0.421085
C	-0.0294472357	 0.3106739793	 0.1641923226	-0.047309
C	-1.250786588	-0.4188456673	 0.7343393088	-0.180958
N	-1.2571706658	-1.8257379446	 0.3579908952	-0.019291
N	-1.0429237082	-2.1990231904	-0.9379278487	-0.294213
C	-1.1110646767	-3.524102985	-0.9278863452	 0.033623
C	-1.3776974979	-4.0359837464	 0.3571291128	-0.396426
C	-1.4626792651	-2.9033357607	 1.146690795	 0.457478
O	-1.698022582	-2.7091796738	 2.4625721027	-0.429723
H	-0.2588037548	-0.4488664623	-1.5781769267	 0.29564
H	 0.882358084	-0.2097850881	 0.5029157982	 0.088395
H	-0.0065034823	 1.3223576587	 0.5851972851	 0.106553
H	-1.2537825775	-0.3791785982	 1.8259427951	 0.135132
H	-2.1635569874	 0.0603746034	 0.362345999	 0.13078
H	-0.9694131522	-4.0726166224	-1.8478016286	 0.121017
H	-1.4930551664	-5.0621845285	 0.6648881925	 0.104384
H	-1.7910750338	-3.5661911993	 2.8896601216	 0.316005
40.4725	134.023	162.4901	246.5297	251.1295	293.1862	352.9639	430.195	529.0042	607.9593	642.867	664.3615	684.8077	731.8743	740.9599	879.9654	889.245	937.7201	957.4593	1065.8936	1079.3663	1093.437	1121.5515	1189.9229	1237.1801	1250.6264	1291.6093	1321.0705	1373.7136	1395.05	1401.6407	1461.7501	1483.1863	1485.2886	1502.5851	1586.3243	1598.633	2964.8454	3044.585	3064.6651	3121.0862	3241.8595	3267.883	3654.5974	3847.1121
OCCN1N=CC=C1O	OCCn1nccc1O	
InChI=1S/C5H8N2O2/c8-4-3-7-5(9)1-2-6-7/h1-2,8-9H,3-4H2	InChI=1S/C5H8N2O2/c8-4-3-7-5(9)1-2-6-7/h1-2,8-9H,3-4H2
