19
gdb 74019	2.41916	1.924	1.26531	1.8229	82.	-0.223	0.0061	0.2291	1033.6444	0.160387	-385.84569	-385.838061	-385.837117	-385.877555	30.186	
C	 0.0341116731	 1.4540160718	 0.0036930298	-0.490737
C	-0.1774739577	-0.0261850516	 0.0157161623	 0.204357
C	-0.3229634196	-0.8571514567	-1.0214240887	 0.029229
C	 0.3328514023	-1.1563434879	-2.3502238921	-0.141727
O	 0.8073683057	-2.4094725277	-1.7689160013	-0.30778
C	-0.1755052512	-2.3041166817	-0.6660124621	 0.106653
C	 0.1950377132	-2.3106410499	 0.8006077828	-0.073869
C	 1.3832802238	-1.5173858772	 1.2704948377	-0.282215
C	 0.0206268712	-0.8519345678	 1.2599273277	-0.121815
H	 0.9839357512	 1.7198377641	 0.4841764108	 0.129648
H	 0.0335664709	 1.8527200462	-1.0144028553	 0.124277
H	-0.7548550528	 1.972071173	 0.5637198926	 0.130606
H	-0.3421355473	-1.3472949534	-3.1953852343	 0.101829
H	 1.1519485123	-0.504336731	-2.6724545449	 0.111106
H	-1.0137488751	-2.9795796186	-0.8811009491	 0.072636
H	-0.1541272981	-3.1215151558	 1.4281188993	 0.085157
H	 1.79750916	-1.7989845564	 2.2328153054	 0.11256
H	 2.1146554018	-1.2026694427	 0.5335552037	 0.124825
H	-0.4492510436	-0.6019142865	 2.2057190454	 0.08526
150.3585	171.8216	192.1018	218.0558	248.434	402.9179	490.5835	540.8185	588.8372	674.6234	711.5539	789.0265	810.6725	826.426	885.1793	910.8338	921.868	957.7507	973.1567	1019.214	1041.013	1062.5565	1073.6094	1082.9773	1097.2742	1124.1837	1134.0477	1156.1042	1189.489	1215.6349	1265.3444	1315.9135	1342.1795	1345.3601	1385.6817	1410.7623	1476.0424	1477.4339	1488.9698	1513.9822	1743.9022	3005.5383	3015.32	3018.4496	3065.0497	3066.9764	3110.4976	3129.6356	3159.5831	3185.0805	3218.719
CC1=C2COC2C2CC12	C[C]1[C]2CO[C@H]2[C@H]2C[C@@H]12	
InChI=1S/C8H10O/c1-4-5-2-6(5)8-7(4)3-9-8/h5-6,8H,2-3H2,1H3	InChI=1S/C8H10O/c1-4-5-2-6(5)8-7(4)3-9-8/h5-6,8H,2-3H2,1H3/t5-,6-,8-/m0/s1
