17
gdb 128147	2.38899	1.20246	0.83981	4.8218	79.05	-0.2219	-0.0551	0.1668	1361.506	0.134009	-451.316043	-451.30564	-451.304696	-451.3525	34.92	
C	 0.2556167243	 1.2447121865	-0.4797805054	-0.329433
N	-0.1198001506	-0.118119862	-0.1770054004	-0.332857
C	-1.4134719581	-0.4844849631	 0.05045676	 0.398598
C	-1.5587145932	-1.9209813727	 0.3574212935	 0.081659
N	-0.4943773216	-2.8525390052	 0.3968276742	-0.358625
C	-0.5048703322	-3.9190611994	-0.6095738204	-0.327975
N	-2.7839658376	-2.339729962	 0.5849769181	 0.239585
N	-3.8147061406	-2.7667444561	 0.7894392851	-0.237795
O	-2.3713886957	 0.275418286	 0.0102710368	-0.419656
H	 0.9194434336	 1.6607490911	 0.2874794092	 0.121356
H	 0.7599358516	 1.3159165887	-1.4505633837	 0.121399
H	-0.6614056827	 1.8350069585	-0.5117838609	 0.169723
H	 0.5769673339	-0.8414849984	-0.0913345971	 0.24703
H	-0.3329395991	-3.2259068976	 1.3262192232	 0.24014
H	-1.3772293597	-4.5862712957	-0.5393455762	 0.118887
H	-0.4987858556	-3.4693342327	-1.6060562375	 0.140524
H	 0.3997838734	-4.5235248359	-0.4962212785	 0.127442
57.9834	79.1644	97.0716	113.7513	131.9202	165.4638	191.6475	250.4669	327.8553	394.6276	452.2188	478.7195	554.807	574.6953	671.6595	723.0963	759.6368	833.7927	1021.1225	1055.1984	1144.6814	1153.9083	1169.7419	1174.2654	1205.7373	1281.1945	1333.8516	1439.7684	1456.6307	1463.1097	1491.6865	1496.0258	1499.1991	1516.3996	1564.6587	1749.274	2181.5891	2991.1272	3020.0753	3068.3074	3079.3589	3122.2234	3147.3181	3510.9056	3627.0788
CNC1=C(NC)N=NO1	CNC(=O)[C](NC)[N][N]	
InChI=1S/C4H8N4O/c1-5-3-4(6-2)9-8-7-3/h5-6H,1-2H3	InChI=1S/C4H8N4O/c1-6-3(8-5)4(9)7-2/h1-2H3,(H,6,8)(H,7,9)
