13
gdb 29232	3.26038	1.43945	0.99858	3.848	64.57	-0.2165	-0.0445	0.172	1068.907	0.090941	-489.958627	-489.951273	-489.950329	-489.99039	28.115	
O	 0.0031466388	 1.415566394	 0.016131199	-0.449132
C	-0.0049545613	 0.0539476359	 0.0058829844	 0.227175
C	-1.1513390334	-0.6706943484	 0.0057260187	-0.029691
N	-1.0811060509	-2.0331568051	-0.0049790564	-0.352506
C	 0.118552867	-2.7756866132	-0.0162244101	 0.436559
O	 0.0837409968	-3.9868082773	-0.0252933014	-0.390906
N	 1.2756175949	-2.0122501297	-0.0157478204	-0.423126
C	 1.1999903221	-0.7191605386	-0.0055759589	 0.355107
O	 2.3329891834	 0.0102223397	-0.0053094005	-0.42269
H	 0.9242012201	 1.7018695838	 0.0146263208	 0.313782
H	-2.1325109852	-0.213986124	 0.0138119144	 0.150853
H	-1.9238399901	-2.5879050713	-0.005358004	 0.270733
H	 3.0690363579	-0.6197415458	-0.0132550157	 0.313842
105.8535	218.6666	297.2462	299.0956	351.3723	389.028	404.6006	495.0889	545.5199	572.6989	617.4752	627.6705	755.8442	762.1726	785.6795	812.4414	900.889	943.1543	1126.0905	1186.8986	1224.1835	1236.8613	1308.664	1407.6673	1452.747	1509.795	1617.7365	1733.3426	1815.4052	3223.4341	3630.3274	3752.8708	3808.032
OC1=CNC(=O)N=C1O	Oc1c[nH]c(=O)nc1O	
InChI=1S/C4H4N2O3/c7-2-1-5-4(9)6-3(2)8/h1,7H,(H2,5,6,8,9)	InChI=1S/C4H4N2O3/c7-2-1-5-4(9)6-3(2)8/h1,7H,(H2,5,6,8,9)
