18
gdb 22634	3.8641	1.11406	1.00226	0.8762	76.8	-0.23	0.0061	0.2361	1220.3986	0.146436	-439.037579	-439.029047	-439.028103	-439.070524	32.702	
C	-0.049739123	 1.4615138923	-0.0724479574	-0.461769
C	 0.0061610015	-0.032263762	 0.0645078367	 0.453356
C	-0.7811769656	-0.7918492374	 1.0889252236	-0.356627
C	 0.7542316198	-0.7886320989	 1.1429072709	-0.217695
C	 1.4135328004	-1.8967249528	 0.4273455953	 0.400325
C	 0.8970599117	-1.9062469654	-0.9973901645	-0.176285
O	 0.1984014431	-0.6774629108	-1.1782206074	-0.305946
N	 2.3053710393	-2.644623291	 0.9424415072	-0.242601
O	 2.7850532721	-3.5661065721	-0.0124828802	-0.398827
H	 0.8725162358	 1.8429464077	-0.5208657911	 0.128751
H	-0.8872004581	 1.7531900363	-0.7146199745	 0.132845
H	-0.1878643879	 1.9342697772	 0.9036304581	 0.119879
H	-1.2799673252	-0.2247615955	 1.8673339727	 0.120972
H	-1.2886365148	-1.7046543722	 0.7963983179	 0.123388
H	 1.2584871966	-0.3136728089	 1.9743635915	 0.107758
H	 1.7162278683	-1.9732424004	-1.7207735858	 0.139515
H	 0.2347596657	-2.7667430703	-1.1691100915	 0.125251
H	 3.4653413903	-4.0352650559	 0.4815110485	 0.307709
91.942	143.4303	198.1806	213.8399	269.1821	332.7611	356.117	390.0002	441.9284	485.7654	561.9976	622.1788	671.3855	726.0656	808.8194	839.9976	914.4263	930.0711	948.9555	978.2354	1015.3155	1027.4666	1045.6462	1071.6978	1098.7008	1120.0845	1199.9762	1217.5063	1244.9152	1286.2257	1350.5033	1383.5331	1413.8536	1434.2164	1476.5056	1479.1164	1500.8814	1502.2753	1759.1541	3007.1554	3039.7715	3070.6704	3106.89	3120.9659	3132.4549	3200.3036	3223.246	3823.8236
CC12CC1C(CO2)=NO	C[C@]12C[C@H]1C(=NO)CO2	
InChI=1S/C6H9NO2/c1-6-2-4(6)5(7-8)3-9-6/h4,8H,2-3H2,1H3	InChI=1S/C6H9NO2/c1-6-2-4(6)5(7-8)3-9-6/h4,8H,2-3H2,1H3/t4-,6-/m0/s1
