25
gdb 118768	2.80071	0.91874	0.79343	1.2771	89.9	-0.2515	0.0807	0.3323	1578.7686	0.225972	-389.482013	-389.47048	-389.469536	-389.518811	42.319	
C	 0.0119360239	 1.4702516209	-0.2009043834	-0.449834
C	 0.0151883854	-0.033686951	 0.0315081685	 0.285942
C	-1.2159282679	-0.6860977169	-0.5805263333	-0.451324
C	 1.33663451	-0.7702329926	-0.0445936726	-0.369653
C	 0.649684714	-0.6097301721	 1.3002599992	 0.310704
C	 1.2732597735	 0.3368442927	 2.3170408255	-0.463626
C	 0.0381688111	-1.8497217751	 1.9442529821	-0.247447
C	 1.0463329279	-2.7413849624	 2.6677144027	-0.07437
O	 0.3566502187	-3.919813839	 3.0648254113	-0.422373
H	 0.9352396191	 1.9564478401	 0.1185408802	 0.112999
H	-0.1106191019	 1.6816897091	-1.2696981181	 0.112577
H	-0.8210028769	 1.9535380986	 0.3242809418	 0.112357
H	-1.3004338533	-0.4026428332	-1.6363077001	 0.110769
H	-1.1906123102	-1.7763859936	-0.5426039892	 0.11839
H	-2.1337785497	-0.3544328952	-0.0798198577	 0.113006
H	 1.3450300112	-1.7563864507	-0.5003015271	 0.102118
H	 2.2369968268	-0.1925103387	-0.2331663533	 0.099239
H	 1.7262899529	 1.2142195383	 1.85345376	 0.113129
H	 0.5251542215	 0.6891179114	 3.0378122005	 0.11297
H	 2.0642085722	-0.1632820088	 2.8860441212	 0.115547
H	-0.742255869	-1.5571499842	 2.6589162735	 0.098435
H	-0.4487983606	-2.4805698189	 1.1974831244	 0.105674
H	 1.8820044956	-2.9774242973	 1.9888810435	 0.086405
H	 1.4698909931	-2.2250279428	 3.541791098	 0.084868
H	 0.9701242725	-4.4750992886	 3.5544821125	 0.283496
44.1971	82.916	112.283	161.4762	167.5607	173.4806	208.0128	265.2232	301.9742	317.5587	348.8182	366.0928	394.0371	434.3529	459.1323	524.7173	693.0194	724.1997	797.1079	873.6405	916.9501	933.3979	959.371	964.9416	1003.7229	1011.618	1041.2077	1062.6029	1063.88	1071.5038	1115.7793	1152.6151	1203.2361	1225.5606	1246.4147	1255.8762	1304.5261	1324.6838	1346.7575	1390.8525	1409.1658	1416.4199	1428.5712	1458.5499	1475.7944	1483.9106	1488.5921	1492.1451	1494.2281	1503.6122	1511.2211	1521.2684	1529.2919	2968.2761	3001.726	3021.3764	3025.7623	3027.1107	3033.4302	3074.2408	3078.4903	3083.6752	3101.0877	3111.4638	3117.6527	3128.2045	3136.7383	3193.6511	3829.181
CC1(C)CC1(C)CCO	CC1(C)C[C@]1(C)CCO	
InChI=1S/C8H16O/c1-7(2)6-8(7,3)4-5-9/h9H,4-6H2,1-3H3	InChI=1S/C8H16O/c1-7(2)6-8(7,3)4-5-9/h9H,4-6H2,1-3H3/t8-/m0/s1
