18
gdb 115167	2.54627	1.4235	1.09983	6.3679	68.77	-0.2409	0.051	0.2919	1136.1187	0.147931	-476.265327	-476.25614	-476.255195	-476.300025	32.233	
C	 0.0072138496	 1.3931180295	-0.2134468621	-0.347675
N	 0.0297801071	-0.0480347784	-0.1678725223	-0.112739
C	-1.1544853557	-0.875344424	-0.0999987685	 0.003028
C	-2.128280564	-0.6730540783	-1.2599192966	-0.111076
O	-1.4413946441	-0.9030610804	-2.4735446005	-0.407801
C	-0.5090107839	-2.2791634132	-0.080532003	-0.101079
O	 0.8637204561	-2.0688265518	 0.2630372303	-0.248606
C	 1.1737702664	-0.7437879076	 0.1365792397	 0.492005
O	 2.2837206338	-0.3069783874	 0.285097362	-0.408165
H	 1.0377353613	 1.73755583	-0.1130427757	 0.169657
H	-0.398500868	 1.7531538174	-1.1652415813	 0.13077
H	-0.5914413581	 1.8132046026	 0.6067488141	 0.115885
H	-1.7167972641	-0.6790540849	 0.8287744356	 0.078347
H	-2.9705132597	-1.3705852062	-1.1216565011	 0.098184
H	-2.5405414079	 0.346907868	-1.2147125173	 0.100122
H	-2.0669793002	-0.828744755	-3.1996793299	 0.296613
H	-0.9568988275	-2.9440090288	 0.6607270606	 0.119541
H	-0.561108601	-2.7387936814	-1.071511954	 0.132989
58.3186	68.2838	154.3136	189.5304	198.9581	240.8424	270.4045	279.4659	333.4236	533.7118	587.4005	662.7555	700.9107	756.6511	769.2632	906.8798	958.9027	996.4066	1064.6857	1085.4774	1115.5236	1127.463	1138.6855	1160.3656	1219.8914	1244.7225	1267.0033	1299.9797	1324.7273	1379.6852	1413.5826	1428.1606	1449.1168	1461.7342	1493.4001	1511.2943	1522.9899	1524.2015	1871.5446	2950.103	2973.6492	3000.0311	3006.9439	3063.4647	3067.3901	3117.3528	3144.5549	3839.9909
CN1C(CO)COC1=O	CN1[C@@H](CO)COC1=O	
InChI=1S/C5H9NO3/c1-6-4(2-7)3-9-5(6)8/h4,7H,2-3H2,1H3	InChI=1S/C5H9NO3/c1-6-4(2-7)3-9-5(6)8/h4,7H,2-3H2,1H3/t4-/m0/s1
