14
gdb 5654	5.25611	2.18107	1.54143	0.0002	70.12	-0.1709	0.0369	0.2078	766.1199	0.111336	-341.631148	-341.625088	-341.624143	-341.660803	24.537	
N	-0.019598775	 1.3709444446	 0.0099548062	-0.400802
C	 1.2865308048	 1.8264702545	-0.0002733886	-0.065
C	 2.1606681213	 0.7581110496	-0.0145479373	-0.31899
C	 1.3359807732	-0.398947778	-0.0128279707	 0.329058
C	-0.0031080411	-0.0052258138	 0.0023389956	 0.329058
C	-0.8277955449	-1.1622848724	 0.0040473835	-0.31899
C	 0.0463411605	-2.2306434853	-0.0102984164	-0.065
N	 1.3524705971	-1.7751177121	-0.0205341263	-0.400802
H	-0.8326884958	 1.9588954193	 0.0211596899	 0.255658
H	 1.494472149	 2.8846850272	 0.0034430346	 0.111939
H	 3.2370822037	 0.8254616678	-0.0246407132	 0.088137
H	-1.9042095164	-1.2296347219	 0.0141511021	 0.088137
H	-0.1616005228	-3.2888580448	-0.0140512291	 0.111939
H	 2.1655623963	-2.3630695546	-0.0315414301	 0.255658
214.5442	306.1698	328.7511	383.8154	461.2396	598.302	603.2037	675.7533	692.5344	693.8473	738.2921	750.8575	781.8914	783.5323	908.3073	945.9418	1068.5135	1079.3425	1084.8518	1133.8893	1183.356	1251.7068	1341.7118	1367.761	1396.9806	1459.3234	1507.0711	1521.1223	1569.1243	1612.7465	3247.3233	3247.9209	3267.4539	3267.6058	3697.6503	3698.4447
N1C=CC2=C1C=CN2	[nH]1ccc2c1cc[nH]2	
InChI=1S/C6H6N2/c1-3-7-6-2-4-8-5(1)6/h1-4,7-8H	InChI=1S/C6H6N2/c1-3-7-6-2-4-8-5(1)6/h1-4,7-8H
