21
gdb 101218	3.13546	0.95099	0.84668	4.0944	79.95	-0.2344	-0.0095	0.2249	1443.9937	0.179689	-424.230029	-424.220064	-424.21912	-424.265532	36.179	
C	-0.0637360187	 1.381336661	 0.0201248238	-0.2363
O	-0.2002810158	-0.0064649956	-0.1795657404	-0.247315
C	 0.6492109427	-0.5640354432	-1.1754113876	 0.115262
C	 2.0963352747	-0.6908694243	-0.6902671246	-0.405614
C	 0.0539327503	-1.9161826143	-1.559480579	 0.001989
C	-0.2676870652	-2.9175891644	-0.4011285018	-0.352789
C	-1.6434565529	-3.129960268	-1.049091333	 0.401391
O	-2.4964982135	-3.9606081031	-0.9287402589	-0.294212
C	-1.4447693883	-1.9372775632	-1.9950442485	-0.364769
H	 0.9105181679	 1.6541598192	 0.4499463139	 0.110242
H	-0.195262967	 1.9407312063	-0.9192079218	 0.105766
H	-0.8460890315	 1.682697084	 0.7211801305	 0.130444
H	 0.6264864069	 0.0890051823	-2.0656836387	 0.066087
H	 2.7235126203	-1.1292862426	-1.4730065086	 0.11773
H	 2.5225549858	 0.2826747375	-0.4328967597	 0.118167
H	 2.1480018795	-1.332410133	 0.1948814062	 0.128495
H	 0.691915544	-2.3801800025	-2.3163779863	 0.079024
H	 0.357201236	-3.8056507134	-0.2816126887	 0.121123
H	-0.3630543785	-2.4081772659	 0.5629603569	 0.145443
H	-1.981971982	-1.0558849814	-1.6305453519	 0.139695
H	-1.6853397247	-2.1016035653	-3.0481041917	 0.12014
55.4725	78.7469	91.6299	178.1373	196.726	212.1503	251.2689	330.5919	351.3706	427.8414	456.2341	502.5128	576.1268	651.4011	677.776	748.8556	846.1809	915.5021	919.709	973.9655	999.2379	1014.2135	1079.421	1090.1755	1125.4248	1133.5013	1171.8496	1183.4014	1190.7566	1194.6291	1229.4749	1240.1402	1260.8826	1345.4408	1372.7094	1385.1131	1403.8974	1420.8209	1443.5341	1478.8886	1482.9936	1493.4029	1504.0085	1513.0446	1893.4083	2946.5505	2980.5842	3031.8487	3041.5748	3058.9122	3064.1811	3072.6877	3111.2798	3112.5895	3117.2523	3121.4	3123.0885
COC(C)C1CC(=O)C1	CO[C@@H](C)C1CC(=O)C1	
InChI=1S/C7H12O2/c1-5(9-2)6-3-7(8)4-6/h5-6H,3-4H2,1-2H3	InChI=1S/C7H12O2/c1-5(9-2)6-3-7(8)4-6/h5-6H,3-4H2,1-2H3/t5-/m0/s1
