17
gdb 90308	2.951	1.81436	1.46285	2.5363	73.04	-0.2463	-0.0109	0.2354	919.5758	0.13739	-421.778063	-421.771266	-421.770322	-421.808955	28.116	
O	 0.0682244067	 1.4274114606	 0.0581911241	-0.43573
C	 0.0529308186	 0.0321130271	 0.0506898555	 0.125966
C	 0.1308239337	-0.6546550814	 1.4821984954	-0.336475
C	-1.370578649	-0.7402079156	 1.3678658783	 0.226665
C	-2.4650528405	-0.2281089769	 1.9426856828	-0.231622
C	-3.3747171459	 0.2663779099	 0.8633347683	 0.012654
O	-2.7847177567	 1.4077466283	 0.1654236982	-0.26747
C	-2.6678904537	 0.1106396617	-0.4358342492	 0.006856
C	-1.3789344107	-0.6299959106	-0.140605096	-0.12511
H	-0.8095870448	 1.7341289958	 0.3328769832	 0.298031
H	 0.8187129403	-0.3065857872	-0.6522848926	 0.09264
H	 0.6413531292	-1.6213657186	 1.4252000437	 0.110019
H	 0.5529103359	-0.0539750692	 2.2896363346	 0.119522
H	-2.601938592	 0.0152127375	 2.9889900041	 0.106293
H	-4.4543662539	 0.3271762371	 0.9525866653	 0.106221
H	-3.1932501498	-0.0008518968	-1.3792543682	 0.105411
H	-1.3083345675	-1.5734605616	-0.6893472874	 0.086129
140.3102	208.375	326.226	367.7469	400.7868	482.1625	538.3464	564.7588	676.3324	719.7648	774.8253	789.8748	807.1389	823.7413	847.734	860.0065	922.0945	950.1373	984.6772	985.4949	1049.2317	1057.4168	1095.8957	1117.7185	1132.315	1175.6759	1206.4079	1236.9481	1251.2117	1274.9604	1291.9397	1328.7129	1350.8393	1384.8439	1460.0739	1472.6638	1684.5484	3051.993	3064.8598	3077.6035	3126.8273	3162.1147	3176.0419	3210.9683	3694.8035
OC1CC2=CC3OC3C12	O[C@H]1C[C]2[CH][C@H]3O[C@H]3[C@@H]12	
InChI=1S/C7H8O2/c8-4-1-3-2-5-7(9-5)6(3)4/h2,4-8H,1H2	InChI=1S/C7H8O2/c8-4-1-3-2-5-7(9-5)6(3)4/h2,4-8H,1H2/t4-,5+,6+,7+/m0/s1
