21
gdb 101045	2.15312	1.26464	0.9272	1.0814	84.67	-0.2409	0.0516	0.2925	1333.5586	0.180037	-387.039941	-387.029754	-387.028809	-387.074778	38.554	
C	-0.6255836763	 1.2935392102	 0.0288050199	-0.425217
C	 0.058683448	-0.0744900916	-0.0563608668	-0.079178
C	 1.0262163433	-0.1225735253	-1.2548686969	-0.063318
O	 0.3798345102	 0.1113286236	-2.4980837858	-0.418937
C	 0.7951852382	-0.5244114419	 1.2191205227	 0.15366
C	 1.7849217192	 0.4098070729	 1.9084237515	-0.293608
C	 0.4848996949	 0.0847012802	 2.580896681	-0.313959
C	 1.1396086286	-1.9247912177	 1.2248685761	 0.275758
C	 1.4086873382	-3.0980344066	 1.2142285139	-0.452049
H	 0.0702109017	 2.0834647752	 0.3332822481	 0.115376
H	-1.0041885658	 1.5572021372	-0.9615867017	 0.134205
H	-1.4664674473	 1.2892742601	 0.7273602306	 0.115374
H	-0.7207014865	-0.8273777024	-0.2437576038	 0.072751
H	 1.7737277291	 0.6727784284	-1.1559419542	 0.107233
H	 1.5633444784	-1.0807416166	-1.2589392017	 0.103534
H	-0.1849630293	-0.6464908215	-2.6805940527	 0.282212
H	 2.6952178696	-0.0308862213	 2.2961726505	 0.127374
H	 1.9076304025	 1.4020554856	 1.4890409926	 0.121009
H	-0.2738206518	 0.8561581445	 2.6260484742	 0.121517
H	 0.4991589837	-0.5864301712	 3.4311727448	 0.126252
H	 1.6543966914	-4.1308464017	 1.2125834576	 0.190012
62.2438	105.4033	149.7497	186.9753	229.1189	250.6742	279.6658	308.665	312.5992	378.5395	425.1721	462.7511	545.9633	563.8416	586.315	644.8149	696.7299	783.9681	859.2767	875.7156	910.7122	919.8247	951.7751	972.8086	1056.6228	1063.3492	1077.1599	1088.7084	1117.2714	1122.6508	1194.6089	1227.5937	1261.4923	1294.8604	1334.3206	1372.874	1393.5383	1405.6333	1420.2957	1462.1193	1490.1517	1499.4474	1506.8315	1513.3723	2228.3957	2997.5976	3013.3115	3039.7858	3071.4548	3106.8137	3126.5591	3141.3231	3150.2175	3226.247	3242.0419	3502.9371	3814.1815
CC(CO)C1(CC1)C#C	C[C@@H](CO)C1(CC1)C#C	
InChI=1S/C8H12O/c1-3-8(4-5-8)7(2)6-9/h1,7,9H,4-6H2,2H3	InChI=1S/C8H12O/c1-3-8(4-5-8)7(2)6-9/h1,7,9H,4-6H2,2H3/t7-/m0/s1
