15
gdb 20799	3.25628	1.82668	1.26608	4.0091	64.38	-0.2265	-0.0298	0.1967	950.3588	0.118612	-395.964963	-395.956906	-395.955961	-395.998228	28.18	
C	 0.0890792428	 1.5901086024	 0.2541955734	-0.374994
C	 0.0064159957	 0.0763597298	-0.0143803917	-0.301773
C	-1.3873642493	-0.4359338309	-0.1077307409	 0.380133
C	-2.1571073285	-0.8866155872	-1.141977273	 0.151876
N	-1.8454798906	-1.058878214	-2.4937036709	-0.602819
N	-3.3743452913	-1.2432740017	-0.6110486752	-0.17141
N	-3.3902109787	-1.0425207029	 0.6371071689	-0.023276
O	-2.1381413963	-0.5024689026	 1.0046245698	-0.215087
H	 1.1330233849	 1.9087747873	 0.3222317256	 0.122973
H	-0.3907372511	 2.1605614251	-0.5468783981	 0.120943
H	-0.4091892536	 1.8447637855	 1.1934261087	 0.140814
H	 0.5145089187	-0.173599295	-0.951599262	 0.126618
H	 0.5286203779	-0.4644604172	 0.7836110156	 0.134019
H	-1.6123587355	-0.1920403514	-2.9626665187	 0.253161
H	-2.6189395949	-1.4972435972	-2.9788776316	 0.258823
50.2348	87.2483	151.5709	191.1601	272.587	295.9002	393.6676	456.9643	630.6181	690.6471	717.7546	724.6187	751.0363	801.2682	807.1985	967.4976	1018.4258	1066.8275	1083.3515	1099.3035	1229.1855	1260.8807	1317.0013	1356.7838	1404.7008	1425.8152	1443.6073	1479.1705	1496.0802	1507.1231	1650.024	1681.0166	3038.7728	3044.1882	3082.2191	3116.3085	3125.3937	3531.266	3617.0872
CCC1=C(N)N=NO1	CCc1c(N)nno1	
InChI=1S/C4H7N3O/c1-2-3-4(5)6-7-8-3/h2,5H2,1H3	InChI=1S/C4H7N3O/c1-2-3-4(5)6-7-8-3/h2,5H2,1H3
