16
gdb 6592	6.06146	1.3334	1.33167	4.7453	71.22	-0.2587	0.011	0.2697	959.778	0.131341	-342.736903	-342.729696	-342.728752	-342.768072	27.616	
C	-0.0795887469	 1.4389353341	 0.0157317051	-0.51223
C	 0.0450853373	-0.0539825282	 0.0048280172	 0.313442
C	 0.6422639881	-0.969072472	-1.1045718837	-0.258055
C	 0.0299688586	-1.8879626773	-0.0140504809	 0.238537
C	 0.7020327379	-0.9923831378	 1.0641034608	-0.295013
N	-1.1840302945	-0.9713232642	-0.0416464655	-0.363883
C	-0.0855821868	-3.3264617277	-0.0221662635	 0.16297
N	-0.161543439	-4.4799662586	-0.0153659631	-0.347485
H	 0.9085549299	 1.908277257	-0.0236422478	 0.131106
H	-0.6593225997	 1.7792117159	-0.847429552	 0.140944
H	-0.5822695764	 1.7852921809	 0.9249702619	 0.127625
H	 0.1102629337	-0.9672652208	-2.055564869	 0.124298
H	 1.7274030421	-0.9884928738	-1.2102327546	 0.11015
H	 1.7937378499	-1.0142157436	 1.1339030944	 0.109102
H	 0.2301770518	-1.0111865995	 2.0505395789	 0.107133
H	-1.6251399161	-0.9868880643	 0.8849473417	 0.211357
142.9243	146.932	197.4075	308.3525	313.9601	513.3784	517.7436	527.455	566.7638	613.3854	635.816	755.1804	784.4563	926.8829	942.0687	964.0842	985.9864	1052.6472	1067.5186	1105.3672	1130.1921	1139.0651	1166.7155	1175.9464	1237.1974	1280.6732	1290.6121	1360.5235	1416.5073	1481.0557	1483.0937	1487.9767	1530.405	2355.5235	3036.4496	3044.5694	3087.911	3104.8466	3115.4257	3116.7001	3169.4272	3372.956
CC12CC(C1)(N2)C#N	C[C@@]12C[C@@](C1)(N2)C#N	
InChI=1S/C6H8N2/c1-5-2-6(3-5,4-7)8-5/h8H,2-3H2,1H3	InChI=1S/C6H8N2/c1-5-2-6(3-5,4-7)8-5/h8H,2-3H2,1H3/t5-,6+
