18
gdb 45432	2.55651	1.6821	1.65175	2.8415	70.27	-0.2245	-0.0152	0.2093	933.746	0.15061	-439.100085	-439.092859	-439.091915	-439.131787	28.636	
O	 0.0192914906	-0.0401126546	-0.1968535966	-0.32644
C	-0.004660768	 1.1538954131	-0.0481448793	 0.462022
C	-1.2735271491	 1.9959418372	 0.0955692183	-0.33136
C	-0.8479049341	 3.4729193887	 0.0639376128	 0.089246
C	 0.0535398227	 3.7862910094	 1.2618556439	-0.173356
N	 1.134152702	 2.778911852	 1.2788336457	-0.306626
C	 1.2246444565	 2.065435695	-0.0064116285	-0.144183
C	 1.1184070622	 3.0305975003	-1.2013058521	-0.084087
O	-0.1329731947	 3.7263388759	-1.1494888941	-0.279836
H	-1.951067369	 1.7618432526	-0.7312220357	 0.136386
H	-1.7865238057	 1.736042885	 1.0286068503	 0.133667
H	-1.7109383158	 4.1415770842	 0.0441379339	 0.087978
H	 0.4296129861	 4.8121282752	 1.1518374369	 0.102217
H	-0.5216562231	 3.7409518459	 2.1963130091	 0.10479
H	 2.0256460478	 3.1977629774	 1.512268329	 0.228171
H	 2.1379206687	 1.4702633694	-0.0443301044	 0.091079
H	 1.9454669431	 3.7551269191	-1.163315472	 0.094908
H	 1.1796609398	 2.4970521643	-2.1588737373	 0.115425
83.0886	162.564	276.6709	331.1565	376.7173	445.3995	478.2096	524.6568	596.8332	642.4092	708.8725	748.6779	832.8046	865.8581	879.5422	912.3444	955.3365	974.1451	1032.3897	1048.3007	1083.5876	1088.4503	1142.2675	1153.9953	1202.1781	1223.5681	1235.9589	1263.2677	1289.3704	1309.5898	1343.3467	1358.973	1395.5063	1400.0122	1434.2582	1459.0122	1514.1437	1519.7549	1850.0299	2987.7525	3002.3417	3033.9798	3037.2413	3049.246	3093.0017	3099.6734	3112.7089	3551.0773
O=C1CC2CNC1CO2	O=C1C[C@H]2CN[C@@H]1CO2	
InChI=1S/C6H9NO2/c8-6-1-4-2-7-5(6)3-9-4/h4-5,7H,1-3H2	InChI=1S/C6H9NO2/c8-6-1-4-2-7-5(6)3-9-4/h4-5,7H,1-3H2/t4-,5+/m0/s1
