20
gdb 84361	2.5977	1.51336	1.21435	3.4413	82.19	-0.2235	0.0005	0.224	1127.5781	0.170586	-399.365417	-399.355821	-399.354877	-399.399586	35.217	
C	 0.0167305331	 1.4649483278	 0.0242985589	-0.356922
N	 0.0202040049	 0.0228179911	 0.0119352192	-0.088078
C	-0.0168789054	-0.8090892374	-1.1038947594	 0.040788
N	-0.0053487489	-2.0630281696	-0.8823167228	-0.283581
C	 0.0474830993	-2.221864216	 0.5911870825	 0.199135
C	-1.1995137593	-2.972761578	 1.0762387208	-0.398382
C	 1.331056532	-2.9642592305	 0.9859591197	-0.39827
C	 0.0626922623	-0.7893630214	 1.1436989815	 0.337946
N	 0.105476518	-0.4683084362	 2.3734548884	-0.559764
H	 0.9218892538	 1.8597036675	 0.5014892508	 0.142103
H	-0.0200011305	 1.8337683029	-1.0027657958	 0.143291
H	-0.855142057	 1.8550212202	 0.5633162994	 0.142102
H	-0.0533211282	-0.3556936476	-2.0908754642	 0.127128
H	-1.2117050248	-3.9842143354	 0.6614579702	 0.122288
H	-1.1963096163	-3.0247501349	 2.1682241444	 0.135748
H	-2.1117076051	-2.4605735147	 0.75708551	 0.114579
H	 2.2147409041	-2.4451040431	 0.6040321583	 0.114565
H	 1.4052787478	-3.017349138	 2.075362773	 0.135712
H	 1.3210861046	-3.9751237787	 0.5697133701	 0.122308
H	 0.1074883656	 0.5434175321	 2.5107650248	 0.207306
79.8307	101.9636	142.4282	209.2836	236.1364	236.7351	280.9238	294.0468	312.4026	326.9635	519.2928	577.1556	601.847	710.4801	716.5163	748.6976	846.3889	879.6143	940.0498	940.9501	954.2598	991.5142	1026.4286	1056.5868	1152.7574	1192.1085	1195.9972	1214.6432	1265.043	1318.7166	1324.1452	1388.7489	1403.8489	1420.7948	1463.0468	1476.2767	1477.1181	1480.8779	1493.7896	1504.7468	1521.43	1681.924	1740.3816	3017.3055	3041.8937	3045.2695	3068.2477	3116.5689	3119.1236	3127.3031	3129.3574	3132.0832	3174.9555	3459.4051
CN1C=NC(C)(C)C1=N	CN1C=NC(C)(C)[C]1[NH]	
InChI=1S/C6H11N3/c1-6(2)5(7)9(3)4-8-6/h4,7H,1-3H3	InChI=1S/C6H11N3/c1-6(2)5(7)9(3)4-8-6/h4,7H,1-3H3
