14
gdb 133566	3.30226	1.19502	1.16855	0.8922	54.32	-0.2567	0.0771	0.3338	1042.6401	0.097494	-568.11558	-568.108384	-568.10744	-568.148627	26.989	
F	-0.9141519369	 1.3084728389	-1.1863539773	-0.075411
C	-0.0813098372	 1.4002253281	-0.1360615934	 0.249136
F	 0.6508377001	 0.2750775512	-0.1183440237	-0.071689
F	 0.7657101831	 2.4142825321	-0.379792668	-0.075411
C	-0.8731473567	 1.6840070038	 1.1240584411	-0.123538
C	-1.7153179038	 0.636628347	 1.9050043873	 0.025391
C	-0.439273561	 0.0089884954	 2.5170680881	-0.234065
C	-0.3249363249	 1.5519365683	 2.5725590846	 0.02539
O	-1.7336659834	 1.5985388646	 3.0335354489	-0.304564
H	-1.4135583927	 2.6190226726	 0.9675923537	 0.121047
H	-2.6593514788	 0.1745329379	 1.6191849524	 0.11138
H	-0.6008558889	-0.4550789563	 3.4899106732	 0.116087
H	 0.2370971183	-0.5510783134	 1.876254326	 0.124867
H	 0.3963580629	 2.1861510699	 3.0863008371	 0.11138
25.8589	155.1746	232.7747	327.5241	378.5046	407.5537	537.0172	565.7699	606.6232	723.8055	728.8586	824.669	875.1215	879.0146	919.6289	929.4079	984.2755	1018.1328	1064.2626	1096.7291	1145.2553	1161.4403	1173.6147	1186.3977	1204.6192	1223.2739	1264.9732	1282.4684	1294.8938	1406.6817	1498.7184	3102.8069	3113.2791	3130.1172	3136.0958	3189.4341
FC(F)(F)C1C2CC1O2	FC(F)(F)[C@H]1[C@H]2C[C@@H]1O2	
InChI=1S/C5H5F3O/c6-5(7,8)4-2-1-3(4)9-2/h2-4H,1H2	InChI=1S/C5H5F3O/c6-5(7,8)4-2-1-3(4)9-2/h2-4H,1H2/t2-,3+,4+
