17
gdb 17026	6.92969	1.31046	1.26604	1.1176	76.27	-0.2198	0.0416	0.2614	996.3149	0.141449	-326.60879	-326.6014	-326.600456	-326.639993	28.974	
C	-0.6272673744	-1.2052469983	 0.2005870523	-0.459669
C	-0.3633482264	-0.0316577147	 0.2093601097	 0.320439
C	-0.0723112168	 1.3837606203	 0.1846180662	-0.158752
C	-0.0390880965	 2.2180538748	 1.5097288839	-0.016021
C	 1.2725457313	 1.4806488056	 1.9005763457	-0.266182
C	 1.3872137807	 1.9055505372	 0.4095389279	-0.016006
N	 0.7349198152	 3.2462998256	 0.7020644311	-0.112209
C	 1.5060453283	 4.2590368457	 1.4139783782	-0.33069
H	-0.8581790464	-2.2416261039	 0.1956535343	 0.193156
H	-0.5831389118	 1.906862175	-0.626210468	 0.106469
H	-0.8911682388	 2.4936136208	 2.1334361597	 0.086375
H	 1.9307628798	 1.9749262945	 2.613482887	 0.103277
H	 1.1999871258	 0.4122032396	 2.1100130081	 0.117962
H	 2.2314963748	 1.8094574922	-0.2752538925	 0.086368
H	 2.1931470295	 4.7296411181	 0.70294107	 0.123377
H	 0.8149234144	 5.0326409693	 1.7647431447	 0.12338
H	 2.0966346914	 3.9184802881	 2.2777637115	 0.098727
137.7231	154.615	181.4877	307.9973	336.5034	455.4169	502.0044	514.9759	602.5636	622.4678	647.4436	734.2789	763.3345	804.7558	898.229	902.7961	904.3727	1001.0174	1032.9611	1057.6632	1081.563	1107.6769	1136.1982	1152.1389	1187.5636	1189.3931	1195.2338	1212.4109	1248.8048	1277.4713	1348.2332	1445.1376	1482.7698	1500.2773	1529.9095	2233.4201	2987.0837	3064.172	3086.5638	3095.7516	3097.5891	3100.4238	3109.6346	3153.0497	3503.6592
C#CC1C2CC1N2C	C#C[C@H]1[C@H]2C[C@@H]1N2C	
InChI=1S/C7H9N/c1-3-5-6-4-7(5)8(6)2/h1,5-7H,4H2,2H3	InChI=1S/C7H9N/c1-3-5-6-4-7(5)8(6)2/h1,5-7H,4H2,2H3/t5-,6+,7-
