20
gdb 124586	3.50596	1.00279	0.94119	2.5166	83.06	-0.1897	0.0337	0.2235	1361.7656	0.171741	-399.351531	-399.341985	-399.341041	-399.386823	35.146	
C	-0.1033800357	 1.5884261268	 0.2280324882	-0.386569
C	-0.0661392855	 0.0708221886	 0.0134408007	 0.063107
C	 0.8909338197	-0.6315875005	 0.9836295574	-0.385942
N	-1.4067972428	-0.5067200175	 0.0828761394	 0.050863
C	-2.2672414552	-0.5159876106	 1.1436115598	-0.117185
C	-3.4083124785	-1.1789328535	 0.7277242828	 0.161261
N	-4.5482769737	-1.508283075	 1.4831866003	-0.608666
C	-3.1319291051	-1.5332930302	-0.6107755772	-0.059349
N	-1.9212289479	-1.121254565	-0.9909839423	-0.263256
H	 0.8943150697	 2.013483634	 0.0824414968	 0.119253
H	-0.7889231836	 2.0629848362	-0.4789392107	 0.131794
H	-0.428329521	 1.8392567939	 1.2432936741	 0.11663
H	 0.2476854939	-0.137656735	-1.0122805075	 0.111684
H	 0.9042629038	-1.7092509372	 0.8012441426	 0.134142
H	 1.9067614954	-0.2450795145	 0.8569140393	 0.118412
H	 0.5957593037	-0.4633698131	 2.0245962803	 0.117614
H	-2.0135138571	-0.0670469064	 2.0903248094	 0.115552
H	-4.7404195885	-0.8348975971	 2.2137544409	 0.239848
H	-5.3734761686	-1.6004081219	 0.9046119961	 0.242586
H	-3.7636153929	-2.068976572	-1.3048832502	 0.09822
21.6672	97.7961	149.2439	184.7742	221.4513	256.1717	299.2857	318.1607	385.3457	432.0827	505.6492	605.3989	644.5785	670.3491	717.0121	733.6356	778.336	840.2314	893.9176	933.0322	949.0695	998.9627	1031.8189	1096.2867	1108.4463	1144.1646	1167.362	1207.1418	1229.0639	1311.3336	1353.6239	1397.2416	1399.782	1404.4093	1419.0301	1437.2473	1484.768	1487.0028	1489.8421	1500.4365	1508.3644	1630.0506	1659.0255	3036.9046	3041.0211	3084.0843	3104.2553	3116.5784	3121.9728	3124.7172	3237.2513	3260.0138	3534.7404	3621.5439
CC(C)N1C=C(N)C=N1	CC(C)n1cc(N)cn1	
InChI=1S/C6H11N3/c1-5(2)9-4-6(7)3-8-9/h3-5H,7H2,1-2H3	InChI=1S/C6H11N3/c1-5(2)9-4-6(7)3-8-9/h3-5H,7H2,1-2H3
