17
gdb 48857	3.62083	1.48452	1.21479	2.1708	80.91	-0.2186	-0.0444	0.1742	1016.3909	0.135816	-384.599719	-384.592495	-384.59155	-384.631297	28.458	
O	-0.2160969526	 0.3232179141	-0.5810527905	-0.271423
C	 0.1094068431	 1.1862020916	 0.2023032458	 0.074239
C	 1.372041243	 1.9507055059	 0.1561254931	 0.187088
C	 1.6797153593	 3.1762676247	 1.1031069047	-0.327151
C	 2.6482762694	 3.5460477999	-0.0296348507	 0.037561
C	 3.9002693684	 3.0572481919	 0.0817951751	-0.097925
C	 3.9995774851	 1.7270062823	-0.6573502207	-0.267961
C	 2.5019182651	 1.4470054435	-0.8733544023	-0.079043
C	 1.8430564365	 2.7440835095	-1.0654374967	-0.116653
H	-0.5631134837	 1.4764856509	 1.0419130422	 0.071807
H	 0.7725899856	 3.7849104059	 1.2006653437	 0.111365
H	 2.1223736746	 2.9988132658	 2.0868631779	 0.109177
H	 4.5105090002	 3.2335709636	 0.9628994955	 0.102593
H	 4.5260730749	 1.7085843282	-1.6224471644	 0.11843
H	 4.5075427983	 1.0066644078	-0.0054903862	 0.119209
H	 2.1622533074	 0.5709661127	-1.4177900469	 0.119058
H	 1.2236757454	 3.1041007317	-1.8763788995	 0.109629
103.8909	195.0038	203.5574	282.3709	367.55	418.1983	498.7209	546.5195	676.2662	703.225	749.3219	794.9608	854.7966	875.391	913.3898	920.2765	946.3948	975.1364	997.8033	1007.1433	1023.2534	1043.3932	1074.4439	1107.8587	1142.298	1171.1695	1192.4348	1237.1028	1243.5516	1288.4323	1301.1321	1380.7031	1429.2023	1471.7905	1502.2383	1591.8276	1791.2584	2865.4775	3003.1948	3024.6049	3059.3328	3096.0017	3168.2235	3174.4027	3203.2094
O=CC12CC3=CCC1C23	O=C[C@@]12C[C]3[CH]C[C@@H]1[C@@H]23	
InChI=1S/C8H8O/c9-4-8-3-5-1-2-6(8)7(5)8/h1,4,6-7H,2-3H2	InChI=1S/C8H8O/c9-4-8-3-5-1-2-6(8)7(5)8/h1,4,6-7H,2-3H2/t6-,7+,8+/m1/s1
