16
gdb 108709	3.3016	1.11662	0.88627	6.6759	75.07	-0.2359	-0.0862	0.1497	1288.8737	0.123831	-437.950968	-437.942316	-437.941372	-437.984916	31.224	
C	 0.0112916984	 1.5446829008	 0.2098880597	-0.378722
C	-0.018134265	 0.0322985224	-0.0851381848	-0.299525
C	-1.4008154486	-0.5293113611	-0.1243679711	 0.384136
C	-2.0834200294	-1.0379197966	-1.1812057313	-0.362422
C	-3.4044420246	-1.4467949059	-0.723586421	 0.300911
O	-4.340466751	-1.9399677082	-1.3045608587	-0.305531
C	-3.4170041384	-1.106569373	 0.8166435528	 0.32385
O	-4.2893484811	-1.2805895675	 1.622716436	-0.314504
N	-2.1638655933	-0.5509761315	 1.0463339073	-0.393568
H	 1.0436689213	 1.90304283	 0.2312374823	 0.132893
H	-0.5303120718	 2.1009419729	-0.5599946083	 0.139907
H	-0.4447762479	 1.7790062733	 1.1763012598	 0.124608
H	 0.4647218438	-0.1715519671	-1.0443729807	 0.132137
H	 0.5578755422	-0.5003401021	 0.6836843938	 0.126361
H	-1.7114165855	-1.1241407415	-2.1900466541	 0.122476
H	-1.8402025191	-0.259657725	 1.9541595684	 0.266992
55.4842	100.3924	145.6397	195.7614	248.2315	309.4277	323.2655	396.7549	489.1748	565.2547	568.0583	640.715	700.2576	746.1577	757.4917	797.6723	846.4597	932.5809	1004.1002	1051.8634	1069.4852	1087.27	1170.5144	1246.2809	1263.752	1313.7918	1346.8024	1410.8223	1436.3419	1478.8408	1496.8552	1505.4392	1644.8948	1818.8869	1866.213	3024.0502	3047.303	3094.5913	3121.3589	3127.3646	3256.6103	3653.2935
CCC1=CC(=O)C(=O)N1	CCC1=CC(=O)C(=O)N1	
InChI=1S/C6H7NO2/c1-2-4-3-5(8)6(9)7-4/h3H,2H2,1H3,(H,7,8,9)	InChI=1S/C6H7NO2/c1-2-4-3-5(8)6(9)7-4/h3H,2H2,1H3,(H,7,8,9)
