18
gdb 47072	2.96185	1.5485	1.06619	4.6498	82.36	-0.2036	-0.0316	0.172	1102.8981	0.150927	-401.98768	-401.98035	-401.979406	-402.01947	28.925	
O	 0.0301395235	-0.0453093093	 0.1661092809	-0.351747
C	-0.001108019	 1.1618114159	 0.0371464084	 0.288323
C	-1.2801675747	 2.0382193253	 0.0704410324	-0.31804
C	-0.7924400831	 3.4811044856	 0.3552146962	-0.248581
C	 0.5953581325	 3.5195834725	-0.3197465035	-0.057322
C	 1.7637105949	 4.3621721511	 0.2394688814	-0.199372
N	 2.9100310851	 3.4207246808	 0.1368166145	-0.28238
C	 2.4162215439	 2.1325431887	 0.1418882105	-0.145523
C	 1.0954199437	 2.1037453755	-0.1271323557	 0.183045
H	-1.7522207098	 1.9786668639	-0.9198240882	 0.122007
H	-2.0009301419	 1.6495999553	 0.793355096	 0.119645
H	-1.4824334364	 4.2456391683	-0.0131367899	 0.097513
H	-0.6786487696	 3.6265384162	 1.4360449233	 0.101265
H	 0.4717065291	 3.7399522645	-1.3909812702	 0.082864
H	 1.9607783682	 5.2720985092	-0.3312655902	 0.116586
H	 1.5940439211	 4.6398824137	 1.291377403	 0.103529
H	 3.7371530365	 3.6161246293	 0.6812058981	 0.246555
H	 3.0770121061	 1.3020054034	 0.356829483	 0.141635
119.4027	174.7544	177.254	296.4372	382.3275	466.984	523.2501	532.359	580.0262	596.1173	664.2815	705.1416	820.069	871.3414	926.0108	940.1101	959.2728	964.265	980.3277	1031.548	1058.5024	1076.2472	1132.1758	1158.1303	1199.6747	1215.2753	1255.1772	1275.1171	1285.8123	1303.3034	1308.7743	1362.5844	1374.092	1459.1137	1459.8545	1496.5431	1512.1235	1666.8347	1787.8723	2976.0118	2985.9041	3026.1953	3036.5041	3088.654	3100.3143	3109.4523	3220.7596	3607.0976
O=C1CCC2CNC=C12	O=C1CC[C@H]2CN[CH][C]12	
InChI=1S/C7H9NO/c9-7-2-1-5-3-8-4-6(5)7/h4-5,8H,1-3H2	InChI=1S/C7H9NO/c9-7-2-1-5-3-8-4-6(5)7/h4-5,8H,1-3H2/t5-/m0/s1
