23
gdb 120759	3.48964	0.75556	0.66862	0.6827	88.12	-0.221	0.0774	0.2983	1771.69	0.205622	-384.411103	-384.401153	-384.400209	-384.446989	36.389	
C	 0.1857208039	 1.5631281178	-0.6408303573	-0.382509
C	 0.2699065861	 0.0606152843	-0.3612364347	-0.16711
C	 0.4551272047	-0.2520716838	 1.1244505436	-0.114613
N	 0.4822819812	-1.6964214152	 1.3397259503	-0.088172
C	 1.7790945215	-2.3618063565	 1.3810369777	-0.268942
C	 0.9492548056	-2.2383947143	 2.6156569022	-0.010867
C	 1.3897074382	-1.3816576164	 3.7618307788	 0.013445
C	 0.5159985803	-1.2568196203	 4.9574685489	-0.246374
N	 1.7700398312	-2.0253392118	 5.0317761616	-0.326702
H	 1.0952947767	 2.08195298	-0.317702711	 0.113505
H	 0.0540042032	 1.7601258025	-1.7089079756	 0.114855
H	-0.6590618231	 2.0195061276	-0.1127048087	 0.114719
H	-0.6360312027	-0.4453850601	-0.712939004	 0.107559
H	 1.1050175123	-0.3767468868	-0.9228919186	 0.098056
H	 1.3652766349	 0.2546693966	 1.4887455926	 0.08164
H	-0.3871954915	 0.1568235996	 1.6965699302	 0.102226
H	 1.8567750744	-3.3061097738	 0.8481051816	 0.113826
H	 2.672692202	-1.7383414131	 1.3321201946	 0.107962
H	 0.3781623888	-3.1113200012	 2.9399886507	 0.079741
H	 2.0300926783	-0.5422899017	 3.5060573279	 0.094417
H	 0.5066642755	-0.3376055028	 5.5362197962	 0.119821
H	-0.4279516992	-1.7968020089	 4.9487992861	 0.113151
H	 1.5661388875	-3.0217624117	 4.9836585469	 0.230367
52.2348	77.7082	92.6352	111.9833	199.3158	235.0491	263.14	312.0025	349.5895	394.2916	460.6047	575.7051	754.0962	758.7287	809.8171	857.1865	880.2218	901.6258	907.8907	935.9203	955.657	967.6873	1034.5456	1053.0236	1074.7871	1094.8464	1119.1347	1126.6173	1137.3942	1146.5	1159.9447	1200.3368	1238.9426	1253.9477	1277.3536	1294.5758	1322.4789	1328.3427	1331.5411	1343.1533	1406.7319	1414.305	1454.9716	1485.2962	1494.8275	1500.2053	1507.3844	1511.8241	1517.5027	2951.5428	3027.9906	3029.7685	3043.2596	3069.4786	3073.1774	3079.0363	3097.277	3104.8217	3105.3281	3146.408	3168.4428	3191.6358	3486.0279
CCCN1CC1C1CN1	CCCN1C[C@H]1[C@H]1CN1	
InChI=1S/C7H14N2/c1-2-3-9-5-7(9)6-4-8-6/h6-8H,2-5H2,1H3	InChI=1S/C7H14N2/c1-2-3-9-5-7(9)6-4-8-6/h6-8H,2-5H2,1H3/t6-,7+,9?/m1/s1
