16
gdb 80510	2.35271	1.46365	1.23887	3.2399	70.44	-0.2629	0.0034	0.2664	1066.2808	0.123449	-437.853029	-437.844764	-437.84382	-437.885685	31.125	
C	-0.0995397147	 1.5792260211	 0.0202541329	-0.428939
C	 0.1559722308	 0.0887311978	 0.027970436	 0.09102
O	 1.3201939969	-0.349780123	-0.7536658658	-0.318488
C	 1.7705792772	-1.1801029855	 0.3137872237	-0.018642
C	 2.2166893888	-0.3217999145	 1.4334646679	 0.079546
O	 2.788830206	 0.9173300826	 1.2181894504	-0.419416
C	 0.7064829627	-0.6128159697	 1.2796165929	 0.065974
C	-0.0718810593	-1.2348902105	 2.2912286268	 0.186304
N	-0.7095478089	-1.7332844057	 3.1199542923	-0.346902
H	 0.7240323936	 2.1352214752	 0.4697826152	 0.143491
H	-0.2572263971	 1.9250826699	-1.0061561059	 0.136649
H	-1.0104406046	 1.7900257859	 0.5900176598	 0.141682
H	-0.7160387598	-0.4576309067	-0.3486247706	 0.113294
H	 2.0684486763	-2.1975955641	 0.0869174658	 0.132852
H	 2.6423819197	-0.8372646183	 2.2892611454	 0.140365
H	 2.7505437625	 1.0724652655	 0.2638203933	 0.301211
130.2604	143.4973	182.5071	222.2269	238.0472	305.4132	393.3458	462.8101	486.474	519.498	545.4822	615.5917	665.6638	744.9184	821.8031	850.8941	904.7898	947.7925	1019.009	1038.5401	1078.1194	1100.0331	1131.0764	1155.9009	1226.543	1233.9305	1289.1637	1305.1338	1374.0535	1392.69	1410.7831	1465.7106	1485.5428	1500.3985	2340.9196	3044.0837	3048.7834	3112.7117	3150.4844	3170.2518	3185.4095	3747.7321
CC1OC2C(O)C12C#N	C[C@H]1O[C@H]2[C@@H](O)[C@@]12C#N	
InChI=1S/C6H7NO2/c1-3-6(2-7)4(8)5(6)9-3/h3-5,8H,1H3	InChI=1S/C6H7NO2/c1-3-6(2-7)4(8)5(6)9-3/h3-5,8H,1H3/t3-,4-,5+,6-/m1/s1
