19
gdb 30726	2.94378	1.18988	0.90745	3.2776	79.67	-0.1769	0.0444	0.2213	1306.8807	0.159946	-419.238888	-419.229273	-419.228328	-419.273497	35.714	
C	 0.0146049067	 1.599501637	 0.3033847471	-0.36252
C	-0.0455020794	 0.1168318034	-0.109399174	-0.301979
C	-1.4233485595	-0.4628172261	-0.1066817361	 0.281063
C	-2.2427254444	-0.846136605	-1.1559920333	-0.015252
N	-2.0448992616	-0.8341588109	-2.5705765092	-0.635203
C	-3.4660311823	-1.3198898911	-0.5994601143	 0.325258
O	-4.5059584179	-1.7804340173	-1.3403915922	-0.455127
C	-3.3818885134	-1.2212238373	 0.7665480403	-0.204815
N	-2.129669744	-0.6941229034	 1.0447206294	-0.314279
H	 1.0432190313	 1.9733900427	 0.275402007	 0.111718
H	-0.5937412645	 2.2153703298	-0.3658571105	 0.121301
H	-0.3665810581	 1.7452445352	 1.3194057867	 0.111778
H	 0.3608558338	 0.0060262609	-1.1209317401	 0.098633
H	 0.6147034315	-0.4666508684	 0.5473823183	 0.10368
H	-1.2723225113	-1.4243354263	-2.861299268	 0.239233
H	-1.8700843827	 0.0968024811	-2.9334740113	 0.238899
H	-4.2060100742	-1.6977893219	-2.2585863342	 0.289476
H	-4.0798107186	-1.4720361839	 1.5463025666	 0.113834
H	-1.7800635515	-0.5268644983	 1.970997578	 0.254302
42.2024	116.1645	173.7713	193.9325	233.2324	253.0395	285.246	297.8239	351.6134	437.6334	537.7328	548.0039	573.7618	634.4999	677.5538	719.096	736.0789	751.185	791.8533	810.9932	953.0795	1020.2331	1072.9398	1091.5586	1115.6662	1187.5052	1196.759	1245.1818	1285.4619	1323.3813	1353.075	1368.6371	1408.7761	1464.9849	1479.2871	1496.7685	1500.8026	1511.0612	1584.5588	1641.3548	1675.7913	3007.8445	3034.065	3061.8421	3103.1673	3111.2466	3280.8136	3497.0122	3565.1691	3689.754	3714.934
CCC1=C(N)C(O)=CN1	CCc1c(N)c(O)c[nH]1	
InChI=1S/C6H10N2O/c1-2-4-6(7)5(9)3-8-4/h3,8-9H,2,7H2,1H3	InChI=1S/C6H10N2O/c1-2-4-6(7)5(9)3-8-4/h3,8-9H,2,7H2,1H3
