18
gdb 41634	2.8118	1.86561	1.50698	3.6877	69.54	-0.2297	0.0474	0.2771	921.7331	0.150587	-439.032673	-439.025737	-439.024793	-439.064875	27.186	
C	 0.2335838108	 1.4659208716	-0.4617422693	-0.071974
O	 1.5799287546	 1.4332133892	 0.060355079	-0.271083
C	 1.4197710858	 0.09470169	 0.5588672341	 0.082522
C	-0.0281004543	 0.008647443	-0.0169950399	-0.065758
N	-0.0682753812	-1.0102051154	-1.0621245789	-0.3026
C	 1.2723888687	-1.5366930523	-1.2740887508	-0.064307
C	 2.2175053791	-0.8052720009	-2.262265214	-0.076494
O	 3.1330115233	-0.462284348	-1.198356769	-0.271042
C	 2.2446434706	-0.9761911985	-0.1966499691	 0.093246
H	-0.3757470056	 2.2256804541	 0.0437988359	 0.098826
H	 0.2033282764	 1.6336123285	-1.5438748733	 0.107243
H	 1.5508858047	 0.0448189668	 1.6449001177	 0.071634
H	-0.8561898531	-0.1130740964	 0.6831061417	 0.079963
H	-0.7096724072	-1.751307934	-0.8167371915	 0.225626
H	 1.2514809059	-2.6187587424	-1.4122240939	 0.082319
H	 2.7000401352	-1.4288831433	-3.0238601927	 0.100875
H	 1.7782456755	 0.0785310442	-2.738489728	 0.108281
H	 2.7480734708	-1.6707922861	 0.483635122	 0.072723
38.5135	127.7487	265.2288	347.0574	440.5051	529.2655	607.8764	650.8578	701.6891	753.6966	815.7599	840.131	860.6731	893.7104	924.4457	926.6396	1006.4054	1027.5206	1037.5586	1037.9869	1055.1423	1071.4815	1115.6769	1148.5542	1161.1929	1181.3848	1198.7186	1204.8484	1235.1919	1261.0309	1313.3074	1317.2416	1333.5343	1343.9379	1357.8947	1414.0855	1466.3086	1512.4959	1523.0369	3015.4492	3023.2246	3039.7965	3058.3622	3068.4034	3073.9134	3095.7293	3099.7861	3577.2269
C1OC2C1NC1COC21	C1O[C@H]2[C@@H]1N[C@H]1CO[C@@H]21	
InChI=1S/C6H9NO2/c1-3-5(8-1)6-4(7-3)2-9-6/h3-7H,1-2H2	InChI=1S/C6H9NO2/c1-3-5(8-1)6-4(7-3)2-9-6/h3-7H,1-2H2/t3-,4+,5+,6-
