24
gdb 63625	2.61106	1.20204	1.13092	1.1346	90.21	-0.2088	0.0828	0.2916	1286.0815	0.214918	-368.376481	-368.366247	-368.365303	-368.411124	39.644	
C	 0.4066633691	 1.3481878066	-0.761667353	-0.459985
C	 0.1993040321	-0.06082393	-0.237087581	 0.340822
C	-1.1864604246	-0.6162105944	-0.5113633561	-0.437443
C	 1.3616675531	-0.9998036012	-0.1754080008	-0.299943
N	 0.7599816368	-0.492317209	 1.0501167794	-0.165676
C	 1.4711296014	 0.3786482809	 1.9694469606	 0.38708
C	 2.8870642144	 0.8257458283	 1.6513843596	-0.474929
C	 0.579107666	 1.3000104128	 2.7654417457	-0.298057
C	 1.1728484542	 0.0766993142	 3.4231857659	-0.291256
H	 1.4377834506	 1.6909239839	-0.6636915302	 0.119099
H	 0.1416566062	 1.3937789615	-1.8238715508	 0.117114
H	-0.2382923189	 2.0596127568	-0.233761223	 0.121479
H	-1.375162378	-0.6844602257	-1.589089329	 0.108968
H	-1.2944091629	-1.6108644504	-0.0729410822	 0.122387
H	-1.9593753718	 0.0301365755	-0.0786730165	 0.111497
H	 1.2343090006	-2.0647230235	-0.3639254269	 0.10339
H	 2.3278948476	-0.6074238327	-0.4867020384	 0.103418
H	 2.9524672293	 1.4474118058	 0.7530898296	 0.117438
H	 3.285211355	 1.4146813316	 2.4826441307	 0.114966
H	 3.5489250375	-0.0364407894	 1.5133789602	 0.122338
H	 0.9633266426	 2.277197434	 3.0383619755	 0.106969
H	-0.481115673	 1.2793116015	 2.5412404918	 0.11267
H	 0.509088701	-0.7580440333	 3.6122434181	 0.115266
H	 1.9628761117	 0.2150187061	 4.1538768106	 0.102386
50.201	146.2017	153.8187	191.1101	222.342	236.3215	311.8467	323.9044	347.0731	364.1942	394.7532	406.2204	466.5347	542.9944	632.2042	722.2955	782.642	808.1561	853.9114	898.1582	919.7239	934.7783	955.3677	959.9485	993.0592	1026.8462	1037.6727	1063.3411	1078.8047	1101.8579	1119.2077	1133.9544	1136.9126	1163.3588	1193.1983	1280.474	1298.3919	1327.494	1389.7476	1407.1197	1416.6686	1421.6178	1455.5021	1477.1293	1483.8767	1489.7328	1493.0325	1500.1896	1503.4438	1507.3821	1521.8675	3024.4623	3032.4662	3035.8839	3082.7483	3085.0403	3089.0116	3095.0638	3106.4184	3123.0828	3131.547	3135.4016	3136.1037	3164.9413	3216.5743	3232.6796
CC1(C)CN1C1(C)CC1	CC1(C)CN1C1(C)CC1	
InChI=1S/C8H15N/c1-7(2)6-9(7)8(3)4-5-8/h4-6H2,1-3H3	InChI=1S/C8H15N/c1-7(2)6-9(7)8(3)4-5-8/h4-6H2,1-3H3
