17
gdb 37554	4.16108	1.64095	1.38227	1.2016	79.88	-0.2207	0.0325	0.2532	940.758	0.137444	-384.577457	-384.571092	-384.570148	-384.607942	26.548	
C	-0.0769928857	 1.6653742277	 0.0229865326	-0.274403
C	 1.4251426437	 1.3316664255	-0.0550335705	-0.109217
C	 1.2721664236	 0.1191954819	 0.9681109314	-0.223186
C	-0.0505844336	 0.1258841108	 0.0789558108	-0.109217
C	 1.1865760686	 0.0140623821	-0.9206786515	 0.38797
O	 1.393410751	-0.3838071442	-2.2231467808	-0.329877
C	 2.3201742376	-1.5102137799	-2.1526032526	-0.120522
C	 2.6401329802	-1.7363637843	-0.6638856026	-0.381352
C	 1.953321131	-0.8218900021	 0.0012264114	 0.369097
H	-0.4103888884	 2.1744850383	 0.9325776005	 0.09547
H	-0.530198106	 2.1218622304	-0.860533572	 0.107482
H	 2.2924396952	 1.9904114199	-0.1017260574	 0.083773
H	 1.3083030872	 0.19536254	 2.0515659787	 0.089924
H	-0.8657475051	-0.5900684561	 0.1850232347	 0.083773
H	 1.8398371404	-2.380305946	-2.6207692135	 0.113615
H	 3.2107881641	-1.2601355901	-2.7452508558	 0.113615
H	 3.3087144661	-2.517273244	-0.3277966634	 0.103056
140.2019	270.8009	298.7278	334.4297	522.6961	597.1262	652.1381	694.6131	718.609	786.8918	797.1955	848.6369	867.4452	886.6469	897.5605	901.36	944.8187	990.3247	990.5786	1022.1515	1022.7604	1048.7432	1061.1088	1132.9608	1135.6313	1159.5914	1159.8607	1182.7039	1195.1136	1227.2582	1232.0351	1292.8745	1316.8833	1407.8154	1508.2117	1516.2064	1758.3528	3002.8739	3032.1926	3049.6971	3110.5261	3115.0713	3119.1432	3158.9015	3221.4637
C1C2C3C1C21OCC=C31	C1[C@H]2[C@H]3[C@@H]1[C@]12OCC=C31	
InChI=1S/C8H8O/c1-2-9-8-4(1)7-5(8)3-6(7)8/h1,5-7H,2-3H2	InChI=1S/C8H8O/c1-2-9-8-4(1)7-5(8)3-6(7)8/h1,5-7H,2-3H2/t5-,6+,7-,8-
