14
gdb 131303	4.41422	0.92396	0.80854	1.4797	65.6	-0.2409	-0.0415	0.1994	1331.9358	0.100784	-470.009312	-470.001203	-470.000259	-470.043832	28.199	
O	 0.2391116587	 1.277446792	-0.1293391344	-0.419466
C	 0.0989159405	-0.0516786897	-0.0019969276	 0.375561
N	 0.2203849354	-0.900955044	-1.0165574499	-0.339043
N	-0.0049357919	-2.0924844101	-0.441106226	 0.128759
C	 0.0944270999	-3.3200943633	-1.1889157778	-0.224733
C	 1.532273543	-3.6419952758	-1.5986428197	 0.156124
O	 1.798816447	-4.4322826459	-2.4607988131	-0.222344
N	-0.2452854603	-2.0613791254	 0.8616862544	-0.213234
C	-0.1919591596	-0.7658553922	 1.1732551165	-0.130043
H	 0.4299943894	 1.4673271445	-1.0563498597	 0.3124
H	-0.2739473524	-4.1195648534	-0.5400838617	 0.17369
H	-0.531345044	-3.275777457	-2.0840791774	 0.162563
H	 2.309996147	-3.0968089972	-1.0209668215	 0.103177
H	-0.3594203027	-0.4119261826	 2.1763846177	 0.136588
33.2039	60.8943	94.7453	271.7324	316.8316	378.6294	397.9006	430.6669	464.9456	660.7998	688.0336	723.6323	732.0603	834.0766	845.443	1004.9933	1029.0075	1039.0193	1079.9766	1171.2132	1193.761	1256.6836	1327.3922	1372.7265	1382.2837	1408.6085	1430.6238	1435.924	1526.202	1605.3345	1847.083	2905.3278	3072.7835	3129.7936	3286.0069	3800.6631
OC1=NN(CC=O)N=C1	Oc1nn(CC=O)nc1	
InChI=1S/C4H5N3O2/c8-2-1-7-5-3-4(9)6-7/h2-3H,1H2,(H,6,9)	InChI=1S/C4H5N3O2/c8-2-1-7-5-3-4(9)6-7/h2-3H,1H2,(H,6,9)
