21
gdb 99642	1.87979	1.49038	0.91649	4.0743	83.5	-0.245	0.0304	0.2754	1334.7728	0.18106	-383.25814	-383.248051	-383.247107	-383.293328	36.663	
C	-2.3007727488	 3.3244902881	-0.1847265266	-0.399153
C	-1.4843229092	 2.090204116	-0.5711957883	-0.168942
C	-2.2768712267	 0.7685644473	-0.4606816134	-0.12255
C	-1.4494184623	-0.3409671745	-0.9646377678	 0.310274
N	-0.7989178531	-1.2027682744	-1.3757839401	-0.335556
N	-2.6408591762	 0.502148007	 0.9320973201	-0.089058
C	-3.9887290036	 0.875620007	 1.3664625423	-0.252941
C	-3.6098597537	-0.5586285049	 1.2516976904	 0.032347
C	-4.2404856322	-1.4601418603	 0.2123804048	-0.42565
H	-1.708489001	 4.23140104	-0.3368761775	 0.122455
H	-3.2063018411	 3.4146912331	-0.7954634967	 0.113422
H	-2.5999782581	 3.2938239028	 0.8657011395	 0.137272
H	-1.1305307016	 2.183140101	-1.6038959231	 0.114493
H	-0.5996444133	 2.0045474547	 0.0671580775	 0.127274
H	-3.1551565367	 0.8381951038	-1.1254463812	 0.103938
H	-4.0535346483	 1.3725808097	 2.3305680084	 0.121044
H	-4.6748259351	 1.261276973	 0.6127874253	 0.11157
H	-3.3389341321	-1.0769192062	 2.1698048087	 0.101396
H	-4.5886390731	-0.9104191933	-0.666132254	 0.119753
H	-3.5393236733	-2.2303080666	-0.1221984583	 0.151789
H	-5.1095382105	-1.9636809333	 0.6483631299	 0.126823
62.3778	98.2978	129.8011	161.09	191.7712	209.1798	246.0704	297.5286	319.9419	391.5116	420.1801	492.9647	534.8138	584.1794	721.7716	786.5188	828.5689	886.4501	911.0542	954.9837	974.6073	1024.934	1051.4175	1063.3706	1115.4618	1120.5524	1126.3788	1147.2629	1175.557	1194.0072	1284.4973	1311.7962	1325.6194	1352.9622	1382.525	1405.125	1412.5355	1421.6467	1478.4275	1492.2347	1496.5196	1499.0809	1506.4312	1512.0814	2359.8425	2948.4194	3037.1419	3042.458	3047.5715	3088.7689	3089.4838	3104.7848	3106.8897	3112.8694	3127.0973	3129.1313	3177.7141
CCC(C#N)N1CC1C	CC[C@@H](C#N)N1C[C@H]1C	
InChI=1S/C7H12N2/c1-3-7(4-8)9-5-6(9)2/h6-7H,3,5H2,1-2H3	InChI=1S/C7H12N2/c1-3-7(4-8)9-5-6(9)2/h6-7H,3,5H2,1-2H3/t6-,7+,9?/m1/s1
