16
gdb 50786	10.52326	0.42126	0.4163	2.362	80.61	-0.261	-0.0383	0.2227	2435.9616	0.121446	-400.746724	-400.736605	-400.735661	-400.7855	33.089	
O	-0.4812756797	 0.3337191665	 0.484385287	-0.225558
C	-0.0686860503	 1.4055319966	 0.1375645456	 0.172156
C	 1.3732585991	 1.6486253949	-0.3197915922	-0.416083
C	 1.4564805357	 2.6132813138	-1.406352467	 0.095717
C	 1.4639770971	 3.4015523577	-2.3165961299	 0.036433
C	 1.5159601572	 4.3715893055	-3.4020995174	-0.351175
C	 2.4135134445	 5.5857404282	-3.0462031675	-0.325807
C	 2.4683357506	 6.5624321959	-4.1310121078	 0.256287
N	 2.4981240789	 7.3223596581	-5.0008229064	-0.297826
H	-0.7076664216	 2.3149878253	 0.1387656299	 0.095438
H	 1.9223345191	 2.0210131349	 0.5588186145	 0.1585
H	 1.815894825	 0.682722324	-0.5837408272	 0.159323
H	 1.8974460533	 3.899270237	-4.3143983543	 0.156681
H	 0.5076488332	 4.7292735871	-3.6394116663	 0.15584
H	 2.0349153881	 6.075342642	-2.1434542667	 0.164422
H	 3.4285912997	 5.2433943227	-2.8217431342	 0.165652
8.598	44.0989	57.2967	84.9727	129.0128	183.2297	256.384	332.2285	401.5101	442.9263	475.5949	498.4201	538.8334	720.3363	765.6048	828.6704	952.2674	1007.3777	1027.2101	1036.992	1042.8595	1165.0852	1199.2539	1212.24	1284.2112	1292.0169	1307.6827	1371.1488	1414.2877	1440.2199	1467.9518	1479.5465	1843.0706	2364.6912	2370.6505	2902.3701	3002.9482	3039.5511	3060.6278	3071.5786	3081.2113	3103.9273
O=CCC#CCCC#N	O=CCC#CCCC#N	
InChI=1S/C7H7NO/c8-6-4-2-1-3-5-7-9/h7H,2,4-5H2	InChI=1S/C7H7NO/c8-6-4-2-1-3-5-7-9/h7H,2,4-5H2
