18
gdb 76008	2.50179	1.19574	1.05593	4.0515	84.65	-0.2617	0.0076	0.2693	1225.3811	0.144882	-364.791344	-364.781416	-364.780472	-364.825867	36.039	
C	-0.1388572229	 1.549830351	-0.0238970546	-0.426576
C	 0.0221657368	 0.0489078382	 0.0342952906	-0.043367
C	 1.3584104006	-0.6334952688	-0.2041109174	-0.27284
C	 2.5556781847	 0.120353649	-0.4240023253	 0.329685
C	 3.5631871624	 0.7466921867	-0.6243469228	-0.428567
C	 0.7087054929	-0.6483446651	 1.2018785699	 0.115537
C	 1.3318910417	 0.1293735622	 2.3494491045	-0.459278
C	 0.1454363062	-1.9184691656	 1.5902560553	 0.250516
N	-0.3083957085	-2.9351090694	 1.9061567475	-0.347744
H	 0.7715262264	 2.0749546152	 0.270209466	 0.137384
H	-0.3777246401	 1.8571003826	-1.0469711851	 0.134118
H	-0.9563628102	 1.8796622716	 0.62486578	 0.130356
H	-0.8202126267	-0.504197978	-0.3701496045	 0.116942
H	 1.3168015298	-1.5799785732	-0.7339688213	 0.137466
H	 4.4571993078	 1.2913502996	-0.803885234	 0.203906
H	 1.8500468624	 1.0166655862	 1.9854742833	 0.141149
H	 0.5654246393	 0.4370485033	 3.0666376352	 0.13701
H	 2.0616410273	-0.4915105156	 2.8762529427	 0.144303
107.5482	122.24	140.5951	149.5852	160.2221	179.5856	250.9186	321.943	352.156	421.045	483.8734	565.3421	579.7837	589.2389	609.0705	661.6903	684.2172	772.0665	835.9536	940.2283	965.8269	1020.4342	1035.9162	1095.1666	1126.0985	1130.2134	1156.2497	1245.5219	1296.7693	1364.4598	1403.8326	1422.895	1427.7815	1479.6114	1488.883	1496.062	1507.9991	2234.7744	2346.4004	3044.9145	3052.8205	3105.1773	3117.5754	3132.9319	3149.9426	3155.4373	3163.8054	3501.1762
CC1C(C#C)C1(C)C#N	C[C@H]1[C@@H](C#C)[C@]1(C)C#N	
InChI=1S/C8H9N/c1-4-7-6(2)8(7,3)5-9/h1,6-7H,2-3H3	InChI=1S/C8H9N/c1-4-7-6(2)8(7,3)5-9/h1,6-7H,2-3H3/t6-,7+,8+/m0/s1
