15
gdb 61149	3.41538	0.98463	0.85477	4.4788	75.06	-0.2723	-0.0455	0.2268	1317.9116	0.110365	-416.802501	-416.792925	-416.79198	-416.837803	32.901	
C	-0.2868319487	 1.3718010272	 0.0973474859	-0.353937
N	-0.0599058632	-0.0572000372	-0.0407881435	-0.109385
C	-0.0170745007	-0.8511387702	 1.1745677464	-0.307017
C	-1.2989059982	-0.8412286276	 1.8947139176	 0.270536
N	-2.3027427067	-0.8097550244	 2.4653236092	-0.303656
C	 0.1239332254	-0.7202792219	-1.2326544396	 0.332375
O	 0.3186450744	-1.9214121532	-1.3029897202	-0.362704
C	 0.0818695149	 0.0985375152	-2.433682666	 0.182523
C	 0.0653588374	 0.6819797521	-3.4849811843	-0.377947
H	 0.5161894275	 1.8339270379	 0.6847990329	 0.134189
H	-0.3108522889	 1.8326401743	-0.8886414849	 0.164216
H	-1.2406722966	 1.5618663571	 0.6016647206	 0.156573
H	 0.2358440194	-1.8745326183	 0.8860805872	 0.201895
H	 0.7623451589	-0.4760755521	 1.8505338437	 0.155762
H	 0.0501296252	 1.1943445712	-4.4163797951	 0.216576
46.6639	71.7507	121.0577	152.1139	176.7327	248.9699	309.262	322.5719	373.8591	377.3665	483.7905	553.0836	649.4262	660.6153	693.0847	749.5014	758.5062	912.9408	958.2474	1031.3414	1142.9175	1159.0438	1228.8389	1295.2184	1370.8991	1423.6768	1459.9907	1469.792	1486.4026	1526.4727	1735.1808	2225.2056	2363.2708	3023.9959	3028.6649	3080.6599	3112.2341	3167.1203	3494.0419
CN(CC#N)C(=O)C#C	CN(CC#N)C(=O)C#C	
InChI=1S/C6H6N2O/c1-3-6(9)8(2)5-4-7/h1H,5H2,2H3	InChI=1S/C6H6N2O/c1-3-6(9)8(2)5-4-7/h1H,5H2,2H3
