15
gdb 49023	2.80629	1.69569	1.31812	0.7024	64.85	-0.2615	-0.0443	0.2172	949.4477	0.111434	-457.686878	-457.679734	-457.67879	-457.718685	27.041	
O	-0.4430086037	 0.4297188282	 0.7311968639	-0.256947
C	 0.0746673822	 1.0141353851	-0.1904633626	 0.066265
C	 1.2738956385	 1.8809886116	-0.0538983158	 0.138295
C	 1.5770092584	 2.9783044336	-1.1057086379	-0.131458
O	 2.8711975792	 2.4102210468	-1.4284365574	-0.27325
C	 2.695532856	 1.3609302422	-0.4806211947	 0.04261
C	 3.187540866	 1.6340639619	 0.970083997	 0.009275
O	 2.9366129213	 3.0072461412	 1.2666356347	-0.226756
C	 1.8449061758	 2.0986936735	 1.3706474344	-0.042507
H	-0.3172790769	 0.916770094	-1.2282822052	 0.083309
H	 0.910181446	 2.9474662213	-1.9757690112	 0.110102
H	 1.6570884518	 3.9965755114	-0.7189709501	 0.131157
H	 2.8772796014	 0.3563135824	-0.8712132328	 0.100644
H	 3.9769515964	 1.1395150322	 1.5239998641	 0.118905
H	 1.3114962679	 2.0273453648	 2.3094090636	 0.130355
95.5208	169.1344	227.1948	249.0644	307.1078	451.4335	469.1422	618.1812	696.2801	744.372	812.3676	835.7066	865.2152	872.4591	898.3844	965.7488	994.6688	1002.2232	1022.9968	1053.4312	1087.0516	1153.4968	1157.3313	1179.519	1196.6643	1236.0422	1289.1883	1308.329	1355.8747	1371.925	1426.3781	1498.184	1803.1308	2875.5744	3029.0258	3084.6006	3108.9224	3186.8318	3214.9819
O=CC12COC1C1OC21	O=C[C@]12CO[C@H]1[C@H]1O[C@@H]21	
InChI=1S/C6H6O3/c7-1-6-2-8-4(6)3-5(6)9-3/h1,3-5H,2H2	InChI=1S/C6H6O3/c7-1-6-2-8-4(6)3-5(6)9-3/h1,3-5H,2H2/t3-,4+,5-,6+/m1/s1
