16
gdb 42441	2.87594	0.96304	0.79957	2.2781	71.98	-0.2529	0.0082	0.2611	1413.8754	0.122421	-437.85199	-437.842815	-437.84187	-437.887394	32.388	
O	-0.0931412779	 0.6059623427	 1.2232525253	-0.381912
C	-0.0580615636	 1.1677406928	 0.1431716992	 0.387106
N	 1.0678780541	 1.4001065662	-0.5800227999	-0.318856
C	 2.387904136	 1.0373445605	-0.0913261391	-0.295869
C	 3.3332515232	 2.1482689311	-0.1624544252	 0.288686
C	 4.1119729658	 3.059045248	-0.2468050291	-0.442071
C	-1.3165372579	 1.6964848095	-0.503536236	-0.019606
C	-1.4804455537	 3.1410908339	-0.7388591399	-0.166898
O	-1.2012556886	 2.2482415086	-1.8185035722	-0.236815
H	 0.9613848141	 1.8288691328	-1.4873303298	 0.267906
H	 2.2476228019	 0.7043467128	 0.942306523	 0.176993
H	 2.7850822594	 0.1802929415	-0.6520788101	 0.142349
H	 4.803716255	 3.8627321393	-0.3061568365	 0.204633
H	-2.1979497713	 1.0879211492	-0.3169211846	 0.127345
H	-2.480116627	 3.5704285052	-0.7354474598	 0.133992
H	-0.6711278496	 3.8175229161	-0.4712832453	 0.133018
35.1436	60.2084	110.1935	181.4591	216.11	289.2323	295.0896	327.7733	475.9672	519.6213	593.9042	620.2461	634.3499	670.3783	745.1973	846.1167	875.3533	921.4622	954.4787	995.0751	1049.7824	1083.3989	1124.3149	1155.7148	1167.4554	1241.0889	1263.6845	1274.9593	1374.9703	1394.6515	1483.2252	1518.3251	1543.6324	1784.92	2243.2702	3013.7287	3083.6962	3096.6333	3154.5553	3191.215	3504.2882	3621.8746
O=C(NCC#C)C1CO1	O=C(NCC#C)[C@H]1CO1	
InChI=1S/C6H7NO2/c1-2-3-7-6(8)5-4-9-5/h1,5H,3-4H2,(H,7,8)	InChI=1S/C6H7NO2/c1-2-3-7-6(8)5-4-9-5/h1,5H,3-4H2,(H,7,8)/t5-/m1/s1
