18
gdb 77641	2.14565	1.41401	1.30789	5.2187	79.25	-0.2279	0.0224	0.2502	1105.2847	0.148808	-398.10623	-398.097301	-398.096357	-398.139377	34.017	
N	-0.0283729179	 1.4228188438	 0.0832583778	-0.523526
C	-0.0996453469	-0.0024856552	-0.0509044072	-0.065437
C	-1.3625848898	-0.7828973488	 0.0034605923	 0.265299
N	-1.5015374489	-1.8164224137	 0.9567654057	-0.579262
C	-2.4907782279	-0.0888854717	-0.7804418899	-0.295468
C	-1.6050704698	-0.0540499301	-2.0640258977	-0.302465
C	-0.485986463	-0.7887543073	-1.3155731465	 0.146281
C	 0.3389470831	-1.8096605357	-1.855787266	 0.185547
N	 1.0070498519	-2.6454219267	-2.3024484567	-0.360433
H	 0.8196839671	 1.7818424324	-0.3440580765	 0.24207
H	-0.8112280659	 1.8881342332	-0.3617417491	 0.238086
H	 0.7009199164	-0.5055998713	 0.4851304072	 0.124504
H	-1.5327599491	-1.4613864744	 1.9059435651	 0.24438
H	-2.3215740573	-2.3891238465	 0.7927687112	 0.236168
H	-3.3505553448	-0.7518033909	-0.9071297068	 0.111948
H	-2.8546717334	 0.864337539	-0.3803023832	 0.103415
H	-2.0217335411	-0.6364780663	-2.8861151506	 0.128472
H	-1.3350241825	 0.93716744	-2.4416400292	 0.100422
110.9756	146.9937	195.9274	207.6657	234.5524	257.8007	299.1208	364.6972	431.7857	513.7027	554.5276	565.2777	613.5442	687.9971	724.7927	741.818	787.0405	811.2488	855.2539	951.9531	991.1489	1037.9834	1077.8978	1104.8461	1130.292	1195.609	1202.3554	1229.2963	1237.4636	1245.5121	1319.2319	1323.2958	1353.8743	1478.837	1487.6311	1522.1192	1655.3791	1658.9927	2328.6753	3037.0317	3054.6081	3094.7256	3128.5395	3157.8619	3508.4266	3511.8559	3592.9725	3596.2232
NC1C2(N)CCC12C#N	N[C@H]1[C@@]2(N)CC[C@@]12C#N	
InChI=1S/C6H9N3/c7-3-5-1-2-6(5,9)4(5)8/h4H,1-2,8-9H2	InChI=1S/C6H9N3/c7-3-5-1-2-6(5,9)4(5)8/h4H,1-2,8-9H2/t4-,5-,6+/m1/s1
