20
gdb 8485	2.91932	1.87637	1.46183	0.999	75.25	-0.2384	0.0807	0.3191	962.3559	0.175649	-348.983388	-348.974716	-348.973772	-349.015713	33.399	
C	-0.1098792574	 1.5664484987	 0.0387413746	-0.408531
C	 0.0648487753	 0.0530536343	-0.0023062041	-0.01025
C	 1.1539052535	-0.5628808075	-0.9528583147	-0.317375
C	 1.7672104209	-1.2647129462	 0.262445469	 0.365219
O	 2.2300698631	-2.5711540242	 0.2625370197	-0.467368
C	 2.1838719647	-0.2580418959	 1.2984584003	-0.401993
C	 0.7233457078	-0.6653175463	 1.194595271	 0.293356
C	-0.02503427	-1.2761029283	 2.3439316092	-0.49867
H	 0.8346896369	 2.0805053754	 0.2449676687	 0.113211
H	-0.4880790459	 1.9428788672	-0.9180877205	 0.112973
H	-0.8237504662	 1.8607650321	 0.8161193884	 0.113669
H	-0.9034004474	-0.4151005477	-0.2118827974	 0.071604
H	 0.7296156164	-1.2664536096	-1.6726230962	 0.10489
H	 1.800822048	 0.144732535	-1.484753425	 0.084746
H	 3.1744560257	-2.5592050941	 0.0722026503	 0.283033
H	 2.6951525224	-0.6891842451	 2.154267323	 0.10737
H	 2.5301339628	 0.7360410153	 1.0232174022	 0.098628
H	-0.3848063104	-0.5120349463	 3.0437212921	 0.115936
H	-0.8963744411	-1.8406671277	 1.9921482109	 0.115514
H	 0.6130527708	-1.9665055191	 2.9047840485	 0.12404
146.0977	169.5665	190.2624	218.4235	237.4378	264.4113	300.6644	391.6738	417.9292	456.3241	560.429	568.3951	679.8067	727.4145	798.1099	842.3301	901.2982	934.1498	968.0151	972.4986	1033.3922	1050.716	1077.568	1092.4973	1122.1149	1169.8028	1190.9408	1230.484	1235.5134	1249.8517	1301.0187	1339.8033	1363.4093	1406.2889	1413.0309	1429.9141	1478.3329	1486.9892	1496.9707	1498.1146	1498.455	1519.2039	3019.5865	3027.1951	3033.0243	3036.0879	3076.3549	3091.4852	3095.9972	3098.0916	3101.5056	3107.3503	3192.0377	3792.4467
CC1CC2(O)CC12C	C[C@H]1C[C@@]2(O)C[C@@]12C	
InChI=1S/C7H12O/c1-5-3-7(8)4-6(5,7)2/h5,8H,3-4H2,1-2H3	InChI=1S/C7H12O/c1-5-3-7(8)4-6(5,7)2/h5,8H,3-4H2,1-2H3/t5-,6-,7+/m0/s1
