20
gdb 72222	3.2742	1.7023	1.37884	0.5102	77.74	-0.2134	0.0659	0.2793	997.079	0.172857	-403.120787	-403.113354	-403.11241	-403.152469	30.017	
C	 0.0485258589	 1.555223107	 0.2156092618	-0.489908
C	-0.0484160701	 0.0907575448	-0.1057197111	 0.451349
C	 0.2310522246	-0.4519315539	-1.5238032948	-0.223754
N	-0.9349469876	-1.3900277636	-1.416378118	-0.095572
C	-0.5989754986	-2.8092871948	-1.2279041548	-0.173218
C	-0.2106485814	-3.0213242106	 0.2712136531	-0.252664
C	-0.5114438613	-1.6755590379	 0.9392318893	 0.124034
O	 0.6099769987	-0.7476831564	 0.8800279194	-0.349964
C	-1.2945026911	-0.8298017281	-0.0844750207	-0.14244
H	 1.0971196717	 1.8739284817	 0.2022076094	 0.130091
H	-0.4990567699	 2.1530813081	-0.5196015669	 0.121178
H	-0.3538916663	 1.7644811226	 1.2110004421	 0.125115
H	 0.0825003713	 0.270883449	-2.3343068966	 0.099465
H	 1.2120793851	-0.9267447536	-1.635573095	 0.101233
H	-1.4758370249	-3.4180826846	-1.4768474049	 0.102936
H	 0.1962173286	-3.0940152732	-1.9224151854	 0.107726
H	-0.7976568029	-3.8258914743	 0.7253957531	 0.09929
H	 0.8461695723	-3.2659869455	 0.4063056536	 0.11723
H	-0.8888728718	-1.7561823857	 1.963439635	 0.076128
H	-2.3352480356	-0.546845061	 0.0763490813	 0.071746
93.9918	201.8376	216.347	263.65	377.9525	393.4939	439.285	573.3173	635.3498	690.2859	756.1326	774.0653	836.7821	851.4338	877.2487	889.887	914.5778	940.181	964.2777	980.1728	996.2376	1029.4712	1065.655	1102.6182	1151.419	1179.1545	1193.9257	1211.0329	1215.7247	1239.569	1257.6193	1260.5183	1288.6628	1316.558	1334.4235	1357.8904	1362.6519	1413.7273	1476.6843	1480.7369	1487.31	1490.985	1505.4419	3020.3681	3032.6525	3034.0118	3048.4651	3062.7486	3074.8186	3086.1898	3100.9569	3103.0995	3108.8451	3115.0599
CC12CN3CCC(O1)C23	C[C@@]12CN3CC[C@@H](O1)[C@@H]23	
InChI=1S/C7H11NO/c1-7-4-8-3-2-5(9-7)6(7)8/h5-6H,2-4H2,1H3	InChI=1S/C7H11NO/c1-7-4-8-3-2-5(9-7)6(7)8/h5-6H,2-4H2,1H3/t5-,6+,7+/m1/s1
