12
gdb 20502	9.23399	0.99808	0.90583	4.1065	69.11	-0.2445	-0.0449	0.1996	1202.9348	0.082642	-377.477792	-377.470364	-377.46942	-377.511718	25.066	
C	-0.0599746393	 1.4599079424	 0.0040013538	-0.50817
C	 0.0074236998	 0.00851588	-0.0194393182	 0.175027
C	 0.0595142414	-1.1955650998	-0.0400629428	-0.027415
C	 0.1096822926	-2.602961039	-0.0674920113	 0.143987
C	 1.1286094627	-3.4659549024	 0.2221298256	-0.083889
O	 0.7167689985	-4.7126153356	 0.0563363719	-0.15654
N	-0.6627726279	-4.6207409097	-0.3686681632	-0.010042
N	-0.9664422577	-3.4101423999	-0.4258639154	-0.183063
H	 0.6689539393	 1.9027964893	-0.6834985558	 0.157155
H	-1.054875154	 1.8066820259	-0.2945957886	 0.162696
H	 0.1436269386	 1.8511038688	 1.0068253122	 0.157157
H	 2.1453830462	-3.30951639	 0.5422198518	 0.173098
12.0638	99.4939	113.0103	295.0668	320.6507	477.145	489.1242	530.7024	559.0271	638.2841	721.8533	857.0968	949.1344	983.9785	1050.7104	1051.0667	1060.1923	1154.91	1269.9269	1321.2519	1412.084	1472.3757	1474.5021	1488.8256	1597.7912	2370.2553	3029.6173	3090.809	3096.9942	3287.814
CC#CC1=CON=N1	CC#Cc1conn1	
InChI=1S/C5H4N2O/c1-2-3-5-4-8-7-6-5/h4H,1H3	InChI=1S/C5H4N2O/c1-2-3-5-4-8-7-6-5/h4H,1H3
