18
gdb 103246	2.59161	1.62401	1.22234	2.6169	71.39	-0.2221	0.0565	0.2787	1042.6951	0.146831	-438.963254	-438.955068	-438.954124	-438.995925	32.222	
O	 0.2793683786	 1.0223555936	 1.0034319473	-0.418489
C	 0.0598667873	 0.1401081218	-0.095585994	-0.220612
C	-1.2825581517	-0.5368200433	 0.0825456006	 0.410547
O	-2.3210743648	 0.2008605485	-0.5307669775	-0.466267
C	-1.5645334171	-1.9951948103	-0.0597111487	-0.134783
C	-0.6388428236	-2.8963507593	 0.7854753805	-0.065778
C	 0.2765369088	-2.2467782276	 1.7675997361	-0.257525
N	-1.1545330173	-2.3244317768	 2.0826347128	-0.14035
C	-1.9108149784	-1.3211481009	 1.2516060541	-0.071981
H	 1.0566832656	 1.5555904786	 0.8091501217	 0.290775
H	-0.0031683612	 0.696206287	-1.0416479056	 0.103401
H	 0.8676649016	-0.5938892635	-0.1948834681	 0.103914
H	-2.4160651815	 1.0175567736	-0.026322708	 0.291015
H	-2.2211286967	-2.3854792021	-0.8263076673	 0.103789
H	-0.6198361499	-3.9716513713	 0.6371464133	 0.103761
H	 0.8581792033	-2.9408183531	 2.3706972536	 0.11703
H	 0.7392453506	-1.2782527456	 1.6439163029	 0.147699
H	-2.8684566135	-0.9810335392	 1.6237468264	 0.103855
67.9995	138.3159	230.5554	307.2771	328.1689	359.7696	371.1777	403.2544	441.564	553.3652	610.4134	675.1266	729.307	742.4912	807.9475	845.1777	909.8081	940.9418	968.3631	991.7716	1012.6378	1020.5572	1053.3691	1060.6835	1081.7135	1125.0626	1132.4221	1157.1611	1219.7249	1234.1977	1244.2119	1254.7255	1276.9717	1309.4869	1341.775	1426.4224	1462.4467	1510.0468	1530.6632	3002.182	3047.2184	3121.403	3155.5261	3193.5235	3203.6268	3241.7698	3789.0662	3819.9532
OCC1(O)C2C3CN3C12	OC[C@@]1(O)[C@H]2[C@H]3CN3[C@@H]12	
InChI=1S/C6H9NO2/c8-2-6(9)4-3-1-7(3)5(4)6/h3-5,8-9H,1-2H2	InChI=1S/C6H9NO2/c8-2-6(9)4-3-1-7(3)5(4)6/h3-5,8-9H,1-2H2/t3-,4+,5-,6-,7?/m1/s1
