19
gdb 32807	3.1925	1.05879	0.80652	0.134	79.73	-0.1766	0.0544	0.231	1425.7277	0.159596	-419.228757	-419.219101	-419.218157	-419.264149	34.779	
C	-0.1181927681	 1.5313084326	-0.0333912912	-0.390911
C	-0.0210907898	 0.0158977311	-0.0235939233	-0.040908
O	-1.3389287445	-0.5082889711	-0.0041664214	-0.286147
C	-1.4441360575	-1.8682697636	 0.0069063306	 0.309768
C	-2.6705895375	-2.506158432	 0.0261036732	 0.128216
N	-4.0037952556	-2.0405361317	 0.038726611	-0.615337
N	-2.4084131702	-3.8606013031	 0.0326772873	-0.243308
C	-1.0641131875	-4.086137395	 0.0185774036	-0.089398
C	-0.424524618	-2.8616341546	 0.0019558715	-0.287697
H	 0.8820513831	 1.9744031626	-0.048450013	 0.115491
H	-0.6641913444	 1.8765911723	-0.9159298876	 0.126157
H	-0.643173337	 1.8893964069	 0.856764953	 0.126156
H	 0.5142198973	-0.3466329137	-0.9140475982	 0.098263
H	 0.5352618016	-0.3338203552	 0.8590518719	 0.098263
H	-4.1804185476	-1.4540321814	 0.849143869	 0.242437
H	-4.2005388222	-1.4673106059	-0.7765515229	 0.242412
H	-3.136658512	-4.5531870857	 0.0463555473	 0.259
H	-0.6612438198	-5.0856064877	 0.0211037927	 0.114418
H	 0.64232109	-2.7093363347	-0.0118600135	 0.093123
44.8454	84.4918	90.7931	136.2879	239.6997	246.9462	287.0556	318.7106	348.8758	475.3779	527.4742	636.0251	648.524	665.99	701.827	768.7343	788.5259	828.4713	831.0051	904.4238	936.3746	1062.3635	1100.9788	1110.1656	1145.052	1187.5299	1206.765	1216.698	1270.0493	1294.7031	1332.5659	1398.5999	1420.1025	1442.7259	1483.5405	1493.0508	1501.1641	1511.901	1531.8812	1639.6371	1671.7027	2982.1249	3013.5578	3044.8712	3119.5021	3121.5337	3254.5276	3273.8395	3486.9189	3542.3981	3683.7814
CCOC1=C(N)NC=C1	CCOc1c(N)[nH]cc1	
InChI=1S/C6H10N2O/c1-2-9-5-3-4-8-6(5)7/h3-4,8H,2,7H2,1H3	InChI=1S/C6H10N2O/c1-2-9-5-3-4-8-6(5)7/h3-4,8H,2,7H2,1H3
