18
gdb 16519	3.59912	2.32356	1.81503	1.7217	70.09	-0.2193	0.0911	0.3105	793.5317	0.155327	-347.777342	-347.770741	-347.769797	-347.807598	26.913	
C	-0.0203047064	 1.4690019971	 0.0537981301	-0.493841
C	 0.0022542498	-0.0367433013	-0.0326172662	 0.308837
C	 1.0347518158	-0.7366360824	-0.9254131473	-0.276912
C	 0.3855997175	-2.1011528737	-1.289636025	-0.20866
C	-0.7151949719	-2.2368290198	-0.2443191276	 0.088476
O	-0.0765193366	-2.2017811878	 1.0795831048	-0.314496
C	-0.4397206031	-0.8259256466	 1.1892535243	 0.06608
C	-1.3012282044	-0.8236375905	-0.0347061426	-0.19519
H	 0.9365152105	 1.8582578958	 0.4201001221	 0.121596
H	-0.2099063558	 1.9211843626	-0.9268405278	 0.117645
H	-0.8022407369	 1.8197453263	 0.7361487105	 0.115974
H	 1.2423301303	-0.134855425	-1.8160393648	 0.094784
H	 1.9837231494	-0.875267171	-0.3981479513	 0.108402
H	-0.0537828446	-2.0805732781	-2.2939828676	 0.096467
H	 1.090697307	-2.9357775459	-1.2439614457	 0.106959
H	-1.3880426892	-3.0910193591	-0.3377796257	 0.077705
H	-0.5676560178	-0.4085330108	 2.1823280208	 0.095904
H	-2.2972529237	-0.4546003296	-0.2382949612	 0.09027
188.8188	223.8492	280.7827	299.0657	381.799	476.9067	563.3167	668.3782	749.6057	758.488	822.1536	847.4095	867.9609	894.1771	903.4128	922.3547	966.5121	1013.3053	1023.5003	1035.0717	1044.6068	1102.1233	1106.0099	1165.6962	1175.2225	1216.3122	1240.4582	1264.9856	1280.7577	1295.3235	1330.9336	1344.9935	1410.5647	1419.9327	1472.0084	1490.5669	1497.1528	1504.4187	3020.8901	3036.3071	3048.6315	3080.5757	3081.6479	3091.4788	3099.3764	3102.5458	3168.355	3202.0348
CC12CCC3OC1C23	C[C@@]12CC[C@H]3O[C@@H]1[C@@H]23	
InChI=1S/C7H10O/c1-7-3-2-4-5(7)6(7)8-4/h4-6H,2-3H2,1H3	InChI=1S/C7H10O/c1-7-3-2-4-5(7)6(7)8-4/h4-6H,2-3H2,1H3/t4-,5+,6-,7+/m1/s1
