19
gdb 91710	2.62683	1.72834	1.49991	1.947	74.55	-0.2385	0.0195	0.258	968.6511	0.162061	-423.037418	-423.030084	-423.02914	-423.068911	29.9	
O	 0.1016622012	 1.3929212145	-0.2805059719	-0.434431
C	 0.0485347892	 0.0038116634	-0.0214462865	 0.135744
C	 0.5961577329	-0.4418199913	 1.3655300371	-0.287069
C	-0.4960233684	-1.4137216581	 1.8893440778	 0.093479
C	-1.4360051904	-0.7667515602	 2.919157939	-0.260627
C	-2.2736044859	 0.2946720095	 2.2466059793	-0.063529
C	-2.2534443806	 0.4541225302	 0.9244940054	-0.037292
C	-1.4172770156	-0.4772586148	 0.0732521808	 0.000418
O	-1.2663036375	-1.7380029047	 0.7205845143	-0.263935
H	 1.0227768678	 1.6419467461	-0.3994254396	 0.286226
H	 0.5477573845	-0.5578331617	-0.8230455083	 0.07181
H	 1.5659151869	-0.9378851085	 1.2790044245	 0.098847
H	 0.713802895	 0.4333879776	 2.0095581416	 0.109072
H	-0.0811504349	-2.3496226725	 2.2707522294	 0.07442
H	-2.0803454365	-1.5302925074	 3.3758783185	 0.110009
H	-0.8496296872	-0.3304527537	 3.7389816952	 0.102318
H	-2.890442756	 0.9297011406	 2.8770715924	 0.088195
H	-2.8138878424	 1.2407366288	 0.4312128335	 0.095143
H	-1.8730579819	-0.6548940075	-0.9035331526	 0.081203
108.0521	209.6082	252.6952	326.9224	366.8695	416.4228	475.2875	493.5499	567.6479	633.2979	697.4196	741.2359	818.0305	853.237	874.5566	897.1407	912.7926	976.6915	990.0896	1011.3081	1016.8858	1045.7267	1059.717	1090.4153	1120.1115	1180.8942	1188.6742	1209.0301	1213.8949	1263.9076	1281.8291	1323.2401	1329.859	1350.0865	1367.377	1384.9854	1407.2793	1427.7571	1469.3885	1492.4011	1712.0569	3000.6567	3011.2112	3040.2934	3062.7493	3080.9467	3089.3079	3114.2268	3156.3871	3192.5914	3829.9895
OC1CC2CC=CC1O2	O[C@H]1C[C@H]2CC=C[C@@H]1O2	
InChI=1S/C7H10O2/c8-6-4-5-2-1-3-7(6)9-5/h1,3,5-8H,2,4H2	InChI=1S/C7H10O2/c8-6-4-5-2-1-3-7(6)9-5/h1,3,5-8H,2,4H2/t5-,6+,7+/m1/s1
