15
gdb 8860	2.99481	1.48739	1.05929	1.8794	63.85	-0.2927	-0.1013	0.1914	1078.1764	0.116284	-399.820311	-399.811421	-399.810477	-399.854304	30.606	
C	-0.0329312468	 1.5514920779	-0.0698088817	-0.385427
C	 0.07852764	 0.0256841335	-0.0464925787	-0.20429
C	 0.6565720918	-0.4772415263	 1.2941920718	 0.042376
O	-0.1356912276	-0.0790976389	 2.3764966894	-0.430709
C	 0.7947000863	-1.9892682902	 1.2952730492	 0.272732
O	 0.2164051908	-2.6912367968	 2.0912804764	-0.292309
C	 1.6791134301	-2.5722390588	 0.2753133459	 0.25737
N	 2.3867301603	-3.0115853779	-0.52670576	-0.300518
H	 0.9528826141	 2.0201804089	 0.0209450008	 0.120688
H	-0.4814526521	 1.8897276675	-1.0079379215	 0.121798
H	-0.6538053716	 1.9022009762	 0.7576810099	 0.146265
H	-0.91009168	-0.42824776	-0.1833548584	 0.115542
H	 0.716644727	-0.3231182265	-0.8665146003	 0.123664
H	 1.6777517175	-0.0684349674	 1.4015679416	 0.111924
H	-0.4300221499	-0.8878319413	 2.8218927558	 0.300895
59.5282	90.1853	132.3619	188.507	231.8795	281.5521	314.9207	346.2176	358.5076	436.8956	519.8192	605.2092	692.0915	779.3625	862.6357	920.3239	1003.086	1073.4697	1088.3397	1114.2806	1185.6569	1262.0388	1288.9104	1342.3255	1366.8549	1407.7973	1426.3993	1476.2572	1494.9045	1508.1018	1777.8363	2340.399	2949.7191	3034.6993	3042.4532	3078.578	3111.1997	3133.914	3715.6241
CCC(O)C(=O)C#N	CC[C@@H](O)C(=O)C#N	
InChI=1S/C5H7NO2/c1-2-4(7)5(8)3-6/h4,7H,2H2,1H3	InChI=1S/C5H7NO2/c1-2-4(7)5(8)3-6/h4,7H,2H2,1H3/t4-/m1/s1
