17
gdb 31796	4.85231	1.00594	0.84191	1.3425	79.25	-0.2376	-0.0418	0.1958	1345.5989	0.136294	-418.057359	-418.048584	-418.047639	-418.091955	31.056	
C	-0.0522636663	 1.5063045681	-0.0001797196	-0.471486
C	-0.0079968236	 0.0029952448	-0.0024116442	 0.315184
C	 0.2249809579	-0.7331223982	-1.1685566264	-0.068788
N	 0.2669037681	-2.0631351682	-1.1851205042	-0.298217
C	 0.0737201186	-2.6854428617	-0.0194390301	 0.281313
C	 0.1237955963	-4.192507116	-0.0527492287	-0.153903
O	-0.0975582533	-4.7003353425	 1.2490986842	-0.416196
C	-0.1596470841	-1.9600800208	 1.1505418847	-0.056088
N	-0.2007423733	-0.6275608661	 1.1622420442	-0.3008
H	 0.1162336728	 1.9145018113	-0.9998780668	 0.122085
H	-1.0224787118	 1.8603513793	 0.3625196393	 0.142821
H	 0.7086509847	 1.9108770117	 0.6747963953	 0.142816
H	 0.3823902178	-0.2267728143	-2.1184222517	 0.106145
H	-0.6344498336	-4.5492827012	-0.7675487096	 0.113243
H	 1.1035338879	-4.4985309486	-0.4522681336	 0.113243
H	-0.061744187	-5.6594998177	 1.2086655451	 0.295513
H	-0.315372191	-2.4739298499	 2.0921976423	 0.133114
43.5793	61.1848	115.5318	197.778	214.4457	326.1754	338.2654	424.5098	441.0853	505.1961	551.5754	659.2764	736.1857	779.9524	874.2329	909.4164	975.5051	1007.2346	1044.4324	1051.1794	1062.385	1099.8298	1197.859	1236.1409	1240.9091	1266.8003	1272.3928	1329.667	1369.4407	1411.5162	1453.6013	1475.7731	1488.1576	1502.865	1521.8162	1578.7922	1622.3923	2973.9184	2998.6362	3041.2173	3102.1318	3124.1022	3149.8653	3200.94	3848.2321
CC1=CN=C(CO)C=N1	Cc1cnc(CO)cn1	
InChI=1S/C6H8N2O/c1-5-2-8-6(4-9)3-7-5/h2-3,9H,4H2,1H3	InChI=1S/C6H8N2O/c1-5-2-8-6(4-9)3-7-5/h2-3,9H,4H2,1H3
