19
gdb 81130	2.84885	1.35372	1.13007	3.4755	80.13	-0.225	0.0303	0.2553	1133.3744	0.159213	-382.010361	-382.001876	-382.000931	-382.043688	32.256	
C	-0.0530068622	 1.4612329013	-0.2784533177	-0.341949
N	-0.0267459819	 0.0227226641	-0.0158566971	-0.126912
C	-1.0317697995	-0.5502993833	 0.9710918271	-0.016577
C	-0.0988353014	-1.7842202749	 1.0488564199	-0.257981
C	 0.781876901	-0.5111211133	 1.1613816961	 0.349198
C	 2.2982303188	-0.4662128189	 1.1967963206	-0.472253
C	 2.832612853	 0.8798250295	 1.4010502913	 0.265528
N	 3.2390748175	 1.9482915159	 1.5696295522	-0.31405
C	-0.2556197068	 0.0568737209	 2.1750012816	-0.282727
H	 0.8714766802	 1.7408029217	-0.7921150924	 0.134039
H	-0.8845276697	 1.6613564661	-0.9621704746	 0.121478
H	-0.1623820313	 2.1221503714	 0.5929882556	 0.110143
H	-2.1031451426	-0.5290103397	 0.7707664015	 0.08857
H	-0.1761106676	-2.41138654	 1.9386408437	 0.096575
H	 0.0108046508	-2.3480964776	 0.1221274315	 0.107092
H	 2.6629949765	-1.1114343649	 2.0043377441	 0.158725
H	 2.6914351616	-0.8694386729	 0.2565386895	 0.164014
H	-0.2867100614	 1.1371325509	 2.3070830705	 0.118364
H	-0.3429408153	-0.4549406362	 3.1373486567	 0.098721
63.373	104.9365	167.8788	218.2247	289.4122	356.1546	371.1201	391.3733	465.1652	544.4519	589.8316	685.9487	732.7283	763.0282	821.5458	880.8559	917.2082	959.4995	961.9537	971.724	998.8089	1069.4312	1079.6409	1124.8353	1140.8628	1159.5435	1173.4628	1181.9859	1218.8089	1223.6331	1230.5584	1269.242	1291.0598	1340.0082	1445.4392	1449.4257	1472.6469	1493.9531	1495.0131	1536.5746	2362.4455	2997.896	3042.6017	3066.049	3073.4416	3077.5006	3084.0049	3106.5774	3116.7624	3151.0393	3156.9638
CN1C2CC1(CC#N)C2	CN1[C@H]2C[C@]1(CC#N)C2	
InChI=1S/C7H10N2/c1-9-6-4-7(9,5-6)2-3-8/h6H,2,4-5H2,1H3	InChI=1S/C7H10N2/c1-9-6-4-7(9,5-6)2-3-8/h6H,2,4-5H2,1H3/t6-,7+
