16
gdb 44566	3.12454	1.67184	1.4803	3.7582	68.2	-0.2586	0.0258	0.2844	919.264	0.126383	-437.872093	-437.865484	-437.86454	-437.903171	26.363	
N	 0.3347541539	 0.9311248955	 0.611025051	-0.550523
C	 0.1101862186	-0.1767904929	 0.0734860132	 0.444984
O	 0.9139801546	-0.9772826303	-0.7202508228	-0.261339
C	-0.1050745956	-2.0260562442	-0.7593577009	 0.079218
C	 0.179236158	-3.1829599093	 0.1814490946	 0.011361
O	 0.7026887256	-2.7396808659	 1.435158446	-0.232849
C	-0.6865722477	-3.0608318349	 1.3734661642	 0.048085
C	-1.5796056998	-1.834955678	 1.2699707821	-0.269728
C	-1.0914966227	-1.1036142235	 0.0045768635	-0.169856
H	 1.2882549397	 1.2493573786	 0.4310529075	 0.230375
H	-0.3222757624	-2.3286608258	-1.7847997544	 0.093046
H	 0.5670369963	-4.1289022759	-0.1862220861	 0.105041
H	-0.9930826109	-3.9213581758	 1.9640264111	 0.103015
H	-2.6246304368	-2.1440800285	 1.1617271832	 0.110954
H	-1.5083285516	-1.2054287425	 2.1616411432	 0.143904
H	-1.9032320291	-0.6783689966	-0.5868419054	 0.114311
104.0948	208.2331	256.9863	369.2857	422.0461	548.1859	611.4312	654.5046	694.1991	781.1768	830.5089	847.8684	857.6956	869.5024	898.01	938.3222	966.4444	977.2891	1005.7863	1040.2272	1061.4087	1072.3076	1113.1913	1172.6662	1209.2516	1222.7827	1255.3146	1276.9631	1294.5761	1329.5525	1338.7929	1360.9208	1427.7991	1476.7629	1829.4412	3053.2993	3100.4895	3104.5503	3114.136	3140.513	3158.5381	3480.6105
N=C1OC2C3OC3CC12	[NH][C]1O[C@H]2[C@H]3O[C@H]3C[C@@H]12	
InChI=1S/C6H7NO2/c7-6-2-1-3-5(8-3)4(2)9-6/h2-5,7H,1H2	InChI=1S/C6H7NO2/c7-6-2-1-3-5(8-3)4(2)9-6/h2-5,7H,1H2/t2-,3+,4-,5+/m1/s1
