19
gdb 105739	2.12156	1.53353	1.22263	1.9499	77.53	-0.2402	-0.0273	0.2129	1129.8407	0.157432	-423.032111	-423.022852	-423.021907	-423.066908	33.257	
C	 0.2477064375	 1.1143741885	 0.2720930158	-0.254744
O	-0.0114270786	-0.2637436663	 0.0802895573	-0.284465
C	-1.385831365	-0.6010559923	-0.1493909062	 0.266902
C	-1.4862437115	-2.1479165644	-0.0429738686	-0.271745
C	-2.0521729424	-2.4300338235	 1.3704466909	-0.261561
C	-2.6650589944	-1.1100909585	 1.7624217241	-0.075655
C	-2.3319381542	-0.1241195864	 0.9328087153	-0.097629
C	-1.7513289089	-0.1311883378	-1.5565248676	 0.099838
O	-2.8148138775	 0.330857553	-1.8782076168	-0.247613
H	 1.3334754117	 1.2250420653	 0.3202709574	 0.13133
H	-0.1301207503	 1.7320567386	-0.5567724296	 0.112285
H	-0.1878560569	 1.4885397384	 1.2080727306	 0.116031
H	-2.1796257367	-2.5273097709	-0.7998960518	 0.118492
H	-0.5070885463	-2.5943190502	-0.2244691681	 0.121526
H	-2.7827200964	-3.2462133678	 1.3663768382	 0.111535
H	-1.2648927273	-2.7219421239	 2.0774521555	 0.120604
H	-3.2981798322	-0.9985307942	 2.6364583677	 0.103185
H	-2.6612627799	 0.904408866	 1.0045679532	 0.107969
H	-0.9211854308	-0.2677646136	-2.2879329771	 0.083716
54.8992	64.1641	120.4997	175.9117	206.2104	254.2062	295.2329	315.8608	416.0335	475.4485	560.9228	675.2953	704.994	785.0477	801.6808	838.3657	918.4391	926.2656	950.7708	983.3753	1015.9723	1077.6199	1098.6309	1110.6322	1168.8115	1175.0003	1182.0056	1198.9646	1229.7965	1251.9037	1314.0232	1322.9359	1376.0374	1403.6279	1468.6556	1478.7208	1488.07	1488.7381	1511.3639	1685.345	1831.2133	2868.6584	2985.8464	3027.3115	3043.9598	3055.8617	3069.7634	3117.9713	3124.3619	3186.3963	3222.7621
COC1(CCC=C1)C=O	CO[C@]1(CCC=C1)C=O	
InChI=1S/C7H10O2/c1-9-7(6-8)4-2-3-5-7/h2,4,6H,3,5H2,1H3	InChI=1S/C7H10O2/c1-9-7(6-8)4-2-3-5-7/h2,4,6H,3,5H2,1H3/t7-/m1/s1
