20
gdb 18364	3.17062	2.095	1.53062	1.4955	73.38	-0.2394	0.0773	0.3167	903.2695	0.178956	-349.005195	-348.997771	-348.996827	-349.036844	28.987	
C	-0.0787940845	 1.58275504	-0.0959180232	-0.41319
C	 0.0755881778	 0.0655691296	-0.0130923063	 0.016544
C	 0.9538386173	-0.5542501889	-1.114150256	-0.098692
O	 1.2954188894	-1.8538836767	-0.6495706875	-0.260845
C	 1.4436579953	-1.7981654177	 0.7611845975	 0.114205
C	 2.8056030178	-1.2512520209	 1.2763615064	-0.237279
C	 2.1131041108	 0.0750889389	 1.7009540506	-0.239957
C	 0.730740069	-0.500496038	 1.2592316843	-0.042582
H	 0.8862703441	 2.0945144759	-0.0250292879	 0.118283
H	-0.5382564205	 1.877868685	-1.0455478139	 0.116083
H	-0.71612505	 1.9608213782	 0.709800782	 0.116991
H	-0.9180494849	-0.3937877597	-0.0931428794	 0.079109
H	 0.4418020716	-0.6652695967	-2.0743794882	 0.106012
H	 1.8556536687	 0.0595712654	-1.2812803276	 0.083866
H	 1.1325223543	-2.766130236	 1.1613343358	 0.073333
H	 3.222461539	-1.8260147511	 2.1073220095	 0.098768
H	 3.5672392828	-1.167794704	 0.4971665966	 0.105544
H	 2.1805638859	 0.3092446604	 2.7655721319	 0.100255
H	 2.4427843486	 0.9563832958	 1.144881591	 0.098165
H	 0.0155138776	-0.6199430496	 2.0751214844	 0.065388
79.9939	178.7214	210.7964	236.3315	316.3353	399.1958	497.4946	555.1122	642.2014	733.6472	744.6381	822.3178	864.017	885.4248	912.0497	955.018	961.4181	970.1644	1000.6833	1031.6363	1071.2669	1088.5388	1136.6246	1156.9201	1176.023	1206.7689	1219.3969	1244.0572	1250.995	1269.7149	1278.1711	1313.8396	1327.65	1354.5331	1362.7963	1398.7928	1413.1246	1469.8234	1488.8971	1498.3058	1501.1526	1520.019	2956.5807	3021.0489	3032.8135	3058.7308	3064.6252	3074.3844	3081.9872	3090.0878	3096.122	3102.0884	3106.3081	3123.1834
CC1COC2CCC12	C[C@H]1CO[C@H]2CC[C@@H]12	
InChI=1S/C7H12O/c1-5-4-8-7-3-2-6(5)7/h5-7H,2-4H2,1H3	InChI=1S/C7H12O/c1-5-4-8-7-3-2-6(5)7/h5-7H,2-4H2,1H3/t5-,6-,7-/m0/s1
