21
gdb 92348	2.8852	1.54028	1.37006	2.2132	77.	-0.2478	0.0805	0.3283	1052.4045	0.185652	-424.253394	-424.24587	-424.244926	-424.284992	30.852	
C	 0.1221803589	 1.5989522992	 0.0782789763	-0.40479
C	 0.0069778806	 0.0847325917	 0.0002515416	 0.15825
C	 0.6132264562	-0.5008740561	-1.2925616334	-0.232419
C	 0.8621503137	-2.0162834525	-1.1552756432	-0.052444
C	-0.382673332	-2.7494981888	-0.6287711342	-0.084672
O	-0.3820943173	-2.5229435976	 0.7919813636	-0.26913
C	 0.8130207053	-1.8426590394	 1.1431729628	 0.215667
C	 1.8039149808	-2.226253229	 0.0427106935	-0.244833
O	 0.635084231	-0.4415691843	 1.1765888325	-0.279799
H	 1.1725825749	 1.9062833941	 0.058495635	 0.118954
H	-0.3937205019	 2.0670965152	-0.7659934395	 0.111446
H	-0.3247359839	 1.9668500631	 1.0057145975	 0.12559
H	-1.0562308216	-0.1938445115	 0.0363894995	 0.083858
H	-0.065600739	-0.2879978539	-2.1268015437	 0.096297
H	 1.5645929708	-0.0017745292	-1.5145497179	 0.097292
H	 1.2272886159	-2.4456009228	-2.0912555462	 0.070122
H	-1.321239511	-2.3715296244	-1.0503078931	 0.102291
H	-0.3256718692	-3.828886181	-0.8225303154	 0.098213
H	 1.0861416103	-2.1330733509	 2.1594484679	 0.084534
H	 2.111986959	-3.271722131	 0.1443670736	 0.10045
H	 2.6866291082	-1.5846207709	 0.037332203	 0.105122
134.7396	204.265	237.6253	297.6581	350.2377	383.3424	435.836	472.1291	521.6913	579.1577	768.2479	780.6912	831.3403	835.8343	887.7531	906.6454	916.9129	942.9668	968.7354	989.0313	995.0036	1027.1094	1075.9573	1092.1561	1109.8107	1142.6387	1162.9459	1175.2401	1208.9571	1219.0181	1279.0832	1306.0939	1313.9882	1336.5054	1355.189	1374.2224	1389.9775	1392.702	1405.6073	1411.8706	1478.425	1482.85	1494.0525	1500.1361	1523.8385	2993.6822	3011.267	3024.6575	3039.7373	3056.1669	3057.2819	3069.1314	3082.467	3102.8665	3111.8619	3120.2115	3124.4546
CC1CC2COC(C2)O1	C[C@H]1C[C@@H]2CO[C@@H](C2)O1	
InChI=1S/C7H12O2/c1-5-2-6-3-7(9-5)8-4-6/h5-7H,2-4H2,1H3	InChI=1S/C7H12O2/c1-5-2-6-3-7(9-5)8-4-6/h5-7H,2-4H2,1H3/t5-,6-,7+/m0/s1
