20
gdb 92020	2.82173	1.60123	1.20981	2.9282	77.49	-0.242	0.0677	0.3097	1076.1393	0.173086	-403.116572	-403.108903	-403.107958	-403.148423	30.992	
C	 0.0811855992	 1.5531184951	 0.0348864087	-0.397803
C	-0.0003151379	 0.0215151596	 0.0139375444	 0.014618
C	 0.6213597282	-0.5439904702	-1.2847830283	-0.237805
C	 0.7034671341	-2.0632707852	-1.3028913234	 0.011512
O	 1.9940220989	-2.6510186757	-1.0862731883	-0.24412
C	 1.021597153	-2.7719258215	-0.0527779341	 0.078395
C	 1.1890790753	-1.9680477379	 1.2091646599	-0.087659
N	 2.0987809671	-0.8100402824	 1.1685862891	-0.324323
C	 0.6510088462	-0.5769600743	 1.249934778	-0.018532
H	 1.1267176534	 1.8788668889	 0.045056408	 0.128197
H	-0.3997668978	 1.9863826666	-0.8483342826	 0.111135
H	-0.4109713861	 1.9681400729	 0.9210014977	 0.106704
H	-1.0610656883	-0.2696355534	 0.043964895	 0.070626
H	 0.0342235411	-0.1926841814	-2.1394060141	 0.093023
H	 1.6350072122	-0.1488725224	-1.3959092446	 0.135665
H	 0.1111931213	-2.5809967738	-2.0569822031	 0.087826
H	 0.6444807424	-3.7838796877	 0.0985460707	 0.082144
H	 1.1541241176	-2.5461627574	 2.1291692331	 0.079266
H	 2.5400266008	-0.6870082749	 2.0751076563	 0.233562
H	 0.2420973694	-0.2324156947	 2.1988609474	 0.077571
114.7149	197.1763	238.0686	254.481	318.8996	396.3491	405.0087	494.7866	552.824	595.1955	692.8197	766.6666	815.0994	823.3957	852.2551	886.0471	904.8824	931.7219	962.0928	992.2454	1014.7894	1051.9874	1077.0054	1095.3203	1110.4518	1139.6226	1144.6705	1175.7673	1199.0708	1246.9697	1254.9987	1292.0857	1318.3026	1346.1437	1368.8351	1383.4618	1402.0251	1414.7479	1454.8788	1466.8792	1476.4626	1496.2992	1502.418	2993.2459	3028.5024	3050.2722	3095.508	3096.1677	3099.4712	3104.0687	3112.7141	3114.0847	3138.5456	3515.4642
CC1CC2OC2C2NC12	C[C@H]1C[C@H]2O[C@H]2[C@H]2N[C@@H]12	
InChI=1S/C7H11NO/c1-3-2-4-7(9-4)6-5(3)8-6/h3-8H,2H2,1H3	InChI=1S/C7H11NO/c1-3-2-4-7(9-4)6-5(3)8-6/h3-8H,2H2,1H3/t3-,4+,5-,6-,7+/m0/s1
