17
gdb 119866	3.51126	0.9894	0.78326	3.8981	72.33	-0.2653	-0.0364	0.229	1421.6047	0.135316	-459.000057	-458.991332	-458.990387	-459.034453	30.597	
C	-0.0528975189	 1.4216561932	 0.0107685144	-0.226482
O	 0.0198187812	 0.0141313609	 0.0028581128	-0.238656
C	-1.2463359741	-0.5967187745	 0.0106150922	-0.155565
C	-1.0819039157	-2.0768479661	 0.0017512479	 0.127729
C	 0.0216172293	-2.8234759706	-0.0104737428	-0.198646
C	-0.3705781461	-4.2705713369	-0.0142945446	-0.128784
O	-1.7980000813	-4.2730929947	-0.003252949	-0.230621
C	-2.25919539	-2.9819656843	 0.005738304	 0.403422
O	-3.4268332009	-2.7052798425	 0.0172963623	-0.352654
H	 0.9718849423	 1.799473647	 0.0038766005	 0.131039
H	-0.5818625246	 1.806926093	-0.8746288379	 0.111018
H	-0.5664700939	 1.7977011661	 0.9091014794	 0.111012
H	-1.8322403548	-0.2972889323	 0.8975564297	 0.117449
H	-1.8473909164	-0.2884746149	-0.8630531043	 0.117438
H	 1.0444672515	-2.4743481209	-0.0165617557	 0.13856
H	-0.0195610756	-4.8049516805	-0.9064065714	 0.136849
H	-0.0058185821	-4.813304222	 0.8672037625	 0.136893
65.9638	79.4338	122.0942	184.0512	226.276	266.2659	305.3826	350.6778	397.2123	574.2652	662.3594	753.4867	781.3522	842.4361	853.3587	945.899	993.6438	1025.6544	1045.2635	1066.4051	1087.9357	1164.797	1184.6997	1200.1813	1211.906	1230.4477	1246.8034	1305.3088	1370.8366	1430.9463	1481.2396	1485.7868	1493.7342	1495.9702	1517.2441	1723.4488	1860.8081	2951.1482	2967.478	2977.5703	3023.5223	3023.8945	3055.2567	3120.5767	3243.6298
COCC1=CCOC1=O	COCC1=CCOC1=O	
InChI=1S/C6H8O3/c1-8-4-5-2-3-9-6(5)7/h2H,3-4H2,1H3	InChI=1S/C6H8O3/c1-8-4-5-2-3-9-6(5)7/h2H,3-4H2,1H3
