21
gdb 92587	2.08029	1.65015	1.47665	0.3895	76.75	-0.245	0.057	0.302	1057.7594	0.18302	-424.223929	-424.215314	-424.214369	-424.257003	33.795	
C	-0.2249150849	 1.4837573508	-0.0675968537	-0.49183
C	 0.0042949823	-0.0195370751	-0.0132410934	 0.304057
C	-1.2900074783	-0.8510024806	-0.0610376737	-0.295046
C	-1.0090777174	-2.0346200923	 0.8811588275	-0.098355
O	-0.1016385575	-1.5471350466	 1.8617143316	-0.252675
C	 0.7536322213	-0.6145550177	 1.2269780062	 0.074112
C	 1.8453416158	-1.2158506016	 0.2945492202	-0.304869
C	 1.1643979619	-0.5535351322	-0.9339992892	 0.084091
O	 0.8422101205	-1.3593068964	-2.0446836566	-0.426795
H	 0.7174138248	 2.0353924485	 0.0247562881	 0.112422
H	-0.6861853925	 1.7770789685	-1.0177143035	 0.123185
H	-0.8851834479	 1.8136246157	 0.7422840411	 0.117331
H	-2.1232238742	-0.2548678016	 0.3228127295	 0.106085
H	-1.541348864	-1.1679866295	-1.0768084851	 0.109636
H	-1.895588984	-2.4068810183	 1.4011056551	 0.113136
H	-0.5688698388	-2.8844010067	 0.3311947324	 0.07401
H	 1.113001533	 0.080394564	 1.9888551506	 0.075973
H	 2.8718258893	-0.9004177744	 0.4946904957	 0.106422
H	 1.824994954	-2.3103903719	 0.2735033301	 0.102783
H	 1.748897605	 0.2751627828	-1.343921911	 0.085848
H	 0.5330356416	-2.2128255256	-1.7241580019	 0.28048
56.8295	195.4977	218.3393	234.5967	270.9082	280.4173	313.5707	402.1398	447.9892	507.909	565.215	616.5387	673.0523	745.7356	813.388	873.8696	889.3814	909.6508	946.5134	978.1204	989.3355	1028.2854	1032.2385	1051.9752	1126.7478	1135.4685	1150.4886	1177.2408	1202.5172	1219.635	1247.6128	1252.1558	1263.0741	1284.2283	1303.0381	1343.5897	1359.2519	1392.6657	1410.2773	1437.6297	1467.2332	1485.6922	1493.9319	1498.1292	1521.6813	2944.7806	3020.3797	3053.221	3054.9213	3065.6251	3085.172	3087.9444	3090.4328	3090.996	3105.7623	3113.5545	3809.9927
CC12CCOC1CC2O	C[C@]12CCO[C@H]1C[C@H]2O	
InChI=1S/C7H12O2/c1-7-2-3-9-6(7)4-5(7)8/h5-6,8H,2-4H2,1H3	InChI=1S/C7H12O2/c1-7-2-3-9-6(7)4-5(7)8/h5-6,8H,2-4H2,1H3/t5-,6+,7-/m1/s1
