17
gdb 33531	2.14543	1.68719	1.14719	2.2652	73.84	-0.2546	0.0188	0.2734	1096.2406	0.133894	-421.740693	-421.732067	-421.731123	-421.774504	31.723	
C	 0.6793574211	-1.4617535907	-0.2306293022	-0.462023
C	 0.4677137727	-0.280159336	-0.166410161	 0.325638
C	 0.1999624602	 1.1534440613	-0.1069354006	 0.214355
C	-0.5855241651	 1.6528092276	 1.1402896832	-0.343525
C	 0.7213460979	 2.3808158546	 1.5004554603	-0.069891
O	 1.3734374413	 1.9127174142	 0.2982817636	-0.312266
C	-0.2934046811	 1.6392812002	-1.4583105999	 0.016573
C	-1.7081120676	 1.6012390534	-1.8337471941	-0.177713
O	-1.0691047722	 2.8325348272	-1.4769740086	-0.232037
H	 0.8732752742	-2.5049727949	-0.2805895033	 0.201903
H	-1.4172305444	 2.3093555768	 0.8874969066	 0.135869
H	-0.9042245274	 0.8679545078	 1.8243198871	 0.120831
H	 0.6680593178	 3.4740525495	 1.5305275492	 0.115126
H	 1.2285080986	 2.017401503	 2.4015754461	 0.109045
H	 0.4646431084	 1.5751833709	-2.2386882045	 0.115051
H	-1.9854594412	 1.5026200642	-2.8812783404	 0.124866
H	-2.4449105731	 1.2356267107	-1.1199699415	 0.118199
65.7469	86.8675	140.1588	184.1444	224.2594	274.7865	401.7411	488.9997	510.5409	552.7985	616.4331	635.1629	664.8889	784.0009	854.7851	868.3253	891.5055	938.1502	969.2294	984.3885	1015.6113	1053.3745	1091.8423	1154.438	1159.0278	1164.4106	1187.2733	1206.6837	1239.2436	1272.142	1295.7548	1349.0748	1420.7854	1474.0835	1525.9982	1530.2465	2231.4714	3029.9439	3076.2405	3090.3262	3101.905	3120.3763	3167.2109	3178.727	3499.5209
C#CC1(CCO1)C1CO1	C#C[C@]1(CCO1)[C@H]1CO1	
InChI=1S/C7H8O2/c1-2-7(3-4-9-7)6-5-8-6/h1,6H,3-5H2	InChI=1S/C7H8O2/c1-2-7(3-4-9-7)6-5-8-6/h1,6H,3-5H2/t6-,7+/m1/s1
