21
gdb 52708	3.33154	0.64889	0.61367	3.1355	84.9	-0.2442	0.0404	0.2846	1932.0193	0.178515	-424.201626	-424.190009	-424.189065	-424.240108	40.395	
C	-0.0351008065	 1.4901868925	 0.0229658743	-0.500136
C	 0.0081017352	 0.0350055731	 0.0155519759	 0.098792
C	 0.0488980347	-1.1691682504	 0.0300612946	 0.028684
C	 0.0613312701	-2.6329504541	-0.0012646619	-0.067905
O	-1.2524402191	-3.1760778866	 0.1527562229	-0.420248
C	 0.7375561991	-3.1682719883	-1.2786298799	-0.200819
C	 0.9275769197	-4.6894885782	-1.2340919358	 0.14094
C	 1.4505920281	-5.2502276382	-2.5556061105	-0.413035
O	 1.7676654338	-5.0662290221	-0.1425576027	-0.431453
H	 0.8136714673	 1.9072425779	 0.5761352692	 0.15132
H	-0.0026046417	 1.8994376785	-0.992793557	 0.146854
H	-0.950866494	 1.8562068018	 0.5001284641	 0.151356
H	 0.6229893183	-3.0208306286	 0.8559321561	 0.126368
H	-1.8334825748	-2.6840177169	-0.4379002568	 0.279974
H	 0.1293474802	-2.8868620429	-2.1476759874	 0.091636
H	 1.7127457732	-2.6782422581	-1.4036628249	 0.091851
H	-0.0401001781	-5.1448823046	-0.9993111626	 0.106824
H	 2.4122891095	-4.7924024932	-2.8216311928	 0.103864
H	 1.5972384553	-6.3308366397	-2.4762185689	 0.125036
H	 0.752317577	-5.0529184412	-3.3754464781	 0.11565
H	 2.6569405727	-4.7478141207	-0.3358518379	 0.274445
24.1781	52.323	74.3271	94.3443	156.1599	188.3615	240.1137	275.563	290.5452	315.448	330.091	347.9466	398.4225	456.5071	480.2525	544.6075	559.7639	779.148	857.0143	862.8545	935.4385	976.0695	1051.7812	1053.6077	1060.4198	1067.9372	1101.0016	1137.3544	1166.5649	1193.6857	1265.1692	1286.2819	1322.906	1353.4762	1383.4215	1402.9526	1413.6196	1425.873	1428.7368	1465.4682	1477.1425	1479.0073	1491.5025	1495.8723	2365.2282	3014.837	3021.9429	3027.4633	3048.7865	3063.111	3069.9706	3087.9567	3089.4469	3094.6931	3117.6004	3790.5714	3804.0051
CC#CC(O)CC(C)O	CC#C[C@@H](O)C[C@@H](C)O	
InChI=1S/C7H12O2/c1-3-4-7(9)5-6(2)8/h6-9H,5H2,1-2H3	InChI=1S/C7H12O2/c1-3-4-7(9)5-6(2)8/h6-9H,5H2,1-2H3/t6-,7-/m1/s1
