19
gdb 121062	3.13273	0.99878	0.85028	4.4784	72.66	-0.2439	0.0632	0.3071	1395.5717	0.160899	-456.383406	-456.374431	-456.373487	-456.417778	32.542	
C	-0.0363709127	 1.2936268144	-0.2567519674	-0.230395
O	-0.0367442581	-0.1014058612	-0.0548009713	-0.240769
C	-1.332125324	-0.649039527	 0.048381723	-0.060665
C	-1.1764309588	-2.1649177306	 0.1757602266	-0.000304
C	-2.5306066486	-2.9113778348	 0.1126507532	-0.189241
N	-2.6312554718	-3.210479604	-1.3065834164	-0.338269
C	-1.3748997316	-3.2382578077	-1.9062011197	 0.425314
O	-1.1191735976	-3.616156685	-3.0264416759	-0.407473
N	-0.4789213105	-2.7462160446	-0.9626067374	-0.330634
H	 1.0058778548	 1.6125154622	-0.3301032645	 0.132054
H	-0.561311446	 1.5698503667	-1.1840173913	 0.112109
H	-0.5132815166	 1.825326979	 0.5811109952	 0.107553
H	-1.8588447453	-0.2471590818	 0.9311593599	 0.087056
H	-1.9331214573	-0.4055868151	-0.8435402616	 0.103147
H	-0.6440159178	-2.3815272249	 1.1071063621	 0.096003
H	-2.500072448	-3.8167660573	 0.7342600024	 0.11152
H	-3.3604727704	-2.2865182337	 0.4593751483	 0.113045
H	-3.3146696782	-3.8641769956	-1.6535197956	 0.252113
H	 0.3470174686	-2.281594849	-1.3081317293	 0.257836
61.6272	108.3294	139.9696	152.4172	217.8957	236.0345	347.8784	368.7178	478.2093	513.2567	522.9521	586.7539	712.6781	762.0519	771.0849	877.6892	953.4322	974.9693	989.1324	1020.5964	1085.149	1133.7363	1138.4267	1165.6285	1186.1102	1220.7743	1229.64	1251.8567	1267.4088	1284.8313	1353.5562	1380.0792	1410.5804	1431.0716	1441.6657	1480.9429	1486.5354	1501.4448	1524.6197	1529.3034	1851.7508	2952.094	2978.2737	2991.3806	3004.1301	3024.7465	3058.9427	3063.2237	3119.0512	3637.0662	3646.5841
COCC1CNC(=O)N1	COC[C@H]1CNC(=O)N1	
InChI=1S/C5H10N2O2/c1-9-3-4-2-6-5(8)7-4/h4H,2-3H2,1H3,(H2,6,7,8)	InChI=1S/C5H10N2O2/c1-9-3-4-2-6-5(8)7-4/h4H,2-3H2,1H3,(H2,6,7,8)/t4-/m1/s1
