21
gdb 90236	2.78052	1.6185	1.4115	1.897	82.07	-0.2363	0.0583	0.2946	1030.5327	0.184218	-386.984822	-386.97741	-386.976466	-387.016153	31.254	
C	-0.2940630762	 1.4792591614	-0.0216947968	-0.413801
C	-0.0570461385	-0.0279060265	 0.0549843299	 0.061051
C	 0.907004045	-0.5963291264	-1.0319830531	-0.282608
C	 1.999548226	-1.2013500691	-0.112541654	 0.428813
C	 1.1185699019	-2.0037620051	 0.9048555131	-0.331556
C	 0.7318913474	-0.4831351273	 1.2921503884	-0.09359
C	 2.2627627252	-0.2143777148	 0.9701760587	-0.033493
C	 3.3630347448	 0.2837983285	-0.0303343037	-0.181661
O	 3.3495673791	-1.0618940563	-0.6556524268	-0.362882
H	 0.650594422	 2.0313744211	 0.0253313213	 0.117649
H	-0.7969271149	 1.7528193456	-0.9552285688	 0.115103
H	-0.9213572266	 1.8225752354	 0.8085105506	 0.111977
H	-1.025995834	-0.5395134795	 0.0289225666	 0.068853
H	 0.4486131267	-1.3670566827	-1.6577444273	 0.098395
H	 1.2964658304	 0.1795153422	-1.6947937472	 0.100429
H	 0.3093021704	-2.6404176049	 0.5314336123	 0.094509
H	 1.6818457754	-2.5040303909	 1.6923373402	 0.113407
H	 0.3147506436	-0.2585119812	 2.2753288314	 0.070637
H	 2.8276970497	-0.7094672233	 1.7640693789	 0.090862
H	 3.0878836003	 1.0541496657	-0.7555751136	 0.112403
H	 4.3390391323	 0.5039429681	 0.4081499398	 0.115505
137.3343	225.2409	262.7858	327.4729	380.1533	397.627	455.0564	489.351	549.7671	649.8367	663.8626	752.878	802.0603	817.5113	855.1564	877.2618	914.7809	928.5956	968.4575	981.8509	988.5093	1029.4118	1035.691	1045.5445	1095.691	1120.8767	1126.9471	1143.6579	1150.7324	1186.2215	1196.7631	1217.3759	1236.1916	1263.4896	1280.9586	1311.5738	1328.9206	1371.4412	1412.3195	1426.0217	1489.077	1496.3022	1497.7007	1502.4133	1518.3998	3028.5567	3031.2301	3048.0354	3052.0301	3059.4059	3064.2281	3093.8663	3100.6428	3102.6784	3107.7799	3120.3038	3144.4185
CC1CC23CC1C2CO3	C[C@H]1C[C@]23C[C@H]1[C@@H]2CO3	
InChI=1S/C8H12O/c1-5-2-8-3-6(5)7(8)4-9-8/h5-7H,2-4H2,1H3	InChI=1S/C8H12O/c1-5-2-8-3-6(5)7(8)4-9-8/h5-7H,2-4H2,1H3/t5-,6+,7-,8-/m0/s1
