23
gdb 59518	3.43049	1.05653	0.91967	1.4682	86.3	-0.2276	0.0834	0.3111	1400.7218	0.203683	-388.267268	-388.257397	-388.256453	-388.30167	37.637	
C	-0.0552357642	 1.4395735494	-0.1868028598	-0.392266
C	 0.0712446988	-0.0626509368	 0.0995142563	 0.010142
C	 0.7032689429	-0.3339845487	 1.4710994569	-0.394282
C	-1.2929359088	-0.7344877752	 0.011346486	 0.151622
O	-1.9469794777	-0.5820784726	-1.2864074745	-0.34709
C	-2.2122084404	-1.9942218927	-1.337510378	 0.477446
C	-3.5466466149	-2.4233494689	-1.852610015	-0.488244
C	-0.9223567093	-2.7495010783	-1.4131407038	-0.339648
C	-1.4302792212	-2.2545990516	-0.067642891	-0.211647
H	 0.9269686982	 1.9231959342	-0.1849161981	 0.106631
H	-0.5226119549	 1.6094902811	-1.1601740833	 0.134439
H	-0.6707556591	 1.9334127004	 0.5749493666	 0.108062
H	 0.7134510975	-0.505114149	-0.6722888061	 0.073268
H	 0.0886577389	 0.0830215443	 2.2780751348	 0.111897
H	 0.8178449735	-1.4070480637	 1.6556838867	 0.11754
H	 1.6939208799	 0.1260163215	 1.5408079683	 0.113858
H	-1.9553981792	-0.323137975	 0.7878025669	 0.072366
H	-3.6548111128	-2.1521474139	-2.9091042275	 0.131147
H	-3.6594892931	-3.5082264817	-1.7699769812	 0.121288
H	-4.356706854	-1.942371367	-1.2953442122	 0.126248
H	-1.0160195625	-3.8226295206	-1.5507201293	 0.110035
H	-0.0556966294	-2.3021145759	-1.8908121495	 0.113006
H	-1.6391111482	-2.9178867392	 0.7611370868	 0.094183
71.2856	124.2545	139.9679	201.974	222.8849	241.0637	272.8662	300.3915	341.7411	406.1498	412.0135	499.2712	512.3321	652.5197	729.4324	811.0341	863.0591	892.3951	920.8294	929.8869	944.0636	963.8404	971.6786	979.7301	1016.304	1025.7286	1062.5265	1089.8153	1116.5463	1133.8868	1176.2402	1197.3232	1213.9376	1280.0897	1296.2363	1315.6374	1344.5535	1380.7363	1395.4162	1405.8378	1419.6791	1429.7503	1473.7242	1489.1051	1489.7848	1491.5324	1502.5997	1504.1069	1512.5637	2988.6094	3024.8133	3026.3422	3031.4414	3032.5428	3089.1536	3094.5607	3095.3562	3103.4794	3114.2024	3116.9852	3119.9539	3194.8652	3205.8525
CC(C)C1OC2(C)CC12	CC(C)[C@H]1O[C@@]2(C)C[C@@H]12	
InChI=1S/C8H14O/c1-5(2)7-6-4-8(6,3)9-7/h5-7H,4H2,1-3H3	InChI=1S/C8H14O/c1-5(2)7-6-4-8(6,3)9-7/h5-7H,4H2,1-3H3/t6-,7+,8-/m0/s1
