13
gdb 130465	4.0174	1.71505	1.20193	4.9534	73.64	-0.2441	-0.0794	0.1646	926.5183	0.09321	-415.63242	-415.626719	-415.625775	-415.662436	22.897	
O	-0.016914879	 1.2562412929	 0.00920184	-0.139594
C	 1.2194569141	 1.7553213645	 0.0000232132	-0.046571
C	 2.124667547	 0.7265900071	-0.0145605782	 0.137937
C	 3.5321062384	 0.5548480714	-0.0291757804	-0.208773
C	 3.9853386879	-0.7324257402	-0.0408410881	-0.117023
C	 3.0544248189	-1.8277599833	-0.0379960679	-0.011756
N	 1.7508821271	-1.7257897102	-0.0247900998	-0.318497
C	 1.2844223924	-0.4448338577	-0.0130475015	 0.409558
N	-0.004885264	-0.1302067868	 0.0012577574	-0.223321
H	 1.2966093171	 2.8314674281	 0.0053524057	 0.163923
H	 4.2087400951	 1.4024802606	-0.0309450099	 0.120576
H	 5.0461907153	-0.9537321095	-0.0523771709	 0.112911
H	 3.4555923498	-2.8400394268	-0.0476121297	 0.120629
216.8537	258.849	443.5835	452.9384	553.4751	577.5775	615.6694	631.4217	762.1815	783.	806.6212	838.9523	921.3275	934.6305	944.4587	982.6548	997.8875	1020.7108	1148.6817	1165.7858	1261.7771	1293.1577	1370.3611	1406.8471	1441.6912	1452.4786	1546.9465	1606.2682	1674.5256	3143.6467	3187.8432	3207.9305	3263.5089
O1C=C2C=CC=NC2=N1	o1cc2cccnc2n1	
InChI=1S/C6H4N2O/c1-2-5-4-9-8-6(5)7-3-1/h1-4H	InChI=1S/C6H4N2O/c1-2-5-4-9-8-6(5)7-3-1/h1-4H
