21
gdb 62068	4.33699	0.67783	0.61106	2.8976	80.56	-0.2521	-0.0259	0.2262	1831.9723	0.179282	-424.212717	-424.202381	-424.201437	-424.249674	36.229	
C	-0.0757670833	 1.3922233662	 0.1232545784	-0.404274
C	-0.091096344	-0.123745759	-0.0768776392	 0.049384
O	 0.5627359695	-0.5697597696	-1.2464516518	-0.265437
C	-0.1596766786	-0.3790195515	-2.4527439487	-0.076044
C	 0.6205132548	-0.9843565808	-3.5861099963	 0.011974
C	 0.526850502	-2.4619798424	-3.8609005716	-0.247944
C	-0.1100757782	-1.478113973	-4.8096926863	-0.272649
C	 0.5874770462	-0.8556635041	 1.0785972494	 0.148316
O	 0.5443169713	-0.4993554441	 2.2263597764	-0.246381
H	 0.9445848891	 1.7721447603	 0.018311251	 0.130205
H	-0.7164566774	 1.901916826	-0.6002017642	 0.118236
H	-0.430111046	 1.6230966069	 1.1307143764	 0.143787
H	-1.1401360488	-0.4797633049	-0.0774205516	 0.091196
H	-1.151147633	-0.8584327616	-2.3761156633	 0.081662
H	-0.3298191564	 0.6927425895	-2.637290087	 0.095379
H	 1.5883960818	-0.5204031163	-3.751243618	 0.092522
H	 1.4228426901	-2.9818074994	-4.1802943926	 0.115465
H	-0.1264856687	-3.0521007561	-3.2267505007	 0.113314
H	-1.1931755027	-1.4095567897	-4.8194798497	 0.112201
H	 0.3500653753	-1.3179547898	-5.7780804095	 0.115767
H	 1.1221943672	-1.7758575465	 0.7568161788	 0.093319
41.9672	51.7997	78.7727	121.9298	133.0808	204.7101	252.8012	271.0967	328.4019	408.2158	421.9735	486.5891	617.0302	775.0777	815.6894	827.1085	851.5266	907.7664	923.4788	931.645	965.7796	1036.721	1061.3124	1077.9051	1085.0501	1120.8012	1135.5886	1138.2475	1166.2599	1196.4772	1203.3978	1228.0371	1277.9922	1326.8064	1335.7757	1375.1357	1391.7713	1402.9752	1449.3037	1472.6264	1488.2435	1495.6623	1506.3279	1519.9854	1840.0108	2904.3025	2917.9159	2953.2424	2998.7325	3050.7423	3125.9356	3132.0611	3135.9853	3137.5448	3154.509	3210.3563	3225.6799
CC(OCC1CC1)C=O	C[C@@H](OCC1CC1)C=O	
InChI=1S/C7H12O2/c1-6(4-8)9-5-7-2-3-7/h4,6-7H,2-3,5H2,1H3	InChI=1S/C7H12O2/c1-6(4-8)9-5-7-2-3-7/h4,6-7H,2-3,5H2,1H3/t6-/m1/s1
