17
gdb 80084	2.5198	1.60763	1.08076	2.6585	74.97	-0.231	-0.0332	0.1978	1112.5353	0.136239	-418.008317	-418.00027	-417.999326	-418.041478	29.94	
C	 0.1316372747	 1.5868914662	-0.123248525	-0.412384
C	 0.067097554	 0.0827438879	-0.0756011008	-0.002127
C	 0.74395215	-0.75923456	-1.1162970257	-0.135649
N	 1.3038506544	-0.6518493781	 0.244071908	-0.140984
C	 1.1290817308	-1.7923880973	 1.0731521645	 0.050694
N	 0.6164285037	-2.9173088858	 0.8002282785	-0.207287
C	 0.0297655698	-3.1495575948	-0.5121763577	-0.271691
C	 0.1733943562	-2.0613953418	-1.5706626981	 0.370969
O	-0.1045759515	-2.2586742988	-2.7314632669	-0.31707
H	 1.0833824817	 1.9184051739	-0.5452958769	 0.137784
H	-0.6832105476	 1.9852077096	-0.7363594789	 0.133686
H	 0.0372471485	 2.0076177387	 0.8829226432	 0.133804
H	-0.842673492	-0.3367887668	 0.3523744474	 0.111106
H	 1.3109947976	-0.2364944241	-1.8824469092	 0.122243
H	 1.5259419412	-1.6317931084	 2.0760828094	 0.12491
H	 0.4449472693	-4.0719577824	-0.9360181358	 0.152883
H	-1.0401206308	-3.3599453582	-0.3760448662	 0.149113
45.6612	153.1075	188.0746	213.2486	253.7683	380.7131	451.4955	475.1653	503.5811	536.1838	577.7452	739.5764	763.9834	802.8023	919.1097	949.8455	961.4126	985.2897	998.9108	1038.5981	1066.2941	1112.2897	1140.9197	1178.772	1237.5566	1240.9141	1272.2231	1314.4509	1340.3861	1396.9066	1410.0982	1437.6488	1443.8164	1484.3496	1494.2448	1727.8002	1808.1941	3023.1105	3041.0422	3057.745	3107.5721	3114.6931	3129.607	3134.1345	3148.9543
CC1C2N1C=NCC2=O	C[C@H]1[C@H]2N1C=NCC2=O	
InChI=1S/C6H8N2O/c1-4-6-5(9)2-7-3-8(4)6/h3-4,6H,2H2,1H3	InChI=1S/C6H8N2O/c1-4-6-5(9)2-7-3-8(4)6/h3-4,6H,2H2,1H3/t4-,6+,8?/m0/s1
