27
gdb 100101	2.91435	0.83809	0.78452	1.3555	92.38	-0.2571	0.0663	0.3234	1673.7462	0.248868	-390.705136	-390.693143	-390.692198	-390.742203	44.995	
C	 0.0745514919	 1.5813064151	-0.1983098662	-0.40493
C	-0.1063265343	 0.0590707586	-0.1842194068	-0.173593
C	-1.5630725418	-0.482579181	-0.1679805633	 0.281635
C	-2.3380255526	 0.1115840139	 1.0246263689	-0.427196
C	-2.279652416	-0.1145797785	-1.4802655969	-0.420514
C	-1.441239129	-2.0266706248	-0.030496916	-0.21597
C	-2.6800604863	-2.9024328158	-0.2759466633	 0.11441
C	-2.32804821	-4.3918724436	-0.2151195634	-0.396189
O	-3.7659714123	-2.6128767746	 0.6073578115	-0.421143
H	 1.1394208325	 1.8327958904	-0.2367861824	 0.110513
H	-0.3991431503	 2.0456666139	-1.0687918335	 0.116502
H	-0.3388571323	 2.0530093538	 0.6979241317	 0.118345
H	 0.4052576981	-0.3634918558	-1.0594994983	 0.086525
H	 0.4169702254	-0.3458680766	 0.6928131176	 0.085995
H	-2.4528261105	 1.1952719473	 0.9242624542	 0.10629
H	-3.3331685076	-0.3301919024	 1.094252254	 0.134641
H	-1.8117572802	-0.0784000471	 1.9683571299	 0.093924
H	-1.7875509637	-0.5721711148	-2.3467859872	 0.101634
H	-3.322933389	-0.4428891662	-1.4696756899	 0.126025
H	-2.2858981784	 0.968273854	-1.6366012413	 0.109837
H	-0.6709951457	-2.3698904063	-0.7349424732	 0.089479
H	-1.0482159819	-2.2596956407	 0.9714178193	 0.07683
H	-3.0848580447	-2.6850811105	-1.2703797637	 0.09164
H	-1.9013383959	-4.6515639439	 0.7621151735	 0.104389
H	-3.2269036638	-4.9958388973	-0.365739283	 0.121673
H	-1.5935731616	-4.6622240113	-0.9805395614	 0.114446
H	-3.4650686799	-2.7922650754	 1.5054467394	 0.274804
32.9886	79.9514	127.1383	153.0158	214.1725	233.1302	241.426	284.2793	292.2377	303.3174	306.819	337.7012	343.4555	385.6292	410.2745	454.7374	481.222	560.0224	733.5306	781.7811	817.1802	882.5751	886.2573	937.6886	946.2558	978.7808	999.2894	1017.238	1032.7181	1070.397	1081.6223	1093.1652	1150.8294	1177.8927	1212.1103	1255.5568	1262.6108	1323.7388	1328.5862	1360.7023	1367.5288	1389.8508	1397.4559	1401.4904	1410.8074	1420.1105	1424.3131	1465.5395	1480.5392	1486.2501	1491.4499	1492.8221	1496.2405	1507.0263	1511.3074	1514.9405	1521.7704	2986.2671	3004.3221	3023.1175	3025.2752	3029.7093	3031.1833	3038.6515	3039.9275	3056.1379	3089.7871	3094.6377	3094.849	3101.6599	3108.2991	3112.8732	3117.7098	3140.1326	3794.3655
CCC(C)(C)CC(C)O	CCC(C)(C)C[C@@H](C)O	
InChI=1S/C8H18O/c1-5-8(3,4)6-7(2)9/h7,9H,5-6H2,1-4H3	InChI=1S/C8H18O/c1-5-8(3,4)6-7(2)9/h7,9H,5-6H2,1-4H3/t7-/m1/s1
