20
gdb 63875	2.08328	1.73621	1.28839	2.6526	79.82	-0.245	-0.0301	0.2149	1086.022	0.169249	-403.12051	-403.111507	-403.110563	-403.153653	34.503	
C	 0.0474031664	 1.6166854208	 0.0289065414	-0.457188
C	 0.0402227612	 0.090461948	 0.0960458268	 0.232858
C	-1.389065334	-0.4470752185	-0.0257964651	-0.442025
C	 1.0243550242	-0.6837468047	-0.8373654532	-0.203583
N	 1.6852513897	-1.4118838259	 0.3091535791	-0.161212
C	 2.2933021548	-0.3738640305	 1.1258370447	-0.281173
C	 0.8174128482	-0.5605376408	 1.2569332995	 0.224074
C	 0.2704553534	-1.1346128705	 2.5011421871	 0.068467
O	-0.7849592382	-0.820056153	 2.9982801849	-0.269834
H	 1.0555143432	 2.0340026051	 0.1069429843	 0.109875
H	-0.3804203601	 1.959966622	-0.9197773516	 0.117794
H	-0.5558734189	 2.0396247684	 0.8390159315	 0.132435
H	-1.8223649656	-0.1357026849	-0.9826299589	 0.109331
H	-1.4098528937	-1.540586809	 0.0147884199	 0.119961
H	-2.0198093265	-0.0729416961	 0.7836163475	 0.142814
H	 0.5342229518	-1.3981203457	-1.5009459828	 0.116319
H	 1.7318070219	-0.0793718036	-1.4149086877	 0.105294
H	 2.9144180493	-0.7618697355	 1.9284375294	 0.130909
H	 2.6711462054	 0.5323614905	 0.6580920514	 0.123537
H	 0.9331952975	-1.8986260261	 2.9686502517	 0.081348
98.4327	160.5997	198.6283	219.9624	226.0856	269.8641	332.526	347.1209	393.7733	439.0816	480.0286	515.9407	627.8974	695.4204	769.601	846.6658	855.5825	920.5617	934.0473	968.4216	989.8487	997.9181	1029.4943	1046.6145	1109.3422	1132.8476	1182.5114	1194.2826	1239.2166	1256.9809	1268.7698	1314.9872	1353.8405	1403.158	1418.7108	1430.325	1481.5573	1484.9959	1492.3483	1499.4966	1508.6339	1514.7419	1802.7879	2872.3403	3030.9208	3035.5887	3046.1772	3097.087	3101.5536	3104.5672	3109.2116	3117.6512	3129.4531	3193.554
CC1(C)CN2CC12C=O	CC1(C)CN2C[C@@]12C=O	
InChI=1S/C7H11NO/c1-6(2)3-8-4-7(6,8)5-9/h5H,3-4H2,1-2H3	InChI=1S/C7H11NO/c1-6(2)3-8-4-7(6,8)5-9/h5H,3-4H2,1-2H3/t7-,8?/m1/s1
