19
gdb 17060	3.1462	1.81044	1.38721	2.0521	73.08	-0.1994	0.0722	0.2716	967.4953	0.164868	-364.975003	-364.966997	-364.966053	-365.00746	30.66	
C	-0.0074655419	 1.5742859916	-0.1333422153	-0.368659
C	 0.0940692289	 0.0551188742	 0.0057060908	-0.131359
N	-1.256973446	-0.5209902209	 0.0181767027	-0.110567
C	-2.0424278565	-0.6641046389	 1.3114203677	-0.085012
C	-2.954521164	-1.6310724772	 0.5107292623	-0.214554
C	-1.4801777038	-2.0104610805	 0.1951641218	-0.054807
C	-1.2278763366	-1.9436256854	 1.724699899	 0.148099
O	 0.103447148	-1.8834443926	 2.1604068249	-0.427987
H	 0.9876622658	 2.0223173303	-0.2210966452	 0.105086
H	-0.5953440992	 1.8445954569	-1.0151406617	 0.118049
H	-0.4944415103	 2.0185290127	 0.7423000501	 0.106631
H	 0.593838394	-0.357559018	-0.8803764929	 0.092224
H	 0.7091021724	-0.2061107143	 0.8713491798	 0.107993
H	-2.3380152378	 0.1956198419	 1.9158197692	 0.076725
H	-3.5560237134	-2.3487545748	 1.0712321249	 0.091863
H	-3.4853494712	-1.1666242864	-0.3172758921	 0.112422
H	-1.1059079832	-2.7425223984	-0.522702488	 0.080508
H	-1.7951468131	-2.6727390431	 2.3227822349	 0.067088
H	 0.1010622878	-1.7500664271	 3.1134174471	 0.286258
53.3204	175.6792	210.7628	244.0765	277.9663	318.2721	367.6678	428.5618	527.4434	657.9295	734.1859	740.8936	799.5169	825.0092	882.5103	887.5749	896.111	966.8246	1019.4162	1036.0201	1079.5575	1096.3294	1122.4996	1125.9988	1159.8943	1179.8806	1188.1309	1190.9732	1206.2012	1237.7065	1278.1845	1303.0861	1314.1286	1378.6525	1404.5892	1449.8331	1487.8583	1495.7289	1497.6166	1514.4069	2977.4927	3024.015	3031.7942	3080.4131	3082.4626	3095.0298	3098.3778	3106.1989	3117.3794	3175.579	3818.7634
CCN1C2CC1C2O	CCN1[C@H]2C[C@@H]1[C@H]2O	
InChI=1S/C6H11NO/c1-2-7-4-3-5(7)6(4)8/h4-6,8H,2-3H2,1H3	InChI=1S/C6H11NO/c1-2-7-4-3-5(7)6(4)8/h4-6,8H,2-3H2,1H3/t4-,5+,6-
