20
gdb 61275	4.33783	0.70378	0.67927	3.7575	81.69	-0.2485	0.0282	0.2767	1685.7034	0.167714	-403.159824	-403.148837	-403.147893	-403.197109	38.885	
C	-0.1758660365	 1.6566823163	-0.1252685944	-0.400903
C	-0.0061343872	 0.1400683075	 0.0138916069	 0.052366
C	-1.370771894	-0.5815207713	 0.1323038857	-0.374327
C	-2.1479353294	-0.1778357856	 1.298057799	 0.300477
C	-2.774076098	 0.1586880322	 2.2676461167	-0.438068
C	 0.791527914	-0.4507118233	-1.1568041807	-0.325456
C	 2.2609218892	-0.0255686185	-1.1454608312	 0.408243
N	 2.8734097544	-0.0501309268	-2.3653761934	-0.522432
O	 2.8512601403	 0.290245672	-0.1303650134	-0.358861
H	 0.7978863337	 2.1522076584	-0.1445450894	 0.134462
H	-0.7117385746	 1.9098433864	-1.0490433059	 0.101093
H	-0.7480323105	 2.0600811245	 0.7141250126	 0.13123
H	 0.5666030648	-0.0588104222	 0.9252411639	 0.114076
H	-1.9604500129	-0.3978586803	-0.7772190891	 0.122235
H	-1.2053360536	-1.666342165	 0.1724125678	 0.12404
H	-3.3321036178	 0.4514416567	 3.1220573833	 0.193055
H	 0.7818093818	-1.5482124729	-1.1010513729	 0.122551
H	 0.3266834974	-0.1858286258	-2.1155650346	 0.098293
H	 2.4020103531	-0.350909583	-3.1997311635	 0.257309
H	 3.8609756058	 0.1415147407	-2.4071442372	 0.260617
30.8483	56.6057	96.191	117.5795	123.251	200.1676	248.7299	283.6978	342.0971	349.6239	386.9098	433.4962	511.9769	550.0054	614.1268	621.6087	636.319	668.7381	839.4354	848.6828	893.3096	910.8937	955.5738	987.8577	1069.1302	1111.7085	1117.726	1139.819	1208.7654	1263.745	1269.9415	1311.2455	1356.7459	1376.5772	1403.9823	1413.0116	1456.5467	1471.5979	1497.1168	1509.1758	1616.579	1795.1769	2236.8329	3004.3526	3011.3797	3026.6688	3037.2023	3047.2114	3073.4657	3104.3176	3128.9788	3506.7895	3603.1768	3741.1776
CC(CC#C)CC(N)=O	C[C@@H](CC#C)CC(=O)N	
InChI=1S/C7H11NO/c1-3-4-6(2)5-7(8)9/h1,6H,4-5H2,2H3,(H2,8,9)	InChI=1S/C7H11NO/c1-3-4-6(2)5-7(8)9/h1,6H,4-5H2,2H3,(H2,8,9)/t6-/m0/s1
