18
gdb 99044	3.02604	0.91162	0.7871	6.1108	75.76	-0.2632	0.0076	0.2708	1492.633	0.147181	-435.287464	-435.277515	-435.276571	-435.323611	35.019	
C	-0.8812996641	 1.7089842017	 0.2960477938	-0.386707
C	 0.2342779891	 0.6657425477	 0.1430403584	-0.100035
N	 0.9059412102	 0.47543886	 1.4334499081	-0.312236
C	 2.0898903932	 0.0212248805	 1.4138088223	 0.419211
O	 2.7715374995	-0.3193980182	 0.3090216832	-0.391195
C	 2.8789870495	-0.1485872551	 2.7063251465	-0.265438
N	 3.9737065429	-1.1022224822	 2.4844676463	-0.530048
H	 4.7617876302	-0.9116972416	 3.090681528	 0.2521
H	 3.6731523974	-2.0542707834	 2.6653189323	 0.255209
H	 3.6105567664	-0.7077792071	 0.643446414	 0.307342
C	-0.3202989461	-0.6163770863	-0.3306202085	 0.291105
N	-0.7633956635	-1.6199985092	-0.6946209662	-0.339467
H	-0.440755053	 2.6560636649	 0.6173983104	 0.123317
H	-1.4067712507	 1.8621257396	-0.6501818082	 0.125958
H	-1.5974043656	 1.3854389753	 1.0546944511	 0.139875
H	 0.9411306433	 1.0009893005	-0.6288035045	 0.128011
H	 3.3174394638	 0.8225408404	 2.9607125678	 0.142908
H	 2.1854049476	-0.4127696673	 3.5104127854	 0.14009
26.9803	74.1325	104.9096	161.8142	200.4303	226.4297	301.4185	305.5432	331.1688	352.7006	437.5956	559.087	565.3063	654.901	699.8465	817.4959	820.4237	859.2971	888.3729	938.8847	968.1069	1050.0254	1076.4311	1117.1115	1133.558	1163.8941	1251.4311	1312.6893	1333.3151	1336.4745	1383.1654	1405.9988	1418.8822	1481.8422	1485.5325	1494.8572	1660.388	1781.5655	2352.5117	3010.9098	3048.8358	3051.7026	3092.7058	3130.5725	3138.467	3468.1902	3522.4163	3606.85
CC([N-]C(=O)C[NH3+])C#N	C[C@@H](N=C(O)CN)C#N	
InChI=1S/C5H9N3O/c1-4(2-6)8-5(9)3-7/h4H,3,7H2,1H3,(H,8,9)	InChI=1S/C5H9N3O/c1-4(2-6)8-5(9)3-7/h4H,3,7H2,1H3,(H,8,9)/t4-/m1/s1
