18
gdb 100173	2.13019	1.31579	1.21233	4.6806	68.85	-0.243	-0.0401	0.203	1162.4135	0.143668	-476.26412	-476.25354	-476.252595	-476.300019	37.432	
C	-0.2471827507	 1.5931615619	 0.0042405321	-0.406509
C	-0.0575549456	 0.074496399	-0.0235145547	-0.216018
C	 0.7116048026	-0.435488456	-1.2483983931	 0.151295
O	 0.1490214244	-0.0200696679	-2.4963932181	-0.471148
C	 2.1471992571	 0.105788479	-1.282968148	 0.160866
O	 2.8257758924	 0.2854514973	-0.309856225	-0.23756
C	 0.8371753956	-1.9889293549	-1.1786665934	 0.352151
N	 0.8094548272	-2.5841465302	-2.3985695408	-0.525147
O	 0.9763107698	-2.57608988	-0.1267947725	-0.352288
H	 0.7134358983	 2.1105373367	 0.0764055851	 0.138781
H	-0.7565032569	 1.9543393176	-0.8946827802	 0.110774
H	-0.8479463618	 1.8830103777	 0.8707092763	 0.1206
H	 0.4929306588	-0.2695032425	 0.8543442889	 0.156421
H	-1.0300590628	-0.4344805666	 0.0060788715	 0.09602
H	-0.8080965529	-0.1081303912	-2.4322753274	 0.292118
H	 2.5091652549	 0.3091566899	-2.3145217123	 0.094118
H	 0.6306651063	-2.0340581816	-3.2211243624	 0.269106
H	 0.8761082734	-3.5867620583	-2.4524392759	 0.266422
45.0706	84.9944	103.9604	168.6963	202.9787	214.2598	226.7596	273.0854	319.677	353.6464	378.6225	404.9876	460.7082	573.8973	594.151	642.7945	712.9585	756.4534	796.7589	887.8298	973.5503	989.413	1046.3544	1085.9556	1120.4357	1127.2361	1180.4475	1273.5952	1326.9898	1356.2925	1364.5079	1406.8384	1414.0552	1473.1202	1497.7247	1509.2911	1584.7585	1797.8808	1848.5744	2899.2176	3026.7372	3044.7233	3106.074	3120.3246	3128.6035	3600.5939	3741.5305	3815.6932
CCC(O)(C=O)C(N)=O	CC[C@@](O)(C=O)C(=O)N	
InChI=1S/C5H9NO3/c1-2-5(9,3-7)4(6)8/h3,9H,2H2,1H3,(H2,6,8)	InChI=1S/C5H9NO3/c1-2-5(9,3-7)4(6)8/h3,9H,2H2,1H3,(H2,6,8)/t5-/m1/s1
