21
gdb 91020	2.58401	1.65559	1.19537	1.9654	81.53	-0.2425	0.0814	0.3239	1105.2923	0.182223	-387.049708	-387.041281	-387.040337	-387.082403	33.312	
C	-0.9695900631	 1.1746175361	 0.5283692677	-0.41506
C	-0.4304367648	-0.2471102434	 0.6239384631	 0.045783
C	 0.3837180001	-0.8212604219	-0.5736004153	-0.26869
C	 1.4764472834	-1.3344657149	 0.4016703725	-0.044777
C	 2.6240423824	-0.3529885446	 0.5956092654	-0.052196
O	 3.0713322286	-0.497195781	 1.9457986908	-0.292204
C	 1.9258151242	 0.3441355056	 1.6999344455	 0.422068
C	 2.0128909499	 1.7375298455	 2.2383859651	-0.506536
C	 0.7276711198	-0.615606082	 1.6048564511	-0.134249
H	-0.2001043012	 1.8811975393	 0.2018753196	 0.117855
H	-1.7859311113	 1.2259368435	-0.2009591825	 0.113841
H	-1.36367302	 1.5232348708	 1.4896813198	 0.114795
H	-1.2659280185	-0.9209960442	 0.8422672906	 0.077238
H	-0.1291321579	-1.6014434164	-1.1399895661	 0.102201
H	 0.7416117052	-0.0689995028	-1.2843922018	 0.093696
H	 1.7176252263	-2.3977016598	 0.3944115121	 0.075705
H	 3.3408694028	 0.0157726821	-0.1318118727	 0.094665
H	 1.2532385887	 2.3914043021	 1.8037971441	 0.126087
H	 1.867989689	 1.7337382114	 3.325078678	 0.12899
H	 3.0010416993	 2.1579410602	 2.0330048657	 0.131753
H	 0.4486577069	-1.1153644354	 2.5348363774	 0.069035
82.7898	174.1941	190.0523	258.8921	267.774	316.3935	335.3861	383.124	491.3874	538.6982	597.7313	664.1159	765.3057	802.4595	823.1497	858.3122	884.623	917.8485	944.19	954.1978	978.2286	1015.8923	1044.2084	1058.0162	1101.6789	1116.3906	1127.9903	1130.8816	1190.2858	1200.1258	1218.9552	1248.4265	1256.1097	1279.9077	1307.9502	1328.5053	1368.5597	1402.2338	1410.7702	1449.0843	1481.4127	1487.406	1491.6861	1497.3297	1505.8278	3026.1321	3036.9494	3038.3263	3047.4629	3086.3845	3088.5639	3098.7296	3101.216	3104.0912	3114.1578	3131.6513	3164.3375
CC1CC2C3OC3(C)C12	C[C@H]1C[C@H]2[C@@H]3O[C@]3(C)[C@@H]12	
InChI=1S/C8H12O/c1-4-3-5-6(4)8(2)7(5)9-8/h4-7H,3H2,1-2H3	InChI=1S/C8H12O/c1-4-3-5-6(4)8(2)7(5)9-8/h4-7H,3H2,1-2H3/t4-,5+,6-,7-,8+/m0/s1
