17
gdb 63283	2.10162	1.72856	1.30073	4.3231	68.68	-0.2688	-0.0126	0.2562	1048.5701	0.133259	-458.973563	-458.96477	-458.963826	-459.006791	32.449	
C	-0.249821847	 1.5717535688	 0.0904371601	-0.432596
C	 0.0037425734	 0.076166668	 0.0718068361	 0.321497
C	-1.1668418655	-0.7494907067	-0.4280873523	-0.42168
O	 1.2286230058	-0.2214629663	-0.7240243259	-0.30555
C	 1.8767740102	-0.8129774331	 0.3309493396	 0.422544
O	 2.9496766213	-1.3228596043	 0.3504177687	-0.335327
C	 0.7347949704	-0.5179264785	 1.2859140765	 0.17776
C	 0.7553232606	-0.1750732346	 2.708086223	-0.255838
O	 0.20105445	-1.4086345346	 2.2318646824	-0.250276
H	 0.629617733	 2.1137510798	 0.447983541	 0.130505
H	-0.4907982352	 1.9297682371	-0.9148779079	 0.138639
H	-1.0951850422	 1.8055313482	 0.7454083795	 0.128149
H	-1.4501285143	-0.4367763281	-1.4372189517	 0.133468
H	-0.915213112	-1.8124742779	-0.4481082449	 0.139952
H	-2.0285883904	-0.6153818994	 0.2325658995	 0.132708
H	 1.6860983104	-0.2664353914	 3.2639258602	 0.145567
H	 0.0335393714	 0.5438429029	 3.0916159362	 0.130478
92.6962	170.8294	184.5694	206.599	225.4284	243.3418	306.3189	333.6793	363.886	499.8332	574.4573	619.1884	655.0244	737.4653	821.3068	831.8994	924.0641	945.4646	964.8404	982.5496	1019.0946	1054.3686	1122.8075	1133.2313	1165.1574	1228.8342	1251.515	1288.0798	1405.0391	1417.657	1442.728	1471.7024	1481.0172	1496.2312	1501.2557	1531.4201	1940.0836	3041.1023	3047.8868	3093.4456	3112.8868	3121.4764	3123.3297	3131.0292	3189.2622
CC1(C)OC(=O)C11CO1	CC1(C)OC(=O)[C@]21CO2	
InChI=1S/C6H8O3/c1-5(2)6(3-8-6)4(7)9-5/h3H2,1-2H3	InChI=1S/C6H8O3/c1-5(2)6(3-8-6)4(7)9-5/h3H2,1-2H3/t6-/m0/s1
