16
gdb 45225	3.07235	1.97132	1.53011	5.0709	66.66	-0.2526	0.0176	0.2701	867.7402	0.127545	-437.89055	-437.884366	-437.883422	-437.921143	25.047	
O	-0.0895271351	 0.0253296528	 0.2834852896	-0.353569
C	-0.0419067067	 1.1939090298	 0.0439377572	 0.441549
O	-1.1633841883	 1.9707759588	-0.1337842896	-0.237797
C	-0.7898220726	 3.342791435	 0.0002050012	 0.087744
C	-0.4593410563	 3.8075018915	 1.4558387188	-0.268302
C	 1.0703216741	 3.7821236779	 1.1385949052	-0.049198
C	 1.7216029266	 2.3873839942	 1.2615021459	-0.19667
N	 1.123822826	 1.9903540129	-0.0698615965	-0.178472
C	 0.7119586353	 3.3947507546	-0.3307764059	-0.019943
H	-1.5013685178	 3.9439300272	-0.5632680867	 0.103686
H	-0.8198488069	 4.8215437818	 1.6441069222	 0.119275
H	-0.8173324338	 3.1536455585	 2.2553913339	 0.122191
H	 1.6572508577	 4.6546580716	 1.4208361765	 0.084614
H	 2.8126184474	 2.405407441	 1.1986976301	 0.12502
H	 1.4178214679	 1.7436040688	 2.0917058482	 0.132432
H	 1.1012764526	 3.8415759436	-1.2454562401	 0.087439
116.7003	238.313	344.428	399.1838	479.6622	630.7821	650.856	696.4342	759.1456	793.1363	810.7893	845.6413	875.9848	926.7689	941.933	972.7032	985.8768	1022.0252	1038.2405	1069.6103	1106.035	1124.1145	1161.6785	1168.2488	1212.9331	1226.7806	1240.9	1269.3451	1286.8656	1314.0446	1322.938	1361.6452	1467.8187	1512.5106	1890.6324	3056.5677	3064.2366	3107.8818	3110.846	3118.9517	3126.7876	3135.7863
O=C1OC2CC3CN1C23	O=C1O[C@H]2C[C@H]3CN1[C@@H]23	
InChI=1S/C6H7NO2/c8-6-7-2-3-1-4(9-6)5(3)7/h3-5H,1-2H2	InChI=1S/C6H7NO2/c8-6-7-2-3-1-4(9-6)5(3)7/h3-5H,1-2H2/t3-,4-,5+/m0/s1
