18
gdb 83860	2.26289	1.73773	1.31406	4.614	72.21	-0.229	-0.0128	0.2162	1020.516	0.149715	-439.084634	-439.077024	-439.07608	-439.116722	30.265	
O	 0.1553119135	 1.3568113523	 0.0287988286	-0.417076
C	 0.0133999091	-0.0158775298	-0.0244693991	 0.114731
C	-0.4582242867	-0.704764971	 1.2235835961	-0.10399
N	-0.7853669392	 0.225265346	 2.2873132782	-0.320323
C	-2.2183441961	 0.4580204714	 2.4999886862	-0.172506
C	-2.8290638374	 1.0361434377	 1.2163285776	-0.302697
C	-2.6550380124	 0.0784852501	 0.0448516158	 0.414725
O	-3.5225592762	-0.0926417637	-0.783553259	-0.331599
C	-1.3776427835	-0.6880966906	 0.0058032996	-0.190896
H	 0.0365829679	 1.573766006	 0.9731392633	 0.282933
H	 0.7395378854	-0.5008381913	-0.6696184019	 0.111672
H	-0.0341420727	-1.6600522483	 1.5206766375	 0.098193
H	-0.3236969068	-0.0447675722	 3.1454245311	 0.237044
H	-2.7573289657	-0.4620113851	 2.7813265695	 0.100363
H	-2.3297037262	 1.1683496256	 3.3253417873	 0.11071
H	-3.8953854379	 1.2435673587	 1.331708422	 0.123064
H	-2.321542865	 1.9758018097	 0.9651965102	 0.134833
H	-1.4456400001	-1.5998206358	-0.5770813631	 0.110819
90.9355	143.1984	226.8032	325.0506	374.3435	425.9743	452.753	488.021	571.3968	629.848	647.2634	690.7536	715.093	768.8724	812.372	830.9435	909.5361	924.0944	962.4631	1032.5158	1052.5438	1066.6349	1084.1182	1107.0137	1172.8783	1186.31	1224.0341	1237.4165	1258.2468	1332.0359	1339.5813	1346.5646	1363.4673	1419.7312	1440.0903	1456.3475	1481.5865	1511.2258	1796.1435	2965.1243	3041.6577	3072.4273	3115.2145	3134.7689	3156.8806	3179.8297	3571.9473	3581.2331
OC1C2NCCC(=O)C12	O[C@H]1[C@H]2NCCC(=O)[C@@H]12	
InChI=1S/C6H9NO2/c8-3-1-2-7-5-4(3)6(5)9/h4-7,9H,1-2H2	InChI=1S/C6H9NO2/c8-3-1-2-7-5-4(3)6(5)9/h4-7,9H,1-2H2/t4-,5+,6-/m1/s1
