15
gdb 42756	2.89102	1.33549	1.13441	4.7483	70.3	-0.2621	-0.0117	0.2504	1081.2453	0.112966	-416.765996	-416.758197	-416.757253	-416.799082	28.518	
O	-0.0469389139	-0.041327466	-0.0871761441	-0.311789
C	-0.0407064858	 1.140092885	 0.0474593698	 0.416781
C	-0.9675791744	 2.3773863778	 0.0705064192	-0.148421
C	-0.0069167301	 2.9864334048	 1.1267857248	-0.254337
C	 0.9276447262	 2.3585604969	 0.0553114433	 0.192091
C	 2.4300586679	 2.4610167669	-0.0623382766	-0.472665
C	 2.9221715462	 1.9027359864	-1.321794892	 0.264498
N	 3.2887372171	 1.4728655018	-2.3292017483	-0.3005
N	-0.0215303752	 2.9690127811	-0.9745997171	-0.330406
H	-2.0468431712	 2.4773960316	-0.0087705848	 0.114677
H	 0.0017214572	 4.077742687	 1.115922718	 0.124992
H	-0.0026154334	 2.5557473391	 2.1286509207	 0.12031
H	 2.7387689348	 3.5105150116	 0.0017459968	 0.17005
H	 2.8987265411	 1.9302619208	 0.7739418542	 0.170021
H	-0.0284329664	 2.4185348651	-1.8390887639	 0.244699
54.1645	99.3235	195.6807	207.2771	315.2763	380.5596	444.9986	504.7003	533.9186	668.2647	703.6216	800.9961	802.9057	844.6573	880.3203	937.1988	964.9485	975.0502	1000.9599	1040.0945	1102.604	1138.6009	1178.0223	1204.2601	1241.2227	1249.8126	1286.0121	1305.6017	1362.3997	1449.9995	1483.6543	1913.6859	2368.122	3046.385	3080.2021	3087.9871	3161.8539	3164.9934	3405.8156
O=C1C2CC1(CC#N)N2	O=C1[C@H]2C[C@]1(CC#N)N2	
InChI=1S/C6H6N2O/c7-2-1-6-3-4(8-6)5(6)9/h4,8H,1,3H2	InChI=1S/C6H6N2O/c7-2-1-6-3-4(8-6)5(6)9/h4,8H,1,3H2/t4-,6+/m1/s1
