25
gdb 118980	2.61475	1.00316	0.92022	0.0845	94.4	-0.2345	0.0278	0.2623	1485.8905	0.228916	-352.380714	-352.370619	-352.369674	-352.415786	38.472	
C	-0.1730143222	 1.560574137	 0.3293835717	-0.376768
C	-0.0806011776	 0.0516690305	 0.0807456752	-0.181605
C	 0.7344098221	-0.6697187795	 1.1615974618	-0.191236
C	 0.8803733444	-2.2089889739	 1.0107635999	 0.267791
C	 1.7024336596	-2.5599349264	-0.2405230578	-0.43976
C	 1.5227501052	-2.8066154101	 2.3038207197	-0.252836
C	 0.3522579651	-3.3284149812	 3.1744668581	-0.25701
C	-0.7668369231	-3.4774380407	 2.1716113669	-0.080684
C	-0.4812952578	-2.8872432561	 1.0133691651	-0.082896
H	 0.8211751051	 2.0213652827	 0.3428949022	 0.112134
H	-0.7602281111	 2.0592453249	-0.4482715926	 0.108761
H	-0.6474123129	 1.7746468745	 1.2937220773	 0.113027
H	-1.0920952383	-0.3707481681	 0.0405501022	 0.097102
H	 0.3644669937	-0.1224515176	-0.9063595819	 0.095993
H	 1.7426627735	-0.2326730884	 1.1995465301	 0.085428
H	 0.2755087049	-0.4636120904	 2.1378596828	 0.089662
H	 2.7022027204	-2.1127882594	-0.1906426554	 0.108549
H	 1.8221225411	-3.644098139	-0.3330209126	 0.111234
H	 1.2247491143	-2.2022862987	-1.158176802	 0.112002
H	 2.1685327467	-3.6471059565	 2.0284395561	 0.094218
H	 2.1497313419	-2.0777248856	 2.8257710264	 0.089638
H	 0.5975767647	-4.2682019996	 3.6823668419	 0.099968
H	 0.0743077565	-2.619887001	 3.9673954867	 0.103904
H	-1.6971898813	-3.9858713155	 2.4023717966	 0.087689
H	-1.1427521151	-2.8511325921	 0.1538726017	 0.085696
72.4264	75.701	126.3969	171.073	221.6271	244.8873	253.2994	318.3419	331.12	379.8578	402.3578	522.5996	616.1613	715.2155	744.4811	766.9298	796.4117	847.8819	868.2606	892.2454	920.8581	945.2076	958.259	977.9414	993.3635	1024.0027	1046.9817	1051.1397	1102.2094	1123.6016	1130.022	1200.9712	1204.0022	1219.7192	1256.685	1284.566	1313.6239	1319.8158	1326.2911	1341.5455	1385.5719	1392.2046	1408.5491	1415.0799	1475.7608	1484.9925	1492.3376	1493.4634	1498.1018	1500.8446	1503.3541	1511.2426	1686.6831	2998.7654	3008.829	3023.6923	3026.9576	3028.5273	3034.2104	3040.4393	3054.5584	3061.551	3088.9068	3092.1754	3095.6486	3099.4956	3102.169	3172.143	3198.3707
CCCC1(C)CCC=C1	CCC[C@@]1(C)CCC=C1	
InChI=1S/C9H16/c1-3-6-9(2)7-4-5-8-9/h4,7H,3,5-6,8H2,1-2H3	InChI=1S/C9H16/c1-3-6-9(2)7-4-5-8-9/h4,7H,3,5-6,8H2,1-2H3/t9-/m1/s1
