19
gdb 28567	3.61917	1.12346	0.92494	0.0223	85.57	-0.1943	0.0249	0.2192	1310.442	0.159681	-385.920469	-385.912005	-385.91106	-385.954032	31.872	
C	 0.1778282904	 1.4083152741	 0.1749765064	-0.492536
C	-0.0425731627	-0.0522805807	 0.0145188881	 0.346521
C	-1.1268646237	-0.8147169366	-0.2833424018	-0.255071
C	-0.6834320794	-2.1795957734	-0.2895657933	-0.290745
C	 0.644603445	-2.1552760437	 0.0057828808	 0.376353
O	 1.0480622921	-0.8621755508	 0.1937505404	-0.2252
C	 1.6587336925	-3.2049765538	 0.1496843949	-0.104453
C	 3.0930472726	-2.9732190036	-0.2872518628	-0.264974
C	 2.7700122409	-3.0847709687	 1.1755819358	-0.264976
H	 0.918604982	 1.7875742281	-0.5388446275	 0.134203
H	-0.7599292578	 1.9432197548	 0.0084588817	 0.133762
H	 0.5382839622	 1.6560196188	 1.1803849061	 0.134208
H	-2.1242823554	-0.45054627	-0.4760540462	 0.102206
H	-1.2747840345	-3.0599880476	-0.4875146382	 0.101745
H	 1.2580144533	-4.1992752385	-0.0146328926	 0.091852
H	 3.6114642124	-3.7936223655	-0.7709020395	 0.112994
H	 3.333185624	-1.9904314703	-0.6759130081	 0.125557
H	 2.7937830545	-2.1766954889	 1.766707784	 0.125561
H	 3.0641378516	-3.9826222436	 1.7076424118	 0.112993
64.0393	126.8618	144.6489	144.8214	240.7018	320.3277	404.3644	436.2056	596.6428	630.7059	687.9155	696.8392	787.2215	792.2204	814.0409	819.7763	901.38	907.0277	963.3343	981.1892	1011.3899	1043.557	1062.8387	1064.4526	1080.6077	1082.0942	1124.994	1202.7	1203.7048	1222.2874	1243.808	1271.0952	1370.6724	1399.4533	1415.4328	1462.7269	1471.7278	1492.3923	1496.9245	1611.8234	1658.9409	3025.3074	3073.0137	3126.8814	3137.1043	3140.5378	3170.9639	3221.0976	3236.4826	3246.451	3260.1187
CC1=CC=C(O1)C1CC1	Cc1ccc(o1)C1CC1	
InChI=1S/C8H10O/c1-6-2-5-8(9-6)7-3-4-7/h2,5,7H,3-4H2,1H3	InChI=1S/C8H10O/c1-6-2-5-8(9-6)7-3-4-7/h2,5,7H,3-4H2,1H3
