18
gdb 116718	3.73106	0.87385	0.74013	0.622	77.79	-0.2243	-0.0233	0.201	1534.9394	0.145219	-439.08185	-439.072216	-439.071272	-439.118064	33.049	
C	 0.4941044327	 1.1170136694	-0.3116665949	-0.251417
O	-0.127187903	 0.3166161322	 0.6887847224	-0.189991
C	 0.6018762139	-0.7257773429	 1.1279592711	 0.12071
N	 0.125409194	-1.4860696499	 2.0171307741	-0.25786
C	 0.9108107601	-2.6009452755	 2.4645287522	-0.051832
C	 0.1927431807	-3.9788451574	 2.6537029359	-0.237475
C	 1.4361679018	-4.7160850953	 2.0782568478	-0.336976
C	 1.9134543286	-3.3532351941	 1.5518041467	 0.37427
O	 2.6346627118	-3.0121065181	 0.6558357586	-0.308891
H	 0.7323432271	 0.5284690447	-1.2054649786	 0.132853
H	-0.2262271914	 1.8923648841	-0.5746754603	 0.145442
H	 1.4094461431	 1.5894178559	 0.0643289976	 0.129432
H	 1.5814382614	-0.8419561516	 0.6519595429	 0.120728
H	 1.4261742092	-2.3435421588	 3.4019163786	 0.111474
H	-0.1062612455	-4.2293140227	 3.671274468	 0.111747
H	-0.6715061607	-4.0518770491	 1.991117261	 0.124451
H	 2.1073430598	-5.1071951588	 2.8495657058	 0.131747
H	 1.2801582565	-5.4901410921	 1.324088261	 0.131587
34.8762	59.9679	105.2051	114.3988	153.41	198.5658	260.2872	376.4061	393.2259	426.073	540.5656	598.6741	688.2463	769.3428	774.4282	916.3428	935.3764	1002.5263	1010.0603	1045.5636	1069.4241	1085.9209	1119.3175	1176.7287	1185.756	1190.1814	1219.7329	1231.8738	1253.6257	1280.2773	1332.5998	1419.2443	1443.5526	1485.9292	1492.4316	1494.5425	1500.2934	1752.0176	1868.7438	2996.419	3017.1632	3061.5177	3076.7594	3082.3689	3087.6192	3120.7738	3146.0619	3149.4178
COC=NC1CCC1=O	COC=N[C@H]1CCC1=O	
InChI=1S/C6H9NO2/c1-9-4-7-5-2-3-6(5)8/h4-5H,2-3H2,1H3	InChI=1S/C6H9NO2/c1-9-4-7-5-2-3-6(5)8/h4-5H,2-3H2,1H3/t5-/m0/s1
