20
gdb 94599	2.9433	1.14216	0.9318	5.6668	76.04	-0.2484	0.022	0.2703	1293.7115	0.17143	-440.302598	-440.293639	-440.292694	-440.336871	33.049	
C	 0.4557323778	 1.6178580515	 0.0993926402	-0.341782
N	 0.1925853725	 0.1897509203	-0.0446251165	-0.118457
H	-1.0802551067	 0.3028533555	-1.3711324105	 0.299889
C	 0.5093107475	-0.6474462071	 1.1445343039	-0.161962
C	 1.3163381482	-1.6230199457	 0.2580771522	-0.266802
C	 1.1459593721	-0.5974896086	-0.8949912234	 0.060491
C	 0.556508076	-1.1293216641	-2.2096729959	-0.351683
C	-0.246590881	-0.1170112948	-3.0285556271	 0.395728
O	-1.2075390287	 0.5150688275	-2.3275761632	-0.374086
O	-0.0846081936	 0.0786204258	-4.2024922922	-0.324362
H	 1.4885036857	 1.8229124706	 0.4283400285	 0.106781
H	 0.2820896872	 2.1272033632	-0.8519818121	 0.149501
H	-0.2309737118	 2.0393904211	 0.8400879026	 0.131279
H	 1.1289507596	-0.1136846391	 1.8763042816	 0.103549
H	-0.3726486679	-1.0430501855	 1.6564089526	 0.116488
H	 2.3397357513	-1.8217650719	 0.5766305016	 0.118274
H	 0.8153040789	-2.5739941599	 0.0669205895	 0.11527
H	 2.0626631343	-0.0280179551	-1.0974492666	 0.085207
H	 1.3469782168	-1.5281496683	-2.8481901405	 0.132971
H	-0.1309725682	-1.9527161455	-1.9762363647	 0.123706
64.0984	85.7775	126.8497	190.741	235.8444	280.5885	322.4588	373.0895	411.8169	492.6091	600.1639	666.5209	735.313	764.8065	817.7968	887.4481	910.7546	918.2023	960.615	970.8956	991.9426	1076.74	1086.9227	1134.3392	1160.449	1186.808	1210.7804	1222.4152	1242.7107	1261.2086	1281.2484	1289.3012	1312.1759	1349.3786	1374.1414	1447.8327	1466.5047	1469.8671	1491.5405	1496.512	1499.5769	1522.1653	1866.9047	2964.8956	3012.7539	3021.5544	3032.2461	3076.9177	3078.2044	3084.6099	3121.0095	3122.3586	3138.9689	3337.8449
C[NH+]1CCC1CC([O-])=O	CN1CC[C@H]1CC(=O)O	
InChI=1S/C6H11NO2/c1-7-3-2-5(7)4-6(8)9/h5H,2-4H2,1H3,(H,8,9)	InChI=1S/C6H11NO2/c1-7-3-2-5(7)4-6(8)9/h5H,2-4H2,1H3,(H,8,9)/t5-/m0/s1
