18
gdb 49644	3.86231	1.38507	1.36626	2.0204	75.05	-0.2349	-0.0301	0.2048	995.6189	0.149393	-401.890783	-401.883898	-401.882954	-401.922426	27.436	
O	-0.9834996001	 1.3206764254	-0.1410406085	-0.244169
C	 0.1466565758	 0.9502966345	-0.3355062105	 0.116263
C	 1.3703674262	 1.7881354295	-0.0663720616	-0.042639
C	 1.4318494778	 2.8844535089	 0.9861167177	-0.060448
C	 1.4840278693	 2.1814672908	 2.4171784634	-0.05568
C	 2.9225251282	 2.7431820733	 2.579845137	-0.239382
C	 2.9550765997	 2.5807918893	 1.0618765574	 0.017058
N	 2.5305319658	 1.1240258519	 0.6612790875	-0.179702
C	 1.8316740485	 0.7599894141	 1.9410782172	-0.170212
H	 0.3665124207	-0.0561240106	-0.7621074806	 0.089069
H	 1.7424703784	 2.1460350461	-1.0372961508	 0.103788
H	 0.9917033728	 3.8767248621	 0.9042451601	 0.080526
H	 0.7099181136	 2.3263710009	 3.1679087629	 0.079049
H	 2.9344435135	 3.8067849894	 2.8341020859	 0.107333
H	 3.6293090903	 2.1976136256	 3.2118216929	 0.101341
H	 3.7144774515	 2.9873800116	 0.3965256935	 0.08239
H	 2.5128256696	 0.2352526466	 2.6153601807	 0.104885
H	 0.9750586284	 0.1096525406	 1.7462010859	 0.11053
71.5898	146.2512	228.5209	364.8252	457.4054	514.3693	620.2685	676.3847	716.1619	754.5367	819.0599	836.2672	841.796	904.3693	912.2958	932.6938	956.1115	965.1634	1000.9357	1015.608	1036.771	1057.1202	1097.9273	1103.4796	1128.7863	1165.7969	1194.2219	1202.7557	1223.5811	1239.5814	1253.77	1274.5136	1296.1831	1324.4705	1378.0072	1406.731	1489.3695	1526.3517	1825.6505	2865.0461	3011.7683	3051.0791	3063.008	3105.4581	3111.8257	3128.5274	3136.4042	3143.1127
O=CC1C2C3CC2N1C3	O=C[C@H]1[C@H]2[C@@H]3C[C@H]2N1C3	
InChI=1S/C7H9NO/c9-3-6-7-4-1-5(7)8(6)2-4/h3-7H,1-2H2	InChI=1S/C7H9NO/c9-3-6-7-4-1-5(7)8(6)2-4/h3-7H,1-2H2/t4-,5-,6+,7+/m1/s1
