17
gdb 28215	4.72899	1.23801	1.00169	4.5131	76.64	-0.1811	0.0284	0.2095	1171.3505	0.138359	-418.041822	-418.033898	-418.032954	-418.074735	29.131	
C	 0.0929709209	 1.4580380141	 0.0060066541	-0.497853
C	-0.0102764047	-0.0295841947	-0.0215009602	 0.320215
N	-0.1590471067	-0.7676185363	-1.1184674168	-0.389501
C	-0.1234919091	-2.0370363218	-0.6476338595	 0.385252
C	 0.052114204	-2.1211202734	 0.6948302351	 0.175454
C	-0.1301086885	-3.5259166921	 1.1615919249	-0.36799
C	-0.0848932795	-4.2196151298	-0.2523849067	-0.082242
O	-0.3270059882	-3.2231041465	-1.2827854835	-0.280713
N	 0.0924528517	-0.8025327358	 1.1109201227	-0.401879
H	 1.1329840256	 1.7977571098	 0.0903312807	 0.135502
H	-0.3134659402	 1.8558290866	-0.9250762681	 0.159091
H	-0.4659948011	 1.8891041394	 0.8436887165	 0.123128
H	 0.6584720602	-3.9281469552	 1.8069213449	 0.111785
H	-1.0887864687	-3.6940890411	 1.672976761	 0.113344
H	 0.9101355107	-4.644904019	-0.4250970288	 0.116139
H	-0.8335329001	-5.0052544339	-0.3688402397	 0.119669
H	 0.2645927336	-0.4555007904	 2.0391331334	 0.260601
64.3718	123.228	144.3233	238.6039	277.4458	311.7096	478.9493	502.1854	544.693	666.122	702.284	729.0599	742.9998	831.8071	855.4148	919.8276	984.4862	1001.3346	1026.5846	1055.9608	1076.0682	1153.0179	1192.1749	1219.8514	1242.7817	1283.3048	1353.5153	1392.02	1408.7237	1426.479	1474.27	1482.3358	1496.8781	1498.3148	1515.7067	1556.1542	1650.193	2993.6098	3023.5069	3035.3667	3053.752	3076.9993	3116.1876	3142.9598	3667.2037
CC1=NC2=C(CCO2)N1	Cc1nc2c(CCO2)[nH]1	
InChI=1S/C6H8N2O/c1-4-7-5-2-3-9-6(5)8-4/h2-3H2,1H3,(H,7,8)	InChI=1S/C6H8N2O/c1-4-7-5-2-3-9-6(5)8-4/h2-3H2,1H3,(H,7,8)
