19
gdb 96434	2.26214	1.54959	1.09714	2.8739	71.68	-0.2446	-0.0257	0.2188	1140.4784	0.158818	-460.174222	-460.165428	-460.164484	-460.2088	32.087	
C	-0.0636494866	 1.5274430466	-0.0812176854	-0.41098
C	 0.0399328776	 0.0133588615	-0.0026122199	 0.108139
O	 0.6987074423	-0.4457393856	-1.1815914564	-0.248367
C	 0.7738780561	-1.8450597638	-1.2226854651	 0.018068
O	 1.5120370673	-2.3770271503	-0.1532656185	-0.2342
C	 0.9195486623	-2.0481675924	 1.0938215841	-0.12412
C	 0.7847357229	-0.5198161909	 1.2502374922	-0.105122
C	 2.1500015982	 0.1232064381	 1.4114788768	 0.165693
O	 2.4131576563	 0.9349373942	 2.2634998954	-0.260918
H	 0.9259372994	 1.9888810819	-0.1338077197	 0.14031
H	-0.6256710644	 1.8154654869	-0.9732442324	 0.127933
H	-0.57679573	 1.9195205852	 0.8014279606	 0.12729
H	-0.9757870348	-0.4210049975	 0.0228909395	 0.072395
H	-0.2465512061	-2.2753440521	-1.2211545213	 0.078938
H	 1.2994037107	-2.1145950396	-2.1403864651	 0.123946
H	-0.0783758938	-2.5103351034	 1.1769301992	 0.099982
H	 1.558843965	-2.4825879458	 1.86723452	 0.124392
H	 0.1996814303	-0.2796068113	 2.1441557549	 0.095945
H	 2.9129895176	-0.2130562419	 0.6792092512	 0.100675
23.3682	105.9557	185.813	213.2465	220.9342	309.5658	316.6141	391.6343	426.5448	454.5216	540.2633	617.4966	728.0794	824.0829	889.696	893.131	953.5115	984.9936	1002.1487	1050.5125	1080.307	1088.7528	1122.4803	1154.4913	1183.1607	1211.7704	1260.372	1277.3266	1287.581	1331.4024	1367.9241	1382.756	1396.7079	1418.6907	1429.914	1445.6408	1479.914	1496.357	1501.0388	1510.1534	1822.6787	2916.4427	2922.6514	2938.5797	2969.933	3050.4714	3067.2306	3090.053	3119.9119	3127.2055	3129.0214
CC1OCOCC1C=O	C[C@H]1OCOC[C@H]1C=O	
InChI=1S/C6H10O3/c1-5-6(2-7)3-8-4-9-5/h2,5-6H,3-4H2,1H3	InChI=1S/C6H10O3/c1-5-6(2-7)3-8-4-9-5/h2,5-6H,3-4H2,1H3/t5-,6-/m1/s1
