19
gdb 91145	2.90886	1.47498	1.21629	1.4886	75.62	-0.2177	0.0572	0.2749	1088.1566	0.161361	-419.228387	-419.220285	-419.219341	-419.261226	31.624	
C	 0.3533904144	 1.5902616709	 0.0438454753	-0.402061
C	 0.0988914563	 0.0893049874	 0.0540741734	 0.006374
C	 0.8855827721	-0.7960407051	-0.9698222355	-0.249318
C	 1.4256698164	-1.6742313801	 0.1996133931	-0.004808
N	 2.8477973933	-1.5215122493	 0.4894562546	-0.345957
C	 2.9208698373	-0.6459343946	 1.4151336517	 0.461048
N	 4.0603718396	-0.1051776317	 1.9453873285	-0.575681
O	 1.7742242713	-0.1186131638	 1.9422300413	-0.260262
C	 0.6957923768	-0.7460665878	 1.2217798306	 0.061701
H	 1.4182145623	 1.8125487031	 0.15710089	 0.128103
H	 0.0149202534	 2.027697992	-0.9014114429	 0.113703
H	-0.1794268033	 2.0927807751	 0.8581339108	 0.114648
H	-0.977921384	-0.1007053031	-0.0097810937	 0.072663
H	 0.2642048217	-1.3159692858	-1.7032603116	 0.096111
H	 1.6875230033	-0.2718117	-1.4953639613	 0.105194
H	 1.1371796884	-2.7277538474	 0.1657010451	 0.07112
H	 4.8913309782	-0.6463500225	 1.76412592	 0.267681
H	 3.9738846403	 0.2371529624	 2.88994809	 0.261887
H	-0.0050891278	-1.1519080097	 1.9542463208	 0.077854
51.9219	149.633	212.1334	244.3225	339.819	354.906	408.2317	447.6056	534.398	556.0757	624.9329	703.2654	738.1284	767.5502	814.1679	848.6943	898.3572	918.4796	939.9527	942.7545	993.8168	1029.0038	1101.4929	1107.6399	1122.5248	1170.3012	1190.3747	1224.2973	1245.9101	1276.6669	1292.301	1309.5811	1337.3626	1354.9433	1409.2951	1423.9603	1480.4725	1492.6971	1496.853	1616.0175	1746.6123	3033.5032	3042.2951	3059.6279	3068.9517	3087.6924	3097.8127	3112.754	3119.0225	3588.1405	3701.892
CC1CC2N=C(N)OC12	C[C@H]1C[C@H]2N=C(N)O[C@@H]12	
InChI=1S/C6H10N2O/c1-3-2-4-5(3)9-6(7)8-4/h3-5H,2H2,1H3,(H2,7,8)	InChI=1S/C6H10N2O/c1-3-2-4-5(3)9-6(7)8-4/h3-5H,2H2,1H3,(H2,7,8)/t3-,4+,5-/m0/s1
