18
gdb 44413	3.53955	1.45927	1.43842	2.8083	77.94	-0.264	0.0203	0.2843	981.2146	0.149933	-401.852677	-401.845908	-401.844964	-401.883562	28.238	
N	 0.0580802552	 1.2269726124	-0.3842352526	-0.556362
C	 0.054007553	 0.0263298764	-0.0398740344	 0.315704
O	 1.151452586	-0.8386109884	 0.2668808256	-0.306996
C	 0.1656099238	-1.663873976	 1.0355284884	 0.12903
C	-0.6680403841	-2.9978305113	 1.0175863476	-0.097154
C	-1.8905073736	-1.9401436006	 1.138159127	-0.329882
C	-0.9361592699	-1.1090298696	 0.2018701834	 0.183564
C	-0.9418309586	-2.0130997684	-1.0771984647	-0.223344
C	-0.7481648531	-3.419430639	-0.4451042665	-0.212485
H	 1.0099647541	 1.5926549208	-0.4482873352	 0.235271
H	 0.1974451111	-1.2757978607	 2.0563815385	 0.100216
H	-0.5196807431	-3.7633770174	 1.7801315613	 0.078481
H	-2.8489495982	-2.2720540042	 0.7312506331	 0.113896
H	-2.0130153433	-1.5350882239	 2.1420755031	 0.123683
H	-1.8930526093	-1.9006567227	-1.6040099814	 0.107998
H	-0.1403699406	-1.7533068914	-1.7693584585	 0.122037
H	 0.1671616654	-3.9102419674	-0.7848894983	 0.112666
H	-1.5846732549	-4.0980493286	-0.6326619562	 0.103677
142.2622	208.8	313.2717	339.1855	454.5471	461.4779	590.7216	635.5229	678.9098	713.8637	767.6543	777.8695	802.9554	851.9044	870.8607	884.9349	929.8946	948.2125	960.7823	984.6024	1014.029	1029.1748	1046.9958	1116.0054	1140.4145	1150.9331	1184.5313	1206.3919	1217.9267	1230.2497	1255.8335	1284.7375	1314.2629	1332.6879	1413.1962	1485.0303	1491.0793	1514.3222	1817.1671	3060.0013	3069.0008	3071.8279	3074.5042	3101.7634	3114.7109	3130.3857	3153.2943	3474.0741
N=C1OC2C3CC12CC3	[NH][C]1O[C@@H]2[C@H]3C[C@@]12CC3	
InChI=1S/C7H9NO/c8-6-7-2-1-4(3-7)5(7)9-6/h4-5,8H,1-3H2	InChI=1S/C7H9NO/c8-6-7-2-1-4(3-7)5(7)9-6/h4-5,8H,1-3H2/t4-,5-,7-/m1/s1
