19
gdb 95336	3.21376	1.32252	1.06956	0.659	77.75	-0.2447	0.0024	0.2471	1144.9321	0.160854	-423.00752	-422.999713	-422.998768	-423.039722	30.859	
O	 0.1242815059	 1.4325392816	 0.0623419428	-0.432704
C	 0.0264096725	 0.0042856049	 0.0463798808	 0.108421
C	-1.4476334473	-0.4692503227	 0.1362224518	-0.236227
C	-2.159290785	-0.575418077	-1.2330547899	-0.259183
C	-1.3733891754	-1.6224405738	-2.0023654506	 0.110504
O	-1.3923865431	-1.6434262676	-3.4598859881	-0.310291
C	 0.0640950988	-1.640466487	-3.5097915544	-0.163672
C	 0.0858997382	-1.2761487459	-2.0466017886	 0.253467
C	 0.7431397997	-0.5186375111	-1.1822007085	-0.266535
H	-0.1820727069	 1.7511721922	-0.7940508003	 0.278035
H	 0.5441217119	-0.3016370557	 0.9629024087	 0.093445
H	-1.4755287823	-1.4542084212	 0.6205067671	 0.101771
H	-1.9714821932	 0.2253499828	 0.7979082764	 0.113035
H	-3.2121727104	-0.8428848794	-1.1036412654	 0.103331
H	-2.1195577788	 0.3770322688	-1.774521774	 0.097398
H	-1.5976534264	-2.6288452994	-1.6154384649	 0.081955
H	 0.4588625427	-2.6341875109	-3.7643540568	 0.109497
H	 0.4601632629	-0.9032074407	-4.2172831845	 0.119985
H	 1.7434481761	-0.135009448	-1.3646944716	 0.097769
94.8443	182.6419	216.9855	288.1956	326.4283	350.1259	439.732	443.9874	466.7108	539.2846	694.1053	749.3934	795.0079	838.1462	875.8112	878.0447	956.5732	967.4939	979.3137	986.3471	1037.1745	1067.3744	1086.5201	1111.6372	1115.9137	1140.9495	1167.6887	1200.7499	1257.6502	1280.5261	1301.7017	1323.5379	1332.9228	1365.1035	1370.7155	1387.0499	1420.9663	1478.1319	1494.6897	1509.4194	1785.5319	2976.1439	3001.8289	3023.6588	3040.3851	3044.5052	3061.5799	3090.6515	3098.0816	3166.0489	3798.8025
OC1CCC2OCC2=C1	O[C@H]1CC[C@H]2OC[C]2[CH]1	
InChI=1S/C7H10O2/c8-6-1-2-7-5(3-6)4-9-7/h3,6-8H,1-2,4H2	InChI=1S/C7H10O2/c8-6-1-2-7-5(3-6)4-9-7/h3,6-8H,1-2,4H2/t6-,7+/m0/s1
