16
gdb 11482	3.32612	1.43208	1.08586	2.9241	71.25	-0.257	-0.057	0.2	1078.8727	0.128484	-346.567157	-346.558754	-346.557809	-346.601267	29.957	
O	-0.5167858886	 0.091551474	 1.2327546911	-0.279446
C	-0.0000863812	 1.0175049326	 0.646047216	 0.245766
C	 1.4226877558	 1.4798210345	 0.9233143352	-0.320363
C	 2.3821767501	 0.9860670568	-0.1482239253	 0.025623
C	 2.5945107909	 1.7671520649	-1.421197741	-0.249697
C	 3.6874684046	 1.7038412933	-0.3848410902	-0.275642
C	-0.7163963412	 1.7404737931	-0.3955593528	 0.293178
C	-1.3209854028	 2.35319845	-1.2374553657	-0.459377
H	 1.4490239222	 2.5750653309	 0.9627335809	 0.111498
H	 1.7038717781	 1.0843771133	 1.9042655385	 0.125572
H	 2.4098442528	-0.0960646036	-0.2409371123	 0.099556
H	 2.7240447644	 1.2155408904	-2.3454159088	 0.11681
H	 2.05639585	 2.7015512148	-1.5361010979	 0.119178
H	 3.8868546161	 2.5966058161	 0.1989354193	 0.113949
H	 4.5677162176	 1.1064436123	-0.5943458037	 0.11711
H	-1.8654840287	 2.8819755764	-1.9817778033	 0.216286
29.7455	76.0415	141.0919	177.6115	256.3065	321.6596	360.4331	447.2527	608.8552	645.2376	682.7973	708.3251	771.852	777.7193	821.8959	842.5699	914.4184	942.0354	997.0992	1058.5296	1077.9882	1094.0398	1141.6164	1188.1977	1198.0421	1229.3088	1274.4692	1302.8261	1400.5504	1463.4097	1473.7123	1507.3666	1768.3772	2208.155	3037.1777	3095.8936	3132.4012	3140.2555	3148.8493	3211.7261	3227.7769	3494.4388
O=C(CC1CC1)C#C	O=C(CC1CC1)C#C	
InChI=1S/C7H8O/c1-2-7(8)5-6-3-4-6/h1,6H,3-5H2	InChI=1S/C7H8O/c1-2-7(8)5-6-3-4-6/h1,6H,3-5H2
