15
gdb 51123	3.94697	1.08136	0.98051	3.5333	64.94	-0.251	-0.0358	0.2153	1179.5607	0.109297	-457.665861	-457.658048	-457.657104	-457.699416	28.608	
O	-0.5277503218	 0.5111435324	 0.5356382361	-0.231604
C	 0.2024253765	 0.9140906441	-0.3307479918	 0.156969
C	 1.3467793872	 1.891493019	-0.095880879	-0.408016
C	 1.3126343809	 3.0351588484	-1.0609530707	 0.391446
O	 1.6960931797	 2.8253336297	-2.4222701125	-0.254367
C	 2.3437708468	 3.8649780695	-1.6883859114	-0.112731
C	 1.3727682424	 5.1132800678	-1.648326964	-0.008196
O	 0.1873618984	 4.7759195908	-2.3631193595	-0.205415
C	 0.3334246609	 4.2913411362	-1.0321308642	-0.065556
H	 0.091774799	 0.585158359	-1.3868843969	 0.10427
H	 1.3004109931	 2.2401664109	 0.9402183478	 0.130749
H	 2.2874755299	 1.3437134051	-0.2400858248	 0.140629
H	 3.4241769533	 3.8527336942	-1.6121737297	 0.117873
H	 1.6343520607	 6.1567245525	-1.5290563712	 0.120023
H	-0.4342389869	 4.5187512004	-0.3027140682	 0.123926
47.8266	67.8526	140.9455	281.5708	312.7198	424.8643	432.6461	500.1007	618.2802	691.7547	768.5389	777.5753	819.5175	833.6107	855.7485	876.5794	933.8158	986.5692	991.8888	1010.2498	1036.1959	1069.2592	1130.5475	1193.7377	1208.8381	1239.8514	1272.6043	1293.0572	1365.9107	1422.1493	1437.9522	1462.4525	1836.3713	2903.5705	3030.4831	3100.0372	3192.2886	3196.5634	3211.4344
O=CCC12OC1C1OC21	O=CC[C@]12O[C@H]1[C@H]1O[C@@H]21	
InChI=1S/C6H6O3/c7-2-1-6-4-3(8-4)5(6)9-6/h2-5H,1H2	InChI=1S/C6H6O3/c7-2-1-6-4-3(8-4)5(6)9-6/h2-5H,1H2/t3-,4+,5-,6+/m0/s1
