21
gdb 92144	2.47358	1.58264	1.3459	1.1359	81.61	-0.2408	0.0816	0.3224	1076.6079	0.183814	-387.075603	-387.06743	-387.066485	-387.107887	32.834	
C	 0.0091438892	 1.5301870432	-0.0428835482	-0.518853
C	-0.0035694241	 0.0334608759	 0.0190555823	 0.352498
C	 0.4680616954	-1.0342062122	-0.9600139466	-0.129566
C	 1.2411983494	-1.7607160392	 0.1388192944	-0.234562
C	 0.4857937351	-0.8832231677	 1.1887219101	-0.095843
C	-0.7696844383	-1.5994233687	 1.7008061631	-0.254558
C	-1.6185933529	-1.8477269043	 0.4212096804	 0.115773
O	-2.9900210044	-1.4937195978	 0.5759706893	-0.445727
C	-1.0061185243	-0.8987289856	-0.5996027113	-0.080018
H	 1.0125554653	 1.9359356697	 0.1325069654	 0.113843
H	-0.3239988108	 1.8836499408	-1.0245133971	 0.119321
H	-0.6613093716	 1.9666110952	 0.7073683913	 0.121428
H	 0.7886637361	-0.914743175	-1.9895088985	 0.076702
H	 1.1349949154	-2.849045283	 0.2257164618	 0.083923
H	 2.3060214688	-1.5155609519	 0.0994853458	 0.097963
H	 1.1016794668	-0.4328086141	 1.9679435836	 0.06438
H	-0.5387101411	-2.5185720962	 2.250719519	 0.086589
H	-1.3470847845	-0.9393580995	 2.3585635676	 0.099411
H	-1.5450079509	-2.8944217168	 0.0895178293	 0.062866
H	-3.3801604014	-2.100835494	 1.2124900079	 0.278495
H	-1.6534281571	-0.5336666886	-1.3893747095	 0.085937
108.9938	186.1927	198.4851	257.2926	272.8065	337.9895	370.5489	415.3525	505.9079	585.6342	609.0769	697.2844	770.3709	825.4913	847.3625	857.6718	882.7348	908.8907	953.033	996.8117	1001.7431	1023.1277	1043.6263	1055.1554	1075.515	1108.4571	1115.3071	1141.4839	1150.043	1212.1175	1224.5158	1234.9104	1244.4491	1273.872	1282.1906	1302.5301	1334.1227	1353.7836	1412.5053	1424.9963	1462.7379	1483.8274	1486.1625	1497.4335	1503.1553	2977.1662	3017.7472	3023.4537	3031.8331	3074.4738	3080.8574	3086.4363	3091.1455	3104.4773	3161.9555	3181.1999	3818.4585
CC12C3CC1CC(O)C23	C[C@@]12[C@H]3C[C@@H]1C[C@@H](O)[C@@H]23	
InChI=1S/C8H12O/c1-8-4-2-5(8)7(8)6(9)3-4/h4-7,9H,2-3H2,1H3	InChI=1S/C8H12O/c1-8-4-2-5(8)7(8)6(9)3-4/h4-7,9H,2-3H2,1H3/t4-,5+,6-,7+,8+/m1/s1
