16
gdb 17769	5.53192	1.31169	1.27004	4.6154	69.93	-0.2407	0.027	0.2676	980.3335	0.131523	-342.712395	-342.705551	-342.704607	-342.744031	26.019	
N	-1.050119	 2.2056860868	-2.5606246123	-0.307482
C	-0.6040030516	 1.8923310187	-1.5422917202	 0.28089
C	-0.0563066112	 1.5124333433	-0.2360214824	-0.301441
N	 1.2729352054	 2.1030147204	-0.0619614483	-0.106792
C	 1.8529164128	 2.1417995243	 1.3468075022	-0.011667
C	 2.8060723323	 3.2350554644	 0.7986923754	-0.206429
C	 1.3726988596	 3.577642147	 0.3159037098	-0.008363
C	 0.8719616907	 3.2776464759	 1.7579357235	-0.243048
H	-0.8114753905	 1.7663334705	 0.5242569263	 0.131102
H	 0.0584730482	 0.4221494334	-0.2142311906	 0.154807
H	 2.1077406046	 1.2254871114	 1.8818288607	 0.088512
H	 3.2521664943	 3.9092703507	 1.5303651386	 0.101805
H	 3.4991226634	 2.909867591	 0.0234008709	 0.115315
H	 1.0577816097	 4.3612606362	-0.3734852193	 0.103458
H	-0.1797855187	 3.0248255061	 1.8936141128	 0.104655
H	 1.2032061611	 3.9560046698	 2.547974103	 0.104677
52.0055	129.2682	312.9464	327.6338	385.7698	474.7444	562.8556	609.5423	741.7333	784.7739	811.8276	878.7507	904.4592	908.946	947.4463	989.1157	999.8886	1035.3023	1066.405	1068.492	1116.9302	1117.6887	1165.5565	1186.2229	1193.9399	1223.4997	1254.3073	1265.1059	1275.7748	1362.1846	1470.6172	1485.4135	1533.1262	2366.2112	2980.0077	3056.4163	3072.011	3085.3466	3105.2002	3120.8619	3136.1942	3167.5293
N#CCN1C2CC1C2	N#CCN1[C@H]2C[C@@H]1C2	
InChI=1S/C6H8N2/c7-1-2-8-5-3-6(8)4-5/h5-6H,2-4H2	InChI=1S/C6H8N2/c7-1-2-8-5-3-6(8)4-5/h5-6H,2-4H2/t5-,6+
