17
gdb 10718	2.53918	2.18851	1.35949	6.1164	64.49	-0.2502	0.0287	0.2789	923.1943	0.143464	-401.025499	-401.017714	-401.01677	-401.057573	29.475	
N	-1.8695083789	 3.4095892069	 1.3522862332	-0.522872
H	-2.687560797	 2.6985459534	-0.0412305786	 0.315146
H	-1.2299900795	 4.1954096847	 1.3031874368	 0.247455
H	-2.5133693646	 3.5840001722	 2.1183622819	 0.247075
C	-1.1427086961	 2.1427933123	 1.5648431163	-0.270263
C	-2.0789723391	 0.95526652	 1.435176415	 0.180944
C	-1.6647576445	-0.3449039541	 2.0839017678	-0.292614
C	-2.7848195179	 0.4407277124	 2.6884690129	-0.288379
C	-2.8903238646	 0.8130066086	 0.1600810879	 0.380564
O	-3.3833868658	-0.2345918778	-0.1782866547	-0.3523
O	-3.046127926	 1.9308979355	-0.5590656988	-0.386572
H	-0.3650187509	 2.0870589382	 0.793982303	 0.127989
H	-0.6344049399	 2.0965600131	 2.5386394693	 0.102564
H	-1.9229353475	-1.2411010694	 1.5340824142	 0.151203
H	-0.7096172311	-0.3617803586	 2.5976862317	 0.110232
H	-2.6046967268	 0.9738398684	 3.6169456162	 0.108222
H	-3.7924707699	 0.0640281142	 2.5605885858	 0.141608
83.3588	144.0171	251.7094	277.3335	297.9547	314.3771	383.6231	438.579	505.6275	590.2824	743.0676	761.1917	795.6791	846.4588	889.413	928.0991	960.1685	969.2619	989.0348	1029.571	1054.896	1068.7434	1097.2344	1186.4403	1203.9114	1213.1081	1285.8171	1317.5436	1368.4481	1426.5111	1452.9972	1485.0364	1500.3581	1511.199	1645.9246	1838.3443	2996.3526	3058.9655	3130.8135	3142.3677	3225.0573	3233.9794	3244.06	3500.9286	3585.7111
[NH3+]CC1(CC1)C([O-])=O	NCC1(CC1)C(=O)O	
InChI=1S/C5H9NO2/c6-3-5(1-2-5)4(7)8/h1-3,6H2,(H,7,8)	InChI=1S/C5H9NO2/c6-3-5(1-2-5)4(7)8/h1-3,6H2,(H,7,8)
