19
gdb 62051	4.22659	0.66362	0.62531	3.7552	77.05	-0.2704	0.027	0.2974	1767.4804	0.158832	-419.19061	-419.180831	-419.179887	-419.226619	34.513	
N	-0.0031418731	 1.4629000178	 0.1878995491	-0.492214
C	-0.0212733111	 0.0142873761	-0.0278420135	-0.137858
C	-1.432730243	-0.5559307937	 0.2114246697	-0.170719
C	-1.9143717897	-0.3518699991	 1.6533043191	-0.230378
C	-3.3267431291	-0.8474860454	 1.8443689709	 0.092078
C	-4.2942411217	-0.1495146885	 2.6989860813	-0.180029
O	-4.3616406559	-0.0379367747	 1.2760957233	-0.236018
C	 0.46682861	-0.3759946041	-1.3698512957	 0.254798
N	 0.8512839036	-0.6391152421	-2.4282994384	-0.32105
H	 0.9400143174	 1.8231719028	 0.0797003769	 0.245734
H	-0.571269591	 1.9213067778	-0.5197037842	 0.244142
H	 0.6634061084	-0.4334015958	 0.7037080898	 0.130084
H	-2.1330736665	-0.0715150017	-0.4792954358	 0.130256
H	-1.4277384638	-1.621525775	-0.0436000584	 0.118433
H	-1.2509953614	-0.8863898213	 2.3469167871	 0.100183
H	-1.8606808178	 0.7100958279	 1.9073778523	 0.129116
H	-3.4754558124	-1.9179550387	 1.6853670342	 0.091921
H	-5.1082673677	-0.7033528992	 3.1645929513	 0.116265
H	-3.9879939452	 0.7544919469	 3.224138231	 0.115255
47.4141	55.2142	104.9361	126.3403	195.3847	237.5575	279.2169	302.2497	367.2589	430.2754	460.4534	584.8432	586.092	766.6074	796.0842	848.2096	870.9636	928.8357	948.9475	966.558	1007.5374	1046.4558	1085.3294	1101.0823	1140.4477	1160.2873	1165.4852	1192.0686	1263.3493	1273.6708	1295.34	1332.2062	1334.1364	1386.7613	1394.622	1445.8944	1474.8754	1493.0988	1530.2544	1662.8109	2344.0165	3022.0433	3032.1432	3042.561	3078.2056	3081.6203	3084.9191	3107.7562	3169.2247	3493.2131	3574.2208
NC(CCC1CO1)C#N	N[C@@H](CC[C@H]1CO1)C#N	
InChI=1S/C6H10N2O/c7-3-5(8)1-2-6-4-9-6/h5-6H,1-2,4,8H2	InChI=1S/C6H10N2O/c7-3-5(8)1-2-6-4-9-6/h5-6H,1-2,4,8H2/t5-,6-/m0/s1
