18
gdb 30681	3.77547	0.97979	0.83023	1.2609	72.95	-0.2407	0.003	0.2436	1362.0275	0.148081	-439.114037	-439.105272	-439.104327	-439.148122	31.961	
C	 0.0277547492	 1.6247620054	 0.193472616	-0.402782
C	-0.0344837528	 0.0984516705	 0.0825799525	-0.112481
C	 0.7647987229	-0.5783791809	 1.2185599527	-0.068775
O	 2.1370997875	-0.2189346337	 1.2112621973	-0.417732
C	-1.4355394545	-0.4307843396	 0.0597733465	 0.248302
C	-2.6199680053	 0.1907191084	 0.2854755885	-0.11867
O	-3.6248248691	-0.7322430035	 0.1622955822	-0.142087
C	-2.9815926456	-1.8811120645	-0.1343942431	 0.071361
N	-1.6971386897	-1.7778680654	-0.2106150871	-0.308164
H	 1.0691555483	 1.9470659399	 0.256041779	 0.132611
H	-0.4406419602	 2.1105683925	-0.6676488788	 0.114109
H	-0.4815086664	 1.9713490619	 1.1002986514	 0.114547
H	 0.4411337438	-0.2089645567	-0.8609212224	 0.083798
H	 0.372223172	-0.2457976813	 2.186348747	 0.109546
H	 0.6295885869	-1.6662215191	 1.1599418309	 0.112731
H	 2.5461715483	-0.638025182	 0.4473290896	 0.283568
H	-2.9224254933	 1.1962217339	 0.5177449562	 0.148818
H	-3.5942356223	-2.7573470157	-0.2787700784	 0.151299
53.4575	110.29	130.1865	220.2139	247.6157	283.8853	309.8652	373.0205	412.3977	477.2772	640.3365	685.518	743.5335	781.7064	849.41	880.6272	912.5499	936.7148	975.3881	1054.0924	1062.048	1097.9877	1112.9973	1115.2953	1141.14	1212.1809	1243.7329	1252.3727	1324.3554	1340.1941	1365.0555	1391.9615	1404.3071	1417.1492	1494.7172	1507.3234	1508.1432	1560.0284	1623.3859	2993.3203	3019.194	3035.6505	3074.7968	3100.6439	3132.2894	3274.1119	3302.5956	3814.9438
CC(CO)C1=COC=N1	C[C@@H](CO)c1cocn1	
InChI=1S/C6H9NO2/c1-5(2-8)6-3-9-4-7-6/h3-5,8H,2H2,1H3	InChI=1S/C6H9NO2/c1-5(2-8)6-3-9-4-7-6/h3-5,8H,2H2,1H3/t5-/m0/s1
