19
gdb 10752	2.5026	1.98127	1.63791	1.6656	72.19	-0.2177	-0.0261	0.1916	923.2488	0.162647	-365.040025	-365.031067	-365.030122	-365.073113	33.043	
C	 0.6360746165	 1.4818398694	 0.2496426618	-0.407392
C	-0.0290971429	 0.1040774952	 0.0496054762	 0.159886
C	 0.5772746117	-0.9215477861	 1.0299640072	-0.407387
C	-1.5006493973	 0.2669432207	 0.4403571201	 0.158047
O	-2.4655480913	 0.0655845514	-0.2521245093	-0.26706
N	 0.2835640466	-0.3431063065	-1.3041867487	-0.091146
C	-0.5027088466	-1.3411165302	-2.0180951558	-0.23121
C	-0.4677106319	 0.079421228	-2.4793435075	-0.231208
H	 1.7106883129	 1.3881119491	 0.0750390093	 0.135016
H	 0.2358326745	 2.213112618	-0.4590384247	 0.128006
H	 0.4771929965	 1.8606397044	 1.2639145132	 0.116697
H	 0.416415663	-0.625196704	 2.0710121316	 0.116698
H	 0.134906377	-1.9109921945	 0.8799889683	 0.12801
H	 1.6523568045	-0.9958740033	 0.8490220073	 0.135018
H	-1.6260899609	 0.6128395869	 1.4957567871	 0.078506
H	 0.0809347434	-2.1007732896	-2.5327296333	 0.10809
H	-1.438877443	-1.6831779404	-1.5899764525	 0.131677
H	-1.3814175855	 0.6489617843	-2.3472210959	 0.131648
H	 0.1416727729	 0.3652310271	-3.3334710744	 0.108103
82.4975	111.1843	209.9004	226.3414	248.5003	249.7003	316.7506	341.7415	341.8945	368.4662	499.5577	610.8881	678.0619	834.6831	842.0012	914.0849	918.4876	931.8166	956.0331	1004.4599	1031.5127	1057.0538	1115.5212	1133.8674	1165.7756	1176.0833	1203.7845	1205.9846	1240.2894	1347.5325	1387.4973	1402.9358	1431.0998	1476.6549	1482.1263	1485.1123	1495.0383	1508.8965	1511.4884	1827.4802	2829.8894	3039.3963	3042.6203	3106.8633	3110.6953	3112.2174	3114.411	3124.9096	3127.7289	3200.5506	3211.5549
CC(C)(C=O)N1CC1	CC(C)(C=O)N1CC1	
InChI=1S/C6H11NO/c1-6(2,5-8)7-3-4-7/h5H,3-4H2,1-2H3	InChI=1S/C6H11NO/c1-6(2,5-8)7-3-4-7/h5H,3-4H2,1-2H3
