18
gdb 17254	4.28091	1.89579	1.89409	1.5085	71.55	-0.2215	0.091	0.3124	806.1513	0.155525	-347.765695	-347.759396	-347.758452	-347.795737	26.444	
C	-0.0572667989	 1.4643831292	 0.0129302611	-0.354563
C	 1.2765727877	 0.7209179549	 0.0236405785	-0.354564
C	-0.0124562255	-0.0248744087	-0.0793480917	 0.514095
O	-0.4561170407	-0.8047520224	 1.0374509677	-0.321297
C	-1.0721999377	-1.9197304713	 0.3653443406	 0.108946
C	-0.0435324512	-2.2871084779	-0.7346943421	-0.236544
C	-0.4766230949	-0.8744727403	-1.2485140287	-0.137486
C	-1.9120924831	-1.2455894212	-0.7496997872	-0.236544
H	-0.3941412691	 1.8902965341	 0.9515494634	 0.122335
H	-0.3243904874	 2.0363905804	-0.8700701708	 0.110047
H	 1.9143443405	 0.7885490885	-0.8520939663	 0.110047
H	 1.8044537862	 0.6648287045	 0.9692029983	 0.122335
H	-1.4670487682	-2.6175126789	 1.1014098236	 0.079538
H	 0.9932828739	-2.427851668	-0.4220422503	 0.102928
H	-0.3753976567	-3.0965205986	-1.3871079479	 0.097936
H	-0.2662286458	-0.5114859118	-2.2533417442	 0.071928
H	-2.4179861765	-1.9579983232	-1.4035127929	 0.097936
H	-2.5808296127	-0.4356749395	-0.450743601	 0.102928
153.5587	261.5458	287.6367	465.6808	486.3798	539.4223	546.2236	726.8502	763.9556	826.2695	838.0881	843.0857	874.6259	886.3365	913.943	955.6391	971.0483	979.949	1009.9588	1037.3586	1048.7737	1054.3225	1069.4395	1074.6949	1098.6052	1134.8495	1186.3849	1209.7807	1216.3387	1236.9981	1250.7582	1266.4833	1335.3496	1395.9053	1450.3596	1471.8888	1500.4747	1514.3197	3069.197	3074.2718	3126.1482	3128.1543	3131.0337	3136.1768	3140.4336	3142.8911	3211.0768	3225.0711
C1CC11OC2CC1C2	C1CC21O[C@@H]1C[C@H]2C1	
InChI=1S/C7H10O/c1-2-7(1)5-3-6(4-5)8-7/h5-6H,1-4H2	InChI=1S/C7H10O/c1-2-7(1)5-3-6(4-5)8-7/h5-6H,1-4H2/t5-,6+
