17
gdb 18071	4.94676	1.22414	1.17712	3.0024	68.75	-0.247	-0.0227	0.2243	1055.0094	0.141443	-363.815842	-363.808288	-363.807343	-363.848721	27.621	
O	-0.3893298705	 0.6010430513	 0.832689702	-0.239276
C	 0.0258355465	 1.2143352298	-0.1151953529	 0.159911
C	 1.4508329309	 1.7325391961	-0.2383337192	-0.235999
N	 1.481597631	 2.8841019131	-1.1216446442	-0.087611
C	 1.4399393555	 4.2539706216	-0.6461278666	-0.042339
C	 2.2449190783	 4.4705502372	 0.6489309952	-0.246025
C	 3.5040517959	 3.8806236666	-0.0628395693	-0.242882
C	 2.66056709	 3.6900979689	-1.3392778687	-0.037615
H	-0.6093720673	 1.4410928618	-0.999961311	 0.088452
H	 1.8525471422	 1.8815337283	 0.7724563718	 0.120869
H	 2.0403490377	 0.9301262998	-0.7054663296	 0.133455
H	 0.6581619003	 4.9022444024	-1.02672719	 0.096956
H	 2.3651426602	 5.5308563751	 0.8798005098	 0.112089
H	 1.8802750345	 3.9627000736	 1.5468221644	 0.109543
H	 4.2906337267	 4.6263882119	-0.1932445655	 0.110538
H	 3.9500049847	 2.9764865734	 0.3620283671	 0.104224
H	 3.0084246233	 3.8211828893	-2.358589083	 0.095711
47.86	74.7881	164.4579	272.526	297.0017	427.9764	468.7125	569.2123	700.2564	777.9982	782.8784	796.3651	836.9433	916.322	947.4896	956.063	986.0834	1035.5267	1055.7528	1074.7378	1100.3008	1114.5097	1139.5104	1216.5772	1224.5481	1244.8973	1254.3883	1280.0328	1286.141	1330.2097	1390.7675	1404.0276	1453.2067	1481.9475	1499.5658	1839.1318	2895.3697	3006.7153	3049.8409	3055.439	3062.7515	3106.4484	3123.2517	3162.489	3175.2941
O=CCN1C2CCC12	O=CCN1[C@H]2CC[C@@H]12	
InChI=1S/C6H9NO/c8-4-3-7-5-1-2-6(5)7/h4-6H,1-3H2	InChI=1S/C6H9NO/c8-4-3-7-5-1-2-6(5)7/h4-6H,1-3H2/t5-,6+,7?
