16
gdb 51103	4.87962	0.89209	0.82801	1.2671	70.6	-0.256	-0.0373	0.2187	1338.7032	0.123003	-437.884276	-437.876	-437.875056	-437.918362	30.04	
O	 0.0895259337	-0.1417691374	-0.0519647015	-0.227919
C	 0.0264479636	 1.0581769019	-0.0941504487	 0.159351
C	 1.2260283682	 1.986838281	-0.0148207751	-0.366171
C	 1.262470322	 2.9718383657	-1.1524488347	 0.360781
C	 1.8739693266	 2.7466492615	-2.500443095	-0.315754
C	 2.3937366694	 3.881466448	-1.6068001655	-0.294251
C	 1.3575266898	 4.9921565522	-1.6511469828	 0.438418
O	 1.3316955417	 6.1479137684	-1.9568934694	-0.334931
N	 0.3431495096	 4.1246347029	-1.179508026	-0.40011
H	-0.9539503564	 1.5794895225	-0.1911973985	 0.079328
H	 1.1556685199	 2.5439157395	 0.9297308337	 0.138057
H	 2.1322650692	 1.3758719961	 0.0028044631	 0.130597
H	 2.5526840343	 1.9031298405	-2.592724646	 0.134815
H	 1.3185361834	 2.9810246328	-3.4036498495	 0.128797
H	 3.419426463	 3.935202813	-1.2705688561	 0.125489
H	-0.5772641279	 4.0947248515	-1.6061585977	 0.243502
51.2859	56.4	133.0166	199.0956	334.0054	344.4008	413.2776	471.5836	488.7795	590.3374	691.3159	702.4647	758.3591	828.1584	864.0817	910.5674	915.8282	970.5354	992.4873	1019.084	1059.0694	1077.0124	1089.5332	1123.3375	1192.5856	1212.8982	1286.8025	1301.9166	1327.424	1389.5977	1427.6828	1448.5679	1490.8583	1839.7359	1906.5737	2865.1986	3023.2824	3109.2251	3118.3778	3206.4448	3226.6267	3534.1877
O=CCC12CC1C(=O)N2	O=CC[C@]12C[C@H]1C(=O)N2	
InChI=1S/C6H7NO2/c8-2-1-6-3-4(6)5(9)7-6/h2,4H,1,3H2,(H,7,9)	InChI=1S/C6H7NO2/c8-2-1-6-3-4(6)5(9)7-6/h2,4H,1,3H2,(H,7,9)/t4-,6-/m0/s1
