17
gdb 33797	3.58021	1.40685	1.21294	4.6626	72.47	-0.2384	0.0041	0.2425	1030.3269	0.138598	-417.99416	-417.986906	-417.985962	-418.025639	28.748	
N	 0.0484620224	-1.1601105119	-0.0526053924	-0.333371
C	 0.0162365587	-0.0062948802	-0.0039009401	 0.220919
C	-0.0102028262	 1.4484738069	 0.0880970616	 0.26633
C	-0.9072871641	 2.1306468485	 1.1540392419	-0.281636
C	-1.1099920421	 3.1358028414	 0.0019368118	 0.082667
C	 0.0287553729	 4.1477757286	-0.0619063936	-0.155378
N	 1.2409480232	 3.489458634	 0.4372663693	-0.324493
C	 1.3877600891	 2.0862041666	 0.0470344784	-0.187855
O	-0.7948296502	 2.0799636437	-0.9631232498	-0.31826
H	-1.8043601999	 1.544343552	 1.3496811723	 0.12968
H	-0.432490364	 2.4708544983	 2.0726313081	 0.132699
H	-2.0944924058	 3.5721810397	-0.1717831491	 0.093396
H	 0.0981396794	 4.4965362214	-1.1054235219	 0.103289
H	-0.1871708746	 5.0166293119	 0.5724133931	 0.107352
H	 2.0734397661	 4.0192521304	 0.215934128	 0.230424
H	 2.0642422672	 1.5864620805	 0.7500929134	 0.120786
H	 1.7732537681	 1.9284775283	-0.9730947609	 0.11345
149.2997	153.0299	241.8399	319.6254	395.9529	431.2828	454.1265	536.5381	548.4188	581.4245	635.1124	733.9559	843.3045	879.8564	905.2266	922.602	954.503	970.2208	998.2073	1035.54	1081.1713	1092.6846	1152.4527	1198.347	1211.6473	1221.9374	1238.9774	1252.2298	1307.0769	1314.7229	1350.6769	1412.8275	1475.665	1479.865	1491.7524	1503.8494	2361.6338	2969.3396	2977.1012	3043.5191	3056.2078	3100.2812	3110.9487	3174.22	3568.1274
N#CC12CC(CNC1)O2	N#C[C@@]12C[C@@H](CNC1)O2	
InChI=1S/C6H8N2O/c7-3-6-1-5(9-6)2-8-4-6/h5,8H,1-2,4H2	InChI=1S/C6H8N2O/c7-3-6-1-5(9-6)2-8-4-6/h5,8H,1-2,4H2/t5-,6-/m0/s1
