19
gdb 106186	3.04325	1.34849	1.31123	1.6502	73.89	-0.2267	0.0777	0.3044	1070.665	0.160691	-422.988794	-422.981057	-422.980113	-423.021118	30.337	
O	 0.171194149	 1.3659081881	-0.2970902468	-0.411694
C	 0.0561970928	 0.026068543	 0.1630470336	-0.201939
C	-1.3502555663	-0.4774244306	 0.1433900857	 0.256034
C	-1.8587469293	-1.9088839056	 0.0961941632	-0.152428
C	-2.849411666	-2.1751270117	 1.232354419	-0.230052
C	-3.1113508018	-0.7677813518	 1.8431186398	-0.211687
C	-2.6189254291	 0.1720266921	 0.750545695	 0.045062
O	-3.3855962708	-0.1179568477	-0.4714402496	-0.312458
C	-2.290712105	-0.8968473678	-0.9495632531	 0.036601
H	-0.2412164487	 1.4065572893	-1.1667009286	 0.283688
H	 0.6971646388	-0.6588133116	-0.4160794336	 0.088664
H	 0.4482629646	 0.0379111935	 1.1873287785	 0.112199
H	-1.1797327712	-2.6870010268	-0.2373999314	 0.086693
H	-3.7740246673	-2.6192857505	 0.8529252677	 0.114127
H	-2.4302872058	-2.8678076384	 1.9672752522	 0.100615
H	-4.1647781267	-0.5970426741	 2.0811909938	 0.109358
H	-2.527228281	-0.6124600095	 2.7583136064	 0.099566
H	-2.6073962035	 1.2403052799	 0.970305083	 0.088943
H	-2.1795613528	-1.0185669997	-2.021889955	 0.098707
90.1099	136.2036	202.2963	238.2637	322.2025	386.7918	418.7292	511.4564	633.7229	672.1462	737.93	757.442	822.2599	854.7999	878.2336	891.1073	915.9464	959.8095	995.9331	1010.8603	1017.4373	1040.3296	1061.5819	1069.7836	1085.3092	1151.8409	1163.7135	1194.1885	1238.3495	1258.3149	1265.2169	1286.6399	1295.7955	1331.8222	1343.0679	1371.5963	1419.5362	1464.6857	1475.4038	1497.6201	1499.566	2969.9945	3036.6679	3049.6863	3058.2892	3090.0471	3105.4811	3113.088	3163.9422	3174.2409	3805.579
OCC12C3CCC1OC23	OC[C@@]12[C@H]3CC[C@@H]1O[C@@H]23	
InChI=1S/C7H10O2/c8-3-7-4-1-2-5(7)9-6(4)7/h4-6,8H,1-3H2	InChI=1S/C7H10O2/c8-3-7-4-1-2-5(7)9-6(4)7/h4-6,8H,1-3H2/t4-,5-,6+,7+/m0/s1
