16
gdb 28693	3.41518	1.06508	0.84117	0.752	77.58	-0.1802	0.0473	0.2276	1317.3125	0.12368	-400.747792	-400.739046	-400.738102	-400.781668	32.722	
O	 0.5627961582	 1.1935498609	 0.3305752082	-0.435955
C	 0.1909766046	-0.0726930577	 0.0103465983	 0.370028
C	-0.4244650999	-0.6307575024	-1.0834576819	-0.297133
C	-0.5108340211	-2.0357036571	-0.8201077077	-0.223632
C	 0.0431013351	-2.2757046817	 0.410401017	 0.311807
C	 0.1657699949	-3.5384675	 1.2149943396	-0.464083
C	 1.4212826411	-3.6321016844	 1.9602169289	 0.2915
C	 2.4433317412	-3.6635682976	 2.5925528181	-0.451717
N	 0.4609983204	-1.0558053302	 0.9167439284	-0.335985
H	 0.3497798913	 1.7656225192	-0.4125482395	 0.306962
H	-0.7683848579	-0.1069780321	-1.9618064791	 0.085149
H	-0.9473313724	-2.7812701209	-1.4676771232	 0.090022
H	-0.6665312179	-3.6353436274	 1.9294487277	 0.140302
H	 0.0737490608	-4.3916697229	 0.5332909983	 0.146906
H	 3.3522342509	-3.7166781885	 3.1389738235	 0.198524
H	 0.9992643906	-0.9305076973	 1.7578265834	 0.267305
43.4383	98.671	204.4411	231.5643	273.1778	318.1141	336.2565	436.5956	466.2415	472.1517	618.0629	625.2766	647.8611	659.2264	674.3299	731.5535	743.827	800.2184	937.4636	948.4969	998.7919	1024.6202	1056.959	1171.375	1202.8909	1215.878	1280.3172	1297.2526	1336.0792	1437.67	1465.1288	1529.858	1571.3667	1643.1858	2235.7813	2980.7138	3059.3508	3238.3927	3252.9938	3505.388	3668.4385	3849.72
OC1=CC=C(CC#C)N1	Oc1ccc(CC#C)[nH]1	
InChI=1S/C7H7NO/c1-2-3-6-4-5-7(9)8-6/h1,4-5,8-9H,3H2	InChI=1S/C7H7NO/c1-2-3-6-4-5-7(9)8-6/h1,4-5,8-9H,3H2
