19
gdb 104704	2.1144	1.41396	1.04715	3.7641	71.25	-0.274	0.0101	0.2841	1215.8593	0.157718	-460.197279	-460.187929	-460.186985	-460.231634	34.501	
C	-0.1094893242	 1.6376338568	 0.0594385835	-0.394675
C	 0.1974887375	 0.1403960273	 0.187133978	-0.241102
C	 0.7589812153	-0.5062195261	-1.0736586218	 0.395015
C	 2.1022191609	 0.0550870443	-1.535207021	-0.122629
O	 2.5635568932	-0.5574423682	-2.7218753034	-0.419848
C	 0.6304339662	-2.0443513288	-1.1574862638	-0.470355
C	-0.3641659007	-1.7521608409	-2.2741184724	 0.439498
O	-1.0673664399	-2.35617451	-3.0172628534	-0.315654
O	-0.2114774691	-0.3868486322	-2.1989295047	-0.296271
H	 0.7958995271	 2.2384248142	-0.065699773	 0.122757
H	-0.7623382227	 1.8225727719	-0.7982903468	 0.142621
H	-0.6193209855	 1.9976939367	 0.9573371938	 0.121493
H	 0.9076685365	-0.0375990195	 1.0051147902	 0.10887
H	-0.7218428557	-0.3929726181	 0.4554836358	 0.110569
H	 2.0251862731	 1.1445684752	-1.6521975501	 0.107688
H	 2.8549199488	-0.1446942918	-0.7645491351	 0.120414
H	 1.9371426225	-0.3315692707	-3.4188604809	 0.297568
H	 1.5216737302	-2.5656437798	-1.5073577563	 0.157777
H	 0.2084429266	-2.5454140803	-0.2850567188	 0.136263
74.0127	90.2665	130.2651	204.3961	214.2789	274.2737	307.3645	357.2145	395.5973	422.1348	524.9753	530.7951	577.484	626.7235	771.3454	813.3522	839.4174	875.9426	964.1191	972.2714	1004.5001	1038.6125	1083.7904	1100.3609	1104.9739	1174.8857	1182.4663	1232.061	1245.4316	1267.8125	1330.9983	1378.3678	1398.3663	1414.1464	1420.8908	1443.2073	1477.1995	1491.0836	1503.483	1508.6688	1938.4801	3013.7324	3026.2492	3046.9764	3062.8148	3077.6459	3094.4422	3114.983	3123.5805	3158.0274	3805.5297
CCC1(CO)CC(=O)O1	CC[C@@]1(CO)CC(=O)O1	
InChI=1S/C6H10O3/c1-2-6(4-7)3-5(8)9-6/h7H,2-4H2,1H3	InChI=1S/C6H10O3/c1-2-6(4-7)3-5(8)9-6/h7H,2-4H2,1H3/t6-/m0/s1
