14
gdb 13658	5.79706	0.88035	0.81187	3.9822	73.37	-0.2576	-0.0571	0.2005	1341.7176	0.104992	-382.497097	-382.488726	-382.487782	-382.531026	28.679	
O	 0.1007028826	 1.3870445971	 0.3817364278	-0.405533
C	 0.0346060004	 0.0225519385	 0.1534113646	 0.125465
C	-0.4923839221	-0.8025938427	 1.2665073014	-0.294146
C	-1.3398935938	-0.6557058483	-0.0047393811	-0.252255
C	-2.5149541295	 0.1440477785	 0.0080264281	 0.12403
C	-3.5160840898	 0.8247269485	-0.0197900936	 0.021044
C	-4.6867951569	 1.6545443846	-0.0104261621	 0.014892
O	-5.6869503717	 1.4492476355	-0.6626808345	-0.237582
H	-0.130784914	 1.8477533879	-0.4325338743	 0.297401
H	 0.8262694321	-0.3943111276	-0.4688059821	 0.104837
H	-0.0601693935	-1.7774766029	 1.4576672671	 0.132013
H	-0.8415217811	-0.2622728878	 2.1378274394	 0.148059
H	-1.3667801662	-1.5188319658	-0.663210027	 0.126982
H	-4.6084323665	 2.5334041845	 0.6627914063	 0.094794
53.6525	81.3489	114.1438	175.3632	230.3598	301.2276	370.4492	420.3484	495.4301	573.219	658.5871	764.1872	773.056	854.214	911.2319	985.7908	1019.8261	1053.0419	1065.4895	1119.2399	1163.7812	1200.2876	1241.8623	1301.6184	1386.0119	1422.4883	1429.0575	1481.7951	1759.0116	2311.0412	2909.1249	3106.1008	3150.6113	3153.701	3249.2296	3800.0428
OC1CC1C#CC=O	O[C@H]1C[C@H]1C#CC=O	
InChI=1S/C6H6O2/c7-3-1-2-5-4-6(5)8/h3,5-6,8H,4H2	InChI=1S/C6H6O2/c7-3-1-2-5-4-6(5)8/h3,5-6,8H,4H2/t5-,6+/m1/s1
