23
gdb 89736	2.35151	1.40541	1.19776	1.7889	85.35	-0.2525	0.0778	0.3303	1200.9761	0.20349	-388.272946	-388.263086	-388.262142	-388.306878	38.075	
C	-0.7660780652	 1.1526426919	-0.0889515639	-0.416643
C	 0.1857656122	-0.034538742	-0.0977274538	 0.009036
C	 1.5936618099	 0.1410057824	-0.7433302715	-0.352745
C	 2.1564710905	-0.6953504856	 0.4018714366	 0.447819
C	 3.0700102484	-1.8373238389	 0.3416363005	-0.270457
O	 3.4722809965	-0.5846264333	 0.9171586934	-0.279932
C	 0.8708154064	-0.5219339439	 1.238840188	 0.211925
C	 1.0541118274	 0.577159949	 2.2906990026	-0.430368
C	 0.2761080212	-1.780350399	 1.8642173389	-0.45852
H	-0.3002868429	 2.0445178169	 0.3412832851	 0.116996
H	-1.0779477157	 1.40312915	-1.1089948172	 0.11521
H	-1.6724347585	 0.9369602955	 0.4879003044	 0.114405
H	-0.3164169673	-0.8938101006	-0.5562748165	 0.068743
H	 1.7365838882	-0.2275620977	-1.7619902778	 0.10158
H	 1.9459481924	 1.1764766162	-0.6923428508	 0.110735
H	 2.9671383226	-2.6607894561	 1.0471947057	 0.112294
H	 3.5540921971	-2.093660968	-0.6006333949	 0.110487
H	 1.4781124787	 1.4908337888	 1.8638559455	 0.116876
H	 0.1001920466	 0.8343153028	 2.763057407	 0.109367
H	 1.7417490762	 0.2364380871	 3.070666406	 0.124138
H	 0.899811164	-2.1497533199	 2.6865856613	 0.116619
H	-0.7199220187	-1.5781619088	 2.2755277027	 0.113231
H	 0.17713639	-2.5846433768	 1.1278254186	 0.109202
75.4969	186.3451	206.3216	208.932	221.5268	243.8467	247.8034	280.8127	343.9918	360.3722	408.9761	476.4936	508.7711	556.546	655.4045	735.9604	845.285	857.3378	887.3421	914.8638	938.1176	950.9157	969.1826	1006.1369	1038.9876	1101.3649	1105.8494	1129.4155	1140.199	1162.857	1176.1121	1203.1613	1226.0399	1249.7722	1271.9686	1308.5932	1373.5492	1399.6692	1407.0098	1417.1673	1432.5113	1479.9409	1482.7399	1485.8968	1495.2454	1496.9204	1504.472	1508.2234	1535.7966	3020.2141	3028.2127	3033.8459	3037.8709	3052.1639	3076.1482	3083.9882	3089.5811	3094.3302	3102.3829	3103.7576	3106.4562	3111.2693	3161.4755
CC1CC2(CO2)C1(C)C	C[C@H]1C[C@]2(CO2)C1(C)C	
InChI=1S/C8H14O/c1-6-4-8(5-9-8)7(6,2)3/h6H,4-5H2,1-3H3	InChI=1S/C8H14O/c1-6-4-8(5-9-8)7(6,2)3/h6H,4-5H2,1-3H3/t6-,8-/m0/s1
