18
gdb 84959	2.01073	1.66497	1.20883	3.7716	72.35	-0.2109	-0.0927	0.1182	1107.7554	0.145873	-439.100204	-439.0911	-439.090156	-439.134456	33.08	
C	 0.3786181255	 1.6759492166	 0.0444325508	-0.398606
C	-0.0339708002	 0.2010931545	-0.0781464487	-0.096027
N	 0.5018488715	-0.4261045003	-1.3102749072	-0.08426
C	-0.3990252465	-1.4358496836	-1.8648552326	-0.337697
C	 1.824937698	-0.9846403768	-0.9712557966	-0.308135
C	 1.7538030937	-1.3951473192	 0.4939349577	 0.314966
O	 2.4648766469	-2.1378956047	 1.1131980926	-0.274268
C	 0.5324903192	-0.6211609323	 1.0772241717	 0.317207
O	 0.1619396965	-0.6740975193	 2.2184134494	-0.285101
H	 1.467616646	 1.7877973143	 0.057886071	 0.12301
H	-0.0073197791	 2.2376527494	-0.8094599261	 0.133286
H	-0.0178825037	 2.1027485284	 0.9698375477	 0.139075
H	-1.125081801	 0.1328654798	-0.0726715274	 0.109684
H	-1.3547716782	-0.9675676419	-2.1168742556	 0.13069
H	 0.0306532441	-1.835514797	-2.7879391458	 0.129965
H	-0.6054637448	-2.2872136026	-1.1902591367	 0.105617
H	 2.0874823725	-1.8268213078	-1.6145520676	 0.141603
H	 2.6107780797	-0.2252997375	-1.0928377964	 0.13899
55.6157	72.8674	191.3902	221.0753	224.0578	250.6824	309.5392	363.5968	382.4096	440.7344	538.328	595.5364	626.414	662.3785	725.8378	805.913	920.7456	937.1906	1004.7532	1056.8282	1072.1176	1080.0589	1120.4491	1151.4663	1169.941	1216.9282	1265.2392	1286.6922	1307.097	1360.4894	1399.2699	1449.6868	1468.6941	1488.7745	1494.532	1495.4877	1503.8455	1845.4492	1861.5301	2936.0388	3005.629	3042.9161	3069.7884	3076.7866	3111.1842	3116.0126	3116.3432	3132.4456
CC1N(C)CC(=O)C1=O	C[C@H]1N(C)CC(=O)C1=O	
InChI=1S/C6H9NO2/c1-4-6(9)5(8)3-7(4)2/h4H,3H2,1-2H3	InChI=1S/C6H9NO2/c1-4-6(9)5(8)3-7(4)2/h4H,3H2,1-2H3/t4-/m1/s1
