19
gdb 92237	2.76286	1.84458	1.42021	2.9834	73.79	-0.2105	0.0671	0.2776	956.5323	0.162975	-419.160885	-419.153906	-419.152962	-419.192099	28.884	
O	 0.0804813586	 1.4464955902	 0.1581925812	-0.435403
C	 0.0163877648	 0.0647053639	-0.0412088353	 0.124972
C	 0.4321880964	-0.8611739576	 1.1359781857	-0.211917
N	-0.8440332193	-1.6107640763	 1.0147178403	-0.095449
C	-1.733223589	-1.6996859839	 2.1791948055	-0.185189
C	-2.7138514512	-0.5418893023	 2.0554549957	-0.037414
N	-2.0611867795	 0.7834322489	 1.9765525973	-0.359995
C	-2.5111307258	 0.1048010454	 0.7314802213	-0.051319
C	-1.3880526913	-0.6298392849	 0.0280413193	-0.031526
H	-0.3994166519	 1.6109800497	 0.9830500341	 0.292675
H	 0.5465204542	-0.1441698496	-0.9733826207	 0.089588
H	 1.3201778863	-1.484836995	 0.9829970623	 0.095156
H	 0.5416628476	-0.3058107059	 2.0755557281	 0.099983
H	-2.2917382702	-2.6458334731	 2.1756035576	 0.101264
H	-1.150464529	-1.6614830559	 3.1062823781	 0.110415
H	-3.6946093923	-0.6053910304	 2.516548101	 0.09311
H	-2.7348113458	 1.5029644517	 2.2267818473	 0.238818
H	-3.3294336961	 0.5384352724	 0.1672417718	 0.094317
H	-1.7531887463	-1.0786656472	-0.9034064904	 0.067912
108.1693	209.2119	286.66	378.4028	388.559	431.0547	541.4416	603.2041	640.2189	692.8479	742.7599	798.124	813.947	844.0069	868.6991	906.2025	943.2596	963.6197	983.1377	1021.2037	1039.7298	1076.0441	1079.8385	1119.6283	1131.7711	1159.3298	1170.1732	1199.2276	1225.8824	1245.1498	1259.6468	1261.6376	1303.2389	1322.7351	1334.9851	1360.4956	1371.2956	1416.4636	1475.5982	1491.4544	1504.5566	3007.0119	3016.6169	3029.5132	3061.3356	3066.2025	3087.9466	3159.9254	3175.997	3503.2148	3716.1973
OC1CN2CC3NC3C12	O[C@H]1CN2C[C@H]3N[C@H]3[C@@H]12	
InChI=1S/C6H10N2O/c9-4-2-8-1-3-5(7-3)6(4)8/h3-7,9H,1-2H2	InChI=1S/C6H10N2O/c9-4-2-8-1-3-5(7-3)6(4)8/h3-7,9H,1-2H2/t3-,4+,5-,6-/m1/s1
