15
gdb 17838	4.19301	1.76302	1.534	6.5074	60.71	-0.2424	0.0231	0.2655	834.034	0.120897	-399.785525	-399.77906	-399.778116	-399.816312	24.894	
O	 0.1209935269	 0.2285312864	-0.6895887187	-0.345667
C	 0.0157223195	 1.2172929739	-0.0110499231	 0.412679
O	 1.0600081075	 1.7558081821	 0.6318372136	-0.388547
C	-1.3175669864	 1.9166662613	 0.1471036333	-0.152755
C	-2.0975990413	 2.0977751354	 1.449570674	-0.098239
C	-1.1848777198	 2.4745697778	 2.6176991224	-0.188673
N	-0.5275968264	 3.5360185587	 1.7714079599	-0.367832
H	-0.6020457282	 4.4589881194	 2.181720528	 0.241871
H	 0.7602710162	 2.5850495509	 1.0901084174	 0.318646
C	-1.5410585812	 3.2932015389	 0.7075572498	-0.040272
H	-1.9833245951	 1.6632151187	-0.6710182645	 0.125274
H	-3.1086589451	 1.7247385227	 1.5388467703	 0.113154
H	-1.7496822039	 2.9051368687	 3.448597761	 0.122645
H	-0.4877945731	 1.7219000768	 2.9970191783	 0.134744
H	-2.0067133797	 4.1052588982	 0.1628911284	 0.112972
99.2382	186.7044	276.7991	380.2244	390.034	497.4837	689.4061	703.7364	767.9031	786.5291	805.0537	857.7075	892.5003	957.2501	969.8759	988.4486	991.3923	1014.4697	1036.2916	1065.481	1114.0979	1128.9135	1163.141	1256.1009	1284.2246	1286.87	1335.7266	1348.5087	1423.4182	1500.9894	1510.4345	1848.664	3055.7295	3109.6943	3179.1834	3189.6426	3208.3738	3212.7523	3554.7728
[O-]C(=O)C1C2C[NH2+]C12	O=C(O)[C@H]1[C@H]2CN[C@@H]12	
InChI=1S/C5H7NO2/c7-5(8)3-2-1-6-4(2)3/h2-4,6H,1H2,(H,7,8)	InChI=1S/C5H7NO2/c7-5(8)3-2-1-6-4(2)3/h2-4,6H,1H2,(H,7,8)/t2-,3+,4-/m1/s1
