20
gdb 8532	3.8558	1.86322	1.51612	0.2188	79.71	-0.2774	0.0977	0.3751	926.8206	0.177106	-311.805404	-311.797958	-311.797013	-311.836459	29.919	
C	-0.1541870794	 1.5969331804	-0.019060956	-0.423891
C	-0.0303768971	 0.0804003492	-0.0000598699	 0.003275
C	 1.1872122093	-0.5966959141	-0.6706428195	-0.082474
C	 2.1334850412	-0.3001328469	 0.5439008011	-0.045746
C	 2.5858452757	-1.7671965974	 0.6463490568	-0.313764
C	 1.0919126228	-1.8597949058	 0.2679197314	 0.362636
C	 0.2595600606	-3.0940073396	 0.0475005452	-0.521935
C	 0.7248693747	-0.6115524674	 1.1581638023	-0.08245
H	 0.7951072251	 2.0845235209	 0.2248999252	 0.113038
H	-0.4677890508	 1.9540234683	-1.0065882308	 0.112041
H	-0.9007996405	 1.9401319966	 0.7060966197	 0.112041
H	-0.9932749639	-0.385138846	-0.2472675404	 0.057548
H	 1.4798091548	-0.6054782141	-1.7236900955	 0.058878
H	 2.7213561675	 0.6042781746	 0.6998631964	 0.067612
H	 3.3058700768	-2.1162874598	-0.1026344498	 0.084569
H	 2.8648278855	-2.1304338465	 1.6420909356	 0.084571
H	 0.2335097114	-3.7164851669	 0.9491174642	 0.117785
H	-0.7738064756	-2.8406099394	-0.2135601831	 0.119607
H	 0.6695708164	-3.7043259113	-0.7651928045	 0.117786
H	 0.4819119853	-0.6375601046	 2.2234788314	 0.058873
186.4565	207.7108	215.6326	239.599	303.5248	310.2005	435.7422	520.2544	633.0302	718.185	738.0135	838.9421	847.7481	851.8194	859.0966	897.558	942.5796	980.8872	1016.6688	1029.0761	1029.9501	1069.1402	1086.4895	1088.3551	1146.9038	1148.0867	1161.5004	1171.1189	1192.333	1214.0072	1243.9704	1263.2234	1295.7266	1339.2335	1396.1316	1410.2598	1413.9605	1487.0845	1493.0458	1495.5261	1499.9072	1512.3883	3017.2595	3022.6479	3025.3597	3027.637	3076.5872	3078.6033	3080.7404	3086.7693	3087.3247	3092.6672	3100.3699	3113.5263
CC1C2C3CC2(C)C13	C[C@H]1[C@H]2[C@@H]3C[C@@]2(C)[C@H]13	
InChI=1S/C8H12/c1-4-6-5-3-8(6,2)7(4)5/h4-7H,3H2,1-2H3	InChI=1S/C8H12/c1-4-6-5-3-8(6,2)7(4)5/h4-7H,3H2,1-2H3/t4-,5-,6-,7+,8+
