14
gdb 46225	2.94746	1.35933	1.07022	2.5396	70.32	-0.2679	-0.0125	0.2554	1096.6857	0.098932	-436.611237	-436.603254	-436.60231	-436.64405	29.444	
N	 0.0457876182	 1.2120995739	-0.2086765586	-0.540498
C	 0.0292479989	-0.0165843084	 0.01688509	 0.384012
O	 1.0127839145	-0.8813063568	 0.4784220496	-0.263239
C	 0.1012220706	-2.0238644865	 0.5060908814	-0.159774
C	-0.9868458472	-1.1237947553	-0.0790131754	 0.302211
O	-2.3296671481	-1.0728770091	 0.3077547593	-0.251678
C	-2.0444395772	-1.3920535199	-1.0735366468	-0.287975
C	-2.42251397	-0.4405737192	-2.0775445005	 0.367058
C	-2.7525040751	 0.3196398018	-2.9467501146	-0.396973
H	 0.9575643873	 1.624165967	-0.004672016	 0.237179
H	 0.4668399098	-2.8404730377	-0.1204421699	 0.131915
H	-0.0836881375	-2.3633700767	 1.5282537304	 0.139086
H	-2.2278450265	-2.4372775633	-1.3221678907	 0.128598
H	-3.0314430077	 1.0114319201	-3.703221138	 0.210079
95.965	102.1162	177.5992	246.1172	256.3813	323.0921	463.4101	477.5667	552.6291	632.2343	644.5613	684.675	707.2167	764.4642	840.2237	867.5285	908.8382	960.7291	981.5222	1023.3729	1065.2466	1089.2298	1142.0525	1147.9172	1232.0794	1310.4623	1358.1001	1488.2542	1506.1784	1835.194	2247.872	3065.4828	3112.8709	3128.291	3484.956	3501.7828
N=C1OCC11OC1C#C	[NH][C]1OC[C@]21O[C@H]2C#C	
InChI=1S/C6H5NO2/c1-2-4-6(9-4)3-8-5(6)7/h1,4,7H,3H2	InChI=1S/C6H5NO2/c1-2-4-6(9-4)3-8-5(6)7/h1,4,7H,3H2/t4-,6-/m0/s1
