16
gdb 48875	3.50448	1.55528	1.30332	1.4016	73.12	-0.2418	-0.0357	0.2061	963.4498	0.124944	-400.703404	-400.696516	-400.695572	-400.734801	27.269	
O	-0.1003455632	-0.0500622074	 0.1213046366	-0.252372
C	 0.0129939115	 1.119645883	-0.1487694287	 0.059268
C	 1.3043026895	 1.8690284572	-0.1529839611	 0.168253
C	 1.4077059449	 3.0852560059	 0.8706038933	-0.175891
N	 2.0194835444	 3.9772820008	-0.1409505466	-0.158054
C	 3.0471653692	 3.1696943118	-0.9600615885	-0.061473
C	 3.6006157197	 1.9011524624	-0.4213469863	-0.096944
C	 2.5979111632	 1.1142012403	-0.0125403032	-0.15138
C	 1.5994444399	 3.0029403195	-1.1928701165	-0.100309
H	-0.8801691898	 1.7414931512	-0.3909712015	 0.076468
H	 0.4230123967	 3.4925735255	 1.1135694636	 0.12469
H	 1.9834638362	 2.8991774369	 1.7818775109	 0.117712
H	 3.6334967419	 3.8379320739	-1.5781553918	 0.107213
H	 4.6604420674	 1.69789814	-0.3418425533	 0.111161
H	 2.6612809236	 0.160687583	 0.4939349414	 0.127416
H	 1.0307009249	 3.273712226	-2.0773865983	 0.104242
82.9331	188.3922	263.7332	375.2962	398.1072	437.7032	552.8111	644.0899	687.9286	753.0105	767.1998	788.0745	816.9249	845.1365	865.9083	929.8487	948.0393	971.5192	996.6362	1027.547	1068.6234	1074.6274	1086.7282	1148.1839	1170.5475	1199.1476	1253.7909	1273.1998	1281.3196	1362.0255	1377.3883	1429.4504	1485.6833	1636.5208	1818.844	2861.3937	3050.7872	3115.9993	3154.6055	3198.9493	3215.9084	3239.6906
O=CC12CN3C(C=C1)C23	O=C[C@@]12CN3[C@@H](C=C1)[C@@H]23	
InChI=1S/C7H7NO/c9-4-7-2-1-5-6(7)8(5)3-7/h1-2,4-6H,3H2	InChI=1S/C7H7NO/c9-4-7-2-1-5-6(7)8(5)3-7/h1-2,4-6H,3H2/t5-,6-,7-,8?/m0/s1
