15
gdb 85603	2.94324	1.38434	0.986	2.0667	61.68	-0.2779	-0.0543	0.2236	1114.7664	0.111896	-494.950219	-494.942249	-494.941305	-494.983172	29.351	
O	 0.0254835949	 1.39773863	 0.1592763095	-0.436811
C	 0.0051574382	 0.0111100441	 0.0032952628	 0.051921
C	-1.4230702307	-0.5473700148	-0.1105472593	-0.381882
C	-1.4029698331	-2.0644215252	-0.1903431527	 0.409089
O	-2.1975591257	-2.7877239101	 0.3342148205	-0.303989
O	-0.3516461563	-2.6159777229	-0.872122191	-0.225266
C	 0.4662270474	-1.8272125336	-1.7333415608	-0.169935
C	 0.7386883397	-0.411679303	-1.2528658417	 0.327979
O	 1.4366695032	 0.3559751475	-1.8730601952	-0.317954
H	 0.6692192898	 1.7289807483	-0.4868195722	 0.29895
H	 0.5004261462	-0.4883386261	 0.8564566306	 0.117264
H	-2.0295665754	-0.2617622266	 0.7490256361	 0.16103
H	-1.9070030201	-0.1361799477	-1.005600392	 0.14433
H	 1.413749436	-2.3625800606	-1.8394557235	 0.167815
H	 0.0150870162	-1.7626767194	-2.7326271509	 0.157458
69.0122	136.1086	157.0554	286.8356	310.0676	366.4907	416.1434	441.2223	458.9156	574.9187	600.2389	642.8653	695.2931	791.6936	813.4764	907.6266	1026.5412	1063.1429	1100.3545	1123.3023	1138.3944	1183.9239	1214.1251	1249.8649	1280.0805	1302.1212	1373.0817	1379.2425	1431.1062	1464.6324	1475.5582	1819.4248	1869.7436	2941.3085	3028.726	3044.5931	3101.6613	3139.5162	3698.2661
OC1CC(=O)OCC1=O	O[C@H]1CC(=O)OCC1=O	
InChI=1S/C5H6O4/c6-3-1-5(8)9-2-4(3)7/h3,6H,1-2H2	InChI=1S/C5H6O4/c6-3-1-5(8)9-2-4(3)7/h3,6H,1-2H2/t3-/m0/s1
