21
gdb 94902	2.70018	1.57316	1.20905	1.4933	84.01	-0.2307	0.0188	0.2495	1103.1205	0.185343	-387.116091	-387.108142	-387.107198	-387.148494	31.878	
O	 0.0836271053	 1.4413209725	-0.0190787592	-0.43458
C	 0.0721074249	 0.0200000345	 0.0223682933	 0.108683
C	 0.5701260008	-0.5246003241	 1.3872795262	-0.229779
C	-0.6851281173	-0.5694132731	 2.3214523007	-0.345252
C	-1.8315703543	-0.3623542853	 1.3662357438	 0.355768
C	-3.0748578854	 0.1109219625	 1.4274656671	-0.24898
C	-3.6815613762	 0.2411989263	 0.0429180019	-0.242272
C	-2.4478603001	 0.1372917205	-0.9047662177	-0.254963
C	-1.3618665192	-0.5576453735	-0.0597274071	-0.069733
H	-0.569241504	 1.7570261825	 0.6177788406	 0.277483
H	 0.7174278721	-0.2934419595	-0.8024112337	 0.077463
H	 0.9767615369	-1.5326223369	 1.2541607787	 0.10016
H	 1.3739877815	 0.1040570399	 1.7773602085	 0.107185
H	-0.7504660687	-1.5323511938	 2.8405607217	 0.114733
H	-0.6570081693	 0.1985707787	 3.1007820773	 0.113367
H	-3.6157139815	 0.3703856151	 2.3317874246	 0.087445
H	-4.4047685388	-0.5646675208	-0.1484909604	 0.103902
H	-4.2331955521	 1.1794658594	-0.0881352467	 0.100097
H	-2.6756470608	-0.3918903577	-1.8332045026	 0.09342
H	-2.0997074221	 1.139422396	-1.1731158367	 0.113676
H	-1.2791280917	-1.6289135131	-0.2985077905	 0.072176
85.3682	125.9728	231.8112	260.0225	355.1655	357.6632	380.9316	475.5484	587.6493	607.3645	689.1577	762.9977	774.5245	808.6933	831.2806	861.5295	891.1675	914.2973	944.2726	960.4963	983.9517	1006.7283	1024.0597	1067.4371	1093.0929	1149.59	1161.0939	1173.4225	1203.8548	1221.7276	1240.7826	1251.8773	1272.8128	1286.4788	1309.921	1312.9809	1330.7221	1358.0283	1362.2237	1433.4644	1473.1982	1488.3527	1491.7082	1504.1532	1730.1107	2985.7951	3003.5774	3036.5988	3047.3161	3051.7672	3061.867	3073.0614	3082.3615	3106.4439	3110.2263	3183.2384	3776.1497
OC1CCC2=CCCC12	O[C@H]1CCC2=CCC[C@@H]12	
InChI=1S/C8H12O/c9-8-5-4-6-2-1-3-7(6)8/h2,7-9H,1,3-5H2	InChI=1S/C8H12O/c9-8-5-4-6-2-1-3-7(6)8/h2,7-9H,1,3-5H2/t7-,8+/m1/s1
