21
gdb 41353	2.73484	1.80899	1.64148	1.7046	80.88	-0.2376	0.0813	0.3189	949.9549	0.186796	-387.059277	-387.052556	-387.051612	-387.089867	29.216	
C	 0.0246973506	 1.5540642022	 0.2765182276	-0.292374
C	 1.5549660631	 1.4366343347	-0.0773934642	-0.327105
C	 1.1669152604	 0.2203404267	-0.958908573	 0.308497
C	 0.5477046737	 0.6387398711	-2.3326402238	-0.249726
C	-0.8364309325	-0.078582133	-2.3571257055	-0.209519
C	-0.7664902307	-0.8849589133	-1.0590777373	 0.052388
O	 0.2881131122	-1.8846022419	-1.2250235398	-0.305188
C	 1.5943631771	-1.2292784354	-1.101999866	-0.161681
C	-0.0716501745	 0.0333548201	-0.0601046745	 0.038213
H	-0.2331353618	 1.8385012215	 1.2981960993	 0.1007
H	-0.5126694936	 2.2062664599	-0.4143728432	 0.112152
H	 2.0388466952	 2.2847599832	-0.5680469386	 0.097755
H	 2.1393365195	 1.1518388047	 0.8022143604	 0.105617
H	 0.4443008757	 1.7227960955	-2.4172206571	 0.096169
H	 1.1953282046	 0.3170665647	-3.152613124	 0.099774
H	-1.6719565616	 0.6302244524	-2.3444384596	 0.09205
H	-0.963997807	-0.7367720555	-3.2192507629	 0.105086
H	-1.6681025611	-1.426879325	-0.770408987	 0.068435
H	 2.1797793364	-1.4652452983	-1.9981026798	 0.092969
H	 2.1168717501	-1.62083173	-0.2198952664	 0.092201
H	 0.1777266943	-0.5361850542	 0.8405354054	 0.083587
181.2809	287.1356	317.7619	351.228	406.7214	451.3189	554.1716	617.2366	652.424	735.6413	794.5785	800.8576	832.0423	856.2336	869.1909	903.4809	914.6602	923.1543	974.391	991.7615	1003.4347	1014.5558	1059.4856	1091.6877	1094.8368	1134.1588	1148.3045	1179.5509	1203.3801	1217.0788	1231.4566	1246.0048	1262.5959	1269.5506	1286.2856	1305.5886	1325.7805	1332.5663	1367.2037	1380.2395	1479.9963	1482.13	1491.8212	1512.4184	1531.4263	3011.6342	3042.9406	3053.7177	3055.8055	3060.4911	3063.731	3077.4154	3095.673	3107.634	3110.719	3113.8964	3133.3268
C1CC23CCC(OC2)C13	C1C[C@@]23CC[C@@H](OC2)[C@H]13	
InChI=1S/C8H12O/c1-3-8-4-2-7(6(1)8)9-5-8/h6-7H,1-5H2	InChI=1S/C8H12O/c1-3-8-4-2-7(6(1)8)9-5-8/h6-7H,1-5H2/t6-,7+,8+/m0/s1
