21
gdb 91898	2.30433	1.50957	0.99962	1.8109	84.78	-0.2273	0.0166	0.2438	1233.6286	0.183411	-387.095509	-387.086817	-387.085872	-387.128519	34.235	
C	-0.1166514893	 1.5163620273	 0.0700203613	-0.478444
C	-0.0283237347	 0.0162139916	 0.0044926186	 0.311593
C	-0.121658198	-0.6737878431	-1.1365358422	-0.207411
C	-0.0379896777	-2.1808469653	-1.21670575	 0.094534
O	 0.366149094	-2.6156096061	-2.5127752801	-0.433452
C	 0.8870413698	-2.7461149247	-0.1240368547	-0.248785
C	 0.6072601012	-2.1427289144	 1.2505160837	-0.04139
C	 1.522025264	-1.0760768292	 1.8066088052	-0.29197
C	 0.1419143651	-0.708028019	 1.2968620764	-0.104276
H	 0.7859399312	 1.9433521706	 0.5250259349	 0.125436
H	-0.2455569386	 1.9578359794	-0.9218273126	 0.119708
H	-0.9595338318	 1.8351380806	 0.6968791762	 0.122447
H	-0.2783416544	-0.1630305158	-2.0844329727	 0.082119
H	-1.0427450623	-2.6094302301	-1.0973955858	 0.09751
H	 1.2277373551	-2.2214472188	-2.6902905132	 0.272352
H	 0.7935637445	-3.835874217	-0.0970988201	 0.10427
H	 1.9196853016	-2.5300479359	-0.4275325547	 0.085689
H	 0.1615669362	-2.8152234677	 1.9762132134	 0.085078
H	 1.6997706528	-1.0458106737	 2.8765158157	 0.108715
H	 2.3737599478	-0.786595302	 1.1988202027	 0.109819
H	-0.5826632967	-0.4437137868	 2.0641583379	 0.086457
95.7297	153.8867	196.1295	206.993	281.7367	306.5367	368.7868	412.1788	428.1707	462.6243	519.592	608.9402	632.0957	757.9333	825.4136	845.1001	865.6206	896.4926	942.5595	963.4515	1006.4395	1033.2749	1054.8589	1060.0697	1064.5949	1094.1815	1123.7867	1127.359	1132.6884	1187.9482	1221.5757	1224.7263	1256.5991	1296.0453	1339.6619	1361.3457	1385.0582	1410.9578	1418.8178	1420.4008	1476.8179	1477.9889	1488.3092	1492.7046	1723.1107	3007.6044	3016.3809	3022.2519	3063.2694	3081.668	3111.6667	3121.748	3124.3232	3149.7177	3155.7607	3211.0256	3793.549
CC1=CC(O)CC2CC12	CC1=C[C@@H](O)C[C@H]2C[C@@H]12	
InChI=1S/C8H12O/c1-5-2-7(9)3-6-4-8(5)6/h2,6-9H,3-4H2,1H3	InChI=1S/C8H12O/c1-5-2-7(9)3-6-4-8(5)6/h2,6-9H,3-4H2,1H3/t6-,7+,8-/m0/s1
