21
gdb 108482	2.0573	1.68611	1.23515	1.3698	77.79	-0.2299	0.0634	0.2934	1126.4938	0.181477	-424.187624	-424.178396	-424.177452	-424.221518	34.909	
C	 0.2571637423	 1.4286775899	 0.0764956738	-0.267471
O	 0.2288029402	 0.0149597265	-0.0129139088	-0.29648
C	 0.633924046	-0.6226723306	 1.1592587023	 0.421019
C	 2.1656583089	-0.6119031557	 1.4746040271	-0.306771
C	 2.1970074149	-2.1654024263	 1.3375430746	-0.218772
C	 0.6552146411	-2.1884049021	 1.2444132902	-0.08574
C	-0.0598332219	-2.0906702277	 2.624824675	-0.290292
C	-0.3136453351	-0.5715529227	 2.3840492478	 0.076488
O	-0.1261757664	 0.3606226327	 3.4202090803	-0.433894
H	 1.2772338051	 1.8066207287	 0.2402415797	 0.105454
H	-0.1122614422	 1.816851819	-0.8753739988	 0.124485
H	-0.3806296986	 1.7994100577	 0.8899253256	 0.126044
H	 2.7499812919	-0.0802993258	 0.7212872322	 0.114456
H	 2.4462440515	-0.2177966269	 2.4570042302	 0.077787
H	 2.6814010767	-2.4843905295	 0.4114426772	 0.107065
H	 2.6372972086	-2.7251634565	 2.1677393744	 0.095097
H	 0.1790853415	-2.8153837617	 0.4918477393	 0.073634
H	-0.9565727603	-2.6993786611	 2.7539445239	 0.108738
H	 0.609034459	-2.2855912129	 3.4704491228	 0.090915
H	-1.3316807779	-0.407833316	 2.016372483	 0.098212
H	 0.7485662047	 0.219257941	 3.7974251681	 0.280028
76.0732	111.4343	154.6851	185.42	221.5269	258.6705	319.6256	339.371	418.1521	440.0882	509.9426	579.4229	658.5161	741.1648	772.6373	828.7126	875.2426	936.4825	942.0443	981.316	1014.8983	1041.9452	1049.2941	1083.5679	1115.8683	1136.7344	1158.1677	1174.5144	1184.599	1203.9305	1221.6921	1228.7144	1243.6611	1263.7351	1278.4289	1296.939	1308.415	1330.0513	1427.5506	1468.5024	1478.2866	1482.5023	1487.8014	1494.7165	1508.9933	2991.0675	3043.1337	3044.6166	3047.3549	3054.7318	3065.4459	3099.2236	3109.1393	3117.162	3119.1465	3125.7557	3808.2096
COC12CCC1CC2O	CO[C@]12CC[C@H]1C[C@H]2O	
InChI=1S/C7H12O2/c1-9-7-3-2-5(7)4-6(7)8/h5-6,8H,2-4H2,1H3	InChI=1S/C7H12O2/c1-9-7-3-2-5(7)4-6(7)8/h5-6,8H,2-4H2,1H3/t5-,6+,7+/m0/s1
