23
gdb 122669	5.10413	0.64581	0.59767	0.9944	83.3	-0.2526	0.0908	0.3434	1944.2086	0.20556	-425.438816	-425.428671	-425.427727	-425.476033	35.612	
C	-0.0222513726	 1.6026768131	 0.0461890517	-0.380674
C	 0.0060758127	 0.0747016392	-0.0437993626	-0.163969
C	-1.3914701236	-0.5533147893	-0.0260678887	-0.163369
C	-1.3622219507	-2.0820222389	-0.1154419957	-0.21864
C	-2.7454266989	-2.7011221798	-0.0852661301	 0.218601
O	-3.5063945857	-2.2923977368	-1.2129619675	-0.266808
C	-4.3492790216	-3.3775869384	-1.5856255179	-0.08763
C	-3.9280803666	-4.5235488961	-0.6389708479	-0.112511
O	-2.6612834767	-4.10571088	-0.1603258758	-0.248566
H	 0.9879545442	 2.0235757384	 0.0270872877	 0.11017
H	-0.580543375	 2.037624248	-0.7902160517	 0.114822
H	-0.5041738937	 1.9360621091	 0.9721401601	 0.112553
H	 0.5268577717	-0.229353096	-0.961399805	 0.095848
H	 0.5974411692	-0.3315183367	 0.7877384877	 0.092898
H	-1.9127530327	-0.2500448596	 0.8928893317	 0.08983
H	-1.98535607	-0.1585711757	-0.8588725319	 0.114496
H	-0.8743472991	-2.4064345564	-1.0415319319	 0.106492
H	-0.7905075654	-2.5030191715	 0.7202675214	 0.104245
H	-3.288379328	-2.4125604306	 0.8372573284	 0.054258
H	-5.4060477286	-3.1097062233	-1.4631513614	 0.102086
H	-4.169568658	-3.618012597	-2.6395771335	 0.109954
H	-4.6430866008	-4.6348903213	 0.1902230638	 0.097957
H	-3.8124168202	-5.4882981404	-1.1374984309	 0.117957
25.8376	60.1182	82.3707	97.3262	139.7993	199.4883	246.7104	277.2213	303.5682	440.3626	538.0577	700.8574	721.7675	739.4493	791.4844	867.0963	876.268	897.6148	948.0013	974.0156	1002.2002	1025.8655	1056.9262	1067.2661	1079.9599	1131.1149	1147.8164	1164.1704	1183.4975	1226.2938	1241.6176	1246.4656	1275.111	1313.1094	1333.2404	1340.8847	1357.0035	1375.9554	1396.3283	1404.7974	1412.7998	1439.5625	1475.5812	1486.4918	1499.2518	1499.8568	1512.8285	1515.7719	1532.5695	2898.3104	2989.7426	3008.5891	3015.5759	3022.4187	3029.2973	3036.2652	3041.0491	3060.5635	3063.3133	3088.2235	3096.917	3100.9915	3107.2061
CCCCC1OCCO1	CCCCC1OCCO1	
InChI=1S/C7H14O2/c1-2-3-4-7-8-5-6-9-7/h7H,2-6H2,1H3	InChI=1S/C7H14O2/c1-2-3-4-7-8-5-6-9-7/h7H,2-6H2,1H3
