19
gdb 38692	2.52637	2.16034	2.07284	0.2938	72.22	-0.2423	0.0856	0.3279	831.6203	0.164813	-423.056921	-423.051136	-423.050192	-423.086637	25.934	
C	-0.0331827601	 1.5469133269	-0.0112606031	-0.215362
C	 1.4808227953	 1.8033144019	 0.0140589626	 0.078553
C	 2.0898030288	 1.2913744676	 1.3427820139	-0.23458
C	 1.7305990113	-0.2068273665	 1.500286859	 0.078554
C	 2.2130251483	-1.0012695713	 0.2776990036	-0.215362
C	 1.3330319084	-0.3105089223	-0.7721897781	 0.067139
O	 1.9225651228	 0.9630198539	-1.0627083444	-0.278204
C	 0.0205560181	 0.0144707238	 0.0391040233	 0.067139
O	 0.3081234038	-0.3655791886	 1.3906567103	-0.278204
H	-0.5893815797	 1.9474085419	 0.8381607708	 0.105697
H	-0.4590083651	 1.9221659743	-0.9460232835	 0.100945
H	 1.7849075875	 2.8261845904	-0.2167526912	 0.076571
H	 3.1772198309	 1.4203134417	 1.3294224607	 0.102801
H	 1.6893774837	 1.8622520272	 2.1871976193	 0.102801
H	 2.0359496482	-0.608882934	 2.468334947	 0.076571
H	 3.2715402088	-0.8900682791	 0.0359325957	 0.105697
H	 1.9680002014	-2.0599006548	 0.4009297731	 0.100945
H	 1.1878932147	-0.851330252	-1.7078742261	 0.07915
H	-0.8785312771	-0.508433181	-0.2884194828	 0.07915
312.5925	361.9493	408.0956	478.3758	496.4738	560.0904	571.6862	727.0169	797.8003	817.8388	823.1075	857.4836	880.0695	890.6589	911.7189	921.5228	924.5683	984.4024	1000.5519	1029.1965	1050.3131	1054.0497	1065.0035	1070.7037	1162.8191	1163.91	1196.7034	1222.7316	1242.4064	1279.5496	1299.4665	1314.6583	1322.1583	1322.3892	1342.4512	1371.0101	1371.4254	1388.9705	1464.284	1472.3754	1482.9103	3043.3027	3063.7415	3064.1034	3090.4717	3094.8572	3096.3918	3104.3409	3116.3195	3126.9443	3128.5745
C1C2CC3CC(O2)C1O3	C1[C@H]2C[C@@H]3C[C@H](O2)[C@H]1O3	
InChI=1S/C7H10O2/c1-4-2-6-7(8-4)3-5(1)9-6/h4-7H,1-3H2	InChI=1S/C7H10O2/c1-4-2-6-7(8-4)3-5(1)9-6/h4-7H,1-3H2/t4-,5-,6+,7+/m1/s1
