16
gdb 34542	4.01159	1.23724	1.03666	5.3685	77.24	-0.2335	-0.0398	0.1937	1124.1645	0.127203	-396.938466	-396.930987	-396.930043	-396.970487	28.598	
N	 0.0769937258	-1.0699683838	-0.2113411915	-0.323791
C	-0.0187681476	 0.0741394787	-0.0763452438	 0.258143
C	-0.0798822312	 1.5086892947	 0.1153122539	 0.265424
N	-1.1375823367	 2.1284639489	-0.2499521407	-0.283875
C	-1.1796965478	 3.5342776388	-0.0071406888	 0.00825
C	-1.0695219226	 4.0504441476	 1.4205851275	-0.294509
C	 0.0566766135	 4.2773528001	 0.4515184693	-0.036852
C	 1.335405214	 3.472158663	 0.5536984017	-0.190593
N	 1.0335231475	 2.0495242498	 0.7266170709	-0.359514
H	-1.8796112337	 4.0494481896	-0.6551690232	 0.101685
H	-1.69156832	 4.8938191684	 1.6980694288	 0.123591
H	-0.9341503834	 3.3103044904	 2.2016968912	 0.134826
H	 0.2011737456	 5.2846309343	 0.0739691309	 0.098127
H	 1.9266797934	 3.6356538085	-0.3600157491	 0.117795
H	 1.9476607888	 3.7965747519	 1.4033364129	 0.120287
H	 1.8289946543	 1.4353817593	 0.81156948	 0.261007
109.8516	148.8215	166.029	294.1942	343.2486	428.018	495.4427	525.8094	554.6306	598.8488	690.322	722.2599	764.5986	824.7221	836.5751	941.7441	946.3561	1002.0695	1028.5409	1055.9387	1094.304	1127.9764	1138.8012	1190.2789	1222.6787	1257.7951	1271.2489	1335.9791	1376.5063	1410.2739	1483.5402	1510.9127	1538.5498	1693.2077	2356.3312	2986.8793	3043.4815	3138.6786	3159.1366	3172.3759	3228.486	3620.0814
N#CC1=NC2CC2CN1	N#CC1=N[C@H]2C[C@H]2CN1	
InChI=1S/C6H7N3/c7-2-6-8-3-4-1-5(4)9-6/h4-5H,1,3H2,(H,8,9)	InChI=1S/C6H7N3/c7-2-6-8-3-4-1-5(4)9-6/h4-5H,1,3H2,(H,8,9)/t4-,5-/m0/s1
