14
gdb 45696	3.71748	1.47574	1.1257	3.4165	62.63	-0.2627	-0.0131	0.2496	1004.8955	0.102383	-473.833156	-473.82635	-473.825406	-473.86466	25.682	
O	-0.0111534122	 0.1257605849	 0.6861230296	-0.303251
C	-0.0109520214	 1.1556161492	 0.0797714794	 0.398996
C	-1.3013736839	 1.8978620802	-0.3249005011	-0.307686
N	-1.2079035174	 3.3695716046	-0.3291810652	-0.30378
C	-0.0819856578	 3.696446612	-0.770584874	 0.442164
O	 0.5916465466	 4.8867323555	-0.759710184	-0.265286
C	 1.8733174393	 4.154096941	-0.7986677985	-0.122932
C	 1.0997802971	 2.8535259348	-1.124889375	-0.034289
O	 1.1927833595	 1.7212309147	-0.2816082287	-0.232171
H	-1.6112987963	 1.516617769	-1.3084276107	 0.1459
H	-2.064521156	 1.5849696702	 0.3882720478	 0.160242
H	 2.5327892978	 4.5504027458	-1.5710085606	 0.139747
H	 2.347730924	 4.1580177041	 0.184400938	 0.151612
H	 1.1852343806	 2.559775664	-2.1755608772	 0.130736
100.0006	161.26	268.8078	343.7661	395.6109	450.719	501.7185	560.096	621.7724	728.3995	756.3241	808.4861	887.8199	930.2732	973.5931	990.8124	1068.6095	1072.0783	1138.4396	1147.082	1174.5315	1197.122	1234.6682	1252.667	1317.4881	1346.1703	1391.1362	1470.2878	1502.0681	1828.6373	1869.1868	3015.4611	3065.0663	3083.253	3129.8037	3157.7832
O=C1CN=C2OCC2O1	O=C1C[N][C]2OC[C@H]2O1	
InChI=1S/C5H5NO3/c7-4-1-6-5-3(9-4)2-8-5/h3H,1-2H2	InChI=1S/C5H5NO3/c7-4-1-6-5-3(9-4)2-8-5/h3H,1-2H2/t3-/m1/s1
