15
gdb 14621	8.56069	0.6501	0.62533	4.0631	63.99	-0.2915	-0.005	0.2864	1649.1418	0.117507	-399.835206	-399.826471	-399.825527	-399.870339	28.666	
O	 0.2002750631	 0.0503460932	-0.1936320008	-0.263348
C	 0.2393834195	 1.2380927867	-0.2836893533	 0.172575
O	 0.8121462048	 2.0222505635	 0.6535949968	-0.175095
C	 0.8364216287	 3.4327755047	 0.4325196715	-0.092121
C	 2.2615290141	 3.8924800757	 0.1388977494	-0.189935
C	 2.3367766675	 5.4260728585	 0.0067087635	-0.345086
C	 3.6912556454	 5.892869891	-0.2781424252	 0.26151
N	 4.7670101054	 6.2477337872	-0.5046867632	-0.293219
H	-0.1871758609	 1.8203154756	-1.1249258536	 0.079494
H	 0.1597834344	 3.6990213782	-0.3912818707	 0.114869
H	 0.4530732781	 3.9010728258	 1.3451129197	 0.131843
H	 2.9206750151	 3.5556892358	 0.9441978425	 0.146993
H	 2.6168448592	 3.4232548606	-0.7840960866	 0.135022
H	 1.6755404276	 5.7765068475	-0.7949729678	 0.157033
H	 1.9919176679	 5.9064346662	 0.930149308	 0.159465
34.0551	84.7659	88.8525	119.3991	166.9058	278.4209	360.5391	382.3707	395.3302	558.3584	672.8456	750.8227	857.163	942.4733	1028.8222	1041.2338	1052.2677	1067.1512	1110.6938	1157.7556	1254.0006	1277.6497	1314.18	1334.5193	1373.8097	1412.1503	1436.0375	1470.4377	1493.842	1511.6788	1874.7562	2367.391	2938.4124	3013.6917	3036.1635	3059.9795	3071.1973	3075.8325	3113.8248
O=COCCCC#N	O=COCCCC#N	
InChI=1S/C5H7NO2/c6-3-1-2-4-8-5-7/h5H,1-2,4H2	InChI=1S/C5H7NO2/c6-3-1-2-4-8-5-7/h5H,1-2,4H2
