16
gdb 25732	2.76831	1.56676	1.00377	5.4655	80.49	-0.1804	-0.0225	0.158	1116.2943	0.126655	-434.117808	-434.109773	-434.108829	-434.150007	31.522	
N	 0.0481034166	 1.4046480617	 0.0692472143	-0.570398
C	-0.0130482195	 0.0225956121	 0.0115185101	 0.265584
N	 1.1707866718	-0.649944701	-0.0689543883	-0.558507
H	 1.9668011162	-0.241180307	 0.3965948519	 0.248144
H	 1.0428686758	-1.6655278432	 0.0148591314	 0.289038
C	-1.189254737	-0.6802265859	 0.0429334005	 0.141197
C	-1.2846453717	-2.135252352	-0.0073332365	 0.347141
O	-0.3323146108	-2.9339794044	-0.0472835268	-0.458033
C	-2.7221718373	-2.4029262949	-0.0342941792	-0.247922
C	-3.3719010308	-1.212288109	 0.0216951051	-0.037114
N	-2.4976268539	-0.1348441033	-0.0081883207	-0.400307
H	 0.865813737	 1.7950456648	-0.3804838475	 0.255629
H	-0.7944521847	 1.8650831267	-0.2460333516	 0.257996
H	-3.1702554019	-3.3823255996	-0.0970067241	 0.104091
H	-4.43511159	-1.0190872197	 0.0691863517	 0.119313
H	-2.7306694798	 0.6589425148	 0.5736314495	 0.244147
128.2201	160.0725	204.7437	289.7267	319.2246	379.5712	423.4689	443.5735	499.9745	554.2875	580.734	617.3377	651.3557	715.721	728.3781	741.103	788.3617	823.478	861.8515	895.1872	1037.7318	1084.9551	1108.4824	1136.4938	1149.8711	1267.4894	1313.7044	1375.5081	1411.058	1462.4721	1570.3547	1593.1983	1655.1714	1693.6281	1734.366	3225.288	3261.3039	3304.1548	3549.6464	3571.0062	3634.954	3647.9621
NC(=[NH2+])C1=C([O-])C=CN1	NC(=[NH2])[C]1C(=O)C=CN1	
InChI=1S/C5H7N3O/c6-5(7)4-3(9)1-2-8-4/h1-2,8-9H,(H3,6,7)	InChI=1S/C5H7N3O/c6-5(7)4-3(9)1-2-8-4/h1-2,8H,6-7H2
