12
gdb 25293	8.1716	0.66529	0.61521	3.7636	79.23	-0.2578	-0.0794	0.1784	1643.7263	0.077635	-435.490173	-435.482542	-435.481598	-435.523723	25.907	
O	-0.0941572721	-0.0226167723	-0.0016911867	-0.231519
C	-0.0068119221	 1.1851595711	 0.0076236366	-0.005901
C	 1.2338020888	 1.9100409256	-0.0004216347	 0.217287
C	 2.26302331	 2.5469484838	-0.0067318867	-0.077218
C	 3.4732530116	 3.2637028082	-0.0146643445	 0.097535
C	 4.7450172021	 2.7666196181	-0.0331974056	-0.099467
O	 5.6077134796	 3.809356745	-0.0343755919	-0.126111
C	 4.8098153081	 4.9117706678	-0.0164227952	 0.068266
N	 3.5471476791	 4.6644498229	-0.004182419	-0.289302
H	-0.9058376987	 1.8335647604	 0.0233614452	 0.105131
H	 5.162609869	 1.7749585322	-0.0459969975	 0.175293
H	 5.3093220446	 5.8675509672	-0.0143266701	 0.166005
67.0075	72.6799	112.2697	206.8339	263.5808	413.4564	506.3376	521.0606	637.7221	703.8931	711.1959	810.3381	858.7465	927.3792	947.4964	1018.0294	1036.8987	1085.1758	1141.816	1238.6595	1296.6636	1342.0779	1420.0989	1565.1246	1588.5896	1757.5603	2316.3898	2925.756	3283.5224	3301.3194
O=CC#CC1=COC=N1	O=CC#Cc1cocn1	
InChI=1S/C6H3NO2/c8-3-1-2-6-4-9-5-7-6/h3-5H	InChI=1S/C6H3NO2/c8-3-1-2-6-4-9-5-7-6/h3-5H
