21
gdb 44949	2.39689	1.71406	1.49812	2.8705	80.43	-0.2303	-0.0106	0.2197	1011.7849	0.18642	-387.147394	-387.140098	-387.139154	-387.178823	30.379	
O	-0.0123294725	 0.0011461103	 0.028323818	-0.335402
C	-0.0285929311	 1.2042768781	-0.0135199069	 0.41902
C	-1.282635337	 2.0926286872	-0.0831145936	-0.327533
C	-0.7405482321	 3.5311365707	 0.0523419313	-0.007207
C	 0.6375695889	 3.4146663667	-0.6423708211	-0.229929
C	 1.1928892984	 2.1341813894	 0.0045998614	-0.102003
C	 1.5614844777	 2.4316550893	 1.4807212981	-0.204892
C	 0.3362924584	 2.9062904535	 2.2885184695	-0.207712
C	-0.5219726128	 3.9361208276	 1.5254430941	-0.199489
H	-1.751084335	 1.9375850908	-1.0630305023	 0.125766
H	-2.0156070143	 1.7945547175	 0.6722866518	 0.122464
H	-1.3911562658	 4.2605886948	-0.4375206887	 0.066586
H	 0.5213894692	 3.2924283342	-1.7253604035	 0.09483
H	 1.2740041373	 4.2882124464	-0.4702259315	 0.094938
H	 2.0375727998	 1.6790057186	-0.5165784788	 0.081969
H	 1.9895776638	 1.5376835792	 1.9454730945	 0.111628
H	 2.341855801	 3.2028736283	 1.4843241342	 0.097722
H	-0.283095363	 2.0343663705	 2.5325249049	 0.113592
H	 0.6571301985	 3.3210816582	 3.2497244858	 0.096989
H	-0.0311502169	 4.9175516056	 1.5447615184	 0.094093
H	-1.4856708326	 4.0596571333	 2.0332497144	 0.094569
107.7832	229.5603	253.1446	339.8011	400.8796	417.0298	471.3946	498.7837	592.4216	637.3456	712.9315	782.53	794.2136	829.6198	871.3791	877.1705	887.8296	931.2218	959.5337	1002.2734	1018.9038	1031.7569	1065.7863	1085.4837	1118.8772	1139.6692	1156.2109	1177.142	1210.0091	1247.09	1274.4837	1285.5483	1298.6403	1324.7171	1342.9501	1347.0363	1369.8166	1380.7564	1391.6524	1448.5224	1482.1418	1484.9156	1496.6642	1507.4135	1845.6115	3020.5153	3024.5669	3030.5243	3034.7757	3038.2781	3059.7782	3069.6155	3072.0967	3079.9536	3083.8599	3092.5451	3093.8129
O=C1CC2CC1CCC2	O=C1C[C@@H]2C[C@H]1CCC2	
InChI=1S/C8H12O/c9-8-5-6-2-1-3-7(8)4-6/h6-7H,1-5H2	InChI=1S/C8H12O/c9-8-5-6-2-1-3-7(8)4-6/h6-7H,1-5H2/t6-,7+/m0/s1
