20
gdb 67561	2.80888	2.02571	1.48341	1.6139	81.63	-0.2213	0.0944	0.3157	949.138	0.172903	-365.929376	-365.922456	-365.921511	-365.960059	29.778	
C	 0.0445002437	 1.5313105248	-0.0543690314	-0.511313
C	 0.046477746	 0.0181613073	 0.0034423499	 0.361535
C	 0.5204058426	-0.7329381011	-1.2396427152	-0.12431
C	 1.7293903103	-1.6339012784	-1.0796036912	-0.30625
C	 0.3529329194	-2.1439916618	-0.750560097	-0.001791
N	-0.1485499008	-2.0104685852	 0.6298195263	-0.14206
C	 0.5435526667	-0.7912675842	 1.2506291674	-0.072859
C	-0.7574878005	-0.4991025955	 2.0183888949	-0.259315
C	-1.1550545927	-0.8477680578	 0.5795278607	-0.053334
H	 1.058516742	 1.9110771226	-0.2218164519	 0.123574
H	-0.5774597568	 1.8873074487	-0.8835436255	 0.119339
H	-0.3351448165	 1.9874791185	 0.8643553632	 0.117527
H	 0.2148000367	-0.3900099165	-2.2216808293	 0.081899
H	 2.1720924923	-2.0171619775	-1.9939420771	 0.109046
H	 2.4507476754	-1.446703626	-0.2922150668	 0.114469
H	-0.0935706846	-2.9443786371	-1.3279437852	 0.090852
H	 1.5531119166	-0.8593492526	 1.6601687755	 0.076178
H	-1.0280996931	-1.2350568195	 2.7759010567	 0.107548
H	-0.9220019233	 0.5237777403	 2.3566562955	 0.095953
H	-2.1504460336	-0.983699759	 0.1497674804	 0.07331
207.0503	225.6897	300.4406	332.1385	361.2964	457.0256	526.0965	604.8458	682.0543	689.2387	743.7324	802.6637	818.9083	824.4967	871.0424	889.9962	921.6777	928.4753	962.1636	997.5593	1023.7551	1032.2042	1054.7029	1074.4202	1089.3111	1093.4444	1121.8172	1132.8073	1156.692	1160.9572	1186.689	1193.828	1217.0316	1228.0259	1256.8384	1295.5162	1327.3056	1371.2766	1413.0167	1486.4658	1490.0745	1491.1028	1507.3649	3029.8863	3080.4216	3085.2159	3088.4853	3097.8991	3106.5533	3131.5705	3155.379	3170.3152	3185.5225	3212.9923
CC12C3CC3N3C1CC23	C[C@@]12[C@H]3C[C@H]3N3[C@@H]1C[C@@H]23	
InChI=1S/C8H11N/c1-8-4-2-5(4)9-6(8)3-7(8)9/h4-7H,2-3H2,1H3	InChI=1S/C8H11N/c1-8-4-2-5(4)9-6(8)3-7(8)9/h4-7H,2-3H2,1H3/t4-,5+,6-,7+,8-/m0/s1
