21
gdb 81047	2.38404	1.4415	1.16781	2.8517	83.66	-0.2345	-0.0142	0.2203	1171.624	0.181433	-387.065089	-387.055915	-387.054971	-387.099533	34.495	
C	-0.2416449069	 1.5071870672	-0.0629434024	-0.44744
C	 0.0271795038	 0.0120816972	 0.0012629169	 0.026469
C	 1.2588753295	-0.6425260602	-0.7025038377	-0.069108
C	 2.1632180641	-0.0744022465	 0.4290341984	-0.283494
C	 0.8990115102	-0.6535199958	 1.1455864787	 0.263801
C	 1.0226020682	-1.8833665063	 0.2069060647	-0.257516
C	 0.5705512047	-0.6833586278	 2.6109497543	 0.2366
C	 0.8342002593	 0.5887617125	 3.396467691	-0.494029
O	 0.1087478988	-1.6772095175	 3.1277187855	-0.29699
H	 0.6425423159	 2.1220052866	 0.122158703	 0.119347
H	-0.6250727472	 1.7740858075	-1.0542370331	 0.122705
H	-1.0079719421	 1.7949167292	 0.6654298198	 0.122096
H	-0.9057421693	-0.5370763062	-0.1691588984	 0.075988
H	 1.4741659157	-0.6454733054	-1.7720821209	 0.072628
H	 3.0974958128	-0.6106455902	 0.6166490074	 0.0975
H	 2.3228107697	 1.003783579	 0.4619906778	 0.095152
H	 0.1104990069	-2.4588867757	 0.0353311748	 0.101153
H	 1.8832988147	-2.5329048471	 0.3820994657	 0.094409
H	 0.3447865045	 1.4462074931	 2.9215207339	 0.138595
H	 0.4753037886	 0.4737041518	 4.4200438375	 0.139836
H	 1.9087021781	 0.8054179045	 3.406603723	 0.142296
36.65	129.0223	133.4874	164.6563	192.9474	293.0579	337.317	351.8783	461.5958	537.3572	564.2038	598.6294	623.7786	761.0135	787.9966	818.8167	895.5477	916.5823	940.387	984.9194	998.6412	1009.5896	1035.4149	1047.3641	1099.4521	1110.426	1127.9058	1135.2789	1150.1476	1161.239	1174.6134	1219.1045	1241.8851	1245.8107	1326.7579	1381.151	1405.5247	1422.3283	1461.7704	1471.8844	1490.5493	1494.0341	1511.7201	1542.4789	1796.3341	3032.2628	3035.7739	3041.5682	3061.3267	3064.6744	3087.753	3096.734	3101.0891	3114.6687	3130.7339	3131.6207	3150.4941
CC1C2CC1(C2)C(C)=O	C[C@H]1[C@H]2C[C@@]1(C2)C(=O)C	
InChI=1S/C8H12O/c1-5-7-3-8(5,4-7)6(2)9/h5,7H,3-4H2,1-2H3	InChI=1S/C8H12O/c1-5-7-3-8(5,4-7)6(2)9/h5,7H,3-4H2,1-2H3/t5-,7-,8-/m0/s1
