20
gdb 75410	2.52146	1.54435	1.092	2.0169	81.91	-0.2337	0.0004	0.2341	1161.4656	0.171833	-403.153721	-403.145169	-403.144225	-403.186596	32.937	
C	-0.072691176	 1.4594524826	 0.0306898116	-0.450578
C	-0.0208514747	-0.0317531929	-0.1244274847	 0.36868
N	-0.0030712451	-0.5913350197	-1.2572118469	-0.251665
C	 0.0601889439	-2.057461408	-1.2961965743	-0.212706
C	-1.3194219275	-2.6656464592	-1.1938291101	-0.043205
C	-1.9382061758	-2.9335172671	-0.0436931449	-0.051644
C	-1.3752160589	-2.6918908699	 1.3375324116	-0.256451
C	-1.098039481	-1.2197474276	 1.6905383322	-0.076618
O	 0.0898154658	-0.6966753029	 1.0851315441	-0.269063
H	 0.7989796438	 1.804983677	 0.5963598179	 0.139295
H	-0.0966808443	 1.9423830714	-0.9458812672	 0.141878
H	-0.959956116	 1.7530537666	 0.6044620024	 0.127947
H	 0.5173586317	-2.3370694272	-2.2495637756	 0.100128
H	 0.6950600354	-2.4405227892	-0.48666996	 0.108457
H	-1.840145404	-2.8525068478	-2.129462475	 0.092371
H	-2.9459830427	-3.34088779	-0.0838999981	 0.088381
H	-2.0765019885	-3.0750627924	 2.0875018255	 0.101941
H	-0.4388566901	-3.2451063916	 1.483415133	 0.125463
H	-1.9606275534	-0.5935317583	 1.4320766669	 0.10665
H	-0.9300324926	-1.1368480938	 2.7694063516	 0.11074
106.9434	150.2235	186.9281	224.3125	255.2551	290.5881	329.1931	387.7003	465.9073	497.969	603.6995	625.8986	676.3911	744.0681	769.833	845.9103	922.8967	938.6487	978.9314	1000.4108	1020.9019	1041.2248	1067.0895	1083.5674	1086.1163	1111.5477	1202.1366	1230.9556	1259.8516	1281.9037	1311.3548	1348.9155	1358.9912	1398.4047	1406.0253	1425.7187	1470.6667	1471.9704	1478.6531	1495.5028	1507.2405	1719.7261	1749.6115	3017.9495	3024.5603	3028.3229	3035.5791	3070.747	3078.5464	3079.7054	3091.5519	3141.8742	3158.3647	3169.0456
CC1=NCC=CCCO1	CC1=NCC=CCCO1	
InChI=1S/C7H11NO/c1-7-8-5-3-2-4-6-9-7/h2-3H,4-6H2,1H3/b3-2-,8-7-	InChI=1S/C7H11NO/c1-7-8-5-3-2-4-6-9-7/h2-3H,4-6H2,1H3/b3-2-,8-7-
