17
gdb 45551	3.27604	1.5005	1.29312	3.7422	68.64	-0.2285	0.0645	0.293	1003.2717	0.139507	-455.18145	-455.174215	-455.17327	-455.213688	27.915	
N	 0.1406196235	 1.3290472779	 0.0826205342	-0.59052
C	 0.0877516205	 0.0668589435	 0.0200776393	 0.445231
N	-1.0442179016	-0.6725187868	-0.2406783343	-0.330517
C	-0.7624144402	-2.0673805324	-0.4792212532	-0.055109
C	-0.752993994	-2.5157367665	-1.9588996215	-0.23596
C	 0.7163006837	-2.3327950273	-2.3581001553	-0.102152
O	 1.4437253098	-2.6531583683	-1.166602423	-0.235738
C	 0.7436262123	-2.1488173321	-0.0772362685	 0.205737
O	 1.1271896303	-0.8022138106	 0.2278135653	-0.257001
H	 1.084774721	 1.6311163377	 0.30931458	 0.224162
H	-1.838792483	-0.2005781233	-0.6375970499	 0.25956
H	-1.3942866287	-2.7143168933	 0.1362126803	 0.097751
H	-1.034014944	-3.5706505606	-2.0283400109	 0.116669
H	-1.4450119717	-1.9339884818	-2.5722420324	 0.110444
H	 1.0540725455	-3.0139529935	-3.1411215475	 0.121148
H	 0.9288595613	-1.3025719536	-2.6732617621	 0.120395
H	 0.9854115154	-2.765056529	 0.7898903796	 0.1059
70.1792	97.4595	217.9722	364.2365	398.3766	442.5931	520.7062	597.9778	658.5947	697.5456	719.9654	783.7215	836.7022	853.3714	893.3282	929.7231	947.5832	959.1594	995.8731	1033.5532	1047.7805	1087.7369	1133.8074	1160.5212	1201.7852	1237.4395	1283.0218	1287.878	1328.7799	1341.9867	1375.9964	1397.4793	1414.6815	1434.193	1480.2115	1521.5009	1792.4235	3022.0671	3053.3685	3066.98	3108.8009	3113.2392	3121.9239	3534.8347	3669.3156
N=C1NC2CCOC2O1	[NH][C]1N[C@H]2CCO[C@H]2O1	
InChI=1S/C5H8N2O2/c6-5-7-3-1-2-8-4(3)9-5/h3-4H,1-2H2,(H2,6,7)	InChI=1S/C5H8N2O2/c6-5-7-3-1-2-8-4(3)9-5/h3-4H,1-2H2,(H2,6,7)/t3-,4-/m0/s1
