16
gdb 29736	3.3548	1.33094	0.95865	1.9505	84.58	-0.1809	0.0112	0.1921	1167.6799	0.123129	-400.754764	-400.745654	-400.74471	-400.789019	33.214	
C	 0.0263222758	 1.4344124869	 0.0304718506	-0.342693
N	 0.0401186418	-0.0151099919	 0.0193690319	-0.122911
C	 0.1007707946	-0.7857740334	-1.0980286638	 0.35892
O	 0.1441606776	-0.1456298221	-2.2917562272	-0.441959
C	 0.1052735287	-2.1224089097	-0.7512661604	-0.285441
C	 0.0446935125	-2.1626971644	 0.6632207391	-0.247903
C	 0.0053544611	-0.8624444113	 1.1347757573	 0.158179
C	-0.0598674165	-0.368752175	 2.4479794579	 0.269664
C	-0.1161727538	 0.0601089405	 3.5752891021	-0.480147
H	 0.9587211818	 1.8383222048	-0.3758803235	 0.141313
H	-0.8066810291	 1.8165823309	-0.5661426677	 0.143118
H	-0.0873299965	 1.7655222691	 1.06274073	 0.156231
H	 0.1764104929	-0.8067661084	-2.9897757338	 0.309986
H	 0.1464082431	-2.9582665907	-1.4321286867	 0.093957
H	 0.0294650507	-3.0434438447	 1.2853864037	 0.104724
H	-0.1651897947	 0.4240228093	 4.5710552306	 0.184961
36.7131	113.6813	149.9509	183.6326	262.1697	287.6172	297.5965	418.1916	429.4339	477.0319	535.2574	586.3009	642.7064	670.9707	682.1907	710.316	723.7832	757.3092	810.5953	977.7754	1043.8238	1139.6586	1156.0005	1180.0461	1240.5241	1279.7042	1347.9932	1385.2951	1450.9357	1486.7944	1511.0783	1516.9918	1573.5959	1602.5038	2212.7806	3044.7796	3104.4239	3155.9656	3246.0972	3265.1467	3503.4859	3846.5035
CN1C(O)=CC=C1C#C	Cn1c(O)ccc1C#C	
InChI=1S/C7H7NO/c1-3-6-4-5-7(9)8(6)2/h1,4-5,9H,2H3	InChI=1S/C7H7NO/c1-3-6-4-5-7(9)8(6)2/h1,4-5,9H,2H3
