12
gdb 49130	3.57796	1.2443	0.92323	2.4616	65.37	-0.2676	-0.1261	0.1415	1131.9545	0.077453	-472.700962	-472.693449	-472.692505	-472.733629	26.607	
O	-0.1207200111	-0.0047491419	 0.001036254	-0.225885
C	-0.0183819481	 1.194664712	 0.0079558779	 0.095282
C	 1.2595747326	 1.9382899456	 0.0008625792	 0.103978
C	 1.3879479077	 3.2728595795	 0.0105982606	-0.322251
C	 2.8448578876	 3.6390114002	-0.0012126043	 0.464802
O	 3.3370714352	 4.7386878062	 0.0029717435	-0.329826
N	 3.5165566802	 2.4216598785	-0.0177315354	-0.409059
C	 2.646478904	 1.3253278175	-0.0180390125	 0.39307
O	 2.9705628085	 0.1699660359	-0.031278207	-0.302352
H	-0.9106589228	 1.858924832	 0.0208281656	 0.090319
H	 0.6086631006	 4.0234475929	 0.0246181917	 0.159779
H	 4.5208200056	 2.3324473516	-0.0289041932	 0.282142
72.4387	140.6601	169.1882	211.0717	369.9574	371.5284	427.6186	545.9288	551.2866	641.0016	711.5876	740.9901	764.1029	793.5762	907.8341	928.7422	1038.8261	1078.2305	1166.4921	1314.1987	1335.5395	1343.6575	1427.1549	1661.1294	1799.5944	1836.5946	1875.8594	2888.5513	3234.1439	3650.5737
O=CC1=CC(=O)NC1=O	O=CC1=CC(=O)NC1=O	
InChI=1S/C5H3NO3/c7-2-3-1-4(8)6-5(3)9/h1-2H,(H,6,8,9)	InChI=1S/C5H3NO3/c7-2-3-1-4(8)6-5(3)9/h1-2H,(H,6,8,9)
