19
gdb 95359	2.8801	1.5798	1.12145	3.1144	77.09	-0.2493	0.0021	0.2514	1104.8127	0.16069	-423.030353	-423.022449	-423.021505	-423.06293	30.117	
C	-0.4330924931	 1.4271970952	 0.1265667078	-0.413116
C	 0.0343335215	-0.0154777503	-0.0290798618	-0.100322
C	 1.2267704112	-0.2018317507	-1.0181189592	-0.074771
O	 1.8923873698	-1.4223453642	-0.6636564213	-0.273688
C	 1.5188675402	-1.7975112304	 0.6540445009	 0.189744
O	 2.5821249424	-1.9309788461	 1.5725291989	-0.274219
C	 2.2977216251	-1.1432457284	 2.7342777149	-0.111048
C	 1.1357657701	-0.2622854037	 2.3445919323	-0.235594
C	 0.6919053901	-0.6449222731	 1.153758526	 0.216545
H	 0.3833160934	 2.0654520428	 0.4800430727	 0.1231
H	-0.7898793471	 1.829379755	-0.8269358774	 0.121352
H	-1.2548758598	 1.4993732888	 0.8454854375	 0.124088
H	-0.7982895458	-0.6413005505	-0.3786840648	 0.091832
H	 0.9092116461	-0.2794574485	-2.0624922816	 0.108128
H	 1.9152632256	 0.6507933901	-0.9245300946	 0.099394
H	 1.0106992963	-2.7713744246	 0.5763914084	 0.07349
H	 2.0836633732	-1.8065096958	 3.5865924242	 0.110196
H	 3.1812965847	-0.546128216	 2.9996045285	 0.116351
H	 0.8279253362	 0.5997944805	 2.9227660589	 0.108538
99.7414	136.7537	163.1167	221.1932	257.1801	344.9135	436.9931	484.0576	603.3718	613.2219	708.2399	788.4074	823.9293	886.4234	900.1987	934.9835	951.9779	961.944	988.6037	1025.1109	1042.327	1056.3774	1085.699	1120.7562	1137.4364	1184.2917	1194.7569	1221.939	1269.0381	1297.4313	1330.4076	1356.1992	1371.8716	1405.2838	1407.1976	1413.1441	1495.8145	1500.5284	1514.9876	1520.7144	1744.778	2974.6427	2986.1752	2995.583	3012.7943	3021.4385	3036.2673	3077.7823	3105.805	3108.0487	3214.7102
CC1COC2OCC=C12	C[C@H]1CO[C@H]2OC[CH][C]12	
InChI=1S/C7H10O2/c1-5-4-9-7-6(5)2-3-8-7/h2,5,7H,3-4H2,1H3	InChI=1S/C7H10O2/c1-5-4-9-7-6(5)2-3-8-7/h2,5,7H,3-4H2,1H3/t5-,7+/m0/s1
