18
gdb 26378	4.1734	0.91492	0.89566	3.0255	76.84	-0.2152	0.0164	0.2316	1390.8902	0.146363	-439.101903	-439.092989	-439.092045	-439.137203	32.449	
C	-0.0606487175	 1.540982759	 0.0290015399	-0.365792
C	-0.0036787613	 0.0089312701	 0.0107102484	 0.043608
C	 0.7066985088	-0.5383101803	 1.2545949795	-0.365867
N	-1.3696623495	-0.5109447029	-0.0167929582	-0.364776
C	-1.7514332627	-1.2348604545	-0.959398279	 0.522402
O	-1.0414863972	-1.6590320151	-2.0681667412	-0.227751
C	-1.9024677307	-2.4388271451	-2.8167239746	-0.056607
C	-3.0782068025	-2.49258629	-2.2032164501	-0.047155
O	-3.0196691227	-1.7525458757	-1.0411706687	-0.221386
H	 0.9484821238	 1.9633517687	 0.0757432832	 0.105538
H	-0.5527548183	 1.9244294682	-0.8696989969	 0.111132
H	-0.6258858293	 1.8893441074	 0.8990658823	 0.122658
H	 0.5617825778	-0.3060655666	-0.8778679874	 0.080907
H	 0.1617585778	-0.2519089498	 2.1595412334	 0.122813
H	 0.7618916658	-1.6305368959	 1.2241682345	 0.111066
H	 1.7260533062	-0.1439650172	 1.320995168	 0.105751
H	-1.5203248194	-2.8618023491	-3.7284994427	 0.160754
H	-4.0109847291	-2.9765828113	-2.4304160802	 0.162705
12.6486	112.9106	151.7006	196.9257	222.2224	254.8037	309.9509	441.8447	462.2719	504.1488	564.5482	709.0379	732.2938	746.9985	794.6882	831.3569	880.2623	907.6192	930.0217	952.42	1006.4281	1055.1139	1097.7724	1127.0011	1136.2048	1168.2675	1191.454	1209.6133	1361.9784	1363.3178	1387.3634	1393.8257	1413.5082	1481.1082	1487.0483	1493.7163	1509.367	1682.6031	1832.6482	2999.9174	3032.327	3037.0367	3104.8029	3109.5287	3110.5851	3115.5396	3296.4228	3322.6928
CC(C)N=C1OC=CO1	CC(C)N=c1occo1	
InChI=1S/C6H9NO2/c1-5(2)7-6-8-3-4-9-6/h3-5H,1-2H3	InChI=1S/C6H9NO2/c1-5(2)7-6-8-3-4-9-6/h3-5H,1-2H3
