14
gdb 125661	3.46152	1.79977	1.19288	1.9275	68.39	-0.2386	-0.0059	0.2327	957.0968	0.104641	-429.070981	-429.064078	-429.063134	-429.10233	25.679	
C	-0.0253745221	 1.4812498477	 0.037423584	-0.487042
C	 0.0022337234	-0.0018060437	 0.015021898	 0.364346
N	 0.000624292	-0.75530583	-1.0586659551	-0.252359
N	 0.0318820573	-2.0591084188	-0.6165869774	-0.367909
C	 0.0525064644	-2.107204282	 0.7346582594	 0.507437
N	 0.0828228211	-2.9344768421	 1.7651191879	-0.400235
C	 0.0809444557	-2.0350173908	 2.798406354	 0.039408
N	 0.052349001	-0.7368824006	 2.4968498882	-0.291538
N	 0.0340033854	-0.8055499668	 1.1324358506	-0.007926
H	 0.8567990579	 1.8783685869	 0.5496551826	 0.156881
H	-0.0468317511	 1.8566770045	-0.9861180351	 0.158553
H	-0.907140336	 1.8451949363	 0.5744188433	 0.156875
H	 0.0352829651	-2.811972104	-1.2803590268	 0.292441
H	 0.1017743759	-2.3550775865	 3.8304350467	 0.131068
130.0601	179.6289	247.4615	263.4208	304.5612	426.7611	543.2784	642.7436	656.0913	662.2741	727.4263	771.2181	848.9269	918.7291	975.5852	1001.6149	1068.6306	1102.6351	1159.5593	1199.7244	1243.6429	1268.96	1356.3417	1398.3081	1414.476	1441.8322	1472.9879	1475.5763	1499.1899	1605.0281	1656.2155	3047.5931	3103.7888	3156.3298	3253.5126	3707.9402
CC1=NNC2=NC=NN12	Cc1n[nH]c2ncnn12	
InChI=1S/C4H5N5/c1-3-7-8-4-5-2-6-9(3)4/h2H,1H3,(H,5,6,8)	InChI=1S/C4H5N5/c1-3-7-8-4-5-2-6-9(3)4/h2H,1H3,(H,5,6,8)
