19
gdb 94981	2.72214	1.77049	1.35088	1.7115	75.23	-0.2493	0.0602	0.3095	990.58	0.160876	-422.946236	-422.938873	-422.937928	-422.978071	29.71	
O	-0.1797780094	 1.4415256275	 0.0935348767	-0.433121
C	-0.0225946604	 0.0396950441	-0.0050905513	-0.079035
C	 0.5977461032	-0.6181644291	 1.301310177	-0.108334
O	-0.1892816334	-1.762487556	 1.6989695415	-0.288605
C	-1.0551125338	-2.0402380168	 0.6161487983	 0.129161
C	-2.615690653	-1.9151012312	 0.6228962301	-0.106971
C	-2.427507598	-0.4523330053	 1.0901369048	-0.244644
C	-1.3388260997	-0.684569028	-0.012556648	 0.345493
C	-2.4445445418	-1.3873133549	-0.8551237654	-0.327555
H	 0.6925763775	 1.8475979866	 0.0884709266	 0.287008
H	 0.5857729787	-0.2266694747	-0.882047216	 0.075801
H	 1.6348714365	-0.9352235378	 1.1321864885	 0.097335
H	 0.5795245013	 0.1184198086	 2.1120104395	 0.110979
H	-0.6501518467	-2.8378227434	-0.0212551413	 0.061324
H	-3.3534519797	-2.6410866135	 0.9663315944	 0.075267
H	-3.2208778172	 0.251721784	 0.8310443091	 0.092035
H	-2.0712745804	-0.3085676849	 2.109107307	 0.112706
H	-2.1107470834	-2.109665499	-1.6055051204	 0.096097
H	-3.2563999303	-0.7616938061	-1.2299460011	 0.105058
74.1275	186.8273	271.5992	288.1304	346.7951	438.9019	497.572	527.0838	589.0896	671.5911	709.8409	778.9981	846.5682	878.9094	901.1922	928.7665	948.2279	973.1199	992.1155	1011.0492	1021.4042	1065.7303	1086.7534	1093.847	1116.14	1135.5998	1147.247	1174.756	1202.0263	1218.3508	1226.8345	1234.2081	1259.1652	1290.6313	1331.5679	1347.4166	1388.1192	1447.5682	1491.24	1509.5841	1530.493	2989.0997	3009.7862	3018.769	3057.5081	3072.2866	3077.1358	3107.6597	3129.9181	3154.791	3820.3728
OC1COC2C3CC12C3	O[C@H]1CO[C@H]2[C@H]3C[C@@]12C3	
InChI=1S/C7H10O2/c8-5-3-9-6-4-1-7(5,6)2-4/h4-6,8H,1-3H2	InChI=1S/C7H10O2/c8-5-3-9-6-4-1-7(5,6)2-4/h4-6,8H,1-3H2/t4-,5-,6-,7+/m0/s1
