18
gdb 96529	2.24489	1.68879	1.25543	2.3386	68.06	-0.2425	-0.012	0.2305	1054.913	0.149089	-476.22808	-476.219694	-476.21875	-476.261376	31.407	
N	 0.5832735093	 1.1593861855	 0.822363338	-0.520051
C	 0.0660071387	-0.0399047685	 0.1583139589	-0.088164
C	-1.481314688	 0.0146311358	 0.1501864035	-0.068102
O	-2.0587334595	-0.6945030107	-0.9404335791	-0.253468
C	-2.310870937	 0.0752160376	-2.1051632645	-0.077194
C	-1.0475023456	 0.2772202113	-2.9424964573	-0.099651
O	-0.0126341493	 0.7873239756	-2.0894239942	-0.268826
C	 0.5371196952	-0.1971130324	-1.2817968482	 0.411397
O	 1.2877073228	-1.0279719196	-1.7009976222	-0.310231
H	 1.5883730183	 1.0843699569	 0.9486504116	 0.241837
H	 0.4209705234	 1.9673179701	 0.2259075089	 0.239878
H	 0.4177922019	-0.9172312384	 0.7070333646	 0.107219
H	-1.8668860993	-0.4424879508	 1.0655923602	 0.122116
H	-1.8010792903	 1.0650058471	 0.1381194687	 0.099686
H	-3.0623869307	-0.4689356158	-2.6881611573	 0.114211
H	-2.7308112083	 1.0532780497	-1.8274230178	 0.100954
H	-0.7141043852	-0.661689808	-3.3979274065	 0.131546
H	-1.2105038762	 1.0175776845	-3.7304806275	 0.116842
56.159	114.2693	213.51	257.2552	286.1711	309.1608	330.1133	405.3897	451.2959	522.3768	555.9666	645.4348	762.7387	801.5078	866.2592	888.0863	899.9076	956.2647	980.3735	1014.6039	1063.4037	1110.2962	1132.737	1145.9636	1196.2552	1223.7786	1275.2555	1282.6004	1310.0105	1331.9804	1382.8973	1391.7624	1404.5859	1417.0693	1476.4665	1491.3978	1496.6024	1657.0223	1856.3519	2997.0552	3017.9264	3047.4962	3074.8421	3080.5448	3099.3446	3109.4179	3484.3559	3568.1349
NC1COCCOC1=O	N[C@H]1COCCOC1=O	
InChI=1S/C5H9NO3/c6-4-3-8-1-2-9-5(4)7/h4H,1-3,6H2	InChI=1S/C5H9NO3/c6-4-3-8-1-2-9-5(4)7/h4H,1-3,6H2/t4-/m0/s1
