25
gdb 118567	1.55346	0.86079	0.58804	2.1931	86.12	-0.261	0.0784	0.3393	1944.6564	0.226466	-426.619146	-426.607065	-426.606121	-426.657878	42.183	
C	 0.1223494188	 1.5163364921	-0.1340770787	-0.389399
C	 0.0427493881	-0.0133496769	-0.165712219	-0.182089
C	-1.3722527239	-0.5889605855	 0.0622779983	 0.028456
C	-2.2647901516	-0.3654522545	-1.1741228978	-0.182917
C	-3.7607885145	-0.4534799592	-0.8939568772	-0.081274
O	-4.4432719131	-0.2251959296	-2.1191397971	-0.420774
C	-1.3117893624	-2.0836078833	 0.43847876	-0.183742
C	-0.8852420767	-2.3539258574	 1.876964966	-0.080295
O	-0.8793821719	-3.7619313804	 2.0675017929	-0.420822
H	 1.1487521988	 1.858439332	-0.3000215901	 0.112289
H	-0.5038005501	 1.9788193995	-0.9033573239	 0.121551
H	-0.2046130958	 1.9068239828	 0.8363429765	 0.111811
H	 0.4206403727	-0.3850044112	-1.1279932314	 0.09669
H	 0.7229720288	-0.4113963854	 0.5961797288	 0.09218
H	-1.8210036345	-0.0416832363	 0.9069567838	 0.059848
H	-2.0755029775	 0.6219846585	-1.6081971807	 0.102942
H	-2.0094747339	-1.0981285028	-1.9503751831	 0.103528
H	-4.0218625261	-1.4384313943	-0.4768982372	 0.087976
H	-4.037257989	 0.3016193885	-0.1388808789	 0.081437
H	-5.3872319426	-0.3091626936	-1.9568494202	 0.284283
H	-2.2904063783	-2.5553404148	 0.2982367641	 0.102978
H	-0.6213897983	-2.605598139	-0.2364410711	 0.103548
H	 0.1100919202	-1.9270208222	 2.0758688606	 0.086228
H	-1.5914058727	-1.8628052016	 2.5675172822	 0.081364
H	-0.5886848843	-3.9422339855	 2.9661004631	 0.284203
59.8024	67.564	73.7567	80.974	92.4517	168.8706	207.953	251.3002	258.7618	265.0298	267.8398	325.9887	359.78	423.8419	501.6179	528.4847	771.2857	784.1983	791.4642	876.7195	957.1247	972.9043	1012.41	1022.6016	1038.7686	1052.4951	1070.1342	1072.7506	1133.8607	1150.5785	1170.519	1215.6761	1234.6385	1245.4662	1256.1798	1292.258	1304.8594	1315.0312	1328.1594	1331.5108	1357.5207	1387.4506	1390.9441	1414.3141	1460.3201	1462.7413	1484.6882	1491.8687	1494.0793	1503.2186	1507.5827	1526.94	1527.9121	2956.6313	2957.5921	2974.029	2989.4768	2990.265	3017.0559	3030.3042	3032.7676	3036.4098	3055.2802	3077.2164	3080.726	3097.8878	3105.9923	3829.9283	3830.2637
CCC(CCO)CCO	CCC(CCO)CCO	
InChI=1S/C7H16O2/c1-2-7(3-5-8)4-6-9/h7-9H,2-6H2,1H3	InChI=1S/C7H16O2/c1-2-7(3-5-8)4-6-9/h7-9H,2-6H2,1H3
