17
gdb 76599	2.44638	1.40921	1.04465	5.2023	75.58	-0.2748	-0.0583	0.2165	1166.5631	0.134106	-418.018792	-418.009285	-418.008341	-418.053378	33.403	
C	 0.1686580636	 1.4454253016	 0.3476756418	-0.422985
C	-0.0484287606	-0.0048997062	-0.011598142	-0.02113
C	 0.6354811536	-0.6959855241	-1.1758483253	-0.015013
C	 1.6175421528	-0.0167516618	-2.100045868	-0.411797
N	 0.9873768998	-1.0070372166	 0.194696423	-0.095781
C	 2.2086045647	-0.9382348662	 0.7977585046	 0.303221
O	 3.2626512734	-1.296812071	 0.3220372205	-0.331022
C	 2.1250199182	-0.4585996016	 2.1947744562	 0.243825
N	 2.0919230492	-0.0627694462	 3.2801609237	-0.329353
H	 1.1660495039	 1.7983002422	 0.0760921059	 0.135261
H	-0.5689683553	 2.06532917	-0.1717345916	 0.136066
H	 0.0399600128	 1.5991460804	 1.422775885	 0.158377
H	-1.0418534625	-0.3763592236	 0.2363985688	 0.11568
H	 0.0602297074	-1.4908883002	-1.6493164427	 0.114224
H	 2.1405810985	 0.8125757837	-1.6206964334	 0.134305
H	 2.3731504487	-0.7310931073	-2.4366673075	 0.157049
H	 1.0888264517	 0.3675680268	-2.9778189089	 0.129073
71.8841	108.2599	128.6847	160.6784	190.9196	201.5616	261.3333	312.7418	351.5045	473.8296	488.4472	543.9838	578.5719	691.3416	755.0013	792.8656	854.1567	955.9171	983.708	1037.4369	1075.3166	1118.5939	1140.0476	1169.738	1201.8032	1209.1081	1380.4995	1404.5239	1419.0624	1422.7788	1458.4314	1478.9455	1485.8923	1493.5297	1510.0331	1767.5395	2345.6996	3047.3934	3053.1062	3108.3351	3115.0721	3118.2536	3122.1632	3132.8663	3144.1002
CC1C(C)N1C(=O)C#N	C[C@H]1[C@@H](C)N1C(=O)C#N	
InChI=1S/C6H8N2O/c1-4-5(2)8(4)6(9)3-7/h4-5H,1-2H3	InChI=1S/C6H8N2O/c1-4-5(2)8(4)6(9)3-7/h4-5H,1-2H3/t4-,5+,8?
