20
gdb 26346	2.46928	1.36876	0.98035	1.7459	81.53	-0.1862	0.0517	0.2379	1254.4335	0.170543	-403.186725	-403.177069	-403.176124	-403.221009	36.294	
C	 0.1160098297	 1.3013778225	-0.4311326994	-0.37853
C	 0.0246477126	-0.1384922226	 0.1168180883	-0.106759
C	 0.6762075157	-0.2354187209	 1.5022135397	-0.392101
C	-1.3975978862	-0.63755195	 0.1088441504	 0.172375
C	-2.2468329067	-0.8419246406	 1.1788642935	-0.17084
N	-3.4564268767	-1.2614955341	 0.6998665365	-0.250683
C	-3.4166295353	-1.3497292731	-0.6755474324	-0.165763
C	-2.1548909836	-0.965115112	-1.05900511	 0.217965
O	-1.7335274408	-0.8969918768	-2.3604821065	-0.452517
H	 1.1582335489	 1.6328340895	-0.4988477445	 0.104105
H	-0.3337965208	 1.3789193218	-1.4257118462	 0.116299
H	-0.4217904075	 1.9925740391	 0.2263493953	 0.11817
H	 0.6144868274	-0.7812217966	-0.558594584	 0.061807
H	 0.642884442	-1.2586190322	 1.8878720091	 0.115973
H	 1.7227589448	 0.0824230601	 1.4613610766	 0.107718
H	 0.1635861416	 0.414379877	 2.2206736879	 0.115314
H	-2.0803316588	-0.7250468096	 2.2371218679	 0.115075
H	-4.2521707286	-1.4932157622	 1.265516109	 0.259364
H	-4.2652432858	-1.6672411523	-1.256728883	 0.118422
H	-0.773403462	-0.8422636968	-2.364481538	 0.294604
55.7742	139.2768	172.6708	178.6119	245.8662	271.3179	289.4408	294.585	358.1902	390.0793	454.0958	524.9644	597.6534	626.0277	642.0083	719.1994	735.0058	746.3687	882.1531	907.9799	927.8339	967.1658	1076.0573	1084.7125	1095.8764	1131.6231	1174.3452	1178.9978	1228.2307	1287.3567	1336.2853	1344.1568	1368.5843	1394.7667	1416.3977	1436.0222	1481.2028	1486.6734	1491.6827	1500.9541	1512.5302	1562.6434	1652.7582	2947.4568	3026.3323	3031.8502	3094.2342	3099.1378	3104.4717	3109.0971	3264.7318	3279.5394	3700.7797	3834.1397
CC(C)C1=CNC=C1O	CC(C)c1c[nH]cc1O	
InChI=1S/C7H11NO/c1-5(2)6-3-8-4-7(6)9/h3-5,8-9H,1-2H3	InChI=1S/C7H11NO/c1-5(2)6-3-8-4-7(6)9/h3-5,8-9H,1-2H3
