15
gdb 99436	3.21407	0.74657	0.62308	5.3296	86.4	-0.2558	-0.0489	0.2069	1706.3371	0.110702	-379.599128	-379.589435	-379.588491	-379.634439	33.71	
C	-0.0109510781	 1.4702128549	-0.161494579	-0.323199
N	-0.0409303391	 0.054168104	 0.2008914014	-0.265171
C	-1.3675449061	-0.5565145207	 0.0604537674	-0.36762
C	-1.9017713237	-0.5781874724	-1.3160051965	 0.342427
C	-2.2893352635	-0.565473573	-2.4532498814	-0.454433
C	-1.3456915779	-1.915145703	 0.6153867315	 0.067464
C	-1.3267905555	-3.03351588	 1.0680353655	 0.146727
C	-1.3029432751	-4.2988157637	 1.5813633143	 0.201871
N	-1.2824350767	-5.3750355155	 2.0176142588	-0.332339
H	 1.0141606415	 1.8338440069	-0.0575344164	 0.132256
H	-0.3590846635	 1.6823250374	-1.1837515264	 0.1196
H	-0.6383263595	 2.0343273208	 0.5373955249	 0.129915
H	 0.616663502	-0.4663155766	-0.3711825135	 0.234858
H	-2.0526892205	 0.0401426511	 0.6821144895	 0.155305
H	-2.6441341542	-0.5631364202	-3.4548312001	 0.212339
65.6101	79.5355	112.7317	160.6057	198.19	221.7997	252.2475	336.5188	349.4912	439.0103	518.3212	565.3021	580.5518	592.5769	652.9959	671.8496	745.5384	813.3743	936.2507	987.5694	1120.0002	1152.6264	1169.8473	1180.9669	1305.7396	1324.3774	1455.404	1484.5359	1490.5637	1519.7219	2230.3082	2270.4412	2407.9587	2990.7555	2996.16	3070.525	3119.4257	3499.8104	3523.5
CNC(C#C)C#CC#N	CN[C@@H](C#C)C#CC#N	
InChI=1S/C7H6N2/c1-3-7(9-2)5-4-6-8/h1,7,9H,2H3	InChI=1S/C7H6N2/c1-3-7(9-2)5-4-6-8/h1,7,9H,2H3/t7-/m0/s1
