14
gdb 124275	4.35011	1.09869	0.88191	2.7382	67.39	-0.2413	-0.0707	0.1705	1225.0148	0.101332	-470.07436	-470.066114	-470.06517	-470.108241	29.099	
C	-0.0194382222	 1.5010031001	-0.0130371714	-0.48431
C	-0.0227832185	-0.0077213103	 0.0038209391	 0.32865
O	-0.0418478478	-0.6764847678	 1.0183076636	-0.321721
C	-0.0015179617	-0.7043953119	-1.2991265356	 0.30161
N	 0.0210647156	-0.1396810952	-2.4755346795	-0.250908
N	 0.0335905891	-1.1838790845	-3.3452849103	-0.287262
C	 0.019255489	-2.4405376906	-2.7378797285	 0.471353
O	 0.02555604	-3.5343516339	-3.2484094273	-0.406466
N	-0.0037957396	-2.0735255692	-1.3932203417	-0.396374
H	 0.8648570795	 1.8730343005	-0.5394440303	 0.157706
H	-0.8905932729	 1.8759048135	-0.5591245635	 0.15771
H	-0.0308155144	 1.8695339938	 1.0126862543	 0.146622
H	 0.052560082	-1.0203723226	-4.3378388758	 0.289632
H	-0.019189858	-2.7057295719	-0.610438633	 0.293759
42.123	103.2221	139.4434	160.4364	283.4013	338.5421	454.9437	468.0015	553.3225	575.7091	584.9999	618.7605	726.7338	758.8698	763.0861	945.8766	998.4014	1003.6117	1045.0846	1095.3936	1134.113	1269.934	1285.371	1384.567	1389.6722	1458.6538	1465.9268	1499.0922	1595.8916	1774.8775	1870.6401	3051.7048	3115.1678	3163.6809	3679.32	3680.8358
CC(=O)C1=NNC(=O)N1	CC(=O)c1n[nH]c(=O)[nH]1	
InChI=1S/C4H5N3O2/c1-2(8)3-5-4(9)7-6-3/h1H3,(H2,5,6,7,9)	InChI=1S/C4H5N3O2/c1-2(8)3-5-4(9)7-6-3/h1H3,(H2,5,6,7,9)
