21
gdb 93795	2.8798	1.31198	0.94173	4.0313	80.87	-0.2248	0.0595	0.2844	1284.9543	0.18425	-420.469179	-420.459825	-420.458881	-420.503345	34.702	
C	-0.0792643863	 1.554966929	 0.023641812	-0.406487
C	 0.0752943452	 0.0359217714	-0.0257124392	 0.064478
C	 0.7949711819	-0.4439263572	-1.2850639857	-0.20934
C	 1.0267404639	-1.9500517326	-1.2154425115	-0.160191
N	 1.6622989041	-2.3366521524	 0.0343014371	-0.121901
C	 2.2306108118	-3.668811072	 0.092502047	-0.33779
C	 1.4948815862	-1.6408476797	 1.2165812246	 0.46839
O	 1.9190289163	-2.0400099644	 2.2911081589	-0.429294
N	 0.8546200662	-0.4207165446	 1.1149493225	-0.365833
H	 0.8995933839	 2.0430193009	-0.0153877422	 0.128006
H	-0.6818074401	 1.9069385315	-0.8191950042	 0.119777
H	-0.5805998857	 1.8693958091	 0.9454915444	 0.117156
H	-0.9333929044	-0.4133515073	-0.0135640391	 0.075013
H	 0.2047991733	-0.2024724474	-2.1742741701	 0.103169
H	 1.756498123	 0.0758973191	-1.3652229263	 0.11364
H	 0.0708526924	-2.4856014029	-1.3466633488	 0.098898
H	 1.6747538814	-2.2676292635	-2.0416464835	 0.107039
H	 3.0247322387	-3.7785437693	-0.65626	 0.113197
H	 2.6430314653	-3.8193622366	 1.0886466167	 0.168984
H	 1.4708591603	-4.4399902322	-0.1017193389	 0.109993
H	 0.6530844626	-0.0279904889	 2.0214312263	 0.243094
68.3414	123.1778	138.3255	183.7497	235.7349	250.3176	273.4974	356.2435	404.6813	442.5876	495.7143	532.1438	567.1093	678.6739	735.3887	758.8044	840.4026	918.8295	973.7525	993.0159	1011.4688	1058.6059	1099.1055	1143.0731	1166.7736	1190.4887	1218.0435	1232.9541	1281.9125	1294.0772	1341.868	1356.6189	1383.3219	1391.9148	1409.4117	1431.4309	1451.0411	1473.2665	1480.2538	1494.2554	1499.3179	1500.4985	1508.7575	1547.906	1772.7322	2937.3092	2955.7335	2996.2193	3032.6325	3033.9545	3048.0352	3049.3896	3095.1455	3101.8406	3116.4374	3168.8035	3631.4084
CC1CCN(C)C(=O)N1	C[C@H]1CCN(C)C(=O)N1	
InChI=1S/C6H12N2O/c1-5-3-4-8(2)6(9)7-5/h5H,3-4H2,1-2H3,(H,7,9)	InChI=1S/C6H12N2O/c1-5-3-4-8(2)6(9)7-5/h5H,3-4H2,1-2H3,(H,7,9)/t5-/m0/s1
