18
gdb 53498	3.055	0.87516	0.71067	4.5465	77.21	-0.2559	0.0177	0.2736	1572.6684	0.145549	-439.102444	-439.092094	-439.09115	-439.13914	36.424	
C	 0.302640687	 0.7365729888	 1.291609395	-0.501319
C	-0.0010729747	-0.3672554403	 0.3896896716	 0.070298
C	-0.2403237561	-1.2585818537	-0.3870096433	 0.044582
C	-0.5639613244	-2.3351362972	-1.3172767264	-0.367821
C	-1.6740059362	-3.303528475	-0.8240625575	 0.033959
O	-2.1026839049	-4.0892743347	-1.8981473279	-0.42841
C	-1.1944307996	-4.2455706153	 0.2986341092	 0.376584
N	-0.7670243863	-3.6675760202	 1.4437534942	-0.5158
O	-1.2445353031	-5.4542807331	 0.124785784	-0.381579
H	 1.1918115266	 0.5285148051	 1.8966510653	 0.149913
H	 0.4921704285	 1.6585932417	 0.7313777664	 0.156918
H	-0.5288575027	 0.9329009461	 1.9771862409	 0.151366
H	-0.9285878189	-1.9131973732	-2.2604680137	 0.150163
H	 0.3308635734	-2.9189609613	-1.5651037058	 0.136599
H	-2.5051192334	-2.6968574221	-0.4320245101	 0.099975
H	-1.9671722332	-5.0059163192	-1.5957881539	 0.294719
H	-0.583064604	-2.675503805	 1.4754549468	 0.267044
H	-0.367518148	-4.2641845914	 2.150726945	 0.26281
37.9806	53.6697	81.654	99.326	222.2877	235.9273	300.2838	334.9736	363.7127	400.7005	411.8814	457.9536	485.9264	542.0086	587.9285	651.7744	732.9182	773.7656	791.7042	979.6744	1038.7613	1052.7158	1056.7574	1121.2164	1147.7979	1164.0586	1187.6535	1284.2167	1301.5974	1354.5109	1380.6665	1415.9956	1467.5737	1475.0108	1478.403	1479.1321	1626.1625	1781.4852	2359.7	2984.4394	3028.7746	3034.0483	3073.4873	3089.939	3091.3486	3555.962	3614.046	3696.9263
CC#CCC(O)C(N)=O	CC#CC[C@@H](O)C(=O)N	
InChI=1S/C6H9NO2/c1-2-3-4-5(8)6(7)9/h5,8H,4H2,1H3,(H2,7,9)	InChI=1S/C6H9NO2/c1-2-3-4-5(8)6(7)9/h5,8H,4H2,1H3,(H2,7,9)/t5-/m1/s1
