14
gdb 49818	3.14198	1.22431	0.94316	5.332	64.29	-0.2462	-0.0733	0.1729	1162.6524	0.100062	-473.878277	-473.870197	-473.869253	-473.911967	28.585	
O	-0.1776596631	 0.0124004223	-0.231345594	-0.235449
C	-0.079111905	 1.2003575921	-0.0754926717	 0.155677
C	 1.2492503536	 1.9216474417	 0.0774566905	-0.074629
C	 1.3556078761	 2.7688653986	 1.3704296315	-0.370834
C	 2.751834377	 2.4574556002	 1.9091061967	 0.316061
O	 3.3419623018	 3.0394708948	 2.7726151005	-0.268285
C	 3.2741133622	 1.2152691228	 1.1479931392	 0.31986
O	 4.2657167348	 0.5767738048	 1.3983378947	-0.340938
N	 2.3628231588	 1.0010946404	 0.1515685272	-0.308747
H	-0.9670079733	 1.869888364	-0.0557762413	 0.097727
H	 1.3333852945	 2.5856958656	-0.7994019717	 0.122907
H	 1.2147483252	 3.838756107	 1.2122316161	 0.153995
H	 0.625600521	 2.4434652702	 2.1213919588	 0.158528
H	 2.3838996864	 0.1676880254	-0.4168859965	 0.274128
51.1995	95.2029	123.9119	225.5728	315.3512	343.3408	361.0647	503.7162	547.4971	612.4562	637.5226	696.168	707.7214	739.3873	873.1448	910.0339	1014.829	1044.5433	1081.2347	1148.0501	1177.8795	1253.3254	1272.6362	1305.8351	1358.5857	1414.3698	1423.8994	1455.4433	1835.2607	1847.912	1873.1477	2897.2844	2964.1366	3049.5619	3130.2512	3630.7758
O=CC1CC(=O)C(=O)N1	O=C[C@H]1CC(=O)C(=O)N1	
InChI=1S/C5H5NO3/c7-2-3-1-4(8)5(9)6-3/h2-3H,1H2,(H,6,9)	InChI=1S/C5H5NO3/c7-2-3-1-4(8)5(9)6-3/h2-3H,1H2,(H,6,9)/t3-/m1/s1
