19
gdb 98989	3.64452	0.8317	0.7065	4.9266	75.64	-0.2352	0.0112	0.2464	1610.3597	0.157975	-456.384055	-456.373679	-456.372735	-456.421419	35.491	
C	 0.0970860395	 1.4215270951	-0.6959165243	-0.332632
N	 0.2597833954	 0.0404535988	-1.0990355881	-0.298068
C	 0.8207666309	-0.8840538585	-0.287258029	 0.388429
O	 1.2047365478	-0.6702792014	 0.8509548903	-0.383778
C	 0.9010498493	-2.3182319099	-0.8460650958	-0.390135
C	 1.0757420871	-2.5293459802	-2.3314762022	 0.425017
N	 0.490938373	-1.8146528323	-3.2054368055	-0.550783
O	 1.8973439345	-3.5850591281	-2.5468449881	-0.217673
C	 2.1449986118	-3.9719676566	-3.8924633322	-0.268629
H	 0.4108108945	 1.5041923409	 0.3453452794	 0.164194
H	 0.7113055364	 2.0936740455	-1.3070888992	 0.120848
H	-0.9488992232	 1.7362925607	-0.7827764476	 0.12101
H	 0.0450644099	-0.2533211923	-2.0467841423	 0.269751
H	 1.7111493363	-2.8158463979	-0.3135710552	 0.151837
H	-0.0263345644	-2.8240086969	-0.5469683966	 0.156145
H	 0.691919684	-2.085996185	-4.1642587302	 0.223525
H	 2.6358246582	-3.1684034833	-4.4543280868	 0.136015
H	 2.8106030077	-4.833674039	-3.8395752545	 0.149822
H	 1.2175653812	-4.2587918395	-4.402269912	 0.135105
21.0026	61.2813	76.0631	137.8782	147.7808	195.3517	224.7798	272.008	328.2303	387.6086	398.3594	512.1173	610.7265	669.3494	711.8789	725.6297	837.5756	870.6056	907.5351	964.0128	1017.6216	1098.8593	1130.9165	1152.1373	1174.155	1182.5213	1208.0609	1220.4339	1272.7744	1286.166	1379.08	1436.82	1449.9784	1474.2571	1493.4644	1499.3386	1501.895	1505.1919	1599.7855	1719.3801	1779.7129	3018.4107	3022.8165	3041.707	3072.2132	3083.6189	3142.3236	3150.1249	3150.7001	3493.3772	3525.2393
CNC(=O)CC(=N)OC	CNC(=O)C[C]([NH])OC	
InChI=1S/C5H10N2O2/c1-7-5(8)3-4(6)9-2/h6H,3H2,1-2H3,(H,7,8)	InChI=1S/C5H10N2O2/c1-7-5(8)3-4(6)9-2/h6H,3H2,1-2H3,(H,7,8)
