16
gdb 74784	3.22077	1.46643	1.43111	3.0742	70.43	-0.2539	-0.0177	0.2361	983.4542	0.125569	-437.890218	-437.883088	-437.882144	-437.921725	27.973	
C	-0.0016169979	 1.4782737002	 0.0500081251	-0.513019
C	-0.0585753114	-0.0061174707	-0.0364847243	 0.354753
C	-0.0637618095	-0.8433841745	-1.0768300552	-0.214869
C	 0.0080507224	-2.2437898984	-0.4652909559	-0.096276
O	-0.725066017	-2.062932253	 0.7703858787	-0.223381
C	 0.0199384461	-0.9498034047	 1.1738581183	 0.06941
O	 1.3992382932	-1.4743488058	 1.1959066665	-0.270118
C	 1.4195525195	-2.3327359304	 0.1269831114	 0.46143
N	 2.3828736206	-3.0296184436	-0.2867199328	-0.559235
H	 0.9221649423	 1.8020615585	 0.545977626	 0.144796
H	-0.0350261029	 1.9383881219	-0.9405010021	 0.137089
H	-0.8346419181	 1.876465303	 0.6422649528	 0.136621
H	-0.0018471048	-0.6221948106	-2.1324904243	 0.125465
H	-0.3334001835	-3.102936381	-1.0331765131	 0.116319
H	-0.2375832346	-0.5973200075	 2.1699459637	 0.104085
H	 3.2135249255	-2.8810842034	 0.2895970554	 0.226929
121.0867	174.3411	205.8717	295.6002	383.0515	447.1053	530.2733	590.006	616.6559	708.6893	757.0034	785.1234	805.2748	840.082	879.3007	890.4233	918.1168	943.3042	985.5297	1003.2612	1026.033	1063.2967	1120.3079	1192.1387	1216.0597	1238.7984	1250.4622	1299.8739	1331.354	1349.4158	1414.2849	1478.5485	1485.1319	1698.0146	1801.903	3021.9184	3070.3284	3119.9557	3161.7087	3190.0045	3241.847	3467.0374
CC1=CC2OC1OC2=N	CC1=C[C@@H]2O[C@H]1O[C]2[NH]	
InChI=1S/C6H7NO2/c1-3-2-4-5(7)9-6(3)8-4/h2,4,6-7H,1H3	InChI=1S/C6H7NO2/c1-3-2-4-5(7)9-6(3)8-4/h2,4,6-7H,1H3/t4-,6-/m0/s1
