16
gdb 45495	2.96176	1.85367	1.65941	5.2455	66.41	-0.2686	0.0099	0.2784	865.2492	0.127677	-437.916077	-437.909836	-437.908892	-437.946738	25.228	
O	-0.0248656452	-0.0292024481	-0.1157457646	-0.340811
C	-0.0088936212	 1.1572605182	-0.0081580335	 0.451899
O	-1.1389563445	 1.9219990703	 0.0604645852	-0.239834
C	-0.7892323807	 3.2571998935	 0.4843383745	 0.059072
C	-0.8478608261	 3.3090204147	 2.0149113378	-0.209591
C	 0.4336572523	 2.5531159622	 2.4612047729	-0.255011
C	 1.404943092	 2.7293599544	 1.2934276012	-0.033531
C	 0.7066558548	 3.3690817101	 0.1498425041	-0.066663
N	 1.1609119248	 1.9850895096	 0.0167789479	-0.185665
H	-1.4454831292	 3.9557841703	-0.0333919556	 0.102267
H	-0.7965461671	 4.3550091841	 2.3371725831	 0.111363
H	-1.7730245005	 2.8759020324	 2.4024404762	 0.124194
H	 0.8600139775	 2.9751735335	 3.3744468911	 0.114428
H	 0.2363941193	 1.4951557803	 2.6625968325	 0.141242
H	 2.4603496651	 2.8800795734	 1.4913764725	 0.115627
H	 1.1141137087	 4.1167316411	-0.5205095352	 0.111013
124.5234	187.6784	379.5317	387.8305	508.5922	603.6288	673.206	691.6924	719.7449	794.6091	825.3653	854.6219	859.7019	888.2101	920.8386	927.5277	958.4118	1016.3809	1035.9577	1045.6637	1087.2281	1095.5166	1106.3701	1189.0067	1213.9976	1268.1195	1286.9276	1300.9766	1304.6227	1348.942	1361.5153	1387.9478	1477.0648	1503.016	1898.6644	3050.0472	3058.7337	3100.5179	3115.1401	3127.7107	3173.5224	3184.2738
O=C1OC2CCC3C2N13	O=C1O[C@H]2CC[C@@H]3[C@H]2N13	
InChI=1S/C6H7NO2/c8-6-7-3-1-2-4(9-6)5(3)7/h3-5H,1-2H2	InChI=1S/C6H7NO2/c8-6-7-3-1-2-4(9-6)5(3)7/h3-5H,1-2H2/t3-,4+,5-,7?/m1/s1
