12
gdb 127985	6.86519	0.92996	0.82319	2.5232	67.16	-0.2713	-0.0907	0.1806	1293.4979	0.076343	-468.779706	-468.771671	-468.770727	-468.813343	27.171	
C	 0.0092808063	 1.3801720117	 0.1571157263	-0.343032
N	 0.3371951561	-0.0360297248	 0.1063054059	-0.351166
C	 0.6601947207	-0.5742825632	-0.9610292374	 0.536399
O	 0.7812574596	-0.0400888121	-2.2345699765	-0.239754
N	 1.1757784971	-1.0493334761	-3.120383333	-0.144066
C	 1.2707389051	-2.0957157397	-2.3807134672	 0.336299
O	 0.9836105664	-1.9189096902	-1.0742227914	-0.215417
C	 1.6482330628	-3.3831067264	-2.8474587403	 0.286813
N	 1.9542231299	-4.4341899859	-3.2168101724	-0.292761
H	 0.6816983399	 1.8718816336	 0.8668681397	 0.145314
H	 0.0781800462	 1.8933924174	-0.8083281517	 0.136052
H	-1.0081285299	 1.4921798156	 0.5444585379	 0.14532
51.8789	88.7164	137.7065	220.3222	221.1136	265.6196	447.4436	473.8078	562.2786	626.7004	685.7546	716.6137	716.6883	888.6415	916.3555	995.5512	1106.5965	1131.1602	1138.6641	1195.9836	1363.4024	1449.9116	1492.0721	1503.3368	1638.1871	1873.437	2374.8168	3027.4719	3100.0955	3100.5603
CN=C1ON=C(O1)C#N	CN=c1onc(o1)C#N	
InChI=1S/C4H3N3O2/c1-6-4-8-3(2-5)7-9-4/h1H3	InChI=1S/C4H3N3O2/c1-6-4-8-3(2-5)7-9-4/h1H3
