23
gdb 36969	6.08551	0.57378	0.56265	0.7355	88.	-0.247	0.0918	0.3389	2065.7214	0.205017	-388.252401	-388.242538	-388.241594	-388.288755	35.905	
C	-0.1881549077	 1.5010849371	 0.1344562216	-0.062446
O	-0.1551733401	 0.0947501845	 0.0034989047	-0.247623
C	-1.4404881293	-0.4805199027	-0.1106483711	-0.06244
C	-1.3039072648	-1.9664432665	-0.2956690229	 0.01309
C	-1.1255265651	-2.8605988289	 0.9028983052	-0.246079
C	-2.4257007411	-2.8758813634	 0.138885031	-0.273235
C	 1.2145993485	 2.0165648233	 0.2999927461	 0.013092
C	 2.0764359335	 2.2548816905	-0.9117623066	-0.246077
C	 1.5436582711	 3.4257392615	-0.1245884884	-0.273234
H	-0.6552797514	 1.9608972842	-0.7551905934	 0.075883
H	-0.8083988181	 1.7861471887	 1.0028777171	 0.081534
H	-2.0404623145	-0.2675363136	 0.792553593	 0.075881
H	-1.9808101974	-0.0339944189	-0.9643403147	 0.081532
H	-0.7669267013	-2.250724412	-1.195827852	 0.08875
H	-0.4631471797	-3.7140990449	 0.812901492	 0.111873
H	-1.116403596	-2.3927594816	 1.8817585561	 0.112723
H	-3.2946929571	-2.4240694886	 0.6066144429	 0.109866
H	-2.6554978801	-3.7367699392	-0.4787789875	 0.11185
H	 1.7188081312	 1.6444817331	 1.1869962257	 0.088748
H	 3.1335654239	 2.0243769102	-0.8435377071	 0.111873
H	 1.640557171	 2.0560224448	-1.8852062961	 0.112725
H	 0.7530205982	 4.020200809	-0.5713053158	 0.109866
H	 2.2324551564	 3.9972633733	 0.4872637503	 0.111849
43.9792	48.2376	89.3359	118.8434	150.2066	219.6851	289.098	357.0595	359.6029	439.7753	519.0734	770.1894	775.0608	809.0306	820.7178	844.456	846.9632	917.5789	922.3352	944.0545	959.3443	1023.3099	1032.3073	1059.194	1059.9985	1070.5932	1077.6398	1081.9381	1129.277	1135.925	1148.6989	1195.3542	1196.3878	1197.0114	1205.6922	1227.0971	1227.9899	1276.9351	1284.2815	1357.9895	1382.213	1425.5528	1465.829	1469.8925	1469.9909	1502.1465	1505.8136	1511.8701	1527.72	2929.7516	2942.9838	2959.5973	2962.1946	3130.2624	3130.3277	3135.9505	3135.9731	3153.267	3153.4261	3208.4829	3208.4868	3224.0577	3224.0843
C(OCC1CC1)C1CC1	C(OCC1CC1)C1CC1	
InChI=1S/C8H14O/c1-2-7(1)5-9-6-8-3-4-8/h7-8H,1-6H2	InChI=1S/C8H14O/c1-2-7(1)5-9-6-8-3-4-8/h7-8H,1-6H2
