21
gdb 89384	2.53679	1.51918	1.18388	1.1838	78.86	-0.2337	0.0842	0.3179	1157.0081	0.1801	-424.229383	-424.220022	-424.219078	-424.262843	35.947	
C	 0.193218356	 1.5088542454	 0.0154212367	-0.406479
C	 0.0719321801	 0.0033040641	 0.0013194156	 0.215429
O	 0.7614406771	-0.5450769114	-1.1137429192	-0.308833
C	 1.1724572951	-1.8436544657	-0.7200334812	 0.357192
C	 0.7573229521	-2.9425250324	-1.6568342767	-0.467817
C	 2.4642021848	-1.8588246044	 0.0784450793	-0.388339
C	 1.1167266161	-1.8531530273	 0.7789322874	 0.357207
C	 0.6337838795	-2.9636740166	 1.6682932529	-0.46781
O	 0.6769704828	-0.5595051777	 1.1574754501	-0.308836
H	 1.2472199303	 1.7936285298	 0.0560646365	 0.129934
H	-0.257787287	 1.927315043	-0.8879324569	 0.127692
H	-0.3232015358	 1.9158817672	 0.888463659	 0.127704
H	-0.987662799	-0.3117069527	-0.0400956442	 0.061667
H	 1.2134356586	-2.7963259681	-2.6415148909	 0.131973
H	 1.0773780179	-3.9182399084	-1.2805383099	 0.118539
H	-0.3297653473	-2.9595663537	-1.7855405591	 0.122981
H	 3.0378835971	-2.7811524343	 0.0939346321	 0.106134
H	 3.0417454073	-0.9424260052	 0.1057262464	 0.118177
H	 0.980636167	-3.9347330149	 1.303885353	 0.118538
H	 1.0161652425	-2.8307378187	 2.6857038635	 0.131961
H	-0.4598292452	-2.9813066383	 1.7163832055	 0.122987
103.1995	174.6144	194.8617	201.882	211.5651	222.6973	254.9968	339.7197	405.5576	453.1948	457.5031	508.6539	568.7005	673.5369	719.7636	776.5116	852.5736	873.7591	898.5337	921.681	960.0004	969.8711	995.756	1036.2882	1098.1717	1117.0685	1133.1305	1133.4909	1164.8306	1193.9938	1223.5943	1276.39	1373.3889	1385.8558	1394.0726	1413.6819	1424.7339	1435.5477	1471.2769	1474.6266	1484.3344	1485.5772	1487.3443	1493.8028	1511.2068	2923.3281	3034.2523	3036.8251	3054.2878	3100.1393	3101.208	3112.8413	3116.0816	3124.6856	3133.7497	3139.1522	3226.6985
CC1OC2(C)CC2(C)O1	C[C@H]1O[C@@]2(C)C[C@@]2(C)O1	
InChI=1S/C7H12O2/c1-5-8-6(2)4-7(6,3)9-5/h5H,4H2,1-3H3	InChI=1S/C7H12O2/c1-5-8-6(2)4-7(6,3)9-5/h5H,4H2,1-3H3/t5-,6-,7+
