14
gdb 31463	6.71679	0.89979	0.80005	6.514	72.8	-0.2257	-0.0286	0.1971	1349.8835	0.102111	-432.910515	-432.902301	-432.901356	-432.943861	28.845	
C	-0.0888931966	 1.4376780277	 0.1518444471	-0.334623
N	-0.0610146597	 0.0123323232	-0.1352446114	-0.392912
C	-1.1697952163	-0.7625201586	-0.0559724801	 0.514326
N	-1.2312085982	-2.0596409369	 0.0162661294	-0.407544
C	-2.6033152147	-2.3165844083	 0.0048164977	 0.158352
C	-3.2936929112	-1.1511552317	-0.0649321515	-0.114596
O	-2.3753107339	-0.1331049606	-0.1021623968	-0.175986
C	-3.1443470231	-3.6277194159	 0.0650432472	 0.214534
N	-3.6040690685	-4.6886142823	 0.1141195899	-0.33531
H	 0.8775787322	 1.8639912455	-0.1222704195	 0.141992
H	-0.8592274668	 1.920648075	-0.452774092	 0.157104
H	-0.2872562363	 1.6604420789	 1.2089074785	 0.133848
H	 0.7869584664	-0.4917292825	 0.0713734923	 0.271206
H	-4.3331765433	-0.8786611536	-0.0883827808	 0.16961
73.0902	114.213	140.6883	164.8328	231.5256	310.5418	430.9131	488.0008	505.9874	572.4284	632.1313	666.8865	743.4381	747.4627	760.4583	954.1781	1005.9323	1074.6058	1124.3004	1154.3382	1187.3743	1238.7864	1300.9502	1400.8648	1441.4925	1480.153	1491.3666	1516.7698	1595.9918	1698.9107	2356.6114	3014.4826	3104.1915	3144.3743	3311.7826	3641.643
CNC1=NC(=CO1)C#N	CNc1nc(co1)C#N	
InChI=1S/C5H5N3O/c1-7-5-8-4(2-6)3-9-5/h3H,1H3,(H,7,8)	InChI=1S/C5H5N3O/c1-7-5-8-4(2-6)3-9-5/h3H,1H3,(H,7,8)
