18
gdb 36290	3.99061	1.03789	0.9832	2.9247	75.27	-0.2512	0.0318	0.283	1227.2579	0.149748	-401.936232	-401.928716	-401.927772	-401.968822	29.095	
N	-0.8476054646	 1.2703816949	-2.4638137719	-0.308341
C	-0.4521944147	 1.2397007377	-1.3783811638	 0.268658
C	 0.0706590596	 1.2204893834	-0.0115142764	-0.39758
C	 1.4418731189	 1.899674166	 0.0801688475	 0.033134
C	 1.498711416	 3.4607076902	-0.0719457801	-0.075605
C	 1.0925328026	 3.5471666473	 1.4352273288	-0.251052
C	 1.9826526918	 2.2822486217	 1.4904462383	 0.084212
O	 3.2891716202	 2.7878182249	 1.1863941074	-0.280272
C	 3.0126811007	 3.6607347523	 0.0592380974	-0.086947
H	-0.6700641006	 1.6900508646	 0.6424843793	 0.15248
H	 0.1527527866	 0.1757623021	 0.3112209139	 0.156164
H	 2.1598110955	 1.3455015029	-0.5311743117	 0.095739
H	 0.9770737429	 3.9937723878	-0.865465151	 0.093319
H	 1.4368146791	 4.4096017406	 2.0097570174	 0.109425
H	 0.0331388687	 3.37195231	 1.6188424502	 0.106138
H	 2.0382778548	 1.595838496	 2.3345233017	 0.084565
H	 3.5771763837	 3.3277676912	-0.8186186728	 0.109421
H	 3.299168879	 4.6899215862	 0.3024685659	 0.106542
59.9427	106.9893	277.6822	284.4417	365.6487	391.6913	423.8527	508.0551	597.2183	654.5289	779.5539	845.4944	848.7638	902.8777	917.8296	937.8124	953.9424	966.9603	986.6405	1013.4143	1046.9665	1074.2981	1097.1487	1111.254	1128.6584	1175.9005	1215.7969	1226.6057	1233.6005	1262.4858	1272.5581	1293.4068	1322.6494	1363.9265	1402.2243	1464.5411	1505.5821	1529.9005	2361.3255	3031.4288	3046.834	3067.7518	3074.8117	3083.759	3098.2386	3131.523	3135.0493	3150.072
N#CCC1C2CC1OC2	N#CC[C@H]1[C@H]2C[C@@H]1OC2	
InChI=1S/C7H9NO/c8-2-1-6-5-3-7(6)9-4-5/h5-7H,1,3-4H2	InChI=1S/C7H9NO/c8-2-1-6-5-3-7(6)9-4-5/h5-7H,1,3-4H2/t5-,6-,7-/m0/s1
