18
gdb 111385	2.16677	1.67575	1.13469	2.9374	77.26	-0.2316	0.0369	0.2684	1103.3044	0.147267	-401.856976	-401.848434	-401.847489	-401.890022	32.877	
O	 0.1544106228	 1.3355075183	 0.0715757452	-0.429749
C	 0.046805371	-0.0444447561	-0.2424837498	-0.095587
C	-1.3740947685	-0.556475587	-0.0419021079	-0.014859
C	-1.6257968633	-2.0681449965	-0.1317101874	-0.078126
N	-0.8227022174	-2.6943142687	 0.948383288	-0.323982
C	-2.1485235509	-2.1235274936	 1.2583932964	-0.056526
C	-1.9562172651	-0.605067779	 1.4436197385	-0.209871
C	-1.1279951554	-0.1381091274	 2.5397649067	 0.34401
C	-0.4343436754	 0.2723752087	 3.4340729115	-0.468703
H	 0.0864752173	 1.4044583942	 1.0312812749	 0.285924
H	 0.3236451495	-0.1456799599	-1.2985649007	 0.100155
H	 0.7442868239	-0.6529634102	 0.345322377	 0.117744
H	-2.062847636	 0.0098020353	-0.6735931658	 0.086186
H	-1.9212438892	-2.6363827586	-1.004799267	 0.098829
H	-0.9426710842	-3.7034005728	 0.8689219639	 0.232796
H	-2.9334929719	-2.7291678983	 1.6934736792	 0.101154
H	-2.9251044237	-0.0984513122	 1.4685604654	 0.109935
H	 0.1712626462	 0.6096718938	 4.2388043721	 0.20067
106.2867	123.3532	149.0547	193.3774	248.8524	357.4327	396.1818	431.3221	484.6406	571.7948	614.3544	623.1768	644.2604	686.4757	780.9582	824.089	847.4607	894.6445	944.4723	982.5254	994.8943	1026.486	1066.8653	1078.482	1092.2089	1109.9312	1128.3175	1163.2673	1210.2904	1238.6764	1284.1387	1316.1228	1331.2253	1351.9235	1381.6453	1404.7365	1426.2282	1506.0959	2224.2783	3027.958	3063.6093	3069.6495	3089.5447	3186.3046	3199.6237	3480.0288	3500.5415	3785.0525
OCC1C2NC2C1C#C	OC[C@H]1[C@H]2N[C@H]2[C@H]1C#C	
InChI=1S/C7H9NO/c1-2-4-5(3-9)7-6(4)8-7/h1,4-9H,3H2	InChI=1S/C7H9NO/c1-2-4-5(3-9)7-6(4)8-7/h1,4-9H,3H2/t4-,5+,6-,7+/m0/s1
