23
gdb 86302	1.85309	1.76649	1.12901	1.4355	85.37	-0.2323	0.0749	0.3072	1217.022	0.20505	-388.276087	-388.266609	-388.265665	-388.310357	36.05	
C	-0.4938450131	 0.925108641	-1.8075450068	-0.42685
C	 0.37912786	-0.144792326	-1.1725871732	-0.012593
C	 1.9259660568	-0.0622771834	-1.2927155838	-0.266517
C	 2.0318318289	-0.6530287851	 0.1403764141	-0.012591
C	 3.1365188575	-0.191302873	 1.0765479426	-0.426851
C	 0.5572631633	-0.2250261066	 0.3671540768	 0.425118
C	 0.1856273555	 0.9585332453	 1.2930899282	-0.353542
C	-0.70331702	-0.0706226648	 2.013643456	-0.073455
O	-0.3026845992	-1.1153755955	 1.1049781501	-0.318351
H	-0.1696680359	 1.9322634615	-1.5225075307	 0.111019
H	-0.4511748928	 0.8656421809	-2.9005437441	 0.115784
H	-1.5430682999	 0.8117078268	-1.5120012925	 0.117767
H	 0.0446207908	-1.1380356718	-1.4951656763	 0.084086
H	 2.4048232933	-0.6099501902	-2.1074803623	 0.096266
H	 2.2700152975	 0.9780203271	-1.3231003182	 0.093121
H	 2.0280122517	-1.7479649624	 0.0805048981	 0.084086
H	 3.1815427605	 0.9017098539	 1.1397468476	 0.111018
H	 2.9907289164	-0.5824966475	 2.0898538726	 0.117767
H	 4.1148761624	-0.5385637514	 0.7269346151	 0.115784
H	 1.0053828752	 1.3646224597	 1.8875134387	 0.109627
H	-0.3472089365	 1.780593688	 0.8129352833	 0.109627
H	-0.4256008187	-0.2998432721	 3.0497396259	 0.099841
H	-1.7831006036	 0.1176141956	 1.9712347586	 0.099841
67.1428	84.9605	202.7511	207.2019	217.5588	230.5875	255.1097	294.1516	424.0895	481.6846	482.4722	499.2533	633.7317	780.5789	816.55	858.8809	868.9621	871.7496	898.6422	955.719	959.0435	977.769	1030.5255	1039.0721	1070.4396	1101.8355	1153.5541	1158.1755	1158.7229	1171.8122	1186.0496	1218.4648	1230.1015	1249.3051	1260.4379	1278.228	1286.2446	1355.6202	1357.4359	1394.8548	1407.8602	1413.4375	1482.9652	1493.2885	1494.0439	1497.6281	1499.1655	1499.9784	1531.297	3014.2998	3023.6595	3024.0978	3035.8039	3036.533	3045.6946	3052.7869	3080.697	3091.065	3091.4496	3091.4686	3091.7803	3104.6919	3133.3523
CC1CC(C)C11CCO1	C[C@H]1C[C@@H](C)[C@]21CCO2	
InChI=1S/C8H14O/c1-6-5-7(2)8(6)3-4-9-8/h6-7H,3-5H2,1-2H3	InChI=1S/C8H14O/c1-6-5-7(2)8(6)3-4-9-8/h6-7H,3-5H2,1-2H3/t6-,7+,8+
