16
gdb 126791	4.59459	1.06097	0.93599	4.3446	77.98	-0.2317	-0.0529	0.1788	1246.6109	0.125237	-434.067616	-434.059598	-434.058653	-434.101144	29.166	
C	-0.0074916215	 1.5777872662	-0.0060875254	-0.381409
C	 0.0062572938	 0.0504581346	-0.0074657038	-0.123973
N	 0.6795423024	-0.4972706022	-1.1894230698	 0.122577
N	-0.0676214885	-0.6880725109	-2.2747394932	-0.184384
C	 0.5290525371	-1.1093978233	-3.3542041572	-0.067421
C	 1.9633351951	-1.3730196292	-3.4456567195	 0.286099
O	 2.535381631	-1.7727522892	-4.4508747875	-0.376688
C	 2.6202599496	-1.091804822	-2.1711399943	-0.067422
N	 1.9969830352	-0.6707036389	-1.1067247066	-0.184383
H	 1.0118773271	 1.9736258435	-0.0084007741	 0.140702
H	-0.5356192502	 1.9604837347	-0.8838295045	 0.140704
H	-0.5174381975	 1.9435322045	 0.8898550652	 0.130125
H	 0.5399356511	-0.3398005454	 0.860727039	 0.141175
H	-1.0076913766	-0.3529394461	-0.014755451	 0.141173
H	-0.1014861127	-1.2663513927	-4.2242641491	 0.141563
H	 3.6927133644	-1.2344290135	-2.0777609883	 0.141563
44.0527	79.3033	173.1747	224.3665	354.7293	386.3167	451.7141	456.7352	485.6011	520.7392	648.7494	752.9499	763.0604	798.3905	825.9314	932.6865	955.6848	980.9431	1004.9062	1070.3013	1101.6591	1218.0148	1274.4049	1305.9321	1332.6755	1355.175	1392.1299	1408.3943	1410.3066	1473.1996	1489.7144	1503.7679	1553.9841	1595.7473	1751.3584	3046.7055	3086.8589	3121.0521	3123.9736	3149.5912	3183.0393	3184.6857
CCN1N=CC(=O)C=N1	CCn1ncc(=O)cn1	
InChI=1S/C5H7N3O/c1-2-8-6-3-5(9)4-7-8/h3-4H,2H2,1H3	InChI=1S/C5H7N3O/c1-2-8-6-3-5(9)4-7-8/h3-4H,2H2,1H3
