18
gdb 47945	2.35842	1.74013	1.18978	2.9882	68.39	-0.2482	0.0352	0.2833	1051.6049	0.149829	-476.250485	-476.242522	-476.241578	-476.283073	30.367	
O	-0.0308950516	-0.0093999855	-0.2118716918	-0.387295
C	-0.0054122745	 1.1776030749	 0.0026737285	 0.439925
N	-1.086953531	 1.9589127425	 0.2782633487	-0.325305
C	-1.0902614587	 3.412337188	 0.1443050638	-0.169213
C	-0.9264688794	 3.9400305781	-1.2949179441	-0.067986
O	 0.3900167995	 3.9361400008	-1.8126332021	-0.238279
C	 0.9031783823	 2.6999958536	-2.2741189763	-0.099425
C	 1.8052785402	 2.0272036293	-1.2361875166	-0.08084
O	 1.1402571822	 1.9362450863	 0.0227091122	-0.247554
H	-1.9685297634	 1.4705956355	 0.2512926979	 0.255895
H	-2.0536744982	 3.766796951	 0.5256324788	 0.108729
H	-0.3053773549	 3.8385275625	 0.7729767965	 0.14304
H	-1.6056596693	 3.3867571943	-1.9636087953	 0.091532
H	-1.2325598307	 4.9924031818	-1.303386559	 0.11215
H	 0.0861706744	 2.0222989186	-2.5623918223	 0.111087
H	 1.4970891166	 2.9007614566	-3.1745730529	 0.107991
H	 2.1168108586	 1.0358689363	-1.5879329033	 0.122705
H	 2.690655378	 2.6377467054	-1.0464560727	 0.122841
87.4229	144.7946	186.8505	254.5508	315.705	346.9665	406.5411	490.8668	511.1857	545.9843	586.0272	646.2742	768.4203	812.8251	839.3424	875.1173	920.4613	964.9901	1013.0106	1054.3606	1101.2463	1126.2067	1160.7099	1173.3236	1268.6251	1284.3898	1290.1332	1317.6326	1343.8039	1394.3323	1402.7367	1412.3534	1417.7556	1459.1	1475.2631	1478.9203	1488.0475	1498.3658	1836.3255	2978.2543	2999.1607	3039.3448	3053.3417	3054.806	3070.0816	3117.5436	3118.0805	3635.8875
O=C1NCCOCCO1	O=C1NCCOCCO1	
InChI=1S/C5H9NO3/c7-5-6-1-2-8-3-4-9-5/h1-4H2,(H,6,7)	InChI=1S/C5H9NO3/c7-5-6-1-2-8-3-4-9-5/h1-4H2,(H,6,7)
