16
gdb 125358	3.34096	1.59551	1.08709	3.648	76.92	-0.1941	0.0285	0.2227	1060.3638	0.127235	-396.960279	-396.95244	-396.951496	-396.992409	29.415	
C	-0.0071562748	 1.5280392455	-0.0050173443	-0.505808
C	-0.0063562509	 0.0314596328	 0.0205036007	 0.081134
C	-0.0331730368	-0.8008714572	-1.0692371776	-0.145518
N	-0.0230716051	-2.1453654458	-0.6656955553	-0.431969
C	 0.0105829854	-2.1388640914	 0.6958924644	 0.457589
C	 0.0222400226	-0.831760579	 1.1747310259	 0.175339
C	 0.0571551662	-1.0007577561	 2.5841877319	-0.15983
N	 0.0658433614	-2.283942206	 2.927686151	-0.230463
N	 0.0368914369	-2.9867403736	 1.7488621669	-0.361232
H	 0.8857923941	 1.9409035686	 0.4794625524	 0.126122
H	-0.032903096	 1.9053470304	-1.0314479488	 0.118177
H	-0.8748269814	 1.940697136	 0.5235553178	 0.12612
H	-0.0592174318	-0.5596432247	-2.1207163916	 0.117648
H	-0.0379556769	-2.9386351029	-1.2795351039	 0.261327
H	 0.0763842044	-0.2546620993	 3.3652089608	 0.105004
H	 0.0374384626	-3.9896286673	 1.7820707497	 0.266362
136.702	167.334	189.8666	239.3597	246.7695	274.4828	404.4628	515.8635	599.6283	605.2744	649.8855	691.8008	714.4377	757.6784	810.7274	872.4767	967.3281	1003.4178	1055.4094	1064.6043	1084.0218	1114.4474	1217.1455	1264.3607	1281.9168	1327.5669	1388.3849	1419.6673	1433.8946	1478.4209	1480.3998	1504.6067	1539.172	1610.2751	1646.918	3021.9227	3068.6972	3104.6976	3241.2399	3252.6642	3699.7728	3701.9687
CC1=CNC2=C1C=NN2	Cc1c[nH]c2c1cn[nH]2	
InChI=1S/C6H7N3/c1-4-2-7-6-5(4)3-8-9-6/h2-3H,1H3,(H2,7,8,9)	InChI=1S/C6H7N3/c1-4-2-7-6-5(4)3-8-9-6/h2-3H,1H3,(H2,7,8,9)
