21
gdb 111990	4.00253	1.10088	0.9762	0.9426	85.06	-0.2279	0.0119	0.2399	1300.5157	0.182028	-387.077425	-387.068423	-387.067479	-387.111012	34.326	
C	 0.0440188486	 1.3962410038	 0.0867201876	-0.232062
O	-0.1729681132	 0.0163967092	-0.0858843815	-0.243466
C	 0.5720094354	-0.5578531022	-1.1551442664	 0.079161
C	 2.0424850061	-0.7931193152	-0.8267129912	-0.111885
C	 2.3807628222	-2.0739326478	-0.9710934309	-0.138011
C	 1.2201226411	-2.926090914	-1.3902633773	 0.315204
C	 1.4311002982	-4.0597530444	-2.3647700933	-0.486508
C	 0.1185138333	-2.9807968688	-0.3476129532	-0.307457
C	 0.0550164322	-1.9592078798	-1.459604384	-0.114082
H	 1.074841012	 1.62914661	 0.394163783	 0.103036
H	-0.1732114699	 1.9619875615	-0.8338510769	 0.100358
H	-0.635111115	 1.7337044168	 0.8739913456	 0.125287
H	 0.4671921031	 0.09623224	-2.038612385	 0.062942
H	 2.698240581	-0.0027452498	-0.4808510286	 0.095209
H	 3.3655114066	-2.491790181	-0.7851184226	 0.093052
H	 2.0910064217	-4.8272909289	-1.9430510011	 0.117119
H	 0.4824606812	-4.5440108116	-2.616255963	 0.116423
H	 1.8859825926	-3.7064393169	-3.2971937588	 0.118022
H	-0.5857103851	-3.8050779629	-0.4101162724	 0.104148
H	 0.3327652811	-2.6372491679	 0.6576176631	 0.121495
H	-0.7163519232	-2.0719356401	-2.2120389029	 0.082012
76.6123	114.0332	172.6284	210.9214	231.0187	255.9227	319.8617	365.4567	401.2127	495.2005	542.5245	618.1982	734.8239	753.3565	790.7176	849.4465	908.6942	929.7008	936.7209	956.4808	979.6888	1002.5887	1029.2023	1061.0418	1081.0218	1088.3246	1118.0176	1130.4191	1154.5917	1181.9862	1218.8723	1264.5206	1278.0235	1325.689	1353.0113	1371.3213	1408.6711	1421.6181	1477.2296	1482.9513	1489.3588	1489.4906	1501.6549	1509.7793	1676.2024	2940.0473	2969.5548	3014.8427	3022.7405	3080.9707	3100.3446	3108.2248	3126.2258	3172.8	3178.1923	3207.4904	3220.7291
COC1C=CC2(C)CC12	CO[C@H]1C=C[C@@]2(C)C[C@@H]12	
InChI=1S/C8H12O/c1-8-4-3-7(9-2)6(8)5-8/h3-4,6-7H,5H2,1-2H3	InChI=1S/C8H12O/c1-8-4-3-7(9-2)6(8)5-8/h3-4,6-7H,5H2,1-2H3/t6-,7-,8-/m0/s1
