18
gdb 23598	3.71735	1.21425	1.14443	0.991	78.95	-0.2412	0.0042	0.2454	1119.8141	0.147893	-401.849255	-401.841713	-401.840769	-401.881249	30.3	
O	-0.1475043443	 1.354002909	-0.0167365512	-0.393297
N	 0.0248729377	-0.0444418346	-0.0182656974	-0.247044
C	-1.0932548832	-0.6384337606	-0.0358619155	 0.418
C	-2.5585319812	-0.215998939	 0.0022265409	-0.351637
C	-2.9333830722	-1.7331293585	 0.0102637287	-0.025129
C	-3.1183195593	-2.4740589216	-1.3348327488	-0.055565
C	-2.1923349613	-1.9717435367	-2.4089444699	-0.298502
C	-1.6356480999	-2.869993899	-1.3443996832	-0.045714
C	-1.4174558952	-2.1230666554	-0.0008151292	-0.127674
H	 0.7624016912	 1.6690899073	 0.0086376962	 0.305465
H	-2.8151932348	 0.3107838013	 0.9271512491	 0.125746
H	-2.9112631516	 0.3863897492	-0.8395972568	 0.125266
H	-3.5835919232	-2.0766977547	 0.8130683076	 0.075437
H	-3.985198716	-3.0755997971	-1.5810748823	 0.085854
H	-2.3293183136	-2.4474863625	-3.3750338596	 0.112878
H	-1.897855675	-0.929066202	-2.4774126243	 0.122629
H	-1.1779834843	-3.8223926517	-1.5820847217	 0.089224
H	-0.9668761441	-2.7188511533	 0.7928347373	 0.084063
80.2945	187.2678	217.2317	319.3417	346.9136	409.3865	457.9772	484.9695	589.4113	685.6355	724.7872	744.3464	758.2158	840.8938	879.3023	896.0592	913.7262	948.7522	960.9318	983.6239	1003.168	1041.2753	1057.4743	1069.2381	1083.4959	1097.4825	1122.6502	1165.1049	1181.3544	1213.7492	1231.417	1257.8256	1288.4568	1303.3903	1356.9354	1399.7006	1451.1434	1498.4717	1772.3736	3051.7143	3098.0365	3112.6521	3124.6317	3126.0983	3174.7842	3184.7831	3205.063	3816.107
ON=C1CC2C3CC3C12	ON=C1C[C@H]2[C@H]3C[C@H]3[C@@H]12	
InChI=1S/C7H9NO/c9-8-6-2-5-3-1-4(3)7(5)6/h3-5,7,9H,1-2H2	InChI=1S/C7H9NO/c9-8-6-2-5-3-1-4(3)7(5)6/h3-5,7,9H,1-2H2/t3-,4+,5-,7+/m0/s1
