15
gdb 98939	4.16843	0.87565	0.73785	8.4787	73.81	-0.2539	-0.0636	0.1903	1447.4602	0.112966	-450.163361	-450.154076	-450.153132	-450.198464	32.609	
N	-0.9221165312	 0.9754319444	-0.4813385002	-0.534635
H	-0.0521213107	 0.4807599317	-0.317179264	 0.247838
H	-0.400613393	 2.9997167493	-0.7526811151	 0.282085
H	-1.5392434051	 0.3312798138	-0.9603974787	 0.250994
C	-1.5192734157	 1.4132309476	 0.7852851608	-0.251224
C	-1.1738585862	 2.8682302641	 1.0951929281	 0.432537
N	-0.5634253309	 3.5121607361	 0.1040372449	-0.491772
N	-1.4024529364	 3.5161950668	 2.2142143824	-0.387086
C	-2.1149801528	 2.9229215806	 3.2154798855	 0.276774
O	-2.7561850933	 1.8847380583	 3.220259605	-0.351673
C	-2.0795426032	 3.7401333141	 4.4504874773	 0.258541
N	-2.0784884902	 4.3331333722	 5.4428349039	-0.329218
H	-2.6094134523	 1.3499923588	 0.7332056543	 0.166328
H	-1.2447799588	 0.8030591601	 1.6515020901	 0.152444
H	-0.3202415801	 4.482504712	 0.2184215757	 0.278067
28.1202	122.5498	138.528	152.7624	212.5633	234.6689	331.1518	344.367	413.085	452.3545	484.7566	583.8093	616.9443	637.7711	765.2304	793.8056	802.7482	876.1998	922.4848	960.588	1076.9907	1089.8069	1183.2883	1308.0683	1336.5493	1373.6388	1412.9178	1458.1837	1556.448	1646.4982	1665.628	1712.7942	2344.4099	3063.3791	3107.6065	3524.1644	3541.2776	3603.912	3706.2102
[NH3+]CC(=N)[N-]C(=O)C#N	NCC(=NC(=O)C#N)N	
InChI=1S/C4H6N4O/c5-1-3(7)8-4(9)2-6/h1,5H2,(H2,7,8,9)	InChI=1S/C4H6N4O/c5-1-3(7)8-4(9)2-6/h1,5H2,(H2,7,8,9)
