21
gdb 72180	2.94545	1.94802	1.54831	0.207	84.59	-0.2352	0.0933	0.3285	950.6969	0.185367	-349.928779	-349.921912	-349.920968	-349.959376	29.875	
C	 0.0316745777	 1.4989232781	 0.0424438253	-0.495215
C	 0.0007239841	-0.0102074994	-0.0333814558	 0.366686
C	 0.1551167781	-0.7348968665	-1.3896266383	-0.282579
C	-0.7928604965	-1.8434208326	-0.8488794654	-0.051785
C	 0.0187135325	-2.9183994421	-0.1107217357	-0.225597
C	 0.410295303	-2.2249708056	 1.1830416718	-0.054719
C	-0.6789647836	-1.2965412382	 1.6355196059	-0.084681
C	 0.6624787239	-0.7245244717	 1.1767488012	-0.121241
C	-1.2829241174	-0.8456242442	 0.2859594599	-0.089099
H	 1.0450692259	 1.8834381862	-0.1292825081	 0.112363
H	-0.6264826393	 1.9463132857	-0.7107196242	 0.10853
H	-0.2920866405	 1.8518508174	 1.0284614636	 0.114724
H	-0.308713234	-0.1534077007	-2.1937944148	 0.087288
H	 1.1562514948	-1.0444287555	-1.7089634769	 0.084042
H	-1.53236354	-2.2473459657	-1.541754459	 0.059873
H	-0.5933907236	-3.7998275826	 0.1182405207	 0.090187
H	 0.8750085113	-3.2562460755	-0.7057359067	 0.093081
H	 0.9581237678	-2.7770174554	 1.9404359556	 0.078178
H	-1.146950462	-1.3022713445	 2.6115308216	 0.078721
H	 1.4604570425	-0.2976773843	 1.7754754845	 0.073446
H	-2.2828784047	-0.4200937629	 0.2249007546	 0.057795
221.8681	231.0778	261.4044	329.6802	414.2192	469.2259	533.1633	648.4049	693.0215	731.2223	757.7482	805.1084	828.7648	831.3789	867.0999	893.6847	921.0042	933.7433	946.3347	956.4886	978.4963	1006.4663	1018.5645	1045.7804	1066.815	1079.1483	1108.0523	1117.8077	1148.6345	1182.3128	1215.8051	1224.7396	1231.4492	1250.966	1255.954	1283.0979	1301.4462	1334.7332	1354.9564	1403.4895	1408.4155	1482.3534	1490.1448	1493.0642	1498.6362	3014.7414	3021.5313	3030.039	3063.1011	3076.6324	3080.2238	3089.3555	3094.2107	3129.2489	3155.0423	3164.6308	3191.9527
CC12CC3CC4C(C14)C23	C[C@@]12C[C@H]3C[C@@H]4[C@@H]([C@H]14)[C@@H]23	
InChI=1S/C9H12/c1-9-3-4-2-5-6(7(4)9)8(5)9/h4-8H,2-3H2,1H3	InChI=1S/C9H12/c1-9-3-4-2-5-6(7(4)9)8(5)9/h4-8H,2-3H2,1H3/t4-,5-,6-,7+,8-,9+/m1/s1
