19
gdb 110370	4.57634	1.0424	1.012	2.5121	75.12	-0.2487	0.0741	0.3228	1229.5803	0.160594	-422.966635	-422.959064	-422.95812	-422.998876	30.038	
O	-0.0857889969	 1.2711650683	-0.501070809	-0.419383
C	-0.0579408103	-0.0063276151	 0.1226457891	-0.12361
C	-1.4542544958	-0.5705145286	 0.1033614553	-0.003159
C	-1.9278882314	-1.2470486891	-1.1580152716	-0.052584
C	-1.6109748732	-2.0720535495	 0.0773978209	-0.089398
C	-3.0339363154	-2.6164958836	 0.3440848223	 0.044308
C	-3.4788275305	-3.1017522793	-1.0631363773	-0.216793
C	-3.4393489063	-1.5589401607	-1.2430176902	 0.043387
O	-3.8807381133	-1.4454705507	 0.144849914	-0.285344
H	 0.7794841605	 1.675973338	-0.3890223306	 0.284938
H	 0.6312156732	-0.6888881279	-0.4025581137	 0.076683
H	 0.2912728113	 0.069545162	 1.1648053763	 0.088336
H	-2.1837140273	 0.0006074134	 0.665774017	 0.111166
H	-1.3185899387	-1.2458782892	-2.0534732625	 0.090752
H	-0.7546259959	-2.731740153	 0.1537897627	 0.085606
H	-3.2364289442	-3.160254812	 1.2667328255	 0.081343
H	-2.7940664289	-3.719760438	-1.6502198806	 0.092645
H	-4.4958247504	-3.498038834	-1.0662664835	 0.106944
H	-4.0603271964	-1.0131930307	-1.9527914839	 0.084163
81.5337	146.1232	218.0769	266.4978	341.0719	398.3396	437.7741	524.2142	643.4416	707.1344	791.3655	820.8085	853.2316	854.6803	865.2648	925.7033	937.6601	947.4	972.5861	1010.8575	1023.4305	1068.1893	1071.2273	1089.0538	1097.0722	1105.6188	1130.0518	1176.4587	1187.3415	1223.3763	1235.9954	1249.6888	1256.847	1276.2797	1288.6478	1293.6523	1313.9891	1417.3013	1469.94	1484.4232	1519.7799	2955.8951	2987.0123	3061.1669	3121.7993	3127.032	3138.2216	3178.802	3182.8747	3191.5896	3825.9466
OCC1C2C1C1CC2O1	OC[C@H]1[C@H]2[C@@H]1[C@@H]1C[C@H]2O1	
InChI=1S/C7H10O2/c8-2-3-6-4-1-5(9-4)7(3)6/h3-8H,1-2H2	InChI=1S/C7H10O2/c8-2-3-6-4-1-5(9-4)7(3)6/h3-8H,1-2H2/t3-,4+,5-,6+,7-
