16
gdb 31179	2.69228	1.30805	0.88942	8.4379	78.16	-0.2048	-0.0183	0.1865	1251.0936	0.125101	-434.106105	-434.097474	-434.09653	-434.139839	30.86	
C	 0.1090039832	 1.4526088022	 0.0679220007	-0.34683
N	-0.1882378581	 0.0459320946	-0.141239424	-0.386601
C	 0.4988556678	-0.6913552643	-1.0722609581	 0.351271
C	 0.6888452672	-2.0683110332	-1.2276230789	 0.100331
C	 0.2191605474	-3.0968525895	-0.3265297061	 0.075388
O	 0.370573888	-4.2936357831	-0.441435453	-0.28943
N	 1.4165431219	-2.3080994391	-2.3887470989	-0.282907
C	 1.6588947276	-1.1467194034	-2.9062527721	 0.006271
N	 1.1259700234	-0.1165023204	-2.1435473356	-0.320541
H	 1.1694057057	 1.6470130015	 0.2879735958	 0.129685
H	-0.1784064529	 2.0419814631	-0.8109052738	 0.133711
H	-0.4898218337	 1.8160233478	 0.9047455469	 0.14717
H	-0.4199406183	-0.4713910463	 0.6916758988	 0.2604
H	-0.3362486142	-2.6857938616	 0.5567381403	 0.018964
H	 2.2083467091	-0.9451366169	-3.8138121654	 0.135519
H	 1.1709595558	 0.8668273987	-2.3508163167	 0.267598
64.072	148.882	158.8964	173.7025	227.5139	248.2252	345.0901	376.8636	476.9077	489.6965	570.4359	669.0309	709.1409	726.7471	797.4353	820.8896	945.7401	1013.1184	1043.7028	1085.7875	1122.2318	1152.2096	1190.3706	1297.2685	1324.0485	1360.5659	1417.6784	1460.642	1466.7698	1489.2925	1518.6851	1520.54	1575.9804	1632.5407	1790.587	2772.0729	2990.7685	3055.9824	3132.2757	3250.791	3633.6571	3666.112
CNC1=C(C=O)N=CN1	CNc1c(C=O)nc[nH]1	
InChI=1S/C5H7N3O/c1-6-5-4(2-9)7-3-8-5/h2-3,6H,1H3,(H,7,8)	InChI=1S/C5H7N3O/c1-6-5-4(2-9)7-3-8-5/h2-3,6H,1H3,(H,7,8)
