17
gdb 125515	4.38812	0.88382	0.79485	2.3128	77.04	-0.2378	-0.0365	0.2013	1434.7884	0.135179	-418.040545	-418.031586	-418.030641	-418.076244	31.041	
C	 0.0430611296	 1.4921577713	 0.1313624954	-0.490425
C	 0.0285396186	-0.0036874886	 0.0974386055	 0.355088
N	 0.2093754634	-0.6570517061	-1.0506268293	-0.327864
N	 0.1557687228	-1.9692182018	-0.7256289212	 0.050664
C	 0.2212477657	-2.9588661624	-1.7714192837	-0.248028
C	-1.1145895132	-3.1433703671	-2.4930919223	 0.149469
O	-1.3719380151	-4.1105083911	-3.1566394186	-0.225282
C	-0.0702371336	-2.1590132395	 0.5994915048	-0.023854
C	-0.1517957776	-0.9092287037	 1.1708818242	-0.301369
H	 0.8452249203	 1.869854231	 0.7747472176	 0.130516
H	 0.1956167479	 1.8862575822	-0.8754331185	 0.140229
H	-0.8995875418	 1.8921110042	 0.520371569	 0.129821
H	 0.9616957549	-2.6336402177	-2.5103140301	 0.1647
H	 0.5466496868	-3.9191860542	-1.3641395595	 0.149072
H	-1.8232912622	-2.2970316294	-2.3626414286	 0.108494
H	-0.14412215	-3.1497269184	 1.0206796482	 0.134634
H	-0.3087438566	-0.6796448787	 2.212637127	 0.104134
27.0685	65.7679	85.0114	100.1027	254.841	269.2043	356.0072	405.3449	430.4905	633.1583	663.1432	688.6431	700.1809	770.5095	800.9716	835.1344	983.3268	1012.5012	1022.4758	1044.6079	1058.8844	1065.5456	1088.8635	1195.9644	1238.6146	1328.6066	1342.9057	1396.7373	1404.685	1409.046	1435.6074	1450.1538	1484.1261	1490.7582	1511.4559	1575.7242	1842.3516	2909.254	3036.63	3058.274	3088.159	3121.078	3133.6392	3250.6426	3270.6603
CC1=NN(CC=O)C=C1	Cc1nn(CC=O)cc1	
InChI=1S/C6H8N2O/c1-6-2-3-8(7-6)4-5-9/h2-3,5H,4H2,1H3	InChI=1S/C6H8N2O/c1-6-2-3-8(7-6)4-5-9/h2-3,5H,4H2,1H3
