19
gdb 85136	2.17455	1.69268	1.1622	3.659	76.95	-0.2314	0.0176	0.249	1118.8825	0.159769	-419.185321	-419.176808	-419.175864	-419.218517	32.258	
C	-0.3025206545	 1.5112242512	-0.0423817758	-0.412614
C	 0.1506337992	 0.069603525	-0.0664438462	 0.093472
O	 1.4379455862	-0.0885880649	-0.755125897	-0.284632
C	 2.0053293142	-0.7245878341	 0.3315200585	 0.396589
N	 3.1523430285	-1.2030167702	 0.4924924579	-0.547476
C	 0.7684312241	-0.5955996115	 1.2049450262	 0.192609
C	 0.7882929502	 0.116872253	 2.5811050466	-0.303205
C	-0.2020696024	-0.9779841739	 3.0496248546	-0.158133
N	 0.1607231779	-1.7608092368	 1.8474307088	-0.347429
H	 0.4490067163	 2.1514318343	 0.4281391697	 0.131736
H	-0.4716737796	 1.874328679	-1.0606456895	 0.134836
H	-1.2420875895	 1.6075764163	 0.5120419694	 0.123446
H	-0.5952835143	-0.5750994078	-0.5478997094	 0.085192
H	 3.724775162	-1.0928558866	-0.3468350758	 0.225706
H	 1.7682545932	 0.0446078184	 3.0544711362	 0.139257
H	 0.4429431365	 1.1504319512	 2.607201618	 0.110075
H	 0.0202369631	-1.4828653776	 3.9947123851	 0.110639
H	-1.2428951073	-0.6272234282	 3.0751346219	 0.092361
H	-0.587129984	-2.2220222469	 1.3410967204	 0.217571
88.9802	116.5066	172.0605	214.2014	243.8409	286.3379	307.423	463.9572	474.8167	589.1083	631.4052	676.2241	731.0976	772.8795	852.0263	868.4339	871.1042	926.9534	963.6641	1005.5701	1008.2233	1025.9174	1069.5183	1101.3479	1141.3599	1160.6823	1175.2317	1199.6084	1215.086	1239.5477	1267.7897	1323.1981	1344.8163	1377.331	1394.1857	1408.0736	1475.8036	1485.8609	1495.7168	1528.7036	1823.022	3004.3073	3028.55	3038.4978	3070.0944	3092.9929	3108.7954	3120.2678	3150.9228	3469.2557	3529.0928
CC1OC(=N)C11CCN1	C[C@H]1O[C]([NH])[C@]21CCN2	
InChI=1S/C6H10N2O/c1-4-6(2-3-8-6)5(7)9-4/h4,7-8H,2-3H2,1H3	InChI=1S/C6H10N2O/c1-4-6(2-3-8-6)5(7)9-4/h4,7-8H,2-3H2,1H3/t4-,6-/m1/s1
