21
gdb 79846	2.90281	1.67742	1.24672	1.3412	82.38	-0.2536	0.081	0.3346	1059.1618	0.183988	-387.058548	-387.050655	-387.049711	-387.090236	32.457	
C	 0.0797829682	 1.5561515528	-0.2121734323	-0.505655
C	 0.0651872248	 0.0467262721	-0.0666158844	 0.377661
C	 0.3522276303	-0.7271747834	-1.3644693416	-0.269724
C	 0.2592652574	-2.1892011752	-0.8692139026	-0.252275
C	-0.059953612	-1.9317652465	 0.5987617199	-0.000576
C	 0.7864102506	-0.7186477073	 1.1122543824	-0.131332
C	-0.3760517661	-0.4076416472	 2.0698051056	 0.139029
O	-0.4180520972	 0.8840624725	 2.6312213406	-0.438687
C	-1.0608983292	-0.7356723015	 0.7146791228	-0.164185
H	 1.0565140901	 1.8900477295	-0.5834508684	 0.10702
H	-0.6666052231	 1.8702859984	-0.952546639	 0.103617
H	-0.1244999152	 2.0652150707	 0.7274836493	 0.141619
H	-0.3844615473	-0.4912865507	-2.1405061486	 0.092004
H	 1.3385025564	-0.4748737903	-1.7696322878	 0.093067
H	-0.5302969689	-2.7608975623	-1.3675884413	 0.094674
H	 1.194439592	-2.7444223313	-0.9952281567	 0.095562
H	-0.1931157517	-2.7885054575	 1.2627462131	 0.05861
H	 1.8543845399	-0.7185436554	 1.3423696722	 0.062641
H	-0.5375403244	-1.164161037	 2.8511900356	 0.05928
H	-1.2520799795	 0.9757722065	 3.1020896803	 0.28188
H	-2.1295349152	-0.7572229069	 0.483925641	 0.055771
193.5411	200.8153	231.0611	257.6424	273.2047	344.9592	359.227	432.6569	492.0967	632.7884	710.8207	717.6985	720.2693	803.6588	832.6058	871.6372	920.2991	925.5913	933.2728	966.9546	1003.2303	1016.52	1058.2638	1069.806	1082.8166	1107.9148	1114.9338	1155.2722	1178.3669	1199.3692	1213.918	1223.0521	1242.9378	1253.25	1277.7683	1295.9481	1317.4294	1338.367	1364.0508	1408.7765	1455.0868	1486.6551	1494.5207	1510.7255	1510.9243	2991.4281	3022.5936	3033.9418	3046.2611	3065.3338	3071.6196	3071.9554	3083.9642	3087.5759	3096.6075	3168.0775	3821.1745
CC12CCC3C1C(O)C23	C[C@@]12CC[C@H]3[C@@H]1[C@@H](O)[C@@H]23	
InChI=1S/C8H12O/c1-8-3-2-4-5(8)7(9)6(4)8/h4-7,9H,2-3H2,1H3	InChI=1S/C8H12O/c1-8-3-2-4-5(8)7(9)6(4)8/h4-7,9H,2-3H2,1H3/t4-,5+,6-,7+,8+
