17
gdb 128674	3.33878	1.33052	0.96405	2.3444	72.57	-0.1901	0.0507	0.2408	1193.4536	0.13655	-451.332204	-451.322898	-451.321954	-451.367275	32.486	
C	-0.0049761345	 1.3533974034	 0.0330448842	-0.239493
O	-0.0374981476	-0.0782399962	 0.0041534079	-0.268072
C	-1.255184065	-0.6125238933	 0.0146496162	 0.523625
N	-2.3827434673	 0.0171626467	 0.0505629722	-0.352561
N	-3.3241778576	-1.0298201468	 0.1306409875	-0.334435
C	-2.7343305039	-2.2802581994	-0.0163274228	 0.429092
N	-3.1951948947	-3.4679166908	-0.1103456939	-0.61043
N	-1.3692497864	-1.9788696817	 0.003207632	-0.161064
C	-0.3131853024	-2.9646140666	-0.0679463325	-0.339201
H	 1.0504448877	 1.6246322344	 0.0323772744	 0.13791
H	-0.508162821	 1.7648759137	-0.8464105858	 0.145102
H	-0.5002373946	 1.7280572275	 0.9329972576	 0.147696
H	-4.23337008	-0.8272026052	-0.2504223741	 0.26247
H	-4.2111498471	-3.4757261584	-0.0767158337	 0.208996
H	-0.7130307712	-3.9010564545	 0.32394547	 0.171081
H	 0.0166578959	-3.1292041251	-1.0995629568	 0.136966
H	 0.5379259497	-2.6351329977	 0.5306216976	 0.142317
30.7848	95.0967	136.2754	161.2141	201.1019	212.155	283.2359	371.5205	389.584	410.9617	572.3619	651.3801	686.3725	705.0406	735.8317	779.8193	790.3702	973.7785	1062.9962	1076.7119	1087.104	1160.0347	1182.9249	1214.2956	1256.7331	1258.151	1362.9432	1400.8936	1429.0035	1460.0486	1477.1599	1489.8187	1501.0463	1510.3363	1555.9181	1687.5453	1749.4972	3040.6289	3046.9433	3114.1192	3120.4761	3156.7326	3161.3127	3528.1567	3660.3082
COC1=NNC(=N)N1C	COC1=NN[C@H]([NH])N1C	
InChI=1S/C4H8N4O/c1-8-3(5)6-7-4(8)9-2/h1-2H3,(H2,5,6)	InChI=1S/C4H9N4O/c1-8-3(5)6-7-4(8)9-2/h3,5-6H,1-2H3/t3-/m0/s1
