21
gdb 31604	2.80386	1.16368	0.88613	1.8099	88.56	-0.1669	0.0494	0.2163	1379.2374	0.18294	-383.305753	-383.295679	-383.294735	-383.340809	36.873	
C	-0.2173252781	 1.5399413934	 0.0003552366	-0.36598
C	 0.0561486674	 0.0234412909	 0.005110177	-0.301657
C	 0.7807769648	-0.4707128471	-1.2095506406	 0.314445
C	 2.1309814096	-0.7066568092	-1.382622069	-0.314588
C	 2.3364392511	-1.1380058577	-2.7234284992	 0.242866
N	 3.5878136105	-1.397616908	-3.3207415987	-0.605859
C	 1.1006295185	-1.1543796574	-3.3301684848	-0.188341
N	 0.1573710061	-0.730056385	-2.4067469411	-0.042599
C	-1.2683497366	-0.7737881704	-2.6419934468	-0.34175
H	 0.7202356428	 2.0973220018	-0.0825197831	 0.125704
H	-0.8483635219	 1.834134585	-0.8446360603	 0.115627
H	-0.7227560385	 1.8498622058	 0.9211529191	 0.107689
H	 0.6665060328	-0.2235621515	 0.8800792437	 0.111308
H	-0.8899576177	-0.5167158471	 0.1391023027	 0.098175
H	 2.8940398925	-0.5606338681	-0.6315318106	 0.078282
H	 4.2303572476	-1.8331638634	-2.6703905194	 0.236092
H	 3.5065873257	-1.9941919827	-4.1348292716	 0.233261
H	 0.8072087779	-1.4222047623	-4.3328290827	 0.094434
H	-1.7124926496	-1.7279832035	-2.3290216878	 0.128914
H	-1.7728014442	 0.0332823309	-2.1062339573	 0.138075
H	-1.4597601206	-0.6401911441	-3.7094434362	 0.135903
72.5463	90.7327	132.3552	157.3573	178.8444	202.7442	278.6611	292.1284	299.7581	393.6081	479.6496	587.594	614.0236	627.5731	659.4967	688.4221	754.0048	766.6979	795.1365	812.5976	964.1211	1011.533	1056.4204	1076.9999	1079.3349	1108.912	1146.8769	1181.0336	1196.0931	1251.1656	1298.5513	1350.6098	1380.2875	1407.2392	1429.0051	1462.4277	1478.8529	1489.8326	1493.3133	1496.2083	1507.2247	1517.8408	1545.4139	1634.5528	1658.1517	3013.6813	3022.0959	3033.364	3068.7591	3092.5414	3101.8064	3113.7042	3129.9267	3231.2011	3252.5816	3524.3749	3611.5583
CCC1=CC(N)=CN1C	CCc1cc(N)cn1C	
InChI=1S/C7H12N2/c1-3-7-4-6(8)5-9(7)2/h4-5H,3,8H2,1-2H3	InChI=1S/C7H12N2/c1-3-7-4-6(8)5-9(7)2/h4-5H,3,8H2,1-2H3
