17
gdb 53878	4.42986	0.68503	0.6061	2.2181	72.35	-0.2498	-0.0698	0.1799	1737.6325	0.133463	-455.176929	-455.166949	-455.166005	-455.213471	34.574	
N	-0.0735145899	 1.3532513104	-0.1386458311	-0.508998
C	 0.0920269751	 0.004228949	-0.0886062667	 0.270269
N	 1.2487458205	-0.5447220874	-0.042172114	-0.511598
C	-1.2479588324	-0.7344659342	-0.0943115312	 0.35477
O	-2.2732568863	-0.1186593497	-0.2839755234	-0.309743
C	-1.2356039464	-2.2411274989	 0.1118637907	-0.346545
C	-2.6458719139	-2.8252524739	 0.2500049064	-0.276413
C	-2.6428464915	-4.3307338841	 0.1167476035	 0.157063
O	-3.1198070812	-5.0965294856	 0.9119774201	-0.232468
H	 0.7353498136	 1.923096459	-0.3194947714	 0.265027
H	-0.9876860458	 1.6999615477	-0.376867664	 0.272137
H	 1.1777256093	-1.555901987	 0.0295226324	 0.219126
H	-0.7123979587	-2.6898092622	-0.7453816763	 0.144106
H	-0.6230310546	-2.4770747433	 0.9897933921	 0.151018
H	-3.1045792897	-2.5497202687	 1.2022734261	 0.136369
H	-3.2724890582	-2.4126791236	-0.5516367535	 0.144763
H	-2.1512154297	-4.7037226175	-0.8142605096	 0.071117
45.7509	62.761	63.8653	99.6001	158.5109	273.5645	298.9088	325.0018	394.917	413.7803	486.872	524.2325	541.8846	612.905	674.7478	777.167	801.5611	819.0371	880.8272	1014.8769	1047.7174	1082.3049	1102.6481	1125.4132	1158.5857	1184.7101	1263.3576	1304.4019	1364.537	1429.1935	1430.8947	1455.1832	1466.9324	1591.1588	1715.7688	1790.6384	1841.5747	2841.2439	3014.9963	3039.1967	3067.8805	3118.5811	3533.7923	3605.2012	3736.6444
NC(=N)C(=O)CCC=O	NC(=N)C(=O)CCC=O	
InChI=1S/C5H8N2O2/c6-5(7)4(9)2-1-3-8/h3H,1-2H2,(H3,6,7)	InChI=1S/C5H8N2O2/c6-5(7)4(9)2-1-3-8/h3H,1-2H2,(H3,6,7)
