21
gdb 74757	2.91984	1.4457	1.27218	0.2653	88.47	-0.2106	0.0239	0.2345	1115.8841	0.183215	-349.911034	-349.90307	-349.902126	-349.94302	32.576	
C	-0.0147226341	 1.4508412928	 0.0549244685	-0.51846
C	-0.0064381398	-0.0372224805	 0.0051634974	 0.354817
C	-0.0220937379	-0.8949825324	-1.0222507169	-0.193949
C	 0.0243314971	-2.2758613999	-0.3489326313	-0.155883
C	-1.011423563	-2.052828931	 0.8084199757	-0.208111
C	 0.0464339567	-0.9743616996	 1.2315738484	-0.209782
C	 1.0968336428	-2.0077483795	 0.7424999018	 0.471382
C	 1.8702684485	-2.997606552	 1.549591483	-0.362694
C	 2.5822481018	-1.9618085936	 0.6840851607	-0.367284
H	 0.8852309195	 1.8405757973	 0.548881603	 0.124383
H	-0.0613502596	 1.8827294946	-0.949162518	 0.12328
H	-0.8707349394	 1.8307847706	 0.627845106	 0.123754
H	-0.0447378906	-0.694701003	-2.0845776367	 0.090223
H	 0.029879829	-3.1723764759	-0.968978375	 0.05639
H	-2.0028258398	-1.6922274588	 0.5238132169	 0.086594
H	-1.0749320035	-2.8934717857	 1.5057998519	 0.093519
H	 0.0745179367	-0.5338068841	 2.2292364728	 0.054376
H	 1.9147489582	-2.8733875305	 2.6275498572	 0.109166
H	 1.8933541401	-4.0331169135	 1.2232076655	 0.109859
H	 3.0774636034	-2.3086538891	-0.217490288	 0.110166
H	 3.0989986237	-1.1511009461	 1.1884589769	 0.108256
127.0987	181.9878	221.0457	233.4968	277.3864	326.8987	446.5172	524.5561	553.968	623.6384	633.5076	763.1884	781.5671	799.9212	831.4289	855.8512	874.4485	918.8789	930.6445	948.6643	990.7009	998.7167	1008.7943	1045.4601	1051.6926	1064.7736	1074.5979	1093.2056	1113.1238	1174.4133	1180.3373	1202.6155	1205.8751	1224.9686	1243.4728	1249.8794	1308.7976	1387.7272	1414.2442	1460.3144	1478.0866	1486.8392	1488.5859	1509.7711	1689.4675	3010.4581	3049.6203	3053.4634	3102.6437	3106.2545	3115.4157	3116.1978	3119.1634	3122.8973	3192.966	3208.4602	3223.5371
CC1=CC2CC1C21CC1	CC1=C[C@@H]2C[C@H]1C12CC1	
InChI=1S/C9H12/c1-6-4-7-5-8(6)9(7)2-3-9/h4,7-8H,2-3,5H2,1H3	InChI=1S/C9H12/c1-6-4-7-5-8(6)9(7)2-3-9/h4,7-8H,2-3,5H2,1H3/t7-,8-/m1/s1
