21
gdb 93814	2.93741	1.29779	0.94095	3.6707	81.32	-0.2217	0.0337	0.2553	1284.1889	0.183832	-420.438995	-420.429821	-420.428877	-420.472795	34.032	
C	-0.0097999957	 1.4680950631	 0.0124097001	-0.315321
N	-0.0130672228	 0.015456485	 0.0031977272	-0.075189
C	-1.3340633519	-0.5495642412	-0.2036261906	-0.1605
C	-1.2036022222	-2.0440417298	-0.4606003264	-0.150342
N	-0.4044898138	-2.7037532771	 0.5617278826	-0.098133
C	-0.4571271321	-4.1547853476	 0.5928481879	-0.344672
C	 0.515319291	-2.0520294924	 1.3365848822	 0.402306
O	 1.2421077096	-2.6210002231	 2.1341049208	-0.391084
C	 0.5717298442	-0.5307374763	 1.2181290692	-0.259112
H	 1.0156752909	 1.8329953681	 0.1274162657	 0.124523
H	-0.4016137543	 1.8461517454	-0.9370035158	 0.1189
H	-0.6164272177	 1.8985892446	 0.8323893753	 0.094598
H	-2.0042034718	-0.3714490234	 0.6619728915	 0.083222
H	-1.7979527078	-0.079185491	-1.076460363	 0.106757
H	-2.2000350454	-2.5035073893	-0.4721103696	 0.105432
H	-0.7556922298	-2.2083361563	-1.4520060723	 0.111576
H	-0.1341338516	-4.5802380739	-0.3666233436	 0.120332
H	 0.2072528214	-4.5016091242	 1.382788895	 0.169969
H	-1.4799340902	-4.4960797676	 0.7920373323	 0.119472
H	 1.627603949	-0.2547087809	 1.2830892695	 0.134358
H	 0.083087291	-0.1323205221	 2.1314495722	 0.102907
95.426	113.8633	146.6938	211.3582	237.4756	256.5029	311.0422	359.4552	366.1357	399.6907	473.911	540.0616	606.5232	682.8947	730.5027	837.6973	940.0713	987.1352	1015.8559	1057.3654	1077.2135	1100.0837	1145.5794	1154.0223	1163.437	1188.0973	1218.9866	1257.9367	1280.8349	1301.3667	1324.3183	1361.5639	1377.6487	1409.1253	1430.7426	1457.7347	1462.4984	1478.758	1486.9356	1499.4099	1500.1694	1505.5017	1506.4665	1542.0405	1764.594	2893.2634	2900.4166	2926.3928	2992.5866	3012.7009	3041.6673	3061.385	3062.3862	3072.9138	3090.4361	3106.2603	3167.6983
CN1CCN(C)C(=O)C1	CN1CCN(C)C(=O)C1	
InChI=1S/C6H12N2O/c1-7-3-4-8(2)6(9)5-7/h3-5H2,1-2H3	InChI=1S/C6H12N2O/c1-7-3-4-8(2)6(9)5-7/h3-5H2,1-2H3
