16
gdb 74588	2.58628	2.08611	1.42138	3.5136	73.11	-0.2173	-0.0182	0.1991	923.5857	0.124711	-400.731582	-400.724501	-400.723557	-400.762931	28.009	
C	 0.0083480059	 1.499873826	 0.1242008849	-0.492821
C	-0.0671500643	 0.0243361541	-0.0355652658	 0.287665
C	 0.0494518154	-0.7677230245	-1.1060426287	-0.192534
C	-0.0109736797	-2.1949820822	-0.6438564949	-0.081091
C	-0.5787058388	-2.1656937197	 0.7162430426	-0.030743
C	 0.880270379	-2.5951781776	 0.598281713	-0.236892
C	 1.2120242575	-1.3570345024	 1.346099532	 0.432153
O	 2.1369198681	-0.9048566009	 1.9448777531	-0.318442
N	-0.1630833719	-0.7972818499	 1.1822102042	-0.240634
H	 0.8525175891	 1.7697284901	 0.7692623281	 0.154523
H	 0.1334949257	 1.9962586465	-0.8410487593	 0.126681
H	-0.896701586	 1.8824088579	 0.6093145249	 0.138759
H	 0.1673458535	-0.4612137237	-2.1355663416	 0.110339
H	-0.2172423933	-3.0158790112	-1.321009584	 0.107791
H	-1.4209908671	-2.6846706275	 1.1545946196	 0.116689
H	 1.3441538267	-3.5700092652	 0.658003212	 0.118557
135.5711	158.9458	193.7231	316.5948	419.3176	436.8673	566.86	589.1641	652.5876	734.6526	758.3491	788.7197	811.7025	828.0036	858.0458	868.8544	931.7517	959.4468	988.5455	1006.2899	1027.1511	1046.6686	1067.6201	1080.1373	1103.9361	1195.9935	1220.979	1269.8633	1302.1658	1361.4593	1412.1754	1469.3828	1483.9982	1699.9472	1909.2039	3031.8471	3086.2101	3125.9693	3185.6135	3201.1961	3218.7492	3237.4547
CC1=CC2C3C2C(=O)N13	CC1=C[C@@H]2[C@H]3[C@@H]2C(=O)N13	
InChI=1S/C7H7NO/c1-3-2-4-5-6(4)8(3)7(5)9/h2,4-6H,1H3	InChI=1S/C7H7NO/c1-3-2-4-5-6(4)8(3)7(5)9/h2,4-6H,1H3/t4-,5+,6-/m0/s1
