16
gdb 42810	3.92356	1.18492	1.15467	2.0591	72.78	-0.2564	-0.0278	0.2286	1076.0927	0.126291	-400.767265	-400.760036	-400.759091	-400.799143	27.808	
O	 0.0309817233	 0.0021309938	 0.0200730135	-0.309958
C	-0.0101041512	 1.1927384857	-0.0267374391	 0.427424
C	-1.0899135362	 2.288482765	 0.0515607949	-0.135152
C	-0.0460107381	 3.0040913669	 0.973822127	-0.255416
C	 1.0184195578	 2.3475932885	 0.0352395659	-0.144736
C	 0.7192085451	 3.041224797	-1.3244806865	-0.160278
C	-0.8655515882	 3.0087084929	-1.2950847487	-0.246916
C	 1.267861138	 4.3896671154	-1.4126062017	 0.274108
N	 1.695592943	 5.4622260197	-1.4726902655	-0.324749
H	-2.1132693722	 2.084050781	 0.3566760269	 0.097313
H	-0.0724323595	 4.0957764354	 0.985751801	 0.134393
H	-0.0193859486	 2.604553017	 1.9881681011	 0.130604
H	 2.0597140183	 2.2048118829	 0.311685728	 0.107836
H	 1.1158383196	 2.4575293963	-2.1599822157	 0.137942
H	-1.2714176113	 2.4606784365	-2.1477077133	 0.129723
H	-1.2882945397	 4.015004166	-1.295796448	 0.137862
103.2902	144.5738	176.7174	294.0126	415.7419	434.4764	499.501	563.5867	636.631	673.2745	765.9117	785.175	820.4208	853.2957	931.9931	955.3963	975.9473	988.9291	1012.1022	1044.772	1053.2545	1090.5549	1112.4514	1154.9569	1203.4063	1207.0696	1244.5143	1249.4083	1280.3789	1320.1377	1352.717	1492.3212	1507.1306	1910.4797	2354.1659	3072.2012	3078.0948	3079.19	3130.0323	3146.9394	3156.3093	3163.7119
O=C1C2CC1C(C2)C#N	O=C1[C@H]2C[C@@H]1[C@@H](C2)C#N	
InChI=1S/C7H7NO/c8-3-5-1-4-2-6(5)7(4)9/h4-6H,1-2H2	InChI=1S/C7H7NO/c8-3-5-1-4-2-6(5)7(4)9/h4-6H,1-2H2/t4-,5+,6-/m1/s1
