22
gdb 78671	2.56754	1.55575	1.17872	1.7043	85.66	-0.2342	0.0866	0.3207	1166.0353	0.19396	-367.172349	-367.163407	-367.162463	-367.205245	34.903	
C	-0.0462751498	 1.4690567255	 0.0002564784	-0.410938
C	 0.0199444022	-0.0561693308	 0.0195066131	 0.001186
C	 0.8456767041	-0.6387779422	-1.1179040717	-0.088382
N	 2.132087206	-0.5522419817	-0.3304518698	-0.203123
C	 1.1632712076	-0.6106094707	 0.8972706322	-0.033522
C	 1.1411552605	-2.1511110259	 0.7864467667	-0.025781
C	-0.0821079611	-2.9775164389	 1.1624213476	-0.43321
C	 1.5319889883	-1.8921609629	-0.6660163338	 0.315173
C	 2.1973558138	-2.8444176741	-1.6122976694	-0.503081
H	 0.9471015625	 1.9001455576	-0.1568765185	 0.135035
H	-0.7016888115	 1.8250807625	-0.8019409694	 0.111538
H	-0.4412521144	 1.8528787972	 0.947131939	 0.111327
H	-0.9800886393	-0.4734200449	 0.1869248421	 0.063212
H	 0.8168982186	-0.355365099	-2.165965157	 0.08411
H	 1.4468217544	-0.1115814475	 1.823954566	 0.071892
H	 2.0278906373	-2.5409401674	 1.3019819829	 0.078121
H	-0.981881352	-2.6491557098	 0.6347346465	 0.120132
H	 0.0761104864	-4.0336992252	 0.9183295136	 0.117829
H	-0.2811870353	-2.9165121492	 2.2382148528	 0.116647
H	 1.4936221952	-3.6074665663	-1.9641253211	 0.120222
H	 2.585034702	-2.313431952	-2.4872439848	 0.128627
H	 3.0380644546	-3.3534851044	-1.1286021853	 0.122987
169.4064	172.3946	187.8911	208.3558	217.3997	231.7456	253.6306	328.1281	379.3303	510.5918	566.5599	626.2685	699.9684	770.4271	797.7136	806.1334	841.6545	910.3793	917.4222	963.2953	1001.5449	1007.0918	1041.9621	1055.3569	1068.3106	1092.9619	1116.4872	1128.574	1141.2762	1176.2544	1214.6505	1249.4489	1263.1976	1280.1493	1318.3097	1364.574	1390.9365	1406.3372	1408.6994	1411.6618	1440.2077	1483.6303	1492.1604	1495.9158	1496.5211	1501.5689	1502.7983	3026.4678	3027.5252	3028.7858	3031.2111	3034.6688	3090.8289	3092.7655	3093.2339	3105.5833	3111.3867	3112.8253	3116.3007	3157.735
CC1C2N3C1C(C)C23C	C[C@H]1[C@H]2N3[C@@H]1[C@@H](C)[C@@]23C	
InChI=1S/C8H13N/c1-4-6-5(2)8(3)7(4)9(6)8/h4-7H,1-3H3	InChI=1S/C8H13N/c1-4-6-5(2)8(3)7(4)9(6)8/h4-7H,1-3H3/t4-,5-,6+,7-,8+,9?/m1/s1
