17
gdb 34263	4.12028	1.32446	1.20387	4.4623	77.19	-0.2336	0.0098	0.2434	1043.3767	0.139214	-380.848594	-380.841675	-380.84073	-380.879844	27.78	
N	 0.0155222693	-1.1051314997	-0.0920320822	-0.347519
C	 0.008702286	 0.0518469569	-0.048668549	 0.164957
C	-0.0186146816	 1.4761474502	-0.0020021649	 0.263987
N	-1.1201399687	 2.238626324	 0.6375651396	-0.375941
C	-0.7965564985	 3.3850013722	-0.3122698271	-0.030635
C	 0.0406078603	 4.3948917628	 0.4695061034	-0.184516
C	 1.2524376129	 3.5432717384	 0.9440025978	-0.230681
C	 1.2458584131	 2.3397566924	 0.0001395305	-0.08516
C	 0.222819724	 2.5053752061	-1.0897050374	-0.161555
H	-1.9978691184	 1.8162961172	 0.3416464489	 0.230566
H	-1.6605951308	 3.7797792102	-0.8451020408	 0.084135
H	 0.3640872674	 5.2074675853	-0.1908872253	 0.101536
H	-0.5211424056	 4.8273432374	 1.300997808	 0.113301
H	 2.1964166518	 4.0886892769	 0.8623679112	 0.107239
H	 1.1375627389	 3.2316054235	 1.9848611144	 0.126646
H	 2.1632637168	 1.8075538839	-0.222566631	 0.111832
H	 0.3759650132	 2.3947013825	-2.1546766161	 0.111806
134.2319	155.3032	226.5718	380.425	409.8682	491.6009	548.5549	580.8323	687.8829	724.1206	735.4145	820.7035	850.1297	868.6777	874.1736	907.0426	915.6629	944.5865	1003.3187	1017.7374	1032.3325	1068.0995	1079.1909	1152.0807	1178.8571	1202.7021	1224.9808	1252.1254	1267.4602	1278.7028	1326.2788	1332.3233	1356.5143	1432.8962	1474.2434	1493.6159	2342.8476	3044.3952	3066.8257	3101.0446	3116.3158	3125.7476	3190.2059	3205.8866	3485.4803
N#CC12NC3CCC1C23	N#C[C@@]12N[C@H]3CC[C@@H]1[C@@H]23	
InChI=1S/C7H8N2/c8-3-7-4-1-2-5(9-7)6(4)7/h4-6,9H,1-2H2	InChI=1S/C7H8N2/c8-3-7-4-1-2-5(9-7)6(4)7/h4-6,9H,1-2H2/t4-,5+,6-,7-/m1/s1
