23
gdb 73204	2.32101	1.67261	1.37514	0.221	89.22	-0.2361	0.0259	0.262	1095.7134	0.207536	-351.168173	-351.159727	-351.158782	-351.201046	34.058	
C	-0.4735958121	 1.4900216449	 0.1646985422	-0.462738
C	 0.0233219134	 0.0583812564	-0.0185631791	 0.358925
C	-1.0640829876	-1.0295547406	 0.2667518329	-0.259915
C	-0.2346585793	-1.5655565048	 1.4616759149	-0.216371
C	 0.8595732045	-0.490321697	 1.1991529039	-0.026821
C	 2.2577597417	-1.036127594	 0.8776430185	-0.278981
C	 2.2920155213	-1.7645173793	-0.4424229248	-0.058379
C	 1.573328215	-1.3395681945	-1.4814335498	-0.061694
C	 0.712264923	-0.1055123397	-1.3872357805	-0.313337
H	 0.3596035581	 2.20294695	 0.1574270729	 0.108209
H	-1.1639213233	 1.7757973021	-0.6384764935	 0.109048
H	-1.0048592365	 1.6073384852	 1.1156089164	 0.107949
H	-2.0431787065	-0.6194609568	 0.5298878442	 0.089356
H	-1.2012044388	-1.7483908632	-0.545642395	 0.094418
H	-0.722301664	-1.4942845746	 2.4370088393	 0.091857
H	 0.120845664	-2.5911916627	 1.3311856962	 0.097187
H	 0.934107113	 0.2435642046	 2.0076669725	 0.055937
H	 2.9787698314	-0.2046588641	 0.8521118464	 0.104658
H	 2.5891738391	-1.6920449784	 1.691841858	 0.098202
H	 2.934257142	-2.6360568429	-0.5353726641	 0.082039
H	 1.6226462899	-1.8579321594	-2.435247504	 0.082013
H	-0.0510574036	-0.1031846177	-2.1753016025	 0.096532
H	 1.3387199554	 0.7799118561	-1.5796925448	 0.101908
57.8516	132.2708	237.6476	268.7588	302.7273	327.0599	375.2871	415.663	478.1702	527.4158	608.5427	694.616	729.4043	754.393	792.805	856.7777	882.0951	909.8688	922.0305	951.9061	966.7311	978.7921	992.9202	1011.4079	1041.1859	1082.4697	1107.8595	1125.2837	1169.4892	1179.5073	1224.1423	1235.3947	1239.9451	1257.0431	1277.8498	1284.7295	1291.7189	1322.18	1353.6281	1375.9247	1408.3737	1412.8345	1470.9043	1474.6706	1478.7289	1490.2256	1494.7821	1496.7772	1711.5867	2980.5031	2988.0338	3014.7601	3040.2085	3043.9358	3046.5385	3048.7091	3057.9164	3079.987	3086.8044	3092.5918	3112.539	3149.5963	3173.4507
CC12CCC1CC=CC2	C[C@]12CC[C@H]1CC=CC2	
InChI=1S/C9H14/c1-9-6-3-2-4-8(9)5-7-9/h2-3,8H,4-7H2,1H3	InChI=1S/C9H14/c1-9-6-3-2-4-8(9)5-7-9/h2-3,8H,4-7H2,1H3/t8-,9+/m1/s1
