16
gdb 41713	4.08231	1.5187	1.29084	1.215	67.61	-0.2434	0.0063	0.2497	955.8368	0.127151	-437.877796	-437.871375	-437.870431	-437.908462	25.67	
C	-0.0076161892	 1.4396908948	-0.0906456199	-0.094509
O	 1.0233681956	 1.9326111787	 0.7680577651	-0.259896
C	 2.0879671172	 0.9868458453	 0.8086525462	-0.179015
C	 1.4053888958	-0.346872141	 0.647792229	 0.335593
N	 2.0718903838	-1.5968087952	 0.4287663313	-0.331987
C	 1.2637799437	-2.4818346862	 0.8602542413	 0.08611
O	 0.0913981976	-2.0843507023	 1.4244843242	-0.220763
C	 0.0981616699	-0.6619315477	 1.3592908552	 0.021775
C	 0.0605050148	-0.0757250137	-0.020376437	-0.174815
H	-0.949129404	 1.8706280501	 0.2661275598	 0.113524
H	 0.1497480868	 1.7624737521	-1.1315118179	 0.102989
H	 2.8121045749	 1.1380995747	-0.0071217251	 0.107275
H	 2.6045129266	 1.1182589965	 1.7642489129	 0.116993
H	 1.4110621654	-3.55382342	 0.8270785099	 0.148164
H	-0.3233458739	-0.1848619822	 2.236658302	 0.122816
H	-0.2851508049	-0.6754541938	-0.8550053272	 0.105746
184.6817	226.1567	281.52	319.3691	393.598	484.9181	603.0101	653.5113	753.8422	766.3108	844.4594	898.8105	912.3636	927.2723	947.848	965.7736	1002.442	1041.6818	1058.2568	1086.4575	1099.8123	1107.1306	1128.5937	1208.7477	1216.1436	1236.2244	1269.7884	1302.7766	1328.9524	1353.5866	1389.8634	1417.8939	1510.8611	1522.7391	1654.7388	2984.5959	2989.9237	3065.7789	3080.4469	3176.5017	3177.9671	3237.3662
C1OCC23N=COC2C13	C1OC[C@@]23N=CO[C@@H]2[C@@H]13	
InChI=1S/C6H7NO2/c1-4-5-6(4,2-8-1)7-3-9-5/h3-5H,1-2H2	InChI=1S/C6H7NO2/c1-4-5-6(4,2-8-1)7-3-9-5/h3-5H,1-2H2/t4-,5-,6+/m1/s1
