18
gdb 96766	2.29416	1.41967	0.91878	2.4672	80.19	-0.2317	-0.017	0.2147	1259.911	0.147048	-435.248796	-435.239273	-435.238329	-435.283655	33.62	
C	-0.495305207	 1.2804630859	 0.0056222507	-0.362287
N	-0.0381711989	-0.0938367861	-0.1058640344	-0.330045
C	 0.6183848559	-0.5616212443	-1.0642971963	 0.387532
C	 1.0208329374	-2.0133132646	-1.3094156929	 0.038107
O	-0.0318800895	-2.9393135546	-1.2825067711	-0.434908
C	 1.4727080514	-1.5617319852	-2.7240399199	-0.201074
N	 1.1594295452	-0.1748915399	-2.32717595	-0.118889
C	 1.4089165121	 0.9698972382	-3.0415388556	 0.082919
N	 1.1668286428	 2.1484998251	-2.6247778226	-0.443592
H	-0.247617667	 1.6473030343	 1.007941745	 0.121778
H	-0.0775009633	 1.953885357	-0.748253207	 0.169418
H	-1.5900897071	 1.2884477002	-0.0663187148	 0.120666
H	 1.8622466761	-2.3352514864	-0.6811093295	 0.095726
H	-0.628950268	-2.644887258	-0.5831406352	 0.298169
H	 2.5242268516	-1.7290342514	-2.9726994868	 0.118534
H	 0.8231110001	-1.9469402853	-3.51499246	 0.129855
H	 1.8546639925	 0.7275278758	-4.0145929117	 0.098814
H	 1.4380595859	 2.8329083993	-3.3267936679	 0.229279
49.4872	123.8005	138.3257	167.4254	210.7854	222.9086	233.301	270.9392	335.6108	420.1612	520.6071	544.1586	660.3461	707.2786	790.0003	800.7133	896.3296	1001.3899	1045.9863	1047.9508	1073.8212	1089.2948	1142.3441	1150.1984	1176.8452	1196.0298	1208.1337	1239.8597	1292.6103	1360.1881	1383.4186	1400.3955	1424.272	1449.5879	1497.9087	1508.3809	1512.5715	1711.255	1830.2644	3014.8508	3015.1208	3040.2278	3052.6457	3071.6558	3110.2727	3110.7658	3515.5824	3780.7114
CN=C1C(O)CN1C=N	CN=C1[C@@H](O)CN1[CH][NH]	
InChI=1S/C5H9N3O/c1-7-5-4(9)2-8(5)3-6/h3-4,6,9H,2H2,1H3	InChI=1S/C5H9N3O/c1-7-5-4(9)2-8(5)3-6/h3-4,6,9H,2H2,1H3/t4-/m0/s1
