19
gdb 62994	2.16454	1.54018	1.22087	3.1645	75.41	-0.2417	-0.0276	0.214	1111.8556	0.156421	-422.998956	-422.989907	-422.988963	-423.032817	33.808	
C	-0.0724321855	 1.5552392136	-0.0712452571	-0.455775
C	 0.000660738	 0.0322129792	-0.0188649131	 0.274914
C	-1.3609656362	-0.5970825918	 0.2676911669	-0.448991
C	 0.7069169797	-0.643505884	-1.214935527	 0.003447
O	 2.0624903274	-0.1874062305	-1.2445425855	-0.248461
C	 1.7227240075	-1.2583179107	-0.3532375857	-0.002997
C	 1.1345911597	-0.6211574431	 0.9174014153	-0.166461
C	 2.0416485735	 0.304551257	 1.684031064	 0.145198
O	 1.9718083243	 0.4779452516	 2.8765401439	-0.260739
H	 0.881353407	 1.9859997188	-0.3847257957	 0.135309
H	-0.8404477169	 1.8753452293	-0.7842206924	 0.115073
H	-0.3340274438	 1.9698143825	 0.908115356	 0.129366
H	-2.0927419585	-0.2922162301	-0.4892129466	 0.119354
H	-1.3093627085	-1.6910954386	 0.2639393027	 0.11865
H	-1.737179021	-0.2788963621	 1.2452382297	 0.132027
H	 0.2751187124	-0.9738720231	-2.153534648	 0.106488
H	 2.27853922	-2.1830525696	-0.4535631989	 0.114367
H	 0.6899306539	-1.3391704296	 1.6095238664	 0.094484
H	 2.793351167	 0.8395861311	 1.0664284051	 0.094747
54.8556	111.4226	214.4707	232.3583	237.9584	253.3508	280.6635	335.0872	403.4443	459.8795	510.3681	556.0644	639.8011	793.8406	834.0109	846.0653	870.7178	939.0703	954.2046	969.9527	993.6428	1019.2578	1041.901	1065.326	1102.3949	1166.595	1192.7243	1206.5392	1231.6047	1268.0772	1283.4296	1308.5539	1381.7911	1400.2342	1418.5149	1426.8037	1484.4773	1487.1558	1500.5492	1511.9492	1814.3168	2912.9507	3025.9324	3033.9595	3090.9072	3096.6107	3099.2521	3104.0911	3124.2391	3175.3607	3194.1538
CC1(C)C2OC2C1C=O	CC1(C)[C@H]2O[C@H]2[C@H]1C=O	
InChI=1S/C7H10O2/c1-7(2)4(3-8)5-6(7)9-5/h3-6H,1-2H3	InChI=1S/C7H10O2/c1-7(2)4(3-8)5-6(7)9-5/h3-6H,1-2H3/t4-,5+,6+/m1/s1
