19
gdb 96223	2.29729	1.65394	1.10132	2.9836	79.45	-0.2404	-0.0537	0.1866	1129.0789	0.159863	-423.046615	-423.038141	-423.037196	-423.080186	31.884	
C	-0.3603596758	 1.5135190832	-0.2294559218	-0.388412
C	 0.0238332788	 0.0465664213	 0.0468067971	-0.084937
C	 0.8678678898	-0.5366699406	-1.0863262283	-0.121807
O	 2.0472995465	 0.2178636591	-1.3179896125	-0.236428
C	 3.1861581986	-0.2474089006	-0.6468830364	-0.134224
C	 3.1178664224	-0.3605267742	 0.8457047918	-0.051525
C	 2.0834443717	-0.2710023846	 1.6912939184	-0.148822
C	 0.6349901249	-0.0551537199	 1.4478070663	 0.35337
O	-0.0995964826	 0.04187391	 2.4146959521	-0.337374
H	 0.5333145555	 2.1341150571	-0.3323317962	 0.132391
H	-0.9323826308	 1.5882895346	-1.1598529676	 0.113408
H	-0.9714974847	 1.9020651843	 0.5878862842	 0.136364
H	-0.9022035879	-0.5393123913	 0.1064171834	 0.100033
H	 1.1146717507	-1.5916315379	-0.8962986733	 0.096984
H	 0.2892127421	-0.4956664975	-2.0162545743	 0.111229
H	 3.4989064515	-1.234765704	-1.0401995726	 0.109562
H	 3.9947178479	 0.4480023953	-0.9068264042	 0.130675
H	 4.0951012725	-0.5651045314	 1.2842050231	 0.111095
H	 2.2820695288	-0.3790582529	 2.754575991	 0.108418
38.5171	133.7455	219.2276	237.3573	271.431	322.3282	341.4354	372.4516	426.91	514.4229	637.7486	667.4365	679.4497	813.1726	824.7256	873.1229	898.5956	939.8871	980.8187	1022.2316	1025.627	1050.5962	1116.7394	1124.1645	1175.7159	1210.7745	1275.1113	1300.6317	1305.8912	1328.0259	1353.4868	1388.0385	1402.3979	1414.9264	1422.6081	1468.378	1492.4035	1500.1659	1507.0031	1701.7135	1744.4774	2918.776	2996.8313	3035.257	3042.1844	3044.6178	3061.8645	3115.912	3126.0114	3137.8933	3168.4666
CC1COCC=CC1=O	C[C@H]1COCC=CC1=O	
InChI=1S/C7H10O2/c1-6-5-9-4-2-3-7(6)8/h2-3,6H,4-5H2,1H3	InChI=1S/C7H10O2/c1-6-5-9-4-2-3-7(6)8/h2-3,6H,4-5H2,1H3/t6-/m0/s1
