21
gdb 93793	2.36901	1.46456	1.11154	2.6073	78.2	-0.2355	-0.0101	0.2254	1180.2212	0.182861	-424.270897	-424.261824	-424.260879	-424.304481	34.834	
C	-0.1542462799	 1.5714893636	 0.0050755513	-0.398677
C	 0.0340527681	 0.0558845239	 0.0141228077	-0.078225
C	 0.7162699217	-0.4721807333	-1.2706588406	-0.194772
C	 0.9437795918	-1.988383901	-1.2353446924	-0.215193
C	 1.7606344873	-2.4019455274	-0.0089841923	 0.123029
O	 3.0446434739	-1.8035918006	-0.1569550711	-0.431336
C	 1.0777584326	-1.9227395054	 1.2847252614	-0.338428
C	 0.8104995737	-0.4218511613	 1.240370643	 0.400225
O	 1.1894613795	 0.3228715622	 2.1143030436	-0.312711
H	 0.8123374885	 2.080377404	-0.0546664105	 0.127732
H	-0.7586713256	 1.8787146687	-0.8540062695	 0.105004
H	-0.6457896768	 1.9138654844	 0.9186614512	 0.125683
H	-0.9517375445	-0.4334670094	 0.0801567874	 0.086167
H	 0.1042321498	-0.2017487507	-2.1378504921	 0.096211
H	 1.6818931658	 0.0302282311	-1.3909244006	 0.124949
H	-0.0158021791	-2.5199541519	-1.2133823261	 0.093593
H	 1.472319661	-2.3126515197	-2.1374065044	 0.109252
H	 1.8544978399	-3.498618955	 0.0193930042	 0.066518
H	 3.5297411664	-1.9125973176	 0.667260574	 0.288222
H	 0.1215067525	-2.450637764	 1.3978582355	 0.115359
H	 1.6865656432	-2.1459127205	 2.1669827004	 0.107395
84.3776	100.5896	191.4415	228.1722	276.8432	296.9652	310.1364	353.3461	383.2143	452.7049	478.3383	548.6878	617.128	717.693	728.5393	832.4495	850.5216	899.8222	940.7462	943.219	993.9724	1012.2312	1057.5439	1075.7045	1096.7263	1140.7512	1148.4833	1162.0629	1232.0998	1241.5267	1265.3652	1302.2121	1321.0877	1347.4779	1375.0804	1382.6663	1396.9557	1411.1125	1426.0593	1463.2042	1478.9763	1488.42	1492.6472	1496.3136	1813.1494	2974.0231	2975.5662	3026.3588	3035.3386	3041.1437	3045.3715	3080.2189	3084.2814	3090.8022	3112.8446	3125.3895	3818.4678
CC1CCC(O)CC1=O	C[C@H]1CC[C@@H](O)CC1=O	
InChI=1S/C7H12O2/c1-5-2-3-6(8)4-7(5)9/h5-6,8H,2-4H2,1H3	InChI=1S/C7H12O2/c1-5-2-3-6(8)4-7(5)9/h5-6,8H,2-4H2,1H3/t5-,6+/m0/s1
