19
gdb 108960	2.9561	1.23523	1.128	2.8585	77.34	-0.2192	0.0054	0.2245	1163.1839	0.159437	-423.010592	-423.001995	-423.001051	-423.044092	32.846	
O	 0.2862488226	 0.2750585859	-1.1000346571	-0.420569
C	-0.2021984882	 0.2504541962	 0.2425664442	-0.191832
C	-1.5281314984	-0.4377421611	 0.2287623999	 0.29907
C	-2.7195047349	 0.1129293118	 0.5003223388	-0.189248
C	-3.8481241221	-0.8178903882	 0.2470316716	-0.14049
C	-3.9653593795	-1.2910117665	-1.1971818117	 0.135267
O	-3.3847775408	-0.6302953979	-2.274434922	-0.427732
C	-3.1804074351	-2.1248188958	-0.224616373	-0.111963
C	-1.6703067301	-1.8923064598	-0.1875536346	-0.320102
H	 1.1907156241	 0.6032515094	-1.084877614	 0.28899
H	 0.4991196724	-0.2953014485	 0.8957008083	 0.090139
H	-0.3105228882	 1.2677859269	 0.6476262487	 0.092526
H	-2.8641841537	 1.14160382	 0.8137279752	 0.096331
H	-4.735709412	-0.7910055849	 0.8698516811	 0.084347
H	-4.9387586145	-1.6741507476	-1.4866438178	 0.10346
H	-2.6366850775	-0.1130974207	-1.9470710501	 0.290309
H	-3.5713643115	-3.0928917731	 0.067253977	 0.084032
H	-1.2045756279	-2.0685084592	-1.1649598908	 0.13355
H	-1.1680291845	-2.5587787871	 0.5258943263	 0.103914
56.2431	105.6674	208.4427	227.245	240.8645	309.3185	356.1147	391.1564	500.8597	537.5062	594.5977	663.8005	735.9831	753.9569	787.3633	860.522	894.7036	927.8612	966.0057	977.0571	1027.1841	1028.0949	1043.1909	1054.8336	1066.5419	1101.5521	1171.3593	1184.393	1199.1384	1231.7466	1248.7602	1285.9096	1312.3997	1330.5139	1350.3072	1369.9511	1448.3857	1452.1886	1480.3377	1512.471	1697.0667	2959.2968	3002.4205	3019.0178	3056.5717	3159.1041	3163.1625	3175.6843	3187.8451	3749.7784	3820.1468
OCC1=CC2C(O)C2C1	OCC1=C[C@H]2[C@@H](O)[C@H]2C1	
InChI=1S/C7H10O2/c8-3-4-1-5-6(2-4)7(5)9/h1,5-9H,2-3H2	InChI=1S/C7H10O2/c8-3-4-1-5-6(2-4)7(5)9/h1,5-9H,2-3H2/t5-,6+,7-/m1/s1
