17
gdb 56366	2.03526	1.52243	1.30934	2.5148	78.77	-0.2622	0.0026	0.2648	1092.6506	0.133157	-380.808131	-380.798728	-380.797784	-380.842075	34.582	
C	 0.0472214327	 1.601554348	 0.1406326011	-0.398961
C	-0.0502027453	 0.0649234837	 0.0045959766	-0.096551
C	 0.6502336262	-0.5962452482	 1.1136567592	 0.386484
C	 1.2300946141	-1.1201086909	 2.0242086235	-0.442826
C	-1.4868454671	-0.3287052798	 0.0604830906	 0.271797
N	-2.6016507159	-0.6338672906	 0.0349573298	-0.351308
N	 0.6041093922	-0.3207882662	-1.257622349	-0.07934
C	 0.2765675956	-1.6003676644	-1.8763629509	-0.224524
C	-0.1699046386	-0.3216437482	-2.4987014039	-0.238395
H	 1.1004033386	 1.8835233434	 0.0991378424	 0.147826
H	-0.48776364	 2.0785479156	-0.6840420096	 0.137076
H	-0.384779014	 1.9318220657	 1.0869694029	 0.143696
H	 1.7413109343	-1.5901449192	 2.8282993068	 0.209812
H	 1.1256020837	-2.1475980964	-2.2735214854	 0.127035
H	-0.4958778716	-2.2130977455	-1.4174229622	 0.140899
H	-1.2340487449	-0.103152967	-2.4486406949	 0.141131
H	 0.34816498	 0.0905880399	-3.358961967	 0.126147
79.7224	128.0544	153.1108	161.4097	225.6885	239.9997	260.5009	347.6534	416.8654	475.2038	504.9744	573.4143	597.8895	634.6719	651.9979	670.0522	797.3732	833.5271	913.8554	936.4988	984.4334	1032.4387	1098.5017	1116.7991	1129.8409	1144.3971	1171.83	1191.3116	1216.1132	1308.8531	1400.8841	1482.7446	1485.3578	1488.445	1516.4236	2248.4206	2342.6963	3059.3409	3111.0088	3114.003	3142.784	3155.5436	3195.58	3208.7306	3500.0601
CC(C#C)(C#N)N1CC1	C[C@@](C#C)(C#N)N1CC1	
InChI=1S/C7H8N2/c1-3-7(2,6-8)9-4-5-9/h1H,4-5H2,2H3	InChI=1S/C7H8N2/c1-3-7(2,6-8)9-4-5-9/h1H,4-5H2,2H3/t7-/m1/s1
