16
gdb 66498	3.68277	1.87185	1.7188	1.6432	72.57	-0.1958	-0.093	0.1027	822.0189	0.124445	-400.563576	-400.557012	-400.556068	-400.593874	27.646	
O	-0.136931143	 1.4181799048	 0.1557803318	-0.469295
C	 0.0570075778	 0.0668299067	 0.0050983256	 0.401021
C	-0.9378776054	-1.0340550234	 0.1048478541	-0.084251
C	-0.205340248	-0.7913495054	-1.2163169183	-0.186767
C	 0.9048198318	-1.8466313784	-1.207842397	 0.016912
C	 1.9760880434	-1.4094923954	-0.4505226592	-0.154238
C	 1.1389880028	-0.8043322336	 0.6419953851	-0.100119
N	-0.025998969	-1.9929892765	 0.7942388777	-0.165966
C	 0.3438093214	-2.9791655537	-0.3217286452	-0.188152
H	 0.4375281497	 1.8800337379	-0.4648246798	 0.292037
H	-2.0122831316	-1.0352070593	 0.2400881661	 0.100668
H	-0.6959326669	-0.4228600049	-2.1068018739	 0.095235
H	 2.7696499879	-2.1038232596	-0.1813768999	 0.107616
H	 1.568237427	-0.5468861154	 1.6074236232	 0.098729
H	-0.5696879377	-3.4671323696	-0.6693426089	 0.117028
H	 1.0776196099	-3.7103415341	 0.0130939484	 0.11954
225.5738	246.656	298.3534	327.687	455.1393	546.7886	577.6064	603.9666	638.3056	674.6259	720.1271	773.0845	795.0192	872.1007	878.1132	914.6676	920.6628	964.3519	981.8301	1006.7488	1028.7857	1046.5664	1063.5974	1123.6847	1149.7149	1155.3229	1185.6274	1207.6192	1239.9462	1255.6622	1299.5183	1308.8137	1431.6295	1484.9096	1496.9654	3079.3183	3132.7268	3150.9227	3159.6226	3190.3564	3212.8098	3799.4419
OC12C3C1C1=CC2N3C1	O[C@@]12[C@H]3[C@@H]1[C]1[CH][C@@H]2N3C1	
InChI=1S/C7H7NO/c9-7-4-1-3-2-8(4)6(7)5(3)7/h1,4-6,9H,2H2	InChI=1S/C7H7NO/c9-7-4-1-3-2-8(4)6(7)5(3)7/h1,4-6,9H,2H2/t4-,5-,6+,7+/m0/s1
