21
gdb 100356	2.58743	1.14034	0.97211	3.6686	75.18	-0.2561	-0.0408	0.2153	1308.1549	0.179359	-461.369967	-461.359346	-461.358401	-461.405461	38.691	
C	-0.2470313233	 1.5931417183	 0.0249147176	-0.394272
C	-0.0091243487	 0.0796186675	-0.0005485368	-0.222444
C	 0.75473091	-0.4424373044	-1.2347067817	 0.332689
O	 0.1999281377	 0.0509969524	-2.4540204899	-0.470296
C	 2.2224072574	 0.0427539364	-1.2521722665	-0.089273
O	 3.025890925	-0.6151519286	-0.2952799844	-0.434381
C	 0.6947046054	-2.0019049141	-1.2152125647	-0.315852
C	 1.5380230651	-2.6409446826	-2.2920840993	 0.147656
O	 2.7388731417	-2.773934017	-2.2044142414	-0.252364
H	 0.6873884151	 2.1526816602	 0.1212365786	 0.130371
H	-0.7439206388	 1.9357716366	-0.8870410557	 0.116046
H	-0.8781824147	 1.8613775025	 0.8772282143	 0.115227
H	 0.5537210419	-0.2270719358	 0.888037195	 0.124452
H	-0.9774631485	-0.4384601897	 0.0528776088	 0.083026
H	-0.7587942924	-0.0314672761	-2.4074542602	 0.279726
H	 2.609253498	-0.0815505292	-2.2710224935	 0.108647
H	 2.2495718202	 1.1122191215	-1.0271827772	 0.110541
H	 3.2741150492	-1.4636154704	-0.6904131587	 0.295552
H	 1.0651699571	-2.3480708511	-0.2461050916	 0.140113
H	-0.3500528049	-2.3124533874	-1.3257748361	 0.097231
H	 1.0085991476	-2.9888302488	-3.2028650765	 0.097604
74.2074	90.7036	134.1412	152.9475	175.3055	218.6895	247.2347	274.625	315.3172	336.1351	364.7286	407.294	501.2758	542.6717	568.2318	609.1487	719.1774	790.8075	875.6982	907.1574	958.0544	978.0568	1017.1422	1039.2122	1048.7653	1091.8139	1108.6485	1145.1234	1171.375	1224.4323	1249.8532	1276.1793	1317.9149	1369.667	1384.9474	1413.2387	1416.9284	1426.3729	1446.4105	1466.2251	1483.8898	1490.793	1506.2877	1511.7712	1798.0143	2921.5428	3005.2506	3033.3077	3045.6304	3046.7204	3070.4019	3096.2218	3109.0579	3113.4706	3120.2147	3717.5501	3803.2995
CCC(O)(CO)CC=O	CC[C@@](O)(CO)CC=O	
InChI=1S/C6H12O3/c1-2-6(9,5-8)3-4-7/h4,8-9H,2-3,5H2,1H3	InChI=1S/C6H12O3/c1-2-6(9,5-8)3-4-7/h4,8-9H,2-3,5H2,1H3/t6-/m0/s1
