20
gdb 60825	2.70696	0.92389	0.87403	2.0316	75.95	-0.243	-0.0232	0.2199	1431.0748	0.168463	-440.25772	-440.247363	-440.246418	-440.294451	36.336	
C	-0.0925315613	 1.381512134	 0.5245314161	-0.435207
C	 0.0737694343	-0.0098809409	-0.1137311223	-0.061761
C	-1.26646677	-0.7241603285	-0.0905761176	 0.14553
O	-1.51465785	-1.6898056525	 0.5855321512	-0.251832
C	 0.5944468009	 0.0487033204	-1.5759108142	 0.073182
O	-0.2261715122	 0.8800623151	-2.3947831987	-0.436577
C	 2.0541711396	 0.4383772182	-1.6581238844	-0.013719
C	 3.0996268614	-0.6082898336	-1.7855378212	-0.240767
N	 2.7786986887	 0.265391603	-2.9243079617	-0.318406
H	 0.8527516375	 1.9315538686	 0.5434038439	 0.129579
H	-0.8276995865	 1.9796263067	-0.0233236704	 0.127912
H	-0.4404390181	 1.288986204	 1.5569750565	 0.138774
H	 0.7681500082	-0.6137141095	 0.4801208345	 0.098091
H	-2.0312702604	-0.2759119253	-0.7628182681	 0.092438
H	 0.4900552012	-0.9529972079	-2.0141884605	 0.089493
H	 0.0355715148	 1.7960127965	-2.253095597	 0.289441
H	 2.3156204341	 1.3611396972	-1.1411546063	 0.092516
H	 4.0813036803	-0.4520099198	-1.348200146	 0.12429
H	 2.7769089704	-1.6463365277	-1.8115891389	 0.118198
H	 2.185686537	-0.2246295578	-3.5910842451	 0.238825
35.8084	55.7777	70.2295	161.192	197.7322	222.5864	253.0057	280.1241	292.7271	348.6918	398.0675	431.0486	520.65	682.1683	810.0549	857.0145	869.275	904.3041	933.7125	957.5299	981.0154	1016.2906	1056.1274	1089.4059	1103.8274	1132.5647	1155.8597	1161.7172	1190.9076	1247.4874	1272.6776	1282.8669	1305.6199	1322.0831	1351.8551	1403.2238	1407.7006	1424.8028	1442.4737	1500.7888	1508.3009	1513.8522	1829.8171	2894.3314	3017.9272	3041.7266	3062.1038	3106.8076	3109.3694	3115.0142	3118.4017	3194.7369	3491.1912	3812.3052
CC(C=O)C(O)C1CN1	C[C@@H](C=O)[C@@H](O)[C@H]1CN1	
InChI=1S/C6H11NO2/c1-4(3-8)6(9)5-2-7-5/h3-7,9H,2H2,1H3	InChI=1S/C6H11NO2/c1-4(3-8)6(9)5-2-7-5/h3-7,9H,2H2,1H3/t4-,5+,6+/m0/s1
