20
gdb 72182	2.99176	1.98715	1.58122	1.447	80.87	-0.2288	0.0813	0.3101	922.3801	0.173583	-365.96672	-365.959963	-365.959019	-365.997276	28.989	
C	 0.0103940805	 1.5130967367	 0.0338059384	-0.493305
C	-0.0020011256	 0.0039524034	-0.0378221853	 0.347982
C	 0.4754434755	-0.7404723307	-1.3036721464	-0.286627
C	-0.5511907216	-1.8527497561	-0.9549244191	-0.062303
C	 0.0838205233	-2.8322695303	 0.0421774073	-0.154473
N	 0.1299367405	-2.1426272401	 1.3409961039	-0.105878
C	-1.0235086042	-1.2648689643	 1.449711408	-0.068165
C	 0.3582865108	-0.6901366116	 1.3138278303	-0.104323
C	-1.3185556773	-0.8409335094	-0.0129141438	-0.104677
H	 1.0361342141	 1.896067606	 0.1049752585	 0.116723
H	-0.4493872486	 1.9539056754	-0.8573996751	 0.112931
H	-0.5378884618	 1.8737986668	 0.9117667054	 0.117897
H	 0.1984936118	-0.1840012036	-2.2054026933	 0.090791
H	 1.5279949462	-1.0356205126	-1.3780853548	 0.08787
H	-1.0877435109	-2.3341206086	-1.7738113422	 0.066027
H	-0.5267591727	-3.7325284358	 0.175353694	 0.100241
H	 1.0891469268	-3.1443302617	-0.2594406895	 0.103098
H	-1.6995435947	-1.3415703288	 2.2933368124	 0.087347
H	 1.0332972455	-0.282165521	 2.0602107014	 0.084818
H	-2.2817219475	-0.4355546636	-0.3143504601	 0.064027
222.9366	225.6498	259.9628	330.0976	417.5296	489.741	533.4726	648.5112	724.7402	750.7241	767.3531	826.9427	838.038	844.5154	873.625	889.8199	930.7563	941.7581	948.8904	962.9826	1005.2624	1020.9006	1042.3168	1056.4404	1091.816	1125.8537	1157.2704	1178.8255	1206.2042	1211.5515	1227.4129	1235.7357	1250.949	1275.0744	1295.1122	1315.0822	1339.3517	1367.5509	1408.8511	1485.5032	1490.2582	1492.8141	1501.111	3017.0097	3029.5212	3036.0378	3078.6892	3079.8683	3082.9201	3091.8963	3097.2027	3141.7809	3151.4194	3178.2997
CC12CC3CN4C(C14)C23	C[C@@]12C[C@H]3CN4[C@@H]([C@H]14)[C@@H]23	
InChI=1S/C8H11N/c1-8-2-4-3-9-6(5(4)8)7(8)9/h4-7H,2-3H2,1H3	InChI=1S/C8H11N/c1-8-2-4-3-9-6(5(4)8)7(8)9/h4-7H,2-3H2,1H3/t4-,5-,6+,7+,8-,9?/m0/s1
