16
gdb 45857	2.65919	1.80074	1.18098	1.9069	70.76	-0.239	-0.0336	0.2054	1013.0216	0.124397	-437.898277	-437.890505	-437.889561	-437.932385	28.755	
O	-0.0353198299	 0.2098789213	 0.7767052914	-0.328461
C	-0.0318891018	 1.2855891967	 0.2194706345	 0.296955
C	-1.2879737476	 1.8851431605	-0.3923785648	-0.267724
N	-1.1580827139	 3.1807825644	-1.0337569678	-0.270651
C	-0.0309606117	 3.7462604259	-1.0573663267	 0.116902
O	 1.1604139795	 3.3379890193	-0.5602084572	-0.273043
C	 1.2219912356	 2.0869957334	 0.1037926522	 0.315409
C	 2.2200004345	 2.017228579	 1.2413689931	-0.294827
C	 2.531318689	 1.3425326619	-0.0586488796	-0.294825
H	-1.6850784411	 1.1582756938	-1.1134575292	 0.150796
H	-2.0470908425	 1.943307649	 0.3990420777	 0.150792
H	 0.094930872	 4.71726572	-1.5311912623	 0.131473
H	 2.7287275964	 2.9467968707	 1.4678481077	 0.13596
H	 1.9374533909	 1.3997320509	 2.085531423	 0.147639
H	 2.4622482062	 0.2623763442	-0.1059410983	 0.147644
H	 3.2519937942	 1.8127697591	-0.7172061135	 0.13596
19.2738	49.8906	250.0217	267.9641	387.8307	395.6185	490.6114	498.7658	539.498	593.3221	629.7352	775.8446	839.1206	848.4288	877.6405	943.4224	966.706	984.6609	1010.1726	1020.0247	1060.2793	1089.3788	1128.0023	1196.7628	1205.3462	1241.3098	1260.8002	1336.979	1352.6794	1416.3112	1436.2295	1442.6794	1470.2367	1753.133	1799.6442	3022.7934	3046.3388	3146.2344	3146.6581	3170.5383	3239.9725	3253.2332
O=C1CN=COC11CC1	O=C1CN=COC21CC2	
InChI=1S/C6H7NO2/c8-5-3-7-4-9-6(5)1-2-6/h4H,1-3H2	InChI=1S/C6H7NO2/c8-5-3-7-4-9-6(5)1-2-6/h4H,1-3H2
