18
gdb 108984	3.87526	1.25373	1.11575	3.7283	72.12	-0.2565	0.0117	0.2682	1120.5595	0.149633	-439.080558	-439.073082	-439.072138	-439.112592	29.397	
O	 0.1079730349	 1.3460593102	-0.1210615336	-0.423073
C	 0.0066230438	-0.0498658622	-0.0749955605	-0.123488
C	-1.4320222967	-0.4929930035	-0.0169423189	 0.371181
N	-2.3788049407	 0.356029602	-0.0125946491	-0.333868
C	-3.7147138188	-0.2447171857	 0.047369124	 0.009283
C	-3.7120327428	-1.3475484949	 1.1503231838	-0.244821
C	-2.9951399591	-2.2112019382	 0.0837179683	 0.110984
C	-3.7791687649	-1.4115976535	-0.9855707302	-0.244813
O	-1.5989026842	-1.834960383	 0.0284920133	-0.267719
H	-0.8070410592	 1.6692674745	-0.1005596775	 0.291973
H	 0.4760593908	-0.5121807196	-0.9576356415	 0.114444
H	 0.5302441657	-0.4581411219	 0.8038839341	 0.114342
H	-4.4828985377	 0.5271777976	 0.0483428326	 0.080674
H	-3.1819324327	-1.1363767141	 2.080853383	 0.114358
H	-4.7129923204	-1.7317313557	 1.355353917	 0.112071
H	-3.0132081436	-3.2992754271	 0.1169328493	 0.092032
H	-4.7903122289	-1.8054678878	-1.1039603577	 0.112064
H	-3.3089418854	-1.257568467	-1.9585292365	 0.114375
85.884	157.855	215.7565	340.2663	370.1324	399.0799	463.12	490.8983	497.2094	650.3611	669.9795	816.3138	849.5478	868.9505	872.1179	894.468	950.4383	994.5016	1001.6001	1041.1359	1055.0051	1069.7747	1123.2642	1129.911	1172.4661	1184.1068	1234.2841	1240.3522	1246.7283	1258.9312	1275.8728	1323.3143	1351.8169	1375.8082	1465.6671	1484.0985	1494.5233	1507.4729	1721.104	2982.9663	2999.0462	3071.8774	3076.8668	3119.2372	3130.5552	3137.4573	3140.687	3678.3786
OCC1=NC2CC(C2)O1	OC[C]1[N][C@@H]2C[C@@H](C2)O1	
InChI=1S/C6H9NO2/c8-3-6-7-4-1-5(2-4)9-6/h4-5,8H,1-3H2	InChI=1S/C6H9NO2/c8-3-6-7-4-1-5(2-4)9-6/h4-5,8H,1-3H2/t4-,5+
