16
gdb 69863	2.74166	1.65831	1.19947	4.2747	73.75	-0.2511	-0.0103	0.2407	1024.6961	0.12305	-400.685191	-400.677362	-400.676418	-400.717318	30.178	
C	-0.0233845534	 1.5576206816	 0.1189468549	-0.501819
C	 0.0175538023	 0.0607763755	 0.0505023578	 0.264163
C	-0.8982375175	-0.8880135108	 0.7692533477	-0.333895
C	 0.5887343159	-0.9633644663	 1.0268411647	-0.144469
C	 1.3230398586	-1.6588881596	-0.1520162837	-0.054002
O	 0.3814148027	-2.0827167926	-1.138794963	-0.267258
C	 0.7636610623	-0.6984885754	-1.1145348871	 0.270619
C	 1.3098083665	-0.1065622924	-2.2915018879	 0.202784
N	 1.7459957418	 0.422397201	-3.2235473559	-0.344104
H	 0.9616166363	 1.9968216692	-0.0731329148	 0.134544
H	-0.7202512257	 1.9689143944	-0.620283862	 0.13812
H	-0.3513653171	 1.8873489266	 1.1092086089	 0.127623
H	-1.4656261363	-0.4299628023	 1.5734693049	 0.121712
H	-1.4053186542	-1.6886389778	 0.2460713779	 0.143934
H	 1.0425530166	-0.7927285123	 1.9934880726	 0.106133
H	 2.2901504712	-2.1458268288	-0.1380227351	 0.135914
128.2238	131.1212	202.1802	248.6718	296.7504	405.7895	429.3299	487.8276	523.2691	582.448	594.4539	650.3305	772.3844	820.3465	850.8688	878.5831	907.1165	933.2702	965.6998	1004.7913	1019.6692	1069.0054	1098.7484	1112.8034	1122.7694	1232.9293	1241.035	1271.4357	1369.5412	1413.1682	1424.3246	1476.1257	1483.5136	1497.7196	2350.5335	3029.0307	3089.6217	3108.4547	3140.7977	3201.8471	3213.2587	3232.9395
CC12CC1C1OC21C#N	C[C@]12C[C@H]1[C@H]1O[C@@]21C#N	
InChI=1S/C7H7NO/c1-6-2-4(6)5-7(6,3-8)9-5/h4-5H,2H2,1H3	InChI=1S/C7H7NO/c1-6-2-4(6)5-7(6,3-8)9-5/h4-5H,2H2,1H3/t4-,5+,6-,7+/m0/s1
