16
gdb 28348	3.16351	1.39739	0.97502	2.0175	79.38	-0.1973	-0.0298	0.1675	1159.1065	0.124447	-437.935809	-437.927704	-437.92676	-437.968271	31.011	
C	-0.0163635747	 1.5220726307	-0.0100155437	-0.470658
C	-0.0417710704	 0.021621754	-0.0196493157	 0.189853
C	-1.1734043946	-0.7203759689	-0.1263424049	-0.137032
C	-1.1622645264	-2.1513547092	-0.1325338219	-0.312265
C	 0.0397908567	-2.7532043173	-0.0263625123	 0.477855
O	 0.2289144714	-4.0785599034	-0.0158393486	-0.401859
O	 1.1918598289	-2.069718823	 0.0813986048	-0.280877
C	 1.2368167812	-0.6558539512	 0.0935707936	 0.325883
N	 2.3604952834	-0.0739160719	 0.1996284914	-0.531501
H	 0.5957962678	 1.9094357409	-0.8314900146	 0.140028
H	-1.0271951351	 1.928412063	-0.0998021327	 0.110624
H	 0.4376596725	 1.9011138637	 0.9117945336	 0.140079
H	-2.1303550842	-0.2142525755	-0.2110436138	 0.106724
H	-2.0600670486	-2.7449017192	-0.2167873977	 0.115278
H	 1.1766555456	-4.2439764298	 0.0692218441	 0.31059
H	 3.1230443864	-0.7467529529	 0.2657452684	 0.217278
110.8669	157.5104	175.3737	293.6734	321.6696	343.3673	364.0372	421.2323	464.4478	524.1787	569.26	678.6108	739.0056	744.429	765.6475	786.4398	824.4095	938.5407	961.4658	984.8595	1033.8399	1073.3044	1120.5805	1183.8202	1201.02	1252.995	1325.299	1401.9251	1419.1047	1438.1483	1468.7403	1490.9638	1634.3215	1696.3736	1748.3016	3034.8819	3088.5676	3119.0895	3178.7974	3245.5315	3502.4631	3798.6702
CC1=CC=C(O)OC1=N	CC1=C(OC(=CC1)O)[NH]	
InChI=1S/C6H7NO2/c1-4-2-3-5(8)9-6(4)7/h2-3,7-8H,1H3	InChI=1S/C6H8NO2/c1-4-2-3-5(8)9-6(4)7/h3,7-8H,2H2,1H3
