23
gdb 114890	3.05183	1.1568	1.04513	1.5088	84.28	-0.2403	0.0739	0.3143	1286.1613	0.20784	-388.293765	-388.285192	-388.284248	-388.327137	33.588	
C	-0.149049381	 1.7711045698	 0.2159300818	-0.382473
C	-0.0500938758	 0.2592830293	 0.4477138314	-0.195186
C	-1.2989653195	-0.4881809414	-0.0091387358	 0.045794
C	-1.5702467696	-0.5994930087	-1.5411976985	-0.276597
C	-1.7907700844	-2.1331893884	-1.3895400736	 0.12473
O	-0.879787568	-2.9745830848	-2.0700716919	-0.254891
C	 0.3461520666	-2.9568940729	-1.3476399625	-0.088962
C	-0.04499993	-2.8491774642	 0.1375822726	-0.235691
C	-1.359084237	-2.0487415955	 0.1089012864	-0.080843
H	 0.7622086036	 2.2849840724	 0.5372374354	 0.110992
H	-0.3039100185	 2.0000195471	-0.8440048797	 0.120145
H	-0.9892221281	 2.2014740441	 0.7722930236	 0.113497
H	 0.8310192568	-0.1291030063	-0.0800726322	 0.093545
H	 0.1224768259	 0.0626744185	 1.5142944786	 0.094287
H	-2.1669117703	-0.0544989195	 0.5006112312	 0.066304
H	-2.423066264	-0.0344188851	-1.9244266873	 0.096991
H	-0.6996882797	-0.3691636854	-2.1632351089	 0.102622
H	-2.7989225566	-2.4850520826	-1.6179404216	 0.075267
H	 0.8916704186	-3.8715476988	-1.5949713923	 0.106935
H	 0.9673532351	-2.099736972	-1.6524119235	 0.089944
H	-0.2375684655	-3.8466922268	 0.54356513	 0.104552
H	 0.739689208	-2.3892953645	 0.7437052153	 0.10221
H	-2.0688131165	-2.4155042841	 0.8524103414	 0.066828
73.5178	109.9511	169.7977	230.9346	237.2991	292.5785	394.8638	420.0704	471.2928	584.2924	671.563	730.4708	758.8401	790.1427	840.5375	873.1416	895.5844	924.1555	951.8501	957.2246	971.2501	993.0529	1026.9748	1052.0098	1073.0249	1105.345	1131.2394	1141.0657	1173.1267	1212.678	1225.6724	1230.1515	1255.8616	1265.5328	1278.8943	1292.8426	1323.385	1333.4242	1339.2573	1358.3286	1388.004	1400.0468	1411.6983	1476.1742	1483.9239	1493.6313	1500.2621	1507.1788	1521.0285	2977.6383	3012.2321	3027.3755	3030.741	3048.1266	3055.1308	3055.9896	3080.9063	3087.6093	3093.3325	3097.2829	3102.6363	3107.2132	3111.998
CCC1CC2OCCC12	CC[C@H]1C[C@H]2OCC[C@@H]12	
InChI=1S/C8H14O/c1-2-6-5-8-7(6)3-4-9-8/h6-8H,2-5H2,1H3	InChI=1S/C8H14O/c1-2-6-5-8-7(6)3-4-9-8/h6-8H,2-5H2,1H3/t6-,7-,8+/m0/s1
