21
gdb 58869	2.5786	1.41604	1.08864	1.8612	77.9	-0.2457	0.075	0.3207	1196.2392	0.1808	-424.198407	-424.188962	-424.188017	-424.232516	35.853	
C	-0.1289402434	 1.5596301021	 0.2474521898	-0.396962
C	 0.0094928784	 0.043348872	 0.0160101484	-0.109707
C	 0.7991674206	-0.633025581	 1.1435068976	-0.395822
C	-1.3510712228	-0.5679698771	-0.1687015272	 0.414268
O	-2.2083435109	-0.7149591936	 0.986562971	-0.310859
C	-1.9617100619	-1.8705236365	 0.1590818361	-0.057122
C	-2.9517869644	-1.7916740184	-1.0017248687	-0.291198
C	-2.3449736662	-0.3741038576	-1.3392413462	 0.073603
O	-3.1797475803	 0.7485018005	-1.2603272861	-0.432983
H	 0.8544899346	 2.0386595248	 0.2759512265	 0.10951
H	-0.7218370881	 2.0301646724	-0.5419304773	 0.133298
H	-0.6289549583	 1.7542825785	 1.2021455292	 0.12616
H	 0.5487173405	-0.1087819018	-0.9298135863	 0.079866
H	 0.965936586	-1.6945138064	 0.9346423227	 0.11016
H	 1.7766086193	-0.1568191805	 1.2662829695	 0.111867
H	 0.2572622613	-0.5542047225	 2.0903478295	 0.133832
H	-1.5389616199	-2.738390056	 0.6514573983	 0.10642
H	-2.7724980493	-2.5268470542	-1.7902807424	 0.107583
H	-4.0077643052	-1.8007391896	-0.720326861	 0.108421
H	-1.8624783207	-0.3502588082	-2.3197848409	 0.091854
H	-3.4955127693	 0.7742290531	-0.3473714226	 0.287812
59.837	125.0757	179.182	190.0198	211.3093	254.8125	292.9552	315.2745	411.4522	441.1803	487.127	520.9661	616.4481	686.5059	715.0954	821.3139	874.6183	889.2453	922.9866	925.74	937.1989	969.7145	996.8268	1043.708	1086.8335	1104.9402	1132.8642	1144.6813	1157.0177	1194.3069	1200.1338	1248.8634	1265.1439	1310.0363	1336.4419	1365.4636	1396.4204	1413.5622	1428.5915	1453.5631	1479.0119	1485.81	1493.544	1500.9763	1518.5601	3006.2023	3035.8089	3039.5292	3063.1374	3084.6598	3104.9973	3106.2095	3116.9892	3118.9067	3122.9408	3190.1426	3767.2199
CC(C)C12OC1CC2O	CC(C)[C@]12O[C@H]1C[C@H]2O	
InChI=1S/C7H12O2/c1-4(2)7-5(8)3-6(7)9-7/h4-6,8H,3H2,1-2H3	InChI=1S/C7H12O2/c1-4(2)7-5(8)3-6(7)9-7/h4-6,8H,3H2,1-2H3/t5-,6+,7-/m1/s1
