20
gdb 111891	3.64581	1.13336	0.95436	2.8666	80.9	-0.223	0.0112	0.2342	1275.0635	0.171335	-403.127282	-403.1186	-403.117656	-403.160494	33.334	
C	-0.1523106486	 1.4957997218	 0.0972514462	-0.498747
C	-0.0120083027	 0.0109813796	-0.0037703324	 0.330956
C	 0.1271850132	-0.7430863015	-1.0979740321	-0.226832
C	 0.1692266782	-2.2140262134	-0.7516098352	-0.021419
C	 1.318843821	-3.0365875318	-1.3342801463	-0.054429
O	 1.2246657013	-4.3959129544	-0.9536023512	-0.42474
N	 0.1693477257	-2.2681912739	 0.7395403231	-0.128824
C	 1.3020241642	-1.5993255612	 1.4051618796	-0.248577
C	 0.0163591153	-0.8737577719	 1.2054494919	-0.121266
H	 0.6628084661	 1.9335205624	 0.6869349695	 0.131537
H	-0.1538953401	 1.9672178236	-0.888628207	 0.128716
H	-1.0857221714	 1.7684924612	 0.6055337087	 0.131306
H	 0.1903479932	-0.3711511569	-2.1147343605	 0.09552
H	-0.7570669903	-2.7102099118	-1.078148734	 0.097528
H	 1.2722632689	-3.0102698287	-2.4285580685	 0.105497
H	 2.2858601111	-2.59946223	-1.0376593055	 0.082794
H	 1.0308371688	-4.4031105862	-0.0089195495	 0.2939
H	 1.5502734794	-2.0246380189	 2.3738663205	 0.116523
H	 2.1505167412	-1.2626422311	 0.8155415514	 0.118102
H	-0.6555490943	-0.6834842169	 2.0393533412	 0.092456
90.9187	123.4667	177.9287	214.73	247.7339	295.8671	356.6602	390.9643	419.5736	519.1288	590.8024	611.2295	727.9101	742.4128	819.6638	837.3465	860.3251	928.9694	993.3972	1022.7411	1026.9961	1052.4753	1072.9554	1080.7249	1087.0072	1105.5576	1109.9518	1155.1714	1203.3521	1217.6735	1258.2281	1277.044	1308.6042	1340.8629	1372.7085	1383.7062	1415.1692	1435.3381	1478.9994	1488.6035	1491.1882	1509.0812	1708.6637	2973.2304	2991.7402	3020.8792	3066.5985	3067.2719	3104.4102	3117.2277	3133.342	3192.4809	3193.9602	3794.2983
CC1=CC(CO)N2CC12	CC1=C[C@@H](CO)N2C[C@@H]12	
InChI=1S/C7H11NO/c1-5-2-6(4-9)8-3-7(5)8/h2,6-7,9H,3-4H2,1H3	InChI=1S/C7H11NO/c1-5-2-6(4-9)8-3-7(5)8/h2,6-7,9H,3-4H2,1H3/t6-,7-,8?/m0/s1
