15
gdb 43755	4.63486	1.00498	0.95155	4.0458	70.49	-0.2767	-0.0006	0.2761	1215.9994	0.110834	-420.589792	-420.581775	-420.580831	-420.622802	30.018	
O	 1.3012054822	 0.5130733962	-0.5209079184	-0.319786
C	 0.6248463572	 1.4336904854	-0.2018088832	 0.460485
O	-0.7595932159	 1.5512114271	-0.3439273599	-0.30009
C	-0.689679593	 2.9412009933	 0.0964233223	 0.464471
C	-1.5083098386	 3.9246245282	-0.6927106794	-0.464496
C	-1.2474940503	 5.3059597663	-0.3072542539	 0.290087
C	-1.0175527322	 6.4380074683	 0.0220921773	-0.431925
C	-0.2467115759	 2.9682645615	 1.5082046011	-0.327805
C	 0.7886198625	 2.8122567016	 0.3745572149	-0.312004
H	-1.29651043	 3.7795660251	-1.7592541083	 0.155261
H	-2.5721967955	 3.6901058773	-0.5536004077	 0.155548
H	-0.8250590487	 7.4447950973	 0.3006401461	 0.207461
H	-0.2203236033	 3.944850573	 1.9809720865	 0.147227
H	-0.4695819434	 2.1308135161	 2.1610183745	 0.138694
H	 1.6152054849	 3.4921466132	 0.2322924483	 0.136872
58.5904	116.6342	153.7408	287.675	336.7953	345.4833	415.7148	469.3239	517.1889	633.8184	661.473	681.6821	691.2904	759.8875	818.0512	894.7007	917.7437	958.3381	967.3747	990.6078	1009.1911	1042.7941	1077.4153	1101.7995	1173.4962	1222.1786	1253.4773	1352.2625	1406.6681	1471.5571	1494.478	1948.4033	2245.6504	3021.6865	3057.0167	3130.5262	3225.8476	3236.8688	3502.9688
O=C1OC2(CC#C)CC12	O=C1O[C@@]2(CC#C)C[C@@H]12	
InChI=1S/C7H6O2/c1-2-3-7-4-5(7)6(8)9-7/h1,5H,3-4H2	InChI=1S/C7H6O2/c1-2-3-7-4-5(7)6(8)9-7/h1,5H,3-4H2/t5-,7-/m0/s1
