22
gdb 69519	2.21958	1.70477	1.34437	1.4707	86.3	-0.2078	0.0827	0.2905	1110.571	0.192415	-367.14618	-367.136857	-367.135912	-367.179299	36.716	
C	 0.1158243464	 1.4751052236	 0.1242840345	-0.480501
C	-0.0729434818	-0.0061628663	-0.0417911651	 0.288756
C	-0.9745283585	-0.8078040229	 0.8137295911	-0.304975
N	 0.4890079848	-0.981820167	 0.9606038166	-0.216274
C	 1.0637851779	-1.7754186728	-0.2063051911	 0.32334
C	 2.4070781628	-2.3914372841	 0.0332123884	-0.471627
C	 0.0848211868	-2.2259297611	-1.2570630392	-0.406537
C	 0.54796583	-0.7866068809	-1.2343139132	 0.233961
C	 1.2177054949	-0.1197780899	-2.403008527	-0.499175
H	 1.1521024974	 1.7715438816	-0.068437104	 0.122801
H	-0.5289554975	 2.0347694397	-0.5636818077	 0.118268
H	-0.1330302536	 1.7760479964	 1.145685396	 0.126335
H	-1.4015413174	-0.2993204298	 1.674616538	 0.114705
H	-1.5992435736	-1.6074896808	 0.4348189805	 0.114989
H	 2.3254822045	-3.2441915545	 0.7179759226	 0.124247
H	 2.8486463906	-2.750426575	-0.901604479	 0.112497
H	 3.090927572	-1.6668831347	 0.4866964574	 0.125112
H	 0.5567976125	-2.8084273633	-2.0442219136	 0.108451
H	-0.9351196395	-2.538884278	-1.0626277754	 0.106767
H	 0.4829600245	 0.2977223895	-3.1027281878	 0.12012
H	 1.8765856331	 0.696717994	-2.0895562305	 0.120202
H	 1.8264028638	-0.8385685336	-2.9607186717	 0.118538
132.0264	167.4144	186.834	193.0779	194.5339	277.8545	311.7046	357.0929	389.6819	464.258	501.3063	508.0345	561.1297	614.7559	671.5346	751.8439	779.0995	832.2847	887.1896	933.3614	953.7284	971.5076	979.7709	1021.76	1051.4516	1091.2518	1096.8131	1104.2534	1108.6887	1124.229	1168.1569	1198.9773	1253.2047	1312.9679	1363.298	1394.9585	1413.9687	1419.2875	1430.8663	1474.9688	1479.719	1484.0452	1493.7158	1497.0656	1501.8398	1508.1797	1535.6871	3021.6064	3026.2076	3029.9974	3079.9855	3087.7469	3091.8803	3100.6593	3108.5846	3113.4072	3117.8477	3129.6827	3192.5817	3210.934
CC12CN1C1(C)CC21C	C[C@]12CN1[C@@]1(C)C[C@@]21C	
InChI=1S/C8H13N/c1-6-4-7(6,2)9-5-8(6,9)3/h4-5H2,1-3H3	InChI=1S/C8H13N/c1-6-4-7(6,2)9-5-8(6,9)3/h4-5H2,1-3H3/t6-,7+,8-,9?/m1/s1
