25
gdb 100308	1.85146	1.32781	1.1475	1.5997	88.03	-0.2611	0.0783	0.3394	1316.1143	0.226889	-389.477368	-389.466533	-389.465589	-389.512669	40.714	
C	-0.0231614457	 1.5633057696	 0.0132884382	-0.398581
C	 0.0754068017	 0.0330929927	-0.0111777644	-0.196393
C	 0.722858612	-0.5919516594	-1.2764488753	 0.233721
C	 0.7318401137	-2.1255155506	-1.1110126743	-0.421468
C	-0.0149285862	-0.1874303725	-2.5759151779	-0.207715
C	-1.5305638991	-0.4204274471	-2.5889515482	-0.406377
C	 2.1876085228	-0.1526556219	-1.3228204326	 0.090789
C	 3.0153105799	-0.0439361152	-2.5319977985	-0.200823
O	 2.5255425661	 1.1254299213	-1.8688148994	-0.243386
H	 0.9564374803	 2.0348544514	-0.097667553	 0.140784
H	-0.6611239796	 1.9432122545	-0.7906390557	 0.1172
H	-0.455596503	 1.8993528891	 0.9612075905	 0.106608
H	 0.6549088018	-0.3005385221	 0.8602288542	 0.087568
H	-0.9237096973	-0.3989125995	 0.1196089157	 0.092275
H	-0.2810834984	-2.5170377395	-0.9804889255	 0.117086
H	 1.1748095388	-2.6153921951	-1.9845487809	 0.110563
H	 1.3112616613	-2.4240517653	-0.2300841885	 0.110098
H	 0.1945794665	 0.8669549213	-2.7812176595	 0.118268
H	 0.4228279596	-0.7518290516	-3.4083660599	 0.088888
H	-2.0481318054	 0.1860677643	-1.8400124806	 0.12193
H	-1.9424946849	-0.1513615178	-3.5666781965	 0.113118
H	-1.7892622645	-1.4681286523	-2.4050538533	 0.114824
H	 2.7229328796	-0.3720295645	-0.3946807308	 0.084208
H	 4.0907147847	-0.203077798	-2.4605758502	 0.111865
H	 2.5875631553	-0.2316250317	-3.5140547835	 0.114949
84.0058	110.1485	119.1617	188.3817	205.83	226.513	229.0387	266.9172	270.5413	321.0013	352.5305	381.6553	427.2358	522.029	550.9824	670.1719	773.4053	795.6822	844.0124	871.3305	888.5068	950.2146	982.1039	1009.4154	1016.8208	1032.4363	1050.6559	1071.9225	1096.8189	1110.963	1154.9272	1181.2837	1200.165	1221.9955	1237.1961	1301.555	1319.1228	1329.3637	1368.1349	1382.8127	1407.1562	1413.8534	1419.1805	1434.1338	1482.4468	1487.619	1498.3595	1501.8341	1502.5223	1508.4911	1509.9984	1516.1524	1530.5127	3013.9082	3027.714	3031.576	3039.472	3042.8799	3052.6004	3066.359	3077.2507	3090.064	3092.8624	3101.7546	3103.6363	3108.6654	3112.5388	3125.5114	3176.7095
CCC(C)(CC)C1CO1	CCC(C)(CC)[C@H]1CO1	
InChI=1S/C8H16O/c1-4-8(3,5-2)7-6-9-7/h7H,4-6H2,1-3H3	InChI=1S/C8H16O/c1-4-8(3,5-2)7-6-9-7/h7H,4-6H2,1-3H3/t7-/m1/s1
