18
gdb 51237	3.42013	1.13924	0.9867	3.2816	72.45	-0.2311	-0.0269	0.2042	1212.2967	0.146826	-439.039037	-439.030573	-439.029629	-439.073422	30.775	
O	-0.1629549548	-0.0160558327	-0.2415641098	-0.240012
C	-0.0000830062	 1.1597088153	-0.0359870591	 0.156388
C	 1.3508804066	 1.8508893569	-0.0654583075	-0.371412
C	 1.3841757286	 2.9347220569	-1.1276091734	 0.43346
C	 1.4266637787	 2.5572164585	-2.6295958375	-0.218042
N	 2.4044459161	 3.6593515508	-2.8842372809	-0.32008
C	 2.5201058706	 3.9490591741	-1.4339323952	-0.125992
C	 1.5078158149	 5.0148041796	-0.9849216247	-0.06807
O	 0.4632074322	 4.0138082494	-0.8463278213	-0.33665
H	-0.8552973261	 1.8342925421	 0.1816122287	 0.101966
H	 1.5199432977	 2.3188225435	 0.9130955228	 0.122562
H	 2.1252371017	 1.0999390443	-0.2448380179	 0.12002
H	 1.8234840696	 1.5503485202	-2.8071904625	 0.106954
H	 0.4792854772	 2.6704868737	-3.1652640913	 0.118759
H	 3.2711066182	 3.3298337929	-3.29114538	 0.224941
H	 3.5205381966	 3.9444619793	-0.9988051404	 0.079468
H	 1.7245320101	 5.491021791	-0.0202053917	 0.099783
H	 1.2649659782	 5.7717883441	-1.7365991683	 0.115957
37.1804	70.7997	132.9624	167.9173	275.0279	342.4297	382.1277	425.3571	484.2354	643.2084	678.5632	737.518	829.2059	862.1775	877.2595	930.0923	944.9574	988.4562	1002.6236	1004.8258	1045.4163	1057.7613	1113.6473	1124.8533	1145.2401	1155.4983	1176.2438	1241.0573	1252.1761	1287.6542	1312.6521	1336.1436	1365.5478	1394.7648	1422.1775	1453.0675	1494.7573	1506.6628	1827.4992	2912.1328	3017.363	3025.4173	3030.1408	3086.036	3089.6416	3100.07	3106.2586	3552.314
O=CCC12CNC1CO2	O=CC[C@]12CN[C@H]1CO2	
InChI=1S/C6H9NO2/c8-2-1-6-4-7-5(6)3-9-6/h2,5,7H,1,3-4H2	InChI=1S/C6H9NO2/c8-2-1-6-4-7-5(6)3-9-6/h2,5,7H,1,3-4H2/t5-,6-/m0/s1
