24
gdb 113707	2.84723	1.00625	0.92345	1.1462	86.78	-0.2199	0.0675	0.2874	1449.6921	0.21431	-405.519034	-405.508052	-405.507108	-405.554937	41.143	
C	-0.4675840492	 0.1011740943	-3.2442293952	-0.373185
C	-0.0684442165	-0.8105199956	-2.0851104385	-0.113704
N	-1.2479763895	-1.1225395057	-1.2792723959	-0.089209
C	-1.9030252745	-2.4117350181	-1.4297444226	-0.264986
C	-1.2247774129	-2.0478476931	-0.1487562372	-0.03178
C	 0.0087011448	-2.7503662651	 0.4396280161	 0.338188
C	-0.4363468734	-3.4913846684	 1.7132334584	-0.413862
C	 0.7345815625	-3.7308894996	-0.4842534798	-0.416955
O	 0.9962673823	-1.7641047311	 0.7862961377	-0.456034
H	 0.4079473536	 0.3658050899	-3.8459887135	 0.106947
H	-1.1919740752	-0.3938894074	-3.8995718987	 0.114302
H	-0.9270872817	 1.0203985323	-2.8703802486	 0.121708
H	 0.4247891071	-1.7079305943	-2.488230494	 0.085307
H	 0.6603110743	-0.3149386726	-1.4373233595	 0.113232
H	-2.9885439206	-2.4066453766	-1.5043684529	 0.108226
H	-1.41382927	-3.1553266005	-2.0579938498	 0.105949
H	-1.8779198522	-1.6922322605	 0.6514887738	 0.077719
H	-1.1828494757	-4.2597689292	 1.4863337283	 0.118572
H	 0.4250534747	-3.9676114801	 2.188996976	 0.12036
H	-0.8821539617	-2.7954444615	 2.4328303983	 0.104801
H	 1.1132721108	-3.2426255703	-1.3823879829	 0.128417
H	 1.5914986676	-4.1501981366	 0.0509144563	 0.122772
H	 0.0767786344	-4.5521905669	-0.7790676915	 0.115478
H	 0.5676095009	-1.102859283	 1.3410193458	 0.277737
49.3481	67.5651	141.9104	207.9275	219.6927	238.0259	256.6588	272.9201	297.7026	310.8401	355.0275	378.2111	420.7067	440.6531	501.1295	626.7604	704.998	741.5373	808.9572	861.9256	921.8699	928.552	949.5389	969.5308	1006.8936	1032.2754	1051.6301	1090.2125	1114.8058	1127.6536	1146.4641	1160.7921	1197.2099	1203.611	1218.2178	1307.0876	1347.4689	1374.6097	1383.7236	1395.156	1404.3	1409.0371	1434.0916	1479.1413	1486.3811	1488.4751	1491.028	1498.7407	1506.2347	1508.9608	1520.8152	2984.6895	3028.967	3036.1763	3055.0571	3066.1662	3081.7623	3083.1234	3096.5001	3106.7906	3116.9521	3118.3311	3124.4841	3152.2554	3162.604	3800.4608
CCN1CC1C(C)(C)O	CCN1C[C@H]1C(C)(C)O	
InChI=1S/C7H15NO/c1-4-8-5-6(8)7(2,3)9/h6,9H,4-5H2,1-3H3	InChI=1S/C7H15NO/c1-4-8-5-6(8)7(2,3)9/h6,9H,4-5H2,1-3H3/t6-,8?/m0/s1
