21
gdb 120519	5.19461	0.69538	0.67772	0.9168	86.53	-0.245	0.051	0.2959	1737.8934	0.180276	-387.042956	-387.033003	-387.032059	-387.078674	36.359	
C	 0.5698617941	 1.0581791863	-0.2517694184	-0.384627
C	 0.0074086488	-0.2726176487	 0.2179907201	-0.042834
O	-1.3060734933	-0.4115095895	-0.2941115137	-0.251397
C	-1.9209258531	-1.6214161016	 0.0464206963	 0.180457
C	-2.5012574301	-1.7940262903	 1.4801203144	-0.262652
C	-3.7835510972	-2.4253088363	 0.8331291643	-0.190947
C	-3.3379937786	-1.7896080599	-0.5296575892	-0.26608
C	-3.8013706388	-3.8761581124	 0.8395687625	 0.346968
C	-3.80456857	-5.0791980896	 0.8409472445	-0.491987
H	 1.5880148104	 1.1966072602	 0.1240475122	 0.114391
H	 0.5929558766	 1.0998934262	-1.3444158193	 0.127036
H	-0.0488405202	 1.8849035796	 0.1087755631	 0.125842
H	 0.6381704055	-1.1066623721	-0.133182184	 0.087473
H	-0.0032364175	-0.3189020546	 1.3190817004	 0.090235
H	-1.2738047051	-2.4723267737	-0.215640697	 0.074032
H	-1.9558943017	-2.4070032453	 2.1987333457	 0.108907
H	-2.7300789721	-0.8185511318	 1.917728513	 0.108557
H	-4.7289634191	-2.0438432823	 1.2273571155	 0.104509
H	-3.8020853827	-0.8104442059	-0.6704050008	 0.114707
H	-3.4613508062	-2.3911899199	-1.4306214732	 0.112287
H	-3.8167594498	-6.1407687283	 0.8453757835	 0.195123
47.9578	70.887	86.8435	141.0706	196.5721	233.9046	252.9051	339.7486	395.0287	458.1913	497.9771	531.6895	615.7014	622.9376	695.0578	798.0848	819.0158	825.1966	890.0203	917.7294	924.5489	997.8792	1000.8925	1069.6699	1090.4139	1117.3697	1150.569	1168.9887	1180.4168	1187.5256	1225.2253	1248.2812	1266.1766	1295.9892	1298.0535	1343.9654	1372.9576	1403.8508	1440.619	1465.1335	1483.8595	1492.013	1499.8908	1528.4568	2231.4569	2959.0933	2985.5942	2988.4674	3044.8703	3063.7616	3069.0703	3078.832	3119.5009	3121.4913	3135.0407	3140.8262	3504.6633
CCOC1CC(C1)C#C	CCO[C@H]1C[C@@H](C1)C#C	
InChI=1S/C8H12O/c1-3-7-5-8(6-7)9-4-2/h1,7-8H,4-6H2,2H3	InChI=1S/C8H12O/c1-3-7-5-8(6-7)9-4-2/h1,7-8H,4-6H2,2H3/t7-,8-
