23
gdb 119059	1.70595	1.41562	0.89831	1.3735	83.5	-0.2392	0.0708	0.31	1422.2269	0.202696	-425.404955	-425.393929	-425.392985	-425.441343	39.823	
C	-0.307804426	 1.6584697869	 1.2780037774	-0.384304
C	-0.0690765741	 0.3026558978	 0.6354917145	-0.048726
O	 0.1478876487	-0.6412944278	 1.6841849522	-0.306175
C	 0.5012945773	-1.9345631164	 1.2890606396	 0.438402
C	-0.6396178479	-2.7894920923	 0.7919234011	-0.145258
O	-0.9956561887	-2.392839878	-0.530667854	-0.41696
C	 1.8852202634	-2.1539829042	 0.7197329105	-0.344219
C	 1.5676088455	-2.5906327495	 2.1351514459	-0.06279
C	 2.1734610855	-1.8681069268	 3.3167824358	-0.401853
H	 0.556875683	 1.9643386388	 1.8746702992	 0.119123
H	-0.484450912	 2.4167068472	 0.5088587076	 0.111706
H	-1.1805259936	 1.6247853851	 1.9369027809	 0.122071
H	-0.9239137107	-0.0027265509	 0.0222237402	 0.108817
H	 0.8092223346	 0.333928948	-0.0261149093	 0.086672
H	-0.334419363	-3.84706713	 0.8101364385	 0.08281
H	-1.4880714106	-2.669173068	 1.4821041269	 0.094856
H	-1.8063231469	-2.8518982805	-0.7704750697	 0.286068
H	 2.016764288	-2.9003127084	-0.0558829271	 0.114341
H	 2.5100836893	-1.2739656633	 0.609266435	 0.11325
H	 1.4449116252	-3.6616280149	 2.2782891959	 0.078871
H	 2.1848773005	-0.7897530437	 3.1461171528	 0.127633
H	 1.5974313615	-2.0519801873	 4.2302168989	 0.11481
H	 3.2005807609	-2.2049278918	 3.4939710572	 0.110854
52.4498	83.339	114.3253	149.2232	172.9289	193.0808	246.2737	252.7797	256.5091	307.7392	334.3409	414.0599	425.4117	480.7508	589.7599	721.8307	814.426	831.8327	874.6467	901.9586	928.2832	959.9416	992.87	1021.7251	1048.9562	1061.301	1090.7257	1115.3093	1136.6705	1146.8921	1187.6943	1191.4041	1239.0229	1244.0261	1268.3967	1294.1417	1330.4016	1396.7346	1401.9586	1422.5452	1427.3531	1462.3608	1482.2196	1484.6433	1494.224	1499.8338	1502.5604	1504.1582	1533.2229	2974.801	2998.2004	3014.3384	3034.6077	3040.8968	3063.4389	3090.949	3115.1149	3116.7001	3122.184	3132.8897	3139.0566	3219.4365	3823.5353
CCOC1(CO)CC1C	CCO[C@@]1(CO)C[C@H]1C	
InChI=1S/C7H14O2/c1-3-9-7(5-8)4-6(7)2/h6,8H,3-5H2,1-2H3	InChI=1S/C7H14O2/c1-3-9-7(5-8)4-6(7)2/h6,8H,3-5H2,1-2H3/t6-,7-/m1/s1
