20
gdb 94592	3.68197	0.95723	0.87484	5.3533	74.79	-0.2523	0.0193	0.2716	1372.584	0.172009	-440.328291	-440.31918	-440.318236	-440.362522	33.945	
C	 0.5023056948	 1.5595697019	-0.2134822703	-0.390416
C	 0.156057446	 0.0792720843	-0.0286027954	 0.008362
N	 0.7244789651	-0.6773274707	-1.1548733564	-0.518266
H	 0.3938452995	-1.6383042161	-1.1326348243	 0.226251
H	 0.3996255031	-0.2860135542	-2.0342083207	 0.227751
C	 2.2227718483	-0.5898357531	 1.4068134644	-0.078041
C	 0.6879804946	-0.5589955345	 1.2666071965	 0.011852
C	 0.2652252789	 0.0722476689	 2.5969547039	-0.400215
C	 1.4020469684	-0.2938088175	 3.5473019291	 0.42971
O	 2.4839305403	-0.6803344531	 2.8193759878	-0.218751
O	 1.4115019147	-0.2608419037	 4.7431037732	-0.337701
H	 1.5814961414	 1.7141452418	-0.2960439027	 0.131643
H	 0.0451476191	 1.9336157864	-1.1359798646	 0.11636
H	 0.119103414	 2.1727676417	 0.6061347503	 0.122303
H	-0.9456696169	 0.0071144269	 0.0159501583	 0.064648
H	 2.6862470883	-1.4494688544	 0.9232678711	 0.129799
H	 2.6958457248	 0.3196721682	 1.0227653713	 0.117083
H	 0.341354493	-1.6015198231	 1.2721382569	 0.083179
H	 0.2172234211	 1.1661071472	 2.5462323326	 0.13704
H	-0.6876178785	-0.2790745767	 2.9949967189	 0.137411
63.9852	83.249	167.738	197.2218	234.411	281.4494	289.8835	355.0969	436.2353	506.5609	521.3455	578.3392	624.4258	692.1957	821.4398	853.4736	867.1127	906.5213	927.9419	992.1032	1015.0001	1056.4791	1068.0782	1082.997	1126.7499	1136.973	1174.2714	1190.0681	1239.529	1255.503	1284.4089	1342.2984	1349.3078	1379.9535	1394.5691	1411.4175	1435.0035	1466.2317	1493.4684	1504.6373	1522.2451	1658.936	1883.1584	2925.2312	3008.2183	3042.363	3055.5834	3060.7532	3104.4628	3125.922	3128.5036	3133.2759	3484.1002	3562.8538
CC1[NH2+]CC1CC([O-])=O	C[C@@H](N)[C@H]1COC(=O)C1	
InChI=1S/C6H11NO2/c1-4-5(3-7-4)2-6(8)9/h4-5,7H,2-3H2,1H3,(H,8,9)	InChI=1S/C6H11NO2/c1-4(7)5-2-6(8)9-3-5/h4-5H,2-3,7H2,1H3/t4-,5-/m1/s1
