20
gdb 111736	3.17555	1.08553	0.95095	3.2016	81.4	-0.2396	-0.0303	0.2093	1313.6903	0.170164	-403.117961	-403.108918	-403.107974	-403.152011	33.501	
C	-0.0067292589	 1.4952751029	-0.2837497825	-0.375107
C	 0.0614251075	 0.0651236552	 0.2684322113	-0.223167
C	-1.2906924966	-0.6177330689	 0.2408568777	-0.019995
N	-1.9697464096	-1.1277592043	-0.9530426107	-0.187338
C	-0.9347410757	-1.7943477313	-1.8331578854	-0.152947
C	-0.5138687464	-2.7996462082	-0.7359278417	-0.323766
C	-1.5078924896	-2.0922440201	 0.1771816342	 0.227767
C	-2.5044431483	-2.7727770645	 1.0233575552	 0.074244
O	-2.4403852008	-3.9371716462	 1.3385670198	-0.264297
H	 0.9708697929	 1.9826520492	-0.226808922	 0.118264
H	-0.3288307435	 1.5006543278	-1.3296634778	 0.129694
H	-0.718747604	 2.1040462825	 0.2832690169	 0.122331
H	 0.8111264136	-0.510607859	-0.2808112356	 0.107927
H	 0.4009982729	 0.0862562459	 1.3112350622	 0.111316
H	-2.0234915468	-0.1068388047	 0.8671544908	 0.099877
H	-1.4428151816	-2.2558340346	-2.6807815425	 0.121685
H	-0.170570841	-1.1092477163	-2.2108722871	 0.111455
H	-0.821293594	-3.8242311787	-0.9467517603	 0.135042
H	 0.5304401429	-2.8057631811	-0.4140426667	 0.110172
H	-3.3448916731	-2.1203017855	 1.3517764443	 0.076842
70.8892	95.6791	155.5647	201.3227	224.6816	256.8293	301.0385	311.4141	411.7707	533.2866	539.5688	693.1543	726.0054	773.5006	794.2069	807.7275	870.2453	927.1403	958.4416	973.2816	1017.2475	1026.9609	1070.0978	1116.7564	1132.0757	1138.5191	1187.0861	1217.2823	1244.4363	1276.0518	1291.5871	1309.5488	1341.2282	1349.7796	1411.2701	1419.5524	1455.6423	1479.3519	1497.3134	1497.5765	1506.4131	1517.2571	1803.9725	2879.0001	3037.8317	3039.534	3062.9317	3072.0649	3082.9815	3101.0553	3112.5975	3113.7371	3119.4291	3139.3037
CCC1N2CCC12C=O	CC[C@H]1N2CC[C@@]12C=O	
InChI=1S/C7H11NO/c1-2-6-7(5-9)3-4-8(6)7/h5-6H,2-4H2,1H3	InChI=1S/C7H11NO/c1-2-6-7(5-9)3-4-8(6)7/h5-6H,2-4H2,1H3/t6-,7-,8?/m1/s1
