21
gdb 117886	1.90833	0.82498	0.61854	2.1239	85.	-0.2481	0.0378	0.2859	1883.6664	0.178975	-424.184512	-424.172925	-424.17198	-424.223635	39.149	
C	-0.4332870674	 1.481900788	 0.6056357689	-0.364586
C	-0.6519740159	 0.4530376808	-0.5184624176	-0.314761
C	-1.7350375074	-0.4836577485	-0.2388879351	 0.042455
C	-2.6439532266	-1.2392684094	-0.0037113335	 0.069335
C	-3.7060622002	-2.1886038142	 0.32512281	-0.054673
O	-3.1894000356	-3.4530625153	 0.7387394136	-0.42039
C	-4.6566423733	-1.6464314664	 1.4048744008	-0.060246
O	-5.3181483894	-0.5148567564	 0.8981835615	-0.227207
C	-6.2028798886	 0.06626045	 1.8252702958	-0.223442
H	 0.3837819418	 2.16184594	 0.3467609756	 0.115038
H	-1.3373002704	 2.0743065948	 0.7697777703	 0.131761
H	-0.1815957124	 0.9834156213	 1.5457991045	 0.12463
H	-0.8645817314	 0.9765556066	-1.4594000844	 0.133772
H	 0.2760619221	-0.1072029926	-0.6909776973	 0.130014
H	-4.3073375134	-2.3908475895	-0.569327069	 0.122474
H	-2.4185827066	-3.2788994806	 1.2891596615	 0.284596
H	-5.3679199979	-2.4467441447	 1.6644021315	 0.095084
H	-4.0805052081	-1.3992808026	 2.3131652018	 0.079791
H	-6.9949794724	-0.6357857713	 2.1308755811	 0.10455
H	-5.6783366043	 0.4059788441	 2.7324659796	 0.104105
H	-6.6644790325	 0.929615776	 1.3400046403	 0.127701
17.6897	49.4273	86.3798	101.9353	128.943	175.6146	213.7591	229.6394	237.1072	254.4873	340.8486	359.9809	416.6913	488.4445	570.0834	581.2296	713.55	784.2115	928.1986	995.3991	1019.0991	1034.9862	1081.5825	1094.1095	1103.4546	1159.9209	1178.8901	1183.3063	1227.8882	1238.6089	1261.6416	1286.516	1340.899	1350.7988	1406.0138	1408.6607	1416.1511	1472.83	1480.0776	1485.9922	1494.4629	1501.5057	1505.4099	1524.3007	2361.2739	2953.5762	2971.5788	2998.8548	3013.6547	3020.9997	3044.4229	3046.277	3048.4105	3114.3184	3117.5984	3124.2249	3815.0612
CCC#CC(O)COC	CCC#C[C@@H](O)COC	
InChI=1S/C7H12O2/c1-3-4-5-7(8)6-9-2/h7-8H,3,6H2,1-2H3	InChI=1S/C7H12O2/c1-3-4-5-7(8)6-9-2/h7-8H,3,6H2,1-2H3/t7-/m1/s1
