16
gdb 123557	3.96271	1.57909	1.2378	4.7316	73.66	-0.2293	0.0018	0.2311	973.4401	0.128658	-396.916699	-396.910415	-396.909471	-396.947221	25.655	
C	-0.0296172047	 1.4646858291	 0.0904223557	-0.278811
C	 1.2971479476	 0.7524589133	 0.0239256319	-0.026963
C	 2.0610782145	 0.4517912664	 1.3365477275	-0.373446
C	 1.086968571	-0.4556839608	 2.0252526182	 0.327501
C	-0.0236077351	-0.7546169358	 1.2794595591	 0.311106
N	-0.8394989481	-1.5793637167	 1.9807582873	-0.299377
N	-0.2820304141	-1.8116452255	 3.1412003368	-0.129173
N	 0.8906465752	-1.1166535901	 3.181936198	-0.32256
C	-0.0137722608	-0.0463434412	-0.0229123011	-0.167121
H	-0.3541280001	 1.8962965471	 1.0321160563	 0.118687
H	-0.3229292054	 2.0312246934	-0.7874068242	 0.116768
H	 1.8884732893	 0.8793061938	-0.8748554462	 0.094336
H	 3.0185525145	-0.0428295142	 1.1321439637	 0.123775
H	 2.2852680749	 1.3641280678	 1.901302375	 0.125333
H	 1.4619721963	-1.1858293058	 4.0083183135	 0.27677
H	-0.3650947951	-0.5247844407	-0.9286105014	 0.103174
159.2763	229.7162	334.1535	418.497	438.4609	556.8252	589.8363	699.7016	707.7889	745.5888	772.5586	792.1196	812.4817	878.7897	965.092	986.1688	1010.7369	1031.5282	1042.2833	1073.6447	1087.5997	1098.5231	1176.3801	1183.2943	1200.2321	1221.5282	1271.0429	1297.3204	1356.2475	1368.3174	1418.3556	1475.7775	1487.5581	1524.5487	1600.2837	3028.4272	3061.1263	3124.5059	3180.9713	3190.9591	3213.1546	3662.7134
C1C2CC3=C(N=NN3)C12	C1[C@H]2Cc3c(nn[nH]3)[C@@H]12	
InChI=1S/C6H7N3/c1-3-2-5-6(4(1)3)8-9-7-5/h3-4H,1-2H2,(H,7,8,9)	InChI=1S/C6H7N3/c1-3-2-5-6(4(1)3)8-9-7-5/h3-4H,1-2H2,(H,7,8,9)/t3-,4-/m0/s1
