16
gdb 16581	2.59807	2.20687	1.82055	3.1314	65.48	-0.2424	-0.0019	0.2405	820.5905	0.130374	-379.870924	-379.863282	-379.862338	-379.902583	28.71	
C	 0.0358642483	 1.5405228381	 0.0760191994	-0.431042
C	 0.071214432	 0.046141214	-0.1592775068	 0.012968
C	 0.7072100552	-0.67174816	-1.2847802057	-0.108893
C	 2.0307601769	-0.0673603107	-1.7556554493	 0.035058
O	 2.1020738241	 1.0688244447	-2.5731889249	-0.421567
C	 2.4146185972	-0.0380324498	-0.2652881769	 0.3081
N	 3.3411097879	 0.3894914517	 0.4674063212	-0.50901
N	 1.2565883421	-0.8037243272	 0.155677577	-0.154899
H	 0.9628152081	 2.0459863603	-0.2042857551	 0.123793
H	-0.7937891627	 1.9876249335	-0.4817343097	 0.128887
H	-0.1249780967	 1.7459197624	 1.1390146034	 0.146174
H	-0.8265979087	-0.4524109967	 0.2015717119	 0.112233
H	 0.2259939342	-1.5195336024	-1.7601504143	 0.107273
H	 2.6273150608	-0.835640473	-2.2590751813	 0.128599
H	 1.5128680373	 1.7414159202	-2.2179335124	 0.290983
H	 4.0380538939	 0.8779754347	-0.1000240665	 0.231343
119.241	168.641	181.3522	238.5809	309.5664	330.2301	377.6455	508.2087	591.0561	655.5975	667.2142	729.031	825.4002	867.4494	895.7594	915.9745	951.6624	986.7845	1039.7257	1066.0237	1102.8036	1144.1725	1162.1337	1225.6212	1242.3126	1270.6295	1301.4891	1360.9592	1413.4919	1426.3655	1437.5396	1490.0059	1504.1496	1799.7357	3040.7308	3066.3689	3105.4004	3114.2947	3134.2336	3176.8623	3452.0387	3831.0528
CC1C2C(O)C(=N)N12	C[C@H]1[C@H]2[C@@H](O)[C]([NH])N12	
InChI=1S/C5H8N2O/c1-2-3-4(8)5(6)7(2)3/h2-4,6,8H,1H3	InChI=1S/C5H8N2O/c1-2-3-4(8)5(6)7(2)3/h2-4,6,8H,1H3/t2-,3-,4+,7?/m0/s1
