21
gdb 117095	2.25183	0.96672	0.75626	2.0279	84.99	-0.2407	-0.0159	0.2248	1597.5915	0.1783	-387.086049	-387.074972	-387.074028	-387.124054	39.09	
C	 0.6241560677	 0.806841431	-0.9021683791	-0.38774
C	-0.0357393272	 0.1000341581	 0.2841090193	-0.164434
C	 0.8054526255	-1.0573356513	 0.8204104935	-0.288385
C	 0.18989768	-1.7591464893	 2.0137499976	 0.377061
O	-0.8227881192	-1.3753972399	 2.5501130198	-0.306949
C	 0.8631239446	-3.0523898181	 2.5409619389	-0.258747
C	 0.02664308	-4.2638441317	 2.0561482955	-0.389257
C	 2.2710666422	-3.1963453687	 2.1913071186	 0.325903
C	 3.4303585549	-3.3376663671	 1.9047525385	-0.468915
H	 0.7857123057	 0.1183272596	-1.7394100055	 0.112877
H	 0.0025822582	 1.6307568693	-1.2657261804	 0.115316
H	 1.5996494444	 1.2229941266	-0.6262311412	 0.114016
H	-0.2178880555	 0.8119895417	 1.0958768747	 0.114582
H	-1.0234701684	-0.2774004126	-0.0032132812	 0.108423
H	 1.0020454886	-1.8099832007	 0.0434889649	 0.124005
H	 1.8061794264	-0.7174929949	 1.1218649338	 0.136604
H	 0.7662392194	-2.9963737219	 3.6316409863	 0.133267
H	 0.0648654891	-4.3541324407	 0.9666423521	 0.128215
H	 0.41815914	-5.1883115426	 2.4866181503	 0.132994
H	-1.0127250311	-4.1343832346	 2.3659517809	 0.141494
H	 4.4565351944	-3.4534687522	 1.6569498625	 0.19967
14.653	66.0585	89.3962	105.3166	175.7271	216.2113	227.3441	247.8654	256.2786	328.7671	369.3436	479.9074	521.8721	568.804	612.5608	633.8882	649.9246	743.139	797.868	869.1116	885.067	911.1259	984.344	1035.3862	1051.5207	1097.6796	1106.9774	1132.6824	1163.8654	1243.9838	1275.5552	1317.0634	1319.6853	1323.9364	1395.6353	1399.6196	1413.1952	1439.0257	1486.68	1495.1609	1497.4055	1499.9446	1507.9309	1804.474	2232.6037	3017.3014	3028.2997	3040.3679	3042.3195	3048.0069	3049.0355	3074.9472	3099.7585	3103.785	3124.4719	3139.2206	3502.5037
CCCC(=O)C(C)C#C	CCCC(=O)[C@@H](C)C#C	
InChI=1S/C8H12O/c1-4-6-8(9)7(3)5-2/h2,7H,4,6H2,1,3H3	InChI=1S/C8H12O/c1-4-6-8(9)7(3)5-2/h2,7H,4,6H2,1,3H3/t7-/m0/s1
