20
gdb 97069	4.37062	1.01249	0.85246	2.9747	88.62	-0.2341	-0.0265	0.2075	1397.9859	0.171109	-403.173692	-403.164568	-403.163624	-403.207946	33.624	
C	-0.2080669948	 1.4492687501	-0.0890185657	-0.324378
N	-0.1576823766	-0.0014477357	-0.0967567838	-0.310429
C	 0.6162720506	-0.5919121846	-0.9127248891	 0.396592
O	 1.3780740813	 0.0908403319	-1.824068378	-0.272933
C	 2.5095417571	-0.5975917476	-2.3660850249	-0.086065
C	 2.150172591	-1.9659928628	-2.9455918502	-0.055452
C	 3.4129291148	-2.7318453163	-3.3622298225	-0.403887
C	 1.3360193689	-2.7089876426	-1.9177989442	-0.072167
C	 0.6658506668	-2.0565901402	-0.9643730414	-0.136319
H	 0.7175833357	 1.9278479261	-0.429274448	 0.117545
H	-1.0211783163	 1.7984068789	-0.7396854615	 0.124884
H	-0.4414365948	 1.7890507474	 0.9246616765	 0.117971
H	 2.9161295472	 0.0698868611	-3.1301500046	 0.115035
H	 3.2676399706	-0.7235398271	-1.5796917269	 0.105822
H	 1.5294924137	-1.8131972208	-3.8417068243	 0.10073
H	 4.0661445991	-2.9127254797	-2.5017697854	 0.125036
H	 3.1527693151	-3.7026003807	-3.7949694835	 0.123118
H	 3.9843143754	-2.1738585942	-4.1110010688	 0.120055
H	 1.3066699813	-3.7943489063	-1.9722689418	 0.098806
H	 0.075179044	-2.560922457	-0.2094192219	 0.116036
55.8484	80.2806	172.0806	204.0051	233.5564	243.6358	303.5382	349.1696	407.7383	488.1975	514.2696	584.4187	695.004	747.4424	791.6606	819.8859	878.2122	942.445	972.5333	1008.2372	1037.6682	1070.3982	1103.7565	1108.1557	1118.9253	1137.2102	1173.1078	1194.1017	1254.7426	1285.7435	1313.4295	1356.5502	1402.4684	1411.6053	1426.2393	1435.3932	1487.6143	1494.1967	1496.7485	1500.8112	1504.7365	1689.8007	1735.6738	2987.5618	3007.4521	3009.0491	3033.7721	3063.4468	3093.3391	3096.0504	3104.4345	3107.8564	3159.5117	3214.4941
CN=C1OCC(C)C=C1	CN=C1OC[C@@H](C)C=C1	
InChI=1S/C7H11NO/c1-6-3-4-7(8-2)9-5-6/h3-4,6H,5H2,1-2H3	InChI=1S/C7H11NO/c1-6-3-4-7(8-2)9-5-6/h3-4,6H,5H2,1-2H3/t6-/m0/s1
