16
gdb 74091	2.70224	1.58731	1.13203	5.9894	73.48	-0.2224	-0.0364	0.186	1064.1914	0.123789	-437.901679	-437.893455	-437.892511	-437.934018	31.609	
C	-0.0671596652	 1.5250609083	 0.0144944673	-0.502695
C	 0.1358717644	 0.0362539574	-0.0115095846	 0.319318
O	-0.7280589741	-0.7649594133	 0.8178449582	-0.28867
C	 0.695356371	-0.7810759099	 1.0649815067	-0.158726
C	 1.4173736261	-1.966444465	 0.4096431426	 0.415636
O	 2.054041503	-2.8071966432	 1.0083179502	-0.352774
C	 1.1895447408	-1.8319260685	-1.0279096319	-0.350204
C	 0.4821436422	-0.7017176285	-1.2935008788	 0.359431
N	 0.1052991593	-0.1924837268	-2.4934097546	-0.592295
H	 0.8046634655	 2.0460929785	-0.3929682272	 0.139503
H	-0.9455641352	 1.8218350657	-0.5712281025	 0.122238
H	-0.2315400722	 1.8587086503	 1.0411165733	 0.147042
H	 1.019881356	-0.3941360065	 2.0261707798	 0.108396
H	 1.5063831358	-2.5749662158	-1.7477817609	 0.099047
H	 0.1923927289	-0.7672772672	-3.3161418756	 0.268814
H	-0.6250283163	 0.4990325444	-2.5242733317	 0.265938
137.8662	156.367	200.9417	259.9459	295.4495	327.4	352.5305	425.3912	478.8901	506.3874	560.6374	595.8953	673.5866	701.4322	746.1587	806.1762	837.3756	891.3376	895.9198	1007.8252	1053.8634	1074.9388	1102.4315	1167.8496	1224.2258	1260.7185	1285.2393	1405.5465	1411.8759	1446.8761	1484.6451	1494.9151	1628.0816	1679.3775	1803.549	3031.6102	3095.5232	3134.5746	3169.3707	3218.4243	3596.8537	3708.923
CC12OC1C(=O)C=C2N	C[C@]12O[C@H]1C(=O)C=C2N	
InChI=1S/C6H7NO2/c1-6-4(7)2-3(8)5(6)9-6/h2,5H,7H2,1H3	InChI=1S/C6H7NO2/c1-6-4(7)2-3(8)5(6)9-6/h2,5H,7H2,1H3/t5-,6+/m0/s1
