20
gdb 96281	2.07197	1.70148	1.01317	3.6231	77.36	-0.2544	0.0224	0.2768	1201.2139	0.171889	-440.29189	-440.283209	-440.282265	-440.325351	32.979	
C	-0.068010851	 1.5054707224	 0.0431005162	-0.401163
C	-0.0726820173	-0.0117464895	-0.0898176865	 0.152423
C	 0.8414689058	-0.5090098248	-1.2145736281	-0.248192
C	 0.4362630414	-1.9060734954	-1.7076964705	-0.087554
O	-0.0985591094	-2.7152852607	-0.6759755826	-0.234821
C	 0.744918061	-2.8490595322	 0.447762491	-0.166926
C	 0.5282342201	-1.8003929306	 1.5302692461	 0.366703
N	 0.6013133377	-2.1711771535	 2.7406787976	-0.49786
O	 0.3489231594	-0.4918793313	 1.2087560914	-0.268059
H	 0.9512230754	 1.8771154944	 0.1883445614	 0.12612
H	-0.4814687713	 1.9656073179	-0.8590063084	 0.11775
H	-0.6711769077	 1.8140867512	 0.90032689	 0.130183
H	-1.0960343692	-0.3655461465	-0.263626334	 0.101554
H	 0.8059327697	 0.1897331432	-2.0576604351	 0.109366
H	 1.8726117077	-0.4956490007	-0.8439557448	 0.116137
H	-0.3649331846	-1.8299024618	-2.4494117184	 0.114199
H	 1.2912329287	-2.4071270227	-2.1884475385	 0.098065
H	 0.5391443323	-3.8147468782	 0.9115260346	 0.14507
H	 1.8051298209	-2.8425068577	 0.1490964647	 0.110556
H	 0.4885639405	-1.3650955735	 3.359590034	 0.216449
74.4044	105.0805	191.4537	238.4632	274.1023	295.855	360.7427	370.5032	427.2436	501.1525	528.5501	571.8845	674.5082	792.6417	835.9737	854.9439	914.5876	938.0471	973.1752	980.0379	1024.5059	1041.7818	1090.7844	1134.9439	1151.5255	1161.6037	1180.8452	1254.042	1264.7549	1301.2171	1337.6386	1341.2774	1380.3349	1384.3471	1404.6877	1410.4091	1416.4482	1473.3395	1484.7841	1488.2424	1500.4821	1505.5963	1731.8965	2983.3445	2985.591	3034.8895	3041.5742	3046.7347	3069.7877	3090.5453	3117.9326	3124.4502	3128.021	3458.6439
CC1CCOCC(=N)O1	C[C@H]1CCOC[C]([NH])O1	
InChI=1S/C6H11NO2/c1-5-2-3-8-4-6(7)9-5/h5,7H,2-4H2,1H3	InChI=1S/C6H11NO2/c1-5-2-3-8-4-6(7)9-5/h5,7H,2-4H2,1H3/t5-/m0/s1
