20
gdb 73704	2.60186	2.08118	1.38118	0.4337	78.97	-0.2112	0.0943	0.3054	979.0932	0.172616	-403.080051	-403.072712	-403.071768	-403.111308	30.43	
C	-0.0251028885	 1.5402786948	-0.1880119605	-0.468047
C	-0.0454664329	 0.0350897962	 0.0222224031	 0.45364
O	 0.0345427039	-0.5126916955	-1.2786343419	-0.313698
C	-0.4590272296	-1.8374341518	-1.3783178543	-0.084081
C	 0.0097932072	-2.6546503139	-0.1810111118	-0.173932
N	-0.0779791385	-1.8856865203	 1.068810073	-0.126312
C	 0.8263051292	-0.6586482607	 1.1237224619	-0.081568
C	-0.1440129001	-0.1275555512	 2.2030052681	-0.235106
C	-1.0143827709	-0.672252899	 1.0494030768	-0.110393
H	 0.0202709744	 2.1087206062	 0.7410137774	 0.117494
H	 0.8463643545	 1.8022580573	-0.7958085905	 0.130217
H	-0.9161490861	 1.8482118418	-0.7435149702	 0.124177
H	-1.5601055857	-1.8205197027	-1.4102719562	 0.091359
H	-0.1042826903	-2.2423877361	-2.3307481592	 0.10544
H	-0.5945357483	-3.5641153565	-0.0806546284	 0.101822
H	 1.0539443858	-2.9677274472	-0.3015064964	 0.106523
H	 1.9128022754	-0.7640301904	 1.1701363882	 0.075136
H	-0.1787932131	-0.73896229	 3.1040892797	 0.11015
H	-0.1637918349	 0.9395556075	 2.4125319965	 0.098092
H	-2.1008315113	-0.7789137686	 1.0229357749	 0.079088
165.02	189.1617	231.8961	331.8353	366.2719	438.6994	446.4583	515.0615	551.1007	636.6939	706.5841	774.6452	780.4762	786.3873	879.927	889.0915	913.6437	938.2074	942.181	1026.7759	1028.2041	1087.824	1097.2945	1123.7193	1130.5556	1141.9458	1160.7089	1165.3323	1183.1339	1210.7093	1223.7896	1260.4325	1268.8079	1281.8862	1310.5841	1369.2384	1408.4886	1413.2405	1482.3472	1485.7199	1487.7486	1506.9328	1510.4903	2976.7748	3025.1046	3049.6532	3064.4681	3081.5551	3087.0629	3090.2379	3108.4069	3109.7792	3147.6383	3179.9068
CC12OCCN3C1CC23	C[C@@]12OCCN3[C@@H]1C[C@@H]23	
InChI=1S/C7H11NO/c1-7-5-4-6(7)8(5)2-3-9-7/h5-6H,2-4H2,1H3	InChI=1S/C7H11NO/c1-7-5-4-6(7)8(5)2-3-9-7/h5-6H,2-4H2,1H3/t5-,6+,7-
