17
gdb 78643	3.38074	1.59367	1.22944	4.023	75.03	-0.2261	-0.0524	0.1738	1012.5137	0.133565	-417.851959	-417.844025	-417.843081	-417.88387	31.252	
C	-0.0439764482	 1.2616596728	 0.0578219556	-0.322477
N	 0.0744510487	-0.102652905	 0.582848968	-0.12878
C	-0.967476981	-1.0040669805	-0.143341163	-0.095799
C	-0.1081811881	-1.3367980563	-1.3132150438	-0.262811
C	 0.9365965739	-1.0212560644	-0.1783058634	 0.165629
N	 1.4578629086	-1.9907849188	 0.462289408	-0.182647
C	 0.7013560177	-3.1827188697	 0.020230013	-0.210291
C	-0.5671657462	-2.5246732818	-0.5548730173	 0.385005
O	-1.5713215419	-3.3867735079	-0.9497773643	-0.466242
H	 0.8283648742	 1.8340367773	 0.3846264747	 0.135209
H	-0.1128318236	 1.3162985102	-1.0415358277	 0.099084
H	-0.9343679795	 1.7295590174	 0.4877412358	 0.1251
H	-2.0125163325	-0.707159784	-0.0979802539	 0.10784
H	-0.1193054799	-1.0920029593	-2.368576968	 0.106458
H	 1.1807606651	-3.8169547379	-0.7393853688	 0.115416
H	 0.5229337336	-3.7946491843	 0.9101559262	 0.135042
H	-2.110372481	-2.9742936079	-1.632252451	 0.294265
128.1635	195.2137	227.6942	246.8666	284.3739	355.4325	380.6412	452.3534	484.3652	576.9797	628.5667	676.1815	729.3886	761.5727	814.3282	844.5228	879.4547	926.4148	969.8635	983.0936	1022.8802	1078.4853	1093.2594	1103.2284	1141.4864	1152.1729	1169.464	1182.9824	1225.1287	1267.7893	1363.8199	1382.7643	1440.2746	1479.6769	1491.5789	1492.1937	1605.1825	2967.1996	3004.9187	3078.8026	3080.4806	3116.9409	3143.3504	3176.898	3821.6169
CN1C2C3C1=NCC23O	CN1[C@H]2[C@H]3[C]1[N]C[C@@]23O	
InChI=1S/C6H8N2O/c1-8-4-3-5(8)7-2-6(3,4)9/h3-4,9H,2H2,1H3	InChI=1S/C6H8N2O/c1-8-4-3-5(8)7-2-6(3,4)9/h3-4,9H,2H2,1H3/t3-,4-,6-/m0/s1
