20
gdb 22321	3.10061	1.0637	0.80769	1.0709	86.5	-0.2237	0.0149	0.2386	1427.414	0.168923	-403.141903	-403.132225	-403.131281	-403.176361	35.915	
C	 0.1099296499	 1.4999442202	 0.018983436	-0.496393
C	 0.0258317203	 0.0054659537	 0.005394843	 0.214159
C	-1.0685964505	-0.7696659711	 0.0427203393	 0.226554
C	-2.5047414364	-0.3530362259	 0.1083647669	-0.496582
C	-0.7217427546	-2.2445488213	 0.0112272302	-0.386793
C	 0.7915151138	-2.2376266037	-0.0537204111	 0.394378
C	 1.2975026606	-0.8133166394	-0.0577044313	-0.38753
N	 1.4693213495	-3.3118643064	-0.0968154208	-0.222809
O	 2.8504650671	-3.0335782042	-0.1526764066	-0.396789
H	 0.6973575304	 1.851242258	 0.877299654	 0.125896
H	 0.6226762992	 1.8713291961	-0.8778889977	 0.125912
H	-0.8708296454	 1.978452383	 0.0661604373	 0.122812
H	-3.0658627286	-0.7409046294	-0.7518679822	 0.125484
H	-2.9915599238	-0.7614852761	 1.0036176202	 0.125473
H	-2.6283865042	 0.7319802386	 0.126304382	 0.123545
H	-1.0902978816	-2.7773516227	 0.8988379357	 0.122556
H	-1.1656992292	-2.7580017342	-0.8529259043	 0.122567
H	 1.8997355127	-0.6076333124	-0.9542670698	 0.126855
H	 1.9723280955	-0.6285680798	 0.7904570653	 0.126824
H	 3.2325089652	-3.9169319331	-0.180845136	 0.303881
59.3161	148.0696	166.0315	174.3621	188.7791	279.0411	287.9962	296.3973	358.7383	386.8142	485.4617	501.5869	510.0579	587.1112	656.5087	760.419	846.3649	913.616	916.7524	924.3318	976.4225	988.6442	1054.0676	1069.4217	1110.2865	1146.5358	1181.8977	1191.5774	1214.6388	1252.9092	1296.6234	1342.7796	1400.4314	1410.5243	1420.4622	1460.7115	1470.017	1477.487	1481.7863	1486.9632	1492.729	1734.9043	1767.7443	3005.1093	3008.1898	3014.9856	3017.8217	3023.3908	3028.6051	3057.4255	3058.0056	3113.9614	3121.9913	3821.9269
CC1=C(C)CC(C1)=NO	CC1=C(C)CC(=NO)C1	
InChI=1S/C7H11NO/c1-5-3-7(8-9)4-6(5)2/h9H,3-4H2,1-2H3	InChI=1S/C7H11NO/c1-5-3-7(8-9)4-6(5)2/h9H,3-4H2,1-2H3
