16
gdb 25018	4.03599	1.13013	0.94293	2.4902	75.09	-0.1932	0.0177	0.2108	1213.8778	0.125911	-434.061285	-434.0533	-434.052355	-434.094356	29.696	
N	 0.0420674053	 1.2473175116	-0.1859202878	-0.603791
C	 0.018608847	-0.0151061107	-0.0924006404	 0.464034
N	-1.0624099779	-0.8019956639	 0.2352823506	-0.331464
C	-0.6904473279	-2.1453360075	 0.2417539168	-0.211231
C	 0.6069530281	-2.1956937283	-0.0901624069	 0.363593
O	 1.0681474274	-0.8969676455	-0.2971630375	-0.261423
C	 1.5641727764	-3.2896801257	-0.245031935	-0.107785
C	 2.7100650374	-3.1713888542	-1.1903650745	-0.241465
N	 2.9481572368	-3.1523439504	 0.2599779929	-0.323943
H	 0.9674744814	 1.5762215164	-0.4455419448	 0.22487
H	-1.9661064726	-0.4163414505	 0.4380044341	 0.277896
H	-1.3795621642	-2.936845439	 0.4791420586	 0.152623
H	 1.1264939525	-4.2690830151	-0.0719267209	 0.100614
H	 3.0702524356	-4.0580090997	-1.7042878317	 0.123943
H	 2.8042148225	-2.2432281629	-1.7457527712	 0.129731
H	 3.0929221321	-2.1913536045	 0.5632238778	 0.2438
75.6308	116.25	148.9844	162.257	320.7358	394.0186	440.7172	483.3328	623.1718	652.8838	708.1804	733.2996	756.5833	758.3726	813.1437	877.8192	940.3335	958.6007	967.2465	995.9539	1047.0162	1091.2926	1103.342	1134.1367	1168.8291	1216.7981	1258.3149	1287.0493	1298.0332	1359.7163	1406.699	1422.9188	1504.8829	1722.0971	1796.8539	3115.9411	3148.6658	3207.2586	3291.8905	3498.0121	3548.5972	3712.541
N=C1NC=C(O1)C1CN1	[NH][C@H]1NC=C(O1)[C@H]1CN1	
InChI=1S/C5H7N3O/c6-5-8-2-4(9-5)3-1-7-3/h2-3,7H,1H2,(H2,6,8)	InChI=1S/C5H8N3O/c6-5-8-2-4(9-5)3-1-7-3/h2-3,5-8H,1H2/t3-,5+/m1/s1
