18
gdb 65883	4.09335	0.75098	0.7093	5.6201	92.25	-0.2755	-0.0363	0.2392	1611.1196	0.147443	-364.799214	-364.790161	-364.789217	-364.833406	33.269	
C	-0.0634401739	 1.5547060117	 0.0011051323	-0.443638
C	-0.0255065284	 0.0176412469	-0.0038897825	 0.10079
C	 1.1342850476	-0.5547705747	-0.9006598583	-0.245096
C	 2.0099032493	-0.712359486	 0.3692597497	-0.217567
C	 0.7355630272	-0.5716280459	 1.2413258085	-0.245099
C	-1.3414939133	-0.5305219393	-0.2531538017	 0.064398
C	-2.4368014568	-1.002116421	-0.4604211564	 0.056427
C	-3.6714513504	-1.5334461183	-0.6936482728	 0.191029
N	-4.723316308	-1.9864049194	-0.8920559977	-0.341898
H	 0.9373446599	 1.9545746959	 0.1906078776	 0.123921
H	-0.4098931331	 1.9392243806	-0.9624653175	 0.133611
H	-0.7346007633	 1.9255905028	 0.7810632627	 0.133615
H	 0.86377289	-1.5159867159	-1.3417519014	 0.120816
H	 1.4892654233	 0.1105957101	-1.6909343311	 0.112034
H	 2.5686554431	-1.6444535859	 0.4659320487	 0.111259
H	 2.7047697874	 0.1196560876	 0.505150616	 0.112538
H	 0.7805403413	 0.0805863364	 2.1164523241	 0.11204
H	 0.3271713482	-1.5386851056	 1.5408120799	 0.120822
73.0337	84.9518	148.5889	220.6161	228.5132	258.8054	319.7181	327.6795	463.5663	514.1834	533.2318	588.7023	589.3897	692.4363	796.103	827.2375	870.7631	902.6257	925.3934	947.7982	991.8648	1048.2483	1077.5124	1153.2234	1168.5602	1213.3439	1234.2724	1260.1405	1275.7369	1276.4484	1320.8878	1411.4737	1475.8484	1484.8108	1491.5858	1499.2623	1507.73	2256.3669	2390.6133	3039.8834	3068.6246	3069.9209	3076.4145	3114.5105	3115.0097	3118.2508	3127.6624	3138.3614
CC1(CCC1)C#CC#N	CC1(CCC1)C#CC#N	
InChI=1S/C8H9N/c1-8(4-2-5-8)6-3-7-9/h2,4-5H2,1H3	InChI=1S/C8H9N/c1-8(4-2-5-8)6-3-7-9/h2,4-5H2,1H3
