20
gdb 13636	3.13811	1.4835	1.249	1.7725	71.6	-0.2522	0.0779	0.3302	1076.31	0.174366	-386.109963	-386.100404	-386.09946	-386.144461	33.944	
C	 0.5205666981	 1.8476908589	-0.5218677149	-0.234056
O	-0.1450709242	 0.6614117586	-0.8882570071	-0.246974
C	 0.7150594589	-0.4358167686	-1.1853190419	 0.098225
C	 1.3317331008	-1.071628719	 0.0627736372	-0.400661
C	-0.0873975157	-1.4292443565	-2.02880027	 0.024705
O	-0.3398289534	-2.7345086782	-1.4962958272	-0.255234
C	-1.460165419	-1.8728797044	-1.728945794	 0.098581
C	-2.2845287559	-1.4438747855	-0.543078179	-0.409332
H	 1.0431983836	 1.7641605951	 0.4418103755	 0.10904
H	 1.2544672236	 2.1520932579	-1.2851566296	 0.102974
H	-0.240016479	 2.6278735597	-0.4353949012	 0.127363
H	 1.5350999732	-0.0613906528	-1.8207015852	 0.06619
H	 0.5623672292	-1.4674369714	 0.7280496717	 0.13398
H	 1.9809352585	-1.9032442892	-0.2252115419	 0.128633
H	 1.9361611525	-0.34370679	 0.6110341939	 0.109702
H	 0.2056028549	-1.4479318841	-3.0796082	 0.086601
H	-2.0558019103	-2.1777465266	-2.5932047077	 0.084345
H	-1.667702513	-1.0750041102	 0.2751305766	 0.13423
H	-2.9647754267	-0.638828685	-0.8384378533	 0.124076
H	-2.888708886	-2.2853534987	-0.1866147418	 0.117612
53.7807	86.486	148.1639	184.8635	192.7286	221.4745	255.3516	299.6976	376.4526	385.3518	433.108	514.799	690.2463	757.7999	789.1718	855.6098	924.4799	978.4623	1020.1819	1042.6147	1083.664	1103.0493	1133.2203	1150.6511	1176.8126	1182.5157	1195.248	1222.1489	1321.0484	1371.3092	1381.6234	1393.8339	1414.2325	1424.1501	1465.0479	1474.3416	1481.3443	1483.7062	1486.6076	1501.863	1508.1956	1512.8631	2956.0659	2976.0844	3027.6917	3042.4353	3054.3043	3071.1863	3094.0219	3103.1705	3110.2949	3120.4384	3141.1723	3162.5877
COC(C)C1OC1C	CO[C@@H](C)[C@H]1O[C@H]1C	
InChI=1S/C6H12O2/c1-4(7-3)6-5(2)8-6/h4-6H,1-3H3	InChI=1S/C6H12O2/c1-4(7-3)6-5(2)8-6/h4-6H,1-3H3/t4-,5-,6+/m0/s1
