14
gdb 25490	5.48855	1.04345	0.87677	4.5963	74.86	-0.2623	-0.0532	0.2091	1239.5345	0.103159	-432.921176	-432.913869	-432.912925	-432.95401	26.112	
N	-0.1790790751	 1.3031295817	 0.0118632121	-0.418672
C	-0.0161673659	 0.055176058	 0.0027566444	 0.114738
O	-1.1397125257	-0.7286874189	 0.0082179896	-0.209308
C	-1.0373710969	-2.0806469121	 0.0008220007	 0.49647
N	 0.1654798297	-2.6474061219	-0.0094184963	-0.333558
C	 0.1779105465	-3.9824882527	-0.0161049968	 0.020178
C	-0.9853022741	-4.7381839967	-0.0125011649	-0.14427
C	-2.1785042346	-4.0200422773	-0.0015256265	 0.014912
N	-2.2206428801	-2.6898384491	 0.0051816753	-0.294849
H	 0.7290928627	 1.7647344067	 0.0060435035	 0.236678
H	 0.9108079587	-0.5162164208	-0.0092858522	 0.143631
H	 1.1587862261	-4.4518187589	-0.0245308696	 0.127622
H	-0.9664185373	-5.8201490303	-0.0178731824	 0.116885
H	-3.1399105441	-4.5285067678	 0.0020282032	 0.129543
56.3542	84.7202	196.285	210.6685	419.1636	437.4051	504.0319	539.38	645.2516	704.1168	822.662	831.1306	847.4446	896.1264	1004.4945	1005.4119	1014.2146	1056.9022	1070.2853	1105.8506	1120.8787	1259.7251	1273.5366	1318.9816	1358.8041	1389.8916	1455.5657	1472.2305	1604.6865	1627.8052	1743.3236	3148.6788	3160.301	3162.1055	3222.2929	3511.0321
N=COC1=NC=CC=N1	[NH][CH]Oc1ncccn1	
InChI=1S/C5H5N3O/c6-4-9-5-7-2-1-3-8-5/h1-4,6H	InChI=1S/C5H5N3O/c6-4-9-5-7-2-1-3-8-5/h1-4,6H
