14
gdb 8511	3.95376	2.12192	1.65053	3.277	57.	-0.2271	0.0608	0.2879	763.4052	0.105323	-419.568356	-419.56153	-419.560586	-419.59884	26.807	
O	-0.0338720394	 1.3253883022	 0.0704024409	-0.461869
C	 0.0653950728	-0.0422460697	 0.0682109506	 0.381359
C	 0.7853215954	-0.9752715644	 1.0719727716	-0.416086
C	 0.0880824815	-1.9424726041	 0.0846802634	 0.381371
O	 0.1448514204	-3.3111331403	 0.0227802569	-0.46187
C	-1.1563449533	-0.9889670497	-0.1076471006	-0.040136
O	-1.0879870379	-1.020489281	-1.5599326641	-0.31967
C	 0.306855547	-1.0199382528	-1.1485781013	-0.040136
H	 0.8516361129	 1.7021371791	 0.0255769089	 0.290754
H	 1.8793754096	-0.9709783447	 1.0541845753	 0.100334
H	 0.4101614397	-0.9622343826	 2.0997732978	 0.100334
H	-0.1815098981	-3.6743999546	 0.8532015606	 0.290755
H	-2.1297128965	-0.9714025016	 0.3818565111	 0.09743
H	 1.0884465059	-1.0421277457	-1.9075185009	 0.09743
222.9399	227.0732	251.633	313.2808	321.5678	423.7928	440.3481	564.7574	612.1278	681.9663	721.7034	800.2065	861.152	906.4147	926.6548	942.5862	1004.1745	1048.4172	1062.471	1081.8076	1093.9113	1135.217	1166.162	1170.1539	1283.2355	1283.8053	1316.9585	1379.0368	1440.1983	1525.5965	3044.8766	3105.4458	3125.1922	3131.8026	3807.2997	3807.3342
OC12CC3(O)C1OC23	O[C@@]12C[C@@]3(O)[C@@H]1O[C@@H]23	
InChI=1S/C5H6O3/c6-4-1-5(7)2(4)8-3(4)5/h2-3,6-7H,1H2	InChI=1S/C5H6O3/c6-4-1-5(7)2(4)8-3(4)5/h2-3,6-7H,1H2/t2-,3+,4+,5-
