20
gdb 40466	3.61852	1.348	1.22405	1.6589	83.59	-0.2239	0.0883	0.3122	1099.3949	0.172071	-365.89989	-365.892448	-365.891504	-365.932154	30.015	
C	-0.0853233549	 1.4440183285	-0.0828250134	-0.271264
C	 1.2807668496	 0.8331685113	 0.0782254298	-0.260901
C	 0.0569376112	-0.0500374941	 0.107048135	-0.137768
C	-0.3821334686	-0.6781008253	 1.3773593319	 0.401226
C	-0.3188167093	-0.1263162073	 2.811102252	-0.314161
C	-0.8148733079	-1.5658067718	 2.9404109052	-0.007551
C	-1.6828688809	-1.513389025	 1.6518865012	-0.108653
C	-0.9761811869	-2.7668560911	 1.1532432829	-0.19483
N	 0.1799330902	-2.0663351649	 1.8609790418	-0.191215
H	-0.4817190084	 2.0219944194	 0.7450849085	 0.114439
H	-0.3826515615	 1.805645038	-1.0607116857	 0.113643
H	 1.9278583539	 0.7726262227	-0.7893955319	 0.114685
H	 1.8038141374	 0.9976017018	 1.0136569686	 0.119032
H	-0.1126322202	-0.6599984284	-0.7760428412	 0.084007
H	 0.6797234828	 0.0746441011	 3.2097908485	 0.106602
H	-1.0272755184	 0.6655109154	 3.0687237466	 0.096779
H	-0.9934010499	-2.1647494542	 3.8348319721	 0.080158
H	-2.7234042651	-1.1846068602	 1.5503043027	 0.061079
H	-1.2452232973	-3.7237225049	 1.6133913955	 0.096815
H	-0.8252853659	-2.8952271009	 0.0765593799	 0.097878
51.9208	171.656	179.1964	306.4282	376.8302	465.2656	482.47	595.2986	699.0031	767.553	785.8075	819.4831	847.5173	861.5341	881.9241	897.2781	925.2177	934.4738	943.5555	990.1521	1025.8016	1036.3797	1060.9725	1067.4195	1078.9858	1095.9882	1106.9541	1129.2194	1147.5943	1157.2679	1171.5429	1198.2089	1218.7746	1225.678	1236.8645	1273.7443	1281.9177	1327.9838	1423.534	1469.1585	1493.6498	1505.1975	1520.8701	3030.024	3042.2977	3051.0819	3090.9679	3104.3199	3115.2108	3134.4731	3138.9657	3143.6422	3213.7466	3229.4514
C1CC1C12CC3C1CN23	C1CC1[C@@]12C[C@H]3[C@@H]1CN23	
InChI=1S/C8H11N/c1-2-5(1)8-3-7-6(8)4-9(7)8/h5-7H,1-4H2	InChI=1S/C8H11N/c1-2-5(1)8-3-7-6(8)4-9(7)8/h5-7H,1-4H2/t6-,7-,8-/m0/s1
