18
gdb 120429	3.93434	0.94024	0.81845	3.0202	77.87	-0.257	-0.0369	0.2201	1430.9202	0.147416	-439.107455	-439.098769	-439.097824	-439.141732	31.604	
C	-0.0096160548	 1.4989413401	-0.0531816497	-0.386738
C	-0.0868909577	-0.0164789987	-0.0704346014	-0.043624
O	 0.6587279466	-0.4865559545	-1.1945871267	-0.240583
C	 0.7372744434	-1.8656604912	-1.2917708021	 0.164992
O	-0.5337182428	-2.4550124488	-1.6289399928	-0.25742
C	-0.4408837427	-3.0973214048	-2.8408991533	 0.393616
N	-1.3848735994	-3.7061312248	-3.4220909499	-0.540909
C	 0.9439551108	-2.9619757041	-3.3195532597	-0.134674
C	 1.6401059086	-2.2565127801	-2.4325276391	-0.119936
H	 1.0284707315	 1.8330465992	 0.0292931297	 0.127055
H	-0.4325275429	 1.9146704851	-0.9718304037	 0.133706
H	-0.5716672752	 1.8951905643	 0.7976215416	 0.119843
H	 0.3357525371	-0.4436123914	 0.8529411553	 0.092524
H	-1.1268191483	-0.3571947939	-0.149483725	 0.116302
H	 1.0349850952	-2.3031332122	-0.3241977938	 0.08488
H	-2.2452632894	-3.6384506975	-2.8759805704	 0.224782
H	 1.2716276397	-3.3870366397	-4.2565368801	 0.136047
H	 2.6773414005	-1.9554007669	-2.4726535788	 0.130135
53.9013	90.1332	120.2664	167.8338	245.6404	294.1159	346.8545	403.2189	476.4697	578.9817	672.9415	707.2394	797.4931	820.4469	828.5219	888.7169	902.4827	908.8764	946.7869	975.9128	1019.184	1058.7047	1073.2221	1106.5192	1144.5226	1160.4219	1186.6926	1265.2459	1295.2573	1354.3247	1367.9416	1388.9406	1405.7083	1442.6844	1483.5402	1500.4082	1526.286	1670.0483	1764.6123	2966.955	2982.2928	3045.8315	3046.9383	3121.6436	3124.9107	3236.7462	3263.3628	3478.3471
CCOC1OC(=N)C=C1	CCO[C@H]1OC(=C[CH]1)[NH]	
InChI=1S/C6H9NO2/c1-2-8-6-4-3-5(7)9-6/h3-4,6-7H,2H2,1H3	InChI=1S/C6H9NO2/c1-2-8-6-4-3-5(7)9-6/h3-4,6-7H,2H2,1H3/t6-/m0/s1
