18
gdb 52316	4.22782	0.88698	0.77303	3.4896	70.19	-0.255	0.0265	0.2815	1438.338	0.147884	-476.207422	-476.198595	-476.197651	-476.242631	30.678	
N	-0.4505559064	 1.0739886963	 0.1677198649	-0.440681
C	-0.6351854171	-0.1392387572	 0.457557018	 0.137208
O	-0.4970064989	-1.0817307067	-0.5023968331	-0.184424
C	-0.8021977829	-2.4220198818	-0.1466662346	-0.108442
C	-2.2885564212	-2.7334257394	-0.2820889969	 0.0986
C	-2.613387897	-4.2314842931	-0.0677460817	-0.132956
O	-3.7664713041	-4.2160463966	 0.756938625	-0.227117
C	-3.6177641608	-3.0720454038	 1.5538006267	 0.021137
O	-3.0530132238	-2.0705986732	 0.7295340824	-0.264748
H	-0.5710772413	 1.6491236574	 0.9987751858	 0.228497
H	-0.8992317421	-0.5501181647	 1.4388569191	 0.091731
H	-0.228330917	-3.0507068748	-0.8356554307	 0.12442
H	-0.4680614848	-2.642853988	 0.8765948166	 0.108995
H	-2.6393738148	-2.3723199064	-1.2549922605	 0.108964
H	-2.8528862642	-4.7614366621	-0.991093519	 0.130281
H	-1.7783596501	-4.7483587703	 0.433045044	 0.098151
H	-4.6013354104	-2.7450959152	 1.9019171175	 0.127885
H	-2.9575155431	-3.2777335204	 2.4169618563	 0.0825
51.3371	67.7909	71.6633	137.3533	211.238	278.9086	341.8964	360.9464	454.114	643.271	696.5131	742.825	817.8453	849.2813	921.9127	966.4769	976.5445	1025.4193	1037.3661	1056.7465	1097.1281	1115.5304	1135.6706	1156.3042	1183.8993	1214.3723	1250.2879	1268.6166	1302.947	1330.6407	1371.5131	1378.9925	1408.7921	1426.053	1437.2864	1485.4827	1512.9589	1544.4709	1746.1749	2927.5522	2973.5547	3013.0763	3053.7275	3056.4605	3084.5299	3093.0713	3116.0227	3518.966
N=COCC1COCO1	[NH][CH]OC[C@H]1COCO1	
InChI=1S/C5H9NO3/c6-3-7-1-5-2-8-4-9-5/h3,5-6H,1-2,4H2	InChI=1S/C5H9NO3/c6-3-7-1-5-2-8-4-9-5/h3,5-6H,1-2,4H2/t5-/m0/s1
