20
gdb 124510	3.74613	1.02351	0.86881	4.0618	82.5	-0.2434	0.0059	0.2492	1402.2253	0.170904	-399.343897	-399.334399	-399.333455	-399.379034	34.133	
C	 0.1400410834	 1.5244125432	 0.2078665113	-0.381839
C	-0.0398454145	 0.0176216725	-0.0550956599	-0.063699
C	-1.5172629401	-0.3894636248	-0.0007858262	-0.396732
C	 0.6074566934	-0.3758229214	-1.3530825021	 0.316397
C	 0.063701866	-0.8633972655	-2.5209245843	-0.203007
N	 1.1210627511	-1.0252498259	-3.3541771464	 0.074671
C	 1.1507717805	-1.5127620877	-4.7173735384	-0.331976
N	 2.2640471041	-0.6601886455	-2.7424627787	-0.148059
N	 1.9568326474	-0.269457452	-1.5395552654	-0.262488
H	 1.1966600295	 1.7987159164	 0.1643023542	 0.139983
H	-0.3954778065	 2.1159296599	-0.5432346709	 0.11008
H	-0.2507361492	 1.7937829464	 1.1946693735	 0.106423
H	 0.4933255155	-0.5186397505	 0.741124933	 0.096849
H	-2.0996303513	 0.1345607634	-0.7677984773	 0.112614
H	-1.6451280463	-1.4659011023	-0.1538277001	 0.113874
H	-1.9500012979	-0.1335006597	 0.9708641593	 0.115144
H	-0.9429002758	-1.1039017985	-2.8176127133	 0.139284
H	 0.5539392159	-0.8711901292	-5.3718492186	 0.145963
H	 2.1910388229	-1.4952460712	-5.0421919184	 0.170507
H	 0.769364242	-2.5363668978	-4.7717291812	 0.146011
34.2457	90.4212	126.4785	166.6193	228.6965	242.6679	274.6327	320.1104	352.3135	444.2587	479.3664	597.62	670.3576	735.3483	744.1502	795.4365	891.7968	930.7511	968.5874	1020.5349	1044.0204	1073.5531	1097.4879	1125.674	1151.5173	1158.7383	1196.9603	1274.1033	1295.1423	1331.1712	1338.4511	1391.8626	1402.4188	1417.7281	1440.0113	1480.2598	1485.1717	1489.6437	1491.8669	1502.6183	1512.5335	1513.2565	1586.0753	3016.1485	3027.2667	3032.5539	3047.5686	3092.4963	3098.7965	3107.0354	3111.7426	3125.5096	3162.2837	3282.1809
CC(C)C1=CN(C)N=N1	CC(C)c1cn(C)nn1	
InChI=1S/C6H11N3/c1-5(2)6-4-9(3)8-7-6/h4-5H,1-3H3	InChI=1S/C6H11N3/c1-5(2)6-4-9(3)8-7-6/h4-5H,1-3H3
