19
gdb 51095	4.09147	1.0537	1.00925	4.3081	75.99	-0.2719	0.0072	0.2791	1228.5762	0.160573	-423.043319	-423.035501	-423.034557	-423.076387	30.063	
O	 0.0358506759	-0.0014166351	 0.0651681557	-0.276866
C	 0.0707160196	 1.1846253851	 0.2064082509	 0.145254
O	 1.0773565992	 1.9421545201	-0.2678677223	-0.248326
C	 0.9935211905	 3.3458989618	-0.0994464722	 0.433241
C	 0.6224631963	 4.043617336	 1.2440354692	-0.284305
C	 1.3775689999	 5.224863286	 0.5662446518	-0.027888
C	 2.3130992768	 4.1450669371	-0.0547400261	-0.270172
C	 0.4492353999	 5.5685837749	-0.6200250183	-0.210106
C	 0.1545267395	 4.1221487905	-1.1332381719	-0.263236
H	-0.6992634665	 1.7704265142	 0.7413193452	 0.080926
H	-0.4338934942	 4.1817932288	 1.491030283	 0.097778
H	 1.1668145955	 3.6239151812	 2.0923994395	 0.112537
H	 1.7753663781	 6.050089927	 1.1536788824	 0.074485
H	 3.0202347534	 3.7295468069	 0.6653117335	 0.110903
H	 2.8101410531	 4.3662216496	-1.0028624426	 0.100108
H	-0.4553058458	 6.0931156416	-0.3005642195	 0.103526
H	 0.9496355477	 6.1855369434	-1.3710487143	 0.105695
H	 0.5058016476	 3.9414996712	-2.1521837225	 0.113994
H	-0.9056796464	 3.8568739797	-1.0867080916	 0.102451
44.8533	126.8931	157.7916	287.678	358.3771	392.5729	434.5586	482.6347	526.6421	634.8656	787.0862	828.5476	833.2413	837.2651	894.0351	924.3631	944.5168	974.0929	983.0354	1012.9408	1027.7904	1045.0289	1086.135	1116.4369	1142.7267	1151.9299	1180.4903	1212.6107	1231.8752	1246.8369	1252.3192	1265.7187	1277.3454	1323.658	1330.8137	1429.0858	1487.3942	1493.733	1501.4056	1535.0518	1862.1063	2970.3274	3054.8943	3057.1975	3062.5508	3068.0447	3095.9472	3113.7192	3125.9908	3131.9706	3136.1265
O=COC12CC(C1)CC2	O=CO[C@@]12C[C@@H](C1)CC2	
InChI=1S/C7H10O2/c8-5-9-7-2-1-6(3-7)4-7/h5-6H,1-4H2	InChI=1S/C7H10O2/c8-5-9-7-2-1-6(3-7)4-7/h5-6H,1-4H2/t6-,7-
