18
gdb 9547	3.4775	1.55557	1.35618	3.1631	63.76	-0.2428	0.053	0.2958	974.1666	0.151903	-422.053029	-422.044204	-422.043259	-422.08638	32.219	
C	-0.2030859316	 1.4791197072	 0.0787272373	-0.394076
C	 0.0779127564	-0.0091577516	 0.0031189417	 0.094829
O	 1.1904154747	-0.3322257612	-0.869215172	-0.295935
C	 2.0074600865	-0.7662808563	 0.2382160015	-0.125903
C	 0.8062798704	-0.6526588857	 1.210396999	 0.359445
O	 0.9616483091	 0.1964673356	 2.3178079891	-0.480189
C	 0.2125121193	-1.9816564797	 1.6515840289	-0.149148
O	 1.0690152597	-2.481592921	 2.6756143258	-0.437029
H	 0.6711491054	 2.0271289104	 0.4364939665	 0.132273
H	-0.4733781525	 1.8507946938	-0.9142826682	 0.119626
H	-1.0339009553	 1.6771786931	 0.7632459337	 0.118337
H	-0.8249185167	-0.5506323616	-0.3152871828	 0.066803
H	 2.4320781545	-1.7637229503	 0.0778170775	 0.100506
H	 2.8097616651	-0.0550691357	 0.4686269663	 0.101686
H	 1.2479252292	-0.3700470805	 3.0465670551	 0.288654
H	-0.8044115379	-1.8093596899	 2.0349189242	 0.097576
H	 0.1518497181	-2.6737692441	 0.799916268	 0.104908
H	 0.6355134854	-3.2201894123	 3.1116902182	 0.297637
60.6862	119.3321	176.2617	201.4242	258.6451	266.0955	326.5144	356.6132	426.0251	459.3669	465.9215	555.4103	700.6589	812.3403	878.3791	917.0121	951.2514	1007.9746	1016.1387	1044.048	1077.2065	1100.8808	1137.0265	1152.0416	1163.5471	1214.9299	1259.1326	1272.409	1306.1767	1336.4914	1371.8862	1405.0055	1425.5526	1451.7522	1484.2424	1489.1365	1508.7455	1519.4234	2984.7734	2994.4846	3020.1854	3031.4131	3044.3775	3071.8874	3113.4686	3134.3942	3763.7143	3843.523
CC1OCC1(O)CO	C[C@H]1OC[C@]1(O)CO	
InChI=1S/C5H10O3/c1-4-5(7,2-6)3-8-4/h4,6-7H,2-3H2,1H3	InChI=1S/C5H10O3/c1-4-5(7,2-6)3-8-4/h4,6-7H,2-3H2,1H3/t4-,5-/m1/s1
