19
gdb 37435	2.61551	1.95712	1.94093	1.39	77.36	-0.2337	0.0116	0.2453	869.4352	0.163229	-385.878533	-385.872174	-385.87123	-385.908691	27.817	
C	-0.02470641	 1.5437014267	-0.1450498049	-0.32367
C	 1.2854807156	 0.8261803561	 0.0294934385	-0.012057
C	-0.0102636365	 0.046076288	 0.0322786099	-0.029357
C	-0.1695482653	-0.6257019814	 1.4011056072	 0.048046
O	 0.9550747465	-1.5376349158	 1.5353644246	-0.277109
C	 2.2059975542	-0.8535272548	 1.5489409738	-0.047491
C	 1.9839171125	 0.6811408065	 1.3950760325	-0.111305
C	 1.0539279845	 1.0714600379	 2.5158756469	-0.082835
C	-0.0911275349	 0.3851453363	 2.5169397123	-0.076191
H	-0.3992107644	 2.1704053813	 0.6551716543	 0.114708
H	-0.2464613481	 1.9044291919	-1.1438264604	 0.10729
H	 1.9452125727	 0.7430981406	-0.8283296419	 0.08645
H	-0.2595110338	-0.5808576137	-0.8167508835	 0.089626
H	-1.0548405917	-1.2599986194	 1.4562772206	 0.072929
H	 2.7231413047	-1.0753155432	 2.4917034258	 0.092523
H	 2.8229598899	-1.2259738043	 0.7192422267	 0.091011
H	 2.9387321234	 1.2099034358	 1.4280531358	 0.066768
H	 1.3265433346	 1.8183688621	 3.2530053509	 0.094087
H	-0.886661084	 0.4996916195	 3.243941531	 0.096577
234.9253	311.9903	324.9943	388.9253	438.3912	516.6311	612.9965	652.8746	667.4692	725.1054	741.1021	815.4495	838.0316	876.8509	890.6375	927.4879	947.9785	965.7321	970.6337	1000.4907	1029.517	1040.0455	1069.4956	1080.3371	1098.841	1109.5217	1124.8567	1147.2611	1207.6646	1223.4653	1260.2154	1291.2665	1317.9598	1326.1139	1329.7542	1376.4441	1396.0718	1406.0411	1477.5057	1518.2836	1676.4922	2996.9643	3034.6289	3086.2462	3105.6784	3137.4548	3153.8479	3169.2495	3180.3409	3204.6701	3224.524
C1C2C1C1OCC2C=C1	C1[C@@H]2[C@H]1[C@H]1OC[C@@H]2C=C1	
InChI=1S/C8H10O/c1-2-8-7-3-6(7)5(1)4-9-8/h1-2,5-8H,3-4H2	InChI=1S/C8H10O/c1-2-8-7-3-6(7)5(1)4-9-8/h1-2,5-8H,3-4H2/t5-,6-,7-,8-/m0/s1
