20
gdb 120071	5.72179	0.83709	0.83122	1.5435	79.25	-0.2232	0.0626	0.2858	1465.6874	0.169593	-403.024172	-403.015875	-403.014931	-403.05767	31.721	
C	-0.2194207309	 1.6156939499	 0.0543428651	-0.380969
C	-0.0502957152	 0.0945383564	 0.0356119674	-0.168496
C	 0.6659086947	-0.4046525552	-1.2199891078	-0.126069
N	 0.7549810777	-1.866076417	-1.2354692512	-0.128355
C	 1.887968741	-2.4604731317	-0.4622411665	-0.072197
C	 1.9714270014	-3.6770630952	-1.4268990493	 0.081599
O	 3.4078389041	-3.5822626615	-1.6338728278	-0.326697
C	 2.9867383295	-2.1919922133	-1.5602858082	 0.074493
C	 1.6205207288	-2.4421408564	-2.3042627417	-0.069261
H	 0.7494630463	 2.1261076006	 0.0163905961	 0.11417
H	-0.8073692508	 1.9600869707	-0.8037878503	 0.11553
H	-0.7327308179	 1.9463850758	 0.9621645199	 0.115028
H	 0.5117207163	-0.2234720743	 0.9233569086	 0.094726
H	-1.0264913582	-0.3993813601	 0.0967066867	 0.109057
H	 0.0958573281	-0.1025672207	-2.1084558062	 0.098109
H	 1.6557641392	 0.083265478	-1.2995456732	 0.076333
H	 1.9720830452	-2.4382647414	 0.6244921394	 0.093609
H	 1.4984942893	-4.6553538309	-1.3675009682	 0.106158
H	 3.7511383085	-1.4227342211	-1.6639426463	 0.101754
H	 1.389083443	-2.3918530026	-3.3690742764	 0.091477
70.4354	84.6835	128.6921	234.3514	260.7615	317.9666	366.8554	549.327	582.4424	745.2621	750.4931	762.3087	778.5023	804.7277	817.432	879.5196	887.9638	908.6875	936.5833	946.1796	986.3135	1046.0205	1052.8419	1098.636	1107.2021	1134.8698	1152.989	1159.214	1166.3734	1173.5727	1186.4563	1202.3464	1275.1567	1290.136	1321.429	1331.441	1343.9471	1406.6448	1412.6684	1486.8129	1497.0672	1499.8243	1512.5069	2924.6393	3022.0344	3029.4216	3035.7415	3067.2725	3097.3304	3104.8913	3110.2951	3115.6268	3128.8542	3148.8952
CCCN1C2C3OC2C13	CCCN1[C@H]2[C@@H]3O[C@H]2[C@H]13	
InChI=1S/C7H11NO/c1-2-3-8-4-6-5(8)7(4)9-6/h4-7H,2-3H2,1H3	InChI=1S/C7H11NO/c1-2-3-8-4-6-5(8)7(4)9-6/h4-7H,2-3H2,1H3/t4-,5+,6-,7+
