23
gdb 57186	2.26461	1.20639	1.08968	1.3633	81.77	-0.2417	-0.0128	0.2288	1299.2103	0.201001	-425.458388	-425.44692	-425.445976	-425.494608	42.199	
C	 0.0207290107	 1.5378994625	 0.0308120637	-0.420754
C	-0.0325660844	-0.0041223918	 0.1132735854	-0.072186
C	 0.7932211868	-0.4488295055	 1.3216722379	 0.380216
C	 2.2760011293	-0.6611870647	 1.0681861107	-0.477248
O	 0.3188708255	-0.6048330573	 2.4259367548	-0.312233
C	-1.4795897169	-0.5647176941	 0.0703450281	 0.357268
C	-1.4632309735	-2.0980776002	 0.1668986403	-0.430109
C	-2.4109735887	 0.0330597805	 1.1321935369	-0.435692
O	-1.9324345362	-0.1854962439	-1.2409201135	-0.472382
H	 1.0436173709	 1.8886113966	-0.136362209	 0.112443
H	-0.5984322085	 1.8754575039	-0.8021334916	 0.145302
H	-0.3434320437	 1.9986798835	 0.9530709825	 0.131238
H	 0.4577433852	-0.392372218	-0.7880091534	 0.085737
H	 2.7056964142	 0.1663988191	 0.4948149055	 0.138118
H	 2.8045152423	-0.7788022112	 2.0149403495	 0.139957
H	 2.410562565	-1.5667609887	 0.4640288634	 0.144432
H	-1.1140588142	-2.4345778187	 1.1461930972	 0.135891
H	-2.4739105043	-2.4945976591	 0.0172123124	 0.100651
H	-0.8192311677	-2.5229738002	-0.609571463	 0.112073
H	-2.5200049703	 1.1112312558	 0.9919193365	 0.116808
H	-3.4068815269	-0.4189473117	 1.0463914571	 0.094563
H	-2.0286308536	-0.1580146724	 2.1358862336	 0.152044
H	-2.8616121511	-0.4295394544	-1.3073457652	 0.273865
41.4155	92.4162	142.2857	185.8286	218.978	235.6597	245.8509	257.0416	265.662	282.9961	314.945	339.671	373.6611	406.196	462.5565	520.7404	603.37	615.1265	734.3681	820.0927	888.535	925.1823	949.1789	965.3204	987.1288	1007.5613	1034.6849	1077.7568	1108.2887	1146.8414	1166.8027	1214.5207	1228.5695	1328.2299	1362.6507	1368.3395	1382.86	1396.048	1399.7709	1415.0172	1462.2016	1475.0867	1480.6099	1492.192	1496.7916	1502.3583	1511.6259	1520.5869	1800.7771	3028.7836	3029.6705	3034.8672	3037.6753	3047.0511	3095.6785	3098.416	3106.7602	3113.9764	3126.9125	3141.3219	3151.9448	3152.4538	3809.2458
CC(C(C)=O)C(C)(C)O	C[C@@H](C(=O)C)C(C)(C)O	
InChI=1S/C7H14O2/c1-5(6(2)8)7(3,4)9/h5,9H,1-4H3	InChI=1S/C7H14O2/c1-5(6(2)8)7(3,4)9/h5,9H,1-4H3/t5-/m0/s1
