14
gdb 129546	3.37041	1.21161	0.93481	2.6408	68.13	-0.2585	-0.0457	0.2127	1173.3959	0.100074	-432.792742	-432.784529	-432.783584	-432.826218	29.795	
N	-0.4929183598	 1.5873554865	-0.3865057725	-0.499161
C	-0.0530845075	 0.2084019211	-0.1141131027	-0.294403
C	-1.1792122951	-0.604515554	 0.3502383862	 0.359636
C	-2.1073137087	-1.2790424328	 0.7050035327	-0.448337
C	 0.6310903576	-0.4619955055	-1.2829410467	 0.256423
C	 0.3701862288	-1.5935669545	-1.9867503921	-0.036202
O	 1.2742051067	-1.721951304	-2.9555312981	-0.165792
N	 2.1466067333	-0.5964574372	-2.8386333423	-0.004479
N	 1.7463753893	 0.0985384773	-1.8714546179	-0.181931
H	 0.3086318444	 2.1164384083	-0.7213581367	 0.248759
H	-1.1693216563	 1.5765325416	-1.1456787362	 0.234723
H	 0.6795008383	 0.2777568779	 0.7016476124	 0.140659
H	-2.9280206144	-1.8640524978	 1.0409335226	 0.207901
H	-0.3860997666	-2.3551010969	-1.9009875286	 0.182205
48.5438	119.5465	165.7034	203.99	267.2574	329.4926	403.9521	471.3983	561.9609	634.6047	640.8357	643.8995	666.0322	697.08	772.1486	865.1183	911.4402	922.8737	990.9918	1047.6037	1120.0331	1143.8101	1196.4733	1224.7373	1293.9485	1342.2618	1405.5673	1465.4153	1606.2154	1656.0575	2246.1428	3018.1181	3297.5226	3481.1912	3500.7071	3564.82
NC(C#C)C1=CON=N1	N[C@@H](C#C)c1conn1	
InChI=1S/C5H5N3O/c1-2-4(6)5-3-9-8-7-5/h1,3-4H,6H2	InChI=1S/C5H5N3O/c1-2-4(6)5-3-9-8-7-5/h1,3-4H,6H2/t4-/m0/s1
