19
gdb 15805	5.56091	1.00251	0.97246	3.3326	74.55	-0.2428	0.0351	0.2779	1290.4053	0.165346	-365.092764	-365.083742	-365.082797	-365.128199	32.037	
C	 0.3747092372	 1.3348676645	 0.163712318	-0.371663
C	-0.3335421917	 0.0410272263	-0.2446641601	-0.143585
N	 0.2764308135	-0.6004465651	-1.3977492616	-0.334527
C	 0.998683392	-1.7566019363	-1.3079374113	 0.441955
O	 1.1477890406	-2.3670225303	-0.2594675226	-0.399145
C	 1.5927743658	-2.2311733336	-2.5976686381	-0.12472
C	 2.9312984377	-2.9409206869	-2.5141980752	-0.248526
C	 1.6948979878	-3.7317134265	-2.794133336	-0.248347
H	 1.4168173381	 1.1364386665	 0.4300423674	 0.133133
H	 0.3644760439	 2.0702693242	-0.6486142336	 0.108603
H	-0.1225628563	 1.7861750617	 1.0282723956	 0.119041
H	-0.2892707984	-0.6920814319	 0.5632467699	 0.15102
H	-1.3908865726	 0.2399355113	-0.4596453077	 0.10285
H	 0.230943462	-0.1304404251	-2.2870801544	 0.23938
H	 1.4048888627	-1.6264593719	-3.479389556	 0.072931
H	 3.6383128917	-2.7686731258	-3.3176053664	 0.111397
H	 3.356597694	-3.0215974768	-1.5209693597	 0.139029
H	 1.3005931833	-4.3371209299	-1.9866946457	 0.13954
H	 1.5319625488	-4.1156731943	-3.7946152426	 0.111634
17.2654	56.103	99.755	181.953	249.2974	263.3147	329.9107	365.0264	462.4496	464.4636	654.8384	754.1357	773.4582	796.2518	832.2478	873.6917	899.7853	919.9564	960.4762	1065.7533	1073.0545	1093.657	1106.8928	1118.8126	1121.5879	1173.3781	1208.5525	1219.5288	1237.4047	1320.0219	1385.971	1408.5558	1415.6817	1450.0681	1482.539	1485.7255	1492.7471	1502.0909	1546.3996	1761.2079	3028.0971	3033.1289	3095.554	3116.456	3127.9332	3141.7413	3142.9534	3153.3493	3230.4494	3244.4221	3640.5505
CCNC(=O)C1CC1	CCNC(=O)C1CC1	
InChI=1S/C6H11NO/c1-2-7-6(8)5-3-4-5/h5H,2-4H2,1H3,(H,7,8)	InChI=1S/C6H11NO/c1-2-7-6(8)5-3-4-5/h5H,2-4H2,1H3,(H,7,8)
