19
gdb 73464	2.85579	1.81445	1.5402	1.5799	73.08	-0.2221	0.0895	0.3116	946.0046	0.161448	-423.026849	-423.019631	-423.018687	-423.058191	29.259	
C	 0.0679249361	 1.5000421418	-0.0797282715	-0.475199
C	 0.0196293596	-0.010334047	-0.0388932191	 0.226992
C	-1.2575270071	-0.6635485607	-0.5559700206	-0.270181
C	-1.1929311237	-2.2141218559	-0.4655744582	-0.224046
C	 0.1541448046	-2.6204400159	 0.1244408958	 0.166967
O	 0.3085405074	-2.0164799666	 1.4045704636	-0.266826
C	 0.7352745209	-0.7042893338	 1.1106044724	 0.011284
C	 1.3230757177	-0.7604122395	-0.2701637556	 0.011282
O	 1.2003370254	-2.1016243977	-0.6902023857	-0.266822
H	 1.0178167255	 1.8827837113	 0.3090175581	 0.11574
H	-0.0427037579	 1.8697698503	-1.1058686836	 0.120563
H	-0.7365036791	 1.9360280515	 0.5241866998	 0.120562
H	-2.1081011937	-0.2814507244	 0.0196921883	 0.105824
H	-1.4221637216	-0.3468256789	-1.5920402582	 0.10582
H	-1.9887046411	-2.6097500921	 0.1721935133	 0.107687
H	-1.2972232875	-2.6756236777	-1.451812763	 0.10769
H	 0.2847929341	-3.7002925045	 0.223953992	 0.092739
H	 1.1447920168	-0.1843987638	 1.9674010984	 0.104962
H	 2.2390139936	-0.2888492064	-0.6029946662	 0.104963
120.1851	205.3535	256.2241	284.2712	378.3877	398.172	489.8859	516.5066	627.0302	719.5203	727.6788	808.898	837.6088	861.9308	866.8379	894.5538	908.8164	951.6158	1013.4957	1040.6245	1064.7133	1067.3977	1072.9319	1089.0548	1115.9847	1150.6963	1201.4321	1219.4514	1267.4985	1278.4922	1284.1701	1298.3934	1365.8728	1370.9437	1378.3988	1412.2348	1427.2737	1473.8963	1490.631	1495.783	1507.2427	3018.8373	3029.7615	3055.4798	3060.4222	3082.4239	3090.4636	3097.4465	3101.9826	3190.881	3199.7057
CC12CCC3OC1C2O3	C[C@]12CC[C@@H]3O[C@H]1[C@H]2O3	
InChI=1S/C7H10O2/c1-7-3-2-4-8-5(7)6(7)9-4/h4-6H,2-3H2,1H3	InChI=1S/C7H10O2/c1-7-3-2-4-8-5(7)6(7)9-4/h4-6H,2-3H2,1H3/t4-,5+,6-,7+
