21
gdb 64382	2.1612	1.61201	1.23104	1.5842	82.99	-0.253	0.0392	0.2922	1133.6392	0.180897	-387.06696	-387.057296	-387.056352	-387.10134	36.522	
C	-0.5791416265	 1.5565814427	 0.0664302913	-0.448263
C	-0.0465392819	 0.1235919341	 0.0119175664	 0.294594
C	-1.1989095859	-0.861531748	-0.2535993023	-0.432012
C	 1.085089652	-0.0662209162	-1.0295694743	-0.272948
C	 1.9574065501	-1.1985175609	-0.4418077554	-0.07991
O	 1.4634556992	-1.4629024824	 0.8773097205	-0.252061
C	 0.6997295086	-0.3384815707	 1.300671382	-0.131964
C	 1.5550780162	 0.6931196961	 1.9031111797	 0.345995
C	 2.2746663153	 1.5204959568	 2.3970173758	-0.455552
H	 0.219134493	 2.2740390999	 0.2708552761	 0.128363
H	-1.0469910013	 1.8251827039	-0.8866921247	 0.112168
H	-1.339350737	 1.6659937139	 0.8479756981	 0.113578
H	-1.656333954	-0.6631040367	-1.2284174741	 0.110279
H	-0.8469797454	-1.8966383935	-0.243940754	 0.130217
H	-1.981059498	-0.7629983691	 0.5071757192	 0.112168
H	 0.6900981864	-0.3141149494	-2.0182207901	 0.10251
H	 1.6656753449	 0.8553404287	-1.1258206974	 0.109574
H	 1.8860014413	-2.1339652865	-1.0052662438	 0.10755
H	 3.014578717	-0.908280001	-0.3959320108	 0.104605
H	-0.0028551447	-0.7038897856	 2.0580749801	 0.104868
H	 2.9084253509	 2.2467630539	 2.8431487377	 0.196242
52.5521	98.7708	151.3191	213.3343	236.9561	249.356	290.5418	335.6461	368.1449	388.9944	496.3475	544.3206	601.6135	629.4729	660.2898	719.4102	784.5897	869.9075	892.3681	926.3992	946.6684	955.4683	984.9849	992.2766	1027.8154	1053.7315	1087.6507	1188.5871	1201.3674	1224.1945	1245.0101	1260.0226	1305.9512	1328.4463	1354.4404	1384.8817	1399.183	1421.8652	1482.1231	1488.1741	1497.4961	1501.9915	1510.9718	1526.7029	2226.0937	3020.8573	3029.4156	3034.0989	3047.8219	3061.0296	3069.7152	3091.527	3097.0633	3106.794	3116.5445	3121.8607	3501.4312
CC1(C)CCOC1C#C	CC1(C)CCO[C@H]1C#C	
InChI=1S/C8H12O/c1-4-7-8(2,3)5-6-9-7/h1,7H,5-6H2,2-3H3	InChI=1S/C8H12O/c1-4-7-8(2,3)5-6-9-7/h1,7H,5-6H2,2-3H3/t7-/m0/s1
