21
gdb 76189	2.0769	1.35301	1.13566	4.1058	81.01	-0.2422	-0.0155	0.2268	1225.296	0.178246	-424.233206	-424.222404	-424.221459	-424.268437	39.318	
C	-0.1035034825	 1.5036295948	-0.024025769	-0.42688
C	 0.0352283217	-0.0012375407	 0.0267316395	-0.125527
C	 1.3355205411	-0.7016388936	-0.2377046079	 0.343803
C	 1.4080466909	-1.9513722366	-1.0891594683	-0.452605
O	 2.4882878407	 0.0937920606	-0.3502612761	-0.452812
C	 0.7716804117	-0.7031343629	 1.1917376911	 0.154375
C	 1.468218729	 0.0905495584	 2.2795625946	-0.461789
C	 0.1076557204	-1.9423416826	 1.6792932575	 0.114682
O	 0.1666419341	-2.3456113467	 2.8158310241	-0.269051
H	 0.8501872476	 1.9995163514	 0.1649458781	 0.134185
H	-0.4570444827	 1.8192984603	-1.0120520576	 0.117933
H	-0.828218957	 1.8620350674	 0.7138838662	 0.128156
H	-0.8471146899	-0.5413462598	-0.3135548668	 0.086297
H	 1.5370698251	-1.6739849091	-2.1432018176	 0.110017
H	 2.26312003	-2.5686332331	-0.7974892839	 0.136491
H	 0.5016733638	-2.5566541862	-1.021603633	 0.123795
H	 2.5269402811	 0.4276602561	-1.2539157749	 0.286184
H	 2.0830635232	 0.8877500279	 1.8661846822	 0.134028
H	 0.7359089631	 0.5209395073	 2.9695593222	 0.121022
H	 2.1089493746	-0.5741679446	 2.8645826445	 0.135984
H	-0.4982417761	-2.4879447484	 0.9204005753	 0.061712
86.5335	109.7118	146.0217	176.4281	200.2611	218.589	230.6681	254.4775	261.2309	311.5328	334.3479	391.0762	415.5543	516.8314	535.1208	611.0705	669.1714	754.8752	778.6236	949.5751	975.3847	982.6704	1016.9231	1047.7285	1078.1397	1097.8136	1116.8392	1126.998	1168.2367	1215.9991	1269.1247	1303.7757	1358.3061	1405.7788	1412.1906	1418.5176	1438.0402	1449.1189	1486.4089	1487.7081	1491.0962	1496.8107	1503.1774	1512.431	1807.3332	2864.9993	3025.986	3037.2411	3054.8073	3092.3357	3093.1506	3112.3806	3113.9944	3129.8345	3138.2626	3169.025	3790.5547
CC1C(C)(O)C1(C)C=O	C[C@H]1[C@@](C)(O)[C@]1(C)C=O	
InChI=1S/C7H12O2/c1-5-6(2,4-8)7(5,3)9/h4-5,9H,1-3H3	InChI=1S/C7H12O2/c1-5-6(2,4-8)7(5,3)9/h4-5,9H,1-3H3/t5-,6-,7-/m1/s1
