19
gdb 76913	2.4283	1.1583	1.0021	2.9432	72.37	-0.2424	0.0638	0.3063	1269.0698	0.156114	-460.111141	-460.101419	-460.100474	-460.145747	35.93	
C	-0.1721628734	 1.5058861846	 0.1188854979	-0.462106
C	 0.1068772505	 0.0240596317	 0.0264283151	 0.318847
O	-0.9901839796	-0.752394465	-0.3847696511	-0.458368
C	 1.4188007815	-0.4829235584	-0.5089488108	 0.034014
O	 2.4453760473	 0.4154280266	-0.809288866	-0.413711
C	 1.1000122481	-0.6644751256	 0.9604498945	-0.145191
C	 1.8679416339	 0.0658268751	 2.0106442574	 0.078644
C	 1.5588709297	-0.0924932462	 3.4389728445	-0.189016
O	 2.6887296769	-0.7460284664	 2.8623577082	-0.236091
H	 0.7468446936	 2.0795326923	 0.2560312855	 0.132745
H	-0.6601916185	 1.8454002461	-0.8007848957	 0.123442
H	-0.8419982454	 1.7318592809	 0.956836743	 0.113577
H	-1.6269056425	-0.7758575717	 0.3387117853	 0.280803
H	 1.3699372068	-1.3733383368	-1.1343347126	 0.10153
H	 2.249750323	 0.8204208255	-1.6609838185	 0.293232
H	 0.8241538252	-1.6750045825	 1.2469679231	 0.100573
H	 2.3506701771	 0.9863321105	 1.6906302263	 0.110183
H	 1.7851280311	 0.7120388466	 4.1382086708	 0.111712
H	 0.7433498249	-0.7493703672	 3.7417240632	 0.10518
57.219	130.0585	143.6256	191.132	235.6398	238.4119	300.6828	316.6619	333.0031	382.0736	414.7228	480.9797	519.0817	610.3204	718.7585	824.1705	847.9975	875.8734	923.2412	959.3607	980.3991	1023.0907	1068.0427	1096.8294	1101.4912	1144.9695	1159.9152	1168.9014	1184.7807	1226.8042	1276.0121	1289.0472	1296.7047	1303.8106	1365.3197	1408.2913	1434.6728	1473.1017	1487.9425	1510.3858	1530.557	3030.4175	3074.0607	3089.7891	3114.4523	3129.3992	3139.8595	3157.6464	3163.1047	3787.7479	3805.4011
CC1(O)C(O)C1C1CO1	C[C@@]1(O)[C@@H](O)[C@H]1[C@H]1CO1	
InChI=1S/C6H10O3/c1-6(8)4(5(6)7)3-2-9-3/h3-5,7-8H,2H2,1H3	InChI=1S/C6H10O3/c1-6(8)4(5(6)7)3-2-9-3/h3-5,7-8H,2H2,1H3/t3-,4-,5+,6+/m1/s1
