20
gdb 51176	3.79816	1.0092	0.90295	3.3404	79.02	-0.2372	-0.018	0.2192	1327.7973	0.171761	-403.152944	-403.144433	-403.143489	-403.186935	32.01	
O	-0.4401799209	 0.2404601435	 0.2908133599	-0.244445
C	 0.0068820699	 1.3571275241	 0.2269024302	 0.159054
C	 1.4065854695	 1.7068126149	-0.236901997	-0.351518
C	 1.3872207348	 2.7543590948	-1.3322539375	 0.319993
C	 0.8614805738	 2.3754046561	-2.714292507	-0.27189
C	 1.3264891197	 3.5165099269	-3.6488608125	-0.242059
C	 2.6095933286	 4.0820556643	-2.9916623437	-0.227857
C	 2.4373685071	 3.7976863267	-1.5092398205	-0.060012
N	 1.1513858214	 4.1389684692	-0.8792626999	-0.373945
H	-0.6042709388	 2.2417723591	 0.5156836532	 0.087129
H	 1.9412805335	 2.1197144905	 0.6280141357	 0.12711
H	 1.9108062965	 0.7909572246	-0.560335118	 0.114293
H	 1.3124240287	 1.4202507631	-3.0101746856	 0.110714
H	-0.2247628171	 2.2309133324	-2.7347538663	 0.108127
H	 1.4997464417	 3.1713950743	-4.6706618737	 0.109167
H	 0.5577322144	 4.2930084361	-3.7160761375	 0.106923
H	 3.4999421932	 3.5526239743	-3.352070906	 0.108263
H	 2.7589693821	 5.1450578095	-3.210179964	 0.105819
H	 3.2997812916	 3.8682883075	-0.8519283509	 0.088496
H	 0.5470497402	 4.6483214881	-1.5194738587	 0.226638
51.1395	69.926	149.9759	228.3062	267.538	307.9285	381.07	444.1801	478.382	612.3982	649.5767	696.3539	802.659	822.9726	865.1186	876.5627	900.6594	928.0442	945.5874	1018.4099	1022.8314	1044.5947	1064.3652	1077.1897	1111.5237	1148.6172	1181.9036	1200.6488	1221.7742	1255.3424	1286.7929	1300.4142	1319.4109	1320.0149	1339.7678	1356.6298	1420.4795	1432.6457	1449.7476	1487.8575	1495.7328	1512.4543	1831.7961	2883.4549	3030.3102	3032.0828	3034.1723	3049.5331	3069.2036	3074.6815	3097.9693	3105.4661	3145.4698	3492.8439
O=CCC12CCCC1N2	O=CC[C@]12CCC[C@H]1N2	
InChI=1S/C7H11NO/c9-5-4-7-3-1-2-6(7)8-7/h5-6,8H,1-4H2	InChI=1S/C7H11NO/c9-5-4-7-3-1-2-6(7)8-7/h5-6,8H,1-4H2/t6-,7-/m1/s1
