20
gdb 66191	3.23978	1.19014	1.16632	2.955	80.54	-0.2327	0.0086	0.2412	1170.2683	0.172063	-403.130558	-403.122032	-403.121087	-403.163914	33.004	
O	-0.0866672475	 1.3964416821	 0.1259096827	-0.488956
C	-0.0229662595	-0.0316224442	 0.0812680491	 0.352456
C	 0.7298707948	-0.5543290817	-1.1832495473	-0.279336
C	 1.6566318905	-1.6966940747	-0.6991149285	-0.259881
C	 1.6890616987	-1.5055258639	 0.7983625306	-0.06607
C	 0.7908406579	-0.6164193075	 1.2169785279	-0.139793
C	-1.4669186119	-0.5165425578	 0.1313238923	 0.004696
C	-2.4804842919	 0.167580301	 0.9668661312	-0.248731
N	-2.535421802	 0.261751873	-0.5071189205	-0.340779
H	 0.8131809471	 1.7245078482	 0.2190217122	 0.277015
H	 0.0403853207	-0.8643050831	-1.9718217036	 0.115953
H	 1.3253420172	 0.2718416399	-1.5847296749	 0.097389
H	 1.2498191436	-2.6847314301	-0.9520562819	 0.115503
H	 2.6542313575	-1.6570265691	-1.1515763303	 0.106146
H	 2.3578999481	-2.0679435539	 1.4415219699	 0.098521
H	 0.5933733417	-0.3369815851	 2.2458974434	 0.098829
H	-1.5539212587	-1.5914593379	-0.0149847623	 0.085885
H	-3.2851107263	-0.4037141436	 1.4212904127	 0.109388
H	-2.1640625465	 1.0470313639	 1.5185137606	 0.119583
H	-2.1449838836	 1.1628418847	-0.7764753432	 0.24218
66.5465	86.9652	189.1984	256.6516	281.5317	308.9819	355.0527	410.698	488.5917	512.7148	663.6612	696.3583	768.1699	793.5387	844.7761	851.793	876.771	926.3482	959.5447	977.3278	980.0037	987.7774	1010.4329	1057.5584	1088.2009	1117.7	1125.8534	1153.1008	1164.5185	1169.0201	1225.3513	1233.5155	1277.3024	1284.3454	1308.3019	1320.0967	1343.4768	1379.3478	1431.977	1481.6998	1498.7625	1501.4433	1682.7684	3021.3518	3047.7186	3060.1936	3108.3031	3114.4817	3125.2623	3180.3546	3205.7735	3207.6315	3495.5069	3822.7429
OC1(CCC=C1)C1CN1	O[C@]1(CCC=C1)[C@H]1CN1	
InChI=1S/C7H11NO/c9-7(6-5-8-6)3-1-2-4-7/h1,3,6,8-9H,2,4-5H2	InChI=1S/C7H11NO/c9-7(6-5-8-6)3-1-2-4-7/h1,3,6,8-9H,2,4-5H2/t6-,7-/m1/s1
