23
gdb 88593	2.58524	1.09993	0.9213	1.2041	86.42	-0.2319	0.0764	0.3083	1397.3899	0.20436	-388.261989	-388.251737	-388.250793	-388.297542	38.258	
C	 2.5963312902	-0.8169793563	 0.2280048385	-0.400792
C	 1.4605318854	-1.7350195832	 0.6231203977	 0.006318
C	 1.6775755088	-2.864592327	 1.6010838938	-0.318103
C	 0.8118975654	-1.6839097966	 1.9913748049	-0.009054
C	 1.2596820197	-0.7356553919	 3.0607780376	-0.077897
C	 0.5458029558	 0.5856705199	 3.3269553352	-0.048753
C	-0.6364483861	 1.0481738294	 2.5030087762	-0.401649
C	 0.4180871126	-0.5464642091	 4.3098432989	 0.060786
O	-0.836115043	-1.1639145213	 4.3933146948	-0.415756
H	 3.2842068236	-0.6392784136	 1.0597030302	 0.113351
H	 3.1795436343	-1.2493233071	-0.5927512469	 0.113414
H	 2.2241263239	 0.1581939789	-0.1058537321	 0.116968
H	 0.7751354427	-1.9540786289	-0.1922830077	 0.079379
H	 1.2072596166	-3.8244953698	 1.4154609437	 0.104024
H	 2.6573973219	-2.9356229697	 2.0651148846	 0.104599
H	-0.2557144634	-1.8762625794	 1.9989885314	 0.087152
H	 2.3333353247	-0.720905625	 3.2277336584	 0.076741
H	 1.1987109405	 1.3927924911	 3.6500956652	 0.080232
H	-1.3477436734	 0.2398521903	 2.3278339487	 0.133005
H	-1.1741104744	 1.8494839781	 3.0211149037	 0.114532
H	-0.3111033816	 1.4376605585	 1.5323350417	 0.112489
H	 0.9345399892	-0.4553780774	 5.2656716913	 0.07919
H	-0.6921706035	-2.1083658999	 4.5154695004	 0.289823
36.8613	105.1297	146.7718	162.9122	189.3524	204.9607	246.8695	293.4846	314.5784	378.0902	422.6718	526.0981	544.0744	627.4718	752.9112	769.6006	799.3681	837.4562	860.6148	907.0263	939.8722	967.8293	981.7607	1034.1233	1047.3255	1063.4797	1078.8814	1105.1394	1115.7937	1149.0937	1155.3234	1181.9451	1199.1725	1202.5784	1235.2669	1261.1405	1297.4057	1307.9841	1373.8056	1397.4784	1417.5333	1421.6576	1433.6889	1461.9908	1491.4057	1491.9845	1494.5612	1501.5253	1508.6418	3028.7291	3036.7451	3085.8287	3088.6861	3090.5236	3102.0704	3118.6372	3124.6017	3131.2426	3137.5648	3144.6175	3163.2166	3203.7085	3802.9518
CC1CC1C1C(C)C1O	C[C@H]1C[C@H]1[C@H]1[C@@H](C)[C@H]1O	
InChI=1S/C8H14O/c1-4-3-6(4)7-5(2)8(7)9/h4-9H,3H2,1-2H3	InChI=1S/C8H14O/c1-4-3-6(4)7-5(2)8(7)9/h4-9H,3H2,1-2H3/t4-,5+,6+,7+,8+/m0/s1
