16
gdb 28810	3.23162	1.34701	1.03462	5.4311	82.5	-0.2453	-0.0759	0.1694	1143.4433	0.125117	-400.793597	-400.785794	-400.78485	-400.826051	29.28	
C	-0.3812845254	 1.4281626175	 0.1063074409	-0.484705
C	-0.05911582	-0.0410287209	-0.0176528152	 0.263741
C	-0.2641054877	-0.6852371373	-1.1997343649	-0.17191
C	 0.12078099	-2.0394490445	-1.5168193659	 0.007718
N	 0.3009644442	-3.0542205457	-0.7482755012	-0.243328
C	 0.0558144039	-3.0536103563	 0.6251468346	 0.330315
O	-0.5595721687	-3.9515510813	 1.1572126841	-0.321639
C	 0.6697213164	-1.9672344394	 1.4223258507	-0.167389
C	 0.5444641021	-0.6524640368	 1.1486894071	-0.093676
H	-1.0861318364	 1.6012761365	 0.9277734999	 0.145972
H	 0.5212089926	 2.0062201227	 0.3376458246	 0.142122
H	-0.8183338589	 1.8267267468	-0.8112326586	 0.133518
H	-0.6341078961	-0.1007568014	-2.0384031178	 0.10164
H	 0.2987185662	-2.22198032	-2.5809855101	 0.120189
H	 1.1271788268	-2.2817968789	 2.3560847193	 0.13133
H	 0.899816071	 0.0480861289	 1.9020931825	 0.106101
83.5263	143.4452	196.8952	275.4447	326.1198	341.0551	379.4075	449.8129	534.9436	621.5568	654.9792	722.9975	771.9054	811.4879	861.3863	884.2526	920.7743	985.2362	1003.1888	1008.9001	1064.9728	1090.4373	1186.6177	1202.1534	1243.7345	1382.4645	1411.3706	1434.7648	1452.5235	1478.6272	1490.345	1570.627	1664.7711	1683.9334	1779.2424	3030.3128	3079.559	3083.0331	3130.3783	3143.1837	3160.0761	3179.7219
CC1=CC=NC(=O)C=C1	Cc1ccnc(=O)cc1	
InChI=1S/C7H7NO/c1-6-2-3-7(9)8-5-4-6/h2-5H,1H3	InChI=1S/C7H7NO/c1-6-2-3-7(9)8-5-4-6/h2-5H,1H3
