25
gdb 118246	4.89253	0.61927	0.57653	0.9075	90.64	-0.2503	0.0888	0.3392	2016.1034	0.227137	-389.472237	-389.461213	-389.460269	-389.509224	39.685	
C	-0.0632671064	 1.3767827148	 0.0034599472	-0.226317
O	-0.077677294	-0.0283467142	-0.022280296	-0.2339
C	 0.6729059887	-0.5697005579	-1.0887578711	-0.056044
C	 0.5664523587	-2.0950038	-1.0582888956	 0.010016
C	-0.8902185112	-2.5450038394	-1.2259742552	-0.386393
C	 1.5141376768	-2.7044227147	-2.1090088671	-0.20964
C	 1.6371537207	-4.213750901	-2.0454894127	 0.029326
C	 0.7679485655	-5.1119583178	-2.8916217485	-0.249613
C	 2.2383716985	-4.9748643392	-3.200236472	-0.281856
H	 0.9577971622	 1.7745981574	 0.1209170379	 0.100948
H	-0.492306358	 1.8086757548	-0.9151955782	 0.101492
H	-0.6655967077	 1.6968146562	 0.8575442191	 0.124705
H	 0.2980120304	-0.1822708314	-2.0541041255	 0.078084
H	 1.7287493357	-0.2580390026	-1.0046523061	 0.078634
H	 0.9126156725	-2.4120851942	-0.0642409302	 0.079113
H	-1.2652846039	-2.2843390082	-2.2238170519	 0.101527
H	-0.990454593	-3.626389044	-1.1050007805	 0.117386
H	-1.526572438	-2.0508143857	-0.488392476	 0.128311
H	 1.1813193145	-2.4125114438	-3.1155507875	 0.087536
H	 2.5124844246	-2.2630724247	-1.9793826754	 0.091929
H	 1.8832005996	-4.5952149457	-1.0567068651	 0.079449
H	 0.4146382609	-6.0450244926	-2.4662337755	 0.108912
H	 0.0638056951	-4.6409165232	-3.569482753	 0.110138
H	 2.5192897159	-4.4108525857	-4.0840293258	 0.107753
H	 2.8916903519	-5.8131232074	-2.9846051354	 0.108503
48.3611	76.4941	88.3094	110.8302	129.7314	222.4889	230.8209	250.0696	276.5301	315.7806	364.6894	404.2723	450.4211	544.1818	773.917	799.8164	835.2624	852.8894	879.3491	930.4131	935.9007	965.8779	981.577	999.4312	1052.7657	1077.9963	1079.1865	1131.937	1143.4495	1160.9877	1169.2126	1180.9491	1198.4222	1199.8395	1228.4539	1230.2476	1258.3431	1283.8601	1303.3277	1358.4154	1381.6839	1403.4491	1417.2936	1425.2799	1468.0239	1479.5835	1484.095	1485.0572	1494.5299	1502.8741	1503.9388	1509.0262	1526.4898	2932.3869	2961.8233	2966.7267	2997.0775	3007.0218	3008.4659	3029.3254	3036.1771	3103.1338	3109.7702	3126.5031	3127.2653	3131.3015	3133.5294	3204.8585	3220.3005
COCC(C)CC1CC1	COC[C@@H](C)CC1CC1	
InChI=1S/C8H16O/c1-7(6-9-2)5-8-3-4-8/h7-8H,3-6H2,1-2H3	InChI=1S/C8H16O/c1-7(6-9-2)5-8-3-4-8/h7-8H,3-6H2,1-2H3/t7-/m0/s1
