20
gdb 126530	5.60617	0.74982	0.70424	4.1044	83.47	-0.2428	0.0057	0.2486	1681.5044	0.171283	-399.34361	-399.334065	-399.333121	-399.379374	33.527	
C	-0.0774505516	 1.5665350413	 0.0414427072	-0.382236
C	-0.1962051182	 0.0497719765	-0.1193811368	-0.153635
C	 0.8105339488	-0.5221412479	-1.1348443629	-0.290562
C	 0.7310798768	-2.0103709706	-1.2625756498	 0.313451
C	 0.2277297981	-2.7935028341	-2.2770509454	-0.204022
N	 0.3924524226	-4.067771473	-1.8456662875	 0.083894
C	 0.0516082202	-5.3128140485	-2.5018407008	-0.330534
N	 0.9680311803	-4.0821257471	-0.6275389248	-0.148258
N	 1.1717333341	-2.8453249106	-0.2753072673	-0.255466
H	 0.9227664583	 1.8505644438	 0.3871782051	 0.116792
H	-0.2574173212	 2.0841110353	-0.9078812268	 0.110034
H	-0.8010607903	 1.9465474091	 0.7691926821	 0.112918
H	-0.0359014322	-0.445708998	 0.8444885168	 0.121737
H	-1.2128672191	-0.2148333091	-0.436055962	 0.092629
H	 0.6470660696	-0.0624078347	-2.1167801096	 0.095685
H	 1.8254419117	-0.2469049485	-0.8232320307	 0.117732
H	-0.211813982	-2.5590645367	-3.2323331678	 0.136966
H	 0.5893989633	-5.411933917	-3.4489895524	 0.146217
H	 0.3453618056	-6.1202817406	-1.8312648126	 0.17062
H	-1.0240781246	-5.3696269895	-2.6911217938	 0.14604
35.7544	83.6613	91.2747	99.1837	205.7604	246.9702	272.3639	312.4376	379.5634	421.1541	642.1989	676.5115	732.7472	744.8408	775.9117	803.1551	872.6852	899.8699	1025.2134	1042.8692	1053.8496	1069.1541	1090.8483	1112.8952	1151.3696	1164.3181	1244.8751	1289.762	1300.3035	1313.1078	1332.5336	1375.4967	1390.3095	1413.1099	1441.0262	1474.4544	1485.262	1487.4707	1493.4905	1500.3461	1509.8657	1513.5752	1590.754	3024.4181	3027.8118	3034.2447	3048.2618	3058.6415	3076.8459	3098.5649	3102.7095	3112.5329	3163.0484	3275.0682
CCCC1=CN(C)N=N1	CCCc1cn(C)nn1	
InChI=1S/C6H11N3/c1-3-4-6-5-9(2)8-7-6/h5H,3-4H2,1-2H3	InChI=1S/C6H11N3/c1-3-4-6-5-9(2)8-7-6/h5H,3-4H2,1-2H3
