20
gdb 65377	2.86688	1.0774	0.97865	2.2657	82.4	-0.2433	-0.0205	0.2228	1310.3944	0.168755	-403.117287	-403.107849	-403.106905	-403.151844	34.555	
C	 0.2535030258	 1.6618222034	-0.1418632906	-0.487215
C	-0.0026280978	 0.1739208172	-0.0326666053	 0.200531
C	 1.1569146642	-0.8129864467	-0.1537155228	-0.335948
C	 0.5241678973	-0.620035035	 1.1775476072	 0.035125
N	 1.2501311049	 0.0989317986	 2.1807934916	-0.072082
C	 0.622309945	 0.1949950674	 3.4968910209	-0.22497
C	 1.7902123537	-0.7018755701	 3.2801927594	-0.219432
C	-1.3092422355	-0.3174912007	-0.5433940694	 0.092336
O	-1.637897646	-1.4810168976	-0.5928641967	-0.277737
H	 1.1471288478	 1.9374298992	 0.4199297087	 0.14484
H	 0.3906716102	 1.9646073393	-1.1857736591	 0.119742
H	-0.5858019409	 2.2374849721	 0.2652447872	 0.118011
H	 0.9503855399	-1.7353155497	-0.6846450674	 0.135824
H	 2.1375833022	-0.3755190949	-0.303507482	 0.123633
H	-0.1477536696	-1.4131474892	 1.5149592698	 0.097206
H	 0.7435261027	 1.1459247728	 4.0071172534	 0.12062
H	-0.3498063075	-0.2757887541	 3.6310830384	 0.118477
H	 1.600773464	-1.7732752158	 3.2676044884	 0.119003
H	 2.7792394836	-0.4162258661	 3.6260585567	 0.121055
H	-2.0053337638	 0.4841076999	-0.8804816786	 0.070982
72.393	94.4925	146.8521	156.5885	171.2418	244.3592	310.1553	328.2554	342.7795	437.6463	497.3705	627.9101	735.5098	747.1452	816.203	833.5983	889.2538	930.4015	935.8527	975.5644	1017.9658	1043.7562	1066.965	1078.849	1103.6438	1116.863	1121.5826	1124.6056	1140.7425	1176.678	1210.6102	1275.4001	1304.8697	1321.7473	1402.1174	1412.9218	1431.3793	1466.4207	1490.8676	1495.1131	1499.914	1518.6809	1799.5681	2871.7302	3031.1752	3070.0993	3086.7183	3100.1472	3104.6845	3137.151	3139.9869	3183.5163	3197.9744	3237.0178
CC1(CC1N1CC1)C=O	C[C@]1(C[C@H]1N1CC1)C=O	
InChI=1S/C7H11NO/c1-7(5-9)4-6(7)8-2-3-8/h5-6H,2-4H2,1H3	InChI=1S/C7H11NO/c1-7(5-9)4-6(7)8-2-3-8/h5-6H,2-4H2,1H3/t6-,7+/m1/s1
