19
gdb 80438	2.28154	1.75518	1.237	3.6862	75.82	-0.2438	-0.0257	0.2181	1073.838	0.156454	-422.992953	-422.983956	-422.983012	-423.026339	33.759	
C	-0.0513510762	 1.5335071536	-0.2045500687	-0.438309
C	 0.0539236143	 0.0406434543	 0.016667384	-0.029141
C	 1.3193001649	-0.741703209	-0.1130265664	 0.074983
O	 2.4567683268	-0.0043388461	 0.3523750552	-0.309662
C	 1.9499133166	-0.0527518143	 1.7090182215	 0.308923
C	 2.7876588658	-1.0082418574	 2.5593114178	-0.439703
C	 1.8721565478	 1.2889437257	 2.4100703126	 0.130271
O	 2.3163728872	 2.3273040121	 1.9994619913	-0.250646
C	 0.6249112841	-0.6764217981	 1.2355481803	-0.215541
H	 0.9064957557	 2.0265982176	-0.035877236	 0.166423
H	-0.3587640666	 1.7334678036	-1.2364081684	 0.115124
H	-0.7967265818	 1.9857031397	 0.4581619803	 0.114969
H	-0.7953611011	-0.5295074305	-0.3597424021	 0.093305
H	 1.5058524845	-1.5616583637	-0.7971862615	 0.105385
H	 3.8199384781	-0.6510226897	 2.6161373954	 0.14281
H	 2.3869309847	-1.0863032637	 3.5758186431	 0.122076
H	 2.783891616	-2.0031370065	 2.1071346425	 0.133015
H	 1.359000472	 1.222738538	 3.3996839752	 0.075948
H	 0.0834915472	-1.4374866157	 1.7824614637	 0.09977
93.9241	141.0498	156.8324	221.8081	233.7396	264.8542	278.4426	315.0516	363.7721	492.6525	551.835	625.4043	706.952	724.7542	824.5176	846.0424	881.4712	912.1564	941.5824	993.8352	997.6543	1028.8082	1033.2125	1061.3869	1087.7806	1122.6267	1161.0049	1168.6986	1204.104	1251.76	1277.5575	1333.3408	1396.3241	1412.173	1420.1965	1438.2486	1483.2335	1488.2663	1497.7295	1509.4493	1839.2199	2842.9485	3037.6401	3038.6084	3094.3963	3111.3834	3114.9647	3126.904	3152.6323	3176.0268	3196.3363
CC1C2OC(C)(C=O)C12	C[C@H]1[C@H]2O[C@@](C)(C=O)[C@@H]12	
InChI=1S/C7H10O2/c1-4-5-6(4)9-7(5,2)3-8/h3-6H,1-2H3	InChI=1S/C7H10O2/c1-4-5-6(4)9-7(5,2)3-8/h3-6H,1-2H3/t4-,5+,6-,7+/m1/s1
