16
gdb 55213	2.82134	1.6261	1.03815	3.5488	74.07	-0.2409	-0.0393	0.2016	1084.3974	0.12639	-434.141174	-434.133237	-434.132293	-434.173905	30.005	
N	 0.0028945159	 1.3274041916	 0.0062763428	-0.566418
C	 0.0519990428	-0.0228565385	 0.0026097854	 0.476166
O	 1.0650799551	-0.6990884503	-0.0084144519	-0.412753
N	-1.2091282218	-0.6583694836	 0.0129164506	-0.165695
C	-1.2595262541	-2.1150410776	 0.0091450401	-0.204863
C	-2.732288258	-2.3890428395	 0.0192512311	-0.096799
C	-3.4196246079	-1.2448930406	 0.0274593187	-0.15631
C	-2.4865105681	-0.1009138559	 0.0234523117	 0.410622
N	-2.7191329476	 1.1606122689	 0.0283563284	-0.59063
H	 0.8815760245	 1.8136367125	-0.000902707	 0.259354
H	-0.8953918723	 1.8032353006	 0.0154648588	 0.287195
H	-0.7557356861	-2.5269616251	-0.8740169335	 0.147316
H	-0.7429899529	-2.5320431085	 0.882532645	 0.147222
H	-3.1369834322	-3.3924697391	 0.0197025192	 0.126041
H	-4.4935403448	-1.1157319888	 0.0358087208	 0.117095
H	-3.7188423927	 1.3432532342	 0.0359321599	 0.222458
76.12	104.4897	213.7988	261.2493	322.5324	368.4751	399.8694	440.6763	581.55	644.8359	646.7969	688.101	726.0901	769.1561	782.4823	823.0069	836.7418	961.0144	972.877	1012.727	1026.6503	1116.4307	1138.0856	1163.3162	1188.6184	1244.1932	1299.9793	1370.3336	1384.0574	1423.947	1493.9581	1606.6115	1650.8488	1709.9106	1800.8739	3033.8423	3056.7503	3217.5337	3239.9393	3439.3659	3523.8146	3717.1421
NC(=O)N1CC=CC1=N	NC(=O)N1C[CH]C=C1[NH]	
InChI=1S/C5H7N3O/c6-4-2-1-3-8(4)5(7)9/h1-2,6H,3H2,(H2,7,9)	InChI=1S/C5H7N3O/c6-4-2-1-3-8(4)5(7)9/h1-2,6H,3H2,(H2,7,9)
