13
gdb 15298	6.15868	0.99411	0.90871	2.0974	60.27	-0.2801	-0.0627	0.2174	1176.6582	0.093486	-398.591132	-398.583323	-398.582379	-398.62438	26.552	
O	-0.42618049	 0.3959490831	 0.732780791	-0.232368
C	 0.3497711217	 0.7946870772	-0.0957170356	 0.135953
C	 1.1165463245	 2.0710420606	 0.057550108	-0.055679
O	 2.2983727204	 2.1987492664	-0.7445576685	-0.224978
C	 1.2214984491	 3.0633461779	-1.0396378893	 0.07424
C	 0.5286225637	 2.9008326792	-2.3857002705	-0.375723
C	 1.1970664985	 3.6753631949	-3.4313884205	 0.264391
N	 1.7264526841	 4.299635043	-4.2461228391	-0.287226
H	 0.5651630015	 0.2331184895	-1.0304430202	 0.098231
H	 1.1912208362	 2.4332253972	 1.081736143	 0.131917
H	 1.3766360045	 4.1001107935	-0.7396607318	 0.13312
H	 0.5066579222	 1.8487953168	-2.6820642964	 0.166348
H	-0.5100001461	 3.2434754208	-2.3068534401	 0.171775
53.4965	79.989	136.5654	233.7921	282.5988	383.507	391.5443	450.7417	490.2411	559.1675	817.9207	866.0602	918.7165	953.8649	985.7203	1047.2103	1074.6341	1128.75	1165.8284	1242.9257	1266.557	1321.1206	1345.8529	1408.1028	1449.4348	1468.0685	1828.4093	2369.1353	2902.0067	3051.3858	3103.9935	3118.3002	3139.7898
O=CC1OC1CC#N	O=C[C@H]1O[C@H]1CC#N	
InChI=1S/C5H5NO2/c6-2-1-4-5(3-7)8-4/h3-5H,1H2	InChI=1S/C5H5NO2/c6-2-1-4-5(3-7)8-4/h3-5H,1H2/t4-,5+/m0/s1
