19
gdb 71360	3.00444	1.8273	1.50391	1.8953	77.59	-0.2253	0.0916	0.3169	940.4577	0.160235	-385.815901	-385.808853	-385.807909	-385.846998	29.442	
C	 0.0829771517	 1.5060428733	-0.2770258311	-0.521841
C	-0.0328541684	 0.0320258328	-0.0215256229	 0.400816
O	 0.4114413572	-0.8350177176	-1.133940665	-0.354035
C	-0.0172886423	-1.7581596703	-0.0929406315	 0.050142
C	 0.6730152406	-0.9013432815	 1.0231559334	-0.087829
C	-0.1556010232	-1.0143124616	 2.2903549173	-0.064383
C	-1.1092207604	 0.103931942	 2.6403431822	-0.305119
C	-1.5660664709	-1.0032625418	 1.7196145651	-0.064427
C	-1.2784152956	-0.8863542481	 0.2332260238	-0.088027
H	 1.1260555336	 1.7643484839	-0.4852144026	 0.135042
H	-0.5175225011	 1.777904174	-1.1510179197	 0.134989
H	-0.2566519212	 2.1025924036	 0.5721189154	 0.130401
H	 0.0552957938	-2.828053151	-0.2930640505	 0.087299
H	 1.761756302	-0.8853011455	 1.0681825806	 0.073512
H	 0.1456227039	-1.7142028567	 3.0612163524	 0.088525
H	-1.5161962723	 0.0834651672	 3.646521091	 0.111088
H	-0.947227799	 1.1047000749	 2.2600501392	 0.111801
H	-2.3282488642	-1.6949219721	 2.0594668215	 0.088543
H	-2.0916535943	-0.8563978254	-0.4916002488	 0.073503
117.1862	223.6	250.1176	344.3111	382.7865	495.4386	511.0577	620.8599	672.605	693.5906	763.8258	776.1536	812.0467	836.2129	872.639	896.2305	901.7257	930.7143	975.3412	1002.3708	1015.7786	1020.4042	1059.0505	1063.2751	1076.9941	1099.878	1112.7858	1154.4972	1180.5927	1191.2003	1205.0981	1236.5765	1259.4329	1269.7697	1334.267	1358.0113	1392.4683	1413.3468	1472.9894	1481.184	1499.2555	3043.2007	3106.8674	3109.796	3125.1209	3129.1401	3130.1979	3139.9827	3171.0502	3179.8118	3224.3399
CC12OC3C1C1CC1C23	C[C@@]12O[C@H]3[C@@H]1[C@H]1C[C@H]1[C@@H]23	
InChI=1S/C8H10O/c1-8-5-3-2-4(3)6(8)7(5)9-8/h3-7H,2H2,1H3	InChI=1S/C8H10O/c1-8-5-3-2-4(3)6(8)7(5)9-8/h3-7H,2H2,1H3/t3-,4+,5-,6+,7-,8+
