12
gdb 130486	4.0356	1.78362	1.23693	3.8413	70.63	-0.2661	-0.1023	0.1638	890.5721	0.081001	-431.66392	-431.65828	-431.657335	-431.693905	22.202	
O	-0.0250076951	 1.2466867941	 0.0091846187	-0.199096
C	 1.0993615142	 1.9701446174	 0.0019714725	 0.11649
C	 2.3623286661	 1.4570249926	-0.0132002433	-0.287308
C	 2.4312660411	 0.056912233	-0.0213531242	 0.322736
N	 3.4155591346	-0.8173287206	-0.0357298878	-0.355971
C	 2.7305757037	-2.0274628115	-0.0354614257	 0.044622
N	 1.4104751906	-2.0161977875	-0.0222573113	-0.308791
C	 1.1459723112	-0.6695690948	-0.0125770595	 0.363095
N	-0.0392886056	-0.1345230174	 0.0019653861	-0.14711
H	 0.8586823858	 3.0261327101	 0.0099728517	 0.166769
H	 3.2277018925	 2.1068377878	-0.0182585022	 0.148286
H	 3.2878530608	-2.9571839032	-0.0457944749	 0.136278
227.8963	254.5691	395.6532	455.7669	558.2878	564.7578	625.3969	629.8362	766.4476	812.7604	857.372	902.9808	920.9293	947.8798	957.8369	991.001	1042.4736	1111.7986	1229.3881	1253.01	1320.1712	1355.6423	1408.0315	1460.394	1565.3284	1624.2213	1645.9112	3216.8362	3220.6987	3232.0815
O1C=CC2=NC=NC2=N1	o1ccc2ncnc2n1	
InChI=1S/C5H3N3O/c1-2-9-8-5-4(1)6-3-7-5/h1-3H	InChI=1S/C5H3N3O/c1-2-9-8-5-4(1)6-3-7-5/h1-3H
