21
gdb 65112	3.32636	1.10946	0.98396	1.8352	85.08	-0.2236	0.0217	0.2453	1296.6483	0.182305	-387.08274	-387.073714	-387.07277	-387.117214	33.764	
C	-0.1172867564	 1.4932182102	 0.2302961592	-0.469657
C	-0.0263503839	-0.0155047351	 0.0483461401	 0.25616
C	 1.3099987187	-0.5765612873	-0.4110780897	-0.289155
C	 0.8464187414	-0.7850208194	 1.0093401778	-0.305867
C	-1.254233981	-0.6618106326	-0.4859172904	 0.249702
C	-1.9602409074	-1.6806622723	 0.0008519168	-0.231381
C	-3.107642076	-2.0072328503	-0.9091856891	-0.101491
O	-3.0134214993	-1.0724766351	-1.9811779325	-0.266707
C	-1.897891407	-0.2131604055	-1.7801587057	-0.155162
H	 0.823142589	 1.8924231077	 0.6222428989	 0.11444
H	-0.3224812873	 2.0033487616	-0.7170857656	 0.1221
H	-0.914649671	 1.7581128752	 0.9333181462	 0.122211
H	 1.2984575996	-1.4343547367	-1.0741903532	 0.11636
H	 2.1171665589	 0.124875036	-0.595811615	 0.1107
H	 1.3389589939	-0.2244534581	 1.7966610944	 0.110779
H	 0.5457129497	-1.7850331072	 1.2986068018	 0.113905
H	-1.7658150951	-2.2199171276	 0.9191458432	 0.096885
H	-3.0552977864	-3.0349907818	-1.304382666	 0.101141
H	-4.0849987168	-1.9065097923	-0.4095811357	 0.101724
H	-2.2388949893	 0.8334288054	-1.7386147682	 0.10158
H	-1.2024757745	-0.2899771547	-2.6319762472	 0.101733
35.9802	100.7705	138.6189	192.9861	220.2543	299.6109	313.6317	335.2349	460.0651	512.7202	545.9151	767.3852	785.8238	809.1499	832.021	864.1259	906.8296	928.6765	936.7369	950.5905	987.7566	1025.7902	1042.924	1064.6382	1069.3758	1081.7085	1085.7132	1120.5591	1144.247	1174.6102	1188.713	1226.2147	1272.8983	1301.5521	1341.1283	1377.3535	1394.1122	1416.3325	1464.5677	1490.8717	1497.2504	1505.75	1517.7651	1530.9085	1722.5903	2962.0436	2970.4074	2977.4318	2983.9221	3028.3724	3092.2228	3102.4387	3129.7353	3137.8615	3212.0146	3217.082	3226.852
CC1(CC1)C1=CCOC1	CC1(CC1)C1=CCOC1	
InChI=1S/C8H12O/c1-8(3-4-8)7-2-5-9-6-7/h2H,3-6H2,1H3	InChI=1S/C8H12O/c1-8(3-4-8)7-2-5-9-6-7/h2H,3-6H2,1H3
