15
gdb 126464	5.00663	0.92001	0.81525	3.2276	70.75	-0.288	-0.0979	0.1901	1374.218	0.111889	-453.959774	-453.951449	-453.950505	-453.993724	28.822	
C	 0.1441712538	 1.53230768	 0.0531547349	-0.382335
C	-0.0805148071	 0.0175644124	-0.0783127254	-0.295987
C	 0.6234795781	-0.560963333	-1.260836854	 0.360728
N	-0.0115528519	-1.1384462356	-2.253755444	-0.15082
O	 0.9996741997	-1.5217343637	-3.1297346454	-0.174654
C	 2.1462086673	-1.1298082444	-2.5666995957	 0.317663
C	 3.4408075884	-1.3870817709	-3.2448336333	 0.084004
O	 3.544905519	-1.9417724545	-4.3068354235	-0.228164
N	 1.9920727993	-0.5337646354	-1.4209943396	-0.322426
H	 1.2103603662	 1.7613301815	 0.1285429067	 0.142566
H	-0.2594146597	 2.0649759476	-0.8128888167	 0.131467
H	-0.3540332865	 1.9116584861	 0.9491752168	 0.125456
H	 0.2908831622	-0.4886188511	 0.8200725181	 0.13308
H	-1.1452966776	-0.2127987795	-0.1678658443	 0.136367
H	 4.3020287089	-1.0097178794	-2.6612227446	 0.123055
56.2827	84.3497	153.0972	181.0748	226.6368	264.1227	346.8095	422.9799	493.9622	669.5246	692.7309	761.7624	773.2441	805.5134	939.8981	975.8586	1025.1725	1028.0386	1049.4671	1080.8588	1103.7461	1273.6528	1323.6497	1348.3062	1381.5459	1395.781	1411.5063	1474.994	1497.6115	1503.4967	1534.861	1601.8632	1817.1226	2962.5638	3046.6709	3049.7562	3101.8498	3122.4138	3130.7435
CCC1=NOC(C=O)=N1	CCc1noc(C=O)n1	
InChI=1S/C5H6N2O2/c1-2-4-6-5(3-8)9-7-4/h3H,2H2,1H3	InChI=1S/C5H6N2O2/c1-2-4-6-5(3-8)9-7-4/h3H,2H2,1H3
