15
gdb 27583	3.64513	1.19914	0.90288	1.7344	86.97	-0.2174	-0.04	0.1774	1217.2956	0.114275	-379.70839	-379.700682	-379.699737	-379.74034	30.215	
N	 0.0039150197	 1.3830081792	 0.1431728312	-0.571212
C	-0.0060989662	 0.0054513281	 0.0527903292	 0.404686
C	-1.2136436282	-0.7121624662	 0.0465053822	-0.291269
C	-1.167830195	-2.1040462212	 0.0060704976	 0.193285
C	 0.0896491949	-2.7329029384	-0.021200168	-0.236612
C	 1.2167573458	-1.9271761564	-0.0124402925	 0.009188
N	 1.1920742959	-0.5919880584	 0.018540798	-0.335297
C	-2.3691484463	-2.8710339528	-0.0049372111	 0.209176
C	-3.3811449253	-3.5229900242	-0.014896063	-0.394642
H	 0.8882465526	 1.8004277558	-0.1054236521	 0.255947
H	-0.8048596334	 1.8733370286	-0.203737011	 0.251543
H	-2.1662547998	-0.1962945807	 0.0776396495	 0.09734
H	 0.1687367221	-3.8115525163	-0.0530794682	 0.103492
H	 2.2061596891	-2.3784446373	-0.0366798063	 0.107883
H	-4.2733805359	-4.0987923999	-0.0218255357	 0.196493
135.7902	143.9383	206.4709	365.1956	369.8208	400.4584	462.965	475.4182	531.6714	551.1986	582.628	611.6183	640.5055	676.7223	762.3901	768.6055	837.3741	882.3441	961.2487	983.9417	1007.0917	1069.7873	1149.6258	1186.9662	1298.4142	1329.9697	1354.4765	1459.9219	1517.6571	1582.4567	1628.8858	1648.099	2230.0883	3152.388	3194.4	3219.6382	3502.3137	3581.1916	3697.1089
NC1=CC(=CC=N1)C#C	Nc1cc(ccn1)C#C	
InChI=1S/C7H6N2/c1-2-6-3-4-9-7(8)5-6/h1,3-5H,(H2,8,9)	InChI=1S/C7H6N2/c1-2-6-3-4-9-7(8)5-6/h1,3-5H,(H2,8,9)
