19
gdb 55293	2.36157	1.47223	1.10415	1.0288	76.04	-0.2433	-0.0158	0.2276	1157.9945	0.15726	-423.016111	-423.007118	-423.006174	-423.05038	33.096	
C	-0.4298374497	 1.3531686219	-0.2704681735	-0.484049
C	 0.4103138498	 0.139584485	 0.0816843532	 0.360229
O	 0.8436499202	-0.051259376	 1.1956005178	-0.302898
C	 0.6365104323	-0.8442792778	-1.0478831242	-0.165069
C	 1.6343132386	-2.014845157	-0.8456850888	-0.247246
C	 0.5945932226	-3.002060529	-1.4558273639	-0.320501
C	-0.4627477452	-1.9190171756	-1.2454415788	 0.448557
C	-1.7660545225	-2.0274205903	-0.5889213654	-0.260273
O	-1.6418346773	-1.739302733	-1.9946082269	-0.269177
H	-1.2936281768	 1.0635212072	-0.8792500934	 0.148604
H	-0.7498236862	 1.8712894563	 0.6345036595	 0.14009
H	 0.168043996	 2.0388859091	-0.8836217257	 0.144892
H	 0.7883641951	-0.3157751128	-1.995202223	 0.092165
H	 2.5928196537	-1.9296620031	-1.35841171	 0.107678
H	 1.8049674929	-2.1822082013	 0.2190533583	 0.133844
H	 0.766149217	-3.1830616543	-2.5209458133	 0.117947
H	 0.4400481739	-3.9589556515	-0.9523811989	 0.111539
H	-2.1652586783	-3.0122459009	-0.3512325975	 0.121959
H	-2.148705016	-1.212162167	 0.0226733243	 0.121709
58.7816	84.6943	125.6595	172.5615	219.6542	312.5724	352.1647	356.225	408.3	533.1152	590.5484	601.2267	706.487	784.4374	850.6667	878.2996	897.7771	934.4025	937.7431	960.9555	1000.3447	1038.483	1103.5606	1109.3187	1129.2015	1151.3829	1162.6435	1189.1995	1214.0807	1222.9106	1255.0227	1271.1202	1356.3224	1384.568	1422.039	1466.0146	1473.2639	1478.7171	1497.6477	1537.4467	1807.564	3030.3389	3054.9627	3060.6572	3086.0131	3086.8269	3090.8475	3112.8348	3145.377	3149.849	3174.3065
CC(=O)C1CCC11CO1	CC(=O)[C@H]1CC[C@]21CO2	
InChI=1S/C7H10O2/c1-5(8)6-2-3-7(6)4-9-7/h6H,2-4H2,1H3	InChI=1S/C7H10O2/c1-5(8)6-2-3-7(6)4-9-7/h6H,2-4H2,1H3/t6-,7-/m1/s1
