16
gdb 49589	2.19114	1.71304	1.16179	6.0803	69.74	-0.2313	-0.0309	0.2004	1054.0287	0.122826	-437.844314	-437.836139	-437.835194	-437.877805	29.502	
O	-0.7113515059	 0.8568120175	 0.4393695084	-0.235104
C	 0.1893963264	 1.0001893625	-0.3457514148	 0.163205
C	 1.3395569678	 1.9560572244	-0.1733608032	-0.119996
C	 1.4988967468	 3.0249305938	-1.2727089174	-0.078234
N	 0.2752372303	 3.8537296727	-1.1969320846	-0.323243
C	 1.3976178364	 4.1096839859	-0.2632019094	-0.061729
C	 1.2465888299	 3.1107669598	 0.9023771619	-0.108236
C	 0.00708666	 3.2568282858	 1.7628299224	 0.163369
O	 0.0454036309	 3.2383882639	 2.9679067194	-0.264487
H	 0.2319280764	 0.4069530915	-1.2883982371	 0.084778
H	 2.2595617163	 1.374798525	-0.0447318612	 0.114429
H	 2.0854350534	 2.9615616643	-2.1797700675	 0.1079
H	 0.3283655985	 4.5520782432	-1.937099604	 0.239834
H	 1.8864923259	 5.0746814826	-0.2310211765	 0.112486
H	 2.1186671615	 3.0989494661	 1.5582806611	 0.09955
H	-0.9308319844	 3.4385727311	 1.2068247625	 0.105476
67.5679	100.2272	129.6036	186.9708	230.6777	331.926	423.1047	442.3015	557.8813	664.6968	695.8328	790.4645	811.3994	843.4908	907.5881	940.6635	959.3306	995.5427	1018.1638	1046.8568	1077.5708	1102.8432	1111.8386	1135.6324	1169.2892	1232.221	1244.893	1304.0299	1308.321	1336.2985	1373.5601	1415.6662	1421.0748	1816.1067	1831.0429	2867.2256	2968.3805	3056.2412	3104.8264	3196.3086	3209.4533	3487.3458
O=CC1C2NC2C1C=O	O=C[C@H]1[C@H]2N[C@H]2[C@H]1C=O	
InChI=1S/C6H7NO2/c8-1-3-4(2-9)6-5(3)7-6/h1-7H	InChI=1S/C6H7NO2/c8-1-3-4(2-9)6-5(3)7-6/h1-7H/t3-,4+,5-,6+
