21
gdb 72163	2.3007	2.14597	1.65592	1.5121	80.41	-0.2309	0.0868	0.3177	944.5769	0.185822	-387.091671	-387.08457	-387.083625	-387.122622	30.047	
C	 0.0003592623	 1.5332059409	-0.0090752834	-0.511208
C	-0.0153375749	 0.0217399823	-0.0288734143	 0.326368
C	 0.213178549	-0.8013929739	-1.3215542053	-0.296783
C	-0.4332703988	-1.9534264028	-0.509980128	-0.076263
C	 0.651220019	-2.2000816235	 0.5562806908	-0.21683
C	 0.7222889682	-0.747462319	 1.1225101297	-0.091083
C	-0.315628893	-0.674629887	 2.2478766673	-0.086978
O	-1.5531409007	-0.9736367543	 1.5771833412	-0.285942
C	-1.2894451957	-0.8363893117	 0.1936197811	 0.118986
H	 1.0099637215	 1.9186091213	-0.1946021236	 0.115721
H	-0.6575669266	 1.9452349004	-0.7816706091	 0.115582
H	-0.3335742156	 1.9320409111	 0.9545630512	 0.122805
H	-0.4153643492	-0.4414131229	-2.1413172724	 0.094195
H	 1.2367510071	-0.9466621599	-1.6787246796	 0.090745
H	-0.882808811	-2.82023541	-0.9939290193	 0.05993
H	 0.3578293948	-2.9257402593	 1.3197990817	 0.09927
H	 1.5909732011	-2.5343565957	 0.1073423365	 0.092224
H	 1.7150254965	-0.3848345199	 1.3942007911	 0.062413
H	-0.1455473425	-1.4182771298	 3.0340687993	 0.100997
H	-0.3722062395	 0.3178255094	 2.7187590227	 0.089268
H	-2.1976887421	-0.5423274057	-0.3343170875	 0.076586
182.6909	231.4405	255.2188	277.0802	410.847	433.7057	460.7851	562.7235	627.8233	712.6362	756.3581	824.8354	835.5914	839.1654	894.53	904.0767	930.0068	940.0856	973.6717	982.3623	996.006	1013.1832	1057.1164	1079.8077	1086.003	1116.5398	1134.2641	1179.6298	1186.8776	1200.6465	1219.1601	1230.0283	1240.9476	1277.4221	1294.146	1313.2908	1334.6063	1349.2484	1392.5069	1415.2449	1492.2296	1492.9506	1494.9604	1514.3311	1527.707	2993.2044	3025.274	3048.6477	3052.091	3060.0482	3086.8247	3095.116	3096.7359	3101.2451	3103.8276	3108.7779	3120.0146
CC12CC3CC1COC23	C[C@@]12C[C@H]3C[C@@H]1CO[C@@H]23	
InChI=1S/C8H12O/c1-8-3-5-2-6(8)4-9-7(5)8/h5-7H,2-4H2,1H3	InChI=1S/C8H12O/c1-8-3-5-2-6(8)4-9-7(5)8/h5-7H,2-4H2,1H3/t5-,6-,7-,8-/m1/s1
