16
gdb 34790	2.33967	1.57544	1.10409	1.476	82.77	-0.2453	0.013	0.2583	1105.4157	0.123108	-363.458625	-363.450659	-363.449715	-363.490997	31.251	
C	-0.0954002658	-1.2294604786	-0.0543369701	-0.417413
C	-0.0223905523	-0.030773852	 0.0055814085	 0.333163
C	 0.04478992	 1.4120892908	 0.0345834817	-0.213622
N	 0.0643224289	 2.1057155232	 1.4264675842	-0.164596
C	 1.5369692846	 1.6614706672	 1.4929743391	-0.218992
C	 1.4264482183	 2.1596940469	 0.0268820289	 0.24874
C	 0.6099340426	 3.3173630765	 0.6553022231	-0.20351
C	 2.4182247291	 2.1942913611	-1.0127952641	 0.020397
C	 3.2456215375	 2.2234016145	-1.8853276304	-0.342904
H	-0.1591469771	-2.2887181392	-0.1011156903	 0.200462
H	-0.7174771409	 1.8478417674	-0.6180884209	 0.109053
H	 2.1384250284	 2.2604599999	 2.1799729632	 0.110233
H	 1.6696784285	 0.5921333849	 1.6581676361	 0.129479
H	-0.1336134879	 3.8178841657	 0.0299246005	 0.110045
H	 1.1501918418	 4.024315489	 1.2875834297	 0.112831
H	 3.9767898339	 2.246428363	-2.6554147291	 0.186634
93.2478	166.1033	177.8965	202.6911	412.7578	426.4215	486.1861	510.6832	547.6046	587.0066	633.7757	647.5388	647.7683	653.3428	657.0601	771.7506	818.9659	896.3873	908.8802	967.798	991.3454	1054.386	1067.1591	1102.0989	1134.1112	1156.6341	1175.3074	1198.7036	1255.7527	1289.71	1383.7067	1509.8246	1547.8285	2230.34	2234.5465	3061.3887	3066.5705	3075.9928	3135.9116	3151.4453	3499.5429	3501.8055
C#CC1N2CC1(C2)C#C	C#C[C@H]1N2C[C@@]1(C2)C#C	
InChI=1S/C8H7N/c1-3-7-8(4-2)5-9(7)6-8/h1-2,7H,5-6H2	InChI=1S/C8H7N/c1-3-7-8(4-2)5-9(7)6-8/h1-2,7H,5-6H2/t7-/m1/s1
