21
gdb 62800	2.52699	1.40911	1.15415	2.5464	82.87	-0.2398	-0.0195	0.2203	1168.3421	0.180755	-387.073973	-387.064742	-387.063798	-387.107717	35.026	
C	-0.0748366842	 1.5428523481	-0.0119364141	-0.457404
C	 0.0535255181	 0.0333068212	 0.0794520205	 0.341368
C	-1.2163326534	-0.686338542	-0.3552757428	-0.451102
C	 1.3148818793	-0.7167055498	-0.2663856863	-0.090504
C	 2.5859632545	 0.0316000938	 0.1620634159	-0.291531
C	 2.0667672537	-0.0121241437	 1.6468451899	-0.104871
C	 2.0115126826	 1.2486844095	 2.4692140128	 0.143287
O	 1.0345251789	 1.6693622408	 3.0354029199	-0.248413
C	 0.7837658355	-0.7005573793	 1.1804134952	-0.095153
H	 0.8554515331	 2.0727683097	 0.1987548116	 0.111932
H	-0.3936838361	 1.8319211381	-1.0204373969	 0.105944
H	-0.8217584344	 1.9104241415	 0.6986898411	 0.131528
H	-1.4714963418	-0.4361471109	-1.391243715	 0.11421
H	-1.1068699825	-1.7735633207	-0.2903411626	 0.111887
H	-2.0636039456	-0.395923674	 0.2758421452	 0.12091
H	 1.3091636772	-1.5360076024	-0.9762362373	 0.083764
H	 3.4971640593	-0.5531777477	 0.026103516	 0.109351
H	 2.7424036441	 1.0205392329	-0.2798686921	 0.105263
H	 2.7041690634	-0.706244456	 2.2111658252	 0.10513
H	 2.9896616532	 1.7833718673	 2.5438321945	 0.068948
H	 0.2927611849	-1.4945996564	 1.7305762193	 0.085453
83.7231	112.1364	155.6109	210.7414	236.0086	268.4717	300.5542	343.4343	360.2474	429.3559	479.5583	627.2316	673.9433	725.4348	802.8504	839.2895	854.636	908.0708	954.8339	966.4855	997.2374	1002.9342	1016.2487	1039.8562	1057.8273	1061.2816	1093.0571	1137.681	1163.5562	1204.0132	1233.6659	1258.7163	1280.7515	1296.1677	1345.3609	1405.3618	1416.3931	1421.316	1429.2688	1477.8617	1487.1562	1498.316	1506.1081	1511.9239	1824.9301	2836.6978	3020.0789	3024.8886	3032.8481	3053.4848	3088.2073	3095.2815	3099.8177	3113.4892	3128.1942	3169.3872	3180.4126
CC1(C)C2CC(C=O)C12	CC1(C)[C@H]2C[C@@H](C=O)[C@@H]12	
InChI=1S/C8H12O/c1-8(2)6-3-5(4-9)7(6)8/h4-7H,3H2,1-2H3	InChI=1S/C8H12O/c1-8(2)6-3-5(4-9)7(6)8/h4-7H,3H2,1-2H3/t5-,6-,7+/m0/s1
