15
gdb 35592	3.44338	1.10224	0.95064	2.3392	81.01	-0.2336	-0.0287	0.2049	1227.2498	0.111983	-379.608712	-379.600357	-379.599413	-379.64189	31.267	
C	 0.3198257444	-1.1474361772	 0.0639559779	-0.479803
C	 0.12780471	 0.0390977379	 0.0361976994	 0.340976
C	-0.0941598516	 1.4831233876	-0.001679086	-0.176891
C	-0.6672509179	 2.0699926154	 1.3375790163	-0.182878
N	 0.4660773614	 2.6824206699	 2.0345283152	-0.297134
C	 1.4291076953	 2.7247242199	 1.1901342302	 0.232126
N	 1.1648860417	 2.2490300486	-0.1005865611	-0.348054
C	 2.7208323038	 3.2640594785	 1.467002644	 0.259412
C	 3.8254511729	 3.6959277409	 1.6617587431	-0.374551
H	 0.4847450998	-2.1963894758	 0.0926518517	 0.206303
H	-0.746601824	 1.7250187841	-0.8462457022	 0.114905
H	-1.4190551514	 2.8394168838	 1.122826697	 0.120914
H	-1.1389584019	 1.3026519165	 1.9553800592	 0.128273
H	 1.931039279	 1.8071015405	-0.5905565357	 0.250431
H	 4.7944612885	 4.0869656993	 1.853702141	 0.20597
66.898	135.954	163.5957	191.1449	245.7616	381.4484	447.6438	495.1905	543.0994	602.6906	615.3893	626.9031	648.9438	663.9155	665.5269	725.7972	804.5398	816.9232	948.5373	997.2572	1023.7976	1037.9499	1076.8254	1212.3933	1231.6915	1254.1002	1327.1254	1359.9724	1426.0596	1487.0474	1670.6368	2231.7553	2245.3282	3030.4952	3056.6487	3102.4368	3500.1247	3501.7046	3591.7141
C#CC1CN=C(N1)C#C	C#C[C@H]1C[N][C](N1)C#C	
InChI=1S/C7H6N2/c1-3-6-5-8-7(4-2)9-6/h1-2,6H,5H2,(H,8,9)	InChI=1S/C7H6N2/c1-3-6-5-8-7(4-2)9-6/h1-2,6H,5H2,(H,8,9)/t6-/m0/s1
