17
gdb 33027	4.71581	0.87773	0.78662	1.3934	77.89	-0.2461	-0.0507	0.1954	1421.796	0.137927	-418.050501	-418.042341	-418.041396	-418.084328	29.573	
O	 0.1216287965	 1.42510827	 0.1910500423	-0.412975
C	 0.0533961569	 0.0124472769	 0.2378461286	-0.055757
C	-1.3439452516	-0.5225346006	-0.1293334992	-0.30591
C	-1.3989551019	-2.0249359234	-0.0733883473	 0.302582
C	-2.0309722282	-2.7095800586	 0.9713451879	-0.057071
N	-2.0635975643	-4.0393260691	 1.049016457	-0.230974
C	-1.4501796344	-4.6996392537	 0.0654162221	-0.012054
C	-0.8163071225	-4.0315282978	-0.9788916692	-0.020202
N	-0.7866698539	-2.7013626932	-1.0551540075	-0.290232
H	 0.0258581404	 1.6954963611	-0.7278058745	 0.284117
H	 0.8011985622	-0.4591162188	-0.4157279325	 0.10994
H	 0.2964698462	-0.2654126732	 1.2689961006	 0.115464
H	-2.0824465368	-0.0821301489	 0.5474700697	 0.114442
H	-1.585992929	-0.1995431625	-1.1489034298	 0.11113
H	-2.5297743002	-2.1593609406	 1.7660774024	 0.114155
H	-1.4661296931	-5.7854064945	 0.1088955156	 0.117232
H	-0.3228842064	-4.582883723	-1.775691826	 0.116112
47.9302	99.2247	105.0793	255.0671	304.8557	345.8042	363.2325	423.4787	523.1165	618.7233	676.6847	784.4132	796.7552	855.3839	881.1763	970.121	994.5107	1016.7539	1024.9752	1043.9712	1076.1498	1083.7103	1145.4919	1208.4985	1239.1683	1251.7129	1300.9876	1315.0408	1343.0651	1394.1669	1414.1458	1436.199	1479.1097	1506.6921	1511.7071	1579.2073	1616.1925	3005.7685	3036.1161	3072.3228	3098.9668	3153.1315	3154.0318	3173.976	3816.0959
OCCC1=CN=CC=N1	OCCc1cnccn1	
InChI=1S/C6H8N2O/c9-4-1-6-5-7-2-3-8-6/h2-3,5,9H,1,4H2	InChI=1S/C6H8N2O/c9-4-1-6-5-7-2-3-8-6/h2-3,5,9H,1,4H2
