19
gdb 105037	1.99295	1.48071	1.36768	2.0949	71.47	-0.2533	-0.0422	0.211	1094.9845	0.157895	-460.14633	-460.13709	-460.136146	-460.180269	34.43	
O	 0.3680243476	-0.0522059979	 1.5386254797	-0.435761
C	-0.0670325828	-1.0137834569	 0.5839260883	-0.15322
C	-1.4389046049	-0.6946427318	 0.0021392494	 0.306876
C	-1.5540056046	-0.2596133439	-1.4412117326	-0.295811
C	-1.9656739427	-1.6507522143	-1.0416909157	-0.320266
C	-2.4171282555	-0.0677637784	 0.9866879579	-0.03067
O	-2.3217837145	-0.5917558565	 2.3074357178	-0.438792
C	-2.2719006292	 1.4501994778	 1.1474293172	 0.138435
O	-1.3114591742	 2.1077690389	 0.8227867144	-0.262076
H	 0.2353136168	 0.8247308903	 1.147532638	 0.300689
H	 0.6641166679	-1.1310399255	-0.2298678671	 0.097999
H	-0.1062801273	-1.9640244614	 1.1268042255	 0.120693
H	-2.3325875092	 0.4501387444	-1.7022088298	 0.114907
H	-0.6370556367	-0.1316388681	-2.0067553312	 0.119104
H	-1.3244391987	-2.4768907527	-1.3327170874	 0.117984
H	-3.0222627577	-1.8966384144	-1.0258337832	 0.118077
H	-3.4477249755	-0.2598932673	 0.66180209	 0.096929
H	-1.4020001803	-0.4314837198	 2.575864698	 0.300822
H	-3.1262195085	 1.9191725175	 1.6806360508	 0.104084
91.8691	99.781	142.9521	192.272	226.4656	272.6248	304.2311	318.332	368.4709	485.1193	487.6094	606.4789	656.7334	717.6586	771.7068	788.4649	843.0314	939.8389	949.5003	968.6326	979.9173	1034.546	1045.1151	1062.8667	1074.4627	1079.1048	1088.3998	1187.6464	1227.2964	1252.6365	1300.1598	1325.1786	1346.7537	1395.265	1415.4164	1447.7218	1454.2964	1467.7542	1500.3241	1513.4903	1808.8341	2912.4911	2991.6968	3032.1741	3068.569	3125.3316	3129.4003	3202.3916	3216.9621	3678.9938	3710.9737
OCC1(CC1)C(O)C=O	OCC1(CC1)[C@@H](O)C=O	
InChI=1S/C6H10O3/c7-3-5(9)6(4-8)1-2-6/h3,5,8-9H,1-2,4H2	InChI=1S/C6H10O3/c7-3-5(9)6(4-8)1-2-6/h3,5,8-9H,1-2,4H2/t5-/m0/s1
