16
gdb 20112	3.99979	1.4425	1.25085	2.1136	66.31	-0.2493	-0.028	0.2213	996.6044	0.129784	-383.720281	-383.712621	-383.711677	-383.752975	27.658	
O	 0.6606296658	 0.6863176623	-1.8724793418	-0.343212
C	 0.2268662113	 1.3849132024	-0.9777362168	 0.36663
C	 0.9779178865	 1.6656127061	 0.2728578364	-0.121064
C	 1.8260424386	 0.531708391	 0.8407390187	-0.25337
C	 2.4970357468	 1.678360615	 0.171956394	-0.25006
C	-1.1457126131	 1.9889938501	-1.1203823787	-0.012674
C	-2.1477053081	 1.8430311237	-0.044319334	-0.177981
O	-1.5012965965	 3.0857820828	-0.2741009645	-0.217315
H	 0.5138468079	 2.3564565016	 0.9643677007	 0.11044
H	 1.8731002425	 0.4479975298	 1.9203910494	 0.120009
H	 1.7789480453	-0.4056621813	 0.2982380924	 0.138071
H	 2.8982315791	 1.5117807834	-0.8210987249	 0.141018
H	 3.0204440728	 2.4094067747	 0.7768781492	 0.121533
H	-1.4933583217	 2.0515888385	-2.1496897264	 0.117704
H	-3.201246021	 1.7985447624	-0.3144191866	 0.132432
H	-1.8744881961	 1.3333928273	 0.8782318028	 0.12784
61.2172	94.4673	176.3582	228.0385	274.0278	303.4944	479.4813	558.3568	738.6834	743.9391	807.667	830.3657	868.9444	886.5187	894.8797	934.5585	970.1627	1063.7488	1087.7231	1095.9294	1107.0785	1139.0411	1150.9907	1165.2986	1199.8248	1211.6673	1220.9591	1261.7003	1384.0323	1414.7322	1454.7033	1486.5504	1519.7792	1779.6978	3089.6885	3140.7091	3142.1243	3143.7951	3181.4989	3203.1043	3228.7394	3244.0992
O=C(C1CC1)C1CO1	O=C(C1CC1)[C@H]1CO1	
InChI=1S/C6H8O2/c7-6(4-1-2-4)5-3-8-5/h4-5H,1-3H2	InChI=1S/C6H8O2/c7-6(4-1-2-4)5-3-8-5/h4-5H,1-3H2/t5-/m1/s1
