20
gdb 62045	3.5805	0.74966	0.65148	4.5725	81.22	-0.2742	0.0207	0.2949	1729.5967	0.169118	-403.137317	-403.127312	-403.126368	-403.173995	35.323	
C	-0.0531642111	 1.5305901589	-0.1814339299	-0.395563
C	-0.0415217997	 0.0181374267	 0.0843623341	-0.003979
O	-1.3432159679	-0.53158436	 0.1433032691	-0.253614
C	-1.9347372269	-0.4875662825	 1.4382959895	-0.080438
C	-3.3273833406	-1.041853802	 1.3480107729	 0.009214
C	-3.5428338593	-2.5323107124	 1.3644736926	-0.2455
C	-3.9385772856	-1.7031374187	 2.5591674048	-0.274025
C	 0.6885861841	-0.6904501082	-0.9834467695	 0.280695
N	 1.2850202414	-1.2226506897	-1.8168939123	-0.317304
H	 0.9670464978	 1.9181648854	-0.2492641337	 0.138369
H	-0.5751379641	 1.7392491578	-1.1178605343	 0.148207
H	-0.5662727272	 2.0475527296	 0.6333800429	 0.129384
H	 0.4979219965	-0.1828159618	 1.0240444467	 0.114875
H	-1.3327416227	-1.0838347005	 2.1440346722	 0.091426
H	-1.9572857863	 0.5463816347	 1.816508083	 0.09487
H	-3.9946565292	-0.4596815909	 0.7197647021	 0.094299
H	-4.3256771824	-2.9414266414	 0.7364174947	 0.118938
H	-2.6668180521	-3.1660228753	 1.4515624724	 0.119302
H	-3.3333396271	-1.7824025536	 3.4564408263	 0.113193
H	-4.9924140474	-1.537371026	 2.7512016364	 0.117652
29.9018	46.805	107.5852	122.0314	192.9493	220.5397	245.1156	307.8353	390.264	394.9996	427.8575	569.8632	593.4118	774.1166	810.6147	826.6892	851.4319	904.3247	928.5106	961.2379	1026.8341	1056.8608	1064.854	1081.3306	1089.659	1114.6498	1134.5629	1146.7919	1196.4135	1199.5126	1228.2436	1281.5457	1337.0402	1351.076	1390.0078	1404.1446	1450.7745	1471.2767	1485.881	1491.8042	1505.4207	1517.5082	2365.9369	2963.0747	2980.4163	2999.3809	3052.1594	3127.9938	3133.7082	3139.9181	3140.8341	3157.1083	3213.0473	3228.4404
CC(OCC1CC1)C#N	C[C@@H](OCC1CC1)C#N	
InChI=1S/C7H11NO/c1-6(4-8)9-5-7-2-3-7/h6-7H,2-3,5H2,1H3	InChI=1S/C7H11NO/c1-6(4-8)9-5-7-2-3-7/h6-7H,2-3,5H2,1H3/t6-/m1/s1
