15
gdb 17421	3.05491	2.66025	1.81804	2.412	64.39	-0.2328	-0.0068	0.2261	752.5419	0.118797	-362.614712	-362.608035	-362.607091	-362.645325	25.654	
C	 0.0122378224	 1.5965149303	 0.0234473768	-0.509916
C	 0.013281604	 0.0966890252	 0.0817648881	 0.148079
C	-1.2367240322	-0.7880202653	 0.2369564098	-0.188704
N	-0.3801126606	-1.8814677964	 0.83362225	-0.135754
C	 0.8808665935	-1.8911275097	 0.0199296892	-0.176439
C	 0.6647911612	-0.8987392093	 1.139297948	-0.092531
C	 0.8315362	-0.7361950146	-0.935715421	 0.41888
O	 1.4003270682	-0.4568654988	-1.9529069905	-0.33788
H	 1.0318786691	 1.9912918976	-0.0230324489	 0.13597
H	-0.5103900842	 1.9358538161	-0.8772086094	 0.139764
H	-0.4904937988	 2.0342182744	 0.8916254088	 0.123269
H	-1.9280113116	-0.4465449805	 1.0117592705	 0.118239
H	-1.7901069789	-1.0670346003	-0.667205571	 0.113158
H	 1.4630830427	-2.8018506109	 0.0070519965	 0.12287
H	 1.2005396152	-0.7878712077	 2.071985493	 0.120996
146.9689	179.249	220.835	289.688	411.9058	473.454	619.3996	651.7022	746.0711	763.3255	769.206	829.1996	841.739	883.6798	920.412	965.3617	981.7834	1022.8222	1072.1717	1134.0007	1138.9468	1159.4747	1190.9293	1213.2877	1254.4147	1291.3272	1364.6141	1416.5215	1485.7458	1489.3433	1508.8708	1879.7706	3035.0053	3038.476	3103.1622	3104.6291	3108.0965	3213.5966	3226.6905
CC12CN3C(C13)C2=O	C[C@]12CN3[C@H]([C@@H]13)C2=O	
InChI=1S/C6H7NO/c1-6-2-7-3(4(6)7)5(6)8/h3-4H,2H2,1H3	InChI=1S/C6H7NO/c1-6-2-7-3(4(6)7)5(6)8/h3-4H,2H2,1H3/t3-,4+,6+,7?/m1/s1
