17
gdb 65989	2.3924	1.48877	1.32915	4.0904	67.51	-0.2689	0.0056	0.2745	1045.9161	0.134764	-458.961506	-458.952962	-458.952018	-458.995172	30.833	
C	 0.2170196254	 1.6248505248	-0.4717833076	-0.454239
C	-0.0463489485	 0.1619304983	-0.1137489173	 0.053165
C	 0.8118456605	-0.8996261288	-0.842302589	-0.117719
O	 1.4598176333	-1.2624199717	 0.4176667095	-0.241524
C	 0.7276292192	-0.3388319219	 1.1199733475	 0.446105
O	 0.7777608046	-0.1070312497	 2.2845102731	-0.331755
C	-1.534579651	-0.1381086648	-0.1097090713	 0.029929
C	-2.2336815125	-0.8353519518	 0.9796128744	-0.185128
O	-2.328849941	 0.5840032111	 0.820889381	-0.22868
H	 1.2880905829	 1.8465658673	-0.4844540286	 0.129392
H	-0.1947966958	 1.8591943008	-1.4592088666	 0.124236
H	-0.2649630643	 2.2732515358	 0.2636159113	 0.161853
H	 0.2748280972	-1.7549154372	-1.2592899628	 0.124476
H	 1.5424091556	-0.5166739098	-1.5579963793	 0.126127
H	-1.9654047578	-0.1943990271	-1.112992716	 0.099844
H	-3.1440784878	-1.390848319	 0.7601364967	 0.118983
H	-1.6800781401	-1.1623130163	 1.8563916848	 0.144935
59.1873	119.8223	147.6214	217.3918	221.23	239.3472	329.3161	407.1655	451.992	535.4617	692.2253	746.8656	779.4782	851.4094	879.1541	905.6267	945.6052	969.1613	991.9822	1023.6769	1097.1276	1106.0278	1156.9194	1167.6072	1174.8562	1178.7428	1215.714	1260.8249	1302.2249	1354.5096	1405.3059	1427.5198	1490.5464	1496.6714	1515.8027	1526.9515	1931.4911	3038.759	3065.6713	3072.1472	3096.0667	3108.0736	3127.3232	3133.2668	3190.8219
CC1(COC1=O)C1CO1	C[C@]1(COC1=O)[C@H]1CO1	
InChI=1S/C6H8O3/c1-6(4-2-8-4)3-9-5(6)7/h4H,2-3H2,1H3	InChI=1S/C6H8O3/c1-6(4-2-8-4)3-9-5(6)7/h4H,2-3H2,1H3/t4-,6+/m1/s1
