18
gdb 36619	5.53383	0.75721	0.72678	4.3225	76.98	-0.2635	0.0348	0.2982	1541.4622	0.147218	-401.931368	-401.922771	-401.921827	-401.965564	31.418	
N	-0.0108750993	-1.1898499506	 0.2322993987	-0.303753
C	 0.0103103348	-0.03452486	 0.2195531455	 0.256246
C	 0.0616408177	 1.424345017	 0.1916626849	-0.336704
C	 1.436977705	 1.9583658104	-0.2727686948	-0.324935
C	 1.452297777	 3.4543027318	-0.2972847621	 0.435943
C	 0.8248046467	 4.420858753	-1.3236494736	-0.294607
C	 1.9316549764	 5.466826572	-0.9426738333	-0.23535
C	 2.4823750649	 4.4464685886	 0.061252938	-0.049889
O	 1.4156187685	 4.1339094251	 0.9692417482	-0.293595
H	-0.731957782	 1.7880322194	-0.470955695	 0.155221
H	-0.1579121192	 1.8092588773	 1.1930521383	 0.172786
H	 2.2121857337	 1.5984067723	 0.4100140728	 0.134364
H	 1.6658450051	 1.5658620121	-1.2690781039	 0.126503
H	 0.9165284281	 4.07386195	-2.355878423	 0.110422
H	-0.2109606885	 4.7044095043	-1.1231378407	 0.11161
H	 2.6149420294	 5.6729182755	-1.7695056407	 0.111156
H	 1.5924297194	 6.4073894998	-0.5036599024	 0.117442
H	 3.4939080923	 4.317136182	 0.4301860431	 0.10714
58.1304	81.7538	100.1991	194.1705	250.9937	317.393	400.2122	404.0687	492.3275	521.8754	710.2994	729.0465	766.5072	775.9385	876.9468	911.1602	921.9	951.3827	968.7226	981.169	1010.9758	1043.9808	1068.4487	1140.1239	1164.9827	1212.4845	1219.2746	1229.1212	1256.7708	1280.5313	1293.248	1327.861	1372.5468	1450.4548	1463.5058	1468.0826	1481.8656	1493.6211	2363.0659	3045.9614	3055.664	3064.2454	3073.8072	3085.5489	3107.4586	3116.6913	3134.1113	3182.4911
N#CCCC12CCC1O2	N#CCC[C@]12CC[C@H]1O2	
InChI=1S/C7H9NO/c8-5-1-3-7-4-2-6(7)9-7/h6H,1-4H2	InChI=1S/C7H9NO/c8-5-1-3-7-4-2-6(7)9-7/h6H,1-4H2/t6-,7+/m1/s1
