21
gdb 61071	2.84806	1.05565	0.81954	3.1478	78.81	-0.2493	-0.0243	0.225	1413.2809	0.181843	-424.241522	-424.231833	-424.230889	-424.27781	34.186	
C	 0.0354726581	 1.5703448267	 0.0502750695	-0.416075
C	 0.0243916267	 0.0313122173	 0.0138126717	-0.086825
C	 0.7618289373	-0.4904978833	 1.2334087027	 0.167777
O	 1.7578598373	-1.165695141	 1.2109816877	-0.253289
C	-1.4034802134	-0.542700304	-0.0072577793	 0.019525
C	-2.2469144175	-0.1480928975	-1.2442593614	-0.269352
C	-3.1174628585	-1.4033939194	-1.5131790729	-0.075542
O	-2.7889924899	-2.3626937805	-0.5126832685	-0.24703
C	-1.4769848129	-2.0784116722	-0.0672580446	-0.104
H	 1.058537491	 1.957742741	 0.0356976632	 0.131052
H	-0.4941910148	 1.9817109122	-0.8130063036	 0.131469
H	-0.4559183963	 1.9472699561	 0.954608433	 0.122664
H	 0.5719142083	-0.3246245578	-0.8668062	 0.093381
H	 0.297173266	-0.1865162669	 2.2034824905	 0.069295
H	-1.9294779031	-0.2163342525	 0.8992613232	 0.081545
H	-2.8514802203	 0.7433754975	-1.0648596866	 0.112453
H	-1.5989266621	 0.0625818468	-2.1011235947	 0.107593
H	-4.1911128618	-1.2064027092	-1.4412708215	 0.109657
H	-2.9142517554	-1.8108387594	-2.5144413932	 0.095371
H	-0.7183441566	-2.4720176362	-0.7666669323	 0.094042
H	-1.3354118322	-2.5705990076	 0.898879087	 0.116288
32.4488	50.4141	80.1004	171.2444	174.6499	220.2639	289.6716	303.7095	373.4405	427.6899	496.3122	638.9738	699.2001	815.8563	870.6022	893.9355	939.3636	947.9443	967.9834	979.407	1003.2313	1036.508	1082.8871	1120.7646	1131.9015	1159.7816	1166.3015	1226.8999	1234.035	1263.5315	1281.7749	1303.2461	1310.9319	1332.5254	1363.2013	1379.3643	1405.1548	1410.5323	1428.6111	1496.5304	1497.1404	1501.8444	1508.9026	1529.5135	1834.2799	2833.6022	2953.5655	2993.203	3020.5604	3034.7468	3049.2604	3055.1566	3074.5854	3090.1353	3103.4859	3110.0416	3118.7654
CC(C=O)C1CCOC1	C[C@@H](C=O)[C@H]1CCOC1	
InChI=1S/C7H12O2/c1-6(4-8)7-2-3-9-5-7/h4,6-7H,2-3,5H2,1H3	InChI=1S/C7H12O2/c1-6(4-8)7-2-3-9-5-7/h4,6-7H,2-3,5H2,1H3/t6-,7-/m0/s1
