16
gdb 67003	2.5867	2.0859	1.41561	3.4006	67.42	-0.2456	0.0092	0.2548	911.1503	0.126504	-437.890628	-437.883662	-437.882718	-437.921752	27.877	
N	-0.0651981873	 1.3709459247	-0.1844173083	-0.598176
C	 0.001106704	-0.0486755345	-0.0504872713	 0.152547
C	-0.4405996866	-0.8557280826	-1.286816574	-0.079184
C	-0.0950270576	-2.3348414952	-1.148435815	-0.259909
C	-0.5843613969	-2.2346621795	 0.3268920942	 0.062344
O	 0.541391796	-1.9549520778	 1.1802388216	-0.229866
C	 0.9783072066	-0.691756641	 0.8995216457	 0.387035
O	 1.9486093112	-0.2020448989	 1.4045778918	-0.357671
C	-1.2568300216	-0.8775760698	-0.0150546455	-0.116691
H	-0.1416373919	 1.8018820971	 0.7328198197	 0.242362
H	 0.8044193448	 1.7153939275	-0.5822363012	 0.245386
H	-0.6347334218	-0.2977946211	-2.1936829714	 0.108326
H	-0.7688537213	-2.9519290316	-1.7484049524	 0.116153
H	 0.9388997618	-2.6637054596	-1.289728757	 0.114317
H	-1.1513669763	-3.0518359379	 0.7643581598	 0.103993
H	-2.2435701831	-0.5062578498	 0.2235474034	 0.109033
142.2485	199.7391	277.9518	305.5741	360.085	441.0089	494.9338	595.0824	670.5494	673.8337	739.4627	827.3179	834.4828	867.3384	878.9348	899.0763	929.9598	963.8059	976.1041	1003.2521	1038.4382	1081.4419	1103.1747	1124.7005	1183.4572	1203.4389	1246.794	1262.7106	1298.8567	1304.5225	1352.1594	1416.4888	1488.6357	1670.6103	1873.7141	3053.6713	3112.4993	3158.7936	3203.6175	3219.5911	3491.8684	3559.0887
NC12C3CC(OC1=O)C23	N[C@@]12[C@H]3C[C@@H](OC1=O)[C@@H]23	
InChI=1S/C6H7NO2/c7-6-2-1-3(4(2)6)9-5(6)8/h2-4H,1,7H2	InChI=1S/C6H7NO2/c7-6-2-1-3(4(2)6)9-5(6)8/h2-4H,1,7H2/t2-,3+,4-,6+/m0/s1
