22
gdb 108365	2.35112	1.5143	1.14557	2.0792	82.04	-0.2302	0.0766	0.3068	1177.9577	0.193573	-404.306606	-404.297133	-404.296189	-404.340323	36.705	
C	-0.0180222818	 1.5031299963	-0.1791044333	-0.473584
C	 0.0115395507	 0.0156426426	 0.1252029247	 0.282425
C	-1.2116849005	-0.6988822806	-0.4259294633	-0.449078
N	 1.2340292863	-0.8132702088	-0.0654828376	-0.229404
C	 2.4321811509	 0.0146011826	 0.3134149396	-0.156145
C	 1.9170624897	 0.2317649315	 1.7547162588	-0.309574
C	 0.6627313793	-0.5471039853	 1.3400796188	 0.259391
C	 0.1537889213	-1.6882832602	 2.1811457565	-0.16325
O	 1.1462321366	-2.6949113875	 2.3234226501	-0.421129
H	 0.7717420264	 2.0733711089	 0.3104106716	 0.123447
H	 0.0607556194	 1.6697193903	-1.2595612556	 0.124888
H	-0.9754349991	 1.9222924147	 0.1477815288	 0.12257
H	-1.3508159264	-0.4294313373	-1.4784379887	 0.11872
H	-1.1001932011	-1.782877748	-0.3777832029	 0.128542
H	-2.1184566392	-0.4105012333	 0.1172577309	 0.113942
H	 3.3308486937	-0.6027691231	 0.2561116819	 0.10929
H	 2.5793477128	 0.8991833932	-0.3132522274	 0.10414
H	 2.4984541392	-0.3251572976	 2.4909038947	 0.125151
H	 1.7757400858	 1.2554474292	 2.1126286132	 0.099489
H	-0.0650685575	-1.3277570481	 3.193440474	 0.109149
H	-0.7771469925	-2.1032076603	 1.7730035602	 0.091453
H	 1.4416367061	-2.893993399	 1.4259295251	 0.289566
76.3657	140.5599	179.4036	203.7658	253.9277	277.9349	327.711	346.3717	358.529	381.8298	463.8247	502.7812	549.3799	632.7805	680.9979	751.8936	803.97	831.4226	914.9894	952.2866	964.2581	973.7817	995.9476	1033.7668	1053.9334	1063.5905	1134.2434	1149.083	1161.6071	1186.4461	1224.4554	1240.5344	1259.0939	1295.3976	1319.5961	1365.0322	1408.962	1418.9068	1421.602	1437.4396	1476.0244	1481.5352	1488.6164	1504.084	1509.2943	1513.7241	1518.0647	3014.7745	3033.597	3038.9754	3055.3132	3060.2946	3062.0078	3091.7505	3096.2269	3104.8195	3128.093	3138.4651	3139.7087	3774.9597
CC1(C)N2CCC12CO	CC1(C)N2CC[C@@]12CO	
InChI=1S/C7H13NO/c1-6(2)7(5-9)3-4-8(6)7/h9H,3-5H2,1-2H3	InChI=1S/C7H13NO/c1-6(2)7(5-9)3-4-8(6)7/h9H,3-5H2,1-2H3/t7-,8?/m1/s1
