13
gdb 25051	5.83301	1.03925	0.88209	5.1537	79.53	-0.2335	-0.068	0.1654	1205.2825	0.090535	-415.640804	-415.633488	-415.632544	-415.672792	27.55	
O	-0.0282250372	-0.0735126875	 0.0034881489	-0.370893
C	 0.0272497026	 1.1335779219	 0.0088943694	 0.454626
N	-1.182101968	 1.8835050725	 0.0288419074	-0.333457
C	-1.2485751456	 3.2274733277	 0.0364224172	-0.025603
C	-0.0892768417	 3.9615001296	 0.0244991103	 0.032489
C	 1.1207925184	 3.184450843	 0.0043391854	-0.023855
N	 1.1932671625	 1.8869272225	-0.0030961539	-0.312435
C	-0.0750214708	 5.3779261129	 0.0313567804	 0.224063
C	-0.0336046484	 6.5815590208	 0.0367881801	-0.412977
H	-2.0235583387	 1.3234516559	 0.0373466367	 0.277602
H	-2.2339438275	 3.6780956189	 0.0519022362	 0.154939
H	 2.0660738472	 3.7271752042	-0.0056814061	 0.134732
H	-0.0019073828	 7.6430252276	 0.0416420781	 0.200769
80.6027	142.8513	200.234	395.8348	439.8267	446.7956	466.6795	516.5636	535.6783	568.0456	655.416	674.5544	721.342	741.2615	811.7364	831.6274	945.0564	1009.4908	1010.1054	1082.1147	1217.6317	1256.3804	1351.3201	1426.6144	1471.0742	1552.9049	1684.9257	1821.8113	2229.9043	3134.3081	3209.3893	3502.1864	3606.2206
O=C1NC=C(C=N1)C#C	O=c1[nH]cc(cn1)C#C	
InChI=1S/C6H4N2O/c1-2-5-3-7-6(9)8-4-5/h1,3-4H,(H,7,8,9)	InChI=1S/C6H4N2O/c1-2-5-3-7-6(9)8-4-5/h1,3-4H,(H,7,8,9)
