20
gdb 54915	3.62453	0.94883	0.85869	4.302	76.37	-0.2426	0.0306	0.2732	1395.9432	0.169099	-440.316222	-440.306127	-440.305183	-440.352199	37.105	
C	-0.201639274	 1.5192771101	-0.030327244	-0.449059
C	-0.0555385023	 0.0006466353	-0.0644578086	 0.416162
O	-1.2737914955	-0.6160588341	-0.4299652681	-0.472616
C	 1.2293507456	-0.4869330433	-0.8011105947	-0.284003
C	 1.9344966318	-0.6265933109	 0.5797466292	-0.096115
C	 0.5204242038	-0.6068440443	 1.2356647901	-0.261099
C	 2.7388467101	-1.8968692612	 0.7856088605	 0.409308
N	 3.9920132939	-1.7253608303	 1.2997030077	-0.533782
O	 2.2962399329	-2.9962788728	 0.507739653	-0.370165
H	 0.7202196539	 2.0084738673	 0.3004927144	 0.115604
H	-0.4369456492	 1.9079032154	-1.0295520655	 0.105844
H	-1.0095496605	 1.8069894749	 0.6496811366	 0.124602
H	-1.6021316541	-0.1893961202	-1.2289427149	 0.27221
H	 1.0623678966	-1.4785253375	-1.2268183733	 0.132937
H	 1.6875660761	 0.1745023974	-1.5414766197	 0.087614
H	 2.5144788523	 0.2646993015	 0.8349743541	 0.05519
H	 0.3930170013	-0.046005892	 2.1647823927	 0.093614
H	 0.1549909301	-1.6283291691	 1.3582118455	 0.138316
H	 4.3443918312	-0.8259581767	 1.5736757213	 0.256353
H	 4.5477815161	-2.5437435696	 1.4878579839	 0.259086
20.5141	81.3584	123.6489	179.6393	243.6297	258.9602	260.6425	305.9497	330.0069	415.6797	437.4492	449.9132	587.5732	605.8299	616.0741	731.0054	760.0873	836.0234	861.0155	905.1981	939.6703	979.0544	996.4069	1014.5089	1052.3395	1075.5744	1128.0887	1158.9246	1187.3032	1231.1172	1251.592	1268.9476	1279.1967	1300.45	1375.8811	1407.4176	1416.4983	1460.8121	1482.4668	1490.7236	1498.862	1615.3672	1790.7929	3019.2689	3056.7849	3060.6545	3067.3737	3085.5208	3108.696	3131.81	3136.869	3603.0772	3742.5579	3801.1647
CC1(O)CC(C1)C(N)=O	C[C@@]1(O)C[C@@H](C1)C(=O)N	
InChI=1S/C6H11NO2/c1-6(9)2-4(3-6)5(7)8/h4,9H,2-3H2,1H3,(H2,7,8)	InChI=1S/C6H11NO2/c1-6(9)2-4(3-6)5(7)8/h4,9H,2-3H2,1H3,(H2,7,8)/t4-,6+
