15
gdb 126071	3.88147	1.07731	1.04527	2.8581	67.34	-0.2671	-0.0454	0.2217	1167.4649	0.111633	-453.901413	-453.893647	-453.892703	-453.934507	28.141	
C	 1.0432456131	 1.1022934314	-0.6414611196	-0.427184
C	 0.0538008231	 0.1574296539	-0.0179355678	 0.092598
O	 0.5457848199	-1.0927623085	 0.4806574298	-0.254112
C	 0.0023906849	-0.1702870239	 1.4256813184	-0.07393
C	 0.9528479817	 0.3583820477	 2.4205904453	 0.251215
C	 2.288812267	 0.1587936802	 2.5780639849	-0.040853
O	 2.7027796791	 0.8279917636	 3.6501068107	-0.1608
N	 1.5457550924	 1.4743598833	 4.1894220336	 0.000671
N	 0.565968051	 1.1784968855	 3.4608069559	-0.185668
H	 1.9247636885	 1.2385706338	-0.0112627805	 0.126814
H	 1.3691567329	 0.7194757905	-1.6138214747	 0.136702
H	 0.5774668206	 2.0798733354	-0.8033313035	 0.133574
H	-0.8921054752	 0.0601074083	-0.5539870817	 0.102605
H	-0.9662949165	-0.4467477987	 1.842743425	 0.114947
H	 3.0138770077	-0.4203139125	 2.0320689643	 0.183422
55.2013	123.0508	159.4093	205.5935	289.6937	388.0479	432.3349	524.3695	623.656	644.0564	692.4774	752.203	799.4769	861.3303	868.6652	974.7518	994.459	1018.9157	1059.0497	1089.9419	1142.8306	1157.5361	1167.8474	1238.8278	1279.819	1322.1403	1392.1857	1417.1276	1444.7813	1478.7073	1487.8412	1502.1028	1624.6664	3043.5614	3092.9326	3107.7887	3112.3482	3134.0503	3297.5633
CC1OC1C1=CON=N1	C[C@H]1O[C@H]1c1conn1	
InChI=1S/C5H6N2O2/c1-3-5(9-3)4-2-8-7-6-4/h2-3,5H,1H3	InChI=1S/C5H6N2O2/c1-3-5(9-3)4-2-8-7-6-4/h2-3,5H,1H3/t3-,5-/m1/s1
