17
gdb 38652	2.81796	2.17957	1.53719	1.0573	70.6	-0.2229	0.0162	0.2392	868.1634	0.139952	-417.968188	-417.961929	-417.960985	-417.998864	25.586	
C	 0.1444018004	 1.4773315672	 0.3828748922	-0.207609
C	 1.5848998191	 1.467543006	-0.19556179	 0.107069
O	 2.6502103345	 1.7549022351	 0.7068447658	-0.234533
C	 3.0406727285	 0.7679160602	 1.5513668979	 0.124137
N	 2.6910918084	-0.4467866936	 1.6010442666	-0.270625
C	 1.7521665801	-0.9502634615	 0.6202861623	-0.001788
C	 0.2513531465	-0.9167300693	 1.041888617	-0.178892
N	-0.0904042696	 0.058667712	-0.0440270845	-0.135921
C	 1.3482157499	-0.0107311222	-0.5402956385	-0.051888
H	 0.0876356855	 1.6451229366	 1.4635730877	 0.114282
H	-0.5333054311	 2.1732313411	-0.1191583448	 0.115298
H	 1.7392589713	 2.1325887466	-1.045347386	 0.102302
H	 3.7670343307	 1.1642667735	 2.258389425	 0.126703
H	 2.0959994769	-1.935539855	 0.2980888767	 0.092653
H	-0.2708261338	-1.8659998792	 0.8952823289	 0.111607
H	 0.0599800039	-0.5561516806	 2.0574031567	 0.110125
H	 1.5314456089	-0.341819267	-1.5638793431	 0.077078
94.0519	280.3978	365.6184	405.2896	496.5667	531.8155	569.1465	666.7748	759.1961	768.9652	830.5009	842.7669	900.7703	941.474	960.4857	968.3991	985.2106	998.7494	1017.2144	1044.879	1113.6519	1122.5452	1174.1489	1177.1368	1208.7904	1216.2767	1237.2537	1268.822	1282.7982	1307.6657	1315.2928	1349.0682	1386.1904	1420.8533	1479.7902	1497.9881	1721.0991	3041.8068	3046.9001	3073.7238	3089.9734	3094.9284	3103.3408	3113.769	3159.9449
C1C2OC=NC3CN1C23	C1[C@H]2OC=N[C@H]3CN1[C@@H]23	
InChI=1S/C6H8N2O/c1-4-6-5(2-8(1)6)9-3-7-4/h3-6H,1-2H2	InChI=1S/C6H8N2O/c1-4-6-5(2-8(1)6)9-3-7-4/h3-6H,1-2H2/t4-,5+,6+/m0/s1
