18
gdb 54397	3.35993	1.38742	1.21302	3.3743	76.28	-0.2343	0.0029	0.2372	1061.0741	0.148863	-401.948411	-401.94053	-401.939585	-401.98131	31.111	
N	-0.0447800264	 1.3224524589	 0.1217395791	-0.531216
C	 0.0701350278	-0.038939519	 0.0170134429	 0.262293
O	 1.1456899747	-0.5979254981	-0.0812867259	-0.356565
C	-1.2401476836	-0.7851713532	 0.0323469998	 0.228144
C	-2.1198452885	-0.933512695	-1.2713035923	-0.248034
C	-2.743805635	-2.0945172446	-0.4254044977	-0.089432
C	-1.2829008878	-2.3470601822	 0.0898775051	-0.237092
C	-3.3191039087	-1.2963600182	 0.7533006447	-0.089503
C	-2.3440239141	-0.4340565465	 1.0509053573	-0.145035
H	 0.7864827285	 1.8730960277	-0.0228954399	 0.258864
H	-0.9370817325	 1.7781538473	 0.0358541422	 0.257509
H	-2.7694280444	-0.0955746301	-1.5362814876	 0.090288
H	-1.5437266838	-1.2787452912	-2.1348996542	 0.109004
H	-3.3505061431	-2.879056596	-0.8754015974	 0.065893
H	-0.6241769277	-2.8139747686	-0.6459883706	 0.11261
H	-1.1666591853	-2.809001404	 1.0719138413	 0.099788
H	-4.2841784133	-1.4395905804	 1.2183910381	 0.104515
H	-2.2774503966	 0.3161352534	 1.8259504952	 0.107969
33.5328	171.796	185.4056	275.0448	370.7858	421.9177	481.8657	529.8099	547.5115	562.3328	650.7916	699.3908	724.4669	758.3153	832.9179	847.6092	889.1561	907.5547	936.2717	940.0944	998.1079	1016.303	1048.7246	1067.7193	1084.2634	1101.2684	1162.7832	1165.6062	1193.7932	1224.7612	1229.3644	1262.8688	1327.1262	1383.567	1476.8143	1514.1502	1614.019	1623.2481	1792.6206	3049.3581	3070.492	3119.1738	3126.8382	3138.6637	3218.9621	3245.9431	3592.8147	3727.3503
NC(=O)C12CC(C1)C=C2	NC(=O)[C@@]12C[C@@H](C1)C=C2	
InChI=1S/C7H9NO/c8-6(9)7-2-1-5(3-7)4-7/h1-2,5H,3-4H2,(H2,8,9)	InChI=1S/C7H9NO/c8-6(9)7-2-1-5(3-7)4-7/h1-2,5H,3-4H2,(H2,8,9)/t5-,7-
