17
gdb 128512	3.23135	1.26016	0.92031	2.8719	73.25	-0.2013	0.018	0.2193	1254.5679	0.134806	-455.130621	-455.121036	-455.120092	-455.165505	33.362	
C	-0.0699098089	 1.3867365506	-0.0271525873	-0.251182
O	-0.0120843848	-0.0400771469	 0.0725648251	-0.276588
C	-1.1731537784	-0.6953859689	 0.0525013159	 0.510917
C	-1.398813752	-2.0422836381	 0.026674231	-0.132386
N	-0.4796124541	-3.1152097185	-0.0476815442	-0.619991
C	-2.8207222363	-2.1212058867	-0.0090521283	 0.403753
C	-3.6541125434	-3.3590183772	-0.0542850475	-0.490868
N	-3.391672002	-0.9362013446	 0.0034876457	-0.247177
O	-2.3205901688	-0.0091799355	 0.025375591	-0.236711
H	 0.9662655956	 1.7243378116	-0.0089284831	 0.140521
H	-0.5493977448	 1.6938147062	-0.9614381693	 0.144853
H	-0.6194823301	 1.8151181115	 0.8160173221	 0.146001
H	 0.4420388037	-2.7775500183	-0.3018971021	 0.24502
H	-0.388152919	-3.6014166963	 0.8394437703	 0.242312
H	-3.5766968131	-3.9224452094	 0.88226647	 0.13101
H	-4.7024359098	-3.1024314958	-0.2179281183	 0.145562
H	-3.3108953638	-4.0179226438	-0.8578945511	 0.144956
54.7754	122.9105	138.7285	143.2124	183.8867	193.0468	230.8259	314.8354	349.0088	377.8337	554.5313	591.4249	642.5718	713.9402	737.8953	758.596	840.4035	912.8006	986.6583	1022.6759	1065.6339	1097.251	1176.9944	1203.3608	1237.7563	1263.7086	1352.9747	1409.2162	1454.326	1475.7584	1481.447	1484.9961	1501.2172	1515.1337	1556.3448	1655.9399	1708.9611	3039.8529	3041.4726	3096.9843	3113.5967	3140.2194	3156.328	3492.5215	3580.5097
COC1=C(N)C(C)=NO1	COc1c(N)c(C)no1	
InChI=1S/C5H8N2O2/c1-3-4(6)5(8-2)9-7-3/h6H2,1-2H3	InChI=1S/C5H8N2O2/c1-3-4(6)5(8-2)9-7-3/h6H2,1-2H3
