14
gdb 44499	4.71177	1.47632	1.2832	2.5935	62.41	-0.2579	0.0327	0.2906	928.6895	0.102265	-473.759961	-473.753812	-473.752868	-473.790683	24.602	
N	-0.0713795372	 1.2481474079	 0.4789077228	-0.54785
C	-0.0080967375	 0.0888047445	-0.0040755258	 0.476133
O	 1.1623033829	-0.5559610028	-0.2942134639	-0.276056
C	 1.0860863044	-1.8592952316	-0.834449132	 0.114054
C	 0.0131003848	-2.139415726	-1.9175338365	-0.024557
O	 0.0386528846	-3.554849723	-1.5192195155	-0.299021
C	 0.0451043199	-2.8388199744	-0.2346860459	-0.024552
C	-1.0394472723	-1.8884513034	-0.8061498501	 0.1219
O	-1.1510273109	-0.5917599296	-0.2651217831	-0.24763
H	 0.8665515296	 1.6183254364	 0.6149244475	 0.233087
H	 2.095578677	-2.227347811	-1.0066132358	 0.119654
H	-0.0038964334	-1.8955634954	-2.9780839584	 0.115837
H	 0.0657845906	-3.4184810807	 0.686228921	 0.115836
H	-2.0397197824	-2.2898136709	-0.9539320043	 0.123163
89.7544	281.2361	404.5649	435.5507	444.7882	498.7887	646.108	716.025	762.0165	777.6959	818.9572	854.7962	884.7361	895.0509	907.3593	917.3018	1015.5227	1033.1181	1039.7276	1093.4006	1144.0385	1144.0921	1179.6757	1202.8062	1221.3958	1242.9625	1258.1962	1275.0504	1391.0667	1393.4072	1782.3094	3141.9753	3144.9588	3153.7216	3162.4363	3534.6867
N=C1OC2C3OC2C3O1	[NH][C]1O[C@@H]2[C@H]3O[C@@H]2[C@H]3O1	
InChI=1S/C5H5NO3/c6-5-8-3-1-4(9-5)2(3)7-1/h1-4,6H	InChI=1S/C5H5NO3/c6-5-8-3-1-4(9-5)2(3)7-1/h1-4,6H/t1-,2+,3-,4+
