18
gdb 91981	2.53706	1.61339	1.2145	3.0635	74.54	-0.2488	0.0309	0.2797	1053.9783	0.148287	-401.951409	-401.943248	-401.942304	-401.984442	31.01	
C	 0.5545051907	 1.3934849014	-0.3608992466	-0.403634
C	 0.0326192262	 0.0334960796	 0.0880910252	 0.110953
O	 0.0883124156	-0.9124979132	-0.9863956462	-0.266343
C	 0.9926818583	-1.9433602356	-0.7087103617	 0.107163
C	 2.4384978832	-1.5947679125	-0.4753025589	-0.326279
C	 1.5042755494	-1.8412766326	 0.6951721091	-0.074698
C	 0.7937940239	-0.6328815827	 1.3012178723	-0.210046
C	 1.6832929677	 0.2777733591	 2.0207609891	 0.289654
N	 2.3871535204	 0.9906516572	 2.5974736821	-0.335912
H	 1.621927457	 1.3697304248	-0.5947394306	 0.134201
H	 0.0121244422	 1.7026733372	-1.2580844932	 0.130269
H	 0.3951419743	 2.1440712752	 0.4184955709	 0.135178
H	-1.024652696	 0.1400626604	 0.3577417713	 0.099057
H	 0.7089858751	-2.8788724132	-1.1767822002	 0.109904
H	 3.1794901347	-2.3621393261	-0.6715756721	 0.124239
H	 2.7724875484	-0.5845738079	-0.6817267323	 0.133915
H	 1.6563390698	-2.704746312	 1.3304423768	 0.109979
H	 0.0546140893	-0.9961038292	 2.0229002852	 0.132399
53.0734	145.908	166.0668	231.4021	294.2654	358.2993	411.6206	422.9478	503.9962	572.6717	673.7714	724.9526	758.132	782.8708	821.8118	895.025	929.4036	968.2581	1004.788	1022.8558	1052.0595	1079.2757	1090.4044	1098.2996	1109.7138	1141.6238	1167.9526	1208.2887	1259.6437	1313.499	1330.984	1358.5899	1382.4281	1394.1956	1416.8575	1476.609	1484.8628	1494.9659	2355.5268	3028.3033	3049.7196	3057.1438	3125.6857	3129.6799	3141.3059	3179.1257	3190.5587	3230.9242
CC1OC2CC2C1C#N	C[C@H]1O[C@H]2C[C@H]2[C@H]1C#N	
InChI=1S/C7H9NO/c1-4-6(3-8)5-2-7(5)9-4/h4-7H,2H2,1H3	InChI=1S/C7H9NO/c1-4-6(3-8)5-2-7(5)9-4/h4-7H,2H2,1H3/t4-,5+,6+,7+/m1/s1
