20
gdb 109238	2.65004	1.36774	1.03926	2.3278	80.94	-0.2119	0.0243	0.2362	1205.5352	0.170483	-403.127208	-403.118242	-403.117298	-403.160676	34.025	
C	 0.0670633294	 1.5217180619	 0.0259748285	-0.486912
C	-0.0065665836	 0.0144427356	-0.0392164094	 0.24032
C	-0.8811197537	-0.7762232263	 0.8778282467	-0.277074
N	 0.574462265	-0.7756384779	 1.0745256115	-0.141585
C	 1.2711115158	-1.9311868351	 0.4645657874	-0.21371
C	 1.042552318	-1.8138910402	-1.0243665863	-0.193695
C	 0.3462294048	-0.7125758798	-1.3067688499	 0.280005
C	-0.0818948318	-0.2228670843	-2.6513085144	-0.192883
O	 0.3761464711	-1.1152484881	-3.6503054273	-0.41367
H	 1.0491349547	 1.8832495204	-0.2980879584	 0.122046
H	-0.6935858182	 1.9842613321	-0.613560757	 0.113876
H	-0.0981557172	 1.8642367666	 1.0504097999	 0.129781
H	-1.4377841233	-0.27755042	 1.6683321883	 0.107083
H	-1.3539746255	-1.6700931536	 0.4753881502	 0.106316
H	 2.3378354494	-1.8836591771	 0.7233513963	 0.110953
H	 0.8881475329	-2.8703118608	 0.8851185215	 0.110007
H	 1.3832889547	-2.5397608092	-1.7509288245	 0.112125
H	-1.1828558217	-0.1289766428	-2.6696151759	 0.097613
H	 0.313079463	 0.7956874886	-2.8116238857	 0.099391
H	 0.1108912663	-0.7669818799	-4.5060662316	 0.290012
80.8661	157.1605	181.51	202.9798	227.9253	275.8541	280.8741	311.8697	446.974	454.397	558.1282	604.7159	710.2556	760.1267	766.3861	819.2887	835.8956	936.4325	958.9875	978.3473	1016.8104	1044.0043	1060.4845	1074.6636	1107.4925	1114.4031	1147.7632	1163.372	1208.7809	1217.6314	1252.5933	1263.5422	1331.1582	1345.071	1352.5656	1412.6516	1468.5958	1485.1451	1489.2851	1495.148	1502.2203	1509.3958	1717.7219	2938.4779	2954.964	3006.3967	3029.3866	3037.0963	3088.0556	3090.0275	3120.6404	3175.4362	3225.1176	3838.1205
CC12CN1CC=C2CO	C[C@]12CN1CC=C2CO	
InChI=1S/C7H11NO/c1-7-5-8(7)3-2-6(7)4-9/h2,9H,3-5H2,1H3	InChI=1S/C7H11NO/c1-7-5-8(7)3-2-6(7)4-9/h2,9H,3-5H2,1H3/t7-,8?/m1/s1
