17
gdb 44789	2.46222	2.15851	1.60195	4.1318	72.29	-0.2633	0.0063	0.2695	886.8198	0.137945	-421.771378	-421.764902	-421.763958	-421.801933	27.045	
O	 0.0520171951	 0.1159789514	 0.1883453015	-0.362224
C	 0.051678149	 1.3051692704	 0.0841747767	 0.446556
O	-1.0747923118	 2.091095713	 0.1288630581	-0.233329
C	-0.5018017703	 3.4050690463	-0.0523623131	 0.037546
C	 0.7107556754	 3.3747975037	 0.9732349417	-0.329119
C	 1.1977406235	 2.3087266655	-0.1020626427	 0.103209
C	 2.2246383592	 1.7992057391	-1.1491794316	-0.313758
C	 1.1305279031	 2.2157607085	-2.2352923462	-0.296945
C	 0.5997484242	 3.2211959881	-1.1556720318	 0.01528
H	-1.2919542846	 4.1535223656	-0.0450123815	 0.100744
H	 1.3111728162	 4.2846087237	 0.9812136467	 0.121218
H	 0.4728714559	 3.0444126633	 1.9874027383	 0.123884
H	 3.1180679261	 2.4221641338	-1.2238058923	 0.114182
H	 2.5008103831	 0.7450098081	-1.0889315159	 0.13064
H	 1.4864807192	 2.6445450646	-3.1736923601	 0.106472
H	 0.4535986044	 1.3859412187	-2.4472579494	 0.144276
H	 1.1778418225	 4.1468357561	-1.2236644285	 0.091369
171.9868	242.4918	281.8268	403.702	466.1342	530.8177	593.9516	644.8612	676.4412	749.4685	766.8451	781.5739	815.6629	849.2359	881.0068	908.9412	944.1604	996.1622	1025.5543	1035.7344	1062.7157	1082.3399	1102.9847	1115.442	1158.9352	1182.806	1199.2586	1205.1521	1214.2545	1242.5991	1271.3929	1338.0193	1385.3042	1473.5375	1485.0742	1494.8194	1901.7824	3064.7111	3072.5186	3075.714	3079.4955	3133.6311	3144.1473	3146.5663	3151.2083
O=C1OC2CC11CCC21	O=C1O[C@H]2C[C@]31CC[C@@H]23	
InChI=1S/C7H8O2/c8-6-7-2-1-4(7)5(3-7)9-6/h4-5H,1-3H2	InChI=1S/C7H8O2/c8-6-7-2-1-4(7)5(3-7)9-6/h4-5H,1-3H2/t4-,5-,7+/m0/s1
