19
gdb 66836	2.66671	1.89827	1.42612	1.9857	78.08	-0.2376	0.0843	0.3219	980.2712	0.158978	-385.817622	-385.809975	-385.80903	-385.84928	30.628	
C	-0.0532886736	 1.4206483529	-0.0155118	-0.524526
C	 0.0028426721	-0.0751158788	 0.048872411	 0.290383
C	 0.2092125686	-0.9904783961	-1.1679572705	-0.205798
C	 0.9707070362	-2.139571267	-0.4593449999	 0.081051
O	 1.8909886562	-1.5436124109	 0.485522894	-0.296783
C	 0.7085990228	-0.9817107796	 1.1005596859	 0.01546
C	-0.2040129985	-2.131895083	 0.571847862	-0.165414
C	-1.0295876357	-1.1308487225	-0.3021272718	 0.284643
C	-2.4862834479	-1.0490040611	-0.6222676382	-0.525168
H	 0.9526191861	 1.8487866391	-0.0955917817	 0.129475
H	-0.6266948955	 1.7599434397	-0.8848250428	 0.11966
H	-0.5277096017	 1.8447381623	 0.8769832484	 0.118213
H	 0.3109782038	-0.6023080649	-2.1733717204	 0.084878
H	 1.3761520191	-2.9877264802	-1.008951564	 0.078705
H	 0.8478163007	-0.6550002373	 2.1308187185	 0.075004
H	-0.5509969234	-2.9856933915	 1.1492444014	 0.075712
H	-3.0912908782	-0.9344280925	 0.2850369226	 0.120241
H	-2.6990660317	-0.1924368435	-1.2711992755	 0.122226
H	-2.8344870894	-1.949698575	-1.1414744091	 0.12204
171.7561	185.6339	196.9962	232.1704	277.4057	283.3935	540.5331	566.9098	611.072	642.0315	754.5644	770.6533	804.0143	816.5705	852.141	858.3919	901.231	918.1497	921.8204	945.6403	979.9811	1022.7563	1075.9607	1101.3747	1113.9582	1145.0654	1154.7504	1171.0471	1185.8892	1201.3887	1226.712	1259.5425	1308.4091	1343.3462	1411.3407	1414.9668	1469.1127	1483.357	1488.419	1493.915	1504.4267	3018.4272	3021.9181	3076.6374	3081.6921	3088.4411	3092.1357	3122.96	3130.0392	3147.6945	3196.7446
CC12C3C4OC1C4C23C	C[C@@]12[C@H]3[C@H]4O[C@@H]1[C@H]4[C@@]23C	
InChI=1S/C8H10O/c1-7-3-4-5(7)8(7,2)6(3)9-4/h3-6H,1-2H3	InChI=1S/C8H10O/c1-7-3-4-5(7)8(7,2)6(3)9-4/h3-6H,1-2H3/t3-,4-,5-,6+,7+,8+/m0/s1
