17
gdb 74341	4.41515	0.99352	0.86371	2.272	70.05	-0.2275	0.0515	0.279	1309.0685	0.137206	-455.141104	-455.132815	-455.13187	-455.17516	30.309	
N	 0.1835282556	 1.3290339167	 0.2159122232	-0.573766
C	-0.0214374874	-0.0154714541	 0.0899454704	 0.470846
N	-1.1233300497	-0.596123782	-0.1909612617	-0.356902
C	-0.8614684435	-2.0361081563	-0.094027664	-0.020005
C	 0.6686697534	-2.1345882725	 0.1830065498	-0.128703
O	 1.0859510222	-0.7623811498	 0.3452607883	-0.252612
C	-1.6932147821	-2.6645515987	 1.0037695758	 0.097305
C	-2.9489507107	-3.3620554586	 0.7220269929	-0.17766
O	-1.7512108437	-4.0944523571	 1.0013134111	-0.245948
H	 1.127567714	 1.642646988	 0.0541388975	 0.264532
H	-0.5367682697	 1.8990818796	-0.1980904309	 0.269806
H	-1.1191099341	-2.5376597462	-1.0343443541	 0.081414
H	 0.9101942453	-2.6811803917	 1.098713427	 0.127824
H	 1.227828156	-2.5706019731	-0.6492508312	 0.118934
H	-1.5588751795	-2.2177971885	 1.9910071989	 0.09237
H	-3.7205438544	-3.4196642709	 1.487950671	 0.115985
H	-3.3066118316	-3.4247696347	-0.304854314	 0.11658
42.7141	63.6841	153.7519	223.0964	317.4619	362.2486	373.2318	426.1836	503.4696	531.3942	712.0951	735.7071	786.3791	816.3418	865.6346	915.905	944.4202	967.4016	1017.431	1025.0701	1049.8679	1101.4514	1150.5534	1164.8026	1173.2958	1183.0064	1231.4595	1269.9832	1288.9653	1317.4851	1350.0907	1433.0423	1454.5371	1524.4892	1530.1228	1618.129	1750.525	3029.0566	3058.0166	3084.9727	3094.2399	3105.9491	3172.8424	3595.6294	3710.4273
NC1=NC(CO1)C1CO1	NC1=N[C@@H](CO1)[C@H]1CO1	
InChI=1S/C5H8N2O2/c6-5-7-3(1-9-5)4-2-8-4/h3-4H,1-2H2,(H2,6,7)	InChI=1S/C5H8N2O2/c6-5-7-3(1-9-5)4-2-8-4/h3-4H,1-2H2,(H2,6,7)/t3-,4+/m0/s1
