17
gdb 41287	2.95807	2.10822	1.83902	2.1306	70.58	-0.2386	0.059	0.2976	821.979	0.138053	-421.729009	-421.723057	-421.722113	-421.758873	25.896	
C	 0.0955167104	 1.5013400296	-0.1760409838	-0.190624
O	 1.5480316336	 1.5312898289	 0.0393490605	-0.342537
C	 1.5257472634	 0.2252825436	 0.6147205652	 0.382696
C	 1.806326138	-0.3320475669	 1.9984704807	-0.316642
C	 1.0010126042	-1.5490019012	 1.4254992355	-0.088977
C	-0.4431771162	-0.9599742349	 1.2774060234	-0.291177
C	 0.0502543879	 0.023599557	 0.2147737634	 0.296365
O	 0.4335804913	-0.8727981854	-0.8845438722	-0.326754
C	 1.5571643313	-1.1600349392	-0.0548036782	 0.031076
H	-0.4178333082	 2.1850086263	 0.5101967375	 0.11279
H	-0.1670561187	 1.7238126086	-1.212879775	 0.12809
H	 2.8614497661	-0.570418298	 2.1593147908	 0.109417
H	 1.3952684244	 0.176347575	 2.8747342705	 0.103234
H	 1.1376370512	-2.5480039195	 1.83290894	 0.081115
H	-1.1892903903	-1.6594508421	 0.8974841145	 0.114721
H	-0.7941591737	-0.5006339426	 2.2041527642	 0.108209
H	 2.3707747151	-1.7292849892	-0.5059148873	 0.088998
256.1371	327.2023	376.0422	449.8857	509.6489	512.756	633.1705	691.302	706.7467	755.6265	809.9327	848.1862	862.6304	911.0449	928.4249	938.5238	948.0602	974.9513	1008.613	1019.7603	1060.7884	1104.765	1111.6952	1137.41	1142.292	1178.7119	1186.4607	1190.8958	1238.8814	1262.6916	1290.5061	1297.6655	1311.9639	1350.1672	1477.4952	1493.3806	1503.1398	3033.6217	3056.1928	3076.2997	3111.2442	3112.9981	3113.9453	3134.9804	3151.2918
C1OC23CC4CC12OC34	C1O[C@@]23C[C@H]4C[C@@]12O[C@@H]34	
InChI=1S/C7H8O2/c1-4-2-7-5(4)9-6(1,7)3-8-7/h4-5H,1-3H2	InChI=1S/C7H8O2/c1-4-2-7-5(4)9-6(1,7)3-8-7/h4-5H,1-3H2/t4-,5-,6-,7-/m1/s1
