14
gdb 46431	4.0486	0.86987	0.76131	4.0855	62.98	-0.2792	-0.0279	0.2514	1398.3306	0.099938	-473.830709	-473.822328	-473.821384	-473.865259	28.457	
O	 0.2037289986	 0.1326244456	-0.3664820289	-0.315964
C	 0.1336822319	 1.2805103054	-0.0669177578	 0.442226
O	-0.9339186494	 1.9687543917	 0.4420147525	-0.232153
C	-0.1394844275	 3.1889198797	 0.629142958	-0.112249
C	 1.0699116815	 2.5114495113	-0.0283315187	-0.050099
O	 2.195146363	 2.4211449238	 0.8002590617	-0.245713
C	 3.2164111571	 1.6043105648	 0.2481263053	-0.205112
C	 4.3692645431	 1.6255360329	 1.1494892396	 0.27122
N	 5.2945198855	 1.6254194217	 1.8394368914	-0.285243
H	-0.5863071923	 4.0304995545	 0.0994697199	 0.139128
H	-0.0010066066	 3.4063083118	 1.6889047773	 0.151757
H	 1.3258506239	 2.8869188152	-1.0294210864	 0.114765
H	 2.8725453254	 0.5695100448	 0.1191100848	 0.179524
H	 3.5298837459	 1.9786166969	-0.7391096388	 0.147913
43.3204	93.7526	98.2274	173.4153	211.4211	318.7301	376.0159	384.7751	491.8242	561.1028	731.0353	757.3135	861.2986	925.2405	957.9512	965.3003	1031.7532	1046.3089	1106.8831	1131.1889	1155.4684	1191.5263	1241.358	1260.2151	1327.4418	1372.3831	1432.3482	1498.3189	1507.5512	1934.3819	2377.2299	2992.2955	3011.0574	3048.0421	3090.8134	3160.3124
O=C1OCC1OCC#N	O=C1OC[C@H]1OCC#N	
InChI=1S/C5H5NO3/c6-1-2-8-4-3-9-5(4)7/h4H,2-3H2	InChI=1S/C5H5NO3/c6-1-2-8-4-3-9-5(4)7/h4H,2-3H2/t4-/m1/s1
