16
gdb 126069	3.89646	1.08334	1.04388	3.2436	70.91	-0.2499	-0.0063	0.2436	1180.8245	0.125278	-434.047312	-434.039508	-434.038563	-434.080358	28.649	
C	 1.1096476154	 1.0748469842	-0.6286608723	-0.426037
C	 0.08275564	 0.1526401799	-0.0308297522	 0.09145
O	 0.5348294699	-1.0999974128	 0.4966502233	-0.26028
C	-0.0266714624	-0.1555005621	 1.4131854488	-0.061189
C	 0.8860411863	 0.3742415604	 2.4441711585	 0.312293
C	 2.2361377546	 0.1670063114	 2.6124316855	-0.164293
N	 2.5297291677	 0.8672293387	 3.7325279731	-0.157161
N	 1.4401569547	 1.4704937632	 4.2421210667	-0.108344
N	 0.4423933194	 1.1690451739	 3.463504395	-0.263728
H	 1.9657082977	 1.2097114703	 0.0359082334	 0.124848
H	 1.4695198114	 0.6744910016	-1.5821098862	 0.130626
H	 0.6637498485	 2.0560482214	-0.8226276295	 0.129701
H	-0.8431114449	 0.0657803283	-0.603198129	 0.0962
H	-1.0164844829	-0.4105924321	 1.7921546916	 0.108586
H	 2.959162325	-0.408557698	 2.0617688787	 0.162417
H	 3.4144760996	 0.9687854517	 4.2037956047	 0.284911
56.5148	125.6748	162.4669	206.1557	287.4397	387.5056	434.9368	522.6553	582.6632	682.3693	714.6375	757.3331	795.1483	815.4043	869.4399	975.5372	989.0697	1013.6052	1043.1948	1064.395	1090.223	1126.3362	1158.8066	1169.3698	1255.0596	1279.8074	1293.5001	1347.2416	1392.2408	1417.4154	1451.3691	1486.7201	1494.4419	1507.2572	1598.8413	3041.2053	3087.4401	3104.0326	3113.2029	3133.3733	3298.6093	3658.1545
CC1OC1C1=CNN=N1	C[C@H]1O[C@H]1c1c[nH]nn1	
InChI=1S/C5H7N3O/c1-3-5(9-3)4-2-6-8-7-4/h2-3,5H,1H3,(H,6,7,8)	InChI=1S/C5H7N3O/c1-3-5(9-3)4-2-6-8-7-4/h2-3,5H,1H3,(H,6,7,8)/t3-,5-/m1/s1
