19
gdb 92899	2.36421	1.79415	1.03995	2.8231	80.35	-0.2014	0.015	0.2164	1151.9949	0.160087	-419.258995	-419.249638	-419.248694	-419.294127	32.862	
C	-0.0791195566	 1.3988321256	-0.1067286722	-0.336098
N	-0.0012925303	-0.047196611	-0.0388345819	-0.162222
C	-1.2874611127	-0.7305498018	 0.0573989357	-0.193808
C	-1.127744429	-2.2144038315	 0.1231017488	-0.162183
C	 0.0819315804	-2.7688405412	 0.0919938471	 0.038393
N	 1.2565351134	-2.0320594128	-0.0013252059	-0.169631
C	 2.5365096509	-2.7219327395	-0.0287541019	-0.353987
C	 1.2407998442	-0.6373291287	-0.0696314072	 0.516489
O	 2.2763238772	 0.0063822929	-0.1515875159	-0.428665
H	 0.9293310366	 1.8005787807	-0.1757480168	 0.170179
H	-0.6608520353	 1.7123525591	-0.9841960243	 0.116059
H	-0.5745679087	 1.8002377097	 0.7877367281	 0.116061
H	-1.8278333933	-0.3536308563	 0.9443392141	 0.107648
H	-1.9127215062	-0.4402639221	-0.806032056	 0.107652
H	-2.0150190288	-2.8289378448	 0.1964289033	 0.099258
H	 0.22908384	-3.842039324	 0.1379724736	 0.11204
H	 2.5989146411	-3.3963685685	-0.8907143691	 0.123612
H	 3.3174251514	-1.9681957981	-0.1044729784	 0.175589
H	 2.6851527056	-3.3071750776	 0.8862029189	 0.123614
48.4017	63.2119	122.8651	136.535	175.4197	198.0619	321.2216	403.4293	455.1273	467.075	514.0485	577.3305	672.2975	711.8338	754.6764	885.3314	944.1619	947.2832	977.6429	1042.5855	1082.5075	1115.6002	1158.5052	1163.9758	1192.5425	1250.5801	1257.1354	1275.821	1333.7225	1370.3189	1421.0646	1433.186	1459.3203	1475.4677	1497.0839	1503.0106	1510.7228	1516.6269	1552.8144	1752.6042	1759.0264	2930.5536	2932.8156	3002.6892	3020.7979	3043.8533	3070.9945	3176.8428	3177.4561	3191.4554	3222.6381
CN1CC=CN(C)C1=O	CN1CC=CN(C)C1=O	
InChI=1S/C6H10N2O/c1-7-4-3-5-8(2)6(7)9/h3-4H,5H2,1-2H3	InChI=1S/C6H10N2O/c1-7-4-3-5-8(2)6(7)9/h3-4H,5H2,1-2H3
