16
gdb 14674	4.24544	0.78851	0.70249	4.3571	71.23	-0.2666	0.0019	0.2685	1585.5426	0.128025	-383.734631	-383.725253	-383.724308	-383.771884	30.732	
C	 0.7777912177	 1.0589061352	 0.1637012483	-0.368174
C	-0.2075691393	 0.0154514878	-0.3931362848	-0.315218
C	 0.214842643	-0.5557447054	-1.6667463072	 0.064025
C	 0.577915298	-1.0169433028	-2.7184153357	 0.086302
C	 1.019202987	-1.5887157836	-3.981516344	-0.248918
O	 1.7761140145	-2.8048465499	-3.8082897101	-0.166461
C	 3.0828674696	-2.6597124443	-3.5107457604	 0.182505
O	 3.8024272316	-3.5896596779	-3.3068529613	-0.270003
H	 1.7629232342	 0.6144397208	 0.3281122473	 0.132694
H	 0.8948621395	 1.8941934818	-0.5318923026	 0.129474
H	 0.4139118956	 1.4525606013	 1.1170315745	 0.120382
H	-0.3382636778	-0.7957559075	 0.334150337	 0.140415
H	-1.1986942771	 0.4701563629	-0.516704698	 0.136294
H	 0.1681791926	-1.8767626873	-4.6041976671	 0.15645
H	 1.6141251492	-0.8632604123	-4.5521203813	 0.139346
H	 3.4065585118	-1.6007583088	-3.4896071145	 0.080887
10.0681	38.9207	106.7159	126.9291	164.2103	229.5993	284.5925	334.4826	364.3437	474.0991	528.9763	675.2343	747.9476	782.8888	960.0555	987.6278	1025.5595	1045.0084	1080.2284	1102.7548	1148.8415	1171.0897	1285.5105	1296.9746	1350.2912	1390.8335	1410.6617	1436.2364	1469.7508	1486.4588	1495.4723	1504.8905	1870.9774	2367.2537	2949.9424	3022.7769	3025.2725	3047.0349	3053.902	3094.2966	3121.5493	3126.0509
CCC#CCOC=O	CCC#CCOC=O	
InChI=1S/C6H8O2/c1-2-3-4-5-8-6-7/h6H,2,5H2,1H3	InChI=1S/C6H8O2/c1-2-3-4-5-8-6-7/h6H,2,5H2,1H3
