14
gdb 25106	3.51044	1.3909	0.99619	2.3198	78.38	-0.2547	-0.0894	0.1653	1100.3728	0.102954	-432.869389	-432.862057	-432.861112	-432.902395	27.022	
N	 0.064536178	 0.9570285192	-1.1390032017	-0.464144
C	 0.0918678744	 0.1427830293	-0.1658942226	 0.346584
O	 1.2865827233	-0.3967897613	 0.2247562693	-0.239854
C	 1.487449414	-1.2817028817	 1.2393483606	 0.031066
C	 0.6395161578	-1.8462889535	 2.0983276559	-0.128689
C	-0.8084698085	-1.707422077	 2.2468134751	 0.31886
N	-1.3733735822	-2.3818977391	 3.1776857947	-0.46519
N	-1.61586914	-0.8809225784	 1.4322833072	-0.312294
C	-1.2256110526	-0.1487209023	 0.470093238	 0.015962
H	 1.0046574319	 1.0997359594	-1.5145124007	 0.240008
H	 2.5458918908	-1.5100185415	 1.2831401958	 0.140024
H	 1.0835121332	-2.5267392621	 2.8157908143	 0.129602
H	-2.3762666433	-2.1802274342	 3.1543764455	 0.232304
H	-1.9901836867	 0.4263596732	-0.0532227315	 0.155757
31.241	94.4733	287.3022	351.6122	384.9486	385.6138	414.4122	534.6222	607.0435	693.0512	742.2517	799.0189	832.6659	845.4928	877.2254	933.095	955.3565	978.9834	995.4154	996.2163	1109.3225	1175.3047	1324.8352	1326.9801	1372.0162	1422.4849	1446.5286	1649.0817	1695.1506	1722.4136	1732.358	3132.7713	3197.7752	3217.0711	3454.7983	3472.6902
N=C1OC=CC(=N)N=C1	[NH]C1=CN=C(C=CO1)[NH]	
InChI=1S/C5H5N3O/c6-4-1-2-9-5(7)3-8-4/h1-3,6-7H	InChI=1S/C5H5N3O/c6-4-1-2-9-5(7)3-8-4/h1-3,6-7H
