23
gdb 58632	2.58573	1.20734	1.06464	2.7062	84.77	-0.2319	0.0686	0.3005	1289.0857	0.20618	-384.420032	-384.410321	-384.409377	-384.454568	37.092	
C	 0.137128545	 1.3744752248	-0.379795981	-0.428736
C	-0.0451602824	-0.0759467742	 0.0879322766	-0.04135
C	 0.6640411647	-0.2947625691	 1.4357386275	-0.386094
C	-1.5093690069	-0.5449021604	 0.1652773861	 0.309005
C	-2.5091024804	 0.249372421	 0.9277107778	-0.275157
N	-2.5865339972	 0.1692960078	-0.5430717297	-0.371835
C	-1.6579060376	-2.044564852	 0.0950169237	-0.038285
C	-2.9469992719	-2.6878218007	-0.2403897478	-0.251603
N	-1.8398702184	-2.6940622092	-1.2184797024	-0.332177
H	 1.2011937595	 1.6300358132	-0.3869385229	 0.121682
H	-0.2353718761	 1.5335681531	-1.3969093639	 0.119373
H	-0.3582351408	 2.0903031436	 0.2868173997	 0.118523
H	 0.4438064705	-0.7199536744	-0.6554633534	 0.090975
H	 0.5698611692	-1.3264298599	 1.7859180816	 0.122484
H	 1.732311287	-0.070703538	 1.3519081792	 0.112972
H	 0.2433767955	 0.3584292677	 2.2082271668	 0.114955
H	-3.3107187594	-0.2572423719	 1.4576379948	 0.117857
H	-2.1964032707	 1.1902171749	 1.3737333096	 0.110054
H	-2.2375363078	 1.0308615312	-0.9511354663	 0.230762
H	-0.9758356664	-2.5905956354	 0.7429254096	 0.085813
H	-3.1901376081	-3.6579818469	 0.1839818331	 0.109139
H	-3.7921775879	-2.0383826324	-0.4450029026	 0.128902
H	-2.0378584094	-1.9593046027	-1.8973546762	 0.23274
65.6767	71.3007	185.2058	217.775	231.9974	248.1811	285.8328	296.8683	352.2143	423.4817	439.5354	482.1384	599.5406	662.381	806.0852	849.4252	872.9377	891.061	921.0693	926.7226	937.9738	968.4224	972.3892	992.0893	1026.9851	1036.2217	1110.344	1123.4338	1127.2736	1133.1184	1153.4728	1188.6436	1206.1618	1253.9106	1265.6375	1289.5565	1310.4447	1343.4215	1355.6813	1386.9953	1401.4072	1420.434	1436.4828	1488.4893	1494.3512	1495.292	1503.3372	1508.9798	1518.0162	3013.8103	3026.8649	3035.4213	3092.0962	3099.6298	3103.048	3105.4881	3110.3202	3114.4326	3130.9103	3189.7442	3207.6769	3469.1018	3525.5233
CC(C)C1(CN1)C1CN1	CC(C)[C@]1(CN1)[C@H]1CN1	
InChI=1S/C7H14N2/c1-5(2)7(4-9-7)6-3-8-6/h5-6,8-9H,3-4H2,1-2H3	InChI=1S/C7H14N2/c1-5(2)7(4-9-7)6-3-8-6/h5-6,8-9H,3-4H2,1-2H3/t6-,7-/m1/s1
