18
gdb 124741	2.47207	1.3243	1.05118	2.4963	74.64	-0.2501	-0.0119	0.2382	1209.4058	0.146406	-439.087668	-439.078359	-439.077415	-439.122488	33.344	
C	 0.1737256471	 1.6198809996	-0.1060143828	-0.401114
C	-0.0389467797	 0.1046281631	-0.0038399016	 0.016457
O	 0.4203907236	-0.5706088293	-1.1708530969	-0.424739
C	 0.5929986907	-0.4714290521	 1.2298579848	 0.372812
C	 0.1264023815	-1.1356849282	 2.3249070144	 0.037285
C	-1.2755021156	-1.513935144	 2.6860357522	-0.514832
C	 1.3199930546	-1.3977545389	 3.0619131001	-0.020994
N	 2.3952187829	-0.9434940055	 2.472021743	-0.144235
O	 1.9363408077	-0.3449552786	 1.3022533816	-0.239396
H	 1.24191752	 1.8575687293	-0.1177135536	 0.131702
H	-0.2799868039	 1.9892604257	-1.0290242355	 0.127709
H	-0.2785719536	 2.1386387418	 0.7450375357	 0.122192
H	-1.111831993	-0.1071214908	 0.041579114	 0.102151
H	 1.3821695696	-0.5034876398	-1.1834229121	 0.291467
H	-1.3608992381	-2.5892717008	 2.8749189969	 0.139623
H	-1.6125682446	-0.9976610046	 3.5918494558	 0.137596
H	-1.9747872936	-1.2641957175	 1.8841726694	 0.135087
H	 1.4217221742	-1.9119283093	 4.0083877447	 0.131229
39.2659	93.2919	137.0274	173.2062	243.8106	258.5683	266.8067	325.4691	383.1543	422.8224	524.4788	624.4977	651.9938	710.2571	746.6934	897.1463	911.1973	937.5291	956.3802	1002.9093	1023.5085	1066.5804	1078.0134	1103.8698	1150.6439	1206.2189	1248.9933	1301.3121	1348.535	1394.1168	1402.276	1423.5779	1428.3284	1483.7767	1488.335	1490.0683	1496.369	1519.6519	1676.6378	3035.0277	3040.9675	3066.8545	3087.3674	3115.1182	3117.6872	3128.572	3234.0829	3801.78
CC(O)C1=C(C)C=NO1	C[C@@H](O)c1c(C)cno1	
InChI=1S/C6H9NO2/c1-4-3-7-9-6(4)5(2)8/h3,5,8H,1-2H3	InChI=1S/C6H9NO2/c1-4-3-7-9-6(4)5(2)8/h3,5,8H,1-2H3/t5-/m1/s1
