17
gdb 44429	3.55239	1.4652	1.43511	4.3234	72.43	-0.2647	0.0022	0.2669	960.8584	0.137941	-421.75633	-421.749702	-421.748758	-421.787173	27.222	
O	-0.2040777219	 0.0834126511	-0.473174547	-0.306872
C	-0.0962564912	 1.1862300244	-0.0619752049	 0.357566
O	-1.1500709412	 2.0574238288	 0.3338261158	-0.292216
C	-0.1314606468	 2.8440660546	 1.088905544	 0.133818
C	 0.704360996	 4.1764096518	 1.0685915415	-0.096161
C	 1.9313644173	 3.1235799699	 1.1307041448	-0.330752
C	 0.9434465555	 2.3058166719	 0.2132849079	 0.077467
C	 0.9115806151	 3.2342359366	-1.0526329674	-0.225276
C	 0.7324100781	 4.6270544596	-0.3873397806	-0.212193
H	-0.1357790708	 2.438179048	 2.1028111504	 0.104673
H	 0.5787499026	 4.9250657844	 1.851302514	 0.082364
H	 2.8744968069	 3.4606786953	 0.6943668077	 0.117438
H	 2.0887197918	 2.700691073	 2.1222637812	 0.126276
H	 1.8499514514	 3.132160897	-1.6037756347	 0.111951
H	 0.0949653168	 2.9889623215	-1.7327857751	 0.128217
H	-0.1966955622	 5.1179924615	-0.68627046	 0.117029
H	 1.5588025024	 5.3128236408	-0.5916322075	 0.106671
142.0751	212.5015	307.4659	347.6754	454.9461	467.4735	612.3642	668.1498	704.9417	722.3542	770.6592	783.921	797.5463	853.8821	894.5371	927.2249	951.4354	964.5022	1006.7377	1026.6058	1042.2251	1048.4126	1108.7153	1136.0546	1149.9129	1186.0509	1209.2449	1231.0628	1253.8614	1278.8954	1314.2214	1332.7983	1411.4409	1485.7129	1491.3968	1514.976	1939.3482	3062.7445	3073.5467	3074.1727	3078.9493	3104.8984	3118.4325	3128.9322	3156.1377
O=C1OC2C3CC12CC3	O=C1O[C@@H]2[C@H]3C[C@@]12CC3	
InChI=1S/C7H8O2/c8-6-7-2-1-4(3-7)5(7)9-6/h4-5H,1-3H2	InChI=1S/C7H8O2/c8-6-7-2-1-4(3-7)5(7)9-6/h4-5H,1-3H2/t4-,5-,7-/m1/s1
