15
gdb 49979	3.98006	1.12468	1.01248	1.9948	67.66	-0.2592	-0.0473	0.2119	1148.6308	0.110316	-457.660831	-457.653396	-457.652452	-457.693196	27.907	
O	-0.6440574155	 0.6151629196	 0.7364900213	-0.246749
C	 0.1873470905	 0.9125007935	-0.0821846257	 0.156087
C	 1.1950402892	 1.9937642097	 0.1185427134	-0.213771
O	 2.3956726844	 1.8696430633	-0.6997549291	-0.282685
C	 1.5228857609	 2.8968344871	-0.9954854641	 0.557677
C	 0.9317562119	 3.3186472741	-2.3534396113	-0.070571
C	 0.3374264509	 4.5644922682	-1.6496042082	-0.221545
C	 1.8028576878	 4.3984547988	-1.1752349411	-0.066439
O	 2.1806760663	 4.0899441229	-2.5778792282	-0.305548
H	 0.2685414443	 0.4059355941	-1.0691525671	 0.093614
H	 1.3553953664	 2.3201322743	 1.1440676383	 0.128733
H	 0.5460767793	 2.723430612	-3.1790117912	 0.116204
H	 0.1879283434	 5.4125793189	-2.3166697029	 0.125054
H	-0.4703316817	 4.4275757796	-0.9266233592	 0.113793
H	 2.4436443618	 5.0710930039	-0.6081449849	 0.116145
82.2721	134.1031	190.5407	245.1495	373.2252	395.7807	471.6618	505.9019	598.1805	693.1441	764.2843	793.3647	867.07	886.9466	916.7932	956.0375	974.181	1012.3647	1040.8114	1065.9074	1112.2623	1118.1035	1129.5859	1145.0104	1172.092	1212.2285	1228.7724	1258.5979	1284.9858	1399.2598	1472.9227	1519.8355	1825.2416	2897.8755	3072.8423	3144.3894	3147.62	3148.1465	3165.5878
O=CC1OC11C2CC1O2	O=C[C@H]1O[C@]21[C@H]1C[C@@H]2O1	
InChI=1S/C6H6O3/c7-2-5-6(9-5)3-1-4(6)8-3/h2-5H,1H2	InChI=1S/C6H6O3/c7-2-5-6(9-5)3-1-4(6)8-3/h2-5H,1H2/t3-,4+,5-,6-/m1/s1
