19
gdb 38584	3.3985	1.66161	1.47626	2.0686	77.95	-0.2304	0.0635	0.2939	947.4757	0.161273	-385.7808	-385.774314	-385.77337	-385.811173	28.344	
C	-0.0195718797	 1.4869791456	 0.0828072305	-0.291531
C	 1.304735752	 0.7706778457	-0.0496332713	-0.011209
C	 2.1850512889	 0.5083340516	 1.2200514963	-0.325862
C	 1.5987058125	-0.826200825	 1.7215467868	 0.026439
C	 0.7496978159	-1.3008768864	 2.9505524239	-0.016772
C	-0.167065599	-0.0803135499	 2.8193741701	-0.273115
C	 0.1219003838	-0.6731126473	 1.4023212768	 0.455413
O	-0.1383588837	-2.0218017205	 1.9679920488	-0.376401
C	-0.010264815	-0.0201093458	 0.0476855887	-0.198861
H	-0.2604527476	 1.9765737906	 1.0210997062	 0.115261
H	-0.3941797496	 2.0077742824	-0.7928159768	 0.113833
H	 1.8175292047	 0.8497642362	-1.0017399716	 0.088785
H	 3.23986329	 0.4267462676	 0.9484506262	 0.105461
H	 2.0982510154	 1.330139166	 1.9366464805	 0.108335
H	 2.0342804116	-1.6790166969	 1.1944233587	 0.083127
H	 1.0347289948	-1.8725732145	 3.8336832593	 0.093188
H	-1.1861740556	-0.2260648571	 3.1777903676	 0.106516
H	 0.2379281954	 0.8987301871	 3.0815285335	 0.096727
H	-0.426407795	-0.5613539996	-0.7928959343	 0.100666
205.6978	251.077	354.4164	401.9386	463.0136	526.187	561.1144	649.1355	674.3308	702.6546	775.4617	784.9312	821.1597	872.6772	883.024	907.343	943.0566	953.7919	972.8918	982.2904	1027.1502	1050.4131	1080.6301	1086.4666	1098.0083	1106.0357	1120.8033	1141.4738	1174.1743	1191.4569	1195.9919	1211.4582	1243.2491	1251.754	1289.7344	1345.6872	1348.8297	1383.4984	1479.0024	1487.0135	1506.4919	3059.4205	3076.763	3078.2281	3107.9516	3118.9221	3124.5025	3153.0755	3168.8823	3188.9461	3208.6478
C1C2CC3C4CC3(O4)C12	C1[C@H]2C[C@H]3[C@H]4C[C@@]3(O4)[C@@H]12	
InChI=1S/C8H10O/c1-4-2-6-7-3-8(6,9-7)5(1)4/h4-7H,1-3H2	InChI=1S/C8H10O/c1-4-2-6-7-3-8(6,9-7)5(1)4/h4-7H,1-3H2/t4-,5-,6-,7+,8+/m0/s1
