19
gdb 108918	3.23794	1.21465	0.99006	3.6712	76.94	-0.2252	0.0231	0.2483	1234.8162	0.159191	-419.207774	-419.198935	-419.197991	-419.241113	33.651	
C	-0.0016786579	 1.4891104327	-0.1127258404	-0.46517
C	 0.0671420455	-0.0139163397	-0.0423007615	 0.340656
C	-0.7857908785	-0.7963413852	 0.9379801667	-0.328288
C	 0.7133758408	-0.8516400899	 1.0765156387	-0.070987
N	 1.3458206018	-1.9391194831	 0.3656717303	-0.339027
C	 1.1207405481	-1.7212649815	-0.9788868886	 0.32015
C	 1.631704955	-2.6510601489	-2.0452085474	-0.1269
O	 1.4052874641	-2.1233271772	-3.3239710748	-0.420066
N	 0.3988754883	-0.6980224948	-1.2720191557	-0.358802
H	 0.9272064581	 1.9062981462	-0.5144289265	 0.121692
H	-0.8221115149	 1.8038564342	-0.7663236103	 0.130016
H	-0.1736480587	 1.9203239807	 0.8779910756	 0.110899
H	-1.3173784998	-0.2149637347	 1.684026346	 0.11334
H	-1.3044800642	-1.6831648704	 0.5882649546	 0.117603
H	 1.2235175585	-0.462921222	 1.9498215814	 0.100764
H	 2.2246096584	-2.31729069	 0.6840657078	 0.247603
H	 2.7097964899	-2.8234702311	-1.8927024989	 0.099171
H	 1.1412701354	-3.6314683863	-1.9241016474	 0.112603
H	 0.8390545301	-1.347798379	-3.1829792096	 0.294743
78.3547	153.6045	174.2757	197.6095	244.7934	323.9987	349.6771	372.2816	422.138	451.1571	492.9954	604.4043	638.1346	705.0665	756.2152	820.9	882.1083	947.0653	964.76	978.5555	1022.2563	1038.1004	1047.1726	1094.6946	1106.7697	1113.9845	1126.5747	1228.7921	1245.864	1277.5271	1291.9761	1336.4023	1380.4801	1418.5374	1447.0093	1470.8118	1480.3103	1498.6846	1500.8291	1510.4896	1665.7694	2966.5659	2981.6793	3033.9561	3100.4473	3110.118	3124.1777	3179.1583	3216.9033	3620.893	3681.583
CC12CC1NC(CO)=N2	C[C@]12C[C@H]1NC(=N2)CO	
InChI=1S/C6H10N2O/c1-6-2-4(6)7-5(3-9)8-6/h4,9H,2-3H2,1H3,(H,7,8)	InChI=1S/C6H10N2O/c1-6-2-4(6)7-5(3-9)8-6/h4,9H,2-3H2,1H3,(H,7,8)/t4-,6+/m1/s1
