21
gdb 94155	2.12432	1.49327	1.28745	3.4314	78.39	-0.2428	-0.0241	0.2186	1142.955	0.180803	-424.243186	-424.233596	-424.232652	-424.277255	36.514	
C	-0.1662976132	 1.4424499301	 0.0411112835	-0.480305
C	-0.038007622	-0.0694229667	 0.0199614373	 0.371166
O	 0.0927448674	-0.6826883968	 1.0649585227	-0.339702
C	-0.0272292755	-0.7677035308	-1.3339257819	 0.151076
C	-1.0101762802	-0.1638314407	-2.3347340631	-0.484783
C	 1.4753295126	-0.8942986229	-1.7977317578	-0.264566
C	 1.5280055769	-2.3226077588	-1.2000020876	-0.265148
C	-0.0245896738	-2.3376836791	-1.2035415743	 0.140649
O	-0.7368767772	-2.9639455516	-0.1837572966	-0.439345
H	 0.4951183161	 1.9110876577	-0.6942643182	 0.140571
H	-1.1903847132	 1.7323175412	-0.2191799586	 0.151276
H	 0.0631115863	 1.8087038892	 1.0423009014	 0.143865
H	-0.8054006564	 0.8915217166	-2.53995274	 0.118393
H	-0.9460629048	-0.7003469941	-3.2865418146	 0.121795
H	-2.0429688808	-0.2462319739	-1.977975324	 0.130088
H	 1.5351605157	-0.8849486661	-2.889579051	 0.107595
H	 2.1835825739	-0.1595454033	-1.4068744928	 0.10571
H	 2.0436157949	-3.0960554645	-1.7728789355	 0.098649
H	 1.9131055755	-2.3167755751	-0.1776504598	 0.117592
H	-0.3934018846	-2.7599007427	-2.1450130666	 0.082149
H	-0.4893712875	-2.4981040478	 0.6290631878	 0.293276
61.2877	138.926	181.6308	207.3225	224.9396	237.0312	276.6922	316.3745	353.9526	454.8309	475.0409	564.4437	592.8157	605.6862	651.8687	673.9498	778.7788	844.9188	866.6278	945.9344	958.0927	970.6945	994.2346	1031.9475	1090.1985	1128.4718	1151.4389	1155.9733	1186.6754	1207.9176	1245.5782	1259.388	1264.529	1326.2726	1350.7606	1383.7645	1413.5969	1461.8863	1465.9025	1474.8888	1479.5763	1493.3831	1500.0486	1503.2775	1761.8666	3030.2761	3042.6642	3045.6841	3056.5188	3070.2487	3098.1506	3103.2411	3104.8108	3106.3255	3129.1166	3153.8164	3709.0056
CC(=O)C1(C)CCC1O	CC(=O)[C@@]1(C)CC[C@H]1O	
InChI=1S/C7H12O2/c1-5(8)7(2)4-3-6(7)9/h6,9H,3-4H2,1-2H3	InChI=1S/C7H12O2/c1-5(8)7(2)4-3-6(7)9/h6,9H,3-4H2,1-2H3/t6-,7-/m1/s1
