20
gdb 104369	2.22393	1.50554	1.30765	2.4615	75.39	-0.2663	0.0198	0.2862	1110.4301	0.171173	-440.314178	-440.305127	-440.304183	-440.347664	34.484	
C	-0.2726254517	 1.375596941	 0.2128480562	-0.394868
C	-0.110949428	-0.109405153	-0.1156296803	-0.207289
C	 0.8747119447	-0.40462467	-1.2729039472	 0.315007
O	 2.1405932693	 0.1543170361	-1.0004194163	-0.488629
C	 0.9546770607	-1.914754782	-1.5672917215	-0.278253
C	-0.2020828563	-2.1223765943	-2.5513957411	-0.098652
O	-0.3422318151	-0.8645514478	-3.256181437	-0.241844
C	 0.3393800138	 0.106990639	-2.6055793756	 0.383689
N	 0.5619120568	 1.2769814035	-3.0280473126	-0.562835
H	 0.6927059433	 1.8117060475	 0.4827506334	 0.126684
H	-0.6693033148	 1.9365336756	-0.6373031354	 0.134092
H	-0.9526908322	 1.5071078348	 1.0596670375	 0.108007
H	 0.2753839694	-0.6406535924	 0.7625486373	 0.105096
H	-1.0870973558	-0.5548924132	-0.3479721815	 0.094358
H	 2.1756991157	 0.9810328836	-1.5040273071	 0.29402
H	 1.9160207173	-2.1243177011	-2.0438607693	 0.124326
H	 0.8629586106	-2.5370863697	-0.6747314186	 0.111993
H	-0.0154800263	-2.8965784332	-3.2985735605	 0.126245
H	-1.1490784763	-2.3437766697	-2.0473976942	 0.120673
H	 0.1636458652	 1.4349495054	-3.9537017663	 0.228182
91.4941	121.833	180.4277	195.0181	238.3486	277.9062	309.9306	358.683	417.6864	450.0473	515.8445	614.4496	671.5848	694.9819	720.1103	791.0804	846.9225	879.3121	928.8717	948.2452	1001.5383	1013.7554	1016.7516	1059.5722	1097.7532	1128.1441	1164.0392	1188.5315	1231.5849	1239.2545	1282.2597	1299.4814	1343.5594	1357.9121	1405.5374	1415.7527	1427.2663	1475.2452	1492.8416	1495.0961	1511.7056	1524.1735	1771.7725	3021.2878	3046.7304	3048.0984	3060.612	3069.9085	3106.998	3115.948	3126.2377	3128.7265	3490.5166	3725.1054
CCC1(O)CCOC1=N	CC[C@@]1(O)CCO[C]1[NH]	
InChI=1S/C6H11NO2/c1-2-6(8)3-4-9-5(6)7/h7-8H,2-4H2,1H3	InChI=1S/C6H11NO2/c1-2-6(8)3-4-9-5(6)7/h7-8H,2-4H2,1H3/t6-/m1/s1
