17
gdb 106533	2.01757	1.72011	1.16473	1.9699	69.02	-0.2575	-0.0149	0.2426	1096.8263	0.133606	-458.899998	-458.891149	-458.890205	-458.933942	32.316	
C	-0.3796355757	 1.3797725612	 0.0344975512	-0.44004
C	-0.0505430101	-0.1022960051	 0.093899789	-0.014996
C	 1.2355683835	-0.5897447661	-0.6330164751	-0.093442
O	 2.0546878873	 0.0518683296	 0.434772597	-0.338799
C	 0.9383232006	-0.5757731181	 1.2068118977	 0.247173
C	 0.9007461492	-0.4509562006	 2.7034097081	-0.220188
O	-0.0310022625	-1.3721855706	 3.2432296739	-0.41015
C	 1.2483407876	-1.8100892183	 0.320092671	 0.444469
O	 1.4934631597	-2.9710172847	 0.3863295385	-0.328265
H	 0.5206324029	 1.9837252253	 0.1631630672	 0.141348
H	-0.8359440893	 1.6341940162	-0.9271684024	 0.124698
H	-1.0948800339	 1.6445926141	 0.8198660147	 0.129121
H	-0.9321371845	-0.737511802	-0.0411849839	 0.096163
H	 1.5579147662	-0.4524275519	-1.6628921085	 0.11454
H	 1.917774168	-0.5948725139	 3.097217506	 0.117924
H	 0.5659705976	 0.5467656452	 3.0048592255	 0.127492
H	 0.2946786735	-2.2604137805	 3.0584736502	 0.302952
51.0395	134.2958	148.1921	190.8897	222.9357	273.5498	314.6766	373.7036	418.6293	520.1316	553.1771	676.8142	739.7873	762.3556	786.0615	820.3557	833.6829	919.8414	1000.033	1035.9452	1058.285	1071.1074	1084.8605	1104.4472	1159.5294	1193.7559	1206.1205	1241.0054	1337.9904	1376.6671	1396.6391	1404.3379	1425.0641	1494.4593	1501.6992	1503.3231	1922.595	3001.583	3043.0752	3063.0798	3079.3168	3103.6807	3137.8078	3154.1376	3805.5642
CC1C2OC1(CO)C2=O	C[C@H]1[C@H]2O[C@]1(CO)C2=O	
InChI=1S/C6H8O3/c1-3-4-5(8)6(3,2-7)9-4/h3-4,7H,2H2,1H3	InChI=1S/C6H8O3/c1-3-4-5(8)6(3,2-7)9-4/h3-4,7H,2H2,1H3/t3-,4+,6-/m0/s1
