14
gdb 7938	3.92547	1.86271	1.28369	3.2435	60.46	-0.2627	-0.0039	0.2588	896.0919	0.108174	-415.922125	-415.914761	-415.913816	-415.954165	25.869	
C	-0.0541646311	 1.3990640975	-0.064034643	-0.341581
N	-0.0291960828	-0.0448630427	-0.0411685147	-0.135838
C	-1.2041827324	-0.8836567161	-0.0276743953	-0.26333
C	-0.587918576	-2.2668620895	-0.0046421714	 0.407019
N	-1.214145891	-3.354773395	 0.0123089595	-0.521088
O	 0.780085824	-2.1232656283	-0.005600188	-0.230391
C	 1.1249949824	-0.7677480142	-0.0278264221	 0.489797
O	 2.2610077075	-0.391701423	-0.0328472004	-0.383939
H	 0.9784101152	 1.7501840959	-0.0668377605	 0.174798
H	-0.5631893813	 1.7701835944	-0.9614450101	 0.133838
H	-0.5679430051	 1.7980190765	 0.8185994374	 0.13379
H	-1.8326075722	-0.7183248275	 0.8565407096	 0.148322
H	-1.8322575286	-0.7476997824	-0.9170769332	 0.148377
H	-0.5737929785	-4.1496654056	 0.0258560024	 0.240226
101.4307	116.3689	171.8398	190.5151	284.7765	375.8733	547.1801	553.6749	600.5322	689.0669	757.8629	831.7019	898.5079	903.032	1028.071	1030.1527	1055.1358	1122.3308	1153.1957	1201.2401	1264.1574	1327.2993	1337.7167	1434.4725	1454.4659	1491.0115	1503.3778	1534.5547	1800.8264	1911.02	3019.7878	3024.5564	3052.0045	3073.9573	3152.7241	3488.3966
CN1CC(=N)OC1=O	CN1C[C]([NH])OC1=O	
InChI=1S/C4H6N2O2/c1-6-2-3(5)8-4(6)7/h5H,2H2,1H3	InChI=1S/C4H6N2O2/c1-6-2-3(5)8-4(6)7/h5H,2H2,1H3
