15
gdb 125078	3.21674	1.30787	0.93526	5.6267	71.48	-0.2321	-0.0272	0.2049	1178.0512	0.113863	-450.15814	-450.14995	-450.149006	-450.191611	29.08	
C	-0.0191079141	 1.5448704237	 0.1200215133	-0.523886
C	-0.0098067397	 0.0563113593	 0.0036019257	 0.216951
C	 0.0086756107	-0.7508205608	-1.1167563192	 0.382439
N	 0.0244690374	-0.4392923523	-2.4726638691	-0.408869
C	 0.0418536495	-1.3574817126	-3.4852684262	 0.149816
O	 0.0457807579	-2.5608443273	-3.322988483	-0.321006
N	 0.0093007043	-2.0149936104	-0.6378538173	-0.22817
N	-0.0086968767	-2.0143502011	 0.7099608705	-0.124702
N	-0.0194271077	-0.7691850149	 1.0901943662	-0.239538
H	 0.8663192642	 2.0033340944	-0.3365223961	 0.12656
H	-0.9044761591	 1.9931804441	-0.3466352699	 0.126994
H	-0.0267497857	 1.8146090003	 1.1779894103	 0.161806
H	 0.0227382986	 0.5397037933	-2.7145324965	 0.273367
H	 0.0522406819	-0.8771470707	-4.4786627893	 0.105714
H	 0.0207518586	-2.8596520652	-1.1919165293	 0.302525
72.2887	84.7987	173.8252	208.6514	248.4718	275.0759	396.8797	430.2702	546.6387	617.1339	641.7944	700.7146	718.2364	753.6013	884.7396	985.2529	1011.6185	1031.5624	1062.6751	1069.0041	1141.457	1214.5974	1250.9159	1313.549	1368.3202	1415.9996	1429.4746	1479.8744	1488.7586	1500.2518	1541.5503	1656.225	1786.1763	2993.1989	3023.6319	3070.9853	3133.6265	3625.9938	3632.1999
CC1=C(NC=O)NN=N1	Cc1c(NC=O)[nH]nn1	
InChI=1S/C4H6N4O/c1-3-4(5-2-9)7-8-6-3/h2H,1H3,(H2,5,6,7,8,9)	InChI=1S/C4H6N4O/c1-3-4(5-2-9)7-8-6-3/h2H,1H3,(H2,5,6,7,8,9)
