15
gdb 14318	5.55503	1.66459	1.37508	8.1731	71.87	-0.1685	-0.0236	0.1449	871.2701	0.120238	-362.595893	-362.589498	-362.588554	-362.62622	25.379	
O	 0.1490835492	 0.0176753471	-0.0483839849	-0.427516
C	-0.0279253309	 1.2293121733	 0.0209008087	 0.377489
C	-1.2146526085	 2.0077265106	 0.0530214846	-0.39295
H	-2.2095658856	 1.7138534503	-0.2391888591	 0.099216
N	-0.8639286384	 3.3974982665	-0.0078743331	-0.069411
H	-1.210448191	 3.8706881574	-0.8466290739	 0.277482
C	-0.8511801907	 4.45760044	 1.1472097282	-0.165079
C	 0.6158582914	 4.8138871985	 0.8065900531	-0.30924
C	 0.6375916527	 3.4826735542	 0.0854820779	 0.165566
C	 1.1145610178	 2.2474984872	 0.1679148621	-0.253847
H	-1.6279775605	 5.2124542653	 1.0230903914	 0.136236
H	-0.9635693362	 3.9059166916	 2.0784538366	 0.164062
H	 0.7145324713	 5.6939564168	 0.1638733273	 0.126945
H	 1.2954386668	 4.9080060824	 1.6530717735	 0.145732
H	 2.1301205125	 1.9560269187	 0.3972703677	 0.125317
137.723	218.718	325.127	361.4455	456.3078	497.5657	593.0589	674.3541	710.315	715.6072	784.115	811.986	837.6101	848.7807	905.7343	949.1436	1023.6509	1029.9773	1060.9179	1119.5919	1159.9035	1165.2941	1184.3119	1214.5732	1252.4998	1267.0387	1309.0048	1367.712	1477.7283	1496.0369	1698.1937	1750.1039	3059.6437	3097.6459	3139.8607	3186.2793	3243.0328	3259.6164	3388.0593
O=C1[CH-][NH+]2CCC2=C1	O=C1[CH][N@H]2CC[C]2[CH]1	
InChI=1S/C6H7NO/c8-6-3-5-1-2-7(5)4-6/h3-4,7H,1-2H2	InChI=1S/C6H7NO/c8-6-3-5-1-2-7(5)4-6/h3-4,7H,1-2H2
