18
gdb 42434	4.58622	0.73755	0.65407	3.0105	79.95	-0.2502	0.0012	0.2514	1673.3549	0.145186	-401.915063	-401.905359	-401.904415	-401.951695	34.025	
O	-0.1855557399	-0.0007897329	-0.1520518815	-0.332708
C	-0.1028721633	 1.1712526269	 0.1433035075	 0.37436
C	 1.2108390604	 1.9376564217	 0.1782105121	-0.301832
C	 2.4157255389	 1.0294915864	-0.1162087933	-0.353269
C	 3.6742253699	 1.7644407207	-0.1154292355	 0.283375
C	 4.6986597686	 2.3932870833	-0.1101725846	-0.428786
N	-1.2056330715	 1.9129608255	 0.5671172179	-0.080632
C	-1.7643439027	 3.0590254745	-0.1297991092	-0.235229
C	-2.5159155106	 1.7648911109	-0.018283416	-0.217199
H	 1.1665620894	 2.7549244656	-0.5519470433	 0.131906
H	 1.3139669074	 2.4200348104	 1.1557909696	 0.143055
H	 2.4488598497	 0.222735633	 0.6243092395	 0.146806
H	 2.2659689225	 0.533806453	-1.081362384	 0.146481
H	 5.6130967671	 2.9325791777	-0.1084429985	 0.192652
H	-2.03770749	 3.908794661	 0.4895414227	 0.130846
H	-1.3504014749	 3.3146854236	-1.1026196923	 0.130599
H	-2.5909304521	 1.1391513407	-0.9034281212	 0.139513
H	-3.3419439589	 1.680527538	 0.6816303601	 0.130063
19.9446	58.422	88.9621	115.6376	208.2883	214.0927	269.2397	346.2219	403.8546	504.2362	584.3154	613.689	619.1994	642.7468	779.7374	787.2211	817.285	929.0252	965.3628	980.3967	1034.3881	1042.4766	1059.5191	1123.0448	1132.1971	1139.3128	1167.6012	1177.5412	1180.7515	1285.6508	1301.1356	1366.2583	1408.0564	1456.9114	1471.5527	1498.1753	1524.6514	1786.1421	2240.0928	3040.7103	3050.7629	3072.5296	3092.6345	3105.093	3117.8341	3190.0676	3208.7757	3507.5087
O=C(CCC#C)N1CC1	O=C(CCC#C)N1CC1	
InChI=1S/C7H9NO/c1-2-3-4-7(9)8-5-6-8/h1H,3-6H2	InChI=1S/C7H9NO/c1-2-3-4-7(9)8-5-6-8/h1H,3-6H2
