17
gdb 71180	2.69748	1.66133	1.35035	1.8668	77.43	-0.2326	0.0398	0.2724	1001.1319	0.134142	-384.592609	-384.584744	-384.5838	-384.624668	31.107	
C	-0.0805871907	 1.5073407817	 0.0275809984	-0.512394
C	 0.0897472894	 0.0240304456	 0.0928175007	 0.416104
O	-1.1572654802	-0.7225002911	 0.1881635107	-0.314437
C	-0.407982751	-1.7492165755	 0.8302905161	 0.101244
C	 0.9301365063	-1.8963398907	 0.0910602795	-0.127555
C	 0.7384508836	-0.8830300322	 1.2145797467	-0.229438
C	 0.9087039824	-0.7947326472	-0.9764347273	-0.222299
C	 0.319715604	-1.0238351994	-2.2818362453	 0.316169
C	-0.1565370576	-1.2018317924	-3.3715903514	-0.439614
H	 0.8925579484	 2.0059602266	-0.0085790916	 0.124316
H	-0.6410907216	 1.774185467	-0.8745157189	 0.145874
H	-0.6319545938	 1.8719406111	 0.8985965883	 0.134531
H	-0.930028722	-2.5492897654	 1.3369616775	 0.112395
H	 1.5153834107	-2.8063948514	 0.0954961748	 0.098495
H	 1.2744837311	-0.6869067202	 2.1323018892	 0.102268
H	 1.9086132352	-0.357831976	-1.0687048819	 0.102109
H	-0.5894628643	-1.3649507506	-4.3272504754	 0.192232
118.9701	134.0962	198.8359	268.1433	301.3749	370.8662	439.255	546.4814	599.5651	623.6432	636.5689	683.8117	765.8345	776.7757	795.964	809.3457	834.2702	879.8093	933.0643	961.8088	996.4177	1026.7358	1032.9672	1036.0178	1097.1801	1112.7718	1126.6108	1176.6989	1180.0447	1278.2835	1325.3624	1352.3376	1371.0894	1418.3097	1477.625	1487.7172	2233.4388	3040.5501	3056.7119	3113.363	3121.0158	3203.6905	3209.0012	3224.9854	3504.092
CC12OC3C(C13)C2C#C	C[C@]12O[C@H]3[C@H]([C@@H]13)[C@H]2C#C	
InChI=1S/C8H8O/c1-3-4-5-6-7(5)9-8(4,6)2/h1,4-7H,2H3	InChI=1S/C8H8O/c1-3-4-5-6-7(5)9-8(4,6)2/h1,4-7H,2H3/t4-,5+,6-,7+,8-/m1/s1
