21
gdb 121160	3.38708	0.92839	0.808	1.944	79.86	-0.2254	0.0786	0.304	1491.5716	0.180791	-424.175761	-424.166177	-424.165232	-424.211215	34.556	
C	 0.0036826035	 1.3688684415	 0.0536849051	-0.226816
O	-0.0059405789	-0.0343968621	 0.1626698622	-0.2349
C	-1.2389226463	-0.6087621469	-0.2126926182	-0.066495
C	-1.1328437167	-2.1098760111	-0.0271557118	-0.156205
C	-1.126598987	-2.6057565707	 1.4352501848	-0.079856
O	-2.4066806989	-3.2620730142	 1.2653489975	-0.308611
C	-2.4394942045	-2.8972072945	-0.1146023482	 0.458305
C	-3.7252021856	-2.5915985157	-0.8127465	-0.340536
C	-2.9278322727	-3.843449485	-1.160250993	-0.334709
H	 0.9915051757	 1.7152668062	 0.3670140039	 0.128304
H	-0.1771446872	 1.6997774643	-0.9814755396	 0.103811
H	-0.758068094	 1.8345300551	 0.6989398365	 0.105242
H	-2.0601273334	-0.2075710442	 0.4058241889	 0.092585
H	-1.475921444	-0.364249285	-1.263202932	 0.084073
H	-0.3185643481	-2.502268972	-0.6409241446	 0.0876
H	-0.3355649895	-3.3196569454	 1.6897326134	 0.104887
H	-1.1659997358	-1.82010506	 2.1977665298	 0.107342
H	-4.634680232	-2.7243217122	-0.2364822552	 0.125426
H	-3.7586017573	-1.7794654217	-1.5319494778	 0.113357
H	-2.4099568338	-3.8815280832	-2.1135853269	 0.112936
H	-3.3191209634	-4.7944626331	-0.8151910447	 0.124259
49.55	81.933	100.9412	112.9597	218.8013	245.0257	256.36	335.3398	370.6608	449.4963	523.7848	571.4528	757.1636	837.9762	873.1119	878.3184	899.4977	934.4649	947.3191	983.6898	1013.3905	1030.5192	1049.1081	1066.3552	1109.8191	1143.8876	1156.0748	1172.1831	1186.773	1194.6402	1217.4895	1222.5641	1241.8258	1263.0504	1338.729	1352.8758	1389.7304	1426.2615	1447.0911	1480.4055	1484.3276	1494.1938	1503.0415	1522.9269	1531.175	2943.7873	2970.5051	2975.0296	3013.2871	3028.7502	3071.617	3087.2698	3114.5282	3125.462	3129.0225	3209.1459	3223.3913
COCC1COC11CC1	COC[C@H]1COC21CC2	
InChI=1S/C7H12O2/c1-8-4-6-5-9-7(6)2-3-7/h6H,2-5H2,1H3	InChI=1S/C7H12O2/c1-8-4-6-5-9-7(6)2-3-7/h6H,2-5H2,1H3/t6-/m0/s1
