18
gdb 53571	4.6793	0.69883	0.63479	2.8545	83.13	-0.2503	0.0276	0.2779	1762.7915	0.146125	-401.929328	-401.919737	-401.918793	-401.965869	33.392	
C	-0.0655096405	 1.5223289392	 0.1083758349	-0.497073
C	-0.0428800605	 0.0817363181	-0.0995743433	 0.099381
C	-0.0167595016	-1.109711072	-0.2674763268	 0.042776
C	-0.0144654284	-2.5542704036	-0.4642721541	-0.369063
C	-1.2915801416	-3.2293231769	 0.0260562983	 0.14195
C	-1.3065001049	-4.772347035	 0.0729531126	-0.387053
C	-1.443370887	-4.5667202325	 1.5667840144	 0.441582
N	-1.5526250929	-5.3251279142	 2.5583098877	-0.538855
O	-1.4160936649	-3.1887113712	 1.4877129385	-0.256451
H	 0.8532683185	 1.867499387	 0.5950799272	 0.149964
H	-0.1615930522	 2.0620955712	-0.8401436077	 0.147204
H	-0.9072566777	 1.8168092494	 0.7446799837	 0.151398
H	 0.0990576535	-2.791984192	-1.5313448403	 0.132722
H	 0.8411874925	-3.0113235823	 0.0496445881	 0.134088
H	-2.1738188577	-2.7700770705	-0.4273718209	 0.104142
H	-2.1558541343	-5.262978876	-0.4040852402	 0.138746
H	-0.3807857594	-5.2621374205	-0.2370086427	 0.135857
H	-1.6305519108	-4.7903842681	 3.4252616606	 0.228685
26.2166	48.9395	81.1237	107.6748	209.0243	250.8491	314.5509	382.2823	389.3898	453.3932	494.6484	516.3068	717.1022	766.9531	829.0067	865.3315	874.063	947.9888	989.6344	1024.7304	1040.1805	1052.8338	1055.3159	1087.7129	1141.8995	1170.2798	1219.2205	1238.4874	1251.0181	1295.0621	1357.49	1395.7335	1415.3089	1457.6488	1464.791	1478.3955	1478.5817	1827.4569	2378.1805	3010.6276	3028.0447	3045.7647	3082.6496	3084.6134	3088.7049	3089.9184	3140.91	3475.5517
CC#CCC1CC(=N)O1	CC#CC[C@H]1C[C]([NH])O1	
InChI=1S/C7H9NO/c1-2-3-4-6-5-7(8)9-6/h6,8H,4-5H2,1H3	InChI=1S/C7H9NO/c1-2-3-4-6-5-7(8)9-6/h6,8H,4-5H2,1H3/t6-/m0/s1
