21
gdb 40362	3.60165	1.22659	1.15952	1.729	81.82	-0.2611	0.0866	0.3477	1154.5005	0.18496	-387.060153	-387.052568	-387.051624	-387.092438	30.679	
C	 0.1800717386	 1.4678626532	-0.0370285839	-0.185107
O	 1.2022376897	 0.4833659904	-0.1917553096	-0.238011
C	-0.1441114068	 0.0345959165	 0.0201775535	-0.057132
C	-0.4321809599	-0.7074747598	 1.2852844721	 0.37945
C	-1.8985169613	-1.0151002403	 1.7304094533	-0.2678
C	-1.2028144035	-2.1288456832	 2.5646190778	-0.019258
C	-0.2087755845	-2.253085258	 1.3770962558	-0.259965
C	-0.3817952258	-1.307834295	 3.5776455945	-0.217307
C	 0.201142782	-0.2259511274	 2.6094491306	-0.266185
H	 0.2305507175	 2.052524964	 0.8793319223	 0.112084
H	-0.0631927163	 2.0354192697	-0.9346989568	 0.111935
H	-0.5977535403	-0.4015559891	-0.8728000398	 0.081874
H	-2.447229205	-0.2308051231	 2.2617396805	 0.087519
H	-2.5079625647	-1.4160011867	 0.9163002426	 0.094221
H	-1.7552798835	-2.9886425614	 2.9441063334	 0.058869
H	-0.633069196	-2.7841799953	 0.5210762095	 0.092813
H	 0.8044774607	-2.612174436	 1.5805389748	 0.094227
H	-1.0051312094	-0.8743612945	 4.3651520574	 0.09437
H	 0.3985144983	-1.9045166415	 4.0589242009	 0.097291
H	 1.2921865215	-0.231687325	 2.5608133113	 0.113275
H	-0.1200476113	 0.7845208325	 2.8786022297	 0.092836
61.9141	170.5657	200.5948	292.6262	370.1304	412.3038	483.5353	501.9201	600.0371	685.455	830.0209	831.7811	837.7312	849.3666	880.7173	902.409	913.9718	943.2211	964.3236	975.5785	987.8393	1008.7143	1041.0586	1087.4502	1097.7726	1119.6667	1132.1999	1149.3741	1160.1807	1176.2404	1201.7133	1239.2044	1242.3646	1249.8949	1268.7231	1275.5457	1301.0893	1319.6893	1354.5584	1444.0548	1485.568	1495.5973	1501.4905	1529.1518	1532.5834	3043.7179	3049.3038	3051.1943	3060.9115	3079.2511	3087.1533	3089.5244	3105.9608	3109.7836	3113.7722	3115.0203	3172.4643
C1OC1C12CC(C1)CC2	C1O[C@H]1[C@@]12C[C@@H](C1)CC2	
InChI=1S/C8H12O/c1-2-8(7-5-9-7)3-6(1)4-8/h6-7H,1-5H2	InChI=1S/C8H12O/c1-2-8(7-5-9-7)3-6(1)4-8/h6-7H,1-5H2/t6-,7-,8-/m1/s1
