20
gdb 68652	4.00925	1.05665	0.97256	3.4575	81.28	-0.2478	0.028	0.2758	1280.5803	0.170811	-403.136383	-403.127542	-403.126598	-403.17049	33.459	
C	-0.0017846636	 1.4714606877	-0.0159459166	-0.507996
C	-0.0003701684	-0.0320687564	 0.0040082906	 0.342228
C	 0.6193668612	-0.9894956277	-1.0696130265	-0.328541
C	 0.0104217171	-1.9073527585	 0.0132454087	 0.443047
C	 0.6326351308	-0.9651125684	 1.0843539471	-0.285742
C	-1.240240628	-0.9812375303	 0.0176863642	-0.285361
N	 0.0367981417	-3.3361725613	-0.0126366013	-0.435039
C	-0.5186293435	-4.1068993437	 0.9620233476	 0.127751
O	-1.0880593104	-3.680200483	 1.9435612568	-0.321797
H	 1.0194421111	 1.8677891012	-0.0267657089	 0.118708
H	-0.5199686275	 1.8547602988	-0.9017540624	 0.118733
H	-0.507832119	 1.8732217154	 0.8684099598	 0.123555
H	 0.1363363784	-0.9998343007	-2.05194636	 0.089142
H	 1.7107573098	-0.9862201321	-1.1550446228	 0.08904
H	 1.7248097773	-0.9613483645	 1.1530143818	 0.083718
H	 0.1599495413	-0.9786664239	 2.0676027187	 0.113233
H	-1.8445783142	-0.9962227206	 0.9259071475	 0.113438
H	-1.8563884659	-0.9922174266	-0.8866422691	 0.083773
H	 0.4887859663	-3.7956317109	-0.7874190914	 0.246727
H	-0.3910207545	-5.1892368145	 0.7560469363	 0.071383
32.0861	121.5698	171.2172	208.1392	246.7932	268.0801	378.8607	388.0589	502.9134	548.3685	558.5442	561.3173	635.3045	754.8356	770.9628	852.9918	935.4765	963.6635	966.1923	984.8157	986.3564	1031.2519	1084.8904	1085.6545	1090.5069	1131.1242	1141.3746	1160.4649	1166.5821	1187.0313	1209.9018	1220.538	1301.6888	1351.1872	1415.8526	1432.6597	1490.1194	1490.8876	1497.091	1497.632	1504.7579	1564.5938	1803.5599	2925.367	3027.6351	3035.3741	3049.1803	3056.7601	3094.0512	3096.9954	3101.1614	3130.8146	3135.2534	3628.7779
CC12CC(C1)(C2)NC=O	C[C@@]12C[C@@](C1)(C2)NC=O	
InChI=1S/C7H11NO/c1-6-2-7(3-6,4-6)8-5-9/h5H,2-4H2,1H3,(H,8,9)	InChI=1S/C7H11NO/c1-6-2-7(3-6,4-6)8-5-9/h5H,2-4H2,1H3,(H,8,9)/t6-,7-
