23
gdb 61675	3.84595	0.74783	0.65883	2.8413	87.36	-0.243	-0.0171	0.226	1733.4625	0.204245	-388.294929	-388.28473	-388.283786	-388.331532	36.736	
C	-0.0091470241	 1.5960337479	 0.2031729024	-0.406569
C	-0.0492276832	 0.0640482137	 0.0676183568	-0.062448
C	 0.6276584283	-0.4605761257	-1.2200758368	-0.227226
C	-0.0506272747	-0.0630773557	-2.5291477747	 0.053881
C	 0.1849400473	 1.3399865884	-3.1680626872	-0.215053
C	 0.2401111537	 0.6576305199	-4.5599197703	-0.220257
C	 0.5014973927	-0.6923322546	-3.8409266366	-0.231596
C	 0.6505395447	-0.5565188766	 1.260863221	 0.157847
O	 0.1587522889	-1.3410562021	 2.0300952006	-0.250515
H	 1.0229435666	 1.9651186281	 0.204702918	 0.118827
H	-0.5339628255	 2.0785566954	-0.6239258025	 0.133765
H	-0.4833683238	 1.9195564647	 1.1350976965	 0.125804
H	-1.0872969558	-0.2861766541	 0.0950720675	 0.092534
H	 1.6772156075	-0.1334528163	-1.242118813	 0.092527
H	 0.6505253729	-1.5578636228	-1.171010651	 0.109724
H	-1.1276530504	-0.2579209909	-2.4566306616	 0.072219
H	-0.5718836284	 2.1125271294	-3.0101443288	 0.096658
H	 1.1600666857	 1.7471861689	-2.8806103389	 0.098291
H	-0.7346892426	 0.6701195563	-5.0558337268	 0.103381
H	 0.9927346419	 1.0099422812	-5.2688458634	 0.097585
H	 1.5736191218	-0.900066488	-3.7551862505	 0.098441
H	 0.0054871158	-1.5878312594	-4.2236625992	 0.097361
H	 1.7117355308	-0.2263113679	 1.3818245186	 0.064821
36.2136	52.4039	88.969	132.0054	180.3436	214.3049	260.5492	281.3225	362.323	381.6396	412.3159	566.8672	635.7606	762.1271	784.8369	843.4399	883.2049	897.1298	915.9609	936.8266	951.9037	964.4367	989.5291	1013.8457	1058.1205	1113.8407	1125.2993	1155.3264	1178.2927	1202.3349	1225.4084	1256.1563	1259.2738	1264.3075	1275.181	1286.5666	1305.9083	1356.09	1356.697	1387.7981	1404.6411	1429.3939	1475.3153	1480.2696	1487.1475	1497.0407	1500.9495	1510.6454	1835.1745	2830.4226	3000.3998	3026.1376	3035.3999	3038.6396	3043.1063	3047.9382	3055.9619	3059.0361	3094.6826	3098.8424	3100.7348	3117.0305	3129.4248
CC(CC1CCC1)C=O	C[C@@H](CC1CCC1)C=O	
InChI=1S/C8H14O/c1-7(6-9)5-8-3-2-4-8/h6-8H,2-5H2,1H3	InChI=1S/C8H14O/c1-7(6-9)5-8-3-2-4-8/h6-8H,2-5H2,1H3/t7-/m0/s1
