14
gdb 133212	3.23451	1.3588	0.96247	1.4179	69.48	-0.2446	-0.0542	0.1903	1122.7671	0.099819	-477.95611	-477.948466	-477.947522	-477.988411	28.598	
C	-0.0344028728	 1.4729904897	 0.0391733944	-0.451005
C	-0.00862293	-0.0254029095	 0.0295999734	 0.353064
N	-0.040453453	-0.5702959285	-1.136355671	-0.143048
O	-0.0179445247	-1.9875522215	-1.1980690141	-0.253262
C	 0.0341920963	-2.6846509608	-0.06990937	 0.432148
F	 0.0469556736	-3.9685163071	-0.340663316	-0.031945
C	 0.0696219221	-2.1863575264	 1.1741741901	-0.439127
C	 0.0499342193	-0.7489073253	 1.3248246819	 0.26023
N	 0.075868592	-0.0485442929	 2.4018985732	-0.529951
H	 0.8535567487	 1.851647255	 0.5530429523	 0.157469
H	-0.077169158	 1.8593525976	-0.9793147305	 0.141617
H	-0.8964987218	 1.8211411542	 0.614935273	 0.157466
H	 0.1113651929	-2.8550601749	 2.0232920663	 0.128647
H	 0.1155454155	-0.6546339995	 3.224119377	 0.217697
95.4054	171.4423	183.1447	305.7814	339.106	359.961	417.586	453.3585	513.0661	564.2462	668.9048	720.2682	745.1813	761.6395	813.1493	899.6466	901.2629	1003.2847	1046.4824	1059.0901	1121.8346	1229.314	1254.5464	1368.8186	1408.4625	1440.7184	1460.5032	1464.0011	1647.8436	1668.9396	1716.7305	3057.5849	3119.9541	3160.5978	3224.9454	3448.4819
CC1=NOC(F)=CC1=N	CC1=NO[C](F)C=C1[NH]	
InChI=1S/C5H5FN2O/c1-3-4(7)2-5(6)9-8-3/h2,7H,1H3	InChI=1S/C5H5FN2O/c1-3-4(7)2-5(6)9-8-3/h2,7H,1H3
