19
gdb 23200	2.285	1.40237	0.9666	2.0776	80.31	-0.227	0.012	0.239	1253.5287	0.158182	-419.122515	-419.113423	-419.112479	-419.156439	34.124	
C	-0.3633740268	 1.4995057658	-0.0755369561	-0.378949
C	 0.1119552683	 0.0502810017	 0.10638171	-0.315135
C	 0.848218697	-0.4725804645	-1.0902113897	 0.257603
N	 0.1415990332	-0.8770862509	-2.3571478671	-0.366156
C	 1.0244693284	-1.8458529488	-1.6782384187	-0.127607
C	 2.4520350264	-1.5223228262	-2.1594367783	-0.32152
C	 2.2443438631	-0.1457163281	-1.5253606387	 0.432692
N	 2.9669512291	 0.8513311798	-1.2338261487	-0.270223
O	 4.2692536825	 0.7018075285	-1.7495373504	-0.390158
H	 0.4884265602	 2.1606837873	-0.2564352367	 0.146466
H	-1.0438756002	 1.5872458514	-0.9282716841	 0.121728
H	-0.8887324779	 1.8508480024	 0.817457224	 0.110692
H	 0.7726090685	-0.0118065506	 0.9794140195	 0.113407
H	-0.7433954888	-0.6068010452	 0.3121799397	 0.093907
H	-0.8157031917	-1.0965649145	-2.0750920102	 0.227148
H	 0.6515785616	-2.7941924402	-1.3124675696	 0.102726
H	 3.2415408604	-2.0823215089	-1.6507817368	 0.127353
H	 2.608088537	-1.5537674183	-3.2399132012	 0.130004
H	 4.6975985296	 1.5123304994	-1.4543902268	 0.306021
75.661	111.1705	154.6317	182.3828	228.2984	287.3335	323.4664	367.1176	443.5996	456.8717	509.1292	554.4369	678.3531	707.4842	780.0902	815.9484	864.2245	890.1542	938.9824	969.5666	986.2393	1010.3469	1038.1958	1084.061	1096.9951	1110.7609	1124.078	1169.8151	1215.3453	1263.811	1300.757	1345.1029	1355.6541	1394.2322	1410.066	1440.8434	1467.723	1475.3056	1496.3261	1510.5338	1791.2538	3018.2269	3041.4999	3058.5104	3067.6075	3111.0835	3123.5631	3123.9488	3197.8144	3446.6343	3818.557
CCC12NC1CC2=NO	CC[C@]12N[C@H]1CC2=NO	
InChI=1S/C6H10N2O/c1-2-6-4(7-6)3-5(6)8-9/h4,7,9H,2-3H2,1H3	InChI=1S/C6H10N2O/c1-2-6-4(7-6)3-5(6)8-9/h4,7,9H,2-3H2,1H3/t4-,6-/m0/s1
