18
gdb 74577	3.5151	1.2651	1.03696	3.7029	79.79	-0.211	0.002	0.213	1176.6762	0.14847	-401.980562	-401.972627	-401.971683	-402.013188	30.264	
C	 0.1130572684	 1.540863367	 0.037782254	-0.488034
C	 0.0277046232	 0.0514400101	-0.0312694602	 0.301149
C	-0.0002626204	-0.7076537978	-1.1322346635	-0.174055
N	-0.0594789081	-2.0935765156	-0.8222759212	-0.102725
C	 0.0507456368	-2.2531460843	 0.6577122426	 0.040153
C	-1.147020823	-3.2401252303	 0.6106048636	-0.401208
C	-1.219702971	-2.9049670149	-0.8960896657	 0.398469
O	-1.9549074081	-3.1531112272	-1.8057337236	-0.323637
C	-0.0826108337	-0.8183400938	 1.2194170598	-0.347084
H	 1.0123854369	 1.869702624	 0.574538777	 0.126739
H	 0.1329675532	 1.9889564603	-0.9593264921	 0.129384
H	-0.7441257139	 1.9595427931	 0.580963776	 0.127636
H	 0.0110211496	-0.388198626	-2.1652899102	 0.126438
H	 0.9986981252	-2.7134161028	 0.9473496187	 0.092222
H	-0.9345341156	-4.2819709698	 0.8595843483	 0.133706
H	-2.0406390665	-2.9158255847	 1.1491950836	 0.136371
H	 0.7035194544	-0.5981388367	 1.9494358109	 0.113967
H	-1.0396133573	-0.6403483107	 1.731377432	 0.110509
100.0138	101.4536	188.2164	255.309	291.9759	361.9118	423.6791	486.5064	543.6293	573.8168	635.7283	713.1492	834.391	845.7948	857.0891	885.3007	902.5629	996.2692	1012.4921	1028.648	1053.0698	1062.1809	1091.7984	1123.0104	1196.2481	1199.6075	1230.3016	1249.0937	1264.1181	1288.788	1327.8262	1373.7271	1416.3042	1448.0838	1475.464	1488.5912	1491.0646	1705.3917	1890.585	3001.9075	3014.2618	3055.8544	3057.5503	3074.5807	3077.7991	3110.7496	3132.8366	3231.8608
CC1=CN2C(CC2=O)C1	CC1=CN2[C@H](CC2=O)C1	
InChI=1S/C7H9NO/c1-5-2-6-3-7(9)8(6)4-5/h4,6H,2-3H2,1H3	InChI=1S/C7H9NO/c1-5-2-6-3-7(9)8(6)4-5/h4,6H,2-3H2,1H3/t6-/m0/s1
