15
gdb 66392	2.40089	1.53149	1.28316	3.5801	71.2	-0.2652	-0.0457	0.2196	1031.145	0.111329	-416.792607	-416.784363	-416.783419	-416.82558	30.013	
C	 0.0045279901	 1.5496809373	 0.0466853359	-0.501923
C	-0.0234131547	 0.0551435762	-0.0381527881	 0.18363
C	-0.8639966997	-0.8079873851	 0.8598883563	-0.199814
C	-1.6959100821	-1.8887935167	 0.3844413177	 0.308344
N	-2.370051908	-2.7604138358	 0.0335589329	-0.330597
N	 0.600103798	-0.9179067142	 0.9703237402	-0.158151
C	 1.042341139	-1.8237166881	-0.1544588462	-0.301567
C	 0.5210732763	-0.7896511142	-1.170184909	 0.371899
O	 0.7033884868	-0.5755128675	-2.3302376376	-0.286475
H	 0.9604820187	 1.9370145647	-0.3167842691	 0.149083
H	-0.7908958049	 1.9760577014	-0.5725187745	 0.153528
H	-0.1398085884	 1.8859720344	 1.0767635958	 0.14238
H	-1.2986504738	-0.2807950583	 1.7056511924	 0.152978
H	 2.1325974892	-1.8899607077	-0.1760147665	 0.154119
H	 0.6055887635	-2.8241299966	-0.1407619699	 0.162565
92.5428	133.235	147.556	192.1951	246.1394	317.3662	396.324	467.8955	485.6936	584.4022	601.608	639.2521	681.2185	765.9498	842.1805	892.3739	967.3965	990.6314	1037.2491	1049.5608	1080.8128	1114.3064	1160.7051	1244.1491	1280.3156	1297.6258	1401.8263	1417.2383	1463.3977	1478.316	1487.7724	1901.667	2353.3321	3045.4555	3078.5437	3116.5206	3126.3455	3140.3177	3148.2483
CC12C(C#N)N1CC2=O	C[C@]12[C@@H](C#N)N1CC2=O	
InChI=1S/C6H6N2O/c1-6-4(2-7)8(6)3-5(6)9/h4H,3H2,1H3	InChI=1S/C6H6N2O/c1-6-4(2-7)8(6)3-5(6)9/h4H,3H2,1H3/t4-,6-,8?/m1/s1
