17
gdb 26210	3.90505	1.12756	0.88704	2.5043	73.06	-0.1834	0.0388	0.2222	1277.8061	0.135701	-455.17198	-455.162861	-455.161917	-455.20604	32.622	
C	 0.1215218016	 1.4058302088	-0.0231333111	-0.332548
N	-0.1505565779	-0.0206806426	-0.0490612992	-0.170986
C	 0.0659607104	-0.7610289874	 1.1816121312	-0.341109
C	-0.0525037311	-0.6581649399	-1.2480323786	 0.550102
N	 0.0457700364	-0.1086050519	-2.4316302556	-0.467626
C	 0.0389345874	-1.1916845002	-3.2920111229	 0.333108
O	 0.1213887366	-1.0115117591	-4.6239720917	-0.43319
C	-0.0507639075	-2.3523592689	-2.6071419533	-0.180775
O	-0.1049825527	-2.0016276905	-1.2522573888	-0.210145
H	 1.1951845913	 1.6236564427	 0.0809128069	 0.118916
H	-0.2329399966	 1.8556215161	-0.950198277	 0.16415
H	-0.4071806514	 1.8544492932	 0.8230524537	 0.123898
H	-0.4510435885	-0.2484671208	 1.9979361534	 0.128167
H	-0.3413474737	-1.7670772936	 1.0868009619	 0.157558
H	 1.1324994402	-0.8381994078	 1.4434452676	 0.120855
H	 0.1706541012	-0.0586559601	-4.7652353393	 0.302508
H	-0.0736384456	-3.398245558	-2.8433879572	 0.137116
73.6261	109.9385	151.9138	168.3851	209.4649	253.7133	343.5189	357.332	376.5879	402.5639	559.0516	578.0064	591.2426	684.327	730.5468	760.121	932.865	1016.433	1042.2818	1087.062	1093.3716	1131.0177	1173.1667	1178.2669	1247.5449	1281.8923	1297.9433	1389.0176	1442.5301	1448.3307	1471.7816	1486.0761	1497.8581	1502.4538	1517.8183	1665.4917	1715.6409	2988.0132	2995.0271	3081.4982	3083.29	3155.2778	3156.1764	3326.904	3810.5654
CN(C)C1=NC(O)=CO1	CN(C)c1nc(O)co1	
InChI=1S/C5H8N2O2/c1-7(2)5-6-4(8)3-9-5/h3,8H,1-2H3	InChI=1S/C5H8N2O2/c1-7(2)5-6-4(8)3-9-5/h3,8H,1-2H3
