19
gdb 53451	4.46195	0.79755	0.71062	2.1329	80.79	-0.243	0.0505	0.2935	1602.321	0.159726	-423.004568	-422.995444	-422.9945	-423.041855	32.514	
C	-0.0150040895	 1.4750299062	 0.0040272349	-0.499143
C	 0.0103113293	 0.0192610027	 0.0032751522	 0.095038
C	 0.0383565927	-1.1849971596	-0.0091183134	 0.033816
C	 0.0519577965	-2.6403385657	 0.0091368771	-0.193948
C	 0.7431369017	-3.1955901306	 1.2748812725	-0.088156
O	 0.6582398223	-4.6107351863	 1.3020354683	-0.232712
C	-0.6759112098	-5.0415589592	 1.2490548001	 0.011492
O	-1.3263913515	-4.644838284	 0.070980624	-0.232722
C	-1.3748542576	-3.2319880324	-0.0389463059	-0.088155
H	 0.9426295835	 1.8893776702	-0.3299070934	 0.150292
H	-0.7930039639	 1.8590698803	-0.6649718735	 0.150056
H	-0.215660547	 1.8698790351	 1.0060420986	 0.148902
H	 0.5981377154	-3.0265477835	-0.8606356334	 0.114319
H	 1.803945609	-2.9372903852	 1.2910672966	 0.121613
H	 0.2653591288	-2.7626218641	 2.1691016103	 0.096616
H	-0.6617729955	-6.1328309002	 1.2564903625	 0.119292
H	-1.2280734786	-4.6560354089	 2.1285377348	 0.075167
H	-1.9744083833	-2.8010026367	 0.7796720324	 0.096678
H	-1.8667162625	-3.0004662179	-0.9859293846	 0.121555
3.0516	84.9069	86.6991	210.2099	264.843	287.8058	326.9939	381.96	437.6416	462.6278	495.0129	513.1149	638.9029	849.0394	897.0808	913.154	966.4584	974.9194	1052.8684	1053.7014	1059.4233	1085.9961	1096.0247	1160.435	1185.295	1214.1399	1230.6023	1294.9581	1317.9907	1319.2096	1341.2196	1370.2489	1413.1403	1416.6688	1442.9563	1478.0644	1478.4326	1494.1593	1494.9763	1511.2133	2369.3626	2913.5261	2973.0115	2979.676	3027.178	3033.0167	3088.1395	3088.4526	3106.6788	3108.2489	3118.1661
CC#CC1COCOC1	CC#CC1COCOC1	
InChI=1S/C7H10O2/c1-2-3-7-4-8-6-9-5-7/h7H,4-6H2,1H3	InChI=1S/C7H10O2/c1-2-3-7-4-8-6-9-5-7/h7H,4-6H2,1H3
