14
gdb 27588	3.79916	1.22094	0.92432	3.6548	82.01	-0.2408	-0.0473	0.1935	1179.6979	0.102557	-395.761632	-395.753993	-395.753049	-395.7936	29.265	
N	 0.0098732358	 1.3692197267	-0.1084371089	-0.56988
C	-0.0086222569	 0.0061968956	-0.0460103937	 0.416282
C	-1.2090686322	-0.7242764576	-0.0357886206	-0.257187
C	-1.1035363172	-2.1085258982	-0.0106339845	 0.186229
N	 0.0901629231	-2.743146563	 0.0007244839	-0.326352
C	 1.1509915294	-1.9443477828	-0.0115251847	 0.062088
N	 1.1816827632	-0.6123702055	-0.0302978123	-0.318072
C	-2.2825910206	-2.9188209411	 0.0042174513	 0.222515
C	-3.288302191	-3.5787007981	 0.0165179798	-0.36007
H	 0.8975295519	 1.8070642081	 0.0798833249	 0.264794
H	-0.8158687566	 1.885044582	 0.143370001	 0.260481
H	-2.1764440604	-0.23721022	-0.0494971382	 0.103843
H	 2.1205632387	-2.4382644158	-0.0011065551	 0.116286
H	-4.1669335671	-4.1754775203	 0.026918697	 0.199044
127.9859	146.8445	203.844	345.4059	353.6866	378.3435	470.2935	482.4433	511.1536	557.5597	579.6804	637.5136	650.9113	711.0508	799.5915	808.6599	880.3025	968.2991	997.6017	1005.1942	1064.1825	1183.8283	1273.3222	1308.9731	1370.7269	1443.9604	1499.8919	1573.6648	1615.9337	1647.8992	2234.9638	3155.607	3201.1527	3501.6348	3599.9629	3725.1318
NC1=CC(=NC=N1)C#C	Nc1cc(ncn1)C#C	
InChI=1S/C6H5N3/c1-2-5-3-6(7)9-4-8-5/h1,3-4H,(H2,7,8,9)	InChI=1S/C6H5N3/c1-2-5-3-6(7)9-4-8-5/h1,3-4H,(H2,7,8,9)
