15
gdb 48370	2.72111	1.26469	1.04701	2.1818	81.49	-0.2476	-0.0395	0.2081	1158.7255	0.108412	-383.416876	-383.407747	-383.406802	-383.450611	33.558	
O	-0.2932077053	 0.3640356762	-0.7261042873	-0.250763
C	 0.0819812575	 1.093120936	 0.1554815665	 0.090712
C	 1.3376186571	 1.916203651	 0.0839394643	 0.030371
C	 2.3253636247	 1.5559246526	-1.0140002405	-0.30978
C	 1.5280969088	 2.8078257619	-1.1995458034	-0.243877
C	 0.4990110423	 2.9198513646	-2.1860250058	 0.34902
C	-0.3524899949	 3.053711869	-3.0237868222	-0.429039
C	 1.8037520436	 2.4607937304	 1.324787534	 0.220423
C	 2.1676290608	 2.9038646976	 2.3822702067	-0.394719
H	-0.4849184678	 1.2157806692	 1.1006218764	 0.095585
H	 3.3778891721	 1.6514345113	-0.7781953998	 0.139128
H	 2.0333594471	 0.6992591124	-1.6102608611	 0.159199
H	 2.0408474599	 3.7353419262	-0.9641039741	 0.139376
H	-1.1078298083	 3.1536627625	-3.7634552669	 0.204175
H	 2.4965985724	 3.295186099	 3.3131630233	 0.200191
100.0973	115.5545	128.8327	162.3185	219.8234	272.0712	297.7853	450.551	502.7998	523.4961	537.3671	555.223	593.5913	617.4084	661.0169	666.1426	739.4941	749.1274	854.5834	934.7794	980.3467	1041.1091	1075.1761	1104.7702	1136.513	1244.024	1272.1155	1378.7319	1423.239	1462.8585	1814.8082	2234.0623	2242.3503	2927.6367	3149.0584	3161.0286	3251.9041	3501.1586	3504.2577
O=CC1(CC1C#C)C#C	O=C[C@]1(C[C@H]1C#C)C#C	
InChI=1S/C8H6O/c1-3-7-5-8(7,4-2)6-9/h1-2,6-7H,5H2	InChI=1S/C8H6O/c1-3-7-5-8(7,4-2)6-9/h1-2,6-7H,5H2/t7-,8-/m1/s1
