13
gdb 26570	2.46411	1.90717	1.07665	5.5125	65.31	-0.2071	-0.0392	0.1679	1006.1896	0.089867	-489.929221	-489.921456	-489.920512	-489.961373	28.874	
N	-0.0031458618	 1.4265589511	 0.1667966973	-0.592471
C	-0.0418197108	 0.0419080751	 0.0611212698	 0.025923
C	-1.1742551253	-0.6942565768	 0.0305056738	 0.394717
O	-2.411863373	-0.1698322567	 0.0275764576	-0.417028
O	-1.1592007483	-2.0529574146	-0.0108827038	-0.209794
C	 0.0591868086	-2.6559283079	-0.0177953567	 0.111637
N	 1.1879273289	-2.0785236955	-0.0088993885	-0.303223
C	 1.240021044	-0.6651714492	 0.0102074072	 0.370665
O	 2.2964714392	-0.0621171696	-0.0211192861	-0.367242
H	 0.9148374214	 1.7683751653	-0.0927362086	 0.265972
H	-0.7578309994	 1.9179342044	-0.2900889545	 0.253624
H	-3.0567265199	-0.8874602334	 0.0103005927	 0.313274
H	-0.0571636836	-3.7345716822	-0.0352549703	 0.153947
111.1529	187.9685	213.8844	268.6668	304.3678	348.2699	362.7555	514.6489	520.6977	525.312	585.6964	598.707	683.9397	721.0122	794.867	889.4244	931.1517	973.6175	1055.9055	1151.5382	1225.7303	1310.7326	1333.6502	1414.0133	1430.1238	1612.3813	1657.5181	1747.5854	1778.1072	3200.247	3533.5383	3649.0675	3810.6987
NC1=C(O)OC=NC1=O	Nc1c(O)ocnc1=O	
InChI=1S/C4H4N2O3/c5-2-3(7)6-1-9-4(2)8/h1,8H,5H2	InChI=1S/C4H4N2O3/c5-2-3(7)6-1-9-4(2)8/h1,8H,5H2
