19
gdb 114781	3.49613	1.36223	1.29135	2.3019	74.27	-0.2211	0.0848	0.3059	1064.3789	0.160059	-422.974906	-422.967348	-422.966404	-423.007077	29.631	
C	 0.0477459758	 1.4107131254	 0.0360844058	-0.232787
O	-0.1506823112	 0.023387726	-0.0874785767	-0.239873
C	 0.6005120926	-0.5734065137	-1.1265218493	 0.139279
C	 2.104936025	-0.8247484197	-0.776262501	-0.245361
C	 2.1646963969	-2.3290171644	-0.5473887737	 0.085364
O	 1.2763271766	-2.6403145242	 0.5773224669	-0.302637
C	 0.27338056	-3.0303274559	-0.3561744518	 0.120195
C	 1.1728554755	-2.9724981017	-1.548227312	-0.167935
C	 0.0497275677	-1.9628467349	-1.4122324715	-0.126431
H	 1.0818832228	 1.6665501108	 0.3139091207	 0.102677
H	-0.1946881944	 1.9419480932	-0.8990038769	 0.099019
H	-0.6200356947	 1.7644578192	 0.8255517308	 0.126929
H	 0.5212194326	 0.0552734928	-2.0278438615	 0.059929
H	 2.7589913401	-0.5359814631	-1.606901495	 0.095427
H	 2.4079513182	-0.2690083158	 0.1149364065	 0.116279
H	 3.1521316345	-2.7735219554	-0.4116780928	 0.079338
H	-0.4807515111	-3.7369163117	-0.0312602444	 0.103931
H	 1.3658792478	-3.6444092768	-2.3723843697	 0.096766
H	-0.8360293846	-2.0718445002	-2.0277600943	 0.08989
94.3963	125.983	191.5626	252.528	345.6345	429.0209	448.9841	508.6473	673.639	741.4437	791.0174	797.345	819.7479	848.3603	867.6929	910.7108	962.2842	981.6918	995.6622	1025.9542	1036.1038	1042.2519	1065.8037	1085.3915	1120.2503	1136.8601	1182.6526	1186.1785	1222.6843	1229.6539	1256.1871	1266.0115	1300.5746	1338.2845	1346.8803	1394.4888	1408.1997	1461.0849	1478.8949	1488.8721	1509.7809	2962.3119	2969.8888	3012.5891	3044.0329	3099.4567	3107.0976	3111.712	3179.6539	3188.6383	3212.8586
COC1CC2OC3C2C13	CO[C@H]1C[C@H]2O[C@@H]3[C@H]2[C@H]13	
InChI=1S/C7H10O2/c1-8-3-2-4-6-5(3)7(6)9-4/h3-7H,2H2,1H3	InChI=1S/C7H10O2/c1-8-3-2-4-6-5(3)7(6)9-4/h3-7H,2H2,1H3/t3-,4+,5-,6+,7-/m0/s1
