22
gdb 6617	3.33587	1.48052	1.32958	1.346	77.82	-0.2588	0.0658	0.3246	1065.4461	0.19901	-350.204387	-350.195206	-350.194262	-350.237459	35.406	
C	-1.5143632601	-0.2598538749	-0.1869798386	-0.394524
C	-0.0220221851	 0.0059797941	 0.0269221257	 0.309044
C	 0.2467500379	 1.5073986387	 0.200027716	-0.425468
O	 0.3056476597	-0.6854138031	 1.2405213779	-0.458424
C	 0.7916346477	-0.5542139586	-1.1519183663	 0.068057
C	 2.3464230668	-0.598371156	-1.066552733	-0.249159
C	 2.305806175	-1.9793002903	-1.7738043636	-0.215404
C	 0.8056065403	-2.0897310641	-1.3936591069	-0.237072
H	-1.8694893183	 0.2254849382	-1.1009241468	 0.107709
H	-1.7030788823	-1.3336817457	-0.2681820391	 0.124675
H	-2.0914478106	 0.1233657115	 0.6593073471	 0.116586
H	-0.3048261813	 1.8938939524	 1.0621140501	 0.119087
H	 1.3141666216	 1.6984062872	 0.3627784811	 0.107398
H	-0.0573585041	 2.0715664598	-0.6875078853	 0.113568
H	 1.1915319645	-0.4160861659	 1.5038219485	 0.275427
H	 0.4898556498	-0.0277462689	-2.0649630384	 0.06197
H	 2.9099005893	 0.2077240475	-1.5427417657	 0.094669
H	 2.6944998519	-0.6978024955	-0.032329761	 0.081686
H	 2.4464296933	-1.8821547333	-2.8542578259	 0.100003
H	 2.9815918945	-2.7552128551	-1.4062001186	 0.095065
H	 0.6666189699	-2.6204066171	-0.4481135052	 0.114667
H	 0.1188282995	-2.498330141	-2.138658402	 0.090438
92.9906	132.2995	192.5485	217.2578	253.5793	283.1663	310.0046	323.8998	368.7831	386.3691	490.9046	557.0414	596.3373	735.0682	781.2599	841.8257	892.2006	932.1974	938.099	948.1585	957.6298	959.0497	998.4951	1031.8559	1044.2544	1118.557	1135.1966	1200.8011	1208.0478	1250.4332	1256.2839	1259.8102	1262.2034	1281.5129	1291.6928	1346.3518	1378.8381	1400.0369	1415.8565	1473.4706	1478.0197	1485.71	1487.5906	1498.049	1507.4352	1508.8646	3026.2286	3034.9108	3042.883	3044.1016	3054.9221	3062.9706	3093.0172	3094.0678	3105.5473	3110.5569	3118.2269	3120.9137	3122.7618	3813.9668
CC(C)(O)C1CCC1	CC(C)(O)C1CCC1	
InChI=1S/C7H14O/c1-7(2,8)6-4-3-5-6/h6,8H,3-5H2,1-2H3	InChI=1S/C7H14O/c1-7(2,8)6-4-3-5-6/h6,8H,3-5H2,1-2H3
