15
gdb 42936	3.21366	1.23353	0.98091	2.9642	70.7	-0.2454	-0.0344	0.211	1164.428	0.110012	-420.557078	-420.548847	-420.547903	-420.590573	30.17	
O	 0.0255301884	 0.0176412047	-0.2347261289	-0.284927
C	-0.0265803519	 1.196359447	-0.0655534734	 0.417747
C	-1.1548668316	 2.2256406873	-0.0231128698	-0.10975
O	-0.9020635853	 2.9933330353	 1.1768479663	-0.231861
C	-0.1423942708	 3.3106293587	 0.0167112864	 0.006365
C	 1.049655818	 2.3378178863	-0.0020622889	-0.151185
C	 2.0311744038	 2.4028726386	 1.1766225019	-0.368236
C	 3.0019956683	 1.3162095308	 1.1660421107	 0.302483
C	 3.804209573	 0.4225107962	 1.137969215	-0.437452
H	-2.1703778038	 2.2017663913	-0.3992218403	 0.12907
H	-0.2198283122	 4.3121912554	-0.3882713146	 0.123153
H	 1.5856280233	 2.3469956507	-0.958040896	 0.118876
H	 2.5593154553	 3.3652941052	 1.1458922738	 0.134393
H	 1.4586907953	 2.3913698643	 2.1103798321	 0.15197
H	 4.5054576002	-0.3745633617	 1.1223666358	 0.199354
57.4504	92.1208	158.2652	218.2223	240.0257	340.9338	455.2475	475.8409	538.8523	624.7694	634.1114	647.3862	755.4999	767.5427	845.2047	852.264	912.7073	951.2329	978.5368	993.6363	1025.6441	1058.5673	1106.7504	1162.0376	1210.0225	1225.9584	1256.6406	1304.5044	1343.9167	1366.0611	1476.4996	1906.7971	2243.8008	3019.2453	3057.2201	3075.5115	3195.1373	3208.2463	3507.4126
O=C1C2OC2C1CC#C	O=C1[C@H]2O[C@H]2[C@H]1CC#C	
InChI=1S/C7H6O2/c1-2-3-4-5(8)7-6(4)9-7/h1,4,6-7H,3H2	InChI=1S/C7H6O2/c1-2-3-4-5(8)7-6(4)9-7/h1,4,6-7H,3H2/t4-,6-,7+/m0/s1
