13
gdb 129945	3.44383	1.78041	1.17661	7.477	64.72	-0.2242	-0.0027	0.2215	942.5402	0.092263	-448.923667	-448.917075	-448.916131	-448.954544	25.487	
N	 0.0946148767	 1.4348778413	 0.1501976442	-0.599189
C	 0.0013763588	 0.0561695298	 0.0134171069	 0.265565
C	-1.0437360058	-0.8023638747	-0.0346942119	-0.119015
O	-0.6121479601	-2.1288478759	-0.0427909442	-0.222521
C	 0.7299945896	-2.059466673	-0.0308883647	 0.52072
N	 1.7120263778	-2.9137835216	-0.0417609579	-0.353666
N	 2.8546596752	-2.1229686107	 0.0024786969	-0.217925
C	 2.513538523	-0.8556213968	 0.0374338285	-0.018564
N	 1.1412788465	-0.7565634784	 0.014262419	-0.086309
H	 0.6659500336	 1.8706033994	-0.5663382974	 0.263615
H	-0.8128036322	 1.8812717166	 0.17866986	 0.263761
H	-2.1077560035	-0.64813909	-0.0469579825	 0.153876
H	 3.1859487705	-0.0160673658	 0.0861513432	 0.149652
175.599	226.3461	241.3025	291.0701	398.4101	562.246	596.4707	643.3279	650.9295	685.0548	714.5105	744.6535	764.4291	772.5342	800.0788	988.9362	1027.402	1087.3932	1099.7163	1175.5519	1214.7225	1275.5456	1316.1873	1409.9486	1459.5357	1477.7834	1615.5451	1643.0019	1709.9365	3287.6858	3304.1679	3516.6083	3622.191
NC1=COC2=NN=CN12	Nc1coc2nncn12	
InChI=1S/C4H4N4O/c5-3-1-9-4-7-6-2-8(3)4/h1-2H,5H2	InChI=1S/C4H4N4O/c5-3-1-9-4-7-6-2-8(3)4/h1-2H,5H2
