19
gdb 97005	3.34587	1.25994	1.12609	3.7728	77.95	-0.2247	0.0252	0.2499	1162.3246	0.160681	-419.198725	-419.190323	-419.189379	-419.232378	31.135	
C	-0.2476659146	 1.298399775	 0.3990979513	-0.33967
N	-0.2239377614	-0.1567687621	 0.3554435752	-0.321663
C	 0.7041320434	-0.740996534	 0.9758685444	 0.383819
N	 1.8194886279	-0.3366871261	 1.7204214028	-0.351389
C	 2.175632699	-1.6966298454	 2.1566127913	-0.002423
C	 1.69521008	-2.1352467028	 3.545476979	-0.238229
C	 0.2031661153	-2.4473887985	 3.3155411525	-0.088866
O	 0.1297720249	-2.9612968311	 1.9877007014	-0.242855
C	 1.0399199105	-2.2277692018	 1.2080189488	-0.007863
H	 0.7549822373	 1.7525073381	 0.3672321728	 0.102107
H	-0.8171025303	 1.6776967645	-0.4539488808	 0.1263
H	-0.7497965927	 1.6585795656	 1.3084612343	 0.11453
H	 1.9113892439	 0.5064199871	 2.2686606703	 0.240366
H	 3.2113589699	-1.9669049826	 1.9410962707	 0.085887
H	 2.2309681556	-3.0426630436	 3.8417286761	 0.114584
H	 1.8590800699	-1.3769540661	 4.3163878824	 0.102147
H	-0.1987870379	-3.2067735585	 3.9895166979	 0.114677
H	-0.4091290168	-1.5390789822	 3.4110894837	 0.105344
H	 1.3002470961	-2.8091855854	 0.3235878257	 0.103198
53.7899	92.1383	151.2403	202.7303	244.5173	323.9892	379.9801	420.6067	506.5552	635.9493	660.3154	718.165	798.6415	840.1418	849.3255	903.0514	938.8825	977.6965	1001.651	1022.1242	1051.6249	1099.9062	1113.6086	1133.5251	1162.4131	1168.1646	1187.2594	1210.9201	1238.8534	1275.1819	1310.7655	1336.6163	1349.3439	1362.6963	1394.2095	1435.3314	1475.6474	1488.7303	1506.0749	1519.2808	1811.9451	2975.8256	3003.3557	3030.8351	3053.5069	3086.9426	3093.3647	3101.0782	3110.8142	3123.0984	3598.2502
CN=C1NC2CCOC12	CN=C1N[C@H]2CCO[C@@H]12	
InChI=1S/C6H10N2O/c1-7-6-5-4(8-6)2-3-9-5/h4-5H,2-3H2,1H3,(H,7,8)	InChI=1S/C6H10N2O/c1-7-6-5-4(8-6)2-3-9-5/h4-5H,2-3H2,1H3,(H,7,8)/t4-,5+/m0/s1
