15
gdb 52989	3.34248	1.00772	0.84098	4.346	76.69	-0.2462	-0.004	0.2422	1364.8751	0.110783	-420.599313	-420.590715	-420.589771	-420.634585	30.272	
C	-0.0219212224	 1.5102200457	-0.0233291787	-0.509672
C	-0.0205529505	 0.0559876113	-0.0191328903	 0.237092
C	-0.0150528252	-1.1489351976	-0.0100108548	-0.18493
C	 0.0158159865	-2.5658874454	 0.0192628896	-0.023257
C	-0.3675409875	-3.4738502834	-1.182905746	-0.321565
C	-1.0621328411	-3.6408115339	 0.1085424251	 0.053448
O	-0.2413707374	-4.4486921831	 0.98755978	-0.260667
C	 0.7375600315	-3.4590043446	 1.0154884001	 0.424328
O	 1.7184377068	-3.4308161344	 1.677868933	-0.313147
H	 0.7656381698	 1.9001422363	 0.6305905938	 0.1604
H	 0.1533292209	 1.9078380664	-1.0289175154	 0.152558
H	-0.9775395562	 1.9095586524	 0.333916477	 0.152726
H	-0.897363061	-2.9341522041	-1.9610238981	 0.145712
H	 0.3217834755	-4.2406365753	-1.5210734806	 0.143464
H	-2.1144241699	-3.5604110105	 0.3386506752	 0.143512
16.1486	82.1887	108.4862	186.824	272.5805	298.3639	394.8408	441.2606	484.4245	503.9634	610.4413	679.5781	767.2525	837.5037	861.3422	909.1277	929.5938	994.2505	1029.3426	1046.7602	1052.4317	1054.143	1074.9021	1096.4559	1222.7529	1293.2969	1402.5556	1421.1807	1474.2119	1476.6922	1479.7418	1951.4071	2369.543	3028.1835	3089.3227	3092.9785	3130.0901	3226.8351	3236.984
CC#CC12CC1OC2=O	CC#C[C@]12C[C@H]1OC2=O	
InChI=1S/C7H6O2/c1-2-3-7-4-5(7)9-6(7)8/h5H,4H2,1H3	InChI=1S/C7H6O2/c1-2-3-7-4-5(7)9-6(7)8/h5H,4H2,1H3/t5-,7+/m1/s1
