15
gdb 127488	3.24403	1.3173	0.94327	2.1279	79.55	-0.211	-0.0267	0.1844	1183.9348	0.113382	-412.9878	-412.979244	-412.9783	-413.020917	31.383	
C	 0.0436590949	 1.3862303066	-0.0354909286	-0.327969
N	 0.0167341577	-0.0574932942	 0.0135941535	-0.025741
N	 0.0479073662	-0.7874194173	-1.1310371541	-0.313385
C	 0.0026408757	-2.0374145426	-0.6710046916	 0.379024
N	-0.0480688969	-3.134234301	-1.5042040368	-0.600475
N	-0.0467889994	-2.156689355	 0.6796603527	-0.373713
C	-0.0379308859	-0.8867273507	 1.0835914442	 0.228351
C	-0.0778696286	-0.4282354113	 2.4205200225	 0.254021
C	-0.1107680485	-0.0219266534	 3.55287455	-0.397631
H	 0.9544071793	 1.7266672736	-0.535442739	 0.150887
H	-0.8236678897	 1.7587234338	-0.5871305379	 0.15255
H	 0.0207294259	 1.7670644911	 0.985849339	 0.15524
H	 0.3398709	-2.9715850858	-2.4215441628	 0.257354
H	 0.2935127033	-3.9787562135	-1.0701478623	 0.26024
H	-0.141259504	 0.3233309396	 4.5569764812	 0.201247
101.3405	143.4454	146.25	176.2704	283.2769	318.6843	339.3062	411.9597	466.3137	571.5479	585.3434	594.0693	611.9348	673.3074	685.9817	719.624	779.6746	845.4709	1045.7578	1068.9065	1126.733	1154.0105	1199.0088	1324.6253	1404.9573	1450.2405	1474.5556	1476.2034	1507.6849	1538.3725	1570.2974	1647.5563	2238.0478	3051.6233	3116.805	3159.0362	3499.3367	3577.1402	3684.303
CN1N=C(N)N=C1C#C	Cn1nc(N)nc1C#C	
InChI=1S/C5H6N4/c1-3-4-7-5(6)8-9(4)2/h1H,2H3,(H2,6,8)	InChI=1S/C5H6N4/c1-3-4-7-5(6)8-9(4)2/h1H,2H3,(H2,6,8)
