21
gdb 91763	2.41784	1.74075	1.5892	2.3288	76.54	-0.2476	0.0763	0.324	993.4914	0.185904	-424.250574	-424.243089	-424.242145	-424.282002	30.869	
C	-0.1234139659	 1.5198531138	-0.07312435	-0.414971
C	-0.003413429	 0.0094375381	 0.0462813255	 0.15258
O	 0.6597203637	-0.5356847811	-1.1178793624	-0.288994
C	 1.53755823	-1.5738582785	-0.7099162132	 0.218388
C	 1.0295466769	-1.9901553951	 0.6733942606	-0.25462
C	 0.7891601405	-0.5772279032	 1.2317708353	-0.050072
C	 2.1725978146	 0.0753288039	 1.4419088734	-0.23719
C	 3.0098405502	 0.0693997581	 0.146234929	-0.069519
O	 2.8747400099	-1.1264903122	-0.6196520259	-0.262796
H	 0.8499511749	 2.0145034409	-0.0977265634	 0.122768
H	-0.657136128	 1.7792178561	-0.9917825554	 0.129906
H	-0.6926648372	 1.9179950537	 0.7734142516	 0.114011
H	-1.021488968	-0.4105282691	 0.0803359268	 0.071699
H	 1.5391163083	-2.352997224	-1.4749347703	 0.083681
H	 0.0989642952	-2.561549111	 0.5964550153	 0.099428
H	 1.7698579778	-2.5752398638	 1.2215655628	 0.104147
H	 0.2037211717	-0.5581765345	 2.1548380262	 0.067017
H	 2.0803895314	 1.1072958834	 1.7985177076	 0.099657
H	 2.69361843	-0.4852731098	 2.2263384981	 0.103018
H	 2.7341288292	 0.9255295936	-0.4814436282	 0.106423
H	 4.075617334	 0.1571446808	 0.3748114066	 0.105437
167.4278	213.6622	229.8331	273.2524	357.6846	389.3984	438.2594	492.7777	513.6735	589.3103	739.7376	764.2063	814.5424	830.3991	847.9042	900.1911	910.9441	916.2411	990.4862	1006.3522	1016.5361	1056.2573	1078.9208	1090.6476	1110.3228	1117.6128	1153.6306	1191.3953	1207.8768	1249.8617	1294.9602	1313.4433	1320.044	1342.3882	1363.3775	1374.8767	1389.8428	1400.7404	1415.3245	1423.9835	1479.4571	1484.1647	1494.0974	1503.4181	1510.7657	2967.5504	3027.0058	3034.8514	3045.4788	3053.9528	3073.214	3075.7309	3090.3043	3098.8875	3112.3433	3122.6204	3130.2643
CC1OC2CC1CCO2	C[C@H]1O[C@@H]2C[C@H]1CCO2	
InChI=1S/C7H12O2/c1-5-6-2-3-8-7(4-6)9-5/h5-7H,2-4H2,1H3	InChI=1S/C7H12O2/c1-5-6-2-3-8-7(4-6)9-5/h5-7H,2-4H2,1H3/t5-,6-,7-/m1/s1
