20
gdb 100081	3.44239	0.93004	0.8829	7.0646	71.26	-0.2499	0.0262	0.2761	1381.2388	0.169917	-477.462565	-477.452597	-477.451653	-477.497352	37.267	
C	-0.1050553384	 1.6357465741	-0.1607345625	-0.427395
C	-0.122729955	 0.1037817222	-0.0393555012	 0.337003
O	 0.453555806	-0.2931565118	 1.2116511744	-0.474965
C	-1.5674759604	-0.4410422939	-0.059554385	-0.19357
N	-2.2358820678	-0.0669936773	 1.1951782888	-0.5314
H	-2.9694195765	-0.7267466884	 1.424635275	 0.245798
H	-0.2572315276	-0.1778452637	 1.8649092409	 0.290962
H	-2.6719630327	 0.8454991438	 1.1225149707	 0.24325
C	 0.7167523668	-0.5628002547	-1.1394779856	-0.353342
C	 2.1948346544	-0.159300639	-1.1876014889	 0.398381
O	 2.8131839828	-0.05665256	 0.0029920482	-0.373713
O	 2.7867449167	 0.0212775799	-2.217866013	-0.327483
H	 0.9166858337	 2.0135711611	-0.0745511541	 0.145149
H	-0.5134130344	 1.9606400344	-1.1233061906	 0.120531
H	-0.6950559547	 2.0942756114	 0.6389969613	 0.111156
H	 2.1644007891	-0.1990294936	 0.7201446939	 0.317601
H	-2.088397768	-0.0964603582	-0.9638783223	 0.101104
H	-1.5205127565	-1.5336243156	-0.0989545122	 0.113523
H	 0.6838336154	-1.6486705418	-0.9856967278	 0.129473
H	 0.2978254672	-0.3536054887	-2.1257504001	 0.127938
74.2283	90.0395	143.4223	161.3776	240.2306	264.198	283.5939	337.5207	361.2378	388.6711	403.4079	455.246	551.0264	592.5704	629.5872	700.3985	761.9193	797.116	848.2457	869.5976	910.1176	937.4097	940.7739	981.2192	1059.5497	1081.7775	1139.0594	1164.1954	1225.2843	1263.4046	1284.808	1322.039	1339.7079	1390.4144	1410.4863	1422.678	1439.9628	1454.6215	1488.0461	1493.7409	1507.7334	1660.3387	1861.4222	3005.428	3038.4556	3041.2377	3082.9477	3108.1733	3120.4159	3125.74	3522.7588	3550.8434	3601.4631	3655.0344
CC(O)(C[NH3+])CC([O-])=O	C[C@@](O)(CN)CC(=O)O	
InChI=1S/C5H11NO3/c1-5(9,3-6)2-4(7)8/h9H,2-3,6H2,1H3,(H,7,8)	InChI=1S/C5H11NO3/c1-5(9,3-6)2-4(7)8/h9H,2-3,6H2,1H3,(H,7,8)/t5-/m0/s1
