15
gdb 123345	7.0685	0.74927	0.70762	1.3974	73.09	-0.2748	-0.0302	0.2446	1517.5032	0.112326	-416.77919	-416.77094	-416.769996	-416.81371	29.006	
C	 0.0355373334	-1.212756917	-0.0817834486	-0.429017
C	-0.0073517246	-0.0121636173	-0.0641919343	 0.293509
C	-0.0226647662	 1.443598821	-0.0395357868	-0.357863
C	 1.4044183096	 2.0351462442	 0.1018451321	-0.307665
C	 1.3959196057	 3.5239230291	 0.127875068	 0.421724
N	 1.711226228	 4.3220624018	 1.1061725452	-0.309087
C	 1.4915258851	 5.5561471477	 0.5448225224	 0.037378
N	 1.0681123802	 5.543103628	-0.6881580612	-0.110476
O	 1.0008720852	 4.1736733415	-0.9775001034	-0.197922
H	 0.0565831023	-2.274338297	-0.0993893632	 0.201972
H	-0.4831532028	 1.8299267956	-0.955875843	 0.154916
H	-0.6425520736	 1.7960853559	 0.7935487735	 0.14871
H	 1.8670510023	 1.6873746885	 1.026595795	 0.155152
H	 2.0183651426	 1.6887012391	-0.7353938792	 0.14895
H	 1.6523219127	 6.4859944087	 1.0707771236	 0.149719
35.164	61.1641	97.6754	184.3961	312.1928	351.3516	379.736	474.2884	627.4298	655.7974	657.8815	713.0378	762.2868	794.8298	913.8823	932.5093	972.4331	979.5697	1005.5302	1016.69	1042.2589	1164.7287	1195.9543	1257.7104	1285.9888	1298.2313	1344.1343	1368.8352	1472.1199	1483.8351	1517.0013	1623.138	2243.2402	3035.4227	3066.2849	3073.4453	3136.8097	3262.1449	3506.1355
C#CCCC1=NC=NO1	C#CCCc1ncno1	
InChI=1S/C6H6N2O/c1-2-3-4-6-7-5-8-9-6/h1,5H,3-4H2	InChI=1S/C6H6N2O/c1-2-3-4-6-7-5-8-9-6/h1,5H,3-4H2
