21
gdb 46506	3.48989	1.17971	1.01575	2.9749	82.48	-0.2335	-0.0101	0.2234	1227.1346	0.184182	-387.12154	-387.113354	-387.11241	-387.154247	32.596	
O	 0.0041661592	-0.0831062325	 0.0792991326	-0.30775
C	-0.0133550594	 1.1241669345	 0.0136222918	 0.392018
C	-1.308858952	 1.9265259277	-0.0119141612	-0.295714
C	-1.318191407	 2.9616711435	-1.1568653088	-0.288605
C	-0.0662214293	 3.8218742981	-1.1330923773	 0.406493
C	-0.093930255	 5.1706525685	-1.7995856861	-0.338207
C	-0.071945662	 5.0773797817	-0.2903430254	-0.303481
C	 1.2078262007	 2.9964450352	-1.1915113276	-0.288605
C	 1.2583863582	 1.9618693108	-0.0471236417	-0.295714
H	-2.1489462249	 1.231310885	-0.0790770252	 0.115647
H	-1.3860056986	 2.4588677459	 0.9465122656	 0.116876
H	-1.379393331	 2.4338160085	-2.1183086392	 0.106762
H	-2.2160767748	 3.5850305916	-1.0856940207	 0.098134
H	 0.8050797669	 5.5125335629	-2.3020002221	 0.111903
H	-1.0154478946	 5.4874720347	-2.2770295878	 0.111903
H	-0.9787064572	 5.3333874409	 0.2483783936	 0.110461
H	 0.8418573092	 5.3584488214	 0.2234080779	 0.110461
H	 1.2571451751	 2.4701096032	-2.1544696238	 0.106762
H	 2.0898292173	 3.6443067928	-1.1447541229	 0.098134
H	 1.3471020261	 2.4964969666	 0.9090266187	 0.116876
H	 2.1151329732	 1.290014809	-0.1375571005	 0.115647
76.1836	154.318	166.9825	277.5438	349.2531	364.2499	392.8656	435.5802	497.8614	506.7929	672.4222	700.5364	764.2324	765.99	786.9047	889.5585	899.3374	921.7585	942.2881	967.5065	1001.5431	1005.5533	1011.2209	1054.3473	1082.6814	1110.2177	1127.724	1148.5894	1189.2614	1199.8604	1235.4645	1248.6131	1307.3483	1327.5018	1336.3456	1349.9595	1368.1435	1404.638	1460.6053	1468.9095	1472.1247	1487.0696	1499.354	1511.1979	1817.1558	3011.9226	3016.813	3018.7897	3024.7501	3064.8422	3068.1607	3106.4448	3107.9042	3123.8269	3128.4257	3201.2721	3215.6394
O=C1CCC2(CC2)CC1	O=C1CCC2(CC2)CC1	
InChI=1S/C8H12O/c9-7-1-3-8(4-2-7)5-6-8/h1-6H2	InChI=1S/C8H12O/c9-7-1-3-8(4-2-7)5-6-8/h1-6H2
