13
gdb 12462	3.83535	2.08769	1.46029	3.5618	55.99	-0.274	-0.016	0.258	802.9535	0.096612	-435.769697	-435.7631	-435.762156	-435.801009	23.717	
O	-0.0175094651	 0.1103148977	-0.7056860711	-0.327953
C	-0.0674770532	 1.0348351307	 0.0401916797	 0.478491
O	-1.1315253178	 1.8371189245	 0.1226131944	-0.236614
C	-1.2904496871	 2.7543510261	 1.2165435762	-0.101009
C	-0.3583125166	 3.947327915	 1.0944546232	-0.161703
N	 1.0445917151	 3.6633215544	 1.3140710246	-0.230659
C	 1.5377502001	 2.5148151693	 1.2288196253	 0.132158
O	 0.9899734551	 1.2837165684	 0.8966696955	-0.245716
H	-2.3328117336	 3.0729689308	 1.1523875635	 0.138705
H	-1.1420312191	 2.2295363338	 2.1661611048	 0.136187
H	-0.4794210593	 4.4046509056	 0.1044527208	 0.141153
H	-0.6608468923	 4.7079274569	 1.8245103811	 0.12898
H	 2.5872661537	 2.3453074568	 1.457042372	 0.14798
79.6935	117.0732	293.7554	307.9312	431.9308	482.9153	525.7946	637.0428	733.5993	774.0732	848.8974	874.967	930.3732	958.9675	1030.5771	1084.0547	1089.298	1114.5796	1197.3183	1263.4856	1313.0918	1390.5722	1410.8217	1426.899	1471.274	1497.5011	1771.0458	1897.301	3032.0377	3052.6462	3069.11	3123.831	3175.133
O=C1OCCN=CO1	O=C1OCCN=CO1	
InChI=1S/C4H5NO3/c6-4-7-2-1-5-3-8-4/h3H,1-2H2	InChI=1S/C4H5NO3/c6-4-7-2-1-5-3-8-4/h3H,1-2H2
