12
gdb 129001	4.16624	1.79012	1.25212	3.2251	70.45	-0.2683	-0.0902	0.1781	879.1718	0.083266	-427.858979	-427.853513	-427.852569	-427.888835	21.446	
N	 0.0223396484	 1.2387202735	 0.0089920138	-0.043217
N	 1.0494291405	 2.0721142875	 0.0034333365	-0.211419
C	 2.2633490839	 1.5300868532	-0.0113756006	-0.05376
C	 2.4075991659	 0.1433700314	-0.0202729248	 0.251093
N	 3.4455313875	-0.6917697519	-0.0349341667	-0.35228
C	 2.8222152097	-1.9111836739	-0.0354244433	 0.031631
N	 1.4835106042	-1.9524733614	-0.0225558896	-0.322805
C	 1.1757988601	-0.6369401396	-0.0124210724	 0.380848
N	-0.0240509709	-0.0806207882	 0.0023279957	-0.275556
H	-0.8815982931	 1.6918840884	 0.0202844628	 0.311555
H	 3.0923093549	 2.2285945697	-0.0157187102	 0.154387
H	 3.4085486489	-2.8224431987	-0.0460762813	 0.129524
243.4838	252.6359	434.3135	467.5697	588.4708	632.1679	643.0748	646.492	745.9166	802.0092	838.7987	931.5113	944.5209	963.5301	980.2621	1071.7999	1142.6954	1215.8048	1261.1516	1321.2697	1333.8561	1394.0843	1426.6177	1468.6356	1534.7559	1601.9488	1625.1979	3205.2294	3222.5829	3608.9824
N1N=CC2=NC=NC2=N1	[nH]1ncc2ncnc2n1	
InChI=1S/C4H3N5/c1-3-4(6-2-5-3)8-9-7-1/h1-2,9H	InChI=1S/C4H3N5/c1-3-4(6-2-5-3)8-9-7-1/h1-2,9H
