14
gdb 130339	3.26908	1.64877	1.10606	10.68	75.34	-0.1651	-0.0189	0.1463	1006.2167	0.103291	-432.757427	-432.750275	-432.749331	-432.789368	26.682	
N	 0.0272784702	 0.9782031497	 0.0064910707	-0.471428
H	 0.0431511243	-0.0558001329	 0.0668412914	 0.308657
H	 1.0041993032	 1.2795586033	-0.0456627432	 0.335438
H	-0.4118568811	 1.2192125733	-0.8850468106	 0.321683
C	-0.6335935455	 1.6713135952	 1.1187551439	-0.16016
C	-2.0474400463	 1.801627889	 1.2797448676	-0.130325
C	-2.3696754356	 2.1335483354	 2.5879603087	-0.28978
C	-1.1308255657	 2.1404558513	 3.3072420224	 0.326933
N	-0.6205852995	 2.320591494	 4.5024795734	-0.241549
O	 0.728075642	 2.0738778311	 4.3590123808	-0.172735
N	 1.0832043032	 1.7434263092	 3.0497638466	-0.303353
C	-0.0526550159	 1.7999220363	 2.3992516088	 0.309682
H	-2.7689869736	 1.7069300269	 0.4740093673	 0.075766
H	-3.3485410497	 2.3800873084	 2.9665012523	 0.091172
96.8511	114.1366	222.356	298.8726	327.3822	525.0586	563.4836	566.1247	586.4651	681.5889	709.2044	779.6	787.2485	850.8612	858.834	891.0783	966.2502	1029.3081	1051.5641	1071.6321	1117.1094	1223.7451	1292.6662	1360.5609	1401.1909	1453.7836	1495.425	1558.7986	1630.0125	1649.4983	1665.0572	3174.4249	3178.9512	3258.8853	3416.3129	3485.188
[NH3+][C-]1C=CC2=NON=C12	[NH3]c1ccc2nonc12	
InChI=1S/C5H5N3O/c6-3-1-2-4-5(3)8-9-7-4/h1-2H,6H3	InChI=1S/C5H6N3O/c6-3-1-2-4-5(3)8-9-7-4/h1-2,7H,6H3
