22
gdb 18752	2.68996	2.09945	1.4694	0.1882	81.14	-0.2589	0.0724	0.3313	972.7846	0.201137	-313.046821	-313.038623	-313.037679	-313.079465	32.076	
C	 0.387601941	 1.4850236162	-0.4172277306	-0.409053
C	 0.0228249565	 0.0547959184	-0.0351344583	 0.044926
C	 0.4769636179	-1.0906153835	-0.998256543	-0.251891
C	 1.1889741871	-1.7978015156	 0.1770869532	 0.002589
C	 2.6531080681	-1.3297904071	 0.4262089672	-0.257188
C	 2.1633497028	-0.4495605804	 1.6148193436	 0.064085
C	 2.7656639052	 0.928816471	 1.8580225951	-0.418455
C	 0.6891384551	-0.6910973375	 1.1764249489	-0.067973
H	 1.4367242869	 1.5788329912	-0.7121196762	 0.11655
H	-0.2166119218	 1.8099422909	-1.2724105441	 0.10919
H	 0.2039400048	 2.1865766835	 0.4036174752	 0.112635
H	-1.0624937752	 0.0131095084	 0.1061609304	 0.072122
H	-0.355479622	-1.655140037	-1.427328316	 0.092794
H	 1.1356487252	-0.7837906344	-1.8182376073	 0.088323
H	 0.9926042241	-2.8598731228	 0.3296243747	 0.0576
H	 3.3766336857	-2.1085763414	 0.6811847305	 0.093391
H	 3.0609585589	-0.7531088869	-0.411380353	 0.089981
H	 2.2910091894	-1.0346878646	 2.5344522926	 0.072219
H	 2.7848987856	 1.5438801053	 0.9556016689	 0.115286
H	 2.2053316457	 1.4775827861	 2.6237428896	 0.110697
H	 3.7989457869	 0.8349838739	 2.2121726272	 0.108917
H	-0.0068839278	-0.8974048937	 1.9929528214	 0.053257
41.9126	168.2923	217.9822	261.2949	284.5066	315.3538	361.3149	384.9777	561.9142	566.7435	677.1007	740.9863	813.3005	833.4203	867.9794	874.6468	909.2248	934.9095	944.6821	992.2308	1017.51	1073.42	1089.6043	1118.1748	1124.1697	1143.0648	1154.1626	1185.1616	1208.3532	1230.7506	1249.8486	1266.1219	1280.0592	1297.3721	1312.2105	1341.3303	1361.5161	1385.2018	1405.9483	1412.2787	1480.6971	1486.8703	1489.6277	1493.6147	1501.9481	1511.4373	3011.4686	3025.1536	3029.0842	3031.383	3035.8602	3039.3505	3069.3172	3083.0404	3083.6342	3086.833	3089.1739	3102.1827	3105.6031	3123.4287
CC1CC2CC(C)C12	C[C@H]1C[C@H]2C[C@@H](C)[C@@H]12	
InChI=1S/C8H14/c1-5-3-7-4-6(2)8(5)7/h5-8H,3-4H2,1-2H3	InChI=1S/C8H14/c1-5-3-7-4-6(2)8(5)7/h5-8H,3-4H2,1-2H3/t5-,6+,7-,8+
