17
gdb 66516	4.43228	1.60589	1.48728	4.0292	76.71	-0.2033	-0.0484	0.1549	919.3903	0.136202	-380.733682	-380.726953	-380.726009	-380.764262	27.851	
C	-0.1916495252	 1.4741999716	-0.0292097075	-0.531054
C	 0.045914871	 0.0063416199	 0.0580126708	 0.362745
C	 0.648316061	-0.9957114115	-0.8711736716	-0.091198
C	 1.479185975	-1.7080440645	 0.27248128	-0.059888
C	 1.1323290175	-3.196205855	 0.6548535776	-0.183187
N	-0.3616707362	-3.1593216246	 0.5263643281	-0.223831
C	-0.5723682446	-1.9106213312	 0.6591376182	 0.211817
C	 0.5003951193	-0.9364139964	 1.2036849947	-0.204424
N	-0.8779116676	-1.0304794571	-0.466391852	-0.202644
H	 0.7322287467	 2.0335815192	 0.1515494554	 0.128217
H	-0.569309843	 1.740355477	-1.0206927034	 0.141044
H	-0.9322233602	 1.7931283085	 0.7121824241	 0.134155
H	 0.8412152926	-0.957926898	-1.9359731361	 0.11202
H	 2.5334270307	-1.4176442941	 0.2518515413	 0.08201
H	 1.4925871465	-3.9603153191	-0.0407716794	 0.123774
H	 1.5360623416	-3.4302603985	 1.6520944559	 0.109676
H	 0.699630365	-0.719825016	 2.2490059839	 0.090766
200.6185	219.1	234.9909	324.5721	447.5446	550.3607	566.1523	574.7872	641.0647	693.1132	759.0371	812.6549	827.1631	833.9879	892.0265	912.2197	914.974	954.0142	993.9714	999.7127	1018.6026	1047.455	1086.006	1119.3561	1139.7815	1158.429	1191.9401	1200.3817	1246.854	1257.3781	1290.3136	1401.6916	1449.7363	1479.1707	1483.2437	1489.2829	1614.995	2986.4153	3034.233	3077.5649	3082.3228	3098.7491	3114.3787	3164.5893	3200.8146
CC12C3C4CN=C(C14)N23	C[C@@]12[C@H]3[C@@H]4C[N][C]([C@H]14)N23	
InChI=1S/C7H8N2/c1-7-4-3-2-8-6(4)9(7)5(3)7/h3-5H,2H2,1H3	InChI=1S/C7H8N2/c1-7-4-3-2-8-6(4)9(7)5(3)7/h3-5H,2H2,1H3/t3-,4-,5-,7+,9?/m1/s1
