18
gdb 14455	3.35938	2.25979	1.947	1.9992	70.64	-0.2219	0.0812	0.3031	789.8469	0.154909	-347.76041	-347.753727	-347.752783	-347.790854	26.987	
C	 0.0624852147	 1.4877206051	-0.1282582414	-0.522929
C	-0.0044510717	-0.0012005628	 0.0090402583	 0.428499
O	 0.5996974079	-0.8340873504	-1.0501801367	-0.353777
C	 0.0559498805	-1.7868569167	-0.075449761	 0.048176
C	 0.5856017739	-0.9395622076	 1.1140592742	-0.064572
C	-0.3853861494	-1.0277587398	 2.2856537204	-0.248006
C	-1.7463606481	-1.0373884556	 1.5169831538	-0.248006
C	-1.2452696952	-0.9525594623	 0.079993242	-0.064571
H	 1.1030312722	 1.8244432347	-0.1689758954	 0.133249
H	-0.4421267342	 1.8131844522	-1.0432546825	 0.133272
H	-0.4237682889	 1.9721825801	 0.7248720489	 0.124402
H	 0.1793222294	-2.8508489801	-0.2805048253	 0.084183
H	 1.6613469515	-0.911589399	 1.2875457832	 0.07145
H	-0.2346495223	-1.933222614	 2.8816356834	 0.102392
H	-0.2931775197	-0.1742529012	 2.9647659225	 0.101199
H	-2.3248757661	-1.9479849512	 1.7011380728	 0.102391
H	-2.3846637041	-0.1890203079	 1.7834624124	 0.101198
H	-1.9494984304	-0.9372384135	-0.7518329997	 0.071451
175.0587	201.7527	211.2957	317.3751	418.9852	496.9625	626.9735	664.5997	713.1248	740.3326	759.6598	833.8833	886.8043	903.5807	914.582	933.1402	965.783	991.089	1006.4513	1034.2007	1073.2793	1089.2847	1136.7324	1164.6226	1213.4295	1216.5251	1241.613	1250.0405	1258.3913	1268.8116	1303.264	1322.7198	1391.7088	1421.8901	1474.8537	1489.009	1490.6722	1509.7135	3035.9021	3043.2863	3053.1858	3075.4826	3095.3449	3108.1517	3108.8189	3110.8793	3123.8525	3130.1467
CC12OC3C1CCC23	C[C@@]12O[C@H]3[C@@H]1CC[C@@H]23	
InChI=1S/C7H10O/c1-7-4-2-3-5(7)6(4)8-7/h4-6H,2-3H2,1H3	InChI=1S/C7H10O/c1-7-4-2-3-5(7)6(4)8-7/h4-6H,2-3H2,1H3/t4-,5+,6-,7+
