16
gdb 102793	2.05791	1.30581	0.92439	3.8049	63.21	-0.2591	-0.0083	0.2507	1249.6604	0.122959	-512.205483	-512.196037	-512.195093	-512.240765	33.072	
N	 0.3097691581	 0.8954499265	-0.6724227604	-0.521146
C	-0.1705922701	 0.1926408787	 0.3796898989	 0.39704
O	 0.3011785042	 0.215129454	 1.5016059783	-0.364412
C	-1.3959512624	-0.7053994769	 0.0920290458	-0.006083
C	-2.2514680674	-0.3640984056	-1.1242366818	-0.112685
O	-1.5251574773	-0.4642730776	-2.3418613788	-0.412388
O	-0.9283880148	-2.050850755	-0.1333402986	-0.221596
C	-0.5554034556	-2.783569795	 0.949909064	 0.166079
O	-0.138029088	-3.8944857499	 0.8359263795	-0.266739
H	 1.1622748282	 1.4163397046	-0.5397924638	 0.264731
H	-0.0324560656	 0.7020968481	-1.604350682	 0.278319
H	-2.0137292414	-0.671232516	 0.9963495242	 0.118588
H	-3.1260427274	-1.028397883	-1.1349856032	 0.121655
H	-2.6056596008	 0.6678685119	-1.0505739897	 0.133814
H	-1.1873144266	-1.3677101798	-2.3885590017	 0.306847
H	-0.6844988033	-2.238353485	 1.8987660994	 0.117976
44.6677	81.6133	123.0885	143.6528	212.281	251.9822	297.8154	339.1882	377.9574	443.3383	494.9462	545.4164	601.3852	690.94	725.603	789.5964	853.4869	940.055	998.1882	1034.5388	1062.4168	1100.0472	1145.2536	1151.015	1230.7225	1318.1309	1348.5634	1366.84	1405.6599	1429.1917	1435.3039	1491.9366	1620.6057	1798.0576	1866.6526	3019.0583	3021.7483	3058.9574	3102.351	3532.9901	3690.0409	3787.5211
NC(=O)C(CO)OC=O	NC(=O)[C@@H](CO)OC=O	
InChI=1S/C4H7NO4/c5-4(8)3(1-6)9-2-7/h2-3,6H,1H2,(H2,5,8)	InChI=1S/C4H7NO4/c5-4(8)3(1-6)9-2-7/h2-3,6H,1H2,(H2,5,8)/t3-/m1/s1
