12
gdb 130490	4.01634	1.7929	1.23956	1.4603	70.7	-0.2484	-0.1025	0.1459	890.66	0.080353	-431.655845	-431.650082	-431.649138	-431.685926	22.703	
O	-0.0219459652	 1.2665086694	 0.0090871875	-0.188883
C	 1.1389277959	 1.9407594794	 0.001642912	 0.144519
N	 2.3402023071	 1.468287212	-0.0123870696	-0.316081
C	 2.3876140888	 0.1128553285	-0.0201576792	 0.357365
N	 3.4311796849	-0.6633470452	-0.03435419	-0.326443
C	 2.8958605464	-1.9635512341	-0.0362121282	-0.01231
C	 1.528349544	-2.0383911166	-0.023514026	-0.253143
C	 1.1170601976	-0.6686351346	-0.0122384326	 0.353788
N	-0.0595965461	-0.1299019727	 0.0019094499	-0.185747
H	 0.9425743025	 3.0083442661	 0.009263966	 0.166403
H	 3.584320049	-2.799306105	-0.0473023543	 0.130828
H	 0.9002691452	-2.9139403472	-0.0222067456	 0.129703
198.9482	258.745	380.5675	475.712	556.9848	560.8327	588.4357	624.0505	745.2753	763.2987	830.284	857.2435	903.6997	932.2925	934.3446	966.1295	1056.6255	1088.4169	1128.1157	1229.3826	1350.1797	1380.3243	1451.774	1472.4803	1574.7896	1625.1743	1636.7658	3201.0743	3223.373	3275.7627
O1C=NC2=NC=CC2=N1	o1cnc2nccc2n1	
InChI=1S/C5H3N3O/c1-2-6-5-4(1)8-9-3-7-5/h1-3H	InChI=1S/C5H3N3O/c1-2-6-5-4(1)8-9-3-7-5/h1-3H
