19
gdb 73446	2.257	1.88491	1.53939	0.7923	74.01	-0.2147	0.0689	0.2836	975.8805	0.159363	-422.993979	-422.985963	-422.985019	-423.025907	31.875	
C	-0.0794997313	 1.5446325228	-0.026950608	-0.521558
C	-0.0204260356	 0.0509487538	 0.0312508169	 0.22845
C	-0.1746606317	-1.0439714793	-0.986401179	-0.022652
O	 0.9685647158	-1.7786998244	-0.5526595269	-0.314665
C	 1.0679472788	-0.8850609573	 0.6115141123	 0.03795
C	 0.4468995082	-1.6010182428	 1.808125113	-0.212432
C	-1.0140958468	-1.856726167	 1.3422577071	-0.285984
C	-1.1859335729	-0.9153504139	 0.1473907658	 0.30654
O	-2.4420702894	-0.4010104615	-0.168895962	-0.475778
H	 0.7655797738	 1.9642254552	-0.5834348482	 0.120347
H	-1.0049709323	 1.8616419022	-0.5160304756	 0.139781
H	-0.0712398683	 1.9829321626	 0.978225158	 0.118984
H	-0.4271567197	-1.0370936566	-2.0420994589	 0.098591
H	 2.0850869219	-0.5077009246	 0.7373679412	 0.079374
H	 0.9863723675	-2.5199124429	 2.0526387927	 0.108044
H	 0.4754189963	-0.9459370189	 2.6868929304	 0.09969
H	-1.1684859397	-2.903993389	 1.0632730989	 0.103119
H	-1.7473222719	-1.6043825198	 2.1133201696	 0.105434
H	-2.9361545225	-1.0798447887	-0.6412971474	 0.286764
184.2682	187.5682	195.6259	207.5517	285.901	365.9044	373.5211	394.5751	498.7607	570.8826	655.2926	670.3048	748.5936	762.4945	830.2636	875.3127	905.3911	920.1584	959.6607	991.0956	1016.3588	1021.3797	1060.3797	1121.872	1129.3894	1155.0964	1193.8026	1210.8983	1220.4378	1264.1022	1275.3379	1292.9189	1311.6813	1335.8192	1358.5456	1412.6157	1469.8788	1478.7399	1490.636	1494.7164	1501.0975	3024.8992	3038.2298	3049.6513	3082.2744	3088.1055	3092.8792	3104.8486	3111.9371	3163.4593	3797.0347
CC12C3OC1CCC23O	C[C@@]12[C@H]3O[C@@H]1CC[C@@]23O	
InChI=1S/C7H10O2/c1-6-4-2-3-7(6,8)5(6)9-4/h4-5,8H,2-3H2,1H3	InChI=1S/C7H10O2/c1-6-4-2-3-7(6,8)5(6)9-4/h4-5,8H,2-3H2,1H3/t4-,5-,6+,7+/m1/s1
