23
gdb 85867	2.1116	1.53711	1.21895	1.3635	85.83	-0.2477	0.074	0.3218	1189.2622	0.203762	-388.276555	-388.266716	-388.265771	-388.310424	38.542	
C	-0.8426266491	 1.0263149696	-0.0812095664	-0.412456
C	 0.1380759093	-0.1371489716	-0.0757969056	-0.044515
C	 1.5306291132	 0.0728691987	-0.7430530778	-0.297397
C	 2.2026022614	-0.6694943633	 0.4555921155	 0.333879
C	 2.5613412892	-2.1222383362	 0.1551988202	-0.447733
O	 3.2821980159	-0.0033369202	 1.0869291782	-0.47584
C	 0.8824805159	-0.495160591	 1.2237444597	 0.344621
C	 0.7688517864	 0.2187186426	 2.5378302564	-0.315958
C	 0.4066229153	-1.2443379073	 2.4317387074	-0.343887
H	-0.3769690036	 1.9372414476	 0.3093043271	 0.117512
H	-1.1904842728	 1.2369220477	-1.0985705627	 0.112338
H	-1.7269407875	 0.8120244651	 0.5302615155	 0.111684
H	-0.3518264898	-1.0272058701	-0.4897087469	 0.066392
H	 1.6824156823	-0.3410896242	-1.7440334718	 0.084812
H	 1.8216946117	 1.126740069	-0.7355880188	 0.102036
H	 3.4001959108	-2.1763022466	-0.551196012	 0.101923
H	 2.8496442447	-2.6447298864	 1.0725898098	 0.120691
H	 1.7182737059	-2.6560449465	-0.293621204	 0.121177
H	 4.0916147893	-0.2327844754	 0.6183292372	 0.272819
H	 1.6940821886	 0.4814461987	 3.037623911	 0.12814
H	-0.0355930886	 0.9361404707	 2.6646599376	 0.106241
H	-0.6430657163	-1.5187885745	 2.4805165658	 0.104837
H	 1.0761724078	-1.969780826	 2.8839598247	 0.108682
70.7278	194.6079	205.6893	224.2939	238.3859	247.7667	253.5846	272.0224	340.5258	358.3611	440.3743	486.6092	523.1292	567.9562	642.4813	751.2849	796.2088	862.5984	873.4931	898.8153	923.8632	937.1751	958.3929	982.5004	990.1124	1049.4401	1071.0257	1078.0415	1099.7186	1116.793	1181.7723	1184.8892	1193.3657	1212.5772	1233.9479	1267.4567	1278.1601	1336.81	1372.9084	1404.0578	1406.2088	1406.5935	1461.4155	1478.1733	1488.5397	1493.3729	1494.765	1498.9444	1504.1471	3017.7914	3021.3499	3024.7103	3050.2945	3086.6885	3087.1298	3098.7718	3110.1203	3113.8726	3116.9768	3132.3745	3196.4044	3223.5	3807.2883
CC1CC(C)(O)C11CC1	C[C@H]1C[C@@](C)(O)C21CC2	
InChI=1S/C8H14O/c1-6-5-7(2,9)8(6)3-4-8/h6,9H,3-5H2,1-2H3	InChI=1S/C8H14O/c1-6-5-7(2,9)8(6)3-4-8/h6,9H,3-5H2,1-2H3/t6-,7+/m0/s1
