20
gdb 92004	2.50522	1.42957	1.11403	2.1673	78.46	-0.2385	-0.0256	0.2129	1150.1513	0.171634	-403.135686	-403.127202	-403.126258	-403.169137	32.244	
C	 0.726287019	 1.4904499338	-0.2568217262	-0.419315
C	 0.1577853009	 0.098038043	 0.0652881195	-0.036442
C	 0.2862611249	-0.9286780538	-1.103432388	-0.173923
N	 1.2818211266	-1.9579348875	-0.7605260003	-0.089015
C	 2.6026281667	-1.4210951357	-0.4127314247	-0.252904
C	 1.6286119156	-1.773868774	 0.6568485074	-0.04959
C	 0.7934299892	-0.6608735993	 1.2840959933	-0.086866
C	 1.6078306207	 0.2066794331	 2.2202623704	 0.153676
O	 1.3425331632	 0.3962889704	 3.3799804215	-0.253668
H	 1.7871824948	 1.4768320904	-0.5224595671	 0.12484
H	 0.1861884332	 1.916029623	-1.108651854	 0.12324
H	 0.6026334803	 2.1801667045	 0.5845863783	 0.130757
H	-0.9022695838	 0.2447598039	 0.2915766679	 0.096113
H	-0.6664316302	-1.4446222268	-1.2602971741	 0.112346
H	 0.556778802	-0.4450573066	-2.0481335508	 0.108744
H	 3.4317666535	-2.0903538387	-0.6233499892	 0.12254
H	 2.814381934	-0.3744702725	-0.6097565604	 0.113615
H	 1.77934424	-2.6743858295	 1.2450663938	 0.103729
H	 0.0006354825	-1.1097191309	 1.8893645323	 0.097346
H	 2.5147929768	 0.6595188133	 1.7616712704	 0.074776
61.6452	90.884	200.7695	239.7045	271.5302	326.366	359.1756	417.3548	438.1024	459.8867	665.3378	711.6196	747.692	808.7284	853.4415	896.9857	916.9334	948.1433	1001.7012	1016.7067	1029.8516	1040.6314	1084.3782	1109.4721	1124.0695	1142.2364	1152.1344	1180.428	1246.3196	1262.9467	1279.3445	1294.1768	1320.7409	1338.2612	1375.4926	1386.6913	1418.0084	1432.6319	1494.1478	1497.7187	1505.0418	1517.8884	1824.3953	2880.4522	3036.4991	3040.3579	3053.566	3072.6601	3084.6169	3100.4477	3110.2051	3119.6201	3150.0194	3200.4269
CC1CN2CC2C1C=O	C[C@H]1CN2C[C@H]2[C@H]1C=O	
InChI=1S/C7H11NO/c1-5-2-8-3-7(8)6(5)4-9/h4-7H,2-3H2,1H3	InChI=1S/C7H11NO/c1-5-2-8-3-7(8)6(5)4-9/h4-7H,2-3H2,1H3/t5-,6-,7-,8?/m0/s1
