19
gdb 103410	2.50407	1.37693	1.2505	1.9009	70.01	-0.2514	0.0616	0.313	1098.3619	0.157328	-460.112874	-460.103721	-460.102777	-460.14645	34.623	
C	-0.0448925367	 1.5781227191	-0.0423290377	-0.474084
C	-0.0149884028	 0.0550884759	-0.017513681	 0.211097
C	-1.3994553043	-0.5607903328	 0.2020963955	-0.120645
O	-1.929996587	-0.3035213436	 1.491252013	-0.416024
C	 0.7240463141	-0.6377380166	-1.1781493726	-0.0119
O	 2.098307024	-0.2251247443	-1.129460649	-0.268201
C	 1.6722807881	-1.303024878	-0.2719970557	-0.02522
C	 1.0605160807	-0.6148650359	 0.956049633	 0.083061
O	 1.9156812168	 0.220037735	 1.6838987358	-0.432409
H	 0.9237884176	 1.982546487	-0.344842438	 0.129159
H	-0.7980995792	 1.9471200671	-0.7484503142	 0.112134
H	-0.269306605	 1.9843398959	 0.9497893009	 0.123443
H	-2.0860173494	-0.217972656	-0.5897040179	 0.087399
H	-1.338717762	-1.6527758071	 0.1240013334	 0.106118
H	-2.0419183358	 0.6476014062	 1.5845908158	 0.28835
H	 0.3432568385	-0.9581531773	-2.1419352233	 0.104192
H	 2.2093374396	-2.2403898049	-0.3613225529	 0.107849
H	 0.5812947644	-1.2908211047	 1.6665862626	 0.104945
H	 2.4689884785	 0.6716509449	 1.0339065122	 0.290736
97.9967	118.5918	176.7512	197.4026	243.9681	258.4509	297.9259	339.2184	391.5727	447.4832	501.8585	559.7238	632.4588	683.5556	781.5952	854.7926	857.5456	883.0435	910.631	945.5703	962.3169	997.7578	1055.122	1074.8446	1122.4942	1138.4994	1145.1491	1197.5638	1215.5667	1227.7405	1270.1393	1306.2357	1309.2035	1367.9037	1379.6943	1408.4706	1426.9745	1445.2282	1486.9166	1498.5934	1510.3335	2966.3195	3028.7894	3055.5656	3092.6557	3105.4505	3118.2544	3173.4513	3190.2518	3777.0531	3824.2864
CC1(CO)C2OC2C1O	C[C@@]1(CO)[C@H]2O[C@H]2[C@H]1O	
InChI=1S/C6H10O3/c1-6(2-7)4(8)3-5(6)9-3/h3-5,7-8H,2H2,1H3	InChI=1S/C6H10O3/c1-6(2-7)4(8)3-5(6)9-3/h3-5,7-8H,2H2,1H3/t3-,4+,5-,6-/m0/s1
