20
gdb 75057	2.32045	1.62411	1.21281	3.2388	81.15	-0.2067	0.0059	0.2126	1114.0716	0.169691	-403.211988	-403.202322	-403.201378	-403.245838	36.209	
C	-0.0251261024	 1.5070520107	 0.000268181	-0.500473
C	-0.0071438623	 0.0140762575	-0.0250984793	 0.256402
C	-0.0221142078	-0.7776162909	-1.1030195878	-0.141805
N	 0.0026752086	-2.1398261834	-0.7490785529	-0.344557
C	 0.0364292308	-2.2984275883	 0.6179116429	 0.42637
O	 0.0626187389	-3.3480233692	 1.2225895348	-0.393784
C	 0.0320633046	-0.8697529398	 1.2153279562	 0.039283
C	 1.3144105267	-0.6819525727	 2.0481955493	-0.420595
C	-1.2155035708	-0.7135674727	 2.1055983657	-0.420575
H	 0.8609683837	 1.9172125893	 0.5014506938	 0.127272
H	-0.0526574139	 1.9174250001	-1.0135943453	 0.122258
H	-0.8980941156	 1.8953952963	 0.5403727404	 0.127282
H	-0.0495604566	-0.5023096565	-2.148393485	 0.123116
H	-0.0025742408	-2.9154784779	-1.3900225868	 0.258189
H	 2.209477757	-0.7589469526	 1.4235081194	 0.119907
H	 1.3202083567	 0.2982773398	 2.535197976	 0.112708
H	 1.367383901	-1.4558785628	 2.8193195371	 0.138177
H	-1.2140621071	-1.4880491452	 2.8779836998	 0.138184
H	-1.2237718226	 0.2665398497	 2.5928147882	 0.112719
H	-2.1357715482	-0.8133740615	 1.5221128826	 0.119923
76.8956	168.9766	189.5135	215.8597	227.0485	232.5254	255.9532	288.4505	305.8304	349.5961	473.2377	533.3789	554.9255	592.8186	676.757	760.3519	761.1633	807.7085	839.5397	956.7342	964.3977	1001.331	1024.9944	1064.7597	1080.969	1153.3469	1161.945	1173.37	1248.643	1301.4882	1354.2191	1388.1615	1399.7649	1411.3911	1420.8575	1472.7638	1485.3249	1486.2802	1493.1022	1500.2943	1509.1354	1712.4303	1825.4264	3013.599	3033.5632	3037.0653	3057.1078	3101.0133	3105.7237	3108.3793	3115.6274	3118.9269	3228.837	3664.1402
CC1=CNC(=O)C1(C)C	CC1=CNC(=O)C1(C)C	
InChI=1S/C7H11NO/c1-5-4-8-6(9)7(5,2)3/h4H,1-3H3,(H,8,9)	InChI=1S/C7H11NO/c1-5-4-8-6(9)7(5,2)3/h4H,1-3H3,(H,8,9)
