18
gdb 71281	2.75766	2.03656	1.49831	1.95	74.28	-0.2434	0.0207	0.2641	918.5536	0.149662	-401.93375	-401.926813	-401.925869	-401.964582	28.716	
C	 0.0106806295	 1.4629355498	 0.0052812996	-0.455272
C	-0.0170667397	-0.0537829616	 0.0411722324	 0.314689
C	 0.3101782205	-0.7609810572	-1.3302140998	-0.271336
C	-1.0310594688	-1.4899984215	-1.2584442776	-0.098431
C	-1.2059698877	-2.152790906	 0.0767029069	 0.105893
O	-0.1333717087	-2.6797396605	 0.845309992	-0.234256
C	 0.6841593368	-1.7666047367	 1.4301275535	 0.113102
N	 0.8061852787	-0.539047595	 1.1507901586	-0.301317
C	-1.4279690027	-0.6896719206	-0.0008573104	-0.158916
H	 1.0385973691	 1.8173908644	-0.1176332125	 0.12398
H	-0.5978449848	 1.8488618496	-0.8187364241	 0.107292
H	-0.3751244219	 1.8728429504	 0.9442305378	 0.120655
H	 0.350328868	-0.0428231359	-2.1528360855	 0.106524
H	 1.2110969137	-1.3799243118	-1.3497379799	 0.107835
H	-1.6453152435	-1.7809202731	-2.102534737	 0.089272
H	-2.0709205693	-2.7964527273	 0.1840575569	 0.113281
H	 1.2751239951	-2.2362737942	 2.2135012627	 0.12512
H	-2.3502758042	-0.1968986729	 0.2802270863	 0.091885
176.1148	241.9378	271.2954	338.7423	344.4461	447.7645	505.8631	566.4445	629.262	644.7044	745.599	775.51	840.3386	879.5218	898.9858	919.9556	932.7382	961.1161	968.3544	990.8976	1016.0206	1034.3545	1078.9265	1114.168	1135.3959	1148.4354	1177.0151	1221.0733	1244.1462	1253.538	1308.8837	1343.0169	1394.9345	1408.8033	1418.0621	1482.6993	1490.1334	1494.4016	1704.2406	3033.749	3058.0309	3105.3454	3111.4883	3113.9499	3165.0164	3176.822	3184.6351	3197.286
CC12CC3C(OC=N1)C23	C[C@@]12C[C@H]3[C@@H](OC=N1)[C@@H]23	
InChI=1S/C7H9NO/c1-7-2-4-5(7)6(4)9-3-8-7/h3-6H,2H2,1H3	InChI=1S/C7H9NO/c1-7-2-4-5(7)6(4)9-3-8-7/h3-6H,2H2,1H3/t4-,5+,6-,7+/m1/s1
