18
gdb 73966	3.48052	1.82053	1.53845	1.2597	82.6	-0.1994	-0.0423	0.157	910.1373	0.147906	-364.676748	-364.669793	-364.668849	-364.707758	28.52	
C	-0.0888923721	 1.2951428558	 0.3455729547	-0.472702
C	-0.0338792815	-0.0546549514	-0.2856061348	 0.281253
C	-1.0747570924	-0.9228830724	-0.366998689	-0.067827
C	-1.5963513938	-1.5495533944	 0.9054360312	-0.078549
C	-1.3947136165	-2.9269787577	 0.4358766859	-0.042955
C	-0.6270138816	-2.3636845844	-0.7827147448	-0.119527
C	 0.6282534514	-2.2682552241	 0.076321358	 0.045191
C	 1.2444192861	-0.8917074203	-0.3158711068	-0.317255
N	-0.3110282255	-2.3709350695	 1.3166108277	-0.19184
H	 0.5686336368	 1.3505489371	 1.2232186568	 0.130496
H	 0.2562098762	 2.0745869584	-0.3474367365	 0.133807
H	-1.1091871006	 1.5526624273	 0.6451219007	 0.127323
H	-2.1584492115	-1.1616104377	 1.7448053316	 0.102859
H	-1.9103414997	-3.857701542	 0.6343641371	 0.093946
H	-0.6633836092	-2.6909682047	-1.8209626345	 0.069561
H	 1.3242348022	-3.1089665598	 0.1363488548	 0.074352
H	 1.7694104979	-0.9996881862	-1.2758285159	 0.115547
H	 1.9668746338	-0.4751291839	 0.3954638338	 0.116319
129.1459	163.635	253.2899	352.0776	454.3726	507.9033	525.8593	585.7901	612.7793	742.1906	771.2077	832.3294	847.7255	862.0964	894.5452	898.7367	927.6769	939.1688	955.1873	996.186	1023.3171	1035.4483	1049.9457	1062.1015	1122.3565	1147.8673	1161.5677	1207.5508	1214.2475	1244.0434	1248.1448	1265.2007	1322.8599	1328.2251	1402.8065	1449.8693	1464.6209	1484.1495	1597.7989	3004.574	3009.2593	3052.0854	3067.3244	3083.5585	3104.1405	3118.7602	3191.4466	3207.9401
CC1=C2C3C4C2C(C1)N34	C[C]1[C]2[C@H]3[C@H]4[C@@H]2[C@@H](C1)N34	
InChI=1S/C8H9N/c1-3-2-4-6-5(3)7-8(6)9(4)7/h4,6-8H,2H2,1H3	InChI=1S/C8H9N/c1-3-2-4-6-5(3)7-8(6)9(4)7/h4,6-8H,2H2,1H3/t4-,6-,7+,8-,9?/m1/s1
