20
gdb 101627	2.51308	1.00688	0.82997	3.7918	76.25	-0.2709	0.0143	0.2852	1446.7927	0.168093	-440.289985	-440.279348	-440.278404	-440.326975	37.576	
C	 0.0692204998	 1.5711942499	-0.6436753971	-0.400901
C	-0.0087962519	 0.1945674265	 0.0122382154	 0.1001
C	-1.4491303514	-0.297070698	 0.1781391323	-0.059446
O	-2.1113024802	-0.4274907464	-1.0634620043	-0.417474
O	 0.6198670203	-0.8335816116	-0.7749116169	-0.270485
C	 2.0259622447	-0.9131697455	-0.7403930012	-0.010547
C	 2.427963981	-2.3699196541	-0.9855088473	-0.392834
C	 2.6596142441	-0.0347890198	-1.7539170431	 0.275966
N	 3.1689958049	 0.6318497127	-2.5486466059	-0.326613
H	 1.1005074412	 1.8877695516	-0.8129157735	 0.135757
H	-0.4575875346	 1.5581485625	-1.6002429673	 0.142762
H	-0.4094989396	 2.3128131348	 0.0041188555	 0.117998
H	 0.4696421967	 0.2178884669	 1.0046816172	 0.071545
H	-1.4350475855	-1.2500879584	 0.7288395881	 0.090116
H	-2.0187112772	 0.4278791607	 0.7684448001	 0.111039
H	-1.558476913	-1.0022681615	-1.6054973476	 0.292195
H	 2.3985671391	-0.5911902402	 0.2441125848	 0.118539
H	 3.5156366368	-2.4748461263	-0.983281364	 0.140452
H	 2.0020036708	-2.9948308404	-0.1975888553	 0.133724
H	 2.0439402037	-2.7059507634	-1.95140027	 0.148107
16.9928	85.5511	101.6151	179.7129	195.4768	217.8954	220.9349	266.5814	300.9957	327.8386	370.1637	430.857	467.3147	567.936	588.1643	666.9116	814.6262	816.5105	890.0509	921.2761	980.7224	1012.5244	1072.1838	1088.2221	1124.9912	1139.8529	1153.9478	1155.5179	1242.2928	1321.7237	1340.0573	1352.9356	1390.5248	1395.2984	1406.4216	1418.8102	1431.977	1481.5188	1487.1832	1494.4599	1495.9737	1499.0754	2352.4661	2974.8367	2992.1692	2993.0177	3050.2124	3056.4244	3082.2537	3121.3419	3139.2198	3142.4358	3144.2813	3801.9468
CC(CO)OC(C)C#N	C[C@@H](CO)O[C@@H](C)C#N	
InChI=1S/C6H11NO2/c1-5(3-7)9-6(2)4-8/h5-6,8H,4H2,1-2H3	InChI=1S/C6H11NO2/c1-5(3-7)9-6(2)4-8/h5-6,8H,4H2,1-2H3/t5-,6-/m0/s1
