19
gdb 12890	2.74237	2.23059	1.77816	0.7765	71.39	-0.2191	0.0907	0.3098	860.3504	0.165706	-365.039354	-365.031429	-365.030485	-365.071049	30.061	
C	-0.27508424	 1.4907483831	-0.0024967854	-0.3352
N	 0.0414295771	 0.0681618815	 0.0776298701	-0.129122
C	 1.3398679293	-0.4691382085	-0.304978598	-0.097765
C	 2.5382875753	 0.4572149962	-0.3527566259	-0.106403
O	 2.5375599004	 1.1796761174	 0.8763781707	-0.255015
C	 1.8294478703	 0.4331449155	 1.8608026423	-0.138696
C	 0.8845976947	-0.5057386228	 1.121349582	 0.299295
C	 0.3636344037	-1.7209907135	 1.8483384733	-0.473418
H	 0.5429346039	 2.1675532018	 0.2719765836	 0.132255
H	-0.5875044654	 1.716775397	-1.0272146669	 0.120007
H	-1.1300659871	 1.6902795872	 0.6515541017	 0.119577
H	 1.3333193147	-1.3393976129	-0.9574052893	 0.088586
H	 3.458623828	-0.1377035408	-0.4710787781	 0.096676
H	 2.5052861286	 1.19401301	-1.1638742757	 0.109878
H	 2.5178177986	-0.1596032924	 2.4849518142	 0.094281
H	 1.3183427045	 1.1515948312	 2.5132160894	 0.10717
H	-0.2540748152	-1.4312096885	 2.7065688536	 0.12007
H	-0.2567498324	-2.3214632231	 1.1795398211	 0.13197
H	 1.184573491	-2.3421952783	 2.2230818971	 0.115853
170.0025	181.4087	207.7553	220.2494	237.8806	260.6703	316.5494	463.5927	501.8383	584.9876	709.7696	730.2297	795.2182	884.7731	932.6324	944.6565	987.8698	996.0185	1021.2252	1103.4046	1111.7932	1132.8978	1160.5089	1171.1046	1181.2131	1225.7314	1245.0043	1260.8991	1306.9245	1357.1741	1370.8953	1411.2324	1431.5413	1468.732	1488.1954	1493.062	1497.5763	1506.066	1519.8015	1521.4704	2970.1098	2976.9188	3017.5076	3029.6556	3047.336	3053.5761	3083.867	3087.6411	3096.8314	3127.2452	3133.4024
CN1C2COCC12C	CN1[C@H]2COC[C@@]12C	
InChI=1S/C6H11NO/c1-6-4-8-3-5(6)7(6)2/h5H,3-4H2,1-2H3	InChI=1S/C6H11NO/c1-6-4-8-3-5(6)7(6)2/h5H,3-4H2,1-2H3/t5-,6+,7?/m0/s1
