14
gdb 7023	6.04068	0.91532	0.8685	2.3002	65.7	-0.2556	-0.0451	0.2105	1274.0591	0.102635	-382.526769	-382.517959	-382.517015	-382.561776	29.822	
O	-0.1813883356	 1.2458125628	 1.3004571633	-0.227607
C	 0.0437942471	 1.3241085345	 0.1232036863	 0.163531
C	 1.4290833518	 1.5866529086	-0.4572902711	-0.382239
C	 1.3574427799	 2.6436219641	-1.5603037203	 0.374796
O	 0.612500632	 2.5135622012	-2.4970871852	-0.280409
C	 2.2672948563	 3.8615698543	-1.3577761035	-0.487339
C	 2.1935772008	 4.8589727821	-2.4095189897	 0.319493
C	 2.136397226	 5.6852437086	-3.2781991893	-0.413814
H	-0.7490256594	 1.2114033316	-0.6442575495	 0.113646
H	 2.1230335028	 1.8344101253	 0.3482756204	 0.130811
H	 1.7559884137	 0.6541961634	-0.9367253307	 0.162322
H	 2.0113556747	 4.2974218169	-0.3806568057	 0.163415
H	 3.295027055	 3.4892872413	-1.2382450392	 0.15932
H	 2.0810587448	 6.4135666154	-4.0490544257	 0.204074
25.2167	71.2683	101.8946	133.2184	223.2226	323.5347	328.3672	406.8323	463.0743	511.2359	631.8524	650.2156	658.679	782.8985	858.6554	890.4951	959.5623	1023.2616	1053.9066	1087.1941	1180.4142	1232.3721	1278.0705	1338.8963	1406.9087	1433.6072	1444.993	1813.2058	1845.0796	2251.922	2933.5301	3008.1844	3033.7544	3036.0498	3123.9032	3506.1801
O=CCC(=O)CC#C	O=CCC(=O)CC#C	
InChI=1S/C6H6O2/c1-2-3-6(8)4-5-7/h1,5H,3-4H2	InChI=1S/C6H6O2/c1-2-3-6(8)4-5-7/h1,5H,3-4H2
