20
gdb 95723	2.71697	1.32553	1.02341	2.9174	75.65	-0.2589	0.0101	0.269	1196.8755	0.172218	-440.293757	-440.284992	-440.284048	-440.3273	33.278	
O	-0.16945071	 1.4710680395	 0.2485717816	-0.438664
C	 0.0050899155	 0.075991158	 0.015063617	 0.136018
C	 0.7422916078	-0.5869460732	 1.1963205433	-0.254736
C	 1.4161000668	-1.9205344624	 0.8567934101	-0.092305
O	 0.6511156143	-2.7377964842	-0.0345827762	-0.258431
C	-0.6986776739	-2.8694436275	 0.2420594968	 0.361826
N	-1.1846105744	-3.696697116	 1.0641826407	-0.478125
C	-1.532346692	-1.943892334	-0.6013001912	-0.257523
C	-1.4170282441	-0.4681101381	-0.1710652542	-0.195268
H	 0.7001988134	 1.8690009147	 0.355233801	 0.278995
H	 0.5837169881	-0.08504887	-0.9098275919	 0.071521
H	 1.5254644116	 0.0903880202	 1.5602460307	 0.091049
H	 0.0368245295	-0.7114475879	 2.0258774237	 0.121266
H	 2.3586618041	-1.754287835	 0.3269994551	 0.116269
H	 1.6447498214	-2.4727884157	 1.7791175485	 0.103063
H	-0.4354432886	-4.2275154126	 1.5155255728	 0.219527
H	-1.1905877509	-2.0503132079	-1.6375414227	 0.119164
H	-2.576627686	-2.2574775655	-0.5494063546	 0.126095
H	-1.9522356562	-0.3195596499	 0.7741764239	 0.117217
H	-1.9169825864	 0.1568379674	-0.9171022944	 0.113044
79.4826	109.7938	157.7863	198.048	285.2543	299.9623	367.6698	379.393	446.5124	470.6556	542.4508	568.591	707.9634	789.4246	812.9556	852.4658	903.7601	913.2307	954.9511	996.3254	1021.3578	1049.1981	1080.6251	1088.0412	1117.8281	1125.9063	1186.1198	1220.8553	1255.8566	1273.6564	1285.3783	1310.1446	1339.6364	1353.4312	1371.4075	1402.3443	1419.1782	1431.5759	1473.6413	1477.6751	1499.3668	1510.545	1749.1439	2963.1441	3004.6186	3027.8462	3041.1029	3045.3925	3063.512	3088.2571	3092.9608	3120.2813	3449.6651	3818.7149
OC1CCOC(=N)CC1	O[C@H]1CCO[C]([NH])CC1	
InChI=1S/C6H11NO2/c7-6-2-1-5(8)3-4-9-6/h5,7-8H,1-4H2	InChI=1S/C6H11NO2/c7-6-2-1-5(8)3-4-9-6/h5,7-8H,1-4H2/t5-/m1/s1
