16
gdb 80707	2.15162	1.59701	1.38512	3.0469	64.91	-0.2414	-0.0261	0.2153	1007.2266	0.122285	-474.961282	-474.952745	-474.9518	-474.994621	31.79	
O	 0.1029690011	 1.2952363469	-0.0543753244	-0.430574
C	-0.1258072629	-0.0740398308	-0.1620505594	 0.062153
C	-0.3553645056	-0.9204651781	 1.058334475	-0.141999
N	-1.0149518016	-0.0265286442	 2.0451721522	-0.373476
C	-2.226237925	 0.0533811162	 1.1619332705	-0.137617
C	-2.7242409694	 1.4409027495	 0.8165945859	 0.151016
O	-3.5430254092	 1.6347114019	-0.0459215947	-0.258759
C	-1.4813463451	-0.7146591502	 0.0472814144	 0.316494
O	-2.0759024622	-1.6066654582	-0.810337253	-0.449917
H	 0.1103356759	 1.4831138664	 0.8965293691	 0.297231
H	 0.4522985776	-0.549639942	-0.9501967624	 0.114762
H	 0.2333313049	-1.7791823061	 1.3562729929	 0.110727
H	-1.2193804906	-0.5118656277	 2.9114360979	 0.23689
H	-3.0613357175	-0.5507049461	 1.5322021566	 0.120351
H	-2.2839085978	 2.2688303042	 1.4148760501	 0.082225
H	-2.3645129326	-1.1240527817	-1.5947493606	 0.300492
63.6302	120.6058	172.5196	226.1709	275.5124	330.011	355.6207	377.3239	471.5953	486.8037	557.6887	629.4167	692.631	739.2445	823.0789	845.078	917.9811	947.192	983.9553	992.5739	1030.1044	1079.4837	1103.1384	1126.2171	1161.2409	1218.9935	1228.44	1282.0122	1312.5698	1338.1481	1355.9181	1395.3344	1403.7951	1485.7727	1820.5643	2889.5969	3061.5814	3155.3753	3192.8764	3539.1016	3709.7793	3778.2274
OC1C2NC(C=O)C12O	O[C@H]1[C@H]2N[C@@H](C=O)[C@@]12O	
InChI=1S/C5H7NO3/c7-1-2-5(9)3(6-2)4(5)8/h1-4,6,8-9H	InChI=1S/C5H7NO3/c7-1-2-5(9)3(6-2)4(5)8/h1-4,6,8-9H/t2-,3+,4-,5-/m0/s1
