18
gdb 17087	4.58488	1.61409	1.54073	0.8107	77.07	-0.253	0.0553	0.3082	894.6439	0.155865	-310.627649	-310.620896	-310.619952	-310.658295	27.614	
C	-0.0512498125	-1.2015812381	-0.0976837439	-0.463338
C	-0.0129554733	-0.0008492182	-0.0341285739	 0.314144
C	 0.0446444572	 1.4498300911	 0.0468055746	-0.159269
C	-0.4522057651	 2.0517496031	 1.4202312508	-0.229851
C	 0.8183708756	 2.8218758745	 1.8237297359	-0.006965
C	 1.2259436666	 3.5023331754	 0.4845443464	-0.231059
C	 1.4865342959	 2.0324856589	 0.0501841874	-0.010658
C	 1.939579361	 1.7863497241	 1.5165204387	-0.22241
H	-0.0898095119	-2.2607468076	-0.1590703938	 0.190143
H	-0.5278282715	 1.8721387664	-0.7866230813	 0.098082
H	-1.3197902992	 2.7037833197	 1.2872586319	 0.098999
H	-0.7168846426	 1.26805963	 2.1334783702	 0.111393
H	 0.7837708832	 3.3733012869	 2.7636934382	 0.060158
H	 0.4682925964	 4.0775569821	-0.0575331185	 0.086435
H	 2.1488835961	 4.0804142755	 0.5679521485	 0.097055
H	 2.1108534285	 1.7752817809	-0.8050044116	 0.068425
H	 2.9393022217	 2.1799665737	 1.7128362336	 0.096185
H	 1.8414881441	 0.7757470716	 1.9214300067	 0.102531
124.4956	159.8966	307.4859	411.5354	464.5459	505.7478	541.8751	615.0676	624.469	666.4293	809.6466	828.6181	835.7956	856.8669	868.7949	941.6042	950.3524	968.4839	1008.0602	1027.3272	1041.4813	1081.5435	1094.6879	1109.0266	1116.4663	1174.2416	1218.2256	1238.391	1245.5989	1268.8764	1288.591	1301.7242	1325.9451	1352.4263	1489.5672	1495.7071	1527.7278	2231.4115	3037.5301	3047.3434	3061.6218	3063.626	3109.7641	3112.104	3115.1885	3120.3794	3125.1372	3505.2304
C#CC1CC2CC1C2	C#C[C@H]1C[C@@H]2C[C@H]1C2	
InChI=1S/C8H10/c1-2-7-3-6-4-8(7)5-6/h1,6-8H,3-5H2	InChI=1S/C8H10/c1-2-7-3-6-4-8(7)5-6/h1,6-8H,3-5H2/t6-,7-,8+/m0/s1
