13
gdb 132200	2.05119	1.88671	0.98357	4.9189	66.44	-0.2223	-0.0142	0.208	1083.721	0.090183	-494.06666	-494.059303	-494.058359	-494.098589	27.856	
N	 0.1371869214	 1.3336255323	 0.1841569629	-0.575132
C	-0.052343866	-0.0190458912	 0.0644214903	 0.430562
C	-1.2002539395	-0.7158566083	 0.0269719267	-0.247432
C	-1.1771293449	-2.168966286	-0.0081263207	 0.343128
N	-2.2469295773	-2.8646111887	-0.0306766328	-0.536552
N	 0.1174556533	-2.7677539113	-0.0245360613	-0.41293
C	 1.1143970797	-2.0075453919	-0.0013916749	 0.39606
F	 2.3423639153	-2.4626546001	-0.0217545682	-0.041444
O	 1.170522867	-0.6610863181	 0.0459034296	-0.233613
H	 0.9990748389	 1.6811680182	-0.2112793302	 0.269728
H	-0.6684170711	 1.8999803965	-0.0328772943	 0.272625
H	-2.1553423553	-0.2093992166	 0.0303696199	 0.114701
H	-1.9995966717	-3.8550310247	-0.0587981368	 0.220298
131.8102	177.4823	212.4382	296.5803	343.5978	371.126	498.406	543.848	558.8548	595.6873	642.3402	666.4608	687.7016	744.8299	838.7991	903.5432	921.7765	979.3974	1021.8668	1123.1571	1160.3777	1273.5405	1287.3812	1371.4807	1426.5115	1628.5976	1696.1019	1723.9438	1788.6817	3231.7413	3474.7031	3575.7222	3687.1802
NC1=CC(=N)N=C(F)O1	N[C@@H]1C=C([NH])N=C(F)O1	
InChI=1S/C4H4FN3O/c5-4-8-2(6)1-3(7)9-4/h1,6H,7H2	InChI=1S/C4H5FN3O/c5-4-8-2(6)1-3(7)9-4/h1,3,6H,7H2/t3-/m0/s1
