22
gdb 40562	3.6814	1.02631	0.88151	1.1936	90.12	-0.218	0.0283	0.2464	1393.1487	0.19714	-367.209314	-367.200919	-367.199975	-367.242565	32.926	
C	 0.2400664041	 1.5458888436	-0.0147988282	-0.247008
N	 1.2944645569	 0.5371568765	-0.1579296543	-0.316877
C	-0.1050160329	 0.0929325864	 0.023084646	-0.10779
C	-0.4457374193	-0.6537324777	 1.2637710484	 0.366086
C	-1.457801072	-1.5287590351	 1.2593056828	-0.163199
C	-1.8815397279	-2.3529478254	 2.4466794855	-0.242408
C	-0.8233464278	-2.3533496095	 3.5585466076	-0.194054
C	-0.27156824	-0.9406086719	 3.7754077053	-0.203252
C	 0.3928096874	-0.4076860202	 2.4990034067	-0.288356
H	 0.2816473329	 2.1249325219	 0.9031952926	 0.118685
H	-0.0764323189	 2.111844385	-0.8876857949	 0.110333
H	 1.5677171272	 0.4435654361	-1.1320157162	 0.232603
H	-0.6220123496	-0.2738642622	-0.86234821	 0.076695
H	-2.0295216084	-1.6674903982	 0.3425652389	 0.068368
H	-2.8366337738	-1.9686018342	 2.837212382	 0.103292
H	-2.0950623552	-3.3803319798	 2.1244684018	 0.098124
H	-1.247551761	-2.7531372459	 4.4858781097	 0.087833
H	 0.0005252251	-3.0206168189	 3.2738197123	 0.097301
H	-1.0951205891	-0.2734686113	 4.0629936403	 0.093848
H	 0.4464064018	-0.9274986012	 4.6026576641	 0.08924
H	 1.3766928508	-0.8727800659	 2.3535805014	 0.119761
H	 0.6021536495	 0.6630409578	 2.6058075684	 0.100774
69.0112	107.2747	189.2088	222.0549	275.3702	350.1861	374.1142	464.4728	494.7717	553.5691	618.8371	755.1428	806.2623	823.7855	850.722	873.3581	900.0609	908.9945	937.0088	938.8381	967.655	985.4116	1057.72	1077.9207	1094.7466	1101.2412	1116.0882	1144.8367	1158.0866	1189.101	1225.7366	1246.5996	1265.3762	1286.3871	1295.7891	1337.7981	1368.5672	1372.8933	1382.8293	1404.84	1433.7887	1468.7565	1477.7384	1489.7222	1499.6209	1513.5338	1727.026	2987.5964	3015.7975	3020.6604	3025.0677	3036.2161	3055.7383	3067.2888	3071.7759	3106.0896	3114.6366	3130.2918	3190.9476	3509.7019
C1NC1C1=CCCCC1	C1N[C@H]1C1=CCCCC1	
InChI=1S/C8H13N/c1-2-4-7(5-3-1)8-6-9-8/h4,8-9H,1-3,5-6H2	InChI=1S/C8H13N/c1-2-4-7(5-3-1)8-6-9-8/h4,8-9H,1-3,5-6H2/t8-/m1/s1
