14
gdb 20469	6.32754	1.38792	1.23061	3.3962	63.63	-0.2362	0.0166	0.2528	941.6202	0.109512	-378.713043	-378.706465	-378.705521	-378.744535	24.066	
C	 0.214147127	 1.5350251634	 0.0262073419	-0.180771
O	 1.1728444695	 0.5063430064	-0.209026817	-0.232058
C	-0.1892470254	 0.116500401	 0.0135270403	-0.045933
C	-0.4670862866	-0.6411642878	 1.2474722357	 0.230998
C	-1.5195893801	-1.5011615093	 1.4954861824	-0.144623
N	-1.357542148	-1.9477065933	 2.7643516015	-0.178235
N	-0.2620273692	-1.4491216578	 3.3672173611	-0.220635
C	 0.2808557804	-0.6554223287	 2.4508708776	-0.087722
H	 0.3021274712	 2.049386987	 0.9820487984	 0.116881
H	-0.0135036312	 2.1704209758	-0.8293837941	 0.115588
H	-0.6984218812	-0.2443512041	-0.880778813	 0.089831
H	-2.3479062302	-1.8164821041	 0.8805777825	 0.136388
H	-1.9402907332	-2.5936479045	 3.2689576185	 0.276342
H	 1.2000954569	-0.130792564	 2.662939724	 0.123948
52.4789	170.8503	174.3888	413.1314	445.5714	516.5071	655.5276	665.7473	703.4137	787.4668	847.7318	891.8241	896.1464	953.3287	985.8694	1022.8337	1066.7283	1095.6498	1149.5225	1168.3524	1171.07	1238.4238	1280.2693	1291.9727	1393.8079	1397.5207	1451.8825	1496.7544	1522.051	1619.6991	3078.2638	3102.4903	3169.3151	3256.6422	3259.4788	3677.414
C1OC1C1=CNN=C1	C1O[C@H]1c1c[nH]nc1	
InChI=1S/C5H6N2O/c1-4(2-7-6-1)5-3-8-5/h1-2,5H,3H2,(H,6,7)	InChI=1S/C5H6N2O/c1-4(2-7-6-1)5-3-8-5/h1-2,5H,3H2,(H,6,7)/t5-/m1/s1
