16
gdb 28522	3.17285	1.43443	0.99207	1.3785	80.24	-0.1805	-0.0137	0.1668	1138.27	0.127851	-430.314542	-430.306547	-430.305603	-430.346456	31.838	
N	 0.0088073093	 1.3653945747	 0.2257867956	-0.575088
C	-0.0183589584	-0.0164710984	 0.0741883157	 0.336027
C	-1.2077530732	-0.7319419441	-0.069591782	-0.108843
N	-1.2129669995	-2.0696555314	-0.1239251345	-0.293838
C	-0.0551591834	-2.6996164835	-0.0558735332	 0.278587
N	-0.0120873428	-4.1033607811	-0.1532716414	-0.590238
C	 1.1561824418	-1.9716463929	 0.043086755	 0.323439
N	 2.3612426454	-2.655409151	 0.1071930122	-0.57945
N	 1.165573058	-0.6486016362	 0.1128536691	-0.375739
H	 0.9110345512	 1.7648194596	 0.0090545305	 0.248292
H	-0.7536745689	 1.8623582673	-0.2102833598	 0.247464
H	-2.1677922799	-0.22736613	-0.1304663271	 0.090198
H	-0.9533879657	-4.4791726197	-0.1492860721	 0.246951
H	 0.5320828554	-4.5262479131	 0.5920647066	 0.24635
H	 2.3856076339	-3.4927930013	-0.4605855656	 0.255523
H	 3.1604887869	-2.052935829	-0.035743489	 0.250364
131.8196	238.7563	263.293	297.8443	313.3111	345.467	387.1084	475.6364	492.4445	512.9608	519.5187	591.5297	600.4295	676.15	720.7361	742.1473	782.5996	815.4012	848.7578	866.5876	1008.3258	1068.8161	1123.3499	1164.1129	1284.8774	1286.4214	1340.8081	1394.0914	1484.2076	1511.2314	1590.3749	1626.3218	1634.8466	1643.9278	1647.9708	3160.9492	3501.1116	3537.4216	3563.3804	3604.0999	3649.5371	3671.3248
NC1=CN=C(N)C(N)=N1	Nc1cnc(N)c(N)n1	
InChI=1S/C4H7N5/c5-2-1-8-3(6)4(7)9-2/h1H,(H2,6,8)(H4,5,7,9)	InChI=1S/C4H7N5/c5-2-1-8-3(6)4(7)9-2/h1H,(H2,6,8)(H4,5,7,9)
