17
gdb 11335	4.4217	1.38866	1.25728	3.6213	67.74	-0.2405	0.0354	0.2759	1018.6619	0.141933	-401.011919	-401.003623	-401.002679	-401.045841	29.396	
C	-0.2263987231	 1.2934190674	 0.624204115	-0.332772
N	-0.1301950158	-0.1220305611	 0.3071340558	-0.329737
C	-1.1007741492	-0.7131729861	-0.2294848525	 0.451158
C	-1.1324530283	-2.1716828903	-0.6355033272	-0.320407
C	-2.6254139208	-2.469530992	-0.7661161567	 0.095339
O	-3.0837176958	-2.8773868217	 0.5126843485	-0.429539
C	-3.1688004725	-1.0876844338	-1.1687357491	-0.098314
O	-2.306565747	-0.1300972938	-0.5527401629	-0.248296
H	 0.5813049734	 1.8294564557	 0.1122634575	 0.121092
H	-1.1817252228	 1.756822749	 0.3539418422	 0.120376
H	-0.0615696361	 1.4297331197	 1.6992553204	 0.123619
H	-0.6254531733	-2.2972293461	-1.5983088274	 0.125499
H	-0.6425172233	-2.8088726095	 0.0997189187	 0.147634
H	-2.8482308506	-3.2265508575	-1.5296017055	 0.074267
H	-4.0396417831	-2.9840684202	 0.4750440117	 0.285353
H	-3.1504050846	-0.9548982136	-2.2591738204	 0.106657
H	-4.188288237	-0.9135772361	-0.8106601981	 0.10807
27.0646	76.9368	162.9546	228.992	238.0362	302.2995	381.3254	404.708	505.0291	579.7629	684.4342	784.2341	835.8668	863.9762	893.6515	978.0337	1011.2576	1031.4817	1080.9765	1099.7628	1133.5003	1146.7924	1185.9857	1204.2798	1210.5568	1255.452	1311.8639	1345.6308	1387.1604	1425.7278	1438.704	1458.2626	1495.2423	1496.9388	1506.9969	1811.6802	3007.0722	3016.472	3022.4786	3061.3999	3074.0648	3081.9444	3087.6938	3148.2301	3816.4815
CN=C1CC(O)CO1	CN=C1C[C@@H](O)CO1	
InChI=1S/C5H9NO2/c1-6-5-2-4(7)3-8-5/h4,7H,2-3H2,1H3	InChI=1S/C5H9NO2/c1-6-5-2-4(7)3-8-5/h4,7H,2-3H2,1H3/t4-/m1/s1
