18
gdb 125872	3.59076	1.07345	1.01187	3.3277	77.12	-0.2467	-0.0091	0.2376	1237.5097	0.148416	-401.932398	-401.924312	-401.923368	-401.966069	30.204	
C	-0.3824252972	 1.4199572617	 0.0112646551	-0.409035
C	-0.0444548755	-0.0525976838	 0.0374655334	 0.021306
C	 1.339237109	-0.5327597073	-0.3131036882	-0.30677
C	 0.8526950929	-0.6522988174	 1.1137129511	-0.160792
C	 1.4352740863	 0.1633031444	 2.2012119617	 0.160862
C	 2.6325458626	 0.8072658947	 2.2741571002	-0.014273
O	 2.780122617	 1.4238472848	 3.4568131209	-0.165876
N	 1.6476654332	 1.1892115515	 4.2296364812	-0.131379
C	 0.8685401987	 0.4508749612	 3.4816041729	-0.048038
H	 0.4557305568	 2.0278349468	 0.3635097528	 0.122211
H	-0.6284293082	 1.744605108	-1.0054946801	 0.119597
H	-1.2437010868	 1.6431101443	 0.6505912668	 0.119781
H	-0.8572643622	-0.7034965392	-0.2737990338	 0.088169
H	 1.4563376675	-1.4419015577	-0.8920654976	 0.115098
H	 2.0844667475	 0.2265750398	-0.5280421656	 0.111892
H	 0.5687227206	-1.6539229738	 1.4264804682	 0.097257
H	 3.458535618	 0.9059607328	 1.5873691632	 0.149428
H	-0.0887301501	 0.1351887791	 3.8735899179	 0.130561
34.1269	109.1767	166.711	216.674	277.6655	343.3935	410.7814	507.5485	604.2594	636.5715	709.045	778.7033	840.2959	850.7855	883.4982	901.4365	916.3279	933.582	937.0619	1000.9855	1034.5558	1077.587	1092.3211	1117.6047	1147.7354	1151.1445	1185.9204	1198.0486	1229.489	1288.3962	1336.1447	1393.9172	1423.1098	1427.0498	1480.1516	1491.5265	1495.017	1505.8797	1652.4251	3032.814	3091.901	3109.4228	3130.0799	3131.6766	3144.9843	3215.3401	3237.4765	3266.7723
CC1CC1C1=CON=C1	C[C@H]1C[C@H]1c1conc1	
InChI=1S/C7H9NO/c1-5-2-7(5)6-3-8-9-4-6/h3-5,7H,2H2,1H3	InChI=1S/C7H9NO/c1-5-2-7(5)6-3-8-9-4-6/h3-5,7H,2H2,1H3/t5-,7+/m0/s1
