19
gdb 62686	2.48789	1.71667	1.30162	2.2058	74.69	-0.1926	0.0624	0.2551	1034.0092	0.157043	-422.935978	-422.92731	-422.926366	-422.96868	34.626	
C	-0.2084076786	 1.6269304433	-0.0537715284	-0.486974
C	 0.0650756723	 0.1313886254	 0.0965471222	 0.286485
O	-1.1115815341	-0.6360717691	-0.1578820005	-0.475648
C	 1.2968586427	-0.6654019826	-0.330956113	-0.239575
C	 2.6708863263	-0.1262231415	 0.1563810279	-0.060268
C	 2.6525542177	 1.1431081776	 0.9709760476	-0.317429
C	 2.1940682502	-0.1439391791	 1.6003878949	-0.110273
C	 0.8215733426	-0.6663865511	 1.1316235493	 0.406045
O	 0.2121790332	-1.6180217771	 1.9130021389	-0.467208
H	 0.5191575378	 2.1179395678	-0.7041134794	 0.131243
H	-1.1990869973	 1.7525457249	-0.5001655434	 0.115095
H	-0.2198192138	 2.1441555875	 0.9101708646	 0.136127
H	-1.2076084146	-0.7365849736	-1.1111226304	 0.287665
H	 1.2138498411	-1.423645237	-1.1021434734	 0.081239
H	 3.595773063	-0.5306328419	-0.2343613598	 0.093603
H	 3.6403612839	 1.4527247234	 1.3037273237	 0.112342
H	 1.9919914107	 1.9747307657	 0.7739016784	 0.11452
H	 2.6757364906	-0.5834319058	 2.4637209656	 0.100053
H	-0.6320535239	-1.806483407	 1.4783818452	 0.292957
76.062	196.5954	229.1873	262.5238	271.1092	302.4069	359.2873	399.7242	447.4901	477.2456	516.0536	593.3825	637.7474	690.6449	721.1296	761.9332	857.1374	880.3737	894.8673	917.8124	939.1194	970.8388	1005.1182	1022.2883	1061.3583	1064.7206	1087.1792	1095.9327	1156.6027	1182.4935	1192.4081	1235.9087	1278.2273	1292.62	1337.201	1401.9565	1420.9632	1445.3171	1490.8894	1497.3266	1511.6171	3040.9068	3107.3215	3121.5025	3133.3297	3165.3097	3190.399	3204.7963	3242.8712	3745.3388	3799.4734
CC1(O)C2C3CC3C12O	C[C@@]1(O)[C@H]2[C@H]3C[C@H]3[C@@]12O	
InChI=1S/C7H10O2/c1-6(8)5-3-2-4(3)7(5,6)9/h3-5,8-9H,2H2,1H3	InChI=1S/C7H10O2/c1-6(8)5-3-2-4(3)7(5,6)9/h3-5,8-9H,2H2,1H3/t3-,4+,5+,6+,7-/m0/s1
