19
gdb 67717	3.64189	1.76791	1.55211	1.3681	84.72	-0.1922	-0.0154	0.1767	924.1511	0.160473	-348.657952	-348.65124	-348.650296	-348.688388	29.015	
C	-0.0829854051	 1.4605426311	 0.0055312986	-0.498208
C	 0.0256636916	-0.0432304954	-0.0386313701	 0.331694
C	-0.4097201665	-0.8756713215	-1.1774862291	-0.172559
C	-0.0288392794	-2.1557550037	-0.9528029817	 0.002497
C	-1.1047669682	-3.0173524267	-0.2741843757	-0.27251
C	-0.4337235209	-2.3888280457	 1.0231435851	-0.030813
C	-0.374728391	-0.8451373261	 1.274589125	-0.136541
C	 1.0605760404	-0.7709274652	 0.7782766557	-0.128374
C	 0.9147920684	-2.2096371022	 0.2693774693	-0.069557
H	 0.6236627585	 1.9219616482	-0.6930531766	 0.12419
H	-1.0896519076	 1.7951588736	-0.2680040047	 0.119963
H	 0.136923672	 1.8481544806	 1.0052344292	 0.117146
H	-1.322941016	-0.6245563233	-1.7120395643	 0.087095
H	-2.1455577161	-2.7908585625	-0.5139682979	 0.102821
H	-0.945658779	-4.1020113814	-0.2666017516	 0.099284
H	-0.4730765162	-2.9709903291	 1.9473403323	 0.082083
H	-0.8484909238	-0.3095395579	 2.0869547352	 0.088267
H	 1.9285706768	-0.2936726927	 1.2141147176	 0.08503
H	 1.7104086121	-2.9503445901	 0.3117771338	 0.068492
200.4979	225.4661	290.3641	376.8529	463.3978	512.5612	559.4222	637.2974	662.4314	702.5035	757.989	807.8176	814.0457	827.6061	867.4399	877.5349	896.4032	913.8455	935.1002	958.379	996.5278	1004.162	1026.7379	1056.2428	1058.0625	1091.69	1103.6116	1153.0043	1173.3244	1203.4812	1227.6791	1233.6248	1261.599	1269.5085	1329.3579	1371.7328	1418.265	1489.1514	1493.9834	1498.9436	1571.2932	3028.1974	3031.8742	3081.0425	3089.6181	3100.7473	3112.6081	3131.3017	3150.3075	3191.4504	3203.2539
CC12C=C3CC4C1C2C34	C[C@]12[CH][C]3C[C@@H]4[C@H]1[C@H]2[C@H]34	
InChI=1S/C9H10/c1-9-3-4-2-5-6(4)8(9)7(5)9/h3,5-8H,2H2,1H3	InChI=1S/C9H10/c1-9-3-4-2-5-6(4)8(9)7(5)9/h3,5-8H,2H2,1H3/t5-,6+,7-,8+,9-/m0/s1
