18
gdb 45601	2.54556	1.69584	1.38982	4.7692	69.94	-0.2324	0.004	0.2364	990.6545	0.150864	-439.112406	-439.104886	-439.103942	-439.144888	28.875	
O	-0.1360768948	 0.4244142619	 0.9183330129	-0.321694
C	-0.0109073324	 1.4193157358	 0.2822564815	 0.449005
O	-1.0015180774	 2.1773343804	-0.2957328627	-0.260011
C	-0.0445617217	 3.1787010444	-0.7937346387	 0.116524
C	-0.1800771632	 4.5353555405	-0.1270167083	-0.225093
C	-0.0396137583	 4.4374596297	 1.4010914025	-0.2251
C	 1.22010913	 3.6349848994	 1.8579771444	-0.176839
N	 1.9601219139	 2.9328467458	 0.7977752413	-0.279824
C	 1.12824594	 2.3391893621	-0.2133660872	-0.195237
H	-0.1145974534	 3.230952474	-1.8827702922	 0.089206
H	 0.608478244	 5.17452277	-0.5475843601	 0.101549
H	-1.1342696376	 5.0014394328	-0.3932554754	 0.117623
H	-0.0185445004	 5.4450754053	 1.8265604112	 0.102628
H	-0.9380810066	 3.9550217755	 1.7966107057	 0.127168
H	 1.9345651943	 4.2933877223	 2.3585801652	 0.10697
H	 0.916794005	 2.8873570467	 2.5996014458	 0.132565
H	 2.6453320804	 3.5409002399	 0.3655033497	 0.225874
H	 1.7479497781	 1.8481733736	-0.9681464856	 0.114687
60.0144	121.1238	198.3958	284.4519	326.1767	459.7598	513.1	532.9364	627.327	652.7508	731.9625	779.6306	797.2739	847.3278	857.7265	865.5742	925.7933	973.239	994.0131	1052.6451	1075.9287	1104.6133	1129.6102	1160.0795	1213.1403	1218.8575	1229.1319	1286.9071	1316.4041	1354.7941	1366.5281	1378.3388	1387.3813	1406.1027	1473.0793	1491.0133	1491.9114	1507.9629	1936.7705	3021.1292	3038.8063	3055.6314	3075.3001	3079.6388	3083.5303	3091.0299	3104.3388	3542.4947
O=C1OC2CCCNC12	O=C1O[C@H]2CCCN[C@@H]12	
InChI=1S/C6H9NO2/c8-6-5-4(9-6)2-1-3-7-5/h4-5,7H,1-3H2	InChI=1S/C6H9NO2/c8-6-5-4(9-6)2-1-3-7-5/h4-5,7H,1-3H2/t4-,5+/m0/s1
