21
gdb 93713	2.47865	1.24259	1.15368	1.296	84.34	-0.2526	0.0446	0.2972	1236.1065	0.180706	-387.076613	-387.066921	-387.065977	-387.111346	36.707	
C	-0.0082034492	 1.5440573441	 0.0950340715	-0.409172
C	 0.0827369884	 0.038190799	-0.0696681823	 0.146256
C	 0.9422854794	-0.4557999114	-1.2457935661	-0.219257
C	 1.4653707733	-1.8259968261	-0.7624928351	-0.281862
C	 1.1093136633	-1.8549974524	 0.7644231729	 0.199032
C	 2.2946215035	-2.2154296279	 1.6623720703	-0.440435
O	 0.7246077413	-0.513236551	 1.0795584789	-0.275199
C	-0.0195127672	-2.7702483228	 1.0141225822	 0.370506
C	-0.939598068	-3.5163614748	 1.2210381588	-0.527573
H	 0.9913413983	 1.9773094636	 0.2013234055	 0.120158
H	-0.4924388867	 1.9935470087	-0.7774714838	 0.115459
H	-0.5921722961	 1.8017288375	 0.9828108215	 0.126849
H	-0.9303804492	-0.388064673	-0.1535144173	 0.07354
H	 0.3744513683	-0.5208215493	-2.1773395329	 0.102366
H	 1.7715201127	 0.2401473758	-1.4083602732	 0.101972
H	 0.9944210648	-2.6600880274	-1.2846779991	 0.117103
H	 2.5457028881	-1.917616229	-0.89713589	 0.107197
H	 3.1157578063	-1.5174719664	 1.4770170264	 0.118097
H	 2.0065620451	-2.1502834948	 2.7141747221	 0.134205
H	 2.6344106174	-3.2338085548	 1.4560833386	 0.12456
H	-1.7535274638	-4.1724349676	 1.4083167311	 0.196198
36.5059	100.3309	173.4401	194.3362	220.7262	242.37	288.0111	347.6095	398.5742	439.9532	496.2073	572.6827	603.3895	616.2732	624.3213	660.4744	775.6792	812.7274	860.9162	885.881	916.5498	953.3795	972.6067	1004.6857	1062.4875	1113.0288	1131.4766	1141.7902	1184.5856	1200.836	1240.8079	1274.4064	1302.7658	1319.415	1370.9342	1392.8265	1401.2673	1413.5105	1479.7022	1482.4315	1487.3494	1493.6187	1498.5323	1507.5635	2225.8933	2968.4057	3039.8513	3046.799	3051.1348	3073.9912	3098.9264	3113.5053	3119.0449	3125.1909	3127.2577	3132.9601	3500.6661
CC1CCC(C)(O1)C#C	C[C@H]1CC[C@@](C)(O1)C#C	
InChI=1S/C8H12O/c1-4-8(3)6-5-7(2)9-8/h1,7H,5-6H2,2-3H3	InChI=1S/C8H12O/c1-4-8(3)6-5-7(2)9-8/h1,7H,5-6H2,2-3H3/t7-,8-/m0/s1
