18
gdb 102438	2.11416	1.1416	0.8893	3.787	73.59	-0.2827	-0.0887	0.194	1352.7399	0.144778	-439.100759	-439.090227	-439.089283	-439.137729	35.79	
C	-1.5354081804	-0.2154900973	-0.0431863763	-0.40217
C	-0.0102455372	-0.1496402328	 0.0687514976	-0.183732
C	 0.7701380113	-0.6510362036	-1.1780680602	-0.097739
C	 2.2543506343	-0.2708190907	-1.0896926757	-0.094725
O	 2.3219485751	 1.1443173304	-1.1223767516	-0.421892
C	 0.6418662806	-2.1516304493	-1.3222271466	 0.291007
O	 1.4094020534	-2.9530749828	-0.8468698294	-0.279296
C	-0.5205403347	-2.6340744293	-2.1029627962	 0.24053
N	-1.4201022237	-3.0057613769	-2.7277821565	-0.30707
H	-1.8939612941	 0.3456410877	-0.9124794862	 0.127464
H	-1.9072454744	-1.2401699295	-0.1352713955	 0.133197
H	-1.9974396719	 0.2212850244	 0.8471012056	 0.123679
H	 0.3071298369	 0.8855350921	 0.2201019977	 0.135815
H	 0.3338796401	-0.7192604832	 0.9408754935	 0.112472
H	 0.3402591978	-0.1742621604	-2.0676101568	 0.113044
H	 2.6820694615	-0.6825121151	-0.1656517955	 0.113131
H	 2.8012174665	-0.7181541889	-1.9330394016	 0.101491
H	 3.2331660687	 1.4071705752	-0.9648169063	 0.294795
23.2173	79.2043	99.7582	139.0668	180.2161	207.3927	224.7676	249.9347	271.3492	329.0545	347.2038	422.3434	508.7799	618.9241	741.3231	749.3461	836.7852	871.3523	982.454	1012.4941	1056.5637	1059.2671	1106.3966	1120.8968	1152.9519	1240.3867	1257.8316	1281.4956	1326.9612	1351.4236	1382.9496	1421.4382	1456.486	1491.904	1500.7139	1504.5379	1520.6613	1783.499	2334.0568	2990.2811	3029.6383	3034.3072	3040.5868	3051.1697	3093.6535	3109.2032	3117.6754	3838.3505
CCC(CO)C(=O)C#N	CC[C@@H](CO)C(=O)C#N	
InChI=1S/C6H9NO2/c1-2-5(4-8)6(9)3-7/h5,8H,2,4H2,1H3	InChI=1S/C6H9NO2/c1-2-5(4-8)6(9)3-7/h5,8H,2,4H2,1H3/t5-/m0/s1
