23
gdb 79466	2.39191	1.7984	1.42571	0.1423	88.91	-0.2643	0.0896	0.3539	1062.9224	0.207607	-351.136182	-351.128166	-351.127221	-351.167998	33.391	
C	-0.2132781744	 1.624034481	 0.0014715701	-0.43781
C	 0.0340229204	 0.1207653676	 0.0124852273	 0.012929
C	 1.1189749291	-0.5466425993	-0.8435563222	-0.046816
C	 2.5559394525	-0.3132114378	-0.1897956633	-0.042383
C	 2.6639756089	-1.8522024163	-0.0146491488	-0.244373
C	 1.1387064689	-1.7615706523	 0.1339350704	-0.062209
C	 0.7605398446	-0.6187796573	 1.1889884579	 0.318907
C	 0.054904806	-0.9227401477	 2.4899549457	-0.507823
C	 2.1226330347	 0.1078039648	 1.2308004293	-0.250677
H	 0.7120702342	 2.2035474873	 0.0618576922	 0.116306
H	-0.7191041663	 1.918880126	-0.924744227	 0.112878
H	-0.8558393095	 1.9291185529	 0.8357936814	 0.112543
H	-0.9131968322	-0.4010121203	-0.1806141809	 0.06191
H	 1.0682832969	-0.6522249806	-1.9275431403	 0.056646
H	 3.3336424109	 0.2636249116	-0.6899921889	 0.056027
H	 2.9336077804	-2.3665779501	-0.9422073081	 0.092398
H	 3.2784365125	-2.232163095	 0.8089884262	 0.083575
H	 0.4574738528	-2.6089210212	 0.0511755025	 0.056996
H	 0.6810616402	-1.536272066	 3.1481186225	 0.112856
H	-0.1892728144	-0.0023747312	 3.0343875656	 0.11351
H	-0.8817714897	-1.4653377486	 2.3204232525	 0.11015
H	 2.7967488406	-0.2858101789	 1.9987703263	 0.085845
H	 2.0285495727	 1.1849809416	 1.3862312998	 0.088614
169.1851	186.8376	209.3136	240.804	285.2259	302.9739	467.0451	480.4614	527.1406	593.2821	653.8615	703.9876	753.7849	809.4804	833.1656	850.8677	884.49	907.2427	937.2867	946.6268	973.5315	1003.8446	1010.4496	1037.5961	1051.3786	1067.7784	1078.8953	1114.4849	1151.0562	1152.6984	1168.9237	1189.2181	1206.6597	1221.9194	1248.2106	1260.3079	1266.4478	1285.5219	1307.4199	1346.2624	1400.8912	1408.8768	1416.9016	1487.9963	1491.8936	1494.662	1495.2287	1499.5226	1522.6361	3012.5897	3018.6424	3028.5772	3032.2922	3049.5602	3079.9453	3086.3789	3087.1779	3089.8376	3096.2777	3103.7321	3108.6545	3112.3448	3118.6446
CC1C2C3CC2C1(C)C3	C[C@H]1[C@H]2[C@@H]3C[C@H]2[C@@]1(C)C3	
InChI=1S/C9H14/c1-5-8-6-3-7(8)9(5,2)4-6/h5-8H,3-4H2,1-2H3	InChI=1S/C9H14/c1-5-8-6-3-7(8)9(5,2)4-6/h5-8H,3-4H2,1-2H3/t5-,6+,7+,8-,9-/m0/s1
