16
gdb 34960	3.27874	1.60011	1.52982	0.8561	73.58	-0.2177	0.0221	0.2398	917.2986	0.124713	-400.631083	-400.624228	-400.623284	-400.66223	27.573	
C	-0.2159189252	-1.2695247779	-0.1396962619	-0.432608
C	-0.1190252199	-0.0743481814	-0.0496634876	 0.341586
C	-0.0019267402	 1.3611751079	 0.064830649	-0.184986
C	-0.22644241	 2.0460863966	 1.4414795663	 0.085828
O	 0.4828197082	 1.3769554715	 2.4988251876	-0.295996
C	 1.7374903024	 1.9915937681	 2.108386961	 0.093079
C	 2.3452086608	 1.2892957245	 0.8843021807	-0.19054
N	 1.3849958622	 1.9899777716	-0.0488312094	-0.179657
C	 1.0033085146	 2.9186793468	 1.1120308583	-0.057491
H	-0.307234271	-2.3248338182	-0.2171991422	 0.20151
H	-0.6258042405	 1.8538474814	-0.6914001996	 0.114455
H	-1.2300265781	 2.3580160601	 1.7375891978	 0.088875
H	 2.3465074475	 2.2711520603	 2.9701425094	 0.084666
H	 3.3603875593	 1.6353225308	 0.6640798741	 0.112577
H	 2.3091076158	 0.1980094996	 0.8600037561	 0.129813
H	 1.066476774	 3.9980786883	 0.9971675203	 0.088888
120.9615	146.186	315.5776	333.2938	419.7383	539.6043	554.2538	614.5196	661.3827	696.9102	739.9505	777.1574	835.3632	837.1876	869.1826	874.8631	951.4114	986.7074	997.6728	1021.1202	1029.1537	1065.2308	1089.3025	1174.14	1182.3547	1190.5592	1208.0134	1239.7583	1260.8443	1282.6155	1305.7071	1336.7368	1349.8892	1476.3834	2233.2102	3028.1071	3048.5995	3088.8399	3092.6706	3119.5588	3145.7424	3502.1118
C#CC1C2OC3CN1C23	C#C[C@H]1[C@H]2O[C@H]3CN1[C@@H]23	
InChI=1S/C7H7NO/c1-2-4-7-6-5(9-7)3-8(4)6/h1,4-7H,3H2	InChI=1S/C7H7NO/c1-2-4-7-6-5(9-7)3-8(4)6/h1,4-7H,3H2/t4-,5-,6+,7+/m0/s1
