21
gdb 101295	2.24725	1.05154	0.77968	2.7072	80.7	-0.2458	-0.0181	0.2277	1486.0886	0.180098	-424.221929	-424.211633	-424.210689	-424.257742	37.043	
C	-0.2663736443	 1.4534457771	 0.0802403584	-0.39499
C	 0.0551649436	-0.0336070727	-0.1274874123	-0.001188
C	 0.8612670552	-0.2560898434	-1.4099991074	-0.075694
O	 0.0921869645	 0.2193040702	-2.5039204592	-0.42266
C	 0.7980298958	-0.5883645797	 1.0762701541	 0.005497
C	 0.0815083695	-1.1184548919	 2.2704190492	-0.316907
C	 0.8855804977	-2.084145628	 1.4056601309	-0.118134
C	 0.1604997829	-3.0951148199	 0.6062865631	 0.162028
O	 0.5996140928	-4.1851659501	 0.3282011537	-0.276217
H	 0.6526237016	 2.0318130456	 0.2352104791	 0.108397
H	-0.7761758009	 1.8582073382	-0.7960989723	 0.137955
H	-0.9037152853	 1.5981913292	 0.9577339714	 0.112361
H	-0.8929654822	-0.5712847993	-0.2506141729	 0.084606
H	 1.8231435757	 0.2796214171	-1.3349065946	 0.082814
H	 1.0905545803	-1.3268492888	-1.5214364083	 0.098198
H	 0.5928089183	 0.0733437192	-3.3114805711	 0.289612
H	 1.7281424663	-0.0636901028	 1.2865347298	 0.096931
H	 0.4598566097	-0.9112168098	 3.2646234496	 0.127237
H	-1.000002525	-1.2016459428	 2.2100491183	 0.124418
H	 1.8336011996	-2.4415748871	 1.7929207006	 0.105439
H	-0.8587707358	-2.7902445404	 0.2751164801	 0.070298
55.3057	83.9488	107.8788	157.8634	207.1021	233.004	246.9954	266.3009	291.5354	359.0651	404.0836	435.3403	500.0983	564.1851	786.4476	839.6804	864.9383	883.4829	928.8587	943.759	982.3016	1016.6698	1048.6408	1072.9396	1077.9164	1103.6791	1137.6562	1166.4288	1178.3378	1194.3623	1231.8534	1253.4331	1266.0297	1311.5607	1343.287	1359.4995	1398.4493	1420.3223	1448.3386	1460.9548	1488.5372	1493.2937	1503.8839	1520.3821	1811.4572	2864.2562	2956.1656	2998.645	3030.331	3037.6559	3097.7062	3125.9399	3128.1767	3135.0044	3175.6064	3218.2198	3836.2979
CC(CO)C1CC1C=O	C[C@@H](CO)[C@H]1C[C@H]1C=O	
InChI=1S/C7H12O2/c1-5(3-8)7-2-6(7)4-9/h4-8H,2-3H2,1H3	InChI=1S/C7H12O2/c1-5(3-8)7-2-6(7)4-9/h4-8H,2-3H2,1H3/t5-,6-,7+/m0/s1
