18
gdb 81558	3.27136	1.1412	1.07341	3.5399	72.84	-0.2321	-0.0036	0.2285	1189.3386	0.146331	-439.023062	-439.014405	-439.01346	-439.057078	32.17	
C	 0.3663164142	 0.9461360993	-0.7530235062	-0.485431
C	 0.0077039404	 0.0394979814	 0.4044922914	 0.373319
O	 0.6723210312	-0.0236640745	 1.4136875744	-0.312061
C	-1.2669052648	-0.7843654622	 0.2944031597	-0.069596
C	-1.7822007791	-1.3025877496	-1.0791233849	-0.08
N	-0.5452523186	-2.1855058984	-1.1133065216	-0.330945
C	-1.104301842	-2.3274286527	 0.2921417747	-0.076332
C	-2.5359908351	-2.4275990382	-0.3309305254	 0.120719
O	-3.6786387619	-2.052568982	 0.3862545288	-0.428253
H	 1.2308424587	 1.5589197713	-0.4941104788	 0.134613
H	 0.5930337205	 0.3274151378	-1.6274831315	 0.158644
H	-0.4820043981	 1.5876805244	-1.0188873784	 0.128831
H	-2.0360280922	-0.4049656426	 0.9697423369	 0.116006
H	-2.1092937568	-0.731717256	-1.9489766461	 0.087409
H	-0.7425385985	-3.0358407447	-1.6535568637	 0.20837
H	-0.6198443163	-2.9478584357	 1.0461347243	 0.094471
H	-2.6970112212	-3.336199386	-0.9301860855	 0.068868
H	-3.9399029204	-2.7845136215	 0.9543692218	 0.291367
35.5943	150.9882	152.4641	163.6988	256.7206	276.4479	364.0762	416.1363	488.2702	527.3405	595.811	630.7106	783.6309	823.4578	847.9353	883.0747	901.552	914.2702	955.7936	1005.7509	1045.856	1053.8015	1107.4131	1117.0502	1142.7658	1158.4412	1177.8264	1187.8538	1233.3275	1243.9083	1267.3339	1295.8017	1312.745	1360.8596	1376.3421	1424.5272	1465.2156	1474.8053	1806.2228	2996.3758	3035.0586	3102.4694	3105.5862	3111.8614	3122.5305	3150.3173	3364.5229	3817.4134
CC(=O)C1C2NC1C2O	CC(=O)[C@H]1[C@H]2N[C@@H]1[C@H]2O	
InChI=1S/C6H9NO2/c1-2(8)3-4-6(9)5(3)7-4/h3-7,9H,1H3	InChI=1S/C6H9NO2/c1-2(8)3-4-6(9)5(3)7-4/h3-7,9H,1H3/t3-,4+,5-,6-
