17
gdb 133880	3.56068	2.19551	1.92067	1.3774	73.24	-0.2427	0.0904	0.3331	777.3913	0.139809	-384.609506	-384.604306	-384.603362	-384.638652	23.968	
C	-1.3964766176	 1.3935553037	 0.5720733439	-0.325499
C	-1.6168819734	 0.1177790783	-0.354921661	-0.126987
C	-0.8506193774	-0.7436638882	 0.7011102409	-0.05749
C	 0.258450176	-1.6294191111	 0.1781882787	-0.150308
C	 1.512156729	-0.7479048666	 0.2925115332	 0.049584
O	 1.2398204832	 0.4712755572	 0.9903394094	-0.313692
C	-0.0827639764	 0.5998470041	 0.5601998798	 0.417536
C	-0.1998946208	 0.3584008816	-0.9703102718	-0.057491
C	 0.7272467066	-0.8354881237	-1.0258825891	-0.150308
H	-1.9623968634	 1.4173211461	 1.5064032754	 0.103963
H	-1.4033237265	 2.364157916	 0.0703892444	 0.103964
H	-2.543328365	-0.1235035497	-0.8746988985	 0.082882
H	-1.3274804254	-0.9763977624	 1.6528215573	 0.0696
H	 0.2957471866	-2.7077936765	 0.2470824286	 0.089458
H	 2.517412656	-1.1170022605	 0.4405341023	 0.105731
H	-0.0431599385	 1.1987293067	-1.6460302401	 0.069599
H	 1.1402666172	-1.2775582451	-1.9219952032	 0.089457
409.8069	438.0783	501.1252	565.073	675.8858	723.3461	745.4162	770.3074	779.5462	790.0981	793.755	822.005	874.2239	897.255	956.8754	959.3899	967.2403	997.5572	1018.5897	1032.3359	1032.3494	1040.7327	1061.8595	1075.9868	1089.6468	1109.1637	1141.2347	1166.6904	1193.412	1211.4153	1251.9862	1252.7343	1304.8146	1305.594	1328.8366	1372.5303	1517.0209	3060.2147	3115.3514	3119.5523	3127.521	3128.2052	3205.6612	3211.8533	3226.9238
C1C2C3C4C5OC13C2C45	C1[C@@H]2[C@H]3[C@@H]4[C@@H]5O[C@]13[C@H]2[C@H]45	
InChI=1S/C8H8O/c1-2-5-3-4-6(2)8(1,5)9-7(3)4/h2-7H,1H2	InChI=1S/C8H8O/c1-2-5-3-4-6(2)8(1,5)9-7(3)4/h2-7H,1H2/t2-,3-,4+,5+,6-,7+,8-
