14
gdb 25890	4.23578	1.09686	0.87125	4.0085	65.62	-0.2184	-0.001	0.2174	1220.137	0.102657	-470.088782	-470.080591	-470.079647	-470.121789	30.111	
N	-0.1439827309	 1.3178179157	 0.0505440407	-0.543249
C	 0.0256425789	-0.0317705103	-0.0061017876	 0.318948
O	 1.1144750741	-0.5799871351	-0.0710741193	-0.380755
C	-1.2431227817	-0.7924899394	 0.0176213488	 0.200856
C	-1.3656445473	-2.1518729845	-0.028532882	-0.15899
N	-2.7263912156	-2.3968593497	 0.0186465118	-0.306398
C	-3.3389942257	-1.1839947846	 0.0896396531	 0.454865
O	-4.6780521826	-1.1229887068	 0.1473691004	-0.42386
N	-2.4973816457	-0.1892160185	 0.0922340873	-0.443586
H	 0.6674368529	 1.9107327593	 0.042120851	 0.256677
H	-1.0688580767	 1.7093862373	 0.105787837	 0.268138
H	-0.6303642778	-2.9344974959	-0.0884523244	 0.160888
H	-3.1887583235	-3.2902161921	 0.0041495521	 0.279178
H	-4.9105346183	-0.1871848154	 0.1924798913	 0.317288
75.5157	156.8942	167.8302	173.1501	331.5642	383.307	400.4736	403.2888	515.0809	533.1048	592.0867	654.3589	655.5241	722.1327	748.523	757.088	821.5633	987.6543	1028.7002	1080.9618	1104.7218	1177.733	1225.7055	1285.7724	1381.635	1392.4589	1544.7163	1587.2826	1617.6908	1637.1577	1779.2237	3301.2362	3605.4832	3672.0866	3749.6354	3809.9962
NC(=O)C1=CNC(O)=N1	NC(=O)c1c[nH]c(O)n1	
InChI=1S/C4H5N3O2/c5-3(8)2-1-6-4(9)7-2/h1H,(H2,5,8)(H2,6,7,9)	InChI=1S/C4H5N3O2/c5-3(8)2-1-6-4(9)7-2/h1H,(H2,5,8)(H2,6,7,9)
