21
gdb 106526	3.09321	1.32688	1.15722	2.4107	77.78	-0.2331	0.0697	0.3028	1135.6318	0.184206	-424.208141	-424.199933	-424.198989	-424.240626	32.67	
O	-0.023429869	 1.4198117857	-0.2166471898	-0.424682
C	 0.0110065365	 0.025361688	 0.0597209076	-0.1777
C	-1.4039399885	-0.5073364398	 0.0028032563	 0.344277
C	-2.1547845202	-0.527477842	-1.366632277	-0.282443
C	-2.8876837067	-1.7762666761	-0.8051246243	 0.127117
C	-1.6176486787	-2.0495088557	 0.0443103023	-0.28244
O	-3.9783746128	-1.4374496676	 0.0403672648	-0.277288
C	-3.8044513242	-0.19011393	 0.7122804523	-0.075922
C	-2.334127104	 0.1119657195	 1.0661249045	-0.269338
H	 0.8701361836	 1.7659738219	-0.1395263154	 0.28893
H	 0.6298304432	-0.509615226	-0.6795771804	 0.079129
H	 0.4424071836	-0.1732717857	 1.0556094658	 0.083097
H	-2.7432145066	 0.3409614466	-1.6678424565	 0.104929
H	-1.4822660394	-0.8063613031	-2.1823157914	 0.094887
H	-3.2517173426	-2.5452486033	-1.489019323	 0.072307
H	-0.851963453	-2.5875025841	-0.5239742448	 0.089345
H	-1.7683304035	-2.5243039215	 1.0173937119	 0.093697
H	-4.1977500643	 0.6182576717	 0.0796467428	 0.097345
H	-4.4325823194	-0.2324981916	 1.6067272534	 0.104404
H	-2.0720235885	-0.2979935882	 2.0493738415	 0.094348
H	-2.1876456157	 1.1953904211	 1.1102010795	 0.116002
100.553	158.5403	229.3215	243.8207	281.5187	323.568	408.3872	441.3372	456.4269	499.4416	599.9769	674.6243	811.1375	832.6075	834.7384	875.7208	926.2353	945.2015	948.0584	964.7237	1007.9057	1028.0369	1053.2178	1069.0227	1075.2319	1140.7239	1180.6394	1187.5791	1201.4766	1220.165	1239.4265	1249.0301	1255.9711	1285.1254	1292.2487	1316.932	1359.2952	1369.941	1413.1595	1459.1789	1468.5328	1492.0741	1499.9411	1514.6613	1526.1763	2952.3997	2982.5173	2995.6519	3026.7889	3043.8932	3066.1178	3078.2398	3090.7118	3093.9349	3107.6915	3123.8333	3833.8042
OCC12CC(C1)OCC2	OC[C@@]12C[C@@H](C1)OCC2	
InChI=1S/C7H12O2/c8-5-7-1-2-9-6(3-7)4-7/h6,8H,1-5H2	InChI=1S/C7H12O2/c8-5-7-1-2-9-6(3-7)4-7/h6,8H,1-5H2/t6-,7-
