16
gdb 28705	5.37693	0.95076	0.81199	3.3	78.1	-0.1969	-0.0041	0.1928	1362.1452	0.124332	-437.948529	-437.940108	-437.939164	-437.982056	30.459	
C	-0.2237950649	 1.526396595	-0.620026425	-0.49274
C	-0.0773784921	 0.1223119082	-0.1608020733	 0.346821
C	-0.8709974304	-0.7429096055	 0.5203910362	-0.245954
C	-0.1504219902	-1.9789488324	 0.6580970859	-0.262086
C	 1.0393220419	-1.7599466842	 0.040128664	 0.440092
N	 2.176158412	-2.5251313224	-0.185843095	-0.409412
C	 2.3484168942	-3.8205898552	 0.2209776753	 0.142866
O	 1.5312545985	-4.4711644453	 0.8322341739	-0.301869
O	 1.1146324471	-0.5021956758	-0.4642681967	-0.228362
H	-0.1441260201	 1.6091044165	-1.7104755058	 0.135637
H	-1.2028842787	 1.9076063308	-0.3215446554	 0.138291
H	 0.5426696091	 2.1793564669	-0.185924721	 0.135635
H	-1.8632002186	-0.5318237331	 0.8884702857	 0.108408
H	-0.4545905461	-2.8920911628	 1.1367278722	 0.141583
H	 2.9227184439	-2.0724205249	-0.6913125332	 0.264228
H	 3.3399969345	-4.2063571158	-0.0813480879	 0.086862
57.6467	136.4008	157.3536	183.9247	243.2947	261.6513	368.9797	412.9867	530.8576	592.4631	626.2748	676.6885	683.7355	798.2666	834.58	861.8963	976.4631	981.0242	1003.2372	1008.5141	1046.8416	1065.4892	1153.0636	1233.6835	1237.7865	1252.8582	1370.0935	1417.6022	1430.591	1471.4903	1491.5592	1550.1593	1620.6021	1664.5197	1801.4299	2958.5958	3024.3838	3071.7314	3127.8492	3254.116	3306.5412	3628.212
CC1=CC=C(NC=O)O1	Cc1ccc(NC=O)o1	
InChI=1S/C6H7NO2/c1-5-2-3-6(9-5)7-4-8/h2-4H,1H3,(H,7,8)	InChI=1S/C6H7NO2/c1-5-2-3-6(9-5)7-4-8/h2-4H,1H3,(H,7,8)
