18
gdb 18966	6.06544	1.33797	1.3274	1.3111	72.32	-0.2612	0.0766	0.3378	981.054	0.154571	-347.716972	-347.709981	-347.709037	-347.748285	27.246	
O	-0.0649939098	 1.473741193	-0.3299061983	-0.422947
C	 0.0491491428	 0.1163082173	 0.0818008651	-0.113003
C	-1.337308022	-0.4916331189	 0.04834392	 0.012018
C	-1.9736824806	-0.8542739796	-1.3109812721	-0.030616
C	-1.1631366691	-2.1948404049	-1.4402389584	-0.042893
C	-2.4356485642	-3.0247617987	-1.6986133769	-0.267417
C	-2.8676405038	-1.9689517588	-0.6644103967	-0.039577
C	-1.4921085009	-2.0277127292	 0.0873328532	-0.062829
H	 0.8090503222	 1.872966877	-0.2943066346	 0.28503
H	 0.7272864425	-0.4437389554	-0.5814568944	 0.081177
H	 0.4592947527	 0.0448405407	 1.1029875076	 0.080791
H	-2.001278715	 0.0576489779	 0.7271709113	 0.067054
H	-2.26147845	-0.1954070141	-2.131056628	 0.072797
H	-0.1731397984	-2.3153458314	-1.8816509545	 0.068897
H	-2.8798943034	-2.9478671738	-2.6965162477	 0.090554
H	-2.4211025258	-4.0675691578	-1.3643663279	 0.08882
H	-3.8408399706	-1.812682616	-0.195787653	 0.067668
H	-1.2271200366	-2.7289942473	 0.8816009551	 0.064475
81.0621	169.5817	224.5564	274.9981	367.1282	455.9728	531.7198	730.1814	753.9312	841.893	848.1969	851.643	877.053	908.6184	928.5474	965.4601	1002.1191	1027.1505	1032.2656	1061.9014	1067.4128	1100.7416	1126.8481	1142.2372	1147.7083	1158.1693	1178.7768	1189.5338	1210.8116	1240.2804	1260.6158	1270.2032	1284.0664	1316.6574	1393.9317	1466.1363	1508.883	1517.938	2959.8271	2988.5173	3033.401	3037.5711	3084.8494	3089.8128	3097.0228	3100.571	3114.5421	3827.7801
OCC1C2C3CC2C13	OC[C@H]1[C@H]2[C@@H]3C[C@H]2[C@H]13	
InChI=1S/C7H10O/c8-2-5-6-3-1-4(6)7(3)5/h3-8H,1-2H2	InChI=1S/C7H10O/c8-2-5-6-3-1-4(6)7(3)5/h3-8H,1-2H2/t3-,4+,5-,6-,7+
