20
gdb 114491	2.73319	1.30357	1.03786	2.6375	79.79	-0.2574	0.0253	0.2826	1224.7829	0.171421	-403.139559	-403.131056	-403.130112	-403.173104	32.316	
C	-0.1984500643	 1.5100715247	 0.0520136218	-0.384666
C	-0.0581862998	-0.015069297	 0.0121038382	-0.190011
C	 0.7770555421	-0.5575819214	 1.165339375	 0.027361
C	 0.1953928237	-0.5092352122	 2.6203720375	-0.265876
C	 0.4229017417	-2.0272492497	 2.7529724164	 0.105018
O	-0.758396828	-2.7926159608	 2.3535977584	-0.270821
C	-0.2842750674	-2.9198834813	 1.0570411857	 0.441117
N	-0.7723870999	-3.5250177574	 0.0726860594	-0.551616
C	 0.9665534803	-2.1093324773	 1.3014801236	-0.202004
H	 0.77935169	 2.0010968218	-0.0096561217	 0.113239
H	-0.806163044	 1.8723476174	-0.7824673638	 0.117416
H	-0.6772469096	 1.8431414604	 0.9794373321	 0.117532
H	-1.0504620593	-0.4809250739	 0.0268456347	 0.110637
H	 0.4022354664	-0.3212624428	-0.9355357933	 0.107574
H	 1.7662076339	-0.0883567392	 1.1479812997	 0.080361
H	 0.779703283	 0.0957035794	 3.3173507254	 0.108969
H	-0.857600837	-0.2294644842	 2.7045020552	 0.116655
H	 0.8909936441	-2.452775483	 3.6397023954	 0.094014
H	-1.6587593644	-3.9717644585	 0.3153826241	 0.226247
H	 1.9143093087	-2.5466712849	 0.9945915663	 0.098855
85.2357	92.6164	115.7948	212.3896	253.2795	358.8506	381.002	421.617	447.4045	598.9153	720.5754	748.1321	777.0612	809.5911	858.3555	869.0301	874.7866	924.4228	947.9312	968.6827	989.7471	1011.7988	1018.2746	1073.0679	1101.4947	1132.4322	1159.9614	1193.4609	1198.2836	1225.9531	1250.9938	1271.2834	1289.9837	1304.674	1341.0885	1346.217	1390.0666	1412.9539	1465.6394	1482.8256	1501.4037	1506.5325	1815.6141	3028.8642	3031.0454	3043.779	3065.0747	3067.1491	3096.9502	3105.9119	3118.4172	3126.3399	3141.1746	3471.1984
CCC1CC2OC(=N)C12	CC[C@H]1C[C@H]2O[C]([NH])[C@@H]12	
InChI=1S/C7H11NO/c1-2-4-3-5-6(4)7(8)9-5/h4-6,8H,2-3H2,1H3	InChI=1S/C7H11NO/c1-2-4-3-5-6(4)7(8)9-5/h4-6,8H,2-3H2,1H3/t4-,5+,6-/m0/s1
