18
gdb 80877	2.25446	1.95501	1.55581	3.8036	70.55	-0.2332	0.0624	0.2956	943.871	0.147712	-439.011585	-439.003898	-439.002954	-439.043201	30.871	
C	-0.0147926605	 1.4881344379	 0.0092577405	-0.518654
C	-0.0442967743	-0.0170945678	 0.0098273148	 0.23758
N	 0.4748056769	-0.7680289191	-1.1954496296	-0.323117
C	-0.2906794736	-1.922505385	-0.6097022245	-0.144667
C	 0.4957212813	-2.1694782413	 0.698264927	 0.068427
O	 1.7975725254	-1.5768002346	 0.7389924815	-0.235084
C	 0.673349725	-0.7945295442	 1.1510415486	 0.033387
C	-1.3492586846	-0.8714673378	-0.1088476192	 0.095748
O	-2.0968006045	-1.0622463467	 1.0648650034	-0.435286
H	 1.0141173299	 1.8504355245	-0.079840106	 0.139942
H	-0.5963269766	 1.9006383618	-0.8223296641	 0.112102
H	-0.4364636888	 1.8806286737	 0.9404177787	 0.130552
H	-0.05877814	-0.4341783649	-2.0000120676	 0.213666
H	-0.5283038216	-2.7644630753	-1.259378269	 0.06752
H	 0.3162848956	-3.0270518388	 1.3352245989	 0.102607
H	 0.6486942012	-0.4535665011	 2.1795096048	 0.103505
H	-1.9786443853	-0.5163702026	-0.9381456305	 0.064153
H	-2.9172000256	-1.5124209186	 0.8417548923	 0.287619
190.4795	211.3838	221.7076	234.7756	268.793	309.1335	438.9196	492.6873	581.4547	597.0154	675.447	759.2804	787.8542	832.0753	850.6726	857.7823	880.5688	892.0356	940.7668	974.3766	995.427	1053.0051	1066.1214	1111.262	1129.2024	1135.6653	1182.9575	1198.3221	1232.9531	1250.4328	1265.5264	1291.3854	1322.4385	1368.5071	1404.9685	1410.8939	1442.3754	1487.8488	1492.5135	2997.9641	3032.1256	3098.4193	3109.8261	3121.7184	3180.7271	3194.1285	3441.0526	3823.0736
CC12NC(C3OC13)C2O	C[C@@]12N[C@@H]([C@H]3O[C@@H]13)[C@H]2O	
InChI=1S/C6H9NO2/c1-6-4(8)2(7-6)3-5(6)9-3/h2-5,7-8H,1H3	InChI=1S/C6H9NO2/c1-6-4(8)2(7-6)3-5(6)9-3/h2-5,7-8H,1H3/t2-,3+,4+,5+,6-/m0/s1
