22
gdb 82453	2.30843	1.72701	1.33368	1.8846	85.9	-0.2127	0.0813	0.2941	1100.2533	0.193393	-367.151494	-367.142416	-367.141472	-367.184492	35.448	
C	-0.0503752959	 1.6215166735	-0.1205997363	-0.429223
C	 0.0970532663	 0.1174357794	 0.0442590999	 0.023504
N	 1.0816675821	-0.6295778777	-0.850622225	-0.186993
C	 2.4084883909	-0.0041955246	-0.4776951919	-0.229597
C	 2.2783593209	-0.5951630588	 0.9175663467	 0.270508
C	 3.3611327914	-0.7824978069	 1.9389309255	-0.510146
C	 1.2988218501	-1.5874947865	 0.3433594578	-0.127381
C	 0.7620065413	-0.5218810607	 1.2594241264	 0.26568
C	 0.2127797066	-0.6305960095	 2.6519122192	-0.514857
H	 0.8392032626	 2.1740887353	 0.1920637123	 0.117115
H	-0.2601039325	 1.8686557436	-1.1672905223	 0.127092
H	-0.8905965577	 1.9822517926	 0.4823971349	 0.116081
H	-0.8763843161	-0.3591688048	-0.1257407861	 0.072583
H	 3.199722345	-0.4964043133	-1.0526041917	 0.100395
H	 2.4811628834	 1.078399657	-0.6251800856	 0.090385
H	 3.6608378947	 0.1748596054	 2.3817902902	 0.120533
H	 3.0475954903	-1.4390140357	 2.7564018841	 0.120256
H	 4.2520001683	-1.2299661082	 1.483418541	 0.121261
H	 1.2344557321	-2.6667063667	 0.3092697545	 0.089969
H	 0.225230185	 0.3393915199	 3.1629688135	 0.12151
H	-0.8250145522	-0.9831638664	 2.6342028553	 0.120758
H	 0.7852409432	-1.332449997	 3.2660892675	 0.120564
147.3401	170.0801	174.2019	181.1545	208.1843	246.7357	319.423	332.2383	379.1406	490.6312	569.9138	590.0671	621.2643	704.2084	769.4225	804.4434	851.9785	855.992	907.6312	932.3419	949.3548	971.2183	1018.539	1039.8011	1097.9782	1117.3884	1124.7994	1131.7727	1153.0081	1175.6604	1193.1272	1229.0079	1242.5601	1284.6546	1353.4882	1395.1841	1402.5528	1415.2406	1422.7773	1432.3469	1482.371	1487.8028	1491.7197	1493.6957	1495.5242	1506.9915	1522.4594	3021.2145	3023.5871	3025.1636	3032.9793	3039.3602	3078.7543	3080.0563	3083.1894	3094.3621	3098.2846	3102.6208	3117.5959	3205.0718
CC1N2CC3(C)C2C13C	C[C@H]1N2C[C@]3(C)[C@H]2[C@]13C	
InChI=1S/C8H13N/c1-5-8(3)6-7(8,2)4-9(5)6/h5-6H,4H2,1-3H3	InChI=1S/C8H13N/c1-5-8(3)6-7(8,2)4-9(5)6/h5-6H,4H2,1-3H3/t5-,6+,7-,8+/m1/s1
