16
gdb 131171	3.00666	1.39612	1.03045	4.1518	72.91	-0.2038	0.0189	0.2227	1129.3464	0.125821	-434.03783	-434.029906	-434.028962	-434.070837	29.723	
O	 0.283092122	 1.3589547181	 0.0336555344	-0.449449
C	 0.11819037	 0.0122701849	 0.0487246305	 0.195876
C	-0.1081369422	-0.8106167673	-1.036641478	 0.278993
N	-0.2059412032	-2.0785420714	-0.5215956927	-0.267796
N	-0.0565489183	-2.1106875158	 0.8153148459	-0.229285
C	 0.141240648	-0.8409387099	 1.1700107631	-0.074291
N	-0.2091334559	-0.3899601453	-2.3706596343	-0.194053
C	 0.3166007641	-1.234554278	-3.4511930111	-0.22604
C	-1.1501891508	-1.0529636519	-3.2828772957	-0.226038
H	 0.211363185	 1.6352112368	-0.8897106148	 0.29704
H	-0.3686028936	-2.9425708175	-1.0080846527	 0.269658
H	 0.2923552998	-0.5803376048	 2.2062684743	 0.117474
H	 0.8474628852	-0.703543805	-4.23573273	 0.131892
H	 0.7481956842	-2.1945844893	-3.1793520275	 0.122062
H	-1.7283264848	-1.887984847	-2.895158656	 0.122067
H	-1.6988629095	-0.3883037968	-3.9435384854	 0.131892
48.3247	152.1074	165.0856	278.1619	302.3404	375.8757	425.0402	458.4936	513.9465	578.131	688.2678	714.5673	718.3398	812.2933	848.0688	862.5564	907.7694	953.9108	1029.9235	1100.5075	1122.0682	1125.5405	1134.4202	1178.0041	1180.7575	1226.9687	1255.7847	1286.6414	1337.2997	1440.2113	1453.1433	1494.1461	1519.1177	1556.9597	1660.4613	3108.5145	3113.0071	3190.8827	3206.4367	3255.9054	3680.0467	3768.9595
OC1=C(NN=C1)N1CC1	Oc1c([nH]nc1)N1CC1	
InChI=1S/C5H7N3O/c9-4-3-6-7-5(4)8-1-2-8/h3,9H,1-2H2,(H,6,7)	InChI=1S/C5H7N3O/c9-4-3-6-7-5(4)8-1-2-8/h3,9H,1-2H2,(H,6,7)
