20
gdb 39936	2.93469	1.58479	1.24184	1.2619	85.7	-0.2162	0.0224	0.2386	1070.0443	0.172989	-365.981192	-365.973643	-365.972698	-366.013026	30.889	
C	-0.2801825501	 1.471766065	 0.0346305916	-0.307433
C	 1.1629817837	 1.0690086991	-0.0576639339	-0.313616
C	 0.0833970672	-0.0019697479	 0.0228982449	 0.373994
C	-0.0245024551	-0.7734960174	 1.2814916132	-0.146692
C	-0.0807004167	-2.1042835921	 1.3032802259	-0.084405
C	-0.0104215689	-2.9446292433	 0.0550383303	-0.213748
N	-0.2546229209	-2.2509292761	-1.2135062356	-0.110771
C	-1.5162379882	-1.5221849417	-1.3371249941	-0.258585
C	-0.2250072457	-0.7850014086	-1.2256438578	-0.106136
H	-0.6414398616	 1.8946096756	 0.9665239391	 0.113049
H	-0.7580718137	 1.874850963	-0.852102704	 0.116271
H	 1.6717895096	 1.1921624094	-1.0083639551	 0.117865
H	 1.7978932179	 1.2126651585	 0.8096435623	 0.115682
H	-0.0454912764	-0.204139175	 2.2080394794	 0.08544
H	-0.1458563669	-2.635642886	 2.2493452183	 0.087673
H	 0.9865950876	-3.4045224783	-0.0119713138	 0.117622
H	-0.7187359163	-3.7811592285	 0.1185784763	 0.110334
H	-2.0208368268	-1.6197097544	-2.2950623861	 0.108565
H	-2.1745131385	-1.4845913391	-0.4712931744	 0.112437
H	 0.2066132901	-0.367852852	-2.1351552963	 0.082453
78.5195	218.4489	257.0966	292.7862	332.5405	398.7739	454.7402	521.3216	551.3483	677.0018	715.8143	728.8609	777.0311	849.0402	881.0932	913.5041	916.3519	927.7261	943.5626	981.1364	995.0092	1007.3816	1049.7511	1059.9189	1077.0989	1080.1499	1103.8334	1119.2132	1167.1636	1192.4569	1195.545	1265.3987	1272.4552	1320.3186	1337.892	1367.2413	1406.6541	1438.1815	1466.3199	1480.8355	1496.792	1503.3881	1719.4552	2996.8593	3032.438	3094.5025	3101.1084	3125.5023	3129.2664	3141.9049	3166.43	3180.1349	3205.3436	3220.9388
C1CC11C=CCN2CC12	C1CC21C=CCN1C[C@@H]21	
InChI=1S/C8H11N/c1-2-8(3-4-8)7-6-9(7)5-1/h1-2,7H,3-6H2	InChI=1S/C8H11N/c1-2-8(3-4-8)7-6-9(7)5-1/h1-2,7H,3-6H2/t7-,9?/m0/s1
