17
gdb 34569	4.39816	1.08986	0.98936	1.7942	83.4	-0.2359	-0.0293	0.2066	1202.5083	0.136566	-384.652557	-384.6449	-384.643956	-384.684931	29.587	
C	 0.1267817965	-1.1341766808	 0.2423630488	-0.412093
C	 0.0375387492	 0.061504138	 0.1212194457	 0.211908
C	-0.0085598563	 1.4680218686	-0.0371079501	 0.19473
C	-1.0918952692	 2.2506771722	 0.1028201446	-0.192752
C	-0.77260208	 3.6995762092	-0.1197443677	 0.091934
O	-0.6496897758	 4.467895633	 1.1086187744	-0.291727
C	 0.7920178129	 4.4286328289	 1.0262121971	-0.080435
C	 0.7614652395	 3.7240029674	-0.3489269732	-0.087682
C	 1.2362068375	 2.2638194755	-0.4179784551	-0.342221
H	 0.1869527061	-2.1883764958	 0.3542062962	 0.195807
H	-2.0797670085	 1.8936238398	 0.3668960378	 0.10736
H	-1.443324827	 4.2036444728	-0.8244404254	 0.079798
H	 1.2221410028	 5.4366458619	 1.0414670544	 0.104265
H	 1.2381538274	 3.837839835	 1.8376351944	 0.100814
H	 1.1211478944	 4.3383861782	-1.1738633812	 0.082652
H	 2.0676041119	 2.0549900262	 0.2656465561	 0.118538
H	 1.5811096185	 1.9835834301	-1.4202079869	 0.119107
86.9002	128.4176	153.9486	278.6261	359.2394	448.1532	518.4894	545.4031	559.397	612.0872	635.1743	672.5114	795.5591	856.6583	865.7068	883.646	897.7539	939.9268	972.6678	1010.0882	1019.1285	1074.5579	1086.4026	1143.3038	1159.7849	1196.8351	1230.0032	1267.0843	1278.2791	1313.2373	1333.0235	1334.5346	1365.8965	1485.2392	1520.9542	1660.8898	2221.5547	3007.3562	3032.7144	3044.0065	3056.8017	3063.682	3114.0324	3212.604	3503.1238
C#CC1=CC2OCC2C1	C#CC1=C[C@H]2OC[C@H]2C1	
InChI=1S/C8H8O/c1-2-6-3-7-5-9-8(7)4-6/h1,4,7-8H,3,5H2	InChI=1S/C8H8O/c1-2-6-3-7-5-9-8(7)4-6/h1,4,7-8H,3,5H2/t7-,8-/m1/s1
