20
gdb 111263	2.85748	1.31291	1.05574	3.4964	80.67	-0.2268	0.0205	0.2473	1224.8831	0.1699	-403.151479	-403.142096	-403.141152	-403.185939	34.421	
C	-0.1120895305	 1.5718998195	-0.3766893383	-0.38557
C	 0.0738399337	 0.0908453489	-0.0282976026	-0.159255
N	 0.6449467583	-0.721864608	-1.0863095527	-0.090691
C	 0.2487634476	-0.8652446096	-2.4910751761	-0.056442
C	 1.0169473103	 0.080349422	-3.3724987748	-0.333508
C	 1.6847776891	-1.1951980876	-2.854447333	 0.164542
C	 2.2748433137	-2.2649605162	-3.7236687353	-0.495197
C	 1.9883296289	-0.9610385603	-1.3671846817	 0.364292
O	 2.9663899007	-0.956151492	-0.6679537275	-0.371268
H	 0.8476062351	 2.0471404433	-0.6015374159	 0.129864
H	-0.7702919735	 1.6981305155	-1.2418331484	 0.123886
H	-0.5636376155	 2.101888611	 0.4679754075	 0.119588
H	 0.7521010309	-0.0165801784	 0.8241057842	 0.138365
H	-0.8874081702	-0.3444735181	 0.2709234898	 0.108253
H	-0.6539603057	-1.3949965565	-2.7679656146	 0.111068
H	 0.776952113	 0.05968231	-4.4332152546	 0.118526
H	 1.3101908305	 1.0558385037	-2.996929114	 0.123231
H	 1.7456555071	-2.3367520998	-4.6790513338	 0.119594
H	 3.3266198275	-2.0500008365	-3.9402330929	 0.139069
H	 2.229839089	-3.2436130208	-3.2350366353	 0.131652
51.6145	103.9386	162.3704	172.9014	196.2746	247.1138	278.4404	287.8471	384.7241	482.8768	540.8498	594.5767	716.1513	739.9458	762.3356	813.6044	870.9842	903.9402	931.2003	958.1685	982.3487	997.5344	1040.3038	1081.636	1096.7423	1110.578	1115.9296	1214.2297	1223.31	1252.7016	1334.2084	1370.7697	1383.6935	1400.5538	1406.1787	1423.4399	1480.2936	1485.1171	1487.9356	1493.576	1497.649	1503.4972	1873.2079	3030.6832	3033.2941	3037.5472	3085.3001	3098.1059	3104.0038	3109.3237	3111.3131	3117.1601	3194.046	3201.263
CCN1C2CC2(C)C1=O	CCN1[C@H]2C[C@@]2(C)C1=O	
InChI=1S/C7H11NO/c1-3-8-5-4-7(5,2)6(8)9/h5H,3-4H2,1-2H3	InChI=1S/C7H11NO/c1-3-8-5-4-7(5,2)6(8)9/h5H,3-4H2,1-2H3/t5-,7+/m0/s1
