17
gdb 69893	2.94472	1.51149	1.15221	4.1168	74.03	-0.2385	-0.0419	0.1965	1069.2451	0.133472	-421.756752	-421.748632	-421.747687	-421.789277	30.993	
C	-0.0233022643	 1.5763603227	 0.2006124433	-0.500228
C	-0.0135530118	 0.0809934929	 0.0760330139	 0.262361
C	-0.8310951772	-0.8653685838	 0.9090855108	-0.334509
C	 0.6759061708	-0.961253765	 0.9525038978	-0.145629
C	 1.2241631323	-1.6463420492	-0.325276719	-0.02112
O	 0.1653117638	-2.0395991539	-1.1744495167	-0.251315
C	 0.5432658288	-0.6573096973	-1.2001600691	 0.257393
C	 1.0313791786	-0.0692477841	-2.4633136176	 0.046536
O	 1.3519072144	-0.7062578275	-3.4365657171	-0.258944
H	 0.9401109185	 2.0164313866	-0.0828609153	 0.123416
H	-0.7947365073	 2.0267277614	-0.4355849999	 0.129989
H	-0.2299782428	 1.8733505189	 1.2334352959	 0.126857
H	-1.2719543759	-0.4137578761	 1.7924486982	 0.116991
H	-1.4157107945	-1.6537012332	 0.4522965378	 0.140992
H	 1.262286764	-0.8051559783	 1.8479210757	 0.100414
H	 2.187494994	-2.1234146335	-0.463352324	 0.129803
H	 1.1066025487	 1.0401160495	-2.4422962847	 0.076993
100.6988	167.6124	170.531	231.5179	284.5928	293.4504	416.6566	433.4415	476.8938	552.4175	645.3953	743.5255	769.0608	831.5208	860.7447	874.2515	890.2543	924.6374	965.4	1002.6562	1007.0687	1044.532	1067.4329	1096.3382	1111.9237	1124.5556	1235.4184	1249.3768	1275.8653	1357.139	1400.9036	1420.4821	1437.6699	1475.8822	1485.2708	1498.9943	1805.4742	2889.2052	3020.4629	3076.7743	3100.6241	3139.278	3190.6475	3207.9639	3232.7077
CC12CC1C1OC21C=O	C[C@]12C[C@H]1[C@H]1O[C@@]21C=O	
InChI=1S/C7H8O2/c1-6-2-4(6)5-7(6,3-8)9-5/h3-5H,2H2,1H3	InChI=1S/C7H8O2/c1-6-2-4(6)5-7(6,3-8)9-5/h3-5H,2H2,1H3/t4-,5+,6-,7+/m0/s1
