19
gdb 89531	2.33772	1.79393	1.35476	2.0621	69.77	-0.2514	0.0582	0.3095	1002.8645	0.160122	-460.149573	-460.141596	-460.140652	-460.181749	31.895	
O	 0.3071913658	 1.1896251331	-0.4793266411	-0.436244
C	 0.0669368309	-0.1258665394	-0.0427919881	 0.137635
C	 0.2195647052	-0.3886118813	 1.4852049222	-0.329792
C	-1.3146159227	-0.6025241838	 1.6002355885	 0.376701
O	-1.7610451132	-1.7932421903	 2.2052984528	-0.483114
C	-2.1233412279	 0.6426396982	 2.030589961	-0.147437
O	-2.2407169374	 1.4654152994	 0.8713263897	-0.268261
C	-2.4289121565	 0.5625431819	-0.2313087322	-0.121741
C	-1.4409599064	-0.5599952807	 0.0443081512	-0.106826
H	-0.2789570755	 1.7689429064	 0.0282231486	 0.288365
H	 0.6834524881	-0.7685934041	-0.6741377631	 0.091745
H	 0.7702648356	-1.3065620387	 1.7071867133	 0.104758
H	 0.6498528886	 0.440272982	 2.0556797317	 0.096643
H	-1.4871376785	-1.7860019438	 3.1289058923	 0.27991
H	-3.1134518405	 0.3046593642	 2.3722385078	 0.10025
H	-1.6540058349	 1.2416387615	 2.8165597108	 0.104063
H	-3.4647626236	 0.1935981281	-0.2516347815	 0.104038
H	-2.2236725031	 1.1193574873	-1.1478159184	 0.125473
H	-1.6814446839	-1.5117283099	-0.4296049454	 0.083833
92.0683	212.5705	226.0013	266.2917	326.3174	349.68	389.0257	434.8921	499.9267	573.4055	587.4889	622.0224	742.4221	799.8352	823.8389	866.7881	918.4444	927.8771	952.8914	1003.86	1010.5212	1037.8974	1057.769	1090.436	1136.7192	1168.3204	1185.7251	1211.2655	1219.5139	1261.2606	1273.4318	1276.6061	1294.628	1330.6454	1334.234	1356.0753	1403.0801	1451.795	1463.4465	1496.4401	1511.2974	2993.1362	3003.0796	3048.6027	3086.4524	3088.2934	3111.6853	3114.5978	3118.9595	3731.5068	3802.2288
OC1CC2(O)COCC12	O[C@H]1C[C@@]2(O)COC[C@@H]12	
InChI=1S/C6H10O3/c7-5-1-6(8)3-9-2-4(5)6/h4-5,7-8H,1-3H2	InChI=1S/C6H10O3/c7-5-1-6(8)3-9-2-4(5)6/h4-5,7-8H,1-3H2/t4-,5-,6+/m0/s1
