19
gdb 53235	3.80518	0.84948	0.78361	3.171	81.14	-0.2456	0.0384	0.2841	1515.6194	0.157515	-422.990487	-422.980627	-422.979683	-423.026316	35.574	
C	 0.3309284148	 1.5859057395	-0.5508898073	-0.501522
C	 0.2021959605	 0.1580110974	-0.2928632599	 0.109428
C	 0.1439959528	-1.0293915636	-0.0837654474	 0.016473
C	-0.034331922	-2.4395104245	 0.1922316642	-0.201431
C	 0.0194086814	-2.9383188704	 1.6743773335	-0.279273
C	-1.2190851194	-3.8335026969	 1.3756488583	 0.149936
O	-2.2441602563	-3.9151925243	 2.3173419018	-0.43843
C	-1.5088845974	-2.9714886068	 0.1106248379	 0.08038
O	-2.466495155	-1.9901446483	 0.4527358173	-0.449054
H	 1.3569278553	 1.8410122693	-0.837724201	 0.154839
H	-0.3288383955	 1.9064784245	-1.3644910677	 0.151325
H	 0.0775591127	 2.1770165253	 0.3358760681	 0.151823
H	 0.6130258637	-3.0475662226	-0.4474068272	 0.102319
H	 0.9401858945	-3.4241243189	 2.0018223135	 0.106293
H	-0.2363003441	-2.1383713016	 2.3719390323	 0.112282
H	-0.9226027131	-4.8527419898	 1.1090736969	 0.085469
H	-2.7216243639	-3.0765031046	 2.2449933831	 0.288869
H	-1.7970609641	-3.4842278274	-0.8145589393	 0.072045
H	-2.1140699851	-1.1287800164	 0.1880769129	 0.288229
39.9959	55.5214	90.4511	147.085	258.4543	269.7726	303.8847	322.4195	383.8326	399.2386	457.5812	511.5199	520.3983	625.858	685.8124	732.9994	857.2738	875.5758	910.429	967.1815	1044.5163	1052.6395	1056.6963	1073.5813	1117.0051	1152.3829	1172.5402	1190.6939	1235.5681	1239.7115	1268.9451	1320.7167	1353.7577	1364.7308	1379.6502	1416.1732	1449.2605	1477.2801	1478.865	1479.681	2353.2768	3028.6764	3029.2038	3057.7066	3066.9931	3076.4632	3090.293	3091.7285	3137.9934	3725.3912	3743.7743
CC#CC1CC(O)C1O	CC#C[C@H]1C[C@@H](O)[C@H]1O	
InChI=1S/C7H10O2/c1-2-3-5-4-6(8)7(5)9/h5-9H,4H2,1H3	InChI=1S/C7H10O2/c1-2-3-5-4-6(8)7(5)9/h5-9H,4H2,1H3/t5-,6+,7-/m0/s1
