18
gdb 107237	2.97279	1.40134	1.09637	2.6681	71.36	-0.2146	0.0496	0.2642	1121.5561	0.145501	-438.978073	-438.969304	-438.96836	-439.011453	33.028	
C	-0.0967420713	 1.5639669642	 0.1906959059	-0.512425
C	 0.1047129849	 0.0900346367	 0.0607602576	 0.388501
O	-0.8272456912	-0.8000071257	 0.6755492645	-0.260677
C	 0.562815785	-0.9579516545	 0.9762663635	-0.063842
C	 1.2580712149	-1.7184266533	-0.2037683893	-0.157412
N	 0.2196773712	-2.0329943486	-1.2248266728	-0.364572
C	 0.8029853779	-0.6764480575	-1.1468481638	 0.251651
C	 1.5065040187	-0.0225832827	-2.3039882901	-0.218507
O	 2.2371678766	-0.9638795816	-3.0831572089	-0.408186
H	 0.818058939	 2.1111671469	-0.0605651604	 0.124476
H	-0.8925430245	 1.9120252042	-0.4777926639	 0.133309
H	-0.3810622784	 1.8138326786	 1.2163077452	 0.138596
H	 0.8669157858	-0.9273635154	 2.0160389777	 0.105219
H	 2.1983578697	-2.2514278137	-0.1634185557	 0.104632
H	 0.739194416	-2.4936425841	-1.9759183113	 0.221034
H	 0.7839439588	 0.5276433643	-2.9250487204	 0.104897
H	 2.2307335055	 0.7127059955	-1.931724073	 0.118262
H	 1.6709520014	-1.2584323433	-3.8018048547	 0.295044
71.8935	152.9629	166.3668	202.9969	231.5039	283.742	302.1391	397.3532	440.7078	481.7036	570.9107	669.0072	696.8326	784.0756	834.1313	844.6146	850.0467	887.7628	948.5597	986.1194	991.7445	1002.8329	1038.9054	1079.5037	1100.8157	1128.4097	1171.8681	1211.5179	1233.9313	1260.552	1321.3227	1387.9353	1402.0696	1406.8154	1424.4601	1462.8874	1485.6603	1495.0595	1500.2623	2991.0937	3031.7061	3045.353	3092.8358	3119.7083	3184.8023	3210.863	3440.5606	3840.4796
CC12OC1C1NC21CO	C[C@]12O[C@H]1[C@H]1N[C@@]21CO	
InChI=1S/C6H9NO2/c1-5-4(9-5)3-6(5,2-8)7-3/h3-4,7-8H,2H2,1H3	InChI=1S/C6H9NO2/c1-5-4(9-5)3-6(5,2-8)7-3/h3-4,7-8H,2H2,1H3/t3-,4+,5+,6-/m1/s1
