19
gdb 107289	3.45066	1.33322	1.18357	1.742	74.58	-0.241	0.066	0.307	1100.8948	0.158939	-422.946438	-422.938491	-422.937547	-422.978975	30.811	
C	-0.2965156732	 1.3186916164	-0.0393788248	-0.258044
O	 0.1777170043	-0.0098414698	 0.1131216913	-0.279545
C	 0.7544722133	-0.5174396826	-1.0289329424	 0.430503
C	-0.0643562058	-1.0309021435	-2.1796862032	-0.359809
C	 0.8494021606	-1.9844395315	-1.4389656836	-0.153966
C	 2.3146314809	-1.7458071339	-1.8600809185	 0.1142
O	 2.5526600278	-1.3404969038	-3.2347132946	-0.297323
C	 2.6150228643	 0.0599136421	-2.8552467101	-0.108291
C	 2.2437483703	-0.2785563212	-1.398606549	-0.154057
H	 0.5199095264	 2.015859563	-0.2760661031	 0.111092
H	-1.0538080493	 1.384858265	-0.8325460472	 0.113786
H	-0.7439346154	 1.6089643672	 0.913606544	 0.129181
H	-1.113552915	-1.1569468014	-1.9319703196	 0.117043
H	 0.1365872323	-0.7808605952	-3.2155463059	 0.129568
H	 0.4715556979	-2.8729752433	-0.9483391277	 0.094312
H	 3.0510469326	-2.4666747048	-1.4986923124	 0.081777
H	 3.6309999376	 0.4546854646	-2.9780502801	 0.102072
H	 1.9143553427	 0.6794098988	-3.4274934523	 0.100952
H	 2.8543572676	 0.104661144	-0.5828983808	 0.086545
85.2685	134.5552	183.994	248.3886	304.5868	350.1029	392.8602	447.3492	541.4584	654.428	693.0153	803.965	836.7143	873.1003	887.6711	914.9808	940.327	960.065	991.0683	1008.5322	1017.4169	1045.027	1059.6532	1087.9251	1096.5967	1156.2572	1178.0779	1179.5678	1187.0006	1219.0505	1239.1519	1244.3928	1293.7587	1305.3551	1346.9433	1377.6813	1472.3466	1487.6141	1497.1412	1505.9446	1518.069	2992.3291	3015.8042	3047.2147	3060.9785	3086.1471	3124.0622	3131.3116	3132.4204	3188.8662	3219.65
COC12CC1C1OCC21	CO[C@]12C[C@H]1[C@H]1OC[C@@H]21	
InChI=1S/C7H10O2/c1-8-7-2-4(7)6-5(7)3-9-6/h4-6H,2-3H2,1H3	InChI=1S/C7H10O2/c1-8-7-2-4(7)6-5(7)3-9-6/h4-6H,2-3H2,1H3/t4-,5+,6+,7+/m0/s1
