15
gdb 33437	2.23142	2.00903	1.20305	4.2789	77.01	-0.2569	-0.0213	0.2356	1002.3822	0.112338	-379.55367	-379.546095	-379.545151	-379.585555	29.343	
C	-0.0796667892	-1.2102408141	-0.112042625	-0.375474
C	-0.0433341215	-0.0119982718	-0.0363035416	 0.24116
C	-0.0420747925	 1.4380332225	 0.0401346309	 0.056022
C	-0.9964495776	 1.9722693341	-0.9356063524	 0.239487
N	-1.7686171684	 2.3816958069	-1.6916093917	-0.338255
C	 0.0413834322	 2.1472437704	 1.4370617129	-0.089944
C	 1.4909015106	 1.625656716	 1.4672372874	-0.190045
N	 1.3691144971	 2.1389766809	 0.0134164829	-0.159461
C	 0.6395790801	 3.3369663903	 0.6630991087	-0.197124
H	-0.1070083464	-2.2701459915	-0.1836940142	 0.207972
H	-0.7287588874	 2.1281972985	 2.2130966119	 0.095081
H	 2.2143011007	 2.1981280077	 2.0491850917	 0.117643
H	 1.6633396449	 0.55273502	 1.5453800472	 0.132338
H	 0.0039727531	 3.8978326526	-0.0229235902	 0.142281
H	 1.3209783143	 3.9926358275	 1.2063812716	 0.118319
140.5732	145.2631	190.0932	200.3544	427.1784	457.1209	509.0346	535.2141	543.5414	595.7666	636.6361	649.936	671.0348	768.4336	793.669	867.5222	908.0128	922.7267	1015.5671	1031.8083	1062.3459	1079.7939	1135.6115	1175.0479	1195.3669	1203.9531	1226.3142	1231.7538	1272.1568	1514.4431	1551.6357	2238.6988	2354.4191	3069.5812	3084.6801	3092.5893	3154.3947	3161.0157	3497.3427
C#CC1(C#N)C2CN1C2	C#C[C@@]1(C#N)[C@H]2CN1C2	
InChI=1S/C7H6N2/c1-2-7(5-8)6-3-9(7)4-6/h1,6H,3-4H2	InChI=1S/C7H6N2/c1-2-7(5-8)6-3-9(7)4-6/h1,6H,3-4H2/t7-/m1/s1
