20
gdb 70574	2.48886	1.80766	1.33053	1.1566	77.9	-0.2263	0.0711	0.2974	1032.0051	0.172301	-403.114616	-403.106845	-403.1059	-403.146364	31.482	
C	 0.0835553601	 1.502577567	-0.0962282161	-0.47623
C	-0.0936319701	 0.006625148	 0.0564778809	 0.318875
C	-0.3640743594	-0.5927291826	 1.3973864958	-0.294309
N	 0.9730614663	-0.6749122213	 0.8143457053	-0.131062
C	 1.4700841313	-1.9554519905	 0.3193957684	-0.149553
C	 0.4671575521	-2.8747618528	-0.4157320446	-0.263567
C	-0.3706775918	-2.1078607792	-1.4216951907	 0.035571
O	-1.6686571688	-1.6896138777	-0.9839714583	-0.25339
C	-0.6648030559	-0.685197946	-1.1591138323	-0.00671
H	 0.7230014101	 1.7393169417	-0.9546331571	 0.117716
H	-0.8824382459	 1.99688557	-0.2499182292	 0.119728
H	 0.5533761874	 1.9197087886	 0.7970025152	 0.128393
H	-0.450207074	 0.0563293791	 2.2656194093	 0.109552
H	-0.9965906244	-1.4752594396	 1.4208270814	 0.125577
H	 2.2965831369	-1.7206426703	-0.3630511249	 0.1061
H	 1.9054807586	-2.4933877483	 1.1683773181	 0.108987
H	 1.0301768957	-3.6666999714	-0.9199285083	 0.104059
H	-0.2033604212	-3.3709963986	 0.2931842439	 0.122377
H	-0.3469915349	-2.451945878	-2.4548963434	 0.093397
H	-0.8477756522	-0.0252565181	-2.0067316431	 0.08449
138.1321	199.3274	240.9585	257.0941	317.2065	375.6475	408.9561	474.2436	514.6463	531.3977	648.5853	719.8202	736.515	797.4628	841.3836	892.9792	928.4718	940.3723	945.4433	976.0493	1019.5194	1057.4022	1074.6563	1108.2897	1112.9839	1120.6134	1150.721	1189.7669	1232.4982	1256.7538	1275.1773	1295.9688	1356.8207	1371.4855	1378.5043	1405.2582	1411.9336	1457.6498	1478.4432	1486.5701	1488.9276	1494.7515	1518.7353	3025.2525	3028.1029	3047.106	3069.604	3087.792	3088.9807	3105.262	3107.602	3119.8808	3128.0817	3195.7478
CC12CN1CCC1OC21	C[C@]12CN1CC[C@H]1O[C@@H]21	
InChI=1S/C7H11NO/c1-7-4-8(7)3-2-5-6(7)9-5/h5-6H,2-4H2,1H3	InChI=1S/C7H11NO/c1-7-4-8(7)3-2-5-6(7)9-5/h5-6H,2-4H2,1H3/t5-,6-,7-,8?/m1/s1
