19
gdb 107445	2.74109	1.48375	1.35074	1.6314	73.93	-0.2272	0.0712	0.2984	1041.0923	0.16135	-419.150791	-419.143047	-419.142102	-419.183129	30.8	
O	-0.0324437404	 1.3849858982	 0.3771878432	-0.421335
C	-0.0234076437	 0.0589917748	-0.1304347582	-0.155814
C	-1.3834616143	-0.586010223	-0.0277045856	 0.304484
C	-1.9192797396	-1.4836565389	-1.0818031039	-0.294565
N	-2.4101113729	-0.097775605	-0.9927822446	-0.158333
C	-3.6851255323	 0.0898226072	-0.2567788817	-0.174737
C	-3.4400919885	-0.2383479929	 1.2118674526	-0.034247
N	-3.1107573142	-1.6563058865	 1.4627539994	-0.344689
C	-2.0230343562	-0.6606216939	 1.3440195045	-0.101891
H	-0.6911904029	 1.8625828571	-0.1404168572	 0.288493
H	 0.3114039914	 0.0305828666	-1.1773636276	 0.094531
H	 0.7098031254	-0.4915147523	 0.4698652029	 0.107949
H	-1.3248967542	-1.6899053466	-1.9690681715	 0.105259
H	-2.5727131603	-2.2866977208	-0.7574686202	 0.14056
H	-3.9774377155	 1.1412504475	-0.3544968144	 0.105544
H	-4.4788054515	-0.5218790739	-0.6974785251	 0.116865
H	-3.953430275	 0.3293604457	 1.9823729056	 0.091928
H	-3.2654786978	-1.8713924413	 2.4451769945	 0.232779
H	-1.4204356776	-0.412957822	 2.2100829474	 0.097219
67.8828	145.044	241.3297	295.4829	321.7084	412.6652	449.0348	455.0487	582.8293	597.4348	707.8205	739.1995	781.5982	821.4926	861.5225	868.6138	900.3973	950.6566	967.8658	981.8408	998.1481	1051.6775	1069.9233	1085.9825	1129.6496	1137.761	1155.3553	1175.4143	1198.9624	1230.4829	1249.9006	1268.8317	1329.354	1352.5618	1374.0595	1402.6862	1421.2573	1432.561	1485.1796	1495.8902	1501.6173	3001.1671	3040.2698	3068.17	3083.7337	3104.3006	3152.7009	3185.1811	3204.4948	3493.0953	3794.6492
OCC12CN1CC1NC21	OC[C@]12CN1C[C@H]1N[C@@H]21	
InChI=1S/C6H10N2O/c9-3-6-2-8(6)1-4-5(6)7-4/h4-5,7,9H,1-3H2	InChI=1S/C6H10N2O/c9-3-6-2-8(6)1-4-5(6)7-4/h4-5,7,9H,1-3H2/t4-,5-,6+,8?/m1/s1
