15
gdb 12725	3.10661	2.2873	1.69465	1.7006	62.31	-0.267	0.0151	0.2821	793.2464	0.118977	-399.78005	-399.772985	-399.772041	-399.811219	26.811	
O	 0.3040071194	 1.4549458927	-0.0197911183	-0.463599
C	 0.0697057361	 0.0948027952	-0.0630314743	 0.29999
C	 0.4219674017	-0.6057692287	-1.4049765371	-0.279077
C	-0.9399802435	-1.3688239169	-1.3885180974	-0.234721
C	-1.298665227	-0.6988319211	-0.0533209509	 0.03152
O	-0.797610725	-1.4823460561	 1.0836258244	-0.26905
C	 0.3529015981	-0.7295430227	 1.1719755938	 0.354005
N	 1.2531852001	-0.6834592366	 2.0445084612	-0.554763
H	 0.496397009	 1.6983216984	 0.8935495984	 0.299194
H	 0.4779296924	 0.139797331	-2.2006092619	 0.127029
H	 1.3380758376	-1.1989035113	-1.4088091364	 0.120618
H	-1.6037767119	-1.0839728559	-2.2077430179	 0.11535
H	-0.8901161838	-2.4574925493	-1.3325868704	 0.121376
H	-2.2895438121	-0.2953231689	 0.1493042027	 0.099568
H	 1.0865465989	-1.3495980997	 2.8006002042	 0.232559
116.0216	159.4783	216.8946	304.6606	336.7898	401.5375	500.4885	589.782	684.8184	726.455	749.7948	828.3373	865.6435	878.7017	898.5561	948.7229	976.9769	1003.6339	1053.7899	1081.6447	1115.205	1159.684	1216.4295	1230.9883	1244.1971	1271.0857	1313.5541	1372.8361	1383.9276	1464.3891	1484.4697	1818.6235	3074.3328	3079.8829	3125.0808	3133.0499	3142.3472	3477.8806	3794.0175
OC12CCC1OC2=N	O[C@]12CC[C@H]1O[C]2[NH]	
InChI=1S/C5H7NO2/c6-4-5(7)2-1-3(5)8-4/h3,6-7H,1-2H2	InChI=1S/C5H7NO2/c6-4-5(7)2-1-3(5)8-4/h3,6-7H,1-2H2/t3-,5-/m1/s1
