14
gdb 7026	7.4254	0.93419	0.84547	5.0758	61.03	-0.2522	-0.0353	0.2169	1252.1891	0.105827	-415.895099	-415.886753	-415.885809	-415.929372	28.043	
N	-0.1096325321	 1.4342150646	 0.3216262742	-0.491185
C	-0.0246313185	 0.2007499687	 0.0458301515	 0.391555
C	-1.2696846284	-0.6473463309	-0.0936833501	-0.389758
C	-2.547379972	 0.1801778876	-0.0592335773	 0.186354
O	-3.522498975	-0.144923082	 0.5640911716	-0.240862
N	 1.1684018655	-0.533992808	-0.1493274923	-0.345227
C	 2.4531896133	-0.0503250839	-0.0674044561	 0.170252
O	 2.7613154764	 1.0948045132	 0.1689749252	-0.292319
H	 0.8132367286	 1.8637692253	 0.389478416	 0.25848
H	-1.2462578904	-1.1835783029	-1.0552772057	 0.136111
H	-1.3231686964	-1.4058962281	 0.6951167508	 0.147561
H	-2.5216350404	 1.0951135808	-0.6811553652	 0.10855
H	 1.0746876557	-1.5190476152	-0.3489162939	 0.260358
H	 3.1978697438	-0.8486474592	-0.2488513387	 0.10013
40.4127	61.5585	100.4554	189.449	252.6595	289.0306	344.1227	467.6597	540.4658	547.3734	598.081	757.4609	847.1247	926.514	967.4196	1025.8347	1034.5926	1060.6272	1068.2785	1183.1439	1209.4641	1267.5505	1373.5902	1424.1095	1439.3125	1443.1057	1506.2866	1736.6992	1816.2019	1838.3229	2954.0494	2957.0134	3002.5106	3077.1634	3493.0061	3612.127
N=C(CC=O)NC=O	N=C(CC=O)NC=O	
InChI=1S/C4H6N2O2/c5-4(1-2-7)6-3-8/h2-3H,1H2,(H2,5,6,8)	InChI=1S/C4H6N2O2/c5-4(1-2-7)6-3-8/h2-3H,1H2,(H2,5,6,8)
