17
gdb 12693	3.03465	1.98221	1.36307	2.2607	63.75	-0.232	-0.0335	0.1985	917.9159	0.142449	-401.01431	-401.006368	-401.005424	-401.046647	29.65	
C	-0.0618971612	 1.5776608658	 0.024780451	-0.365036
C	 0.0711219009	 0.0497476938	 0.0073817076	-0.094773
N	 0.8232022539	-0.4458137983	-1.1653747074	-0.304623
C	 2.1738565472	-0.8284045179	-0.7018037232	-0.215504
C	 1.9661414787	-1.3798247503	 0.7179882141	 0.060382
O	 3.080934287	-1.3838607926	 1.560224719	-0.437839
C	 0.8660503938	-0.4472463387	 1.2197772218	 0.36135
O	 0.7606967523	-0.1035298824	 2.3714796969	-0.334732
H	 0.9200840074	 2.0532840177	-0.0550651151	 0.125194
H	-0.6696081089	 1.9101539083	-0.8198725293	 0.123644
H	-0.527219818	 1.9039257891	 0.9588994589	 0.133814
H	-0.9325453951	-0.3916961231	 0.0341322858	 0.1062
H	 0.361107168	-1.2608385108	-1.5508070885	 0.225349
H	 2.6261620339	-1.542813109	-1.391397156	 0.116721
H	 2.8252026151	 0.0529280586	-0.6542025168	 0.121643
H	 1.5214131985	-2.3902765248	 0.6328218051	 0.086303
H	 2.7733228164	-1.0287605754	 2.4084587061	 0.291908
64.8579	164.2927	216.0201	221.3463	284.9367	352.4464	399.4502	433.9169	498.4013	582.3475	622.3197	670.9357	764.8534	805.414	867.573	956.5726	990.9096	1039.7572	1052.5526	1072.9975	1114.0324	1129.809	1178.3111	1208.2561	1259.2367	1289.3006	1305.4324	1346.4571	1378.6213	1399.3333	1410.6038	1458.7475	1487.5451	1494.3514	1505.267	1838.5319	2920.0964	3035.4644	3038.775	3047.1033	3119.7585	3122.0703	3132.9863	3540.8405	3705.0417
CC1NCC(O)C1=O	C[C@H]1NC[C@@H](O)C1=O	
InChI=1S/C5H9NO2/c1-3-5(8)4(7)2-6-3/h3-4,6-7H,2H2,1H3	InChI=1S/C5H9NO2/c1-3-5(8)4(7)2-6-3/h3-4,6-7H,2H2,1H3/t3-,4-/m1/s1
