13
gdb 27598	3.77172	1.29872	0.96607	2.4318	76.8	-0.2564	-0.0588	0.1975	1124.4129	0.090541	-411.821118	-411.813233	-411.812289	-411.853968	28.417	
N	-0.0192679323	 1.3259455832	 0.0080563548	-0.559501
C	 0.0053323279	-0.0205604655	 0.0008561023	 0.453175
N	-1.1784385017	-0.6587108297	 0.003945611	-0.33796
C	-1.0853758354	-1.9882994648	-0.0034542305	 0.169279
N	 0.0551892933	-2.6994984215	-0.013477648	-0.301411
C	 1.1537298259	-1.9435033916	-0.01546055	 0.065457
N	 1.2138140797	-0.6188905091	-0.0088249425	-0.302727
C	-2.3141518735	-2.727589481	-0.0009389535	 0.267336
C	-3.3421529173	-3.3503928066	 0.0011503772	-0.330848
H	 0.8460338871	 1.8353234715	 0.0060506233	 0.273719
H	-0.9021406208	 1.8043971651	 0.0153646291	 0.274233
H	 2.1053154205	-2.4717942266	-0.0234420742	 0.126963
H	-4.2496953733	-3.9026768132	 0.0030192708	 0.202286
74.149	127.187	150.0134	182.6069	334.0586	387.2225	481.7152	512.1688	568.8935	581.2389	600.1776	647.2457	669.3279	759.6532	801.4423	857.2989	973.7225	999.5761	1024.4201	1072.1043	1241.4488	1285.9871	1363.6492	1436.6307	1495.656	1563.7822	1600.7317	1648.3877	2242.7358	3156.7337	3500.7528	3630.8974	3771.299
NC1=NC(=NC=N1)C#C	Nc1nc(ncn1)C#C	
InChI=1S/C5H4N4/c1-2-4-7-3-8-5(6)9-4/h1,3H,(H2,6,7,8,9)	InChI=1S/C5H4N4/c1-2-4-7-3-8-5(6)9-4/h1,3H,(H2,6,7,8,9)
