18
gdb 82275	3.11956	1.41442	1.07492	3.0791	80.9	-0.2329	-0.0636	0.1693	1117.2708	0.14799	-401.944544	-401.936566	-401.935621	-401.976948	30.639	
C	-0.2560219077	 1.5769109748	 0.0151230656	-0.40311
C	 0.0097871506	 0.0715484658	-0.0151868899	-0.069041
N	 0.6709658365	-0.376943825	-1.2755230457	-0.103501
C	 2.0250707404	 0.1300067548	-1.4867199518	-0.237778
C	 1.8240387558	-1.2247936845	-0.8831822711	-0.068014
C	 1.8669020326	-1.2458236779	 0.5957973435	-0.166607
C	 0.885465158	-0.4811059322	 1.1043233807	 0.213295
C	 0.6644790539	-0.2693165507	 2.5335395315	 0.071124
O	-0.2155078932	 0.4214674109	 3.0032604514	-0.275542
H	 0.6728292485	 2.1546427065	-0.0082521077	 0.111337
H	-0.8616116102	 1.8643119796	-0.8487268862	 0.125682
H	-0.7911931371	 1.8320392406	 0.931425955	 0.153442
H	-0.9636421249	-0.4354833058	 0.0213627806	 0.104598
H	 2.3138661916	 0.2124194335	-2.5309493327	 0.124455
H	 2.4205053672	 0.9045101074	-0.834883017	 0.120411
H	 2.0248654716	-2.1254363828	-1.4559304748	 0.106769
H	 2.5975867563	-1.8021197115	 1.1725859888	 0.120697
H	 1.373605	-0.8173863934	 3.1936342299	 0.071784
97.3047	181.0439	199.3819	235.4273	277.279	281.9442	434.4884	457.7761	484.0833	603.7207	674.4106	733.8833	761.4555	801.1821	834.9023	881.3021	900.6268	965.4237	1028.7375	1051.206	1064.0612	1077.2412	1095.9646	1111.7651	1125.8189	1157.3575	1222.7081	1258.9558	1292.4528	1345.9105	1351.6717	1360.2206	1403.4619	1422.1658	1489.5763	1497.1171	1504.6719	1660.8361	1774.0915	2878.3084	3011.7849	3049.0121	3106.3671	3117.7825	3146.0868	3152.8371	3196.4391	3199.9675
CC1N2CC2C=C1C=O	C[C@H]1N2C[C@H]2C=C1C=O	
InChI=1S/C7H9NO/c1-5-6(4-9)2-7-3-8(5)7/h2,4-5,7H,3H2,1H3	InChI=1S/C7H9NO/c1-5-6(4-9)2-7-3-8(5)7/h2,4-5,7H,3H2,1H3/t5-,7-,8?/m1/s1
