16
gdb 6627	4.91483	0.82496	0.79342	3.57	70.63	-0.2424	0.0421	0.2845	1469.5169	0.129597	-379.937339	-379.927778	-379.926834	-379.974298	32.344	
C	-0.1232317727	 1.2219013752	-0.4954173421	-0.495725
C	-0.0633072367	-0.1600384165	-0.0416605228	 0.038025
C	-0.0009208772	-1.3066791821	 0.320576987	 0.069814
C	 0.0451872281	-2.6924348687	 0.7831358935	-0.287815
N	-1.2550370567	-3.3574088169	 0.7365916349	-0.333161
C	-1.4817198183	-4.3419248871	-0.2069579162	 0.452539
N	-2.8192325562	-4.700615865	-0.3250310126	-0.560227
O	-0.6039445598	-4.8474379613	-0.8805363104	-0.383489
H	 0.753267705	 1.4770817605	-1.101062357	 0.15231
H	-1.0116296439	 1.3973166305	-1.1120735203	 0.149895
H	-0.1600960999	 1.9210624683	 0.3472521942	 0.146476
H	 0.7089538819	-3.2932201533	 0.1537474062	 0.174167
H	 0.4416102485	-2.7287842812	 1.8060634575	 0.127285
H	-2.0437977541	-2.7884314099	 1.0037628678	 0.24146
H	-3.3978546109	-4.6212725775	 0.4980402097	 0.247386
H	-2.9395163071	-5.5682046651	-0.8256498794	 0.261059
15.3296	30.1768	70.3469	165.1616	193.3741	278.8648	311.0007	373.1685	390.2279	428.3356	497.3991	560.8288	563.6813	654.5123	763.4632	781.5649	911.482	1037.3932	1053.168	1056.6151	1095.916	1137.4994	1170.7767	1268.5223	1317.9254	1388.1722	1414.8417	1477.3673	1477.5722	1479.0954	1528.2304	1627.78	1805.2915	2372.491	3018.0525	3027.2214	3087.7321	3088.4604	3089.3392	3572.8889	3618.6041	3686.7198
CC#CCNC(N)=O	CC#CCNC(=O)N	
InChI=1S/C5H8N2O/c1-2-3-4-7-5(6)8/h4H2,1H3,(H3,6,7,8)	InChI=1S/C5H8N2O/c1-2-3-4-7-5(6)8/h4H2,1H3,(H3,6,7,8)
