21
gdb 90732	3.04701	1.35018	1.04038	1.4814	84.41	-0.234	0.0219	0.2559	1224.8743	0.182956	-387.101624	-387.093013	-387.092069	-387.134736	33.143	
C	-0.3779877981	 1.2764577922	-0.1884160838	-0.404766
C	 0.35283826	-0.0474602197	-0.1012729734	 0.162105
O	 1.7273551843	 0.0595149752	-0.5601236897	-0.319347
C	 2.2148822003	-0.549831568	 0.6654976332	 0.035862
C	 0.8032031779	-0.5492775723	 1.294933233	-0.093995
C	 0.4781924468	-2.0041690722	 1.6771817609	-0.286795
C	 1.6155295353	-2.7815123474	 1.0531204147	-0.163964
C	 2.56452179	-2.0116899498	 0.5119255239	 0.324313
C	 3.8072652439	-2.4386857576	-0.2014474814	-0.501052
H	 0.1369616729	 2.0435328739	 0.3983414569	 0.118328
H	-0.4286484836	 1.6174710422	-1.2273444615	 0.125629
H	-1.4019181848	 1.1749092893	 0.1887456071	 0.112842
H	-0.1845049281	-0.8180233007	-0.6736519633	 0.070289
H	 3.0196611349	 0.0551530976	 1.1013064998	 0.06896
H	 0.6214883588	 0.1719609333	 2.0930825377	 0.071555
H	 0.441768592	-2.1442289347	 2.7658397933	 0.104659
H	-0.5014966416	-2.3248938432	 1.2976699214	 0.103453
H	 1.6374223576	-3.8674997719	 1.0543123571	 0.086855
H	 3.8862273522	-3.5270393162	-0.2695695921	 0.120346
H	 3.8230992856	-2.0264346266	-1.2174385547	 0.141674
H	 4.7053919338	-2.0613958535	 0.3043607911	 0.123047
77.9986	164.4353	181.3054	228.3686	237.9611	289.0608	308.1425	337.1231	451.1412	567.9003	592.8584	719.5444	781.9957	805.9899	852.6688	877.9784	879.9311	934.8971	954.9816	981.3361	995.9742	1019.3022	1052.1857	1067.2361	1087.4768	1104.8555	1128.9822	1176.4561	1194.6989	1239.6072	1262.1967	1277.3372	1306.7825	1322.1898	1337.6595	1362.9198	1395.756	1408.2659	1409.8718	1477.8378	1482.3177	1488.3839	1491.9145	1494.618	1716.6383	2990.8495	3010.4812	3019.2304	3027.4467	3031.1652	3033.7441	3070.8798	3098.8941	3102.7531	3111.185	3111.5051	3173.2376
CC1OC2C1CC=C2C	C[C@H]1O[C@H]2[C@@H]1CC=C2C	
InChI=1S/C8H12O/c1-5-3-4-7-6(2)9-8(5)7/h3,6-8H,4H2,1-2H3	InChI=1S/C8H12O/c1-5-3-4-7-6(2)9-8(5)7/h3,6-8H,4H2,1-2H3/t6-,7-,8-/m1/s1
