20
gdb 38950	3.05204	1.67091	1.41355	2.1236	76.74	-0.2226	0.077	0.2996	987.3304	0.175137	-403.136871	-403.129932	-403.128988	-403.168133	28.462	
C	 0.1140113195	 1.2289011167	-0.4614981111	-0.251477
C	 1.3337872195	 0.4641221319	-0.0893699328	-0.039197
C	 1.87614584	 0.6181572887	 1.3282589786	-0.022325
C	 2.3285267236	 2.0412417782	 1.7483696858	-0.254414
C	 1.3114350054	 2.4242307224	 2.8468505327	-0.074567
O	 0.1581095396	 1.6304626031	 2.6017804618	-0.252517
C	 0.6359300888	 0.3415018246	 2.2217037868	 0.074731
C	-0.3669495943	-0.3966124962	 1.3267374993	-0.188736
N	 0.0083652977	-0.1906789542	-0.086751569	-0.105718
H	-0.2580979399	 1.9703620872	 0.2389261643	 0.129561
H	-0.0947065567	 1.4337621619	-1.5081809753	 0.109664
H	 2.0235639525	 0.1445951705	-0.8659451237	 0.087249
H	 2.6629229024	-0.1213949576	 1.4982018142	 0.07648
H	 3.3549332781	 2.0619459201	 2.1225604908	 0.102876
H	 2.2693180266	 2.7298378895	 0.9020437523	 0.113224
H	 1.7211258679	 2.2023502046	 3.8456651557	 0.091092
H	 1.0069169499	 3.4736813827	 2.826975855	 0.109459
H	 0.8908225253	-0.234016483	 3.1242611727	 0.067976
H	-0.3206389518	-1.4725425673	 1.5264282054	 0.105983
H	-1.3911161541	-0.0609175738	 1.5133500865	 0.120657
110.8873	192.7471	252.4047	336.7033	382.595	467.7282	576.3905	635.5804	708.5375	732.6325	784.5259	816.2881	858.9189	873.8019	885.9252	932.2418	945.0104	979.858	1008.8789	1031.4683	1038.736	1079.4186	1105.8525	1112.9498	1126.8072	1141.6939	1173.7689	1221.2076	1237.394	1240.7609	1257.5368	1272.4082	1292.8155	1317.787	1341.0022	1348.3187	1366.4444	1392.8168	1398.6544	1482.3866	1494.8751	1500.5095	1518.0926	2971.6179	2984.8116	3047.6683	3064.5067	3072.3991	3093.3523	3099.2637	3109.9614	3113.9003	3140.4256	3202.836
C1C2C3CCOC3CN12	C1[C@H]2[C@H]3CCO[C@H]3CN12	
InChI=1S/C7H11NO/c1-2-9-7-4-8-3-6(8)5(1)7/h5-7H,1-4H2	InChI=1S/C7H11NO/c1-2-9-7-4-8-3-6(8)5(1)7/h5-7H,1-4H2/t5-,6+,7+,8?/m1/s1
