14
gdb 24042	4.6893	1.07473	0.87903	1.5116	72.85	-0.2675	-0.0559	0.2116	1214.0978	0.103459	-395.798477	-395.791161	-395.790217	-395.831468	26.287	
N	-0.9292536322	-0.0038941148	-1.4316248921	-0.307203
C	-0.392865703	 0.4486548234	-0.51413417	 0.271751
C	 0.2970853922	 1.0276698124	 0.6341877841	-0.431565
C	 1.5640624718	 1.7960713066	 0.2934356075	 0.329392
N	 2.1917773881	 2.3234274163	 1.3498368757	-0.298987
C	 3.3075159884	 3.0049980831	 1.095838032	 0.071792
N	 3.8673470328	 3.2192278881	-0.0961560253	-0.244296
C	 3.2252414735	 2.6847031815	-1.136348976	 0.023659
C	 2.0509868684	 1.9513640674	-0.9994892873	-0.181364
H	-0.386761681	 1.6977999779	 1.1674307919	 0.183507
H	 0.5497895721	 0.2316766824	 1.3438745353	 0.183502
H	 3.8168351353	 3.433291076	 1.9557535253	 0.127795
H	 3.6662863691	 2.8479644878	-2.1169385309	 0.130165
H	 1.5439001644	 1.5243845018	-1.85581459	 0.141851
31.8461	128.1177	182.8041	331.7363	369.2104	379.649	452.1981	501.997	632.8058	692.0363	763.1832	827.8484	858.0259	960.6119	967.8736	993.8935	1009.9979	1028.8635	1106.3939	1191.6418	1218.1615	1221.9067	1273.5418	1299.4892	1357.6736	1421.224	1441.8949	1500.0967	1602.8696	1617.027	2368.5522	3050.7957	3084.0546	3160.7671	3169.1761	3215.1337
N#CCC1=NC=NC=C1	N#CCc1ncncc1	
InChI=1S/C6H5N3/c7-3-1-6-2-4-8-5-9-6/h2,4-5H,1H2	InChI=1S/C6H5N3/c7-3-1-6-2-4-8-5-9-6/h2,4-5H,1H2
