17
gdb 11222	4.64254	1.29624	1.08737	4.631	75.31	-0.2531	0.0068	0.2598	1092.0741	0.143068	-326.766583	-326.758749	-326.757805	-326.798921	28.775	
C	-0.0458274306	 1.5584242585	 0.0797810378	-0.490124
C	 0.0067294737	 0.0644423389	 0.0402946462	 0.32501
C	-0.2849072768	-0.7228053471	-0.9954974739	-0.166995
C	-0.0501439535	-2.1919543945	-0.6857843485	-0.169171
C	 0.097793913	-2.1978700107	 0.8679961172	-0.226913
C	 0.4752042177	-0.7444895203	 1.2326420426	-0.302603
C	-1.112776102	-3.076826381	-1.1669060882	 0.262051
N	-1.9537269611	-3.7731930349	-1.5468292398	-0.32961
H	 0.9412348707	 1.9807080652	 0.3070557242	 0.1304
H	-0.385860187	 1.9782144088	-0.8701787037	 0.130048
H	-0.7218538158	 1.9056348462	 0.8709669415	 0.132386
H	-0.6099226311	-0.3903206337	-1.9740965112	 0.108506
H	 0.8813527147	-2.5312379123	-1.1624571566	 0.126992
H	-0.86681413	-2.4544578816	 1.312743769	 0.131319
H	 0.8249654095	-2.9379837817	 1.2074475204	 0.115282
H	 1.5593005874	-0.6237962156	 1.3692130607	 0.111839
H	 0.0114261014	-0.4182100841	 2.170517842	 0.111583
83.475	139.9613	171.8605	195.505	295.0573	320.7982	444.4871	500.6076	552.0006	579.0411	643.2022	830.4513	844.4713	868.7025	894.4843	973.4807	994.3947	1015.5278	1036.7934	1051.8785	1091.1588	1160.1948	1189.5911	1238.91	1273.8381	1285.0857	1300.5437	1342.2077	1365.2319	1414.8516	1478.8094	1483.5896	1486.9344	1500.1145	1723.2867	2355.0888	2996.3615	3009.7566	3021.6021	3055.1119	3068.6467	3075.7713	3117.583	3122.7309	3206.2953
CC1=CC(CC1)C#N	CC1=C[C@@H](CC1)C#N	
InChI=1S/C7H9N/c1-6-2-3-7(4-6)5-8/h4,7H,2-3H2,1H3	InChI=1S/C7H9N/c1-6-2-3-7(4-6)5-8/h4,7H,2-3H2,1H3/t7-/m1/s1
