17
gdb 50724	2.52949	1.5145	0.9948	3.5939	70.92	-0.2408	-0.0264	0.2144	1147.9505	0.136925	-455.151183	-455.143036	-455.142092	-455.184434	30.08	
N	 0.0954895914	 1.3720967543	-0.1424385906	-0.514818
C	 0.0876353837	 0.1327397359	 0.1122318506	 0.422718
O	 1.224583251	-0.5518030104	 0.4031838616	-0.260434
C	 1.165262901	-1.8205311547	 1.0829924594	-0.052481
C	-0.044233242	-2.6460913613	 0.6744804957	-0.178047
N	-1.2063879166	-1.8020966112	 0.8756932923	-0.307227
C	-1.189423787	-0.6788036338	-0.0359864125	-0.160435
C	-2.4536038674	 0.1596953357	 0.1214659708	 0.156428
O	-3.4567101506	-0.29750893	 0.6063276291	-0.260083
H	 1.0400008501	 1.7491053445	-0.0449003233	 0.225382
H	 2.104599281	-2.3228359035	 0.8398413571	 0.118745
H	 1.1279500043	-1.627451751	 2.1611971023	 0.123599
H	 0.0718503903	-2.9958356917	-0.3689541629	 0.091112
H	-0.10553627	-3.5274794019	 1.3202202404	 0.116392
H	-2.0938095111	-2.2856933591	 0.8123936584	 0.240795
H	-1.1995654815	-0.9937145085	-1.1066017943	 0.107667
H	-2.3870469167	 1.1877518767	-0.2746083241	 0.130689
70.0981	111.7724	151.04	217.2923	294.0023	353.2604	394.1307	459.9611	503.4921	547.0305	659.6033	680.9875	757.3577	792.3552	902.2909	911.0733	919.4056	978.0749	1021.3236	1079.7754	1091.4854	1120.5967	1153.3266	1193.1959	1257.6917	1264.6608	1273.8359	1321.8929	1335.7189	1383.2685	1413.1951	1436.727	1470.9896	1493.1511	1503.6197	1747.7499	1823.9505	2823.829	2924.8528	2997.5705	3042.3104	3082.6244	3109.6937	3472.1677	3560.8875
N=C1OCCNC1C=O	[NH][C]1OCCN[C@H]1C=O	
InChI=1S/C5H8N2O2/c6-5-4(3-8)7-1-2-9-5/h3-4,6-7H,1-2H2	InChI=1S/C5H8N2O2/c6-5-4(3-8)7-1-2-9-5/h3-4,6-7H,1-2H2/t4-/m0/s1
