19
gdb 91002	3.39251	1.56498	1.52265	1.7825	73.57	-0.2371	0.0745	0.3117	950.4961	0.162268	-423.012946	-423.006156	-423.005211	-423.043822	28.55	
O	-0.0521991516	 1.402560722	-0.0660644609	-0.447054
C	 0.0153372396	-0.014524343	 0.0242280826	 0.118423
C	 0.630318276	-0.5127561377	 1.3684327028	-0.272689
C	-0.6022263271	-0.91557696	 2.1842987261	-0.025877
C	-1.3745041347	-2.1618934863	 1.6417126138	 0.094064
C	-2.6934517073	-1.4452040029	 2.0012292545	-0.246199
C	-1.8637513988	-0.2079241358	 1.5758790944	-0.067545
C	-1.4193591196	-0.5357681857	 0.130777811	 0.091295
O	-1.2978246905	-1.979056318	 0.2153894552	-0.298029
H	 0.8465019214	 1.744100138	-0.1012050636	 0.283761
H	 0.5218652574	-0.4438973404	-0.8498342825	 0.070176
H	 1.3199299055	-1.3488897235	 1.2194789184	 0.104527
H	 1.1831284875	 0.3006370856	 1.849349819	 0.091765
H	-0.5150419775	-0.8795958962	 3.2697987809	 0.071247
H	-1.1380242843	-3.194525306	 1.8961964352	 0.074373
H	-3.5774843201	-1.7190703703	 1.4208246078	 0.099163
H	-2.9118950608	-1.4454392123	 3.0713262992	 0.098473
H	-2.1384620903	 0.8211406472	 1.7950129386	 0.083427
H	-2.0824368648	-0.2508932546	-0.6871404625	 0.076699
135.102	265.7017	274.4585	347.9446	419.4344	454.0944	500.5581	645.7318	691.1056	742.2528	804.3081	847.952	852.9302	872.7822	890.9439	923.5726	933.166	968.1576	986.7325	1002.5504	1024.2368	1042.2925	1069.4909	1073.17	1102.6718	1115.6155	1159.2388	1186.3894	1217.3352	1226.6583	1247.3173	1258.7644	1265.8233	1282.2742	1296.9423	1325.8178	1342.8789	1364.5232	1419.6787	1469.9002	1490.7596	3019.7516	3048.8749	3066.227	3095.0379	3108.6878	3117.5289	3128.1095	3130.6932	3150.2087	3821.1188
OC1CC2C3CC2C1O3	O[C@H]1C[C@@H]2[C@H]3C[C@@H]2[C@@H]1O3	
InChI=1S/C7H10O2/c8-5-1-3-4-2-6(3)9-7(4)5/h3-8H,1-2H2	InChI=1S/C7H10O2/c8-5-1-3-4-2-6(3)9-7(4)5/h3-8H,1-2H2/t3-,4-,5-,6+,7-/m0/s1
