18
gdb 68626	2.41012	1.63374	1.35428	3.1374	75.44	-0.2712	0.0229	0.2942	1015.1006	0.149607	-401.960399	-401.952741	-401.951796	-401.992239	30.575	
O	 0.1563114744	 1.363974996	-0.1497403827	-0.475513
C	 0.0909753474	-0.0142995944	-0.0661769318	 0.412144
C	 0.3669105766	-0.8518364617	-1.3369963724	-0.267896
C	-0.3946404137	-1.9515487929	-0.5436304808	-0.038353
C	 0.5591657914	-2.2179186721	 0.6403997124	-0.222061
C	 0.9243687031	-0.744595488	 1.0059382322	-0.286118
C	-1.2949035088	-0.7910211812	-0.0058451408	-0.209373
C	-1.990804982	-0.9257387748	 1.2587354456	 0.257529
N	-2.5153643442	-1.0183528551	 2.2862214398	-0.342347
H	 0.1095961749	 1.7326664087	 0.7396127922	 0.290777
H	-0.1871387627	-0.4838330107	-2.2027117166	 0.112431
H	 1.410803015	-1.0405382466	-1.5980292516	 0.102256
H	-0.8459801372	-2.8077917525	-1.0402515346	 0.083816
H	 0.0674286845	-2.7453582523	 1.460943715	 0.125986
H	 1.4293218259	-2.8021124326	 0.3309997981	 0.106768
H	 1.9879234017	-0.5195093457	 0.8925894741	 0.109538
H	 0.6193458669	-0.4730590235	 2.0212068058	 0.116659
H	-1.9715685132	-0.4106186506	-0.7735348541	 0.123758
128.0148	146.0306	270.7893	290.2094	356.5912	366.0104	414.5835	474.8618	526.9275	577.1305	602.3514	740.6249	800.0194	815.9279	850.9334	884.373	895.3079	944.1574	972.1145	984.2771	1040.1901	1056.2166	1081.4731	1113.81	1126.7773	1156.2636	1213.8325	1225.1218	1238.1218	1254.4542	1266.7832	1312.0921	1334.2068	1366.8361	1396.5993	1490.4633	1498.7834	1522.6987	2342.0722	3055.147	3068.3805	3071.1015	3099.7816	3100.7027	3119.3499	3133.5401	3142.4046	3801.4898
OC12CC(CC1)C2C#N	O[C@@]12C[C@@H](CC1)[C@H]2C#N	
InChI=1S/C7H9NO/c8-4-6-5-1-2-7(6,9)3-5/h5-6,9H,1-3H2	InChI=1S/C7H9NO/c8-4-6-5-1-2-7(6,9)3-5/h5-6,9H,1-3H2/t5-,6-,7-/m1/s1
