16
gdb 104554	2.65274	1.23947	1.0104	2.4432	70.34	-0.2648	-0.0435	0.2213	1187.427	0.121163	-437.890021	-437.880979	-437.880035	-437.925163	32.299	
C	-0.0748492684	 1.5041055092	-0.0249777384	-0.267745
O	-0.1623557113	 0.086197076	-0.0678143069	-0.270899
C	 0.6130737819	-0.5343315731	-1.0585155632	 0.265594
C	 2.1632120005	-0.5534571447	-0.7714877904	-0.405627
C	 2.0389553908	-2.060912631	-0.4915646484	 0.417183
O	 2.810567208	-2.8953225752	-0.128766505	-0.27331
C	 0.5483226361	-2.0827092405	-0.8617589879	-0.394104
C	 0.2553365553	-0.0716317343	-2.4085472348	 0.237691
N	-0.0219563341	 0.3010685132	-3.4670484406	-0.340842
H	 0.9544301892	 1.8425363968	 0.156300503	 0.117428
H	-0.4392026948	 1.9571707075	-0.955289975	 0.142846
H	-0.7062322621	 1.8238302262	 0.8053117797	 0.144808
H	 2.806827765	-0.315485704	-1.6222666176	 0.155578
H	 2.4620408487	 0.0518572839	 0.0878928072	 0.151683
H	-0.1339308171	-2.3736684635	-0.0597018481	 0.161568
H	 0.3235791223	-2.6596002463	-1.7619185937	 0.158148
16.2427	121.556	162.6526	177.9942	198.9506	265.2172	369.0701	407.0022	414.9577	457.059	500.0483	594.3465	634.4953	650.2749	725.0544	846.7555	892.7602	974.9077	1024.8919	1051.2618	1111.7233	1116.3643	1147.5117	1184.7374	1204.5946	1222.3073	1247.8327	1267.3739	1406.7355	1421.8338	1479.7756	1489.001	1507.364	1910.773	2350.0711	3005.0936	3067.7444	3070.7102	3077.1501	3131.5328	3139.1894	3139.3904
COC1(CC(=O)C1)C#N	COC1(CC(=O)C1)C#N	
InChI=1S/C6H7NO2/c1-9-6(4-7)2-5(8)3-6/h2-3H2,1H3	InChI=1S/C6H7NO2/c1-9-6(4-7)2-5(8)3-6/h2-3H2,1H3
