18
gdb 41641	3.54557	1.97695	1.62236	0.6918	80.28	-0.201	-0.0071	0.1939	861.8714	0.150125	-364.702966	-364.696839	-364.695894	-364.732889	26.996	
C	-0.1190159407	 1.5171950977	 0.0572168397	-0.254637
C	 1.2906233644	 2.2168598266	-0.0089726215	-0.157573
N	 2.1518376541	 1.6766161421	-1.0925226515	-0.089325
C	 3.1624950503	 0.6016660093	-0.8606510968	-0.019406
C	 2.8031877216	-0.131140784	-2.1111635327	-0.103753
C	 2.4579392895	-0.8250717593	-0.8144553905	-0.17609
C	 1.0427276928	-0.3294132165	-0.8334555233	 0.197824
C	 0.195668597	 0.041675273	 0.1276560752	-0.156351
C	 1.4591776113	 0.6480489224	-1.9422643639	-0.110698
H	-0.6843007446	 1.8764744536	 0.9209089306	 0.09986
H	-0.6899285859	 1.7928114542	-0.8367797248	 0.116107
H	 1.1589943638	 3.2920582468	-0.1815064445	 0.100228
H	 1.7955496925	 2.0996529068	 0.9564913196	 0.102293
H	 4.1318110027	 0.7906415434	-0.4145792119	 0.095189
H	 3.382805743	-0.4123004003	-2.9777199849	 0.097777
H	 2.9309755494	-1.6642446585	-0.3222606162	 0.090803
H	 0.1136054776	-0.4898095393	 1.0718255971	 0.089408
H	 0.7892412712	 0.995627372	-2.7269964498	 0.078342
226.6616	300.7547	364.6681	464.3412	497.3912	577.9714	627.4558	696.8665	707.4697	772.563	792.4033	812.2374	833.4091	851.9	873.6436	884.7173	912.8447	930.8261	979.8299	992.4165	1019.6031	1040.4072	1057.9456	1064.7135	1096.2199	1118.6704	1175.092	1178.8584	1204.9476	1219.4266	1244.2538	1256.6538	1298.8288	1322.2436	1338.6805	1356.5176	1476.6976	1496.6162	1699.0914	3022.0368	3039.4369	3067.4922	3098.4598	3125.0316	3160.7019	3184.1057	3206.7407	3227.2797
C1CN2C3C4C3C(=C1)C24	C1CN2[C@@H]3[C@H]4[C@@H]3[C]([CH]1)[C@@H]24	
InChI=1S/C8H9N/c1-2-4-5-6-7(4)9(3-1)8(5)6/h2,5-8H,1,3H2	InChI=1S/C8H9N/c1-2-4-5-6-7(4)9(3-1)8(5)6/h2,5-8H,1,3H2/t5-,6-,7+,8-/m0/s1
