15
gdb 48102	2.76254	1.13427	1.01441	1.4478	74.54	-0.2502	-0.0955	0.1547	1206.029	0.109478	-420.596547	-420.587658	-420.586713	-420.630901	31.69	
O	-0.9441037338	 1.4809270155	-0.253133156	-0.221177
C	 0.1066945659	 1.048623734	 0.1418467897	 0.092153
C	 1.3543321916	 1.9099847575	 0.3763847345	 0.287763
O	 2.3424303625	 1.3693670828	 0.8253346211	-0.296747
C	 1.2453372105	 3.3426458186	 0.0281574568	-0.134662
C	 2.2372879201	 4.3109601173	 0.6235385016	-0.295038
C	 2.3649835996	 3.9854161489	-0.8359231395	-0.189599
C	 3.4581771726	 3.2114455853	-1.3404453345	 0.355353
C	 4.3772058258	 2.5840082675	-1.7951775344	-0.456597
H	 0.2771924995	-0.0199658749	 0.3893588974	 0.109849
H	 0.2418572386	 3.6818082017	-0.1955240813	 0.126858
H	 1.8760086115	 5.295013481	 0.897917666	 0.131717
H	 2.9763531972	 3.8711797094	 1.2832078686	 0.154712
H	 1.9805267952	 4.7299964096	-1.526927904	 0.131382
H	 5.1926680332	 2.0240589858	-2.1812342961	 0.204035
46.0578	107.702	141.2204	163.2366	213.8023	249.0384	285.1345	477.549	512.3487	539.5257	611.6626	634.6413	651.6356	661.5237	750.0336	775.1319	842.0346	893.926	981.5552	1034.8776	1068.6325	1099.1217	1131.9346	1148.6252	1165.1196	1211.9553	1363.3756	1379.8689	1416.9095	1471.3163	1783.4162	1822.1233	2241.1032	2931.5125	3144.9259	3151.506	3202.6571	3243.9731	3504.3814
O=CC(=O)C1CC1C#C	O=CC(=O)[C@H]1C[C@H]1C#C	
InChI=1S/C7H6O2/c1-2-5-3-6(5)7(9)4-8/h1,4-6H,3H2	InChI=1S/C7H6O2/c1-2-5-3-6(5)7(9)4-8/h1,4-6H,3H2/t5-,6+/m1/s1
