20
gdb 87834	2.87536	1.34973	1.14693	1.2135	79.79	-0.2258	0.0785	0.3044	1168.5426	0.169402	-403.092744	-403.083819	-403.082875	-403.125991	34.157	
C	-0.0743376553	 1.4930244779	-0.080740696	-0.415816
C	 0.0024021265	-0.0022340647	 0.0791818197	-0.025806
O	 1.3199347571	-0.5971257352	-0.0026598322	-0.306683
C	 0.6254200791	-0.6461271161	 1.2326442832	 0.433703
C	 1.2509149383	-0.0926147404	 2.5344892748	-0.320274
C	 0.9134723397	-1.4445272012	 3.181944737	-0.110605
N	-0.5594437506	-1.6013209491	 3.0572453075	-0.374685
C	 0.324395669	-1.9748429172	 1.9157797296	 0.235465
C	 0.3225050458	-3.3257925388	 1.2761775304	-0.515506
H	 0.7019314947	 1.9893444609	 0.5071885224	 0.126717
H	 0.0541749527	 1.7780161084	-1.1302744844	 0.126742
H	-1.0517920726	 1.8592988001	 0.2511875059	 0.126292
H	-0.7585852891	-0.5685328415	-0.4610410568	 0.086142
H	 2.323615226	 0.0709612121	 2.4060237841	 0.116964
H	 0.783100589	 0.7837150627	 2.9896517794	 0.109627
H	 1.4647363671	-1.9623134559	 3.9571922153	 0.094999
H	-0.8059719886	-2.4742711395	 3.5262747478	 0.223911
H	-0.5997303359	-3.4961027603	 0.7081425904	 0.128104
H	 1.1631460548	-3.4171686366	 0.5819926174	 0.143441
H	 0.4050903424	-4.1185174358	 2.0273686646	 0.11727
105.4035	143.4934	180.7143	192.9183	208.6278	244.5743	321.4703	423.7951	439.5213	481.6442	502.0063	578.9672	668.4531	754.4933	794.2489	849.4767	882.8404	904.754	936.0399	958.2338	1011.1397	1024.8505	1028.9951	1060.138	1087.6131	1113.8697	1133.4531	1136.1719	1178.5386	1187.3682	1230.3256	1301.4757	1324.188	1361.1371	1401.3972	1409.1346	1439.5281	1461.8483	1478.6708	1481.5041	1490.6673	1499.5334	1536.9717	3026.9529	3036.405	3063.629	3087.1842	3090.1766	3100.5588	3110.4652	3124.8496	3125.4658	3190.8512	3452.3632
CC1OC11CC2NC12C	C[C@H]1O[C@]21C[C@H]1N[C@@]21C	
InChI=1S/C7H11NO/c1-4-7(9-4)3-5-6(7,2)8-5/h4-5,8H,3H2,1-2H3	InChI=1S/C7H11NO/c1-4-7(9-4)3-5-6(7,2)8-5/h4-5,8H,3H2,1-2H3/t4-,5-,6-,7+/m1/s1
