18
gdb 92980	2.66608	1.58305	1.21411	1.9022	71.44	-0.2483	0.0188	0.2671	1058.5292	0.148362	-439.075828	-439.067714	-439.06677	-439.109113	30.103	
C	-0.2534888864	 1.6010370708	 0.0177224867	-0.417539
C	 0.1168898562	 0.1297316107	-0.0542633392	 0.10066
O	 1.2593140252	-0.0319565579	-0.9470194982	-0.226418
C	 2.1123340362	-0.849753337	-0.30200091	 0.124803
N	 1.854377579	-1.2484142159	 0.8733539143	-0.270876
C	 0.5983107331	-0.5792286136	 1.2588899657	-0.050609
C	 0.8106248675	 0.3479511728	 2.4437528744	 0.076697
C	 1.9704014396	 0.2325386725	 3.3347386051	-0.177632
O	 1.8897248407	 1.2764614655	 2.356426618	-0.236639
H	 0.5541354118	 2.1876241318	 0.4594080595	 0.161467
H	-0.4613652408	 1.9819440386	-0.9857497657	 0.127741
H	-1.1565562025	 1.7347634411	 0.6219471813	 0.119079
H	-0.7024084355	-0.4410635216	-0.5060008984	 0.094302
H	 2.9949543275	-1.1194461129	-0.8721320653	 0.141886
H	-0.1338037959	-1.3339522513	 1.569987764	 0.090795
H	-0.1084237548	 0.7711429696	 2.8537279454	 0.090724
H	 1.8837754731	 0.5611018971	 4.3692988316	 0.110937
H	 2.712099366	-0.5333694802	 3.1278978207	 0.140622
51.5633	104.0938	191.9558	226.3398	254.5371	320.5763	394.9723	446.6512	517.5964	627.1577	728.6861	792.0262	828.1564	860.9975	895.5571	916.36	956.6396	974.0568	989.3357	1058.7799	1076.3164	1104.8361	1124.3832	1150.1253	1162.9791	1169.1096	1175.8075	1277.5916	1294.6033	1323.1055	1337.668	1366.9314	1386.5456	1415.11	1426.9258	1489.9949	1501.6212	1517.018	1705.7901	3025.9126	3043.8509	3049.0263	3089.2609	3098.9509	3115.1483	3145.5702	3201.6578	3211.4285
CC1OC=NC1C1CO1	C[C@H]1OC=N[C@H]1[C@H]1CO1	
InChI=1S/C6H9NO2/c1-4-6(5-2-8-5)7-3-9-4/h3-6H,2H2,1H3	InChI=1S/C6H9NO2/c1-4-6(5-2-8-5)7-3-9-4/h3-6H,2H2,1H3/t4-,5-,6-/m1/s1
