14
gdb 124427	3.35342	1.15219	0.98031	2.7506	66.7	-0.3211	-0.063	0.2581	1169.1884	0.100837	-432.840439	-432.83245	-432.831506	-432.874329	27.963	
C	-0.0292032978	 1.5762394694	-0.0033305278	-0.394577
C	 0.0579462464	 0.0304018373	-0.0003226168	-0.254501
C	 0.6766934582	-0.456502851	-1.2392545564	 0.276695
N	 1.1783532622	-0.8170184616	-2.215333254	-0.312221
C	 0.8101599661	-0.483077077	 1.2004037384	 0.346939
N	 0.1900114769	-0.7933996488	 2.307101388	-0.148532
O	 1.1615651827	-1.1658728449	 3.1877770299	-0.142221
N	 2.402344069	-1.0932827364	 2.6221351026	-0.053065
C	 2.2068563095	-0.6754202213	 1.403088519	-0.099837
H	 0.9677141365	 2.0218011055	-0.0431256152	 0.145926
H	-0.5986957947	 1.9201809857	-0.8695078101	 0.149291
H	-0.5284231068	 1.9096398551	 0.9088555398	 0.151509
H	-0.9572643261	-0.3772123449	 0.0509362722	 0.163731
H	 3.0279934379	-0.5382041671	 0.7169714904	 0.170864
29.8206	112.055	168.0041	203.3873	230.7201	342.3297	391.7154	483.8335	563.8754	652.5914	706.7526	733.79	867.7049	896.7386	903.4313	942.8154	996.9617	1023.5421	1056.8626	1080.7744	1114.0187	1205.9661	1298.7518	1320.5545	1407.1002	1424.8176	1461.0416	1492.6413	1496.6009	1608.4225	2364.5892	3056.3314	3065.893	3138.916	3144.525	3274.3822
CC(C#N)C1=NON=C1	C[C@@H](C#N)c1nonc1	
InChI=1S/C5H5N3O/c1-4(2-6)5-3-7-9-8-5/h3-4H,1H3	InChI=1S/C5H5N3O/c1-4(2-6)5-3-7-9-8-5/h3-4H,1H3/t4-/m0/s1
