14
gdb 45665	3.24837	1.81897	1.43236	4.0852	66.75	-0.2533	-0.0464	0.2069	872.7772	0.101257	-436.610329	-436.603984	-436.60304	-436.641011	25.502	
O	-0.0849791853	-0.0714763582	-0.0872021782	-0.293057
C	-0.0653804044	 1.1196940414	 0.0504373953	 0.38776
C	-1.3609094541	 2.0194516601	 0.0312309911	-0.273565
N	-1.1958050039	 2.8241488149	 1.2376385633	-0.199954
C	-0.0949879541	 3.4325003988	 1.1888447636	 0.301226
O	 0.8315670534	 3.3888900655	 2.2388647773	-0.249203
C	 1.7812339016	 2.9860910392	 1.2312604639	 0.091672
C	 0.9776556859	 3.4385160188	 0.0890415055	-0.265095
C	 1.2212993979	 1.9492595961	 0.1514197375	-0.165052
H	-1.3818737581	 2.5777577024	-0.9159312485	 0.124721
H	-2.2515251713	 1.3961218605	 0.100870591	 0.141779
H	 2.8324159014	 3.0516285195	 1.4780965846	 0.141629
H	 1.1525776115	 4.1313458947	-0.7221992158	 0.131924
H	 2.0262684695	 1.5276827564	-0.4462643205	 0.125214
108.7343	275.8863	351.8797	429.2158	483.2582	512.2731	531.0988	593.1158	673.0006	735.2331	779.9372	805.6338	807.7755	885.8852	919.8958	965.376	992.3518	1023.5162	1045.905	1058.4003	1082.0554	1119.7711	1158.3105	1196.8973	1223.3937	1267.3606	1299.1914	1358.5858	1484.4398	1715.8964	1836.14	3001.3548	3143.1044	3150.4635	3207.7588	3223.6909
O=C1CN=C2OC3C2C13	O=C1C[N][C]2O[C@@H]3[C@H]2[C@H]13	
InChI=1S/C6H5NO2/c8-2-1-7-6-4-3(2)5(4)9-6/h3-5H,1H2	InChI=1S/C6H5NO2/c8-2-1-7-6-4-3(2)5(4)9-6/h3-5H,1H2/t3-,4+,5-/m0/s1
