23
gdb 96012	2.97267	1.127	0.96133	1.3436	85.25	-0.2604	0.0694	0.3298	1340.883	0.207115	-388.291644	-388.28239	-388.281446	-388.326415	35.23	
O	-0.0832933998	 1.423125398	 0.4769096268	-0.443431
C	-0.0908293489	 0.0713848357	 0.0182868894	 0.117077
C	 0.6995662004	-0.8503110177	 0.9583928007	-0.234348
C	-0.251896817	-1.1205716346	 2.1574482394	-0.202349
C	-1.6636564727	-0.6807202381	 1.681363807	-0.209763
C	-1.5335229792	-0.4438308716	 0.1585389254	 0.014873
C	-2.5911218025	 0.4501823214	-0.4428424661	 0.029436
C	-2.9638065291	 0.3282789242	-1.8995907274	-0.27838
C	-3.9348856371	-0.1132204257	-0.8317375512	-0.278592
H	 0.8301553607	 1.723396356	 0.4969676254	 0.28054
H	 0.266709123	 0.0201221338	-1.0203691868	 0.054519
H	 0.9373975519	-1.782086675	 0.4324247635	 0.09566
H	 1.6544437414	-0.4049764096	 1.2583962996	 0.081849
H	-0.2297991231	-2.1769630224	 2.4396018014	 0.095279
H	 0.0540425763	-0.5548801726	 3.0409934336	 0.101675
H	-2.4381197111	-1.4158571592	 1.9153718815	 0.090374
H	-1.9516171909	 0.2571704256	 2.1648580482	 0.108262
H	-1.5681051003	-1.416834286	-0.3523855514	 0.058637
H	-2.5913966708	 1.4567518794	-0.0373564018	 0.095835
H	-3.1824063726	 1.2342077826	-2.4540358285	 0.108142
H	-2.4754740293	-0.4424688872	-2.4878352719	 0.10315
H	-4.0946653545	-1.1795561722	-0.7053484677	 0.10428
H	-4.8198719152	 0.4888449252	-0.6572022592	 0.107274
41.0427	83.8806	126.789	156.83	231.4635	282.8832	305.9631	392.4521	421.2274	480.7833	634.9248	717.0802	762.4663	792.1957	829.7792	846.7786	860.0373	895.6066	900.0161	915.5442	961.2543	988.6738	1005.1947	1039.0124	1048.1898	1057.3694	1076.2081	1105.4923	1140.5222	1146.284	1191.4155	1199.3124	1218.2805	1223.5359	1231.1536	1266.1585	1285.011	1302.3731	1310.8953	1332.3285	1346.1661	1366.5791	1417.3802	1434.1007	1471.0442	1481.336	1487.4446	1506.7881	1510.6385	2991.1261	3004.2657	3036.182	3054.3069	3064.1272	3068.9945	3090.3637	3109.6226	3125.0843	3130.2562	3163.9343	3202.3677	3218.2702	3826.2981
OC1CCCC1C1CC1	O[C@H]1CCC[C@H]1C1CC1	
InChI=1S/C8H14O/c9-8-3-1-2-7(8)6-4-5-6/h6-9H,1-5H2	InChI=1S/C8H14O/c9-8-3-1-2-7(8)6-4-5-6/h6-9H,1-5H2/t7-,8-/m0/s1
