14
gdb 8249	6.05274	1.13493	1.01375	3.943	63.68	-0.274	0.0061	0.28	1098.859	0.105739	-382.533469	-382.525903	-382.524959	-382.565911	27.331	
O	 0.2959778559	 0.1504781659	-0.7337363127	-0.310006
C	 0.0924455468	 1.1694193623	-0.1597192384	 0.452437
C	-1.1017713792	 2.0551920204	 0.2006526509	-0.443117
C	-0.0295701192	 2.9472509568	 0.8524110474	 0.143477
C	-0.0851251692	 3.1186409999	 2.3674450718	-0.368537
C	 1.0860105477	 3.7965591133	 2.907816131	 0.297008
C	 2.0541821376	 4.3651348626	 3.3340328947	-0.424187
O	 1.0107606846	 1.9939646119	 0.4428518112	-0.241781
H	-1.6307363845	 2.4723330194	-0.657210694	 0.148459
H	-1.8162919602	 1.5886761549	 0.8821302503	 0.144513
H	 0.1425371329	 3.9041431023	 0.3548035811	 0.114283
H	-0.9924445995	 3.6880654353	 2.6100784373	 0.141446
H	-0.199492728	 2.130581008	 2.8310203196	 0.142024
H	 2.9132449043	 4.858363637	 3.7167252296	 0.203981
65.8889	105.3894	146.528	300.4967	342.0628	390.3133	481.251	523.3849	540.9141	629.842	654.4131	728.5012	834.502	869.0346	923.6614	978.1167	986.4812	1041.6678	1092.408	1118.2922	1152.4959	1224.9354	1237.1371	1287.051	1345.1774	1397.7239	1456.1759	1456.9261	1945.1819	2246.1977	3019.5619	3055.833	3087.4461	3095.8693	3147.0017	3506.0247
O=C1CC(CC#C)O1	O=C1C[C@@H](CC#C)O1	
InChI=1S/C6H6O2/c1-2-3-5-4-6(7)8-5/h1,5H,3-4H2	InChI=1S/C6H6O2/c1-2-3-5-4-6(7)8-5/h1,5H,3-4H2/t5-/m1/s1
