21
gdb 79195	2.2946	1.91488	1.38855	1.2702	82.05	-0.2345	0.0778	0.3124	1026.5699	0.184247	-387.044567	-387.03671	-387.035766	-387.076258	32.47	
C	-0.0065480921	 1.4193844328	-0.0272356717	-0.474876
C	-0.0198393209	-0.0913419145	-0.0664498849	 0.317541
C	-0.8996923146	-0.8527318133	 0.8829068901	 0.016502
O	-1.838742954	-1.8182852605	 0.4943614895	-0.421218
C	 0.6024553535	-1.0151151301	 1.0056368674	-0.138452
C	 1.421217613	-1.9583901362	 0.1042735762	-0.049718
C	 0.4833065492	-2.2920893505	-1.0902661604	-0.239408
C	 0.5790282359	-0.7609430912	-1.3265871839	-0.081486
C	 2.0748843319	-0.9160372097	-0.8685937887	-0.209084
H	 0.966502125	 1.8193852887	-0.3346275768	 0.115562
H	-0.76250135	 1.8382437931	-0.7027270462	 0.119348
H	-0.21721667	 1.7977305539	 0.9781379906	 0.111869
H	-1.2911454896	-0.199755248	 1.6680422785	 0.080228
H	-1.9069044486	-2.4609055166	 1.2091124738	 0.285121
H	 1.0851305887	-0.6208842153	 1.8956242004	 0.076847
H	 2.0085095722	-2.7291582181	 0.6054829997	 0.054747
H	 1.0249591451	-2.8386472704	-1.8663625743	 0.085578
H	-0.4867468444	-2.739064746	-0.905596204	 0.119662
H	 0.3122319389	-0.3090180001	-2.2832380588	 0.056104
H	 2.5706843575	-0.0472227283	-0.4262038576	 0.086538
H	 2.7140224032	-1.3726270197	-1.6300033691	 0.088598
175.1131	194.6527	230.5351	265.3684	285.5865	303.6511	410.8218	529.6148	546.2345	575.56	679.791	698.9984	739.8133	823.5151	837.7505	844.1182	881.4645	900.6849	955.6355	979.8339	1002.0413	1026.785	1041.5232	1048.2597	1074.5163	1082.3204	1104.8457	1110.5377	1131.7034	1176.0058	1222.5303	1225.816	1240.1302	1249.6503	1272.7461	1291.8523	1307.776	1323.8158	1368.4853	1417.3077	1469.1205	1488.3608	1490.4169	1500.8731	1527.4443	3019.7697	3047.1742	3053.6251	3073.5877	3077.9031	3095.4763	3099.1391	3102.0322	3109.3319	3144.9955	3199.9642	3798.4205
CC12C(O)C1C1CC2C1	C[C@]12[C@@H](O)[C@H]1[C@H]1C[C@@H]2C1	
InChI=1S/C8H12O/c1-8-5-2-4(3-5)6(8)7(8)9/h4-7,9H,2-3H2,1H3	InChI=1S/C8H12O/c1-8-5-2-4(3-5)6(8)7(8)9/h4-7,9H,2-3H2,1H3/t4-,5+,6-,7+,8-/m1/s1
