19
gdb 37053	2.97925	1.6928	1.37	1.2614	74.35	-0.2479	0.0726	0.3205	993.0348	0.16112	-422.993748	-422.98652	-422.985576	-423.02505	29.475	
C	-0.0479239023	 1.5732819029	-0.157097472	-0.301373
C	 1.5269340216	 1.6131241799	-0.1832385595	-0.297353
C	 1.5182799771	 0.1236151741	 0.2000093626	 0.307816
C	 2.3323526723	-0.7302904873	 1.1346449028	-0.181808
O	 1.5130158114	-1.275108349	 2.1685220638	-0.254954
C	 0.3025177145	-1.8574487122	 1.7029058894	-0.074061
C	-0.6918357923	-0.7932738591	 1.183832726	-0.32708
C	 0.0484815825	 0.0870096992	 0.2252383631	 0.357752
O	 0.7784956015	-0.5666490864	-0.8244802584	-0.320343
H	-0.4654473043	 2.1975552177	 0.6365375548	 0.108866
H	-0.5664552358	 1.7810802331	-1.0958653746	 0.109919
H	 2.0032287816	 1.8480736205	-1.1378532343	 0.110657
H	 1.9383377512	 2.256243856	 0.5984947865	 0.10993
H	 2.8331744726	-1.5370358155	 0.5775271332	 0.104416
H	 3.0983346826	-0.1366338029	 1.6422352861	 0.113895
H	 0.5077103204	-2.5878418207	 0.9074976436	 0.107449
H	-0.1224109686	-2.3864619745	 2.559825427	 0.108825
H	-1.5620855701	-1.2791578467	 0.7263648161	 0.10705
H	-1.0517934061	-0.1860117893	 2.022362514	 0.110396
136.3004	202.7806	294.2397	313.6325	343.6605	404.8725	468.3145	520.8911	547.4701	687.4874	730.1811	738.5568	769.6767	851.0009	880.8006	921.1328	928.8488	941.9223	969.3292	1018.2559	1039.7569	1097.1274	1122.7521	1135.7141	1180.8348	1205.2824	1212.9847	1224.5117	1245.9621	1277.4625	1286.2015	1319.9717	1371.1027	1385.8072	1413.1668	1454.2523	1463.3206	1475.145	1483.4741	1494.6793	1500.5952	2986.5159	3009.0115	3031.7797	3062.7792	3069.6052	3074.7215	3086.3562	3097.9161	3114.4735	3130.9486
C1CC23COCCC12O3	C1C[C@@]23COCC[C@@]12O3	
InChI=1S/C7H10O2/c1-2-7-5-8-4-3-6(1,7)9-7/h1-5H2	InChI=1S/C7H10O2/c1-2-7-5-8-4-3-6(1,7)9-7/h1-5H2/t6-,7+/m0/s1
