14
gdb 16479	2.99483	2.70918	1.7402	3.5662	61.15	-0.2317	0.0047	0.2364	745.8583	0.107008	-382.498247	-382.491751	-382.490807	-382.528617	25.318	
O	-0.0882067733	 1.353231193	 0.0840165594	-0.451646
C	 0.073076157	-0.0061147838	 0.0553213942	 0.266194
C	-0.1982509585	-0.8496129637	-1.2124869676	-0.13121
C	 0.4901666332	-2.2050087937	-1.0334576851	-0.244215
C	 0.0066454337	-2.121044091	 0.4441065023	-0.187549
C	-1.0629678501	-1.0513958667	-0.0054995332	-0.116357
C	 0.7888891684	-0.9111959585	 1.0179451938	 0.370853
O	 1.4793280925	-0.745238291	 1.9823907357	-0.34128
H	 0.6031742542	 1.7614486254	-0.4488997316	 0.298288
H	-0.4508079439	-0.3218184849	-2.124662075	 0.100856
H	-0.0240733942	-2.9929640291	-1.5905233926	 0.112293
H	 1.5707836372	-2.2736993625	-1.2022545409	 0.104324
H	-0.17035809	-2.9988418149	 1.0582169736	 0.097749
H	-2.1069419562	-0.9008519687	 0.2198824571	 0.121701
154.7845	221.4686	271.6477	306.3742	418.3317	462.2095	597.8564	663.9053	715.5764	779.8503	799.6821	839.9646	854.6643	908.2176	937.082	943.3684	988.9879	1003.7495	1055.8445	1099.6142	1128.4781	1165.1126	1191.7126	1223.2071	1273.0936	1292.2595	1304.3998	1448.3395	1499.2178	1882.2701	3037.5223	3098.4574	3170.3928	3186.5402	3249.6314	3797.424
OC12C3CC(C13)C2=O	O[C@]12[C@H]3C[C@H]([C@@H]13)C2=O	
InChI=1S/C6H6O2/c7-5-2-1-3-4(2)6(3,5)8/h2-4,8H,1H2	InChI=1S/C6H6O2/c7-5-2-1-3-4(2)6(3,5)8/h2-4,8H,1H2/t2-,3+,4-,6-/m1/s1
