16
gdb 43991	2.95424	1.66805	1.50937	4.3365	68.12	-0.2439	0.0031	0.247	923.0191	0.125857	-437.857399	-437.850475	-437.849531	-437.888613	27.597	
O	-0.0103644492	 0.0098859587	 0.037190887	-0.337852
C	 0.003571076	 1.2047638645	 0.0099844549	 0.352986
N	-1.0253150353	 2.1645314568	 0.0867895949	-0.378151
C	-0.1049335615	 3.2974265435	-0.027435917	 0.212888
C	 0.9487003302	 3.2977662964	 1.0476635961	-0.359629
C	 1.0588207482	 2.3222358984	-0.1155268157	 0.18864
O	 1.8851031336	 2.6310716261	-1.1764526489	-0.281127
C	 1.0658427566	 3.3506176932	-2.1269273897	-0.088341
C	 0.0182790578	 4.144305205	-1.2836186329	-0.301574
H	-1.8210470372	 2.1142284953	 0.7135063129	 0.243185
H	 1.6824023672	 4.0970577913	 1.0201634147	 0.135645
H	 0.6965031375	 2.9351246528	 2.039055892	 0.129172
H	 1.7295995756	 3.9780527403	-2.7267745706	 0.119358
H	 0.5598438405	 2.6371766356	-2.790874895	 0.11963
H	-0.9352697963	 4.2343828277	-1.8075612789	 0.125775
H	 0.3760944462	 5.1512735342	-1.0530695136	 0.119396
124.7173	169.7916	277.5928	367.3109	376.7059	462.686	533.4801	614.32	649.298	671.4338	703.0523	746.0318	841.9276	855.4449	875.7386	902.2254	922.6703	958.1959	1000.4499	1012.86	1070.4536	1095.519	1130.0721	1183.6191	1231.7113	1260.6252	1286.1621	1311.3022	1324.4356	1333.4996	1385.7995	1463.9591	1478.6102	1514.7221	1899.7277	3020.8879	3069.138	3105.4359	3126.5085	3127.304	3222.2744	3537.042
O=C1NC23CC12OCC3	O=C1N[C@@]23C[C@@]12OCC3	
InChI=1S/C6H7NO2/c8-4-6-3-5(6,7-4)1-2-9-6/h1-3H2,(H,7,8)	InChI=1S/C6H7NO2/c8-4-6-3-5(6,7-4)1-2-9-6/h1-3H2,(H,7,8)/t5-,6+/m0/s1
