18
gdb 102872	2.65696	1.0066	0.78061	5.0028	76.9	-0.2439	0.0012	0.2451	1460.1091	0.146441	-435.260416	-435.250313	-435.249368	-435.296493	34.977	
C	-0.7625586911	 0.7970618704	 0.5368461292	-0.323445
N	-0.036142901	-0.3817265847	 0.9733245887	-0.224537
C	 0.9788412896	-0.7246518538	 0.3094239701	 0.13682
O	 1.7703537996	-1.771672536	 0.5990606655	-0.228456
C	 1.5166687598	-2.4838572607	 1.825827815	-0.012975
C	 0.3180769428	-3.4664450255	 1.7320366105	-0.179154
N	-0.8031239886	-2.9603799348	 2.5120263314	-0.511929
C	 2.7728814582	-3.1763018119	 2.1344330691	 0.290351
N	 3.7418561031	-3.7414702953	 2.408474432	-0.317014
H	-0.3318329027	 1.2738217777	-0.3562666121	 0.109639
H	-1.8022421763	 0.5296278273	 0.3189980774	 0.132805
H	-0.7828150728	 1.5346059081	 1.3461443376	 0.138658
H	 1.3559191945	-0.2232894306	-0.5882184785	 0.118035
H	 1.2998975305	-1.7643460829	 2.6227780298	 0.157502
H	 0.1290438924	-3.6228924213	 0.6570529147	 0.107037
H	 0.6190903637	-4.4339624325	 2.1451326005	 0.133584
H	-1.0966585422	-2.0686347753	 2.1224102338	 0.244085
H	-1.5838264097	-3.6058587082	 2.4587060153	 0.228992
35.0921	74.707	134.9981	153.0709	177.3793	218.0874	233.9898	296.0275	322.1065	373.835	403.5835	439.648	554.6614	557.4877	718.9876	861.2904	863.84	966.4627	989.9521	999.4311	1065.7943	1075.0112	1112.1015	1142.8731	1150.3934	1199.1722	1256.1312	1278.4736	1333.7055	1353.8485	1389.2065	1431.9873	1452.0751	1482.5884	1504.2999	1505.1244	1644.6108	1749.3949	2369.1108	2965.1955	2990.5838	3066.0551	3071.1928	3077.2093	3079.4632	3088.7229	3489.5787	3581.6597
CN=COC(CN)C#N	CN=CO[C@@H](CN)C#N	
InChI=1S/C5H9N3O/c1-8-4-9-5(2-6)3-7/h4-5H,2,6H2,1H3	InChI=1S/C5H9N3O/c1-8-4-9-5(2-6)3-7/h4-5H,2,6H2,1H3/t5-/m0/s1
