17
gdb 124879	3.66072	1.21933	0.99822	4.4989	73.88	-0.2443	-0.0081	0.2361	1174.74	0.136872	-417.975255	-417.967414	-417.96647	-418.008118	29.66	
C	-0.2818203556	 1.3479112718	-0.7356748683	-0.48463
C	-0.0251684831	 0.0183552522	-0.0551577372	 0.175371
C	 1.105498815	-0.8222589217	-0.5551902656	-0.268419
N	 1.2050669845	-0.1499044974	 0.7477827703	-0.341238
C	-1.2146152001	-0.6449259738	 0.5332513631	 0.167243
C	-2.5353501523	-0.4895084595	 0.2458181952	-0.035972
O	-3.2898340094	-1.2922041806	 1.0132227633	-0.169385
N	-2.4566457712	-2.0183780838	 1.8586154861	-0.132635
C	-1.2426180032	-1.627912574	 1.5676805768	-0.054076
H	 0.6457570151	 1.7604416757	-1.1443969603	 0.115846
H	-0.9877368021	 1.2385890008	-1.566381497	 0.128531
H	-0.7018576681	 2.0737600208	-0.0313482029	 0.133222
H	 1.0349820338	-1.9052655849	-0.5079275049	 0.123934
H	 1.6864346256	-0.44112653	-1.3916274672	 0.115418
H	 1.7845320304	 0.6824978351	 0.6719384798	 0.232751
H	-3.0761433859	 0.1316992521	-0.4506553084	 0.146598
H	-0.4013494634	-2.0377292328	 2.1068964875	 0.147441
51.3759	157.6867	184.022	235.4025	317.8998	354.8662	427.9754	480.2873	547.0071	621.097	685.3924	818.3968	828.2316	848.8977	898.1063	926.7362	932.4246	938.7218	970.453	991.3491	1017.6201	1056.9683	1117.1584	1137.6924	1149.8943	1172.7586	1247.9464	1264.2921	1308.3195	1366.6678	1405.6738	1421.3903	1483.7538	1487.343	1504.2684	1512.1678	1652.9726	3029.9887	3095.0454	3104.8549	3107.0059	3193.3083	3258.6241	3267.044	3500.6097
CC1(CN1)C1=CON=C1	C[C@]1(CN1)c1conc1	
InChI=1S/C6H8N2O/c1-6(4-7-6)5-2-8-9-3-5/h2-3,7H,4H2,1H3	InChI=1S/C6H8N2O/c1-6(4-7-6)5-2-8-9-3-5/h2-3,7H,4H2,1H3/t6-/m0/s1
