25
gdb 59643	3.28776	0.93976	0.77667	1.5634	89.25	-0.2372	0.0809	0.3181	1580.9719	0.228397	-389.51485	-389.504475	-389.503531	-389.550456	38.753	
C	 0.0111057586	 1.5583925488	-0.034995358	-0.394491
C	 0.0637616157	 0.025502964	 0.053204802	 0.016458
C	 0.7601684669	-0.4109359612	 1.3499877204	-0.392474
C	-1.3368229439	-0.5937049737	-0.0772400825	 0.022201
C	-2.0590240721	-0.2545885912	-1.4001283474	-0.083835
O	-2.8831067562	-1.3659294607	-1.7394509933	-0.279372
C	-2.7388757138	-2.4061014422	-0.7677114327	 0.153117
C	-2.8678702703	-3.751443128	-1.4640062522	-0.397429
C	-1.3944285911	-2.1311343741	-0.0891401612	-0.254848
H	 1.0150721395	 1.9884539504	 0.0421245281	 0.110848
H	-0.4240241965	 1.9005732625	-0.978946402	 0.118441
H	-0.5906566636	 1.975876662	 0.7813550582	 0.112224
H	 0.6616868426	-0.3427590395	-0.7941616821	 0.070552
H	 0.1883244764	-0.0881260193	 2.2286086378	 0.111121
H	 0.8734579307	-1.4974342658	 1.4063309276	 0.115242
H	 1.758500986	 0.032602507	 1.425809549	 0.110165
H	-1.9510579404	-0.2316639829	 0.7596972213	 0.068668
H	-2.6765091954	 0.6484876772	-1.3193648871	 0.096859
H	-1.3341639028	-0.0904550816	-2.2121693061	 0.089847
H	-3.5453808188	-2.3108271284	-0.0194950297	 0.060297
H	-2.0707898421	-3.8780105685	-2.2034404277	 0.116384
H	-2.8066032084	-4.5687085383	-0.7379718676	 0.109921
H	-3.8288083769	-3.8238321733	-1.9812396136	 0.124098
H	-0.5780831915	-2.5383008513	-0.7004694285	 0.095268
H	-1.3290712627	-2.578396062	 0.9056577574	 0.100738
49.982	89.3579	106.7131	170.5105	225.9334	233.0407	242.279	302.1289	320.2002	344.7829	424.9379	449.4402	476.3135	564.6886	655.4872	831.3546	849.5511	896.0061	903.3271	915.6678	929.3022	964.741	980.8498	996.8914	1047.4993	1053.6949	1091.1027	1130.1717	1156.351	1161.4016	1188.9253	1200.349	1208.5266	1256.1358	1272.3304	1311.6623	1340.9169	1349.7814	1361.0272	1379.6891	1394.2118	1401.0187	1405.4396	1412.601	1422.5372	1483.8783	1487.31	1487.6235	1493.7863	1498.0185	1506.1917	1510.0582	1530.1272	2940.3854	2983.9775	2987.0889	3002.9161	3024.3527	3025.1364	3028.8828	3037.1498	3039.6488	3087.6233	3094.1707	3099.8671	3103.5918	3107.8118	3110.434	3115.7536
CC(C)C1COC(C)C1	CC(C)[C@H]1CO[C@@H](C)C1	
InChI=1S/C8H16O/c1-6(2)8-4-7(3)9-5-8/h6-8H,4-5H2,1-3H3	InChI=1S/C8H16O/c1-6(2)8-4-7(3)9-5-8/h6-8H,4-5H2,1-3H3/t7-,8+/m0/s1
