18
gdb 22147	2.15209	1.21803	0.97617	0.6466	75.88	-0.245	0.003	0.248	1278.352	0.143362	-438.994417	-438.983958	-438.983014	-439.03111	36.597	
C	 1.3590421615	-0.1630856374	 0.206082813	-0.47603
C	-0.1143810888	-0.4509345079	 0.1952616823	 0.358814
C	-0.8547348039	-0.5529860886	 1.5078118521	-0.161267
O	-0.3015592423	-1.4982514905	 2.4136356655	-0.226086
C	-0.5652453508	-2.8558670106	 2.096950227	-0.224531
C	 0.3445932433	-3.4402155386	 1.1083984946	 0.324217
C	 1.1011128465	-3.9450689872	 0.322605039	-0.4648
N	-0.8395810194	-0.5900908793	-0.8480034623	-0.163005
O	-0.1008742597	-0.4211840387	-2.0266606084	-0.394863
H	 1.7844553685	-0.4107122189	 1.1798897297	 0.138226
H	 1.8658840312	-0.7381076873	-0.5710714981	 0.150178
H	 1.5427646793	 0.8981970587	-0.0007355145	 0.136514
H	-0.7891672679	 0.4045857158	 2.0386436451	 0.116358
H	-1.9124326285	-0.7670915093	 1.3046758783	 0.110498
H	-0.4671474897	-3.4030203911	 3.0413480714	 0.140456
H	-1.6050677412	-2.975334496	 1.7558312829	 0.126502
H	 1.7616088045	-4.3847193026	-0.3833576324	 0.20273
H	-0.7620631327	-0.5913916505	-2.7058446452	 0.306089
42.4986	55.6246	83.9589	85.9772	170.5275	251.3587	293.4102	305.1522	328.9119	384.7311	414.6775	460.0387	539.8581	569.2882	614.5747	668.6695	677.8219	817.6849	905.874	947.3456	956.6491	989.1737	1028.0513	1048.1097	1095.6938	1119.0295	1264.3618	1278.0182	1320.9057	1377.8216	1391.6162	1398.2577	1411.1735	1467.995	1475.0238	1480.7477	1483.1514	1733.0706	2233.2464	2990.2436	3014.04	3039.7167	3062.126	3066.0257	3112.1014	3150.9035	3504.0598	3819.3323
CC(COCC#C)=NO	CC(=NO)COCC#C	
InChI=1S/C6H9NO2/c1-3-4-9-5-6(2)7-8/h1,8H,4-5H2,2H3	InChI=1S/C6H9NO2/c1-3-4-9-5-6(2)7-8/h1,8H,4-5H2,2H3
