23
gdb 101096	3.22299	1.04984	0.93544	1.2602	85.96	-0.2635	0.0785	0.342	1358.0901	0.205783	-388.241172	-388.231809	-388.230864	-388.275513	35.914	
C	-0.0035894628	 1.5465414437	 0.0302681769	-0.400878
C	-0.0214997139	 0.0140339255	-0.0537030501	-0.120517
C	-1.4515954751	-0.5271880722	 0.0098299071	-0.08055
O	-2.0176238915	-0.1455719308	 1.2566434675	-0.422763
C	 0.6948560005	-0.4938211955	-1.2879234774	 0.384686
C	 0.3327742927	-0.2429396332	-2.7921443305	-0.253285
C	 1.6115949614	-1.1238450796	-2.8131108379	-0.04839
C	 2.1778832623	-0.2112083436	-1.6910563813	-0.26535
C	 0.9619981687	-1.9816781421	-1.6939045216	-0.265857
H	 1.0205619355	 1.9286784551	 0.0747524975	 0.110884
H	-0.4895943124	 1.9908727276	-0.8463902448	 0.108537
H	-0.5390617745	 1.8829396071	 0.9204069745	 0.132287
H	 0.5047622038	-0.386661291	 0.8246308579	 0.080093
H	-2.0360980585	-0.1204416783	-0.8319472562	 0.084377
H	-1.4392165944	-1.6229477636	-0.0958711215	 0.086085
H	-2.9329317735	-0.4386495823	 1.2736472951	 0.28535
H	-0.5869328947	-0.7061754411	-3.1625028787	 0.084294
H	 0.4375609206	 0.7819439416	-3.1596462509	 0.088101
H	 2.1415238292	-1.4876588864	-3.693918162	 0.06886
H	 2.4243499569	 0.8167931208	-1.9718710516	 0.087857
H	 2.9485382596	-0.6439371215	-1.0456921708	 0.085464
H	 1.6412222823	-2.5480995941	-1.0493957924	 0.086261
H	 0.0922696181	-2.5809201061	-1.9795388388	 0.084455
56.6543	98.1523	151.9575	195.8118	239.6754	245.6865	289.908	356.3375	393.1619	458.5753	547.8983	551.2208	689.4628	796.5189	802.1032	863.656	888.2124	927.7895	937.2584	952.3374	959.4683	961.5424	996.5686	1033.6756	1067.0729	1083.864	1101.9781	1109.3512	1140.5384	1146.4226	1150.8104	1164.8584	1178.8204	1227.5517	1234.3863	1240.3721	1257.5025	1268.1435	1301.2147	1350.1653	1371.0731	1401.5956	1456.7531	1494.8239	1497.5954	1498.4292	1504.7272	1521.0206	1555.2934	2962.4028	2992.6784	3012.5577	3033.528	3038.3475	3039.0004	3047.0872	3098.2946	3101.0684	3105.6377	3106.377	3107.3954	3131.4096	3834.6643
CC(CO)C12CC(C1)C2	C[C@@H](CO)[C@@]12C[C@@H](C1)C2	
InChI=1S/C8H14O/c1-6(5-9)8-2-7(3-8)4-8/h6-7,9H,2-5H2,1H3	InChI=1S/C8H14O/c1-6(5-9)8-2-7(3-8)4-8/h6-7,9H,2-5H2,1H3/t6-,7-,8-/m0/s1
