16
gdb 98062	3.44968	1.06494	0.8275	2.8066	70.5	-0.2418	-0.0863	0.1555	1347.6079	0.123614	-471.248816	-471.239219	-471.238275	-471.284505	33.556	
C	 0.0842214297	 1.3456246015	 0.3807269333	-0.33677
N	-0.3257410964	 0.1147584111	-0.2618904584	-0.287119
C	-1.214537195	-0.7396969659	 0.2703580484	 0.32995
O	-1.781409388	-0.5871361616	 1.3478030019	-0.394676
C	-1.4472629606	-1.9620524099	-0.6693170224	 0.283617
O	-0.8186787503	-2.0208612054	-1.6970408279	-0.279731
C	-2.4716334277	-3.0327675215	-0.2947710505	 0.263442
N	-2.7943587968	-3.0997157927	 1.0356233366	-0.554976
N	-2.8704678592	-3.7719749662	-1.2592195674	-0.48312
H	 1.1619708207	 1.3459303342	 0.5745943228	 0.13941
H	-0.1596650074	 2.2125200779	-0.2422060904	 0.139648
H	-0.4502578085	 1.4234185898	 1.3281663758	 0.170667
H	 0.0513480495	-0.15821035	-1.1592569481	 0.274896
H	-2.6333963616	-2.2601858774	 1.5829032656	 0.283189
H	-3.5801309625	-3.6786239811	 1.2890489444	 0.244504
H	-3.5601604058	-4.453718683	-0.933228314	 0.207069
42.7969	62.0222	76.9953	145.3825	190.063	299.6519	334.4455	363.9576	394.2236	439.6017	481.109	564.4938	589.5571	624.9663	674.1858	684.6455	821.0842	841.6687	881.4611	972.7754	1115.8193	1141.0174	1151.8118	1154.2253	1184.7769	1258.0247	1413.9989	1443.9647	1493.1668	1496.9843	1573.2804	1619.2012	1698.0737	1763.3365	1808.292	3036.2513	3092.0451	3154.392	3440.8909	3482.2415	3597.5078	3655.7333
CNC(=O)C(=O)C(N)=N	CNC(=O)C(=O)C(=N)N	
InChI=1S/C4H7N3O2/c1-7-4(9)2(8)3(5)6/h1H3,(H3,5,6)(H,7,9)	InChI=1S/C4H7N3O2/c1-7-4(9)2(8)3(5)6/h1H3,(H3,5,6)(H,7,9)
