17
gdb 100228	2.0386	1.28545	1.1966	5.902	72.84	-0.2977	0.0001	0.2977	1177.4884	0.133091	-418.022034	-418.011933	-418.010989	-418.057303	35.094	
C	-0.1569279655	 1.3526610654	 0.0590100841	-0.262351
O	 0.0241962347	-0.0537392148	-0.0418201863	-0.253128
C	 0.6946350242	-0.5401372179	-1.1838923221	 0.196769
C	 2.1776580604	-0.1287385538	-1.2262719024	-0.428214
C	 0.5860154194	-2.0825408355	-1.077652535	-0.365179
C	-0.7915379505	-2.5630362556	-1.0100466791	 0.287109
N	-1.8716639232	-2.967791982	-0.9605155801	-0.297838
C	 0.0294905688	-0.0794508969	-2.431152303	 0.27385
N	-0.464667979	 0.305542907	-3.401772016	-0.328339
H	 0.7943669968	 1.8830117165	 0.1911205075	 0.119081
H	-0.6775208276	 1.7553929791	-0.8182701757	 0.144928
H	-0.7745260965	 1.5093996547	 0.9445634984	 0.149369
H	 2.6592017484	-0.4355317134	-0.2938845994	 0.139268
H	 2.6863142631	-0.6043005113	-2.068684522	 0.143586
H	 2.2816319507	 0.951668424	-1.3399744773	 0.147533
H	 1.0903557175	-2.5481540409	-1.9293324767	 0.166482
H	 1.1121302482	-2.3839664546	-0.166415775	 0.167074
69.9714	83.2613	116.6805	164.3222	191.147	201.6411	248.9667	283.872	329.7515	388.8581	399.4421	422.8812	487.0037	593.8303	649.8215	708.47	840.4779	907.0417	967.5761	983.7004	1079.61	1123.0159	1152.1836	1182.6788	1200.186	1232.2811	1287.2059	1343.0261	1406.592	1449.8026	1476.3399	1482.1943	1489.1671	1504.8238	1507.3701	2354.7344	2373.2734	3014.397	3053.5407	3062.9674	3078.2837	3110.6692	3133.5152	3140.2487	3143.4007
COC(C)(CC#N)C#N	CO[C@@](C)(CC#N)C#N	
InChI=1S/C6H8N2O/c1-6(5-8,9-2)3-4-7/h3H2,1-2H3	InChI=1S/C6H8N2O/c1-6(5-8,9-2)3-4-7/h3H2,1-2H3/t6-/m0/s1
