18
gdb 37185	3.7943	1.66906	1.51329	2.491	74.15	-0.2264	0.0599	0.2863	908.9141	0.150664	-401.825079	-401.819017	-401.818073	-401.855025	26.905	
C	 0.0186343039	 1.5176824237	 0.1910765068	-0.164317
O	 1.434578717	 1.5310558846	-0.2159327533	-0.358016
C	 1.2273130581	 0.2327386521	-0.7761986366	 0.464131
C	 0.3956890992	 0.1535017687	-2.1019006872	-0.292346
C	-0.3658780698	-0.9068394029	-1.2793208238	-0.102118
C	 0.7784271028	-1.9618222706	-1.0426984704	-0.026363
N	 1.9459026078	-1.8830904432	-1.9599277712	-0.337075
C	 1.9613366744	-1.1101059237	-0.7025621088	-0.146726
C	-0.0670997022	-0.0336223686	-0.0015702397	-0.062456
H	-0.0823104036	 1.8426081773	 1.2294192638	 0.11476
H	-0.591062767	 2.154098162	-0.4562179869	 0.11503
H	-0.1824905556	 1.0607576653	-2.2643081851	 0.09975
H	 0.8954792888	-0.1648514157	-3.0116542943	 0.130532
H	-1.3438762075	-1.298613165	-1.5587026682	 0.066634
H	 0.5651819561	-2.8938303633	-0.5313916092	 0.093899
H	 2.5082356749	-2.7239017371	-1.8425762676	 0.232076
H	 2.6492469055	-1.3422498065	 0.1016180304	 0.099027
H	-0.003888923	-0.567014797	 0.9496204514	 0.073579
291.2821	312.5574	357.3603	450.8785	508.8868	535.8054	573.0486	649.29	746.5472	754.5023	802.0401	825.9485	856.4864	867.4849	903.5258	914.3612	934.2175	957.4075	974.7442	1020.574	1041.9752	1065.906	1074.9157	1083.319	1111.1027	1135.4268	1160.3002	1172.1891	1198.708	1202.6137	1234.7745	1244.1763	1279.5984	1313.638	1327.6944	1345.9953	1384.7662	1492.2402	1516.0001	3051.4663	3077.1686	3107.2216	3111.3955	3124.3509	3172.5253	3188.4776	3189.3305	3489.7027
C1OC23CC(C4NC24)C13	C1O[C@@]23C[C@@H]([C@H]4N[C@@H]24)[C@H]13	
InChI=1S/C7H9NO/c1-3-4-2-9-7(1,4)6-5(3)8-6/h3-6,8H,1-2H2	InChI=1S/C7H9NO/c1-3-4-2-9-7(1,4)6-5(3)8-6/h3-6,8H,1-2H2/t3-,4+,5-,6-,7-/m1/s1
