21
gdb 82868	2.48706	1.89873	1.41761	1.3009	81.81	-0.2484	0.0767	0.325	1004.1715	0.184215	-387.060194	-387.052515	-387.051571	-387.091592	32.101	
C	 0.2314909901	 1.5863353994	-0.1477422138	-0.514072
C	 0.082554159	 0.0870704497	-0.0934826686	 0.379247
C	 0.3338869667	-0.8208671732	-1.3112676128	-0.282296
C	-0.4067860954	-1.8881809898	-0.470646319	-0.053961
C	 0.626824298	-2.1354759333	 0.6559747914	-0.22128
C	 0.5354829866	-0.7070140128	 1.2266113539	-0.103076
C	-0.9386761925	-0.6961350409	 1.700291787	 0.140803
O	-1.2727200659	 0.5178287933	 2.3475969464	-0.446346
C	-1.2438644501	-0.7127373937	 0.1933822588	-0.117542
H	 1.2851656345	 1.8646679779	-0.2764609865	 0.108797
H	-0.3225966265	 2.0058328968	-0.9958305831	 0.104379
H	-0.1351699942	 2.0520871115	 0.7690350445	 0.136914
H	-0.2531024191	-0.4737459882	-2.1681712443	 0.089329
H	 1.3588303065	-1.0397963802	-1.6325514699	 0.082782
H	-0.8872470636	-2.7517922792	-0.9295993871	 0.058959
H	 0.3326540774	-2.8975300103	 1.3841295744	 0.091304
H	 1.6113058781	-2.3995123264	 0.259758581	 0.092675
H	 1.3286445615	-0.3391970412	 1.8772724625	 0.064252
H	-1.2600526072	-1.5571742389	 2.3056736837	 0.053346
H	-2.2296993158	 0.6172658869	 2.3152759401	 0.28058
H	-2.2142288481	-0.4570599574	-0.2361821487	 0.055206
208.1052	219.6847	231.6615	275.6823	318.9848	335.541	411.6487	476.8327	484.6805	601.0435	658.2595	735.5076	833.4277	849.869	857.721	882.8024	901.7015	931.4331	935.8362	977.6159	984.8905	993.9806	1028.3678	1053.3713	1080.6756	1107.551	1124.4747	1148.8096	1174.9757	1186.3357	1199.1993	1212.7726	1229.9283	1247.3306	1262.6766	1297.4794	1304.4158	1326.7322	1345.7334	1402.7617	1420.0764	1489.6426	1491.4992	1502.5476	1516.719	2978.2891	3019.7613	3027.2012	3049.8533	3073.2288	3083.1068	3093.9331	3096.7028	3116.9374	3119.9638	3130.9478	3809.9108
CC12CC3CC1C(O)C23	C[C@@]12C[C@H]3C[C@@H]1[C@@H](O)[C@@H]23	
InChI=1S/C8H12O/c1-8-3-4-2-5(8)7(9)6(4)8/h4-7,9H,2-3H2,1H3	InChI=1S/C8H12O/c1-8-3-4-2-5(8)7(9)6(4)8/h4-7,9H,2-3H2,1H3/t4-,5-,6+,7-,8-/m1/s1
