17
gdb 126781	2.65549	1.34653	0.95241	4.0591	71.02	-0.208	0.0325	0.2406	1224.5532	0.137599	-451.36331	-451.354442	-451.353497	-451.397267	32.515	
C	 0.0244243366	 1.5580331828	 0.1475403789	-0.375597
C	-0.0512734323	 0.040959823	-0.0364652915	-0.153126
N	-1.4109323926	-0.4578269921	-0.0529580307	-0.00185
N	-2.125614046	-0.5677406238	 1.1273726776	-0.343014
C	-3.2623164094	-1.0632884333	 0.6910440615	 0.427233
O	-4.2699886875	-1.3449836402	 1.5304356721	-0.413322
N	-3.3670571605	-1.2679666381	-0.6511022642	-0.426333
C	-2.1772451263	-0.8678200758	-1.0814721569	 0.40514
N	-1.7403865665	-0.9354808733	-2.3933227835	-0.602302
H	 1.0682277799	 1.8821746561	 0.1987733165	 0.121016
H	-0.4589717134	 2.0843187974	-0.6818350147	 0.114313
H	-0.477507999	 1.8462290554	 1.0741841869	 0.154773
H	 0.4229799596	-0.2737152475	-0.9713373942	 0.120992
H	 0.4698410735	-0.4660172353	 0.7809612882	 0.139184
H	-4.9872257892	-1.6905658724	 0.986269567	 0.307019
H	-2.504227199	-1.1735574733	-3.0114726086	 0.267831
H	-1.2501048578	-0.1148260796	-2.7220396548	 0.258041
52.3924	95.1775	201.7105	234.4582	257.2381	303.0662	308.6937	352.3508	397.4213	441.4767	560.8372	638.2291	647.6069	678.5647	748.0622	776.4434	793.0692	845.0325	975.3996	1051.4803	1082.9293	1102.7539	1125.5008	1218.3651	1225.9567	1312.2504	1340.7725	1392.2584	1409.0168	1449.8217	1482.4053	1488.4463	1507.187	1530.5527	1585.3656	1654.0396	1660.9815	3041.6941	3056.5374	3096.1196	3114.837	3135.3629	3556.2841	3651.969	3818.8097
CCN1N=C(O)N=C1N	CCn1nc(O)nc1N	
InChI=1S/C4H8N4O/c1-2-8-3(5)6-4(9)7-8/h2H2,1H3,(H3,5,6,7,9)	InChI=1S/C4H8N4O/c1-2-8-3(5)6-4(9)7-8/h2H2,1H3,(H3,5,6,7,9)
