22
gdb 57556	3.85903	0.62945	0.6143	5.0639	83.43	-0.2747	0.0367	0.3113	1879.6813	0.191305	-404.37862	-404.367627	-404.366683	-404.415169	39.853	
C	-0.0483844445	 1.5483063677	-0.0515137903	-0.421057
C	 0.0085228372	 0.0172087544	 0.0377652306	 0.336871
C	 0.6313540003	-0.4156429438	 1.3683286798	-0.393262
O	-1.3222097877	-0.5156029801	 0.0576687574	-0.453082
C	 0.7811182523	-0.5467958426	-1.1777427636	-0.210413
C	 0.8325956728	-2.075830313	-1.2453312274	-0.185121
C	 1.411880411	-2.5660854699	-2.5874494578	-0.344816
C	 1.4871306737	-4.023219731	-2.6714555539	 0.257319
N	 1.5415929792	-5.1764361404	-2.7223625283	-0.305424
H	 0.9522351591	 1.9902096642	-0.0084856124	 0.11742
H	-0.5107697645	 1.8676615959	-0.9935777668	 0.10281
H	-0.6410187257	 1.9515054201	 0.7743574294	 0.125098
H	 0.0896571791	 0.0426348623	 2.2001125964	 0.123203
H	 0.5758923888	-1.4996419403	 1.4926516932	 0.129124
H	 1.6801215277	-0.1094067143	 1.4259750833	 0.11139
H	-1.800905113	-0.1464387666	-0.6925651801	 0.275763
H	 0.2962115749	-0.1643400864	-2.0883170836	 0.08246
H	 1.7983642107	-0.1338820004	-1.1805788422	 0.098262
H	 1.443746339	-2.4783327686	-0.4317510846	 0.121633
H	-0.1759081847	-2.477085733	-1.1120739534	 0.134262
H	 0.7992166048	-2.2031913055	-3.4213913853	 0.148279
H	 2.4188026195	-2.1597004788	-2.7415179707	 0.14928
50.7884	72.424	93.4405	141.4362	212.996	220.6212	252.7637	280.9891	308.4303	342.9175	352.2008	399.6472	413.2891	459.2601	517.0768	575.7806	743.3739	766.2796	836.2531	903.1798	931.4906	953.0219	958.8208	996.756	1030.8439	1051.7222	1074.839	1133.1116	1160.4877	1219.7488	1239.4255	1269.4801	1295.3887	1324.5807	1353.6068	1374.9394	1396.2468	1403.3605	1421.965	1467.9242	1471.2639	1484.2574	1490.3676	1497.1061	1507.8454	1511.4806	2362.2975	2997.035	3025.4415	3034.4653	3042.4931	3047.8181	3060.8492	3069.1955	3092.7248	3110.8621	3115.2529	3121.811	3128.393	3801.3511
CC(C)(O)CCCC#N	CC(C)(O)CCCC#N	
InChI=1S/C7H13NO/c1-7(2,9)5-3-4-6-8/h9H,3-5H2,1-2H3	InChI=1S/C7H13NO/c1-7(2,9)5-3-4-6-8/h9H,3-5H2,1-2H3
