21
gdb 41938	3.17527	1.46482	1.06535	1.0862	83.61	-0.2379	0.0214	0.2592	1158.1721	0.185957	-387.107197	-387.099593	-387.098649	-387.13928	30.558	
C	 0.0022889587	 1.5725817001	-0.1020322058	-0.2086
C	 1.5017615769	 2.0025248285	-0.0162916991	-0.263442
C	 2.174295084	 0.7693546356	 0.5753977097	 0.166186
O	 3.5659839225	 0.6755339836	 0.3656472447	-0.275445
C	 4.0980520084	-0.4792061431	 1.0030009787	-0.130164
C	 3.210984562	-1.7013104504	 0.9486806167	-0.068953
C	 1.9713902027	-1.6854664706	 0.4568091486	-0.120846
C	 1.4272419255	-0.3939429671	-0.0803088424	 0.004081
C	-0.0341546111	 0.0245371736	 0.128710341	-0.247414
H	-0.6041738164	 2.091356218	 0.6448742149	 0.102623
H	-0.416748783	 1.8329818954	-1.0775268282	 0.104485
H	 1.9183223398	 2.1938907163	-1.010710629	 0.107668
H	 1.6527796158	 2.903898254	 0.5824546386	 0.097954
H	 1.9660567994	 0.7315809125	 1.6607297995	 0.059337
H	 5.056286711	-0.685982748	 0.5103714092	 0.11636
H	 4.3321082259	-0.2540753143	 2.0603965228	 0.097813
H	 3.6481305528	-2.6116980477	 1.3519348698	 0.090557
H	 1.369431715	-2.5900585402	 0.4216029608	 0.085331
H	 1.6378314127	-0.3420811972	-1.160551815	 0.086513
H	-0.3520829406	-0.2054218379	 1.1520660342	 0.100123
H	-0.728964532	-0.4828526412	-0.5457006497	 0.095834
97.4364	145.966	200.8572	288.5096	358.9713	428.9749	467.2282	529.9794	553.5227	614.8652	695.3649	766.4305	817.6107	827.1523	890.4268	897.4993	954.6268	964.9072	986.8715	993.2321	1022.8995	1041.8798	1093.7971	1104.678	1127.9616	1152.1578	1177.7058	1193.5465	1209.1457	1260.2162	1266.3412	1269.9801	1297.9913	1312.8979	1326.8033	1335.7338	1384.716	1387.1793	1408.6681	1426.549	1488.1763	1490.635	1499.8273	1516.4249	1705.7982	2927.4569	2932.3535	2976.4025	3040.3838	3042.3213	3051.9846	3064.1427	3083.9564	3097.0804	3112.3578	3146.0017	3168.9315
C1CC2OCC=CC2C1	C1C[C@@H]2OCC=C[C@H]2C1	
InChI=1S/C8H12O/c1-3-7-4-2-6-9-8(7)5-1/h2,4,7-8H,1,3,5-6H2	InChI=1S/C8H12O/c1-3-7-4-2-6-9-8(7)5-1/h2,4,7-8H,1,3,5-6H2/t7-,8+/m1/s1
