16
gdb 111937	4.04346	1.29688	1.18132	4.0011	69.8	-0.2275	-0.0657	0.1618	1041.5574	0.123133	-437.737487	-437.730234	-437.72929	-437.769251	28.656	
O	 0.0410990824	 1.4233623989	-0.1262322212	-0.417437
C	 0.0641416808	 0.0245707537	 0.0184597744	-0.043974
C	-1.3508109839	-0.546519346	 0.1098943668	 0.001604
N	-1.986966813	-0.1880490097	-1.2245753014	-0.261579
C	-2.5090037192	-1.2978003242	-1.5343133632	 0.27637
O	-1.9328787121	-2.1621232328	-2.4766301108	-0.262046
C	-1.6539570164	-2.9448897314	-1.2292367233	 0.071366
C	-1.44717035	-2.0959008001	 0.1311428084	-0.114689
C	-2.775989099	-2.4106932489	-0.4688459518	-0.208258
H	-0.5123185069	 1.5877742996	-0.9014578717	 0.296295
H	 0.5937985353	-0.4712875648	-0.8090447243	 0.096671
H	 0.5988349208	-0.1987318173	 0.9502898082	 0.103947
H	-1.8646291886	-0.1085026448	 0.9776733559	 0.095753
H	-1.2686311369	-3.9433020485	-1.3943285377	 0.136834
H	-1.0448032858	-2.6661460876	 0.9656938376	 0.104132
H	-3.7014395874	-2.8211403061	-0.0901279059	 0.125011
98.7084	143.5335	204.4818	365.5777	402.9584	485.7202	496.8674	544.3098	607.077	649.8718	706.7339	746.3461	788.4752	819.8488	837.503	869.5435	953.9195	976.4181	999.2198	1023.9971	1030.3415	1084.3364	1089.8648	1099.7896	1141.603	1184.8125	1202.2867	1249.0788	1270.6566	1299.501	1352.9016	1388.8268	1430.6074	1493.7009	1628.9243	2989.0974	3005.1839	3056.3547	3146.2644	3201.7088	3215.7827	3766.4564
OCC1N=C2OC3C1C23	OC[C@H]1[N][C]2O[C@H]3[C@@H]1[C@@H]23	
InChI=1S/C6H7NO2/c8-1-2-3-4-5(3)9-6(4)7-2/h2-5,8H,1H2	InChI=1S/C6H7NO2/c8-1-2-3-4-5(3)9-6(4)7-2/h2-5,8H,1H2/t2-,3+,4-,5+/m1/s1
