15
gdb 21962	6.96073	1.10359	1.01942	2.3734	62.32	-0.2621	0.006	0.2681	1108.5653	0.121178	-395.994886	-395.987453	-395.986509	-396.027607	25.88	
O	 0.1052550681	 1.3898131902	 0.1414178189	-0.405145
C	 0.0717890616	-0.023178699	 0.1825032298	-0.071317
C	-1.3491469134	-0.5481406835	-0.0750342843	-0.181537
N	-1.4126960187	-1.9955273519	-0.0244926403	 0.056411
C	-1.9556148007	-2.8060269871	 0.9077418591	 0.015885
N	-1.7592757538	-4.0736677574	 0.5942562847	-0.275519
C	-1.0666081423	-3.9804648732	-0.5727056761	 0.04053
N	-0.8289388344	-2.7473188702	-0.9917512107	-0.255807
H	 0.0686455065	 1.6654414591	-0.779863396	 0.291324
H	 0.7634076938	-0.4835875494	-0.5344494818	 0.125857
H	 0.3914980584	-0.3158341187	 1.1879136684	 0.123157
H	-2.0344171445	-0.1496581472	 0.6772870153	 0.134646
H	-1.6966471067	-0.2219292959	-1.0607273693	 0.128126
H	-2.4783839801	-2.4310002487	 1.7750959256	 0.144714
H	-0.7317756238	-4.8418201869	-1.1312679032	 0.128675
61.4916	93.316	113.7404	289.4348	318.5587	360.5776	378.7016	666.2948	696.5312	777.902	788.5431	855.5102	909.0743	973.8558	1025.4731	1034.5198	1060.4013	1089.4701	1155.2245	1170.5751	1236.4095	1286.4304	1309.9713	1341.6149	1344.7443	1386.3131	1400.906	1418.7069	1474.792	1482.7971	1511.8867	1549.2056	3028.6504	3056.0207	3084.8	3120.3962	3254.8855	3260.605	3822.5984
OCCN1C=NC=N1	OCCn1cncn1	
InChI=1S/C4H7N3O/c8-2-1-7-4-5-3-6-7/h3-4,8H,1-2H2	InChI=1S/C4H7N3O/c8-2-1-7-4-5-3-6-7/h3-4,8H,1-2H2
