18
gdb 88271	3.23323	1.04753	0.92528	1.1848	76.28	-0.2295	-0.0882	0.1414	1325.4725	0.144532	-439.082416	-439.072677	-439.071733	-439.118018	34.261	
C	-0.702757133	 1.0183967764	 0.3766843072	-0.328468
N	 0.1326455644	-0.1273288854	 0.0267042718	-0.077745
C	 1.3454922062	 0.105178232	-0.7075169552	-0.234393
C	 1.4213050663	-0.3599840389	 0.7239020058	-0.110785
C	 1.9434921667	 0.5932362887	 1.7366470166	 0.266551
O	 1.8900909113	 1.8053079235	 1.650974071	-0.315737
C	 2.5994535074	-0.0428042966	 2.9894911745	 0.308406
C	 3.1117636189	 0.9297111202	 4.0224596835	-0.473983
O	 2.6867591505	-1.2447028817	 3.0887473466	-0.271783
H	-0.1452600803	 1.9344589788	 0.6027764214	 0.144035
H	-1.3702703043	 1.2056330422	-0.4700083885	 0.128153
H	-1.3182493207	 0.7548560794	 1.2421651739	 0.125246
H	 1.5832706699	-0.6094426974	-1.491448014	 0.126814
H	 1.651219845	 1.1344189309	-0.8900925265	 0.132162
H	 1.6191028095	-1.4023056754	 0.9410584332	 0.126536
H	 2.2959306551	 1.5706579428	 4.3713252527	 0.156173
H	 3.5504999991	 0.3815195029	 4.8561256436	 0.141482
H	 3.851230298	 1.5996058175	 3.5726355725	 0.157337
43.3066	55.7843	113.2965	174.7655	186.2308	243.182	268.9474	329.7039	375.5742	387.0122	453.7916	522.0781	592.3693	708.3194	740.5645	799.8412	850.5648	923.1783	1003.1022	1013.986	1037.1654	1062.6071	1095.9655	1126.8808	1145.8321	1166.6946	1215.957	1243.8486	1324.0605	1382.2974	1405.5525	1443.9944	1452.2003	1460.1769	1486.1971	1493.958	1509.6707	1763.8008	1805.1898	3025.3504	3051.1	3092.712	3097.3216	3108.7061	3112.3847	3163.5996	3184.63	3198.5762
CN1CC1C(=O)C(C)=O	CN1C[C@H]1C(=O)C(=O)C	
InChI=1S/C6H9NO2/c1-4(8)6(9)5-3-7(5)2/h5H,3H2,1-2H3	InChI=1S/C6H9NO2/c1-4(8)6(9)5-3-7(5)2/h5H,3H2,1-2H3/t5-,7?/m0/s1
