18
gdb 19729	3.91697	2.51217	2.2481	0.1837	74.74	-0.2278	0.0201	0.2479	710.0865	0.158467	-310.659307	-310.65397	-310.653026	-310.688228	23.917	
C	-0.0349632338	 1.5722838943	 0.0616512278	-0.236629
C	 1.5088750047	 1.4266258692	 0.0051667503	-0.038254
C	 1.7785420136	 0.8055781768	 1.3819185832	-0.20623
C	 0.8622117598	-0.4721705534	 1.2144009407	-0.068132
C	 1.7647203454	-1.5111410115	 0.5754027294	-0.083194
C	 2.0486638367	-1.1005943158	-0.6668241282	-0.099216
C	 1.2478113714	 0.1396462485	-0.929121161	-0.039042
C	 0.0053593052	 0.0307702941	 0.0032351231	-0.013314
H	-0.4702882872	 2.0634479023	 0.9370809093	 0.084714
H	-0.4583549656	 1.9969064721	-0.8525928519	 0.09286
H	 2.1576334905	 2.2362160182	-0.3275429312	 0.060387
H	 2.8207387974	 0.5382085545	 1.5681376706	 0.092346
H	 1.4371392711	 1.4657566308	 2.1852935374	 0.092104
H	 0.3254667913	-0.7767067612	 2.1128900044	 0.057511
H	 2.2094984399	-2.343501266	 1.1078393582	 0.090568
H	 2.7542331757	-1.5459244857	-1.3573385604	 0.091558
H	 1.0529654097	 0.4158621011	-1.9656984516	 0.062474
H	-0.8543973957	-0.5826659583	-0.2720532102	 0.059487
344.1999	381.5921	454.341	509.0788	614.4462	717.5264	731.4575	774.8352	810.6541	822.1747	853.6183	869.2046	889.6194	933.6444	936.8785	952.4412	963.8425	981.6845	1010.4378	1023.5153	1062.6109	1074.0185	1093.3432	1121.1708	1153.8219	1173.2911	1193.9273	1225.4649	1242.7406	1263.7252	1280.3518	1297.6161	1313.2667	1324.2388	1360.0468	1490.5119	1512.6904	1637.5118	3047.7274	3053.5905	3096.9169	3103.6239	3106.4205	3109.3166	3113.6419	3122.7122	3191.5948	3217.7239
C1C2CC3C=CC2C13	C1[C@H]2C[C@@H]3C=C[C@H]2[C@H]13	
InChI=1S/C8H10/c1-2-7-6-3-5(1)8(7)4-6/h1-2,5-8H,3-4H2	InChI=1S/C8H10/c1-2-7-6-3-5(1)8(7)4-6/h1-2,5-8H,3-4H2/t5-,6+,7+,8+/m0/s1
