19
gdb 72362	2.33052	1.67375	1.46416	2.5763	80.02	-0.2353	-0.0173	0.218	1017.7858	0.159385	-385.918128	-385.910064	-385.90912	-385.950638	31.483	
C	 0.2359415467	 1.5278566399	-0.0995020881	-0.473348
C	-0.0447004602	 0.0403319032	 0.0895055449	 0.21487
C	-1.5447350425	-0.3415725662	 0.1017545144	-0.323831
C	-1.6305598028	-1.3901132286	 1.1861808844	-0.061691
C	-0.482152662	-1.5608229298	 1.8423683365	-0.078476
C	 0.6259851886	-0.6913896573	 1.3153263871	-0.11499
C	 1.6365658541	-1.4141561526	 0.3633510664	-0.359905
C	 0.8244566843	-0.8609308835	-0.8187735351	 0.377606
O	 0.8244694461	-1.0671184497	-1.9981821525	-0.305838
H	 1.3081068129	 1.7479039404	-0.0573947549	 0.116662
H	-0.1353920512	 1.8686333524	-1.071385269	 0.134864
H	-0.2596915645	 2.1148324425	 0.6812909249	 0.120985
H	-2.1803551193	 0.525779157	 0.3287614578	 0.105025
H	-1.8719917416	-0.7149912459	-0.8761093387	 0.125707
H	-2.5506516319	-1.9249002047	 1.397079455	 0.09694
H	-0.3315011578	-2.2594282772	 2.6588855713	 0.095553
H	 1.0929659714	-0.0625394831	 2.0785356212	 0.075043
H	 2.650951383	-1.001197426	 0.3896097001	 0.127433
H	 1.7016564168	-2.5034575506	 0.4277568643	 0.127391
69.1389	174.4974	219.4152	236.2305	275.9587	301.7171	438.2617	485.5648	516.9834	585.9593	654.3543	721.0642	758.4757	770.3543	806.7581	884.6927	928.6662	951.8955	973.3372	980.6352	985.5279	1023.0099	1057.1288	1100.5871	1107.0345	1134.0246	1161.9568	1178.2704	1206.0114	1235.2089	1265.1898	1296.2168	1334.5498	1371.1999	1406.8275	1436.1692	1484.4204	1492.8362	1495.4234	1681.271	1883.7717	3008.0465	3027.3114	3049.236	3052.914	3067.0933	3095.2311	3103.2124	3109.6671	3176.7029	3201.7452
CC12CC=CC1CC2=O	C[C@]12CC=C[C@H]1CC2=O	
InChI=1S/C8H10O/c1-8-4-2-3-6(8)5-7(8)9/h2-3,6H,4-5H2,1H3	InChI=1S/C8H10O/c1-8-4-2-3-6(8)5-7(8)9/h2-3,6H,4-5H2,1H3/t6-,8-/m0/s1
