22
gdb 82817	2.22397	1.97222	1.46269	1.6977	84.37	-0.2173	0.08	0.2973	1032.4797	0.195564	-367.172824	-367.16471	-367.163765	-367.204766	33.006	
C	-0.2441191414	 1.5684381345	-0.0385261306	-0.4279
C	 0.050027586	 0.0764905304	 0.009259604	-0.011165
C	 1.1423123898	-0.5643215261	-0.8750318934	-0.017272
C	 2.5187149894	 0.129386594	-0.8616646468	-0.244442
C	 2.7595407138	-0.543588555	 0.5010779535	 0.018439
C	 2.0454555671	 0.1355905502	 1.6815829194	-0.300958
C	 0.7511641764	-0.5819064445	 1.2286647646	 0.352791
C	-0.1106378313	-1.2263977635	 2.2873180304	-0.487433
N	 1.566357507	-1.4865412482	 0.2792555711	-0.196269
H	 0.65364563	 2.1739627319	 0.1187965963	 0.117029
H	-0.6667508093	 1.8524626999	-1.0087000978	 0.117589
H	-0.9711763695	 1.8498821764	 0.7314136498	 0.117523
H	-0.8814231395	-0.4757046499	-0.1644754374	 0.076205
H	 0.8199356557	-1.0204971342	-1.8140164667	 0.066726
H	 3.1729256258	-0.2837707023	-1.6338229379	 0.107721
H	 2.561207424	 1.2213757482	-0.9168176288	 0.095008
H	 3.7412924374	-0.9848291983	 0.6861611755	 0.068772
H	 2.3909681546	-0.2537384496	 2.6434620968	 0.10265
H	 2.0516450286	 1.2286571989	 1.7287244415	 0.095404
H	-0.6247581355	-0.4634170311	 2.8853784438	 0.112687
H	-0.8689670452	-1.8741468644	 1.8355392604	 0.118533
H	 0.493658016	-1.837320307	 2.9658755223	 0.118363
173.784	185.221	202.5586	241.2678	247.3603	304.7629	393.0046	430.3393	535.4357	572.346	625.3364	714.3104	751.5123	822.6937	856.0002	883.4273	902.4728	914.9617	920.2245	949.6294	970.5804	997.5856	1029.7694	1055.1936	1073.0248	1115.2612	1121.4198	1140.6509	1157.2216	1198.8162	1224.1072	1239.3682	1250.883	1272.4897	1288.7981	1314.3265	1337.3372	1365.048	1383.6751	1404.8562	1411.9934	1475.869	1480.6196	1485.8143	1492.9275	1502.2757	1505.3611	3020.91	3027.7613	3032.6332	3047.7772	3049.8076	3071.7989	3077.0148	3088.5249	3091.5979	3097.0647	3102.6754	3103.9208	3109.1689
CC1C2CC3CC1(C)N23	C[C@H]1[C@H]2C[C@H]3C[C@]1(C)N23	
InChI=1S/C8H13N/c1-5-7-3-6-4-8(5,2)9(6)7/h5-7H,3-4H2,1-2H3	InChI=1S/C8H13N/c1-5-7-3-6-4-8(5,2)9(6)7/h5-7H,3-4H2,1-2H3/t5-,6-,7+,8-/m0/s1
