19
gdb 117564	2.68576	1.0086	0.81134	3.2164	76.7	-0.251	0.0263	0.2774	1462.4436	0.158338	-419.184309	-419.174528	-419.173584	-419.219884	34.353	
C	-0.0508849464	 1.5501954053	-0.2774914883	-0.39038
C	-0.1533445434	 0.0332320807	-0.1585372399	-0.121234
N	 0.8390967584	-0.6149028771	-1.0188782317	-0.281618
C	 0.8368111689	-2.0692517529	-0.9900865779	-0.144703
C	-0.4512349844	-2.6691806508	-1.4195143362	 0.28598
N	-1.4779692347	-3.0911664379	-1.7425033378	-0.342973
C	 2.0003519713	-2.5719506828	-1.8322110521	 0.073009
C	 1.9434084748	-3.7636713431	-2.683787359	-0.187473
O	 1.8459210321	-2.4470945234	-3.2419390584	-0.231114
H	 0.9564163811	 1.8928158202	-0.0246783137	 0.128903
H	-0.2760634573	 1.8806724073	-1.2977814894	 0.120943
H	-0.7653912937	 2.0364274783	 0.3925651258	 0.122975
H	 0.0546320892	-0.2746783047	 0.8744229804	 0.105827
H	-1.1826540847	-0.2919123335	-0.3840894091	 0.109787
H	 0.7250916377	-0.3087612071	-1.9814570658	 0.238154
H	 1.007145884	-2.3871978927	 0.0478305204	 0.130897
H	 2.9622233627	-2.2342119839	-1.4478367461	 0.114843
H	 2.8661868964	-4.2954493194	-2.9080212435	 0.124124
H	 1.0314030881	-4.3539025425	-2.7316255476	 0.144057
59.5198	78.9559	106.5715	134.2176	162.0258	222.2224	262.4089	296.2578	344.8869	405.4313	452.884	624.4959	652.4636	768.0754	795.4597	819.8677	889.9535	894.5142	941.3957	961.7954	1047.7189	1090.5016	1095.2064	1131.5165	1153.5397	1168.9173	1174.8311	1194.5707	1279.5049	1290.4904	1321.2787	1339.8737	1396.9421	1416.3055	1424.264	1483.2839	1498.0226	1505.6753	1523.9712	1527.6407	2345.1027	2968.6338	3024.2312	3034.5387	3039.4663	3098.2267	3105.3472	3123.2308	3123.9441	3192.4803	3509.8059
CCNC(C#N)C1CO1	CCN[C@@H](C#N)[C@H]1CO1	
InChI=1S/C6H10N2O/c1-2-8-5(3-7)6-4-9-6/h5-6,8H,2,4H2,1H3	InChI=1S/C6H10N2O/c1-2-8-5(3-7)6-4-9-6/h5-6,8H,2,4H2,1H3/t5-,6+/m0/s1
