16
gdb 17022	4.08649	1.6618	1.37849	4.3394	70.11	-0.2516	0.005	0.2566	914.4606	0.131612	-342.714952	-342.707897	-342.706953	-342.746131	26.831	
C	-0.0852566706	 1.6471066837	 0.0538776632	-0.450133
C	 0.0254979561	 0.1392748006	-0.0321655246	 0.081459
C	 0.7982994877	-0.6125033309	-1.1501205944	-0.081848
C	 2.0760781691	-0.1559013394	-0.4188545177	-0.183884
N	 1.168185721	-0.567667647	 0.7608960569	-0.156903
C	 0.8498116335	-1.7889371009	-0.1381376231	-0.103363
C	-0.3502459911	-2.5508500906	 0.1810438127	 0.286576
N	-1.2856283788	-3.1905114878	 0.4101482626	-0.330458
H	 0.8064478207	 2.1869064683	-0.2703336166	 0.124517
H	-0.9218906491	 1.9831707656	-0.5675275098	 0.131409
H	-0.3015780223	 1.9395044121	 1.0863628913	 0.14269
H	-0.9408217043	-0.3026007229	 0.2272938723	 0.106761
H	 0.5905934821	-0.6688946299	-2.2234015981	 0.08419
H	 2.9704429414	-0.7771472958	-0.512358523	 0.110784
H	 2.3386163696	 0.8995756908	-0.4253092224	 0.116332
H	 1.7000528851	-2.4702758959	-0.2223604393	 0.12187
146.2997	153.5806	180.7509	286.544	345.8643	470.8792	519.492	537.1714	625.6636	741.1954	773.6789	791.3352	846.5594	898.2701	912.1376	1021.0033	1032.6968	1044.6828	1077.6549	1118.1634	1141.3042	1146.1545	1167.733	1192.1362	1222.9459	1247.0847	1274.4212	1383.5407	1410.7268	1442.1642	1492.7111	1495.1782	1547.5747	2353.0987	3044.4849	3054.5879	3068.1489	3077.1221	3088.1029	3106.6446	3127.5818	3163.8179
CC1C2CN1C2C#N	C[C@H]1[C@H]2CN1[C@H]2C#N	
InChI=1S/C6H8N2/c1-4-5-3-8(4)6(5)2-7/h4-6H,3H2,1H3	InChI=1S/C6H8N2/c1-4-5-3-8(4)6(5)2-7/h4-6H,3H2,1H3/t4-,5+,6-/m0/s1
