17
gdb 82157	3.3999	1.08078	0.9361	3.3739	68.26	-0.2443	-0.0195	0.2248	1234.3947	0.134266	-458.9233	-458.914873	-458.913929	-458.957221	30.835	
O	 0.1394039448	 1.3395526519	-0.1335413346	-0.425419
C	 0.02654492	-0.054814594	-0.0539279211	 0.102773
C	 0.3595832083	-0.6784436639	 1.3091228651	-0.019542
O	-0.5801361985	-0.0829477363	 2.2228950416	-0.258901
C	-1.0016305055	-1.21765303	 1.448156817	 0.015105
C	-1.4295872754	-0.6951646851	 0.0716154342	-0.085993
C	-2.6528609963	 0.2227108684	 0.0130634042	-0.291111
C	-2.8342507554	 0.8451944906	-1.3568286219	 0.143855
O	-3.8080283844	 0.6865426014	-2.0490457396	-0.240651
H	-0.1504587878	 1.6842940483	 0.7211696217	 0.294829
H	 0.5889424498	-0.4775322776	-0.8888349983	 0.102382
H	 1.3071886422	-1.0076906974	 1.7188013257	 0.114606
H	-1.356824308	-2.0816505298	 1.9970739383	 0.115346
H	-1.5306054707	-1.5197339468	-0.6413155611	 0.094226
H	-3.564046396	-0.328431372	 0.2655738925	 0.120561
H	-2.5246731821	 1.0301638281	 0.7449289137	 0.119301
H	-1.9803764451	 1.4714742442	-1.6920470475	 0.098633
59.671	88.3739	125.531	190.7342	241.9965	290.8956	437.7284	481.0738	504.3794	581.1008	647.3739	719.2813	784.1573	826.6105	861.6609	885.5769	904.9834	925.0902	1005.3421	1013.5422	1058.1556	1075.5215	1116.598	1126.6135	1172.7118	1220.4767	1230.6132	1240.3515	1260.8033	1290.8568	1305.8811	1356.1108	1385.3966	1421.2803	1438.6301	1465.5243	1828.4611	2915.3719	3033.8566	3062.1162	3096.0456	3101.2455	3185.8687	3200.9927	3771.1879
OC1C2OC2C1CC=O	O[C@H]1[C@H]2O[C@H]2[C@H]1CC=O	
InChI=1S/C6H8O3/c7-2-1-3-4(8)6-5(3)9-6/h2-6,8H,1H2	InChI=1S/C6H8O3/c7-2-1-3-4(8)6-5(3)9-6/h2-6,8H,1H2/t3-,4+,5-,6+/m0/s1
