18
gdb 89141	2.1107	1.705	1.15672	3.4993	78.14	-0.2171	0.0279	0.245	1104.3029	0.147613	-398.08491	-398.075977	-398.075033	-398.118217	33.312	
C	-0.3911660892	 1.4141695205	 0.055448093	-0.3489
N	 0.0970712298	 0.0455680623	 0.0015892464	-0.06228
C	 1.1168936618	-0.3755234546	-0.997321698	-0.223014
C	 1.8902179526	-1.0863164378	 0.1273770562	 0.277679
N	 2.3937696222	-2.4084610851	 0.0033004557	-0.595951
C	 2.3440187916	-0.038449119	 1.1639369981	-0.260737
C	 2.8170191174	 1.2683499591	 0.8185922037	 0.303825
N	 3.2221323428	 2.3106715816	 0.5143637065	-0.366476
C	 0.8741001548	-0.5174600709	 1.0779382798	-0.063943
H	 0.3968667884	 2.174396347	 0.1470041608	 0.137947
H	-0.9679964718	 1.6206266008	-0.8517109791	 0.125191
H	-1.0694942037	 1.5129547696	 0.909353802	 0.123488
H	 0.7114112548	-1.070393118	-1.7376437485	 0.12268
H	 1.649621831	 0.4410782657	-1.4988412917	 0.120416
H	 3.3236892445	-2.4123680725	-0.4060993724	 0.241908
H	 2.4558430647	-2.8725769905	 0.9030561606	 0.238801
H	 2.8709942631	-0.4880232097	 2.0019537861	 0.122041
H	 0.4051137852	-0.9368669887	 1.9636672509	 0.107328
128.2622	135.8866	169.4234	179.7119	187.9446	255.2636	323.8941	397.8978	403.161	433.0508	558.9887	602.4785	653.8926	699.1504	806.9017	812.3122	838.4486	890.7668	969.7812	998.4663	1028.3469	1032.3479	1068.0357	1119.6442	1148.7542	1171.5203	1210.2255	1234.7152	1275.4338	1297.6801	1322.6622	1353.7647	1451.7409	1456.5762	1486.808	1507.0726	1511.0783	1653.8173	2330.7011	3009.1487	3033.6832	3076.5039	3094.9781	3102.9958	3144.1306	3153.3848	3495.0293	3578.3475
CN1CC2(N)C(C#N)C12	CN1C[C@@]2(N)[C@@H](C#N)[C@@H]12	
InChI=1S/C6H9N3/c1-9-3-6(8)4(2-7)5(6)9/h4-5H,3,8H2,1H3	InChI=1S/C6H9N3/c1-9-3-6(8)4(2-7)5(6)9/h4-5H,3,8H2,1H3/t4-,5+,6+/m0/s1
