16
gdb 12848	2.99339	2.45334	1.79508	2.3964	65.21	-0.247	0.0038	0.2508	778.3266	0.131389	-383.728636	-383.721927	-383.720983	-383.759203	26.453	
O	 0.1936708376	 1.3918850007	-0.2201725827	-0.473123
C	 0.0731476282	 0.0063046016	-0.0228571216	 0.32442
C	 0.2142717105	-0.800435126	-1.3270963718	-0.104616
O	-0.9700688309	-1.5650351209	-1.0190706387	-0.295175
C	-1.3211568819	-0.6938847407	 0.0818312213	 0.065966
C	-1.3821095311	-1.4306216908	 1.4238493104	-0.285642
C	 0.0310969548	-1.2929043272	 1.9495728377	-0.05369
C	 0.808059297	-0.5341510935	 1.174732467	-0.175067
H	 0.1633511364	 1.8194221753	 0.6425857014	 0.27842
H	 0.0835907556	-0.1727090133	-2.2180500806	 0.105752
H	 1.1003548212	-1.4339521486	-1.4420431048	 0.103235
H	-2.1980254575	-0.0802630009	-0.1506104711	 0.075405
H	-2.1200635677	-1.0050979989	 2.1166979468	 0.104461
H	-1.6647367328	-2.4768235866	 1.2593283237	 0.12845
H	 0.3583675133	-1.7825928188	 2.8609918787	 0.101616
H	 1.8549757973	-0.3092853511	 1.3497880942	 0.099589
137.0075	232.2111	280.2778	317.6636	383.3041	431.5455	476.8742	630.5545	677.2695	757.4689	762.7623	863.1981	866.7119	932.9208	944.0217	977.5614	1007.2811	1022.3715	1034.0139	1053.7977	1104.4218	1147.5458	1169.9901	1181.4347	1208.6397	1260.7927	1305.7687	1318.989	1344.8502	1381.3197	1393.5919	1462.6688	1513.0318	1673.6773	3015.9003	3020.6552	3053.9717	3067.7891	3074.6094	3177.5468	3202.0275	3805.0266
OC12COC1CC=C2	O[C@]12CO[C@H]1CC=C2	
InChI=1S/C6H8O2/c7-6-3-1-2-5(6)8-4-6/h1,3,5,7H,2,4H2	InChI=1S/C6H8O2/c7-6-3-1-2-5(6)8-4-6/h1,3,5,7H,2,4H2/t5-,6+/m0/s1
