19
gdb 34555	3.5497	1.2783	1.20625	0.8572	89.93	-0.2205	-0.0178	0.2027	1109.3183	0.161788	-348.742796	-348.735431	-348.734487	-348.774351	30.428	
C	 0.0820479402	-1.181099178	 0.0399814001	-0.380523
C	-0.0134167916	 0.0204373818	-0.0011363457	 0.125323
C	-0.0645419164	 1.4286632334	-0.0611048409	 0.232005
C	-1.1416140404	 2.2378941621	-0.0341614743	-0.190511
C	-0.6457517744	 3.6687845823	 0.0237317123	-0.051699
C	-0.031473294	 3.8624793094	 1.4542470295	-0.202074
C	 1.2229922262	 2.9359516707	 1.418805578	-0.207224
C	 1.1713726981	 2.3359075628	-0.024594425	-0.117429
C	 0.6437549511	 3.5477412875	-0.8228321048	-0.21519
H	 0.1478407464	-2.2398996135	 0.0776927419	 0.184525
H	-2.1755128026	 1.9291845478	 0.0527920955	 0.101303
H	-1.3658362996	 4.4354227542	-0.262974894	 0.062025
H	 0.249451214	 4.909005995	 1.6071841612	 0.097413
H	-0.7391787168	 3.5910078789	 2.2406123659	 0.100873
H	 2.1440975386	 3.509757184	 1.5575431435	 0.097053
H	 1.2008234808	 2.1561171411	 2.1831079607	 0.107476
H	 2.0985373284	 1.8715789635	-0.3586389977	 0.068249
H	 0.4452146858	 3.3159920013	-1.8719988534	 0.099111
H	 1.2930501263	 4.4269978057	-0.7536815127	 0.089295
112.4629	152.7477	258.025	355.0603	431.3474	452.7178	523.4962	538.8389	574.4989	625.5251	631.8132	716.1114	786.5048	820.7405	845.0756	862.9356	866.1798	890.4203	930.4186	949.9664	958.8339	970.8942	1040.9375	1053.5794	1118.6153	1141.3999	1154.0751	1190.3199	1216.8665	1238.9952	1250.5282	1283.0518	1304.0622	1308.2805	1331.6964	1338.8189	1489.9554	1491.7394	1513.4748	1640.2443	2217.7128	3048.146	3050.3057	3062.5515	3096.7524	3109.1576	3112.7546	3115.0556	3123.6659	3215.3294	3504.0941
C#CC1=CC2CCC1C2	C#CC1=C[C@H]2CC[C@@H]1C2	
InChI=1S/C9H10/c1-2-8-5-7-3-4-9(8)6-7/h1,5,7,9H,3-4,6H2	InChI=1S/C9H10/c1-2-8-5-7-3-4-9(8)6-7/h1,5,7,9H,3-4,6H2/t7-,9-/m1/s1
