22
gdb 87168	3.23026	1.14616	0.99635	0.9815	82.52	-0.2242	0.079	0.3032	1298.3989	0.193079	-404.298161	-404.288548	-404.287604	-404.332922	35.61	
C	 0.094971857	 1.9514295241	 0.5432753508	-0.312538
N	-0.3333564749	 0.5792206397	 0.7680528815	-0.113336
C	 0.135005849	-0.4514247247	-0.1531832697	-0.292167
C	 0.6099516868	-0.4283246248	 1.2609150722	 0.31021
C	 2.0655202745	-0.1080744469	 1.5478852118	-0.47937
C	 0.0161493423	-1.359513869	 2.3020088362	 0.117665
C	-1.3967495513	-1.9415306476	 2.1053494729	-0.307435
C	-0.6793853544	-3.3056156948	 2.0780508567	-0.059442
O	 0.6122199909	-2.6834847841	 2.2483447349	-0.298299
H	 1.0956895298	 2.0536705657	 0.0966322408	 0.101037
H	-0.6219654256	 2.434176502	-0.1287422219	 0.124337
H	 0.0857859607	 2.4968960158	 1.4925412063	 0.12212
H	-0.6082404971	-1.1635897014	-0.5034494718	 0.107296
H	 0.863965035	-0.1621674268	-0.9101255281	 0.102309
H	 2.5386355708	 0.4665336925	 0.7493553788	 0.116125
H	 2.1667640618	 0.4544014032	 2.4836746112	 0.116731
H	 2.6179606335	-1.0456391251	 1.6619471439	 0.147115
H	 0.1730044781	-0.9131910833	 3.2954579068	 0.066927
H	-2.074464247	-1.7853104	 2.945234978	 0.109019
H	-1.9017876496	-1.6423116781	 1.1878739982	 0.121842
H	-0.9173491249	-3.9831623529	 2.9074012997	 0.099447
H	-0.7410465954	-3.8661569032	 1.137019921	 0.100408
61.9051	69.5679	149.9423	182.1041	200.8157	243.4488	281.6733	318.6304	344.0083	444.6457	455.9827	547.8403	675.6339	779.1635	789.638	813.8577	876.4793	931.3116	944.7914	964.1228	1002.2497	1023.5856	1043.4668	1069.1621	1092.8015	1099.8739	1119.558	1150.2286	1162.6989	1185.5248	1204.5682	1219.9249	1250.1677	1257.8222	1283.7271	1358.1391	1390.4372	1403.7485	1409.8691	1451.2822	1485.3507	1488.1669	1494.9171	1499.9743	1513.2521	1521.0815	1532.3123	2984.7972	2985.7016	3013.6484	3034.4491	3051.2981	3066.923	3083.6368	3096.6696	3099.0852	3101.337	3128.349	3151.4406	3165.0803
CN1CC1(C)C1CCO1	CN1C[C@]1(C)[C@H]1CCO1	
InChI=1S/C7H13NO/c1-7(5-8(7)2)6-3-4-9-6/h6H,3-5H2,1-2H3	InChI=1S/C7H13NO/c1-7(5-8(7)2)6-3-4-9-6/h6H,3-5H2,1-2H3/t6-,7-,8?/m1/s1
