20
gdb 121619	3.16531	0.81437	0.6919	4.9214	73.47	-0.2509	0.0247	0.2756	1636.4079	0.1692	-477.452638	-477.442019	-477.441075	-477.489677	37.495	
C	-0.0295565918	 1.4461598347	-0.4105313854	-0.391653
C	-0.010339653	-0.0100524124	 0.0769430712	 0.045345
O	 0.5470650839	-0.0902784653	 1.3614580908	-0.438234
C	-1.426026882	-0.6142970036	 0.1263316399	 0.395026
O	-1.9128006447	-0.9259761956	 1.2067508027	-0.403591
N	-2.062199295	-0.7669309225	-1.0558593985	-0.314876
C	-3.413373509	-1.2826639937	-1.1813763664	-0.147627
C	-4.2508791524	-0.3769664008	-2.0714620686	-0.081294
O	-3.5870782283	-0.3084650762	-3.3286978406	-0.424658
H	 0.9831276141	 1.8539501362	-0.358354417	 0.133264
H	-0.3821212826	 1.5312558379	-1.4439630019	 0.101698
H	-0.6762353042	 2.0508449491	 0.2323803299	 0.126722
H	 0.5912302985	-0.6121935429	-0.6236497117	 0.083306
H	-0.1768421215	-0.4275272483	 1.917875023	 0.291441
H	-1.6113240513	-0.4813547501	-1.9108283324	 0.259865
H	-3.3965559305	-2.292146838	-1.6122701519	 0.12052
H	-3.8374325279	-1.3467121422	-0.1776794972	 0.148488
H	-5.2628550986	-0.7967419651	-2.1717057853	 0.098846
H	-4.3345810801	 0.6186306904	-1.6115347795	 0.102097
H	-4.0304555637	 0.3454033384	-3.8763227609	 0.295315
32.6103	59.2053	79.3761	114.9309	206.5464	232.7657	263.1336	286.6951	299.1999	371.9883	403.9486	463.9328	503.5143	523.1215	547.3031	664.4225	755.6465	827.0244	901.67	916.5173	957.1788	1052.1235	1078.3431	1102.3517	1106.1154	1115.4883	1178.4962	1214.2548	1247.1402	1264.1448	1289.3083	1311.9739	1366.4043	1393.4601	1406.674	1446.6303	1455.0194	1487.1712	1489.0326	1498.3101	1515.3129	1557.3795	1757.5644	2968.746	2986.7615	3016.385	3036.4167	3037.1984	3109.9955	3124.8991	3129.726	3637.0629	3640.462	3839.1281
CC(O)C(=O)NCCO	C[C@@H](O)C(=O)NCCO	
InChI=1S/C5H11NO3/c1-4(8)5(9)6-2-3-7/h4,7-8H,2-3H2,1H3,(H,6,9)	InChI=1S/C5H11NO3/c1-4(8)5(9)6-2-3-7/h4,7-8H,2-3H2,1H3,(H,6,9)/t4-/m1/s1
