14
gdb 42159	3.96335	1.0184	0.86125	1.8412	71.95	-0.2614	-0.1101	0.1513	1283.3799	0.098784	-436.63897	-436.630212	-436.629268	-436.673549	30.513	
O	 0.1111557241	-0.0901481939	-0.2502579318	-0.270666
C	 0.1017621489	 1.0827054775	 0.054469389	 0.118629
C	 1.2898230799	 1.9010481733	 0.1072688379	 0.299436
C	 2.2935554814	 2.5637734082	 0.1473605914	-0.372353
C	-1.2178426734	 1.7973415891	 0.4185581864	 0.290716
O	-1.2207680406	 2.978345854	 0.6914292179	-0.312062
C	-2.4409960975	 0.9566768143	 0.4098932544	-0.111408
C	-3.3189882954	 1.0702110982	 1.6271158986	-0.216267
N	-3.7333352355	 1.6603153697	 0.3670985197	-0.304111
H	 3.1792529487	 3.1513084418	 0.1824517487	 0.223457
H	-2.3814289523	 0.0123406287	-0.1154069503	 0.131222
H	-3.8701697826	 0.188607525	 1.9401309517	 0.137092
H	-2.9749790563	 1.7231661102	 2.424552119	 0.135871
H	-3.5325268793	 2.6610088741	 0.3922685074	 0.250445
39.6247	76.9885	120.7912	214.4754	225.0607	258.6068	303.4316	390.3149	493.6593	511.248	653.4458	672.9761	722.1712	777.0963	820.2944	849.9112	868.5165	942.2774	999.9121	1017.675	1119.5177	1133.0378	1178.195	1222.6853	1287.8093	1316.2196	1403.8971	1500.4332	1757.0565	1780.7363	2216.0828	3115.2991	3203.8328	3213.0014	3462.8678	3492.1396
O=C(C#C)C(=O)C1CN1	O=C(C#C)C(=O)[C@H]1CN1	
InChI=1S/C6H5NO2/c1-2-5(8)6(9)4-3-7-4/h1,4,7H,3H2	InChI=1S/C6H5NO2/c1-2-5(8)6(9)4-3-7-4/h1,4,7H,3H2/t4-/m1/s1
