16
gdb 127867	3.7779	1.17063	0.90367	0.8872	80.54	-0.2446	-0.0602	0.1844	1267.4063	0.122772	-434.046904	-434.038135	-434.037191	-434.081347	30.749	
C	 0.0811047738	 1.4358983803	 0.0370558462	-0.336321
N	-0.0221867074	-0.0015751538	-0.0291715131	-0.262527
C	-1.1421645421	-0.6094842701	-0.0717659031	 0.302516
C	-2.4881139445	-0.010165095	-0.0627351142	-0.008918
N	-3.5937286283	-0.6553539919	-0.1068462171	-0.06734
O	-3.4904980097	-2.0519716942	-0.1690577196	-0.260461
C	-2.2503259024	-2.6222772145	-0.1776586831	 0.428454
C	-2.3627596593	-4.1119445006	-0.2462655463	-0.464222
N	-1.1331394084	-2.0112991544	-0.1347203667	-0.327674
H	 0.6821875232	 1.7828621553	-0.8119769456	 0.139645
H	-0.8578378543	 2.0066493663	 0.0404307309	 0.10295
H	 0.641724088	 1.705499514	 0.9402569153	 0.139601
H	-2.6289141688	 1.0641855792	-0.0152613424	 0.143217
H	-2.9045440095	-4.4090195522	-1.1495759314	 0.154731
H	-1.3636729711	-4.5451505616	-0.2522334298	 0.161614
H	-2.928358079	-4.4883146068	 0.6117613001	 0.154734
56.2261	70.4744	110.3568	153.2705	240.0799	289.1394	345.5233	407.8248	491.3961	531.909	590.863	594.4438	713.8638	760.4203	868.4612	916.1314	940.932	967.3792	1015.5539	1062.8777	1105.5907	1122.1069	1143.7203	1233.199	1309.1696	1335.1668	1404.0896	1441.3716	1469.971	1472.357	1478.2194	1502.1628	1644.8356	1709.6566	1729.8313	2997.0332	3052.0766	3061.2954	3071.2821	3112.0842	3172.7187	3195.7144
CN=C1C=NOC(C)=N1	CN=c1cnoc(C)n1	
InChI=1S/C5H7N3O/c1-4-8-5(6-2)3-7-9-4/h3H,1-2H3	InChI=1S/C5H7N3O/c1-4-8-5(6-2)3-7-9-4/h3H,1-2H3
