18
gdb 6369	4.21825	1.06433	0.96615	4.2729	65.24	-0.262	-0.0238	0.2381	1242.6249	0.150667	-422.092774	-422.083238	-422.082294	-422.127786	33.677	
C	 0.2811311231	 1.3674500801	 0.1870686449	-0.413626
C	 0.0307306311	-0.1371290431	 0.2438784721	 0.148441
O	 0.0306007358	-0.619787872	 1.583897858	-0.429977
C	-1.2713672664	-0.5393697916	-0.4867667361	-0.308746
C	-1.4062769589	-2.0480098822	-0.5425886146	 0.374262
O	-0.7631359038	-2.7234146739	-1.3196987535	-0.333939
C	-2.3395182347	-2.7270074253	 0.4418917403	-0.136114
O	-2.3436379134	-4.1119765344	 0.2791018388	-0.420728
H	 1.1982985715	 1.6143901108	 0.7286303366	 0.133145
H	 0.3820402882	 1.715015295	-0.8454648935	 0.12666
H	-0.5490902133	 1.9201049293	 0.6454599224	 0.110728
H	 0.8587570303	-0.6650633456	-0.2416397024	 0.118142
H	-0.5458278855	-0.0495202765	 2.1051471364	 0.280386
H	-2.130422303	-0.0863069697	 0.0234142681	 0.097081
H	-1.2402811174	-0.1634462026	-1.5142936107	 0.130367
H	-2.0027843148	-2.4279417201	 1.4494855102	 0.122404
H	-3.3507290203	-2.3054233952	 0.3107618565	 0.108726
H	-1.6932991785	-4.281312823	-0.4218494934	 0.292789
37.5983	76.4009	106.2472	179.1415	243.5422	271.361	309.805	311.1001	389.8853	408.9456	443.8791	459.43	533.9022	689.3029	806.7016	839.3662	918.1013	936.7241	995.4288	1038.5985	1080.6313	1120.3466	1139.0761	1146.9237	1225.5525	1249.1887	1291.7313	1314.4167	1328.1405	1367.0022	1404.8167	1425.1244	1446.9044	1468.9581	1490.67	1491.7963	1494.8611	1793.2946	2965.6552	2985.2289	3023.883	3032.3758	3060.4513	3092.3127	3102.0417	3122.3545	3679.6311	3796.5248
CC(O)CC(=O)CO	C[C@@H](O)CC(=O)CO	
InChI=1S/C5H10O3/c1-4(7)2-5(8)3-6/h4,6-7H,2-3H2,1H3	InChI=1S/C5H10O3/c1-4(7)2-5(8)3-6/h4,6-7H,2-3H2,1H3/t4-/m1/s1
