18
gdb 8918	3.62753	1.24789	0.99153	0.1327	70.26	-0.253	0.03	0.283	1188.5372	0.149976	-384.899141	-384.889211	-384.888267	-384.93371	35.555	
C	-0.0275637478	 1.5758187842	 0.0771208538	-0.389089
C	-0.0122525282	 0.0479195939	-0.0065115255	-0.189809
C	 0.7256313375	-0.4729597251	-1.2419635539	 0.122288
O	 2.0871488796	-0.0733084537	-1.2681330631	-0.421661
C	 0.6080370026	-2.0169604887	-1.3636636361	-0.084084
O	-0.754789021	-2.4366916337	-1.3752294301	-0.416148
C	 1.3344923103	-2.522817057	-2.5285205297	 0.30125
C	 1.8668028606	-2.9369451767	-3.5235218266	-0.43816
H	 0.9889498424	 1.977681711	 0.0495590162	 0.12561
H	-0.5778595028	 2.0096964499	-0.7650547779	 0.115406
H	-0.5080761947	 1.915356514	 0.9993880998	 0.111567
H	 0.4733369827	-0.3723693953	 0.8879885845	 0.081544
H	-1.0301637312	-0.3529281882	-0.0170909977	 0.119405
H	 0.2855930788	-0.0342053565	-2.1470150691	 0.087572
H	 2.5016296724	-0.3785876711	-0.4527760593	 0.280134
H	 1.035832264	-2.4570813029	-0.4512622178	 0.105324
H	-1.073358292	-2.3506741826	-2.2804864384	 0.288991
H	 2.3571150168	-3.3038539116	-4.3913117391	 0.199859
63.1837	101.2246	124.1301	204.9196	213.549	243.8931	260.0919	280.1371	291.238	392.4764	421.2254	466.3304	565.8528	595.5882	632.6458	670.1013	782.6469	890.8027	912.8337	991.3624	1045.5109	1063.4504	1081.0855	1116.6957	1141.9546	1219.4951	1263.6429	1271.8213	1323.0648	1367.1117	1381.6938	1404.4337	1414.8793	1418.3329	1486.1774	1495.9725	1509.3121	2233.9993	2992.5428	3005.3714	3036.1848	3039.3308	3085.9982	3103.3463	3120.4933	3503.568	3791.3108	3811.0602
CCC(O)C(O)C#C	CC[C@@H](O)[C@@H](O)C#C	
InChI=1S/C6H10O2/c1-3-5(7)6(8)4-2/h1,5-8H,4H2,2H3	InChI=1S/C6H10O2/c1-3-5(7)6(8)4-2/h1,5-8H,4H2,2H3/t5-,6+/m0/s1
