13
gdb 20926	3.51752	1.94315	1.36403	3.7051	55.83	-0.2806	-0.0511	0.2296	868.1478	0.09514	-431.904856	-431.897659	-431.896714	-431.937347	24.917	
C	-0.0827376031	 1.5785939496	-0.079601414	-0.384255
C	 0.0705665772	 0.0595130019	-0.0423579319	-0.155253
N	 0.7441250627	-0.4673111528	-1.221198359	-0.097068
N	 0.1593657637	-0.5322441719	-2.4321245953	-0.05045
N	 0.963267055	-1.0034586225	-3.2671428004	 0.022787
O	 2.1842509057	-1.2820357688	-2.6088660357	-0.231817
C	 2.0451019964	-0.9339894916	-1.290544412	 0.554011
O	 2.8719602321	-1.0281739744	-0.4294071624	-0.38891
H	 0.893661486	 2.0685253367	-0.1253596876	 0.143316
H	-0.6712715687	 1.8890990819	-0.9470465216	 0.146258
H	-0.5964969129	 1.9182890268	 0.8239874153	 0.135495
H	 0.6895715334	-0.258311591	 0.8004053083	 0.161639
H	-0.9008041576	-0.4359585639	 0.0383309963	 0.144247
39.8252	116.8799	203.4876	248.2912	295.2415	387.294	528.6193	658.9914	670.5498	755.4775	758.8524	789.468	809.8726	972.7861	1023.8356	1092.2017	1105.0319	1121.5129	1241.8599	1355.6633	1388.8614	1399.0261	1415.5756	1479.7553	1490.747	1502.7884	1511.8927	1896.3994	3049.4502	3070.5398	3115.3826	3127.3929	3138.2241
CCN1N=NOC1=O	CCn1nnoc1=O	
InChI=1S/C3H5N3O2/c1-2-6-3(7)8-5-4-6/h2H2,1H3	InChI=1S/C3H5N3O2/c1-2-6-3(7)8-5-4-6/h2H2,1H3
