15
gdb 21053	3.80689	1.83705	1.25867	3.5389	63.55	-0.2237	0.0153	0.239	932.0794	0.119746	-396.021362	-396.01343	-396.012486	-396.053951	27.934	
C	-0.1094686415	 1.4188125795	-0.0408451817	-0.323228
N	-0.0408406229	-0.022824262	 0.0152662103	 0.001195
N	-0.1350102298	-0.7463443163	-1.1446586705	-0.332424
C	-0.0329850577	-1.9789242523	-0.6878247934	 0.418929
O	-0.0766912854	-3.0358742367	-1.5114927762	-0.411415
N	 0.1176530029	-2.1095855331	 0.65514479	-0.404852
C	 0.1083777434	-0.847607516	 1.0719090227	 0.35561
C	 0.2422720727	-0.4077525705	 2.4917253702	-0.502919
H	-0.0174409439	 1.821964489	 0.9682974362	 0.140407
H	 0.7009883262	 1.8110388215	-0.6614047792	 0.153271
H	-1.0641493792	 1.7347104574	-0.4704356555	 0.153258
H	 0.0168491473	-3.8174268046	-0.953924248	 0.308832
H	 1.1209881405	 0.228680433	 2.6407523068	 0.141354
H	-0.6365473298	 0.151288384	 2.8302868627	 0.141382
H	 0.3487865673	-1.2937391729	 3.1181640056	 0.1606
72.4489	111.1835	172.5066	219.4751	279.9009	316.7583	379.555	410.1753	537.8097	641.4011	660.6361	662.5672	770.4694	834.0845	1013.1995	1039.3041	1063.2559	1084.6646	1153.2801	1199.2127	1236.3543	1322.7093	1406.3541	1430.3709	1458.5608	1466.5717	1471.9132	1488.6777	1502.2471	1528.8084	1568.2903	1640.3215	3040.1403	3050.6715	3093.7684	3113.7341	3151.707	3154.0958	3815.1287
CN1N=C(O)N=C1C	Cn1nc(O)nc1C	
InChI=1S/C4H7N3O/c1-3-5-4(8)6-7(3)2/h1-2H3,(H,6,8)	InChI=1S/C4H7N3O/c1-3-5-4(8)6-7(3)2/h1-2H3,(H,6,8)
