17
gdb 107865	2.7583	1.57546	1.20433	3.8923	73.1	-0.2409	0.007	0.2479	1051.3293	0.135188	-421.760157	-421.752411	-421.751467	-421.792708	29.447	
C	-0.0832990828	 1.3372157592	-0.0298476214	-0.267233
O	 0.1004098583	-0.0699591114	-0.0517183954	-0.28866
C	 0.7514880176	-0.5349293607	-1.1613196863	 0.460464
C	 2.1973244441	-0.277321058	-1.6463318823	-0.337198
C	 1.5914421276	-1.2886619279	-2.6408425577	-0.047002
C	 0.8072201621	-2.0601652929	-1.5082525152	-0.252314
C	-0.480174659	-1.9208764667	-2.3234617549	 0.446186
O	-1.4711948344	-2.5335682782	-2.5745706799	-0.327151
C	 0.183033216	-0.5870546132	-2.655176682	-0.269448
H	 0.8769126737	 1.8700144198	-0.0446561784	 0.118364
H	-0.6897446154	 1.6750971474	-0.8809719695	 0.119513
H	-0.6068973072	 1.5718714713	 0.8984068629	 0.13846
H	 2.4298321067	 0.7162081556	-2.0400844721	 0.103541
H	 3.0018731199	-0.6403755181	-1.0003601722	 0.107707
H	 2.0486509382	-1.7624945272	-3.5045611089	 0.103719
H	 1.1997587287	-2.8484743709	-0.8698077815	 0.097562
H	-0.1141028741	 0.2508092719	-3.2822039252	 0.093489
75.0742	133.893	182.529	219.2494	323.0436	382.3949	433.0537	532.5458	597.273	646.0481	698.4962	787.7523	797.4503	843.0238	871.4559	934.414	964.9057	1005.0974	1026.7239	1042.6643	1070.0147	1092.7508	1099.7003	1116.2403	1130.617	1180.552	1183.8584	1205.4478	1211.0471	1231.8701	1263.7396	1324.4264	1484.3365	1490.1458	1504.2347	1521.1008	1919.4888	3000.8486	3048.7298	3058.5599	3109.2227	3134.0364	3146.3706	3150.7241	3165.4697
COC12CC3C1C(=O)C23	CO[C@@]12C[C@H]3[C@@H]1C(=O)[C@@H]23	
InChI=1S/C7H8O2/c1-9-7-2-3-4(7)6(8)5(3)7/h3-5H,2H2,1H3	InChI=1S/C7H8O2/c1-9-7-2-3-4(7)6(8)5(3)7/h3-5H,2H2,1H3/t3-,4+,5-,7-
