25
gdb 112728	2.34172	1.12181	0.95581	1.2255	88.94	-0.2507	0.0757	0.3265	1420.5192	0.226747	-389.493533	-389.482645	-389.4817	-389.528794	41.237	
C	-0.0276389865	 1.5954607763	-0.1288660783	-0.380397
C	 0.0147989469	 0.0768899114	 0.0767271883	-0.199131
C	-1.3669714634	-0.5645917205	 0.0190133211	 0.027337
C	-2.1269365689	-0.6178363586	-1.3367355881	-0.300867
C	-2.6819190997	-1.9992854376	-0.9092127103	 0.116061
O	-2.7342343097	-3.0481523889	-1.8506538469	-0.435133
C	-1.5397003564	-2.123780917	 0.1430765892	 0.267837
C	-0.3510136062	-2.9223654842	-0.401208452	-0.426805
C	-1.9493811544	-2.6447208478	 1.5182894739	-0.456895
H	 0.9749440279	 2.0320527778	-0.0817788488	 0.109799
H	-0.456491145	 1.8518484207	-1.1036838824	 0.117693
H	-0.6397333366	 2.0822038268	 0.6388725765	 0.111814
H	 0.6653467904	-0.3737989827	-0.6822681538	 0.09479
H	 0.4781579399	-0.1450063616	 1.0476194733	 0.09292
H	-2.0064648468	-0.0862241628	 0.7722389069	 0.060135
H	-2.8430538061	 0.1762578418	-1.5635056082	 0.087635
H	-1.437470138	-0.7274162864	-2.1800050923	 0.101505
H	-3.6508315797	-1.8846249457	-0.3996782996	 0.05751
H	-3.4418571823	-2.8587764505	-2.4745909823	 0.281679
H	-0.0357890563	-2.5828887784	-1.3910001352	 0.115298
H	 0.5073877788	-2.8468171015	 0.2747336486	 0.104451
H	-0.619270906	-3.9784991717	-0.4948586692	 0.121927
H	-2.2203990533	-3.7058790204	 1.4732440911	 0.116898
H	-1.1303353935	-2.5436934043	 2.2403416099	 0.109825
H	-2.810565405	-2.0941313141	 1.9126902686	 0.104115
82.1358	101.137	161.8267	188.9932	219.5473	226.9081	241.1402	249.3551	284.8882	302.3827	332.4114	383.8942	448.6519	475.2386	558.0883	581.5783	730.2289	770.1599	799.066	893.2624	917.7067	946.42	955.7539	975.6126	993.1896	1003.2892	1054.883	1076.6473	1120.4644	1148.0445	1171.1851	1185.9485	1191.6773	1234.3362	1249.0486	1264.8674	1290.1657	1312.2193	1329.004	1350.3691	1391.4353	1400.0985	1410.2807	1413.5976	1434.7978	1481.0391	1483.1015	1488.0572	1493.4384	1499.5443	1502.8126	1506.1932	1508.2209	2978.049	3013.4521	3014.7048	3019.138	3028.9788	3039.4761	3049.4624	3054.3569	3083.8459	3089.5737	3096.073	3100.6013	3104.2245	3106.4883	3118.7629	3818.7326
CCC1CC(O)C1(C)C	CC[C@H]1C[C@@H](O)C1(C)C	
InChI=1S/C8H16O/c1-4-6-5-7(9)8(6,2)3/h6-7,9H,4-5H2,1-3H3	InChI=1S/C8H16O/c1-4-6-5-7(9)8(6,2)3/h6-7,9H,4-5H2,1-3H3/t6-,7+/m0/s1
