17
gdb 71923	2.65639	1.95476	1.38413	2.5854	71.85	-0.2447	-0.0206	0.2241	938.7723	0.136736	-421.803625	-421.796466	-421.795522	-421.834933	28.862	
O	 0.3526398211	 1.3739562835	-0.1476110051	-0.475927
C	 0.1108223553	 0.0175472223	-0.106348074	 0.329937
C	 0.4147657452	-0.7778797336	-1.3899771747	-0.287564
C	-0.7541592941	-1.751112257	-1.1033049568	-0.035624
C	-0.4241410837	-2.7952623634	-0.0074665943	-0.237927
C	-0.6596355919	-1.7285016561	 1.0955391895	-0.154153
C	-1.2957919353	-0.7792169177	 0.0008944507	-0.131152
C	 0.4462090368	-0.6841171305	 1.2047646581	 0.33202
O	 1.0640507965	-0.2453531633	 2.1410184652	-0.339451
H	 0.6324403079	 1.6390828754	 0.7401238033	 0.294897
H	 0.1746546102	-0.1340419018	-2.2413321413	 0.12232
H	 1.4231618954	-1.1820712009	-1.5222489403	 0.104229
H	-1.3371279073	-2.0872348104	-1.9598379716	 0.078148
H	-1.2012393832	-3.5618809486	 0.0497696026	 0.113393
H	 0.5526865388	-3.287586712	-0.0430322911	 0.105459
H	-1.1275929995	-2.0264990872	 2.0329514028	 0.093923
H	-2.2709095123	-0.3078801787	 0.072080957	 0.08747
117.9795	225.2307	244.3806	338.9673	363.2904	408.3407	453.1974	523.9156	612.6	689.0303	765.8497	802.6292	825.4435	847.6164	857.3767	900.6312	918.0046	952.2771	982.5523	1011.4362	1041.9298	1059.1758	1097.2878	1111.5032	1145.9588	1178.5593	1194.9235	1217.2617	1239.259	1261.1716	1304.3352	1310.0198	1352.4872	1394.8567	1480.0401	1491.6085	1841.9626	3047.3135	3050.0745	3101.9736	3103.0978	3115.35	3125.0316	3173.5429	3740.6985
OC12CC3CC(C13)C2=O	O[C@]12C[C@H]3C[C@H]([C@@H]13)C2=O	
InChI=1S/C7H8O2/c8-6-4-1-3-2-7(6,9)5(3)4/h3-5,9H,1-2H2	InChI=1S/C7H8O2/c8-6-4-1-3-2-7(6,9)5(3)4/h3-5,9H,1-2H2/t3-,4-,5+,7-/m1/s1
