20
gdb 64730	2.89125	1.18792	1.07519	3.9711	83.31	-0.2509	0.0138	0.2647	1209.697	0.171278	-366.049601	-366.040806	-366.039862	-366.083023	33.653	
C	-0.2772562814	 1.7133359015	 0.0676341735	-0.456639
C	 0.1088530886	 0.2332954669	 0.0086923088	 0.299698
C	-1.1653068766	-0.6526660718	-0.1048962459	-0.371266
C	-1.9577761964	-0.3949038921	-1.3054776008	 0.267432
N	-2.5732506122	-0.1794930035	-2.2601551735	-0.321322
C	 1.0762012585	-0.1029961133	-1.168380164	-0.296302
C	 1.9894042479	-1.1581376892	-0.5941043296	-0.061887
C	 1.8863042882	-1.2361199672	 0.7315903556	-0.065642
C	 0.8866911065	-0.2445865649	 1.2748367108	-0.300176
H	 0.6151459417	 2.339667535	 0.1622808889	 0.118285
H	-0.8125305729	 2.0222566934	-0.8357563889	 0.140697
H	-0.92437327	 1.9214883974	 0.9273906212	 0.11416
H	-0.873680564	-1.7091439681	-0.1030272206	 0.153205
H	-1.8066824683	-0.4938427137	 0.7696835259	 0.145126
H	 0.5389758196	-0.4295189965	-2.0661134202	 0.123255
H	 1.6500440783	 0.7850508753	-1.4676387055	 0.109632
H	 2.6637474522	-1.7447300055	-1.207919533	 0.097976
H	 2.4638007748	-1.8942778935	 1.3710219613	 0.096317
H	 1.3975904139	 0.5986595051	 1.7600037766	 0.10812
H	 0.2198780615	-0.6714681555	 2.0345227094	 0.09933
76.9652	113.8663	144.2366	245.6041	286.823	321.0829	368.5387	391.6247	406.9809	414.7434	519.2384	624.1068	705.1593	769.8311	793.0857	887.1008	896.6154	915.5372	951.0587	970.9308	978.437	981.1093	987.0877	1010.6775	1118.7883	1127.8349	1146.6736	1165.7089	1187.9901	1267.3993	1286.0003	1299.0619	1326.0766	1351.873	1368.3677	1417.1275	1463.3693	1484.7944	1492.0921	1497.4788	1502.1281	1686.884	2355.9784	3009.2852	3013.1284	3030.26	3038.5781	3043.9151	3059.1271	3081.7803	3096.6309	3108.8616	3184.8755	3209.8384
CC1(CC#N)CC=CC1	C[C@@]1(CC#N)CC=CC1	
InChI=1S/C8H11N/c1-8(6-7-9)4-2-3-5-8/h2-3H,4-6H2,1H3	InChI=1S/C8H11N/c1-8(6-7-9)4-2-3-5-8/h2-3H,4-6H2,1H3
