19
gdb 77540	2.87458	1.31064	1.06632	4.8433	81.98	-0.2563	0.012	0.2683	1182.8402	0.159113	-382.027644	-382.01884	-382.017896	-382.060765	33.511	
C	-0.1614033642	 1.635349497	 0.0549966568	-0.448047
C	 0.0215948525	 0.1273590851	 0.0054365061	-0.034178
C	 0.8781129517	-0.6118787068	-1.0833081811	 0.297769
C	 0.6136897299	-0.7512349966	-2.5521342183	-0.516571
C	 2.171970893	-0.1130310755	-0.3748564735	-0.278068
C	 1.1988826488	-0.6148742639	 0.7240925842	 0.226715
N	 0.9767458089	-1.8304979841	-0.1599647822	-0.364272
C	 1.4337268714	-0.7195219081	 2.1440912431	 0.15754
N	 1.6012372774	-0.7748396298	 3.2868423088	-0.350088
H	 0.7596341558	 2.1919357908	-0.1331195399	 0.125952
H	-0.8981380544	 1.9484530859	-0.692665232	 0.12752
H	-0.5405499924	 1.9402345255	 1.0359364253	 0.138458
H	-0.93627472	-0.3763458135	 0.1864078075	 0.076327
H	 0.6461839133	 0.2257838913	-3.0450255162	 0.130228
H	 1.3648622456	-1.3970521317	-3.0165766566	 0.140411
H	-0.3740331697	-1.1885077026	-2.7334065831	 0.1262
H	 3.049874146	-0.7419160581	-0.5198191406	 0.124009
H	 2.4019804389	 0.95032629	-0.4006057418	 0.110517
H	 0.0332847075	-2.1952063647	 0.0163860135	 0.209579
123.5142	140.0917	168.4006	190.2087	199.8144	304.6702	341.139	361.3985	516.8697	525.9235	536.3076	590.497	603.6488	637.9976	744.3148	792.2451	826.4041	931.8411	963.7506	1004.5968	1045.2438	1080.5254	1087.6627	1110.4958	1127.0499	1153.6718	1167.5877	1176.2031	1227.0138	1268.1438	1293.1302	1348.5342	1400.6847	1411.0564	1425.9153	1483.7657	1487.9977	1493.2939	1495.8627	1514.7783	2352.1438	3028.1303	3035.3596	3040.2404	3099.6846	3100.7636	3103.237	3114.0525	3123.1776	3177.7186	3365.7452
CC1C2(C)CC1(N2)C#N	C[C@H]1[C@@]2(C)C[C@@]1(N2)C#N	
InChI=1S/C7H10N2/c1-5-6(2)3-7(5,4-8)9-6/h5,9H,3H2,1-2H3	InChI=1S/C7H10N2/c1-5-6(2)3-7(5,4-8)9-6/h5,9H,3H2,1-2H3/t5-,6+,7+/m0/s1
