17
gdb 29290	4.7733	1.03543	0.88933	1.137	77.8	-0.1769	0.0393	0.2162	1291.6777	0.137158	-417.992942	-417.984798	-417.983854	-418.026011	30.917	
N	-0.0767084787	 1.3375562729	 0.427710053	-0.607268
C	-0.0692035421	-0.0070884122	 0.0271734001	 0.244065
C	-1.0315995483	-0.6992076223	-0.6414658048	-0.109325
O	-0.6658532222	-2.0270304524	-0.7535286065	-0.187725
C	 0.53737727	-2.1524981255	-0.1558907152	 0.414431
C	 0.9616258065	-0.9589916017	 0.3496358002	-0.359052
N	 1.1315895933	-3.4059697645	-0.245198031	-0.153501
C	 1.8264567411	-3.9264349945	 0.9267023893	-0.224765
C	 0.5338705486	-4.5241687781	 0.4911289138	-0.221044
H	 0.8382375777	 1.7649708851	 0.3575436727	 0.243053
H	-0.7406410676	 1.8959758232	-0.0933601942	 0.241278
H	-1.9864082265	-0.4377883915	-1.0629439334	 0.115191
H	 1.8837107837	-0.7709388713	 0.8760361434	 0.095793
H	 2.7645449667	-4.4325085297	 0.7213358576	 0.124655
H	 1.8125608372	-3.3184566765	 1.8280736743	 0.1267
H	-0.3444666646	-4.3134062947	 1.094828866	 0.131092
H	 0.5160458751	-5.4675440763	-0.0447469551	 0.126422
55.5293	132.3585	182.1403	226.7043	286.1106	357.2773	395.377	518.8409	539.5929	601.174	641.7849	696.3972	705.125	744.8567	783.381	818.5332	884.7561	925.109	979.2031	1005.031	1042.0714	1102.0757	1114.6175	1134.4315	1142.2687	1153.9458	1175.5513	1194.8377	1261.0783	1295.1108	1372.4789	1456.6222	1491.4975	1517.4314	1602.5212	1650.1452	1676.0341	3111.8777	3119.6311	3198.0954	3214.0667	3257.8227	3288.1458	3532.4249	3621.1661
NC1=COC(=C1)N1CC1	Nc1coc(c1)N1CC1	
InChI=1S/C6H8N2O/c7-5-3-6(9-4-5)8-1-2-8/h3-4H,1-2,7H2	InChI=1S/C6H8N2O/c7-5-3-6(9-4-5)8-1-2-8/h3-4H,1-2,7H2
