18
gdb 16911	3.88732	1.92539	1.48568	1.5967	67.62	-0.2467	0.0877	0.3344	887.1591	0.154828	-384.931767	-384.924603	-384.923658	-384.9629	28.033	
C	 0.0442538312	 1.5005627212	 0.0198383135	-0.406857
C	 0.0399669645	-0.0116241544	-0.0143915255	 0.220535
O	 0.6656963566	-0.439116524	-1.2013199731	-0.24528
C	 0.511122297	-1.8392943405	-1.3938466865	-0.108639
C	 0.9068491879	-2.6200471872	-0.1572901766	-0.071404
C	 2.2332584947	-2.3681856528	 0.5240914967	-0.30447
C	 0.9587293346	-1.8560985637	 1.1429558884	 0.104434
O	 0.7370695726	-0.4713830346	 1.1261263572	-0.258531
H	 1.0736469821	 1.8623859884	-0.0375350623	 0.134661
H	-0.5209270819	 1.894654485	-0.8276787018	 0.123535
H	-0.405540063	 1.8538640578	 0.9503607748	 0.126554
H	-0.9904364674	-0.4147880867	 0.0052582042	 0.054542
H	-0.5384027404	-2.0641988474	-1.6467211901	 0.092607
H	 1.1303042311	-2.0999349954	-2.2578824193	 0.112752
H	 0.5128846154	-3.631109333	-0.1181836012	 0.091923
H	 2.7427896193	-3.2058520335	 0.9873299842	 0.110118
H	 2.878879363	-1.6110512807	 0.0926939868	 0.12928
H	 0.5887317327	-2.3224737584	 2.0521507406	 0.094242
120.7314	193.7093	215.0993	313.5694	331.3651	401.6762	492.1933	529.0361	578.4289	732.5488	769.7485	806.4583	825.8137	869.4296	922.5195	954.6508	1017.4841	1037.8058	1064.1998	1082.2189	1106.8016	1126.2983	1135.1911	1148.1507	1179.2908	1190.666	1233.1757	1288.4743	1357.3357	1381.5061	1389.3137	1407.0765	1417.8597	1433.5865	1477.7376	1483.2551	1488.6533	1503.0616	2921.0188	2968.3889	3058.4351	3073.5217	3133.3268	3136.6662	3140.5357	3141.3006	3154.6768	3227.8367
CC1OCC2CC2O1	C[C@H]1OC[C@H]2C[C@H]2O1	
InChI=1S/C6H10O2/c1-4-7-3-5-2-6(5)8-4/h4-6H,2-3H2,1H3	InChI=1S/C6H10O2/c1-4-7-3-5-2-6(5)8-4/h4-6H,2-3H2,1H3/t4-,5+,6+/m0/s1
