16
gdb 31989	4.91555	0.9709	0.84275	1.442	68.92	-0.2067	0.0314	0.2381	1354.0346	0.123676	-475.034323	-475.025512	-475.024568	-475.068655	30.445	
C	-0.1063640716	 1.3833432232	 0.1264819814	-0.255208
O	-0.2001278517	 0.1404150229	-0.584344127	-0.263698
C	-1.2480109798	-0.6194709531	-0.2743768092	 0.378672
C	-1.3954801246	-1.8844186318	 0.1672168487	-0.228742
N	-2.7611851004	-2.2021065005	 0.2143615135	-0.38442
C	-3.3357629889	-1.1177130173	-0.1850537461	 0.505959
O	-4.625148317	-0.8426526574	-0.3178513432	-0.250052
C	-5.4998781453	-1.9199061406	 0.0352781392	-0.235309
O	-2.5160160529	-0.09707017	-0.5124735753	-0.23169
H	 0.813177368	 1.8596957161	-0.2152552253	 0.140783
H	-0.9621094849	 2.0267457388	-0.0993544581	 0.142728
H	-0.0550986392	 1.2039571808	 1.206481567	 0.127772
H	-0.6306551829	-2.5904950684	 0.4435934049	 0.125425
H	-5.3530955869	-2.2063065986	 1.0803937478	 0.144348
H	-6.5096407559	-1.5413531307	-0.1215565699	 0.137875
H	-5.3117509957	-2.7901766633	-0.5995280786	 0.145559
62.817	88.7056	153.2032	156.0721	170.0623	229.2064	293.5821	392.4363	449.6652	540.7389	651.6724	699.9169	732.7052	750.6081	822.0646	947.9657	993.9259	1036.5115	1084.1406	1148.0039	1173.3726	1184.447	1192.9143	1223.305	1252.656	1287.6257	1403.1061	1471.1573	1474.0189	1479.1984	1487.6001	1501.9604	1503.482	1654.9676	1707.0875	3027.8611	3046.985	3103.6275	3120.0553	3149.5338	3161.1557	3277.4685
COC1=CN=C(OC)O1	COc1cnc(OC)o1	
InChI=1S/C5H7NO3/c1-7-4-3-6-5(8-2)9-4/h3H,1-2H3	InChI=1S/C5H7NO3/c1-7-4-3-6-5(8-2)9-4/h3H,1-2H3
