16
gdb 34356	2.96306	1.62127	1.31774	3.4708	73.13	-0.2364	0.0024	0.2388	973.2281	0.126153	-396.84951	-396.842409	-396.841465	-396.880919	28.172	
N	 0.0178701226	-1.1413989657	-0.0817016559	-0.338254
C	 0.0216328265	 0.0149081636	-0.0367660906	 0.185991
C	 0.0195022659	 1.4586306859	 0.0043203356	 0.227966
N	-0.4477561952	 2.1861457139	-1.2030526624	-0.345632
C	 0.8366578566	 2.9514612727	-1.2821950675	-0.178641
C	 1.3453677302	 2.2893302704	 0.0305124213	-0.106217
C	 0.9131995084	 2.8821581078	 1.3905649941	-0.055509
N	-0.3832460726	 3.5563249577	 1.1828945489	-0.318763
C	-0.3561268922	 2.0969308781	 1.3834217803	-0.095535
H	-0.6016652881	 1.5685103982	-1.991763835	 0.233026
H	 1.4541928889	 2.6993182447	-2.1502509738	 0.105737
H	 0.6810454004	 4.0314184252	-1.2386116925	 0.126846
H	 2.3111437989	 1.7885791771	 0.0193623119	 0.104553
H	 1.5630324814	 3.15051517	 2.213340046	 0.104147
H	-0.6629803002	 3.9735154804	 2.0695464173	 0.239972
H	-0.9101783818	 1.6220864101	 2.1833413825	 0.110314
135.9952	156.1636	222.307	303.596	419.4638	468.7212	532.2512	546.2538	629.858	639.7763	741.9356	785.8864	817.6335	844.6657	893.1383	924.1555	970.4548	979.3295	986.5171	1013.4968	1048.9449	1069.2317	1091.1954	1122.4629	1146.8679	1180.6888	1213.945	1226.72	1295.1341	1314.9366	1326.3072	1367.9785	1391.9072	1494.283	2343.3486	3046.0629	3110.2911	3141.1321	3191.8667	3204.9796	3486.7357	3548.0232
N#CC12NCC1C1NC21	N#C[C@]12NC[C@H]1[C@H]1N[C@@H]21	
InChI=1S/C6H7N3/c7-2-6-3(1-8-6)4-5(6)9-4/h3-5,8-9H,1H2	InChI=1S/C6H7N3/c7-2-6-3(1-8-6)4-5(6)9-4/h3-5,8-9H,1H2/t3-,4+,5+,6-/m0/s1
