23
gdb 104522	1.97742	1.37966	0.99087	0.5819	90.71	-0.2585	0.0522	0.3107	1326.7694	0.204145	-351.119661	-351.109594	-351.10865	-351.154594	38.286	
C	 0.5706362737	-0.4394782653	 1.7312502182	-0.393912
C	 0.1578912984	-0.0999731887	 0.29426493	-0.246285
C	-1.20037207	-0.6597887751	-0.137904243	 0.361593
C	-2.3681736294	-0.1197279425	 0.722438618	-0.42002
C	-2.5120291505	 1.3311852483	 0.6782445938	 0.314728
C	-2.6188570132	 2.5279832129	 0.6266939581	-0.454907
C	-1.5202823468	-0.5491715284	-1.6629364415	-0.262826
C	-1.9753031258	-2.033169924	-1.6640162939	-0.215124
C	-1.3020375785	-2.2147786714	-0.2765757792	-0.261561
H	 1.5920041613	-0.1007973138	 1.9303334889	 0.113408
H	-0.0795214874	 0.0430447576	 2.4675081664	 0.122257
H	 0.5397557049	-1.5197854499	 1.9125588476	 0.114629
H	 0.1513043413	 0.9889822006	 0.1617118415	 0.109591
H	 0.9160043368	-0.4899403805	-0.3966680205	 0.086624
H	-3.3043157518	-0.5814003879	 0.3830231561	 0.124705
H	-2.2358748274	-0.4433099062	 1.7624218888	 0.127693
H	-2.7214042119	 3.5840628855	 0.5897943172	 0.192996
H	-2.2535429504	 0.2074275039	-1.9534107314	 0.104534
H	-0.6135155443	-0.3921062781	-2.2541852016	 0.095061
H	-3.0622736246	-2.1424415643	-1.622607784	 0.102118
H	-1.6052828091	-2.6625421098	-2.4763328021	 0.097439
H	-0.3142050613	-2.6788318084	-0.3513615581	 0.095578
H	-1.8712620138	-2.7455305144	 0.4923728307	 0.09168
59.135	109.4049	127.2754	140.4971	198.8795	254.2989	307.9811	333.5833	362.9363	373.8041	423.4951	518.4608	617.0389	630.5767	648.3675	718.8657	784.0376	793.5254	854.2408	885.1448	896.3193	944.438	951.6398	972.1631	989.3134	1023.4193	1053.7191	1069.8512	1122.0911	1165.519	1204.2591	1211.3564	1250.8604	1258.2792	1266.2869	1274.1926	1313.4052	1327.1363	1345.9264	1374.5498	1411.2193	1468.2437	1475.8868	1482.8852	1488.3716	1501.4243	1506.8511	1511.8347	2232.8986	3019.4462	3021.8548	3034.0612	3045.9804	3051.9291	3055.0308	3056.6867	3063.4909	3090.7728	3099.6678	3102.5364	3106.7845	3118.5813	3506.6118
CCC1(CC#C)CCC1	CCC1(CC#C)CCC1	
InChI=1S/C9H14/c1-3-6-9(4-2)7-5-8-9/h1H,4-8H2,2H3	InChI=1S/C9H14/c1-3-6-9(4-2)7-5-8-9/h1H,4-8H2,2H3
