18
gdb 83411	2.59971	1.38555	1.1262	14.4849	74.14	-0.1651	-0.0331	0.1319	1127.5849	0.148283	-439.010501	-439.001786	-439.000842	-439.044185	32.142	
N	-0.0474926291	 1.0626639269	 0.0501576343	-0.428916
H	 0.4099431642	 0.1499647621	 0.1301938307	 0.326352
H	 0.6742737082	 1.7566931724	-0.1591890522	 0.335325
H	-0.7078912592	 1.028404357	-0.7299538108	 0.322456
C	-0.7210603776	 1.4042964544	 1.3710467675	-0.128566
C	-1.4433780128	 0.3838476475	 2.1528615505	-0.100317
C	-0.7501546426	-0.9818029404	 2.1373225445	-0.2689
C	 0.5783041753	-0.3243777356	 2.6210898355	-0.322393
C	-0.0874235205	 1.0507727299	 2.6555169872	 0.231691
C	 0.1124906475	 2.1872622796	 3.7006107298	 0.284773
O	 0.885355609	 1.8867048715	 4.6193597395	-0.469564
O	-0.5455135354	 3.2129896039	 3.4305613987	-0.496751
H	-1.0981109586	 2.4232040103	 1.3756730878	 0.166336
H	-2.4538569757	 0.5762373578	 2.4935428601	 0.1179
H	-1.1719476531	-1.6593689234	 2.8806862403	 0.138435
H	-0.7417477632	-1.5250596305	 1.1797507144	 0.067573
H	 0.8649259568	-0.610912115	 3.6326487493	 0.161484
H	 1.4694861667	-0.4398844284	 1.9842413531	 0.063081
68.7324	125.1767	161.1384	187.1433	202.965	233.5143	337.6831	421.9704	488.8311	520.5668	655.6893	730.8679	769.6327	775.4535	779.991	809.1384	883.2511	938.089	943.0872	973.2509	1006.2801	1025.6267	1059.5498	1119.3873	1157.1259	1190.9303	1200.5551	1249.7631	1257.1388	1281.9875	1322.8774	1329.6305	1415.1067	1442.1486	1490.0628	1512.5668	1642.4643	1649.1561	1784.9319	2970.4529	2985.3696	3115.841	3139.8757	3173.8552	3187.9948	3393.9157	3482.0699	3496.0395
[NH3+]C1C2CCC12C([O-])=O	[NH3][C@H]1[C@H]2CC[C@@]12C(=O)[O]	
InChI=1S/C6H9NO2/c7-4-3-1-2-6(3,4)5(8)9/h3-4H,1-2,7H2,(H,8,9)	InChI=1S/C6H9NO2/c7-4-3-1-2-6(3,4)5(8)9/h3-4H,1-2H2,7H3/t3-,4+,6+/m1/s1
