20
gdb 107390	3.20988	1.22504	1.00559	0.9202	80.02	-0.2355	0.0248	0.2603	1262.0773	0.17038	-403.166627	-403.157724	-403.15678	-403.200195	33.635	
C	 0.1067075232	 1.490614266	-0.1777587191	-0.371295
C	-0.0923976776	-0.0145609827	 0.0332956586	-0.270439
C	 0.6252885762	-0.5274944374	 1.2578323958	 0.344098
C	 2.1067902528	-0.8693566955	 1.2397896094	-0.355942
C	 1.0971187149	-1.9474915164	 1.5184586822	 0.00005
O	 0.808332283	-2.201127023	 2.8832901213	-0.247957
C	 0.2856896686	-1.0309170569	 3.3659574414	 0.384823
C	-0.0451520239	-1.032535792	 4.8175110677	-0.479048
N	 0.1338191794	-0.0684771906	 2.5430575766	-0.345847
H	 1.1644917227	 1.7298168649	-0.3296530576	 0.113171
H	-0.4485296242	 1.8412545118	-1.0530093412	 0.106119
H	-0.2402328252	 2.0471542154	 0.6968848231	 0.139616
H	-1.1617458972	-0.2367549266	 0.1333061177	 0.103162
H	 0.2639325593	-0.5682924885	-0.8438097068	 0.091447
H	 2.5853143562	-0.9132417636	 0.266711133	 0.116756
H	 2.7357022325	-0.515658379	 2.0501875929	 0.119283
H	 0.9649313171	-2.8168541343	 0.8868233893	 0.109476
H	-0.6954781028	-1.8791867361	 5.0578443788	 0.144532
H	 0.863983848	-1.1390123886	 5.4181808756	 0.145528
H	-0.541538573	-0.0984620368	 5.0787010413	 0.152466
82.4198	130.4199	163.117	168.5629	216.8136	290.4529	327.3439	389.1761	421.9646	459.5084	613.2309	650.4749	706.0636	765.0055	796.8689	846.5365	865.0059	922.3097	950.7046	977.3347	998.2809	1006.5519	1040.6572	1065.2128	1069.7184	1096.1835	1126.0231	1129.1727	1223.0412	1253.7684	1301.5987	1325.7363	1363.8108	1398.4512	1408.1114	1411.6081	1466.7183	1474.5433	1478.2739	1481.0972	1495.384	1510.2612	1711.0646	3026.2372	3038.6773	3049.5985	3062.1759	3104.8493	3106.62	3122.8398	3125.4906	3164.2665	3190.7244	3218.2211
CCC12CC1OC(C)=N2	CC[C@]12C[C@H]1OC(=N2)C	
InChI=1S/C7H11NO/c1-3-7-4-6(7)9-5(2)8-7/h6H,3-4H2,1-2H3	InChI=1S/C7H11NO/c1-3-7-4-6(7)9-5(2)8-7/h6H,3-4H2,1-2H3/t6-,7+/m1/s1
