23
gdb 117766	2.08309	1.01301	0.93024	1.2516	88.06	-0.2582	0.0478	0.306	1479.6891	0.202561	-388.262581	-388.2513	-388.250355	-388.298821	41.561	
C	 0.0268240411	 1.6638175486	-0.0246491464	-0.381846
C	 0.05222905	 0.1344491884	 0.0725110122	-0.195063
C	 0.640836736	-0.5037538594	-1.1918993242	-0.167602
C	 0.6943063683	-2.0590906752	-1.2224602881	 0.01396
C	 1.4609553755	-2.6434946879	-0.0170460633	-0.422674
C	-0.7357012229	-2.6689814027	-1.2562384708	-0.06763
O	-1.4981470621	-2.2385685688	-2.3628405128	-0.423594
C	 1.3590996337	-2.4642482947	-2.4678415842	 0.320791
C	 1.8558224361	-2.8012587996	-3.511323191	-0.486327
H	 1.0357644354	 2.068637274	-0.1614596286	 0.1139
H	-0.5799829537	 1.9952820938	-0.874163907	 0.11947
H	-0.3924993434	 2.112540293	 0.8811403749	 0.111092
H	 0.634795605	-0.1590871766	 0.9536078804	 0.097391
H	-0.9684629967	-0.2290347508	 0.2394397014	 0.105643
H	 0.0571419999	-0.1799994756	-2.0598632268	 0.113196
H	 1.6602071002	-0.1279343039	-1.3417139076	 0.097449
H	 0.9253611051	-2.4463000026	 0.9159326849	 0.120238
H	 1.5776828412	-3.7258739822	-0.1205075085	 0.124116
H	 2.458770436	-2.2024016101	 0.0599877179	 0.12478
H	-0.6475021603	-3.7659213261	-1.2273315896	 0.090339
H	-1.2859169252	-2.3578824687	-0.3633974113	 0.109937
H	-1.0040012682	-2.4833850717	-3.1552155945	 0.285122
H	 2.3221043291	-3.0949476613	-4.419411807	 0.197311
65.2433	82.6129	119.7089	130.0056	198.8345	226.2625	239.0333	248.0155	258.2933	321.3779	347.9981	414.011	427.6517	459.4632	558.5578	599.6676	626.6157	645.8164	737.0287	746.8528	862.8275	867.2585	921.812	937.0636	998.0167	1041.17	1055.1861	1089.0994	1102.1934	1166.3124	1182.6007	1212.7115	1261.2961	1289.1523	1330.9323	1345.1344	1385.0444	1395.5783	1405.6753	1414.9716	1428.1104	1477.3537	1492.1897	1493.813	1497.3158	1500.3322	1505.2463	1511.0843	2220.0789	2986.2864	3028.3735	3030.5098	3037.463	3042.4517	3060.3021	3084.4929	3087.1372	3101.5794	3104.3587	3116.725	3117.5718	3498.799	3775.2227
CCCC(C)(CO)C#C	CCC[C@@](C)(CO)C#C	
InChI=1S/C8H14O/c1-4-6-8(3,5-2)7-9/h2,9H,4,6-7H2,1,3H3	InChI=1S/C8H14O/c1-4-6-8(3,5-2)7-9/h2,9H,4,6-7H2,1,3H3/t8-/m0/s1
