14
gdb 17203	5.47303	1.61771	1.46472	2.0828	57.76	-0.2591	0.0534	0.3125	838.0189	0.106269	-419.562164	-419.555806	-419.554862	-419.592452	25.101	
O	 0.1130353462	 1.4346539695	-0.0732739814	-0.45086
C	 0.0956200501	 0.0508954576	-0.0793158167	 0.211655
C	 0.0404200637	-0.6812778037	 1.3016078459	-0.139053
O	-1.3491556944	-0.1469008958	 1.4469526247	-0.340245
C	-1.2926349093	-0.6590035219	 0.0426155	-0.139053
C	-0.5582184083	-1.8880057738	 0.5786818723	 0.572449
C	-0.1090230177	-3.1796442958	 0.0802079094	-0.306931
O	-1.0991923072	-3.0441901173	 1.1310235171	-0.27513
H	-0.5262461162	 1.6921308562	 0.6081765271	 0.290683
H	 0.7989996677	-0.3141031374	-0.8305306221	 0.098659
H	 0.6989801684	-0.6172920794	 2.16637234	 0.110349
H	-2.1922317214	-0.5689810378	-0.5642078022	 0.110349
H	-0.4900272508	-3.5640841336	-0.8641077147	 0.128563
H	 0.8485186492	-3.586452557	 0.4000688907	 0.128563
158.8508	264.1362	284.6479	327.8358	453.5083	482.7708	583.2415	616.8672	726.2715	747.4194	767.0021	841.7242	884.1897	886.6344	921.3181	1014.708	1074.2089	1101.3587	1108.1475	1114.8428	1141.3788	1155.7586	1171.114	1181.2282	1209.5886	1248.7321	1315.7715	1444.9172	1469.6824	1562.0339	3091.9115	3102.8925	3139.1118	3144.0401	3180.8549	3728.075
OC1C2OC1C21CO1	O[C@H]1[C@H]2O[C@@H]1[C@]12CO1	
InChI=1S/C5H6O3/c6-2-3-5(1-7-5)4(2)8-3/h2-4,6H,1H2	InChI=1S/C5H6O3/c6-2-3-5(1-7-5)4(2)8-3/h2-4,6H,1H2/t2-,3+,4-,5+
