19
gdb 39924	3.23205	1.5188	1.22455	2.0447	80.76	-0.2304	0.0104	0.2409	1053.8117	0.160997	-385.865884	-385.858565	-385.85762	-385.89766	29.426	
C	-0.1399298985	 1.4862301707	 0.0637983305	-0.311654
C	 1.2450885807	 0.9023223729	-0.0021767179	-0.322977
C	 0.0400320892	-0.0169586781	 0.0173375089	 0.347914
C	-0.2442684331	-0.8791040137	 1.1973625051	-0.127136
C	-0.650699478	-2.1054031395	 0.8591506518	-0.111374
C	-0.7340535341	-2.2614512829	-0.6358281802	 0.081491
O	-2.0844410765	-2.1723679186	-1.1674583152	-0.296256
C	-1.8541068805	-0.8217563452	-1.6227517933	-0.078404
C	-0.3696378902	-0.8559520678	-1.1887954769	-0.190998
H	-0.4686002755	 1.9328855127	 0.9964230656	 0.114899
H	-0.5325094868	 1.9728656054	-0.8231052624	 0.11621
H	 1.7938571967	 0.9890840619	-0.9345719176	 0.114884
H	 1.8662934102	 0.9467485815	 0.8862884997	 0.114324
H	-0.1146114964	-0.5170139437	 2.2127828215	 0.097806
H	-0.9122756867	-2.8981406351	 1.5498123945	 0.100041
H	-0.2259436633	-3.1502985314	-1.0265832867	 0.075569
H	-2.0351070136	-0.7258387333	-2.7000524491	 0.098038
H	-2.4733663993	-0.090220647	-1.0880442127	 0.099644
H	 0.3434074256	-0.8169396589	-2.0130613554	 0.077979
86.2407	199.6227	208.3298	281.4993	333.5185	439.1235	491.9686	586.8761	706.6087	755.2814	779.049	781.7742	854.1846	889.455	900.4081	901.4933	935.0694	951.7946	974.6342	987.0699	1004.6988	1013.1468	1047.0608	1057.9175	1069.8207	1081.0227	1120.0322	1164.5132	1190.57	1207.0492	1259.8914	1280.3992	1284.4639	1333.5208	1337.4758	1353.2287	1406.1592	1464.5485	1497.1099	1521.1862	1663.7452	3011.322	3040.9788	3054.911	3101.4839	3123.8348	3127.9852	3175.3697	3202.9378	3210.7459	3218.2945
C1CC11C=CC2OCC12	C1CC21C=C[C@H]1OC[C@@H]21	
InChI=1S/C8H10O/c1-2-8(3-4-8)6-5-9-7(1)6/h1-2,6-7H,3-5H2	InChI=1S/C8H10O/c1-2-8(3-4-8)6-5-9-7(1)6/h1-2,6-7H,3-5H2/t6-,7-/m1/s1
