17
gdb 53465	4.86427	0.68387	0.60622	0.4438	79.05	-0.2374	-0.0849	0.1525	1815.0541	0.130668	-421.83685	-421.82592	-421.824976	-421.875904	35.761	
C	 0.1300492499	 1.4990518413	 0.1434318097	-0.499135
C	 0.0493594114	 0.053185746	-0.0002705586	 0.139909
C	-0.0180689667	-1.1418639849	-0.1188798651	 0.036858
C	-0.110040796	-2.5834662188	-0.2593588545	-0.49107
C	-1.4994056274	-3.1534736929	 0.0162849963	 0.278448
O	-2.4655221676	-2.5035251043	 0.3262762666	-0.260781
C	-1.6142608015	-4.6927864286	-0.1296635154	 0.304788
C	-2.9766782923	-5.2801085852	 0.1374502091	-0.474771
O	-0.6405412991	-5.3382916063	-0.4410309768	-0.273759
H	 0.8562806714	 1.7831706998	 0.9129068439	 0.148178
H	 0.4360364199	 1.9762902534	-0.7940342928	 0.14818
H	-0.8394904897	 1.9208720561	 0.429864066	 0.153531
H	 0.1837508304	-2.917057804	-1.2641400098	 0.164828
H	 0.5922803855	-3.1057555602	 0.4048249404	 0.164827
H	-3.7148060956	-4.8348516319	-0.5371867	 0.158648
H	-2.9433618681	-6.3617798004	 0.0069985441	 0.142673
H	-3.3014513245	-5.0257582491	 1.151378107	 0.158647
20.3092	34.7851	50.3372	72.9121	107.9892	200.3044	203.3358	275.1008	322.7064	339.5796	381.4839	424.9309	515.9979	580.6273	603.4789	750.915	816.134	890.9388	921.4713	1034.2377	1051.4688	1054.4527	1055.1943	1173.9467	1195.7163	1240.8447	1349.914	1384.5223	1414.4825	1419.842	1452.0809	1459.6549	1477.8821	1478.152	1804.8517	1816.4266	2383.3063	3023.3454	3027.7735	3042.9966	3049.8208	3088.347	3090.337	3111.2403	3162.5278
CC#CCC(=O)C(C)=O	CC#CCC(=O)C(=O)C	
InChI=1S/C7H8O2/c1-3-4-5-7(9)6(2)8/h5H2,1-2H3	InChI=1S/C7H8O2/c1-3-4-5-7(9)6(2)8/h5H2,1-2H3
