20
gdb 100904	2.18755	1.12973	0.79311	4.7286	76.37	-0.2672	0.0376	0.3048	1454.5939	0.167905	-440.284598	-440.27357	-440.272626	-440.321465	37.923	
C	 0.0638585577	 1.3847103218	 0.1136028727	-0.242261
O	-0.087768119	-0.0048510975	-0.0802190627	-0.248499
C	 0.6451990807	-0.5402549925	-1.1711023845	 0.119466
C	 2.1341133689	-0.6788641287	-0.8499504892	-0.42029
C	-0.0220733406	-1.9044161529	-1.4772576535	-0.148318
C	-1.5180684184	-1.7643569109	-1.8015583705	-0.089339
O	-2.0432400457	-3.0729292438	-1.9169828451	-0.41545
C	 0.6726174977	-2.5868683459	-2.5718412797	 0.287376
N	 1.2356672749	-3.0921371601	-3.4453735521	-0.337117
H	 1.0815392324	 1.6588900225	 0.4233762721	 0.115916
H	-0.1857496859	 1.9494397084	-0.7976880982	 0.109347
H	-0.6290584302	 1.6717276903	 0.9079436545	 0.133715
H	 0.5197318888	 0.1115707278	-2.0521584597	 0.081558
H	 2.2721583984	-1.3128162456	 0.031566208	 0.128595
H	 2.6725578339	-1.1231689703	-1.6905774938	 0.152002
H	 2.5806662438	 0.297338615	-0.644675991	 0.121564
H	 0.0613078505	-2.529448401	-0.579511815	 0.141223
H	-1.9867926732	-1.199949265	-0.9876343653	 0.118073
H	-1.6351754168	-1.1929454542	-2.7350895735	 0.098235
H	-2.9610023278	-3.0097787375	-2.1963329735	 0.294205
51.9778	71.3085	93.1951	143.4007	163.8272	190.2752	208.5956	236.2858	258.854	300.2584	353.2341	369.6886	464.5289	478.2554	557.9039	609.825	834.7406	866.518	935.9482	1015.1106	1056.873	1090.2947	1103.649	1122.6235	1125.1893	1162.9901	1181.1809	1217.2949	1241.793	1249.8217	1284.8141	1343.7996	1371.5042	1382.2207	1408.8799	1447.9306	1478.294	1484.4134	1492.0383	1505.7001	1512.269	1528.1562	2359.7143	2963.7555	2985.3426	2987.8763	3039.3608	3047.4536	3049.6248	3063.6859	3117.9457	3121.5937	3132.5383	3837.3899
COC(C)C(CO)C#N	CO[C@@H](C)[C@@H](CO)C#N	
InChI=1S/C6H11NO2/c1-5(9-2)6(3-7)4-8/h5-6,8H,4H2,1-2H3	InChI=1S/C6H11NO2/c1-5(9-2)6(3-7)4-8/h5-6,8H,4H2,1-2H3/t5-,6+/m0/s1
