14
gdb 31306	2.47832	1.51596	0.94622	4.4902	73.92	-0.2245	-0.0255	0.1989	1159.6699	0.102772	-432.91403	-432.906021	-432.905077	-432.94713	28.384	
C	-0.0570138303	 1.4344663697	 0.0093174603	-0.241664
O	-0.0122563039	 0.0053736873	 0.0052182101	-0.260247
C	-1.1861396211	-0.6225646317	 0.0124258836	 0.316925
C	-1.3445913567	-2.0045373154	 0.0100525758	 0.108613
N	-2.7276637013	-2.1815814014	 0.0200056	-0.321171
C	-3.2917491706	-0.958317244	 0.0273695173	 0.029056
N	-2.3887325382	 0.0085846376	 0.0230790531	-0.342427
C	-0.4244618219	-3.0631419663	 0.0004219543	 0.214134
N	 0.322724362	-3.9509751041	-0.0074659631	-0.360205
H	 0.9840148795	 1.7577359278	 0.0019927274	 0.138768
H	-0.5783253857	 1.8112273905	-0.8752572228	 0.140055
H	-0.5643255457	 1.8065464215	 0.9039648367	 0.140033
H	-3.1999815316	-3.0706997762	 0.0212795768	 0.286136
H	-4.3613345146	-0.8132596354	 0.0357772806	 0.151995
85.9264	125.3607	162.8446	169.466	254.8396	323.6886	434.2633	503.3571	529.98	555.5466	633.8822	667.9383	744.6135	755.8608	828.0774	951.1909	1041.1168	1135.9794	1178.786	1182.1415	1207.4156	1261.5886	1321.5662	1394.6123	1457.9941	1482.7744	1493.2247	1498.607	1536.8945	1622.351	2329.6147	3043.9088	3116.0137	3156.3743	3259.499	3664.4502
COC1=C(NC=N1)C#N	COc1c([nH]cn1)C#N	
InChI=1S/C5H5N3O/c1-9-5-4(2-6)7-3-8-5/h3H,1H3,(H,7,8)	InChI=1S/C5H5N3O/c1-9-5-4(2-6)7-3-8-5/h3H,1H3,(H,7,8)
