17
gdb 44552	3.49044	1.48902	1.43076	4.2356	70.43	-0.2326	0.0665	0.2992	955.9176	0.139295	-418.025666	-418.018644	-418.0177	-418.057018	28.258	
O	 0.0048484329	-0.0573472927	 0.1204126346	-0.407408
C	-0.0130644931	 1.148130575	 0.0121670006	 0.406186
N	-1.1428040006	 1.9571287365	-0.0664509619	-0.330771
C	-0.8235120123	 3.3602658651	 0.0629902373	-0.016937
C	-0.8030034411	 4.0436056221	 1.4477550251	-0.059538
C	-0.0073951778	 3.249139128	 2.4402927754	-0.304407
C	 0.7378343084	 4.0646912279	 1.4260143946	-0.059529
C	 0.738019821	 3.3815073602	 0.041033152	-0.016932
N	 1.0916088634	 1.9875167768	-0.0978021008	-0.330779
H	-2.0243816202	 1.5563557712	 0.2071400039	 0.251347
H	-1.3046234115	 3.9712826885	-0.7044082242	 0.090832
H	-1.4838537012	 4.8294020625	 1.7519225869	 0.090253
H	 0.0012290787	 3.6584552293	 3.4451380917	 0.118635
H	 0.0070255784	 2.1639452172	 2.4090407017	 0.136621
H	 1.4052384078	 4.8689454779	 1.7111434762	 0.090252
H	 1.1805666894	 4.0050636614	-0.7393736688	 0.090826
H	 1.9910861979	 1.6109778532	 0.1508152757	 0.25135
104.4865	160.5039	318.172	322.0862	415.6916	444.9077	516.5667	570.2592	650.0534	702.735	766.8862	768.2409	771.8419	828.3337	879.7868	925.5384	955.5663	983.213	984.4254	1016.7124	1046.1239	1068.5342	1094.3032	1098.2551	1132.2386	1188.8629	1192.0573	1231.8541	1282.0998	1306.9741	1339.5702	1366.1453	1379.9954	1404.8868	1409.5674	1494.1114	1843.6662	3067.3963	3078.9706	3129.0132	3178.7865	3188.0327	3211.6595	3661.0318	3663.2707
O=C1NC2C3CC3C2N1	O=C1N[C@H]2[C@H]3C[C@H]3[C@H]2N1	
InChI=1S/C6H8N2O/c9-6-7-4-2-1-3(2)5(4)8-6/h2-5H,1H2,(H2,7,8,9)	InChI=1S/C6H8N2O/c9-6-7-4-2-1-3(2)5(4)8-6/h2-5H,1H2,(H2,7,8,9)/t2-,3+,4-,5+
