20
gdb 114024	4.49977	0.58448	0.55784	2.2615	77.48	-0.2491	-0.0221	0.227	1951.2285	0.169434	-440.260355	-440.250243	-440.249299	-440.297463	35.15	
O	-0.0553324817	 1.2144426812	-0.9442085175	-0.420104
C	 0.0123684397	 0.2688540037	 0.10965749	-0.065869
C	-1.3082626402	-0.4485527008	 0.2691208887	-0.044263
N	-1.6478181067	-1.3749364054	-0.8332360755	-0.350843
C	-1.4772439403	-1.9039273454	 0.5313903095	-0.01526
C	-0.3548857187	-2.895917194	 0.7457695216	-0.214586
C	-0.7424071605	-4.2965201356	 0.2328700303	-0.266013
C	 0.4079743588	-5.2702319722	 0.3278527108	 0.155229
O	 0.3807657671	-6.3202854265	 0.9159909961	-0.236214
H	-0.3291063221	 0.7191172211	-1.7254196237	 0.28896
H	 0.8259345928	-0.4505696034	-0.0562170725	 0.089923
H	 0.2479870557	 0.8338517693	 1.017738439	 0.11113
H	-2.1107991972	 0.1956787887	 0.6254812426	 0.093435
H	-2.6323432004	-1.3029058212	-1.0725344077	 0.236481
H	-2.3916745735	-2.1680216325	 1.0634106357	 0.089435
H	 0.5452484126	-2.5598959976	 0.2227641616	 0.112506
H	-0.1106484212	-2.944494154	 1.8140661595	 0.11477
H	-1.5959061084	-4.7086798278	 0.779595533	 0.117434
H	-1.0191504153	-4.2039343832	-0.8269806966	 0.132577
H	 1.3317979992	-4.9360272942	-0.2023166148	 0.071272
40.3924	55.1458	73.7322	88.9894	133.9739	195.1418	272.4029	304.0525	421.6717	443.1283	477.5868	506.1563	583.8789	756.3382	807.4919	837.5542	857.7852	917.776	970.6513	986.8719	1005.3913	1030.013	1065.5838	1077.008	1092.8195	1151.2292	1177.1274	1198.7773	1247.2716	1261.2321	1274.7502	1281.6103	1315.2137	1353.2889	1370.0811	1404.9767	1429.8459	1441.7338	1462.7002	1480.2418	1485.1827	1499.6617	1836.4086	2848.1774	3008.9346	3018.4181	3038.6775	3074.7819	3082.8652	3095.8321	3107.267	3122.6446	3512.7423	3789.5808
OCC1NC1CCC=O	OC[C@H]1N[C@H]1CCC=O	
InChI=1S/C6H11NO2/c8-3-1-2-5-6(4-9)7-5/h3,5-7,9H,1-2,4H2	InChI=1S/C6H11NO2/c8-3-1-2-5-6(4-9)7-5/h3,5-7,9H,1-2,4H2/t5-,6+/m0/s1
