19
gdb 109572	2.65892	1.29864	1.02484	2.0206	72.32	-0.2355	-0.0323	0.2032	1214.7483	0.156296	-460.1505	-460.140486	-460.139542	-460.185498	35.437	
C	 0.2814224999	 1.67413212	 0.4236403601	-0.247235
O	-0.3199957792	 0.4080754147	 0.6419436763	-0.236615
C	 0.5504081917	-0.5305435151	 1.1831279498	 0.042786
C	-0.022416028	-1.9778686832	 1.3695919545	-0.123445
C	-1.1616631247	-2.3177160625	 0.4170564358	-0.38506
C	 1.3758125901	-2.5628052935	 0.9138641933	 0.059441
O	 1.4498525934	-3.6804198633	 0.084432383	-0.428679
C	 1.5868629857	-1.1993642357	 0.2556014813	 0.299949
O	 2.0294429257	-0.9267678552	-0.8282641666	-0.319492
H	 1.1041703071	 1.6067959381	-0.2975467886	 0.139398
H	-0.49619584	 2.3297704962	 0.0263463208	 0.132134
H	 0.6626859024	 2.1012265626	 1.3640550064	 0.10587
H	 1.0226740703	-0.1683802734	 2.1113051566	 0.085992
H	-0.2816288469	-2.2191423357	 2.4016998276	 0.086535
H	-0.9195045462	-2.0493314581	-0.6158068597	 0.125692
H	-1.3671967121	-3.3906834926	 0.4465174307	 0.12827
H	-2.0681596881	-1.7734293345	 0.692008534	 0.129692
H	 2.0198318243	-2.7089038006	 1.7896616641	 0.106688
H	 1.5934822245	-3.3560493482	-0.8142520294	 0.298078
78.2001	98.8992	154.6008	170.0934	180.2154	197.9537	220.3088	235.9407	294.7023	335.3704	466.1767	520.3652	573.1685	607.7574	763.5949	810.3861	848.2882	898.5661	929.8581	1018.524	1048.3752	1071.8749	1112.7094	1125.4943	1162.4309	1180.5843	1198.6181	1237.33	1250.0508	1266.4864	1320.3976	1357.3254	1380.3979	1411.6202	1420.8879	1481.2811	1487.3272	1489.3818	1496.2832	1511.2196	1855.9433	2965.4226	2987.5997	3035.3119	3048.9506	3066.9898	3091.8643	3119.2749	3128.0247	3130.5633	3762.9888
COC1C(C)C(O)C1=O	CO[C@H]1[C@@H](C)[C@@H](O)C1=O	
InChI=1S/C6H10O3/c1-3-4(7)5(8)6(3)9-2/h3-4,6-7H,1-2H3	InChI=1S/C6H10O3/c1-3-4(7)5(8)6(3)9-2/h3-4,6-7H,1-2H3/t3-,4+,6-/m0/s1
