19
gdb 61462	2.72788	1.10859	0.91778	2.1283	71.9	-0.2436	0.05	0.2936	1319.9422	0.158934	-456.364812	-456.355123	-456.354178	-456.400047	35.073	
C	-0.1183082562	 1.5298150418	-0.0825225722	-0.404516
C	 0.018011867	 0.0133947869	 0.0310809815	 0.096287
O	-1.2926935986	-0.5918426284	 0.0913919513	-0.282066
C	-1.8744474628	-0.6506015061	 1.3190456235	 0.50363
N	-3.1265204396	-1.1828291543	 1.2103961076	-0.563746
O	-1.3676722989	-0.2637967581	 2.3454553724	-0.396588
C	 0.7412764645	-0.5960238109	-1.1541178417	 0.016206
C	 0.5329205541	-2.0018906607	-1.5652961451	-0.245507
N	 0.0338420227	-0.8939975353	-2.4074805764	-0.322851
H	 0.8724374834	 1.9902730733	-0.1472448338	 0.121737
H	-0.6826065153	 1.8026359002	-0.9792390642	 0.126017
H	-0.6249459195	 1.92899408	 0.7987502046	 0.141853
H	 0.5458644226	-0.2372657894	 0.9562020607	 0.117556
H	-3.3885590438	-1.6606658909	 0.3656199367	 0.264331
H	-3.5751925463	-1.4495717703	 2.0693528047	 0.271464
H	 1.7257882872	-0.1563327742	-1.30410208	 0.094416
H	 1.3536019795	-2.5702076528	-1.9933266429	 0.116816
H	-0.1917296804	-2.587176138	-1.007960885	 0.111493
H	-0.9659418698	-0.7940062526	-2.2436342116	 0.233467
50.8428	85.8045	95.3118	170.2494	223.4692	236.4002	287.0962	307.0566	373.6556	458.8264	483.9165	520.2914	599.4697	653.4744	771.5925	782.2124	845.3883	871.6531	927.9497	962.1625	983.0594	1027.3326	1061.9358	1101.9977	1112.113	1126.4274	1153.6041	1162.6502	1204.6796	1274.1898	1304.9764	1335.0914	1356.4835	1398.2194	1406.5384	1426.1695	1488.062	1500.7227	1508.3528	1611.2829	1833.2137	3045.1694	3071.0365	3115.4832	3117.7482	3125.8742	3136.2236	3205.6548	3494.8809	3618.6346	3749.3955
CC(OC(N)=O)C1CN1	C[C@@H](OC(=O)N)[C@H]1CN1	
InChI=1S/C5H10N2O2/c1-3(4-2-7-4)9-5(6)8/h3-4,7H,2H2,1H3,(H2,6,8)	InChI=1S/C5H10N2O2/c1-3(4-2-7-4)9-5(6)8/h3-4,7H,2H2,1H3,(H2,6,8)/t3-,4-/m1/s1
