19
gdb 105622	2.08569	1.34126	1.18031	2.1047	77.46	-0.2507	0.0317	0.2824	1184.1713	0.156851	-422.968573	-422.958912	-422.957967	-423.002867	35.778	
C	-0.5008085068	 1.3766602446	-0.0227684346	-0.418987
C	 0.233580885	 0.0539099888	-0.0758368762	 0.122982
O	 1.5644011751	 0.1588918862	-0.6266274347	-0.293073
C	 2.0856291902	-0.7628539315	 0.3491557363	-0.10633
C	 0.8053836916	-0.6222725447	 1.2182710296	 0.03303
C	 1.0298926782	 0.3297093476	 2.4086100801	-0.115915
O	 1.8661653874	-0.2514535027	 3.3878142422	-0.422582
C	 0.1614207617	-1.8410909323	 1.671748853	 0.248641
C	-0.3666746086	-2.8391598504	 2.0889588651	-0.449087
H	 0.0492281822	 2.1303962502	 0.5452810726	 0.127816
H	-0.6361800406	 1.7543202355	-1.0411930326	 0.134381
H	-1.4920670356	 1.2465577169	 0.4237132401	 0.125544
H	-0.357803802	-0.6765224773	-0.6470857542	 0.077269
H	 2.2310776575	-1.7671858493	-0.0671322587	 0.10517
H	 3.0130004759	-0.4118570167	 0.8111380785	 0.124677
H	 1.5478541407	 1.2272781298	 2.0599614083	 0.120911
H	 0.0595895955	 0.633936535	 2.8282627432	 0.096715
H	 1.4414971719	-1.0680486144	 3.6774425508	 0.287895
H	-0.8377669392	-3.7276774352	 2.431131901	 0.200945
89.0539	116.5331	145.0375	163.6254	195.6123	224.8843	286.699	339.4042	390.6963	434.5134	483.1092	528.3251	546.8257	630.0214	644.9096	648.6814	772.6612	878.1846	912.2621	938.1179	1015.4705	1020.7732	1047.6826	1084.414	1100.6794	1136.571	1158.4164	1172.1545	1212.5727	1273.4032	1297.1817	1352.7251	1377.6301	1392.5224	1411.2643	1429.1529	1482.1352	1496.2407	1508.4961	1526.9237	2224.3136	2993.0034	2994.5665	3024.7767	3042.6322	3090.4073	3095.2646	3109.8602	3129.4016	3497.5058	3782.1459
CC1OCC1(CO)C#C	C[C@H]1OC[C@]1(CO)C#C	
InChI=1S/C7H10O2/c1-3-7(4-8)5-9-6(7)2/h1,6,8H,4-5H2,2H3	InChI=1S/C7H10O2/c1-3-7(4-8)5-9-6(7)2/h1,6,8H,4-5H2,2H3/t6-,7-/m1/s1
