16
gdb 10106	3.13719	1.24336	0.92825	3.1398	68.15	-0.2488	-0.0264	0.2224	1204.353	0.126204	-383.697708	-383.688341	-383.687397	-383.732698	31.842	
C	 0.2756396364	 1.5180013386	 0.0147463495	-0.242312
O	-0.0771165536	 0.14889411	 0.0776173202	-0.23215
C	 0.5945560646	-0.5757239536	 1.0950002937	-0.092632
C	-0.0869895866	-1.9526964074	 1.172775238	-0.28769
C	-1.5370924693	-1.8612813701	 1.6071326676	 0.149343
O	-2.0676323026	-2.654322394	 2.3418532303	-0.24161
C	 2.0334462881	-0.707633466	 0.8347225993	 0.337779
C	 3.2091120373	-0.8249459912	 0.6143154755	-0.445962
H	 1.3411100677	 1.6504613449	-0.2133772728	 0.125582
H	-0.3219497519	 1.9612214907	-0.7843189413	 0.134351
H	 0.0505444158	 2.034630391	 0.9601155843	 0.109547
H	 0.4673278624	-0.0531890709	 2.0597775614	 0.102051
H	-0.0594757946	-2.3881300049	 0.1654496096	 0.146736
H	 0.4495974215	-2.6219470067	 1.8484267018	 0.13582
H	-2.0942201988	-0.9994660117	 1.182657999	 0.096406
H	 4.2491052237	-0.9270237086	 0.4227414139	 0.204741
51.6837	82.9036	104.2412	133.471	178.5161	235.9069	262.3149	313.8042	423.2567	450.2372	559.2836	590.8779	634.6005	682.7326	788.6944	859.7605	966.6473	1024.9519	1082.8005	1102.0648	1142.3761	1183.9066	1200.6916	1249.4881	1276.9581	1352.9266	1367.2282	1418.7916	1441.1437	1478.9148	1485.534	1509.9829	1831.5765	2232.0692	2914.9037	2945.4426	2988.9858	3041.3794	3053.3082	3124.144	3128.0807	3500.7414
COC(CC=O)C#C	CO[C@@H](CC=O)C#C	
InChI=1S/C6H8O2/c1-3-6(8-2)4-5-7/h1,5-6H,4H2,2H3	InChI=1S/C6H8O2/c1-3-6(8-2)4-5-7/h1,5-6H,4H2,2H3/t6-/m1/s1
