19
gdb 63763	2.93361	1.40673	1.16182	3.4033	79.44	-0.2545	0.0081	0.2627	1112.3149	0.158895	-382.041663	-382.03301	-382.032066	-382.074431	33.293	
C	-0.1943024637	 1.5844966663	-0.0247947662	-0.472041
C	-0.0118815051	 0.0686432608	 0.0016224031	 0.300121
C	-1.3577189868	-0.6385468472	-0.1958350731	-0.434689
C	 1.0958805014	-0.5793099764	-0.887611305	-0.229978
N	 1.673693703	-1.3439234824	 0.284332273	-0.139384
C	 2.2025729047	-0.3337729105	 1.2344186492	-0.17012
C	 2.8760924615	 0.864099034	 0.8013679966	 0.314483
N	 3.4558650427	 1.8071352014	 0.4645152849	-0.351357
C	 0.7344959804	-0.5703262008	 1.1836007432	-0.067923
H	 0.746988908	 2.1234135638	 0.0946278623	 0.150748
H	-0.6377909436	 1.8937517467	-0.9779803309	 0.119151
H	-0.8746016073	 1.9043761026	 0.7724497207	 0.117692
H	-1.7897486827	-0.3723045644	-1.1662593831	 0.121407
H	-1.2489989528	-1.7271412121	-0.1591102259	 0.126901
H	-2.0717556333	-0.3424806681	 0.5807141262	 0.118344
H	 0.7194360998	-1.2837897747	-1.6307974399	 0.11853
H	 1.8113221635	 0.098542554	-1.360790387	 0.131215
H	 2.7106502074	-0.8130679146	 2.0676942494	 0.143495
H	 0.2495852731	-1.0421047884	 2.0350437425	 0.103404
128.4412	134.8028	199.8788	219.3604	259.4609	287.4135	346.041	371.5459	423.2256	442.3853	579.0986	618.5755	641.3636	739.9404	780.8939	853.0185	892.1437	913.4253	948.9887	968.102	987.2398	1001.6079	1043.3506	1061.4173	1089.3684	1168.3016	1219.3953	1224.7106	1240.2502	1265.9233	1289.1215	1362.9845	1397.1373	1405.091	1427.0054	1486.8461	1487.5309	1500.6849	1505.4487	1513.3714	2347.4545	3027.3731	3034.3066	3066.5466	3090.8167	3098.225	3104.7395	3127.4948	3137.2284	3138.1074	3149.5375
CC1(C)CN2C(C#N)C12	CC1(C)CN2[C@@H](C#N)[C@@H]12	
InChI=1S/C7H10N2/c1-7(2)4-9-5(3-8)6(7)9/h5-6H,4H2,1-2H3	InChI=1S/C7H10N2/c1-7(2)4-9-5(3-8)6(7)9/h5-6H,4H2,1-2H3/t5-,6-,9?/m0/s1
