21
gdb 83247	1.83875	1.75586	1.54711	2.8861	77.27	-0.2444	0.0602	0.3046	1059.8357	0.183057	-424.226253	-424.217256	-424.216312	-424.259224	35.23	
C	-0.2217170182	 1.4731293326	 0.0238696914	-0.490681
C	 0.0525102045	-0.0116842367	 0.0244861005	 0.281179
C	-0.7635351281	-0.9294476842	 0.8861696618	 0.03368
O	-1.3111766162	-2.0894890604	 0.3065014757	-0.428043
C	 0.7139189498	-0.7705285935	 1.1676625651	-0.143801
C	 1.6911331898	-1.7901404787	 0.5920419774	-0.23451
C	 1.3384377621	-1.9160404773	-0.9057170848	-0.243377
C	 0.5546008746	-0.6312272405	-1.287067013	 0.100053
O	-0.4742259782	-0.8451878582	-2.2382221997	-0.450955
H	 0.6904234682	 2.0437860294	-0.1869214617	 0.11454
H	-0.9575404998	 1.7233878312	-0.7482918182	 0.13308
H	-0.6129805352	 1.8140753539	 0.9876018939	 0.108897
H	-1.4365832257	-0.4421737341	 1.5922168265	 0.086226
H	-1.2768899188	-2.8040036068	 0.9508134856	 0.292665
H	 0.9850666058	-0.2670479837	 2.0912521562	 0.078406
H	 2.7093677214	-1.4077277983	 0.723448581	 0.103975
H	 1.6536669235	-2.7562825693	 1.1093867267	 0.090317
H	 2.2260711278	-2.0448665022	-1.530671457	 0.095921
H	 0.6904473383	-2.7764629135	-1.0818349367	 0.103061
H	 1.228175417	 0.0914640442	-1.763110616	 0.078945
H	-1.0998670627	-1.449229654	-1.8187482845	 0.290422
123.6738	172.4489	196.0944	214.3664	230.7358	261.288	276.7318	361.8319	433.8818	499.8088	514.256	566.2123	571.969	690.5544	730.419	784.6516	846.4172	857.7168	915.4102	958.9788	992.6879	1015.7168	1060.1678	1068.5223	1078.8144	1097.0046	1123.2683	1132.2467	1189.0115	1216.7486	1246.267	1267.0908	1291.3052	1315.2919	1322.6875	1338.2962	1346.8728	1372.262	1412.3876	1452.4826	1468.2806	1486.741	1487.8314	1501.5961	1509.1893	3023.0715	3029.5006	3034.7191	3061.4668	3069.9606	3086.2241	3093.1558	3100.1848	3118.8612	3148.3172	3779.1498	3807.8134
CC12C(O)C1CCC2O	C[C@]12[C@@H](O)[C@H]1CC[C@H]2O	
InChI=1S/C7H12O2/c1-7-4(6(7)9)2-3-5(7)8/h4-6,8-9H,2-3H2,1H3	InChI=1S/C7H12O2/c1-7-4(6(7)9)2-3-5(7)8/h4-6,8-9H,2-3H2,1H3/t4-,5-,6+,7+/m1/s1
