14
gdb 132963	2.42973	1.91899	1.0795	4.5704	67.69	-0.2399	-0.0538	0.186	1013.1098	0.101131	-478.034708	-478.027004	-478.02606	-478.068087	27.642	
C	-0.0677872853	 1.4653217193	 0.0089790548	-0.362844
N	-0.0310507473	-0.0002592987	 0.001108245	-0.220004
C	-1.1657427177	-0.7159021473	 0.0040663496	 0.439834
F	-2.2782272343	-0.0031265756	 0.01447377	-0.049754
C	-1.1780999776	-2.0784686427	-0.0030970019	-0.348082
C	 0.1014508482	-2.6768528453	-0.0139729742	 0.04443
N	 1.243770775	-2.0412125751	-0.0173443617	-0.334198
C	 1.2629784041	-0.6652571723	-0.0098221086	 0.461453
O	 2.2624933869	 0.0165870579	-0.0120792356	-0.377673
H	 0.9693743625	 1.7928331718	 0.0015493671	 0.189831
H	-0.5910443897	 1.8389449975	-0.8743444425	 0.148848
H	-0.5750154854	 1.8299261016	 0.9053759746	 0.14889
H	-2.1030061003	-2.6339830195	-0.0005384783	 0.128646
H	 0.1618277109	-3.7651102416	-0.0202710982	 0.130622
32.8252	102.1113	194.4281	242.4312	330.8164	391.6995	479.9742	499.2392	544.4991	597.8325	694.6788	728.0718	776.7772	803.3746	841.7351	956.4698	1006.7001	1021.8883	1104.7912	1153.3708	1193.8208	1216.5392	1316.6049	1408.6544	1416.8556	1492.1343	1503.4261	1513.4529	1567.1418	1690.626	1806.4892	3059.1071	3126.6241	3133.307	3188.2214	3254.697
CN1C(F)=CC=NC1=O	Cn1c(F)ccnc1=O	
InChI=1S/C5H5FN2O/c1-8-4(6)2-3-7-5(8)9/h2-3H,1H3	InChI=1S/C5H5FN2O/c1-8-4(6)2-3-7-5(8)9/h2-3H,1H3
