18
gdb 99058	3.15805	0.86997	0.78498	4.0823	73.92	-0.2895	-0.0038	0.2857	1529.8796	0.144643	-439.141593	-439.13123	-439.130286	-439.180301	35.113	
C	-0.3420982885	 1.3968681862	 0.0244292687	-0.37474
C	 0.2833617211	 0.0044493444	 0.0023872204	-0.307099
C	 0.8066867319	-0.3813821201	-1.3622140494	 0.461219
O	 0.7337399848	 0.2772583319	-2.365046948	-0.340755
O	 1.3964028943	-1.6118765343	-1.3088857415	-0.255039
C	 1.9199548182	-2.1283190151	-2.5441866315	-0.012713
C	 3.2081245269	-2.8861117668	-2.2343632456	-0.398489
C	 0.9092547975	-3.0007417612	-3.1661371448	 0.273937
N	 0.1323147664	-3.6984564441	-3.6596689544	-0.313302
H	 0.3866541145	 2.1597390503	-0.2609450823	 0.133728
H	-1.1769184119	 1.4615862581	-0.6774828612	 0.139245
H	-0.7124677832	 1.6303399364	 1.0260466294	 0.117929
H	 1.1131949596	-0.0804601054	 0.7137187106	 0.136525
H	-0.4364548764	-0.765955398	 0.3040884973	 0.144234
H	 2.1020371312	-1.2888667071	-3.2212892746	 0.160867
H	 3.9357994372	-2.1971984975	-1.799381087	 0.13798
H	 3.0169104966	-3.6962119984	-1.5272609779	 0.150257
H	 3.6240184496	-3.3098169091	-3.1517510082	 0.146217
5.7099	40.1503	72.7727	150.666	186.3547	209.2384	224.1258	265.9551	315.1101	356.4072	418.7962	565.2622	568.0208	614.0348	665.8315	808.9259	826.2733	872.9777	929.4923	1017.6009	1053.4291	1098.5633	1108.5829	1117.1053	1146.0657	1182.5462	1278.8579	1322.3191	1371.2648	1388.3104	1410.2227	1418.5192	1456.3181	1484.3881	1494.1603	1494.752	1500.5352	1832.5398	2363.2716	3044.2393	3054.7487	3057.279	3073.9673	3083.5981	3127.1045	3132.0003	3138.5839	3143.7804
CCC(=O)OC(C)C#N	CCC(=O)O[C@@H](C)C#N	
InChI=1S/C6H9NO2/c1-3-6(8)9-5(2)4-7/h5H,3H2,1-2H3	InChI=1S/C6H9NO2/c1-3-6(8)9-5(2)4-7/h5H,3H2,1-2H3/t5-/m0/s1
