19
gdb 27874	1.94708	1.76825	0.94283	1.835	86.44	-0.2366	-0.0269	0.2097	1274.813	0.15833	-382.157565	-382.147879	-382.146935	-382.194232	33.625	
C	-0.0266678765	 1.5060031095	 0.0513941892	-0.469737
C	-0.0002681392	 0.003117433	-0.0122460334	 0.325307
C	 0.0404489091	-0.6877484587	-1.2227857516	-0.229067
C	 0.0622959572	-2.0783258738	-1.1766552619	 0.327143
C	 0.1063490467	-2.9232533029	-2.420175106	-0.469451
N	 0.0447424913	-2.7314435062	-0.0060065089	-0.336561
C	 0.0056099263	-1.9879735329	 1.1037489143	 0.330976
C	-0.014184266	-2.7129020818	 2.4222728737	-0.459453
N	-0.0177129591	-0.6502100482	 1.1540812893	-0.338061
H	-0.0097462444	 1.9560646961	-0.9438678614	 0.11935
H	-0.9244239051	 1.8442901283	 0.5783366939	 0.144727
H	 0.8325559568	 1.8733555764	 0.6213560125	 0.144726
H	 0.0545884925	-0.1584488219	-2.1687526932	 0.094648
H	 0.9959448711	-3.5609853202	-2.4101139208	 0.144683
H	-0.7609777823	-3.5902477007	-2.4524845942	 0.144684
H	 0.1180538958	-2.3134215201	-3.3264702566	 0.119353
H	 0.8463429431	-2.4157940935	 3.0301388459	 0.137119
H	-0.9104104539	-2.4420413127	 2.9894046919	 0.137107
H	 0.0057464365	-3.7912231697	 2.2637784075	 0.132507
24.4923	43.5386	56.2435	171.617	189.9147	216.6881	279.9922	282.6711	474.4351	541.2622	555.5067	571.4244	589.1598	608.8325	783.194	876.0625	937.9025	944.0002	1009.1742	1024.8014	1050.5645	1054.7868	1056.2776	1060.3184	1066.9636	1197.144	1252.2276	1363.1448	1381.71	1403.6483	1408.7807	1425.3926	1438.6057	1473.949	1474.5213	1479.7148	1481.7278	1486.9296	1493.8815	1595.2107	1622.7775	3042.8753	3043.3696	3046.6807	3103.3936	3104.6289	3105.3553	3129.0778	3129.2894	3154.6965	3190.2361
CC1=CC(C)=NC(C)=N1	Cc1cc(C)nc(C)n1	
InChI=1S/C7H10N2/c1-5-4-6(2)9-7(3)8-5/h4H,1-3H3	InChI=1S/C7H10N2/c1-5-4-6(2)9-7(3)8-5/h4H,1-3H3
