16
gdb 29638	2.42028	1.94426	1.08639	7.4856	75.86	-0.214	-0.0295	0.1845	1050.2335	0.126337	-434.137939	-434.129958	-434.129013	-434.170253	30.504	
C	-0.0429361996	 1.4497998707	-0.0311099324	-0.3763
N	-0.040460011	-0.0089083218	-0.0037172166	-0.192465
C	-1.2034006726	-0.7077733954	-0.0349993702	 0.477581
N	-2.379151463	-0.0095959194	-0.1140761562	-0.580655
C	-1.1557829511	-2.0914305146	-0.0388968681	-0.263589
C	 0.1137435558	-2.6771224078	-0.0144918651	 0.034347
N	 1.2606493283	-2.0368769026	 0.0245518811	-0.353665
C	 1.2572563441	-0.669405257	 0.0401153106	 0.446823
O	 2.2492358054	 0.0295906338	 0.0852510628	-0.396243
H	 0.998496513	 1.7575353657	-0.100698925	 0.19433
H	-0.6043342029	 1.8189582088	-0.8949707991	 0.139214
H	-0.4725149512	 1.8654427185	 0.888932971	 0.129583
H	-2.4075460388	 0.9316282709	 0.2415167286	 0.267808
H	-3.2168297707	-0.5438205311	 0.0523400065	 0.270242
H	-2.0631455779	-2.6790217253	-0.0611343125	 0.090081
H	 0.1818159822	-3.7655686633	-0.0223547856	 0.112909
95.8439	173.5766	202.9329	237.8682	359.6734	380.2729	406.013	473.6594	485.1862	508.2409	553.6421	581.8668	707.7227	720.6171	757.4322	804.6073	853.5964	951.494	1008.483	1052.7553	1067.7961	1149.7156	1150.5448	1204.2568	1237.6608	1356.885	1410.6301	1414.2644	1498.3811	1510.4123	1516.3813	1581.5758	1649.3606	1665.1384	1790.8522	3020.6968	3087.6697	3121.5767	3174.3207	3219.9308	3601.674	3710.2729
CN1C(N)=CC=NC1=O	Cn1c(N)ccnc1=O	
InChI=1S/C5H7N3O/c1-8-4(6)2-3-7-5(8)9/h2-3H,6H2,1H3	InChI=1S/C5H7N3O/c1-8-4(6)2-3-7-5(8)9/h2-3H,6H2,1H3
