22
gdb 8242	4.68672	1.06512	0.92319	1.3299	78.69	-0.2569	0.0709	0.3278	1322.1349	0.199685	-350.199668	-350.190467	-350.189523	-350.23371	34.322	
C	 0.0528064722	 1.5636886024	-0.0188675659	-0.400274
C	 0.0256477723	 0.0344590919	-0.0005819957	 0.137187
O	 0.744204096	-0.4758505508	 1.1229277369	-0.4234
C	-1.4006150428	-0.5269776945	-0.071961779	-0.228772
C	-1.4770515631	-2.04839259	-0.1081592142	 0.077793
C	-1.2174537562	-2.880553734	 1.18026364	-0.204388
C	-2.3559710841	-3.8412342968	 0.7452887913	-0.216681
C	-2.8744620183	-2.7254797163	-0.2018885442	-0.23826
H	 1.0821890281	 1.9252312478	 0.0530540331	 0.122291
H	-0.3928011112	 1.9597934607	-0.9372382852	 0.113838
H	-0.5128764978	 1.9720119589	 0.8282790822	 0.104293
H	 0.5894480912	-0.3393975046	-0.8652611494	 0.086112
H	 0.2905129838	-0.1755617966	 1.9184177255	 0.274508
H	-1.9778217594	-0.1493198045	 0.7869643576	 0.076561
H	-1.8893028242	-0.1173064559	-0.9671522246	 0.093303
H	-0.8365501577	-2.4239977942	-0.9161817433	 0.066733
H	-0.2167392243	-3.2885460934	 1.3304389545	 0.103333
H	-1.496018308	-2.314276472	 2.0758073762	 0.081325
H	-1.9712791278	-4.699118884	 0.1857059287	 0.099484
H	-3.0365404421	-4.2105152101	 1.5163079142	 0.091512
H	-3.6418379751	-2.1128531317	 0.2842702884	 0.092848
H	-3.2393206216	-3.0134154524	-1.1915573072	 0.090653
57.7336	101.1017	124.8041	193.7436	243.956	265.3409	300.2064	315.4205	421.8104	470.8928	478.0617	643.922	764.2341	789.5549	840.6101	878.5538	902.7143	932.4188	942.5607	955.6925	977.3953	1007.6285	1038.4106	1099.0214	1110.6227	1127.9669	1171.4859	1200.888	1210.7893	1254.2708	1255.451	1262.6521	1272.4733	1290.5066	1314.8703	1337.5752	1372.203	1396.2944	1404.8287	1420.827	1472.2009	1479.1023	1486.9802	1493.091	1496.126	1511.7913	2983.978	3020.5034	3021.4151	3027.1121	3040.2548	3040.451	3048.6109	3054.6436	3091.3308	3093.3558	3105.7015	3117.3566	3120.3077	3797.6391
CC(O)CC1CCC1	C[C@@H](O)CC1CCC1	
InChI=1S/C7H14O/c1-6(8)5-7-3-2-4-7/h6-8H,2-5H2,1H3	InChI=1S/C7H14O/c1-6(8)5-7-3-2-4-7/h6-8H,2-5H2,1H3/t6-/m1/s1
