15
gdb 8824	2.89851	1.64474	1.0906	2.5378	63.12	-0.2611	0.0021	0.2632	1045.9625	0.118759	-396.014872	-396.0058	-396.004856	-396.049329	30.743	
C	 0.1638909679	 1.4238825664	 0.1384201722	-0.338505
N	 0.4135081648	-0.0011134669	 0.0017758582	-0.323943
C	 0.3342351917	-0.6435974799	-1.1833114771	 0.420804
O	 0.0446473182	-0.1235440527	-2.2451585873	-0.376729
C	 0.5697348351	-2.1915360769	-1.1607840127	-0.224147
N	 1.0946500928	-2.7049901455	-2.4219868917	-0.498686
C	 1.3972260038	-2.6171136704	-0.0295667007	 0.28622
N	 2.0393237347	-2.8886519652	 0.8927168711	-0.325761
H	 1.0693642711	 1.9543852296	 0.4510549285	 0.138665
H	-0.1513016247	 1.7991340903	-0.8352851508	 0.174535
H	-0.6262560933	 1.6119691751	 0.8720952731	 0.136351
H	 0.7291932905	-0.5174799302	 0.8084125654	 0.270521
H	-0.4286307204	-2.6275255298	-1.0094128216	 0.16153
H	 0.5976077627	-2.1990198037	-3.1541681842	 0.256211
H	 2.0685601951	-2.4257723402	-2.5139651926	 0.242937
50.9606	75.5842	129.9465	147.9704	233.5841	240.6246	279.57	335.8986	405.3809	497.8758	508.9394	584.905	610.1682	789.5649	857.5288	928.7428	968.8228	1056.5938	1150.2171	1157.5053	1178.262	1211.3386	1267.4873	1282.9275	1405.6611	1442.7716	1495.1558	1498.8924	1574.9626	1669.2466	1788.6039	2354.0547	3012.3793	3038.3541	3095.3767	3160.814	3470.7643	3547.4048	3624.4938
CNC(=O)C(N)C#N	CNC(=O)[C@@H](N)C#N	
InChI=1S/C4H7N3O/c1-7-4(8)3(6)2-5/h3H,6H2,1H3,(H,7,8)	InChI=1S/C4H7N3O/c1-7-4(8)3(6)2-5/h3H,6H2,1H3,(H,7,8)/t3-/m0/s1
