15
gdb 81955	2.53709	1.7999	1.22885	2.6196	59.96	-0.2753	-0.0485	0.2268	975.9893	0.111262	-494.889881	-494.881881	-494.880937	-494.922342	29.817	
O	-0.1594931818	 1.4730392269	-0.0517048831	-0.432699
C	-0.0928183891	 0.0772063556	-0.0207390761	 0.046754
C	-1.4291952787	-0.6528793285	-0.0074690169	 0.005746
O	-2.0640847896	-0.6721629724	-1.290936881	-0.2452
C	-1.3550678442	-1.8453555112	-0.876616855	 0.005744
C	 0.0329284271	-1.9456281812	-1.4950988937	 0.046754
O	 0.0778258403	-2.3443592899	-2.8340360036	-0.432698
C	 0.5242994074	-0.5128759216	-1.2887230609	 0.289579
O	 1.1526554931	 0.1182201712	-2.1009954928	-0.323302
H	 0.297276859	 1.7537015875	-0.857418048	 0.300321
H	 0.4953357854	-0.2597481992	 0.8518564067	 0.102784
H	-2.0906564911	-0.5872820395	 0.8509353679	 0.116554
H	-1.9572147779	-2.7339264406	-0.7136662994	 0.116554
H	 0.6423368188	-2.6245587331	-0.8717540908	 0.102787
H	 0.5073597312	-1.6272184041	-3.3216755335	 0.300322
96.672	180.3867	218.8791	237.795	254.2501	300.3817	316.7099	493.9855	515.8415	535.2484	599.4076	671.4618	747.7249	843.569	872.4346	895.1645	968.2976	992.0663	1030.9425	1080.8315	1095.7632	1165.1294	1166.1384	1213.1376	1232.043	1252.7863	1318.6003	1361.3039	1366.0878	1403.3267	1408.6752	1436.6465	1845.9766	2947.0661	2955.6454	3163.698	3174.6827	3737.6031	3742.164
OC1C2OC2C(O)C1=O	O[C@H]1[C@H]2O[C@H]2[C@@H](O)C1=O	
InChI=1S/C5H6O4/c6-1-2(7)4-5(9-4)3(1)8/h2-5,7-8H	InChI=1S/C5H6O4/c6-1-2(7)4-5(9-4)3(1)8/h2-5,7-8H/t2-,3+,4-,5+
