21
gdb 57207	2.43385	1.298	1.08609	2.336	78.24	-0.2418	0.0249	0.2667	1218.0024	0.181829	-420.42378	-420.413747	-420.412803	-420.458535	37.754	
C	 0.5583585341	 1.4259814395	 0.8384566305	-0.3949
C	 0.0904493906	 0.1681730632	 0.0955077395	-0.165145
C	 0.8546382615	 0.0308141579	-1.2417996657	 0.398877
N	 0.8902527905	-1.2220274307	-1.7859274813	-0.536339
O	 1.3378520187	 0.9935641557	-1.805876341	-0.365147
C	 0.1277811575	-1.091090887	 0.956394125	 0.321285
C	 1.4836087869	-1.5141669776	 1.4919231786	-0.453508
C	-1.074180164	-1.4397238551	 1.7533518852	-0.28729
N	-0.7408135896	-2.2278858277	 0.5469607216	-0.368985
H	 1.6035585087	 1.3397647887	 1.1481557812	 0.125917
H	 0.4851254365	 2.2932130833	 0.1814647723	 0.143494
H	-0.0530366231	 1.5936865826	 1.7298528747	 0.106967
H	-0.958891504	 0.3237834857	-0.1985143975	 0.094374
H	 0.633879977	-2.0431913188	-1.2627039876	 0.278013
H	 1.4158719084	-1.3335149131	-2.6380390208	 0.257888
H	 1.8579234153	-0.7918435829	 2.2236681807	 0.126589
H	 1.4044187671	-2.4888781869	 1.978841542	 0.129215
H	 2.2248473784	-1.5948118747	 0.6901705711	 0.123011
H	-0.9615532775	-1.9727579636	 2.6932643886	 0.120107
H	-1.9367073298	-0.7800238157	 1.7092336036	 0.115001
H	-1.3588534431	-1.9319091128	-0.2070013208	 0.230575
47.9141	110.7978	169.9589	201.9868	211.5339	254.3	274.5437	335.3212	353.7075	380.7136	412.5854	441.2075	516.2282	539.3246	614.402	688.3881	763.4946	813.2632	830.9915	901.9585	923.0513	987.5986	999.2516	1044.5451	1082.3011	1085.8546	1095.2834	1117.5979	1131.6515	1158.8047	1261.6047	1287.6578	1301.4794	1341.102	1353.1239	1390.9016	1406.5847	1422.5504	1485.9056	1489.5884	1500.5101	1504.723	1513.7293	1618.619	1790.3907	2990.341	3041.2412	3051.2881	3105.577	3108.2396	3117.9256	3127.38	3148.0234	3193.486	3473.9724	3582.7198	3716.3658
CC(C(N)=O)C1(C)CN1	C[C@@H](C(=O)N)[C@@]1(C)CN1	
InChI=1S/C6H12N2O/c1-4(5(7)9)6(2)3-8-6/h4,8H,3H2,1-2H3,(H2,7,9)	InChI=1S/C6H12N2O/c1-4(5(7)9)6(2)3-8-6/h4,8H,3H2,1-2H3,(H2,7,9)/t4-,6+/m0/s1
