21
gdb 77711	2.67081	1.60577	1.49728	0.1754	87.08	-0.2117	0.022	0.2338	1034.2054	0.184289	-349.928173	-349.920395	-349.919451	-349.959765	31.998	
C	-0.0681748838	 1.4864420653	 0.004113366	-0.42573
C	 0.1196590374	-0.0137597727	-0.0509286394	-0.071292
C	 0.750477135	-0.7529847899	-1.1984400403	 0.234448
C	 1.9550708823	-0.0011685855	-1.8012274561	-0.28612
C	 2.6418667102	 0.035651894	-0.3953061922	-0.288436
C	 1.4340015139	-0.7288845097	 0.1886480531	 0.210959
C	 1.3793384415	-2.1328248511	 0.6706178999	-0.177899
C	 0.753275065	-2.9222368815	-0.2151924937	-0.060533
C	 0.3294887692	-2.1893559189	-1.4878235002	-0.359078
H	 0.7723167912	 2.0328432875	-0.4308212874	 0.120367
H	-0.9698328947	 1.7804097678	-0.5447935935	 0.116879
H	-0.1821201237	 1.8248446038	 1.0396663735	 0.117398
H	-0.7128791369	-0.5629953908	 0.3826394932	 0.08665
H	 2.5071035711	-0.6206461656	-2.5122895804	 0.101776
H	 1.7455565733	 0.9606224432	-2.2813066901	 0.094981
H	 3.560558471	-0.5532990133	-0.3647085955	 0.104493
H	 2.8517445804	 1.0211220574	 0.032278636	 0.094891
H	 1.7716843015	-2.4700604137	 1.6247613097	 0.089364
H	 0.5264250706	-3.9721492506	-0.0533618057	 0.087908
H	-0.7454826105	-2.3013562657	-1.6816002931	 0.106107
H	 0.8411004458	-2.59579211	-2.3715058036	 0.102867
172.3097	207.851	227.7491	242.4309	262.3933	347.4235	450.5578	482.2168	563.0101	658.7807	696.7554	734.7947	748.0212	768.7449	786.3542	839.705	913.3108	932.8949	945.491	947.3513	967.0285	990.7494	1002.2954	1091.5322	1107.1703	1114.953	1123.6838	1136.5347	1187.9601	1212.6656	1234.2382	1239.0175	1263.3035	1280.7964	1300.4366	1327.9769	1368.5348	1413.0314	1446.9002	1472.8781	1479.6426	1498.4842	1498.7428	1503.7582	1637.0554	3006.2048	3031.9564	3033.7856	3040.0352	3050.695	3089.7173	3092.9706	3110.3585	3115.5499	3140.0378	3164.8722	3189.8496
CC1C23CCC12C=CC3	C[C@H]1[C@@]23CC[C@@]12C=CC3	
InChI=1S/C9H12/c1-7-8-3-2-4-9(7,8)6-5-8/h2-3,7H,4-6H2,1H3	InChI=1S/C9H12/c1-7-8-3-2-4-9(7,8)6-5-8/h2-3,7H,4-6H2,1H3/t7-,8+,9-/m1/s1
