18
gdb 35867	2.09203	1.77197	1.17131	4.2482	75.42	-0.2694	0.0281	0.2975	1085.912	0.148958	-401.949399	-401.941329	-401.940385	-401.982792	30.337	
N	 0.0120000077	-1.2311473439	 0.1554235181	-0.336075
C	 0.0117109323	-0.0765510219	 0.0978698385	 0.290024
C	 0.0101049265	 1.3836011485	 0.0027208243	-0.259676
C	-0.5956552947	 2.0448179845	 1.2697623351	-0.092837
O	 0.4922099937	 2.2056921039	 2.1529153698	-0.236569
C	 1.5868673838	 2.6573413367	 1.3696166685	-0.146535
C	 1.434849311	 1.981304113	-0.0014132616	 0.329891
C	 2.5851972936	 1.2998416787	-0.6884261958	-0.309121
C	 2.0315422027	 2.5890130702	-1.2426550796	-0.31971
H	-0.5510864466	 1.6628528832	-0.8940104362	 0.126587
H	-1.0337657335	 3.0161391093	 0.9889573042	 0.099656
H	-1.356534638	 1.4374624283	 1.7621482987	 0.136323
H	 1.5582865794	 3.7543160927	 1.2652883898	 0.095963
H	 2.5069932727	 2.3803938242	 1.8910285143	 0.12178
H	 3.5510001202	 1.3254833393	-0.1943939533	 0.122188
H	 2.3842188637	 0.3780359062	-1.2238975802	 0.138587
H	 1.4607213358	 2.5478767782	-2.164736569	 0.120346
H	 2.6192137297	 3.4945585387	-1.1247964355	 0.119179
35.0917	143.5263	161.1092	262.9436	306.3899	315.8842	399.0733	456.9154	521.0527	569.2734	718.024	776.563	816.9312	840.2256	901.0142	925.7314	951.0491	965.6542	981.9368	1004.824	1064.7576	1084.0836	1094.2521	1105.97	1121.2804	1189.4654	1197.4658	1224.7632	1264.372	1281.1508	1332.4292	1337.6772	1365.5097	1407.5436	1469.7433	1500.8201	1508.1519	1521.5982	2355.2312	2968.3722	2978.0841	3069.3259	3088.5587	3122.6153	3123.2982	3131.4613	3203.1954	3220.6222
N#CC1COCC11CC1	N#C[C@H]1COCC21CC2	
InChI=1S/C7H9NO/c8-3-6-4-9-5-7(6)1-2-7/h6H,1-2,4-5H2	InChI=1S/C7H9NO/c8-3-6-4-9-5-7(6)1-2-7/h6H,1-2,4-5H2/t6-/m0/s1
