16
gdb 124769	3.62231	1.23868	0.99928	2.5011	72.9	-0.2519	-0.0828	0.1691	1161.9312	0.124861	-434.074899	-434.066872	-434.065928	-434.108243	29.436	
C	 0.2977709213	 1.4044478847	 0.3510126593	-0.394893
C	-0.1743338115	-0.0088496677	-0.030486951	 0.063816
O	-1.55762719	-0.0134546616	-0.2788091897	-0.437626
C	 0.5995333255	-0.5377516524	-1.2250581844	 0.322112
C	 1.9676374833	-0.8471677318	-1.1971746719	-0.03744
N	 2.5881412969	-1.2930193154	-2.2753713815	-0.231194
C	 1.8113393885	-1.4126928989	-3.3626165126	 0.108508
N	 0.5135099448	-1.143041006	-3.4460854281	-0.179466
N	-0.0929287935	-0.7008957332	-2.3465338025	-0.265019
H	 1.356057842	 1.4183449856	 0.6321216335	 0.111779
H	 0.1454754447	 2.0922859574	-0.4859491851	 0.129324
H	-0.2917460601	 1.7569960636	 1.2006910233	 0.137964
H	 0.0298425423	-0.6809456535	 0.8186279397	 0.094564
H	-1.6676402688	-0.1917493276	-1.2259508974	 0.297782
H	 2.5541231976	-0.7373822945	-0.2871059741	 0.134587
H	 2.279755207	-1.7712930787	-4.2739289677	 0.145202
35.7695	131.8011	214.6749	248.7143	284.0615	373.8196	379.3091	409.6558	476.6139	550.0491	644.2701	669.4916	803.379	815.0512	917.2634	942.8023	1009.7294	1030.648	1066.3511	1095.2019	1096.998	1155.9505	1171.6711	1220.119	1258.9358	1307.1481	1356.8332	1400.0475	1414.5413	1436.1312	1450.3271	1490.1752	1496.5777	1559.2487	1607.134	2974.2534	3039.3076	3113.9496	3130.7662	3151.2537	3192.4371	3685.2996
CC(O)C1=CN=CN=N1	C[C@@H](O)c1cncnn1	
InChI=1S/C5H7N3O/c1-4(9)5-2-6-3-7-8-5/h2-4,9H,1H3	InChI=1S/C5H7N3O/c1-4(9)5-2-6-3-7-8-5/h2-4,9H,1H3/t4-/m1/s1
