22
gdb 88753	3.328	1.13489	1.11639	1.3116	86.16	-0.2148	0.084	0.2988	1239.5292	0.194689	-367.148424	-367.139841	-367.138897	-367.181811	33.711	
C	 1.1908392411	 1.2225876369	-0.5444355013	-0.417346
C	 0.1063221309	 0.2369113981	-0.1693126276	 0.028622
C	 0.440925288	-1.0754376629	 0.4510873476	-0.253771
N	-0.2512682551	-0.0459239204	 1.2213290505	-0.102493
C	 0.4132461628	 0.6471479725	 2.3162308106	 0.063612
C	-0.1228925789	 0.348331266	 3.7578308455	-0.255282
C	 1.319539131	 0.1260084739	 4.2262228435	-0.049263
C	 1.9138418813	-1.0265393011	 3.4785779213	-0.271794
C	 1.8413342291	 0.3175557106	 2.7970616047	-0.077708
H	 2.0878636259	 1.0991878401	 0.0680074099	 0.124225
H	 1.4786216564	 1.0849722916	-1.5923183706	 0.119867
H	 0.8442129286	 2.2566973643	-0.4345100444	 0.120711
H	-0.7639670167	 0.276245762	-0.8248561791	 0.08379
H	-0.1356928405	-1.9693133635	 0.2233287818	 0.106816
H	 1.4914884241	-1.2557600845	 0.6696950129	 0.115171
H	 0.3305192286	 1.7213894803	 2.1245873737	 0.080016
H	-0.6231773654	 1.2084891484	 4.20741418	 0.099261
H	-0.7794365061	-0.5234749684	 3.8356150678	 0.100219
H	 1.7479874942	 0.5000835126	 5.1472925391	 0.085099
H	 2.911788926	-1.326519007	 3.7824142872	 0.108301
H	 1.2814857504	-1.8509293656	 3.1575725519	 0.112989
H	 2.7430256142	 0.8259055361	 2.473861155	 0.078954
53.5697	144.0689	159.616	201.1662	277.2481	300.1979	389.8605	406.0252	489.633	565.618	661.1571	747.7872	781.2208	794.9389	800.178	878.2852	907.9338	924.7952	954.3449	964.2096	982.9359	1013.6508	1024.3772	1039.2463	1063.3925	1080.0636	1086.542	1121.1405	1123.1506	1138.3282	1152.0887	1165.9491	1191.3023	1211.7749	1234.4837	1261.896	1301.1138	1335.3591	1361.4102	1374.7969	1402.441	1422.5532	1480.6347	1487.8119	1497.4891	1501.4804	1512.3736	3030.8028	3053.5945	3056.0867	3087.6736	3091.7089	3094.2466	3109.6413	3113.3696	3120.6469	3163.6838	3176.459	3189.4093	3201.7256
CC1CN1C1CC2CC12	C[C@H]1CN1[C@H]1C[C@H]2C[C@@H]12	
InChI=1S/C8H13N/c1-5-4-9(5)8-3-6-2-7(6)8/h5-8H,2-4H2,1H3	InChI=1S/C8H13N/c1-5-4-9(5)8-3-6-2-7(6)8/h5-8H,2-4H2,1H3/t5-,6+,7+,8-,9?/m0/s1
