20
gdb 78614	3.17701	1.46193	1.21201	2.1221	79.59	-0.2071	0.0765	0.2836	1090.0599	0.169549	-403.051561	-403.043008	-403.042064	-403.083972	33.719	
C	 0.043635638	 1.5098309311	-0.2062604728	-0.330969
N	 0.0433796732	 0.0610958023	-0.0337304252	-0.147235
C	-1.0740011291	-0.4955095586	 0.7819499834	-0.023987
C	-0.216439734	-1.7206143591	 1.2138558074	-0.122629
C	-0.5975547605	-1.5397163678	 2.6829983163	 0.091297
O	 0.3711423711	-2.0164239146	 3.5931939978	-0.437713
C	-0.4919921695	-0.0852486974	 2.1825653498	-0.172614
C	 0.7103545699	-0.4554445499	 1.2113364621	 0.387505
C	 2.1872100552	-0.3660141129	 1.4520780156	-0.535156
H	 1.0239191996	 1.8303190867	-0.5742845081	 0.118444
H	-0.6981778296	 1.781586333	-0.9649057329	 0.116529
H	-0.1815394621	 2.0819130388	 0.710479479	 0.091047
H	-2.1149904695	-0.4903460369	 0.4560458061	 0.076533
H	-0.0596315277	-2.6308660493	 0.6365183543	 0.080854
H	-1.606765705	-1.8764939621	 2.9601955226	 0.064012
H	 0.1203031089	-1.7307067167	 4.477108214	 0.283079
H	-0.6544888631	 0.8384334589	 2.7387116574	 0.072341
H	 2.4403089469	-0.8762536261	 2.3840994451	 0.144768
H	 2.7360173935	-0.8364520743	 0.6294565064	 0.127247
H	 2.5139002437	 0.6773702749	 1.5250438916	 0.116646
176.8795	188.824	205.9723	213.2493	224.7654	276.4055	308.0093	352.8737	415.9332	528.9164	588.11	647.222	736.4672	761.8834	801.0725	826.7468	854.6378	904.8262	919.8628	937.8069	1007.5499	1056.1041	1090.4478	1102.1122	1114.557	1121.1764	1133.4431	1153.977	1173.3485	1184.1289	1200.6025	1211.6997	1258.2669	1284.8165	1309.5464	1361.8655	1404.5009	1434.5882	1445.2747	1487.2592	1488.6479	1493.1262	1497.9074	2956.5761	2997.532	3033.773	3059.6398	3094.6157	3096.5706	3101.5755	3112.5255	3131.3043	3133.1886	3820.7323
CN1C2C3C(O)C2C13C	CN1[C@H]2[C@@H]3[C@@H](O)[C@H]2[C@]13C	
InChI=1S/C7H11NO/c1-7-3-5(8(7)2)4(7)6(3)9/h3-6,9H,1-2H3	InChI=1S/C7H11NO/c1-7-3-5(8(7)2)4(7)6(3)9/h3-6,9H,1-2H3/t3-,4+,5+,6-,7-
