19
gdb 108049	3.73852	1.3928	1.25253	1.2823	74.51	-0.2419	0.0708	0.3127	1052.3423	0.159442	-422.965545	-422.957966	-422.957022	-422.997478	30.056	
C	 0.0292740989	 1.4297520453	-0.0158730222	-0.26599
O	-0.0012420466	 0.0156124238	-0.0204197828	-0.291948
C	 0.6281665257	-0.5534231797	-1.1207177899	 0.430533
C	-0.0519247769	-0.4478834925	-2.5184884986	-0.306552
C	 0.375968048	-1.9103607938	-2.7955247082	 0.103823
O	 1.7759481156	-2.0012782228	-3.143691231	-0.306267
C	 2.1625749473	-1.9524566743	-1.7517226233	 0.103823
C	 2.1825539797	-0.5005304244	-1.2130349272	-0.306548
C	 0.6886138036	-2.1157295236	-1.2871836684	-0.173036
H	 1.0584881217	 1.8163532317	 0.0060721441	 0.112283
H	-0.4813504925	 1.8524693844	-0.8932526442	 0.112284
H	-0.4902469198	 1.7583420791	 0.8868621466	 0.128693
H	-1.1379188211	-0.390241852	-2.3872802448	 0.106887
H	 0.285010938	 0.3124984536	-3.2275614447	 0.100246
H	-0.2473076979	-2.5414286391	-3.4304473484	 0.081421
H	 2.9989608802	-2.6179191424	-1.5338603774	 0.081421
H	 2.6614466819	 0.2564968244	-1.8391836826	 0.100245
H	 2.6029330715	-0.4783623794	-0.2017440084	 0.106887
H	 0.2749563726	-2.8555878783	-0.6089953186	 0.081795
96.5845	181.0193	192.2432	307.3725	323.0783	370.3553	430.8722	464.0206	626.1203	648.2602	758.0615	823.1454	829.7993	861.3877	874.8866	924.5901	927.0082	960.3394	986.761	993.8594	1042.6673	1084.9718	1097.8687	1133.8142	1135.5071	1166.1575	1173.7186	1182.2244	1200.8917	1217.2696	1248.3099	1249.8548	1276.7719	1292.8154	1312.864	1351.6186	1457.7259	1468.5855	1487.1531	1490.4023	1507.8987	2987.9293	3037.3762	3045.5009	3046.6524	3097.7015	3101.1378	3110.1555	3113.117	3120.6024	3167.7408
COC12CC3OC(C1)C23	CO[C@@]12C[C@H]3O[C@@H](C1)[C@@H]23	
InChI=1S/C7H10O2/c1-8-7-2-4-6(7)5(3-7)9-4/h4-6H,2-3H2,1H3	InChI=1S/C7H10O2/c1-8-7-2-4-6(7)5(3-7)9-4/h4-6H,2-3H2,1H3/t4-,5+,6+,7+
