18
gdb 71193	2.56942	1.70666	1.38465	3.7786	75.32	-0.2428	-0.0294	0.2135	997.3017	0.146731	-401.888687	-401.880766	-401.879821	-401.921136	30.33	
C	-0.0745022846	 1.5487909402	 0.0077855867	-0.515713
C	 0.0196535036	 0.0476925538	 0.0498545271	 0.265586
C	-1.2431785342	-0.8591227608	 0.1587795381	-0.289932
C	-0.3138682982	-1.8973560835	 0.7774352695	-0.020824
C	 0.6806601804	-0.8712233494	 1.1592119195	-0.097848
N	 1.0298758038	-1.8581736893	 0.0961227752	-0.143351
C	 0.9206532731	-0.777788517	-0.9252210971	-0.065772
C	 0.4001922572	-1.1294295119	-2.2922017027	 0.143759
O	-0.1042014819	-2.1824931346	-2.5893559609	-0.24432
H	 0.9174245924	 2.0136629427	 0.0100571926	 0.123345
H	-0.6011496032	 1.8856549662	-0.89245161	 0.12767
H	-0.6257854732	 1.9308130028	 0.8736592744	 0.12693
H	-1.93565247	-0.4677240959	 0.9090713895	 0.106373
H	-1.785297474	-1.1085806837	-0.7578719658	 0.115547
H	-0.5611498514	-2.8303736055	 1.26475215	 0.104764
H	 1.2811969271	-0.6860649693	 2.0400590199	 0.100659
H	 1.902722466	-0.2989329855	-1.0305767429	 0.093247
H	 0.4980098471	-0.3051308392	-3.039435363	 0.069878
84.9295	142.0811	204.5862	231.2233	273.443	299.6505	408.9125	482.7043	594.5577	678.4241	725.8492	780.384	800.7905	830.1482	855.2838	881.1221	943.8851	950.6249	972.365	993.495	1018.9708	1044.3198	1102.6448	1113.9139	1133.8967	1163.7439	1177.9647	1201.74	1215.07	1261.1059	1313.9746	1342.9699	1368.2261	1415.2189	1421.9188	1488.6956	1493.1496	1498.1382	1825.3353	2839.6321	3026.2145	3033.0415	3055.1563	3092.0129	3096.0018	3110.737	3200.0515	3219.0209
CC12CC3C1N3C2C=O	C[C@]12C[C@@H]3[C@H]1N3[C@H]2C=O	
InChI=1S/C7H9NO/c1-7-2-4-6(7)8(4)5(7)3-9/h3-6H,2H2,1H3	InChI=1S/C7H9NO/c1-7-2-4-6(7)8(4)5(7)3-9/h3-6H,2H2,1H3/t4-,5+,6-,7-,8?/m1/s1
