20
gdb 102986	2.03713	1.36015	1.13423	1.538	83.01	-0.2265	0.0371	0.2636	1225.1986	0.167402	-403.074468	-403.063934	-403.062989	-403.109676	38.425	
C	 1.1015181128	 1.2758119311	-1.0657775863	-0.425139
C	 0.6342982865	-0.0445975378	-0.4886396268	-0.033961
N	 1.4371805717	-0.8942377489	 0.3807882075	-0.120428
C	 2.774237651	-0.5070236577	 0.8115486294	-0.317581
C	 0.2548460183	-0.2326225779	 0.9629299795	 0.03564
C	 0.3798400471	 0.8996456397	 1.978126138	-0.123188
O	 0.670449356	 0.4120245509	 3.275479984	-0.421666
C	-0.8274321264	-1.1316413691	 1.3053519646	 0.287142
C	-1.7411636855	-1.8389438582	 1.6422239969	-0.424986
H	 1.6450035426	 1.9027199585	-0.3578292065	 0.126072
H	 1.7584178512	 1.0955828607	-1.9237975403	 0.130238
H	 0.2401558319	 1.847466618	-1.4260338161	 0.131348
H	 0.046346599	-0.6256151382	-1.1990075667	 0.096863
H	 2.9720242675	 0.5724766605	 0.853875162	 0.101896
H	 2.9487097552	-0.9183447844	 1.8089015233	 0.143663
H	 3.4973970552	-0.9525270683	 0.1210564732	 0.123914
H	 1.1955980377	 1.5763005569	 1.722733901	 0.105323
H	-0.5532091387	 1.4838767923	 1.9656577398	 0.099644
H	-0.0025987876	-0.2466122661	 3.4867843253	 0.288948
H	-2.5426558257	-2.482022392	 1.9107005682	 0.196258
82.2572	114.6727	131.8221	140.8318	154.5421	192.0401	242.8371	300.6779	317.8166	395.4773	407.8005	434.343	525.8447	556.2423	564.2823	611.9987	656.6038	707.4049	780.728	805.3333	953.4021	981.4341	1049.2747	1067.9438	1090.0054	1124.0303	1144.8025	1159.0343	1180.154	1216.2754	1262.6496	1356.0953	1370.3341	1402.9123	1417.7472	1434.0233	1454.9983	1482.0609	1489.0769	1500.1625	1502.4601	1517.876	2225.8189	2987.3079	3004.1239	3041.8138	3074.8617	3098.4388	3100.534	3119.7196	3124.7205	3142.8761	3499.7756	3780.6265
CC1N(C)C1(CO)C#C	C[C@H]1N(C)[C@]1(CO)C#C	
InChI=1S/C7H11NO/c1-4-7(5-9)6(2)8(7)3/h1,6,9H,5H2,2-3H3	InChI=1S/C7H11NO/c1-4-7(5-9)6(2)8(7)3/h1,6,9H,5H2,2-3H3/t6-,7+,8?/m1/s1
