23
gdb 68241	2.68977	1.74821	1.37641	0.1212	88.24	-0.2709	0.0871	0.358	1055.1195	0.208821	-351.141048	-351.133532	-351.132588	-351.172333	32.232	
C	 0.0336698913	 1.5136938977	 0.1320902719	-0.503544
C	 0.06763168	 0.0033020175	 0.0729696723	 0.346775
C	 0.8520629132	-0.7846779816	-1.0340882035	-0.257354
C	 0.7536980335	-1.9515168451	-0.002265587	-0.03771
C	 0.9031237461	-0.8473580614	 1.0804611089	-0.275002
C	-0.7606494708	-2.2278676021	-0.0391457339	 0.007745
C	-1.5190289046	-2.5414351938	 1.2836486943	-0.245275
C	-2.035109446	-1.0701325477	 1.3419949709	-0.249742
C	-1.2814229074	-0.7499631198	 0.0179180615	-0.023989
H	 1.0431342021	 1.9381554344	 0.155604236	 0.109576
H	-0.4852564591	 1.9317731278	-0.7386185733	 0.112126
H	-0.4941393461	 1.8624503419	 1.0276401709	 0.115471
H	 0.3706012866	-0.9172611087	-2.0089465611	 0.082656
H	 1.8727884807	-0.4155535911	-1.1647995418	 0.088968
H	 1.4282570691	-2.8081624593	-0.0355988364	 0.054127
H	 1.9317767558	-0.4844427759	 1.152432049	 0.089377
H	 0.512614969	-1.0234186466	 2.0856401479	 0.090335
H	-1.0477014135	-2.8387733951	-0.8982057214	 0.05899
H	-2.315784151	-3.2797314209	 1.1651313969	 0.094762
H	-0.8899123777	-2.8589069329	 2.1200884138	 0.096097
H	-3.1212775183	-0.9826018704	 1.2605807868	 0.09482
H	-1.7176262534	-0.4892761846	 2.213029785	 0.095075
H	-1.9096854095	-0.3934473825	-0.8026443678	 0.055716
178.3966	219.5379	232.6268	303.9538	310.3595	396.5285	480.497	540.0713	556.8451	650.8136	736.4955	760.5745	806.6765	826.6988	835.0086	861.6924	880.6759	911.7941	949.2528	961.2627	984.2999	999.3584	1006.7955	1032.5826	1045.9737	1061.4747	1076.0321	1124.9321	1136.6966	1144.3913	1195.9862	1214.8966	1221.7784	1233.171	1246.7472	1251.9254	1263.0778	1279.5423	1287.6493	1308.832	1332.864	1354.2549	1412.2874	1476.8504	1484.3106	1492.5624	1494.5422	1499.2738	1530.4777	3020.0259	3040.5966	3051.032	3056.4858	3060.9243	3063.633	3076.8605	3082.4832	3089.4684	3093.3631	3101.8489	3106.4146	3110.6563	3114.8714
CC12CC(C1)C1CCC21	C[C@@]12C[C@@H](C1)[C@H]1CC[C@@H]21	
InChI=1S/C9H14/c1-9-4-6(5-9)7-2-3-8(7)9/h6-8H,2-5H2,1H3	InChI=1S/C9H14/c1-9-4-6(5-9)7-2-3-8(7)9/h6-8H,2-5H2,1H3/t6-,7-,8-,9+/m1/s1
