23
gdb 103183	1.8679	1.56245	1.22225	1.1404	81.56	-0.2339	0.0729	0.3068	1208.842	0.203486	-425.412141	-425.401757	-425.400813	-425.446794	39.27	
C	-0.0372405515	 1.4314696033	 0.0034847602	-0.261254
O	 0.1825443403	 0.0296933506	 0.0035224089	-0.305548
C	 0.7477372318	-0.5377319756	 1.1852448572	 0.365814
C	 0.1492763379	 0.0033101453	 2.4744685531	-0.485116
C	 0.7548745402	-2.0924196662	 1.0050925641	 0.001279
C	-0.3222058558	-2.7415935476	 0.1495023677	-0.403607
C	 2.2037716753	-2.003205046	 0.4517468813	-0.29164
C	 2.3139892038	-0.5735582503	 1.0414660935	 0.118142
O	 2.9238161495	 0.4296599545	 0.2709336752	-0.437494
H	 0.8609521151	 1.9921321324	 0.2882449749	 0.126365
H	-0.3134797152	 1.6974754628	-1.0206978065	 0.122892
H	-0.862040021	 1.7192959343	 0.6680259699	 0.113571
H	-0.9381338508	-0.1313104084	 2.4919454165	 0.122382
H	 0.5693407729	-0.5378187597	 3.3273656482	 0.117773
H	 0.3676526423	 1.0654500056	 2.6213318479	 0.124023
H	 0.7647299594	-2.5521449938	 1.999525438	 0.067232
H	-0.3794059195	-2.2656941421	-0.8320786798	 0.127158
H	-0.1082573727	-3.8065232246	 0.0070403458	 0.108624
H	-1.3093147361	-2.6601756132	 0.6176760596	 0.110407
H	 2.9295965997	-2.7482242141	 0.7855988089	 0.096564
H	 2.2125514104	-1.9718574296	-0.6429742078	 0.096906
H	 2.8088028988	-0.5608997821	 2.0171332783	 0.082398
H	 2.4453146551	 0.4462019444	-0.5666338553	 0.283131
75.1011	131.6306	175.7844	191.9499	211.8077	228.1762	233.796	279.5072	314.19	337.4141	410.0384	441.7614	478.2652	486.1661	595.4949	603.8218	718.7367	797.2287	873.0588	890.8283	911.7034	943.709	1010.9825	1059.8585	1090.0014	1102.081	1140.8839	1150.2187	1159.0582	1180.4841	1181.9775	1221.5278	1233.6084	1251.7672	1258.6578	1318.5004	1321.3386	1373.8578	1402.7258	1408.0178	1436.1829	1473.5547	1482.4992	1487.449	1490.2975	1491.8776	1499.8286	1504.4938	1519.5249	3007.0315	3032.2152	3032.6187	3042.8007	3049.8304	3068.5529	3069.6968	3091.7639	3101.6291	3106.8968	3109.5833	3111.7563	3125.838	3788.6028
COC1(C)C(C)CC1O	CO[C@@]1(C)[C@@H](C)C[C@H]1O	
InChI=1S/C7H14O2/c1-5-4-6(8)7(5,2)9-3/h5-6,8H,4H2,1-3H3	InChI=1S/C7H14O2/c1-5-4-6(8)7(5,2)9-3/h5-6,8H,4H2,1-3H3/t5-,6+,7-/m0/s1
