20
gdb 76425	2.86401	1.0642	0.95977	3.1818	79.72	-0.2628	0.025	0.2878	1323.9449	0.168593	-403.157757	-403.147452	-403.146507	-403.193024	37.267	
C	-0.2124858594	 0.944453907	-1.8868715577	-0.424679
C	-0.0628446476	-0.2299659844	-0.9445859969	-0.07368
C	 1.2862955691	-0.6618698304	-0.3757930574	-0.084382
C	 2.5840370366	 0.0395938166	-0.7148790426	-0.409222
C	 0.2610394504	-0.0207527302	 0.5210139311	 0.3803
O	 0.5690914877	 1.269288292	 0.9644545875	-0.463882
C	-0.4352270546	-0.8681013152	 1.5831347022	-0.388479
C	-1.7131022783	-0.2694409133	 1.9750680666	 0.247139
N	-2.7049980049	 0.2535659961	 2.2557003802	-0.309445
H	 0.38371254	 1.8001941057	-1.5639358284	 0.131336
H	 0.0986817597	 0.6774931362	-2.9021932334	 0.121978
H	-1.2581020624	 1.2672244745	-1.9368373355	 0.123962
H	-0.7485982791	-1.0485726982	-1.1523510595	 0.084562
H	 1.3934570036	-1.736724407	-0.2459007566	 0.083196
H	 2.4711814372	 1.1242423189	-0.7094478745	 0.138849
H	 3.3585351686	-0.212601111	 0.0169419594	 0.120758
H	 2.9458320726	-0.2676849732	-1.7017659787	 0.117504
H	-0.2544893776	 1.7665208291	 1.0437341622	 0.298367
H	-0.6140241318	-1.8822982572	 1.2122632982	 0.148538
H	 0.2015659201	-0.9462292762	 2.471921834	 0.15728
62.3475	98.9201	139.7832	144.8131	200.1505	210.4049	245.4192	268.4594	352.817	361.8901	396.1818	434.5336	500.5949	566.119	603.4382	713.6305	785.978	843.5254	918.3944	941.8418	949.261	1021.1525	1037.7887	1052.2273	1084.9039	1131.7923	1146.6337	1181.4	1210.4613	1236.9661	1294.2972	1310.2383	1360.7572	1375.7777	1412.2912	1421.3401	1453.4694	1465.4745	1487.4168	1495.2141	1504.0416	1516.3684	2356.9396	3037.1281	3040.8854	3045.4536	3092.62	3093.157	3095.4505	3115.8788	3125.8035	3135.5573	3148.9482	3777.2604
CC1C(C)C1(O)CC#N	C[C@H]1[C@@H](C)[C@]1(O)CC#N	
InChI=1S/C7H11NO/c1-5-6(2)7(5,9)3-4-8/h5-6,9H,3H2,1-2H3	InChI=1S/C7H11NO/c1-5-6(2)7(5,9)3-4-8/h5-6,9H,3H2,1-2H3/t5-,6+,7-
