21
gdb 86549	3.58964	1.05906	0.94631	1.1024	78.59	-0.2412	0.0731	0.3143	1328.5049	0.180988	-424.197883	-424.188548	-424.187604	-424.232161	35.49	
C	-0.2595238902	 1.4605178023	 0.1487970516	-0.398903
C	 0.5763546503	 0.2194377777	 0.3893886614	 0.172198
C	 0.4855733284	-0.928335969	-0.6406983684	-0.307731
C	 1.9780025869	-0.6313460666	-0.899839187	 0.077732
O	 1.9811343899	 0.4349683116	 0.0737322427	-0.312929
C	 2.9659231141	-1.7314045573	-0.5800899834	 0.382363
O	 2.898025302	-2.7938620575	-1.4973129505	-0.466677
C	 4.2965334619	-1.3898080476	 0.0344027877	-0.329192
C	 3.2385065272	-2.1285359382	 0.8355165085	-0.297204
H	-0.1788688764	 1.7895417209	-0.892098294	 0.118485
H	-1.3137094711	 1.2592390644	 0.3699617364	 0.115711
H	 0.0749665354	 2.2788260681	 0.7942322634	 0.126258
H	 0.4716003197	-0.1091878906	 1.4319591753	 0.075912
H	 0.2845630128	-1.9197611639	-0.2335675599	 0.118189
H	-0.1838728474	-0.7365440793	-1.4812600219	 0.103022
H	 2.194517998	-0.2421219807	-1.9071469373	 0.061982
H	 3.2939361019	-2.495386569	-2.3241224483	 0.2816
H	 5.1560455606	-1.9575899656	-0.3046045425	 0.109251
H	 4.4854556493	-0.3538715196	 0.2914488898	 0.129045
H	 2.7395074052	-1.5806548284	 1.6261019772	 0.122378
H	 3.3925503714	-3.1853042116	 1.0188471992	 0.118509
59.1752	83.7386	153.4756	223.533	239.4785	283.7134	318.2457	338.8925	392.6565	409.5647	508.1809	523.4324	682.5619	758.1465	778.1542	855.3676	893.0906	898.0989	912.6772	933.5125	942.4822	983.4888	1019.5432	1042.7467	1052.3575	1080.6409	1088.1888	1096.0084	1137.361	1193.3415	1204.3879	1253.4879	1259.3294	1274.2345	1278.7713	1327.6936	1373.0627	1383.8034	1403.1159	1411.5144	1440.5224	1482.173	1488.9565	1496.6655	1499.8847	2972.503	3009.2754	3031.9334	3080.4561	3104.011	3111.2395	3136.2356	3138.733	3145.1211	3226.7518	3241.3534	3787.6877
CC1CC(O1)C1(O)CC1	C[C@H]1C[C@@H](O1)C1(O)CC1	
InChI=1S/C7H12O2/c1-5-4-6(9-5)7(8)2-3-7/h5-6,8H,2-4H2,1H3	InChI=1S/C7H12O2/c1-5-4-6(9-5)7(8)2-3-7/h5-6,8H,2-4H2,1H3/t5-,6+/m0/s1
