18
gdb 83314	2.63189	1.56048	1.34169	2.9349	72.26	-0.2298	-0.0269	0.2029	1020.2474	0.147055	-439.05425	-439.046007	-439.045063	-439.087163	30.547	
C	-0.3333629441	 1.4639715607	-0.1073553723	-0.341264
N	 0.0271189833	 0.0518023632	 0.0141364906	-0.086496
C	 1.3524417512	-0.4488981585	-0.301551727	-0.046444
C	 2.5303043833	 0.5089297789	-0.2804344682	-0.111983
O	 2.4583453279	 1.2127036673	 0.960394491	-0.247945
C	 1.7491146754	 0.4370305273	 1.8985270454	 0.008576
C	 1.0268168521	 1.3097286981	 2.9109901129	 0.150832
O	 0.9619213865	 2.5081125792	 2.8895845597	-0.23712
C	 0.8260628674	-0.4889197402	 1.0973918045	-0.088936
H	 0.4433708943	 2.1711067526	 0.2011291711	 0.153055
H	-0.5992244924	 1.6542055375	-1.1517875719	 0.121532
H	-1.2260019388	 1.6436645734	 0.4990384002	 0.128132
H	 1.4075679207	-1.3219896911	-0.946913309	 0.099539
H	 3.4690478788	-0.0609650632	-0.3586413176	 0.10455
H	 2.5167221818	 1.2577618762	-1.0794732285	 0.120717
H	 2.4244443425	-0.2139541726	 2.4902067079	 0.093302
H	 0.5463061739	 0.7090416864	 3.7189249137	 0.078429
H	 0.4563457662	-1.3873014051	 1.5844800975	 0.101525
89.1438	135.2384	186.9176	212.7246	227.0919	266.7565	317.4653	452.6307	485.7509	678.6365	707.5283	735.151	764.3155	822.0726	837.678	924.4447	977.6211	1003.6117	1031.417	1044.8131	1055.5046	1106.9278	1129.0691	1148.392	1167.1333	1186.3713	1235.9333	1274.3687	1303.3954	1309.1908	1349.1554	1364.5567	1407.152	1428.3898	1467.1639	1495.9335	1509.5426	1518.9164	1846.155	2854.9136	2904.1522	2989.8208	3031.2061	3069.724	3103.315	3107.2667	3137.3419	3147.5809
CN1C2COC(C=O)C12	CN1[C@H]2CO[C@@H](C=O)[C@@H]12	
InChI=1S/C6H9NO2/c1-7-4-3-9-5(2-8)6(4)7/h2,4-6H,3H2,1H3	InChI=1S/C6H9NO2/c1-7-4-3-9-5(2-8)6(4)7/h2,4-6H,3H2,1H3/t4-,5-,6-,7?/m0/s1
