15
gdb 44896	4.10964	1.19017	1.1045	2.5604	71.84	-0.2399	-0.0293	0.2106	1091.3109	0.111845	-420.575877	-420.568502	-420.567558	-420.607767	28.628	
O	 0.0307062824	 0.0420429011	 0.05682929	-0.313527
C	-0.0000274198	 1.238294741	 0.0252124621	 0.440664
C	-1.2066701559	 2.2087109775	 0.047320165	-0.354418
C	-0.3701089496	 3.4985075236	 0.0128181792	 0.072773
O	 0.6051865718	 3.1844576505	-1.0329789602	-0.293777
C	 1.1526978809	 2.2560616646	-0.0498034952	-0.041242
C	 0.7439757698	 3.259177623	 1.0828148878	-0.229264
C	 1.6641626657	 4.3547608993	 1.2903098956	 0.303652
C	 2.4263163222	 5.2623265903	 1.4891250405	-0.398822
H	-1.8249838281	 2.1016170423	-0.8467851886	 0.145163
H	-1.8295391107	 2.0681853143	 0.9347756328	 0.131878
H	-0.8594574917	 4.4628420817	-0.1073508851	 0.106829
H	 2.1700634522	 1.9180702659	-0.228377741	 0.11356
H	 0.4205270409	 2.8203766291	 2.0329257321	 0.115876
H	 3.1008582297	 6.0651846458	 1.6572610349	 0.200656
110.5965	139.9185	174.9869	342.2912	413.41	422.8239	507.7002	539.0032	611.5927	633.8211	642.4534	645.1234	772.3947	846.4125	852.6084	904.0739	931.5252	939.9524	975.6273	987.8971	1053.6321	1120.7034	1144.3351	1157.9885	1171.0793	1218.5443	1235.254	1278.5891	1298.9839	1367.7063	1449.5857	1887.4427	2241.4188	3051.7791	3073.383	3127.1364	3147.6288	3171.1279	3503.7563
O=C1CC2OC1C2C#C	O=C1C[C@@H]2O[C@H]1[C@H]2C#C	
InChI=1S/C7H6O2/c1-2-4-6-3-5(8)7(4)9-6/h1,4,6-7H,3H2	InChI=1S/C7H6O2/c1-2-4-6-3-5(8)7(4)9-6/h1,4,6-7H,3H2/t4-,6-,7-/m0/s1
