16
gdb 46308	3.14617	1.40026	1.26982	3.5918	72.34	-0.2237	0.0006	0.2244	1032.7058	0.124991	-437.90313	-437.895425	-437.894481	-437.935717	28.67	
O	 0.1569964609	 0.0400764572	 0.2422460985	-0.356455
C	 0.0346281477	 1.2244682539	 0.0996448549	 0.370455
N	-1.0518621415	 2.0546104048	-0.0271810242	-0.330983
C	-0.3123397635	 3.3180762567	-0.0316421226	-0.214449
C	 1.0070444282	 2.466383453	-0.0184535425	 0.254987
O	 1.8422706717	 2.677910745	 1.0958189661	-0.305802
C	 3.2107843927	 2.7425222764	 0.6869741414	-0.134348
C	 3.1668954278	 2.6615159409	-0.8110953796	-0.106468
C	 1.9093207042	 2.5091286964	-1.2108161096	-0.132817
H	-2.0399144639	 1.8617579895	 0.0360883817	 0.253603
H	-0.4774824058	 3.9385887455	-0.9179671886	 0.110245
H	-0.4235341401	 3.9152060363	 0.8780362812	 0.124177
H	 3.6583203323	 3.67758689	 1.0545096524	 0.112047
H	 3.7719057441	 1.9092255581	 1.1352393398	 0.122327
H	 4.0486102082	 2.7138780602	-1.4363054902	 0.115421
H	 1.547309187	 2.4036395662	-2.2248137986	 0.118061
90.6772	104.184	164.1525	247.6578	276.1721	393.7372	467.9761	484.7492	619.1727	704.8216	739.9405	781.223	794.9981	847.584	909.6725	950.6664	957.6939	961.6342	1000.8505	1027.7619	1044.6828	1120.3415	1150.0045	1154.751	1192.3283	1197.3411	1230.2814	1285.7392	1358.488	1380.9831	1382.237	1515.165	1521.6769	1683.0195	1899.6083	2991.76	3014.3259	3042.8967	3098.5792	3214.995	3238.7291	3621.5776
O=C1NCC11OCC=C1	O=C1NC[C@]21OCC=C2	
InChI=1S/C6H7NO2/c8-5-6(4-7-5)2-1-3-9-6/h1-2H,3-4H2,(H,7,8)	InChI=1S/C6H7NO2/c8-5-6(4-7-5)2-1-3-9-6/h1-2H,3-4H2,(H,7,8)/t6-/m1/s1
