19
gdb 68619	2.7466	1.54142	1.21626	5.2919	79.74	-0.2546	0.0333	0.2878	1073.4703	0.161496	-382.072872	-382.064973	-382.064029	-382.104954	31.193	
C	 0.0419363082	 1.5286192535	 0.0834380064	-0.495663
C	 0.0339590337	 0.0239217591	 0.0472732698	 0.33223
C	 0.7879841621	-0.7112002801	-1.0919429474	-0.265971
C	 0.5569496219	-2.1827811174	-0.6235515601	-0.240377
C	-0.264663238	-1.8737595702	 0.6480944033	 0.001869
N	 0.4337768033	-0.721643157	 1.2885022985	-0.328243
C	-1.2906829223	-0.8263241593	 0.1137318757	-0.18812
C	-2.2675285806	-0.3620968844	 1.0806406288	 0.289874
N	-3.0813153702	 0.0138137244	 1.811071871	-0.340484
H	 1.0662998497	 1.9018913619	 0.1927616393	 0.121533
H	-0.3664680488	 1.9426421794	-0.8444463424	 0.123329
H	-0.5502419716	 1.9000576993	 0.9233483689	 0.152506
H	 0.3728833375	-0.5014607381	-2.0820177508	 0.106519
H	 1.8439672279	-0.425352308	-1.1058997361	 0.103796
H	 0.0117912671	-2.7900785787	-1.3516149711	 0.107986
H	 1.4854832293	-2.7058033687	-0.3789739946	 0.106346
H	-0.5768850779	-2.6975591171	 1.2887122542	 0.091715
H	 1.4424789235	-0.8561677992	 1.371575324	 0.209116
H	-1.7797800548	-1.0522473891	-0.8364732973	 0.112038
131.1197	154.111	208.7169	258.5293	303.4725	351.0133	391.0028	459.6076	527.7389	568.6127	639.9346	694.8484	824.3119	826.9993	862.6581	888.5418	909.4203	924.8797	952.2375	992.364	1014.0561	1034.4294	1083.1378	1101.9421	1127.5647	1151.7144	1181.2526	1196.0536	1238.1711	1266.2127	1298.6278	1301.5939	1330.298	1344.749	1363.0607	1418.1952	1483.131	1492.227	1493.041	1508.1077	2356.2369	3035.5663	3051.4513	3061.5069	3090.2636	3091.5907	3099.6217	3109.3944	3125.5491	3131.0535	3438.7291
CC12CCC(N1)C2C#N	C[C@@]12CC[C@@H](N1)[C@H]2C#N	
InChI=1S/C7H10N2/c1-7-3-2-6(9-7)5(7)4-8/h5-6,9H,2-3H2,1H3	InChI=1S/C7H10N2/c1-7-3-2-6(9-7)5(7)4-8/h5-6,9H,2-3H2,1H3/t5-,6-,7+/m1/s1
