16
gdb 48174	4.16403	0.88516	0.81604	2.4198	66.77	-0.2535	-0.0901	0.1634	1393.5753	0.1231	-475.017245	-475.008393	-475.007449	-475.052036	30.61	
O	-0.6374771711	 1.3005166218	 0.5624030033	-0.20795
C	 0.1565678776	 1.3887950384	-0.3296314793	 0.098784
C	 1.3630445256	 2.3376580366	-0.3312582592	 0.352305
O	 2.1222538906	 2.3650888023	-1.271510522	-0.35015
O	 1.4423618243	 3.0586342021	 0.7809355964	-0.217888
C	 2.5765813068	 3.9606964788	 0.8975650344	-0.114615
C	 2.291208401	 5.3002774087	 0.2789187301	 0.006939
C	 3.4214568939	 6.0665266801	-0.3099277188	-0.241253
N	 2.3888819334	 5.4881539143	-1.1754113551	-0.307326
H	 0.1129410592	 0.793361652	-1.2631107246	 0.118823
H	 2.7336489742	 4.0475392971	 1.9751299848	 0.132882
H	 3.4474123518	 3.489411647	 0.4338201503	 0.129002
H	 1.4715335291	 5.8459473226	 0.7411329861	 0.107193
H	 3.4239404701	 7.1508250899	-0.2489087579	 0.126183
H	 4.4093150351	 5.6115720114	-0.292399786	 0.115909
H	 2.7219467685	 4.6286011468	-1.6062359425	 0.251162
51.0396	99.2635	105.1797	125.4747	189.3848	261.3262	310.5137	390.7125	492.1827	517.1628	611.3464	733.4803	799.1151	833.6742	857.251	934.1952	956.9318	1005.9739	1023.2535	1030.4905	1072.4932	1130.8477	1156.1358	1233.0178	1265.1028	1282.1212	1311.8199	1331.434	1376.0465	1390.72	1440.0694	1477.3463	1515.7082	1794.2124	1844.6174	2950.699	3065.7096	3107.0932	3121.1652	3140.6526	3192.8654	3506.6854
O=CC(=O)OCC1CN1	O=CC(=O)OC[C@H]1CN1	
InChI=1S/C5H7NO3/c7-2-5(8)9-3-4-1-6-4/h2,4,6H,1,3H2	InChI=1S/C5H7NO3/c7-2-5(8)9-3-4-1-6-4/h2,4,6H,1,3H2/t4-/m1/s1
