19
gdb 117587	2.0818	1.088	0.91079	1.584	83.38	-0.2609	0.0317	0.2926	1386.1019	0.154596	-385.810613	-385.799768	-385.798824	-385.846357	39.429	
C	-0.0768572012	 1.577982022	-0.0883492935	-0.405498
C	-0.0392047981	 0.0265592991	-0.0011086125	-0.154474
C	 0.7038970775	-0.4548709989	 1.2839615489	-0.177216
C	 0.0623385756	-0.0323033911	 2.6014147383	-0.101347
O	 0.826664095	-0.6370874375	 3.6354384064	-0.420948
C	-1.415434235	-0.4965480573	-0.0224707341	 0.368273
C	-2.5455875066	-0.9046242288	-0.0260798728	-0.496965
C	 0.6907966579	-0.4937235849	-1.1683312619	 0.34233
C	 1.3174017029	-0.8990591277	-2.109539504	-0.460862
H	 0.9401672259	 1.9757736346	-0.033446267	 0.126847
H	-0.5239347404	 1.8899534155	-1.0341476159	 0.136844
H	-0.6700949801	 1.9958092857	 0.727859285	 0.127533
H	 0.7598690061	-1.5468209573	 1.2663391524	 0.126815
H	 1.7308729508	-0.0781908172	 1.2429232985	 0.116261
H	 0.0664456346	 1.0637399907	 2.7015696227	 0.08644
H	-0.9853736892	-0.3650800525	 2.6273904625	 0.10312
H	 0.4263435628	-0.4036831785	 4.4778689765	 0.286541
H	-3.5406608825	-1.2755949356	-0.0418495414	 0.199305
H	 1.8587316242	-1.2663846704	-2.946145378	 0.197003
71.2605	98.7516	119.9479	132.376	179.1006	214.5886	250.4807	258.9214	293.7377	337.8393	392.2654	464.8342	491.5264	563.8768	590.0574	634.0792	636.1206	640.2109	644.9018	720.2892	796.3662	921.5436	952.3457	1000.5058	1028.1058	1072.9856	1136.0462	1173.4378	1196.7653	1255.6388	1261.4468	1322.4464	1341.2921	1405.1983	1462.9581	1481.7837	1488.4008	1500.1739	1531.5001	2233.3125	2240.269	2980.8682	3017.9563	3051.6346	3057.5728	3107.448	3131.847	3139.1661	3500.7459	3502.3506	3832.3165
CC(CCO)(C#C)C#C	CC(CCO)(C#C)C#C	
InChI=1S/C8H10O/c1-4-8(3,5-2)6-7-9/h1-2,9H,6-7H2,3H3	InChI=1S/C8H10O/c1-4-8(3,5-2)6-7-9/h1-2,9H,6-7H2,3H3
