17
gdb 97511	4.10744	0.65544	0.59345	2.9759	83.04	-0.2559	-0.0484	0.2075	1854.4725	0.133716	-421.790409	-421.780626	-421.779682	-421.826921	33.547	
O	-0.0457336424	 1.4770444459	 0.0513239786	-0.406591
C	-0.0284441204	 0.0582147355	 0.0179284521	-0.222458
C	-1.3896328232	-0.454452337	 0.0050807971	 0.176787
C	-2.5034416617	-0.9190780985	-0.0064545722	-0.019583
C	-3.8469422462	-1.4609619303	-0.0193902206	 0.225003
O	-4.0507455829	-2.6616734896	-0.0461400953	-0.328425
C	-4.9456858305	-0.4562491596	 0.0022189846	-0.109027
C	-6.2212453886	-0.8121109879	-0.7507869776	-0.248631
C	-6.2220634137	-0.8450259118	 0.7373447737	-0.248626
H	 0.8691416936	 1.7767135164	 0.0578140312	 0.294591
H	 0.4945545538	-0.3216301076	-0.875176531	 0.131103
H	 0.493648215	-0.3632509461	 0.8927092824	 0.131106
H	-4.6421276642	 0.583108237	 0.0253858995	 0.103572
H	-6.7296120154	-0.0029550071	-1.2619626114	 0.119828
H	-6.2048413846	-1.76275078	-1.2711483506	 0.140763
H	-6.2062416784	-1.8177335179	 1.2152105639	 0.140761
H	-6.7310300203	-0.0592806416	 1.2832692656	 0.119829
44.3539	52.6655	62.3537	142.142	193.0166	231.0552	262.5179	262.6571	361.8795	384.9393	574.3134	583.2868	732.8429	749.3846	803.4643	827.8468	881.1595	902.6556	976.9648	1012.2169	1060.8133	1071.4598	1094.2209	1112.0612	1125.38	1177.9229	1210.5157	1218.9018	1245.1031	1257.4145	1400.7447	1453.4384	1455.3837	1484.3135	1490.6085	1737.8793	2333.5192	2966.0885	2985.6913	3142.4421	3143.9254	3189.2279	3230.4375	3244.8001	3820.5814
OCC#CC(=O)C1CC1	OCC#CC(=O)C1CC1	
InChI=1S/C7H8O2/c8-5-1-2-7(9)6-3-4-6/h6,8H,3-5H2	InChI=1S/C7H8O2/c8-5-1-2-7(9)6-3-4-6/h6,8H,3-5H2
