25
gdb 109680	2.65928	0.95029	0.88978	1.2252	89.78	-0.2408	0.0632	0.304	1532.7248	0.226367	-389.486465	-389.475039	-389.474095	-389.522905	41.941	
C	-0.27790869	 1.5514944423	 0.272282772	-0.372406
C	 0.072329868	 0.0970364377	-0.0697325205	-0.212436
C	 0.7971394343	-0.599769421	 1.0650199435	-0.0938
C	 0.0364959778	-1.4099991876	 2.1002231559	 0.050023
O	-1.3346763876	-1.6435454863	 1.9281277546	-0.423747
C	 0.9775376907	-2.1123710717	 1.1544920119	 0.286595
C	 0.3998045769	-2.9991346434	 0.0662584257	-0.461777
C	 2.2989749611	-2.5938030233	 1.7466376907	-0.238111
C	 2.2194944848	-3.9402315018	 2.4773761974	-0.382177
H	 0.6213165281	 2.132837777	 0.5041942112	 0.114925
H	-0.7888362192	 2.0443837355	-0.5608022378	 0.111079
H	-0.9357148837	 1.607401987	 1.1473079264	 0.102273
H	-0.8450002948	-0.4455715404	-0.3148097174	 0.10715
H	 0.6946823266	 0.0781432132	-0.9735623779	 0.096354
H	 1.6325431516	-0.0222132628	 1.4591951384	 0.06949
H	 0.3457293595	-1.3268388698	 3.1432876901	 0.074986
H	-1.8048016363	-0.832889201	 2.149894617	 0.287737
H	-0.5867030568	-2.6638225182	-0.2531722727	 0.132571
H	 1.060919697	-3.018075336	-0.808222451	 0.107136
H	 0.2880218277	-4.0290710016	 0.4196606811	 0.116958
H	 3.0474924193	-2.6540134093	 0.9444493032	 0.091797
H	 2.6700046665	-1.8341284617	 2.4458705709	 0.089259
H	 1.9600128501	-4.7589107499	 1.7997715524	 0.118703
H	 3.181122317	-4.1886728053	 2.9375053524	 0.108753
H	 1.4644132816	-3.9134074715	 3.2703269526	 0.118666
62.9585	79.76	123.2727	138.7199	167.0744	201.1354	231.4152	265.0773	273.6429	307.9213	313.6741	333.1168	361.5413	493.4755	553.6031	593.3315	693.0223	773.3132	784.558	831.0444	861.8536	914.4913	976.5443	985.8326	1020.0715	1040.5264	1048.3809	1076.2782	1091.8175	1117.691	1130.9251	1180.5242	1184.7987	1253.289	1265.9838	1287.0454	1301.7894	1340.4463	1354.0581	1369.5264	1401.8917	1408.0358	1413.2164	1417.664	1458.9249	1481.1191	1484.8534	1493.3173	1497.1258	1499.088	1505.1955	1508.144	1514.6047	3009.8064	3024.47	3027.596	3033.6254	3036.7529	3044.9037	3075.9841	3079.9335	3090.6945	3095.3036	3101.6903	3101.8819	3109.954	3113.0812	3147.3822	3803.7461
CCC1C(O)C1(C)CC	CC[C@H]1[C@@H](O)[C@]1(C)CC	
InChI=1S/C8H16O/c1-4-6-7(9)8(6,3)5-2/h6-7,9H,4-5H2,1-3H3	InChI=1S/C8H16O/c1-4-6-7(9)8(6,3)5-2/h6-7,9H,4-5H2,1-3H3/t6-,7+,8+/m0/s1
