17
gdb 53971	3.0922	1.06978	0.97685	2.2953	68.1	-0.2707	-0.0021	0.2686	1227.9562	0.135022	-455.198896	-455.189394	-455.18845	-455.233453	34.409	
C	 0.0723603559	 1.5436934165	 0.0397880448	-0.421808
C	-0.0217837122	 0.0094842939	 0.0936366108	 0.07346
N	 0.7216386698	-0.4697425526	 1.2674114683	-0.55506
H	 0.5727270494	 0.1364897181	 2.0675905876	 0.258649
H	 0.42615979	-1.4029651074	 1.5406869125	 0.249496
H	 2.1027491224	-0.7773630986	-0.0225807106	 0.310849
C	-1.5022368398	-0.4594977613	 0.0499719424	-0.371323
C	-2.2563117935	 0.0123965251	 1.2068408431	 0.259799
N	-2.8141533542	 0.3938015398	 2.1446138016	-0.309919
C	 0.6753290359	-0.5372153322	-1.1806981007	 0.450125
O	 1.9502863777	-0.8838808399	-0.9871476664	-0.372031
O	 0.1232573873	-0.6041051904	-2.2466399679	-0.34995
H	 1.1174178825	 1.860399428	 0.091927663	 0.13901
H	-0.3574168498	 1.9161131182	-0.892384515	 0.154278
H	-0.4714931649	 1.9889775158	 0.8788414336	 0.146824
H	-1.9651957643	-0.1099126699	-0.8762808641	 0.182902
H	-1.5450546521	-1.5545360032	 0.0221705872	 0.154697
67.886	76.6397	127.5743	222.3144	250.681	270.7424	307.4091	341.5477	373.3821	393.2529	402.7985	475.3537	546.3164	680.7061	760.9983	768.127	840.5718	861.5869	901.3569	936.382	971.1965	995.1347	1042.1909	1144.3283	1160.3807	1221.8558	1278.6906	1302.2025	1345.5323	1406.4584	1421.0644	1459.0385	1494.6171	1499.5961	1658.6369	1863.1953	2359.136	3046.0508	3052.5134	3111.8324	3120.4934	3139.7484	3487.3825	3501.4591	3579.6125
CC([NH3+])(CC#N)C([O-])=O	C[C@@](N)(CC#N)C(=O)O	
InChI=1S/C5H8N2O2/c1-5(7,2-3-6)4(8)9/h2,7H2,1H3,(H,8,9)	InChI=1S/C5H8N2O2/c1-5(7,2-3-6)4(8)9/h2,7H2,1H3,(H,8,9)/t5-/m1/s1
