15
gdb 57014	3.20544	1.23152	0.94849	2.3399	65.54	-0.268	-0.0047	0.2633	1167.2447	0.113087	-453.957026	-453.948745	-453.947801	-453.990809	29.285	
O	-0.2640248756	 1.2876256507	 0.0021688978	-0.406951
C	 0.0369078052	-0.0924681615	 0.0537570208	-0.034903
C	 0.6911670267	-0.5515211401	-1.1851438593	 0.264323
N	 1.2308620326	-0.8609339314	-2.1585917784	-0.308621
C	 0.8883536682	-0.4329032646	 1.2956872962	 0.06085
C	 0.1572813845	-0.1103426046	 2.6245061484	-0.205447
N	-0.1474072108	-1.4274664959	 3.2099912483	-0.250696
C	 0.4017043063	-2.278067425	 2.4531423969	 0.120536
O	 1.083579779	-1.8615156608	 1.3486920386	-0.222574
H	 0.5337290132	 1.7688629771	-0.2476140924	 0.302344
H	-0.9250079598	-0.6088332131	 0.1483803682	 0.152808
H	 1.8710165655	 0.0393288707	 1.2056275353	 0.107507
H	 0.7818909599	 0.4633283497	 3.3161472819	 0.126763
H	-0.7581338551	 0.4641518244	 2.4577322715	 0.140516
H	 0.3971737802	-3.3529074057	 2.5917456162	 0.153545
64.1062	78.581	128.8034	226.1004	254.2912	315.958	368.0954	422.7263	490.9531	543.7513	610.0153	765.307	860.7781	884.8334	946.4757	960.3664	976.7636	997.7033	1043.6731	1078.7074	1107.1068	1114.3958	1195.4491	1261.7748	1290.7306	1303.8189	1317.2916	1344.1781	1384.1223	1417.191	1501.5965	1713.0261	2359.1044	3053.1211	3060.1546	3074.8951	3096.8456	3227.2357	3799.5113
OC(C#N)C1CN=CO1	O[C@@H](C#N)[C@H]1CN=CO1	
InChI=1S/C5H6N2O2/c6-1-4(8)5-2-7-3-9-5/h3-5,8H,2H2	InChI=1S/C5H6N2O2/c6-1-4(8)5-2-7-3-9-5/h3-5,8H,2H2/t4-,5+/m0/s1
