18
gdb 66200	2.31362	1.54155	1.39771	2.1377	77.23	-0.2462	0.0229	0.2691	1046.1221	0.147382	-401.928044	-401.919414	-401.91847	-401.960948	32.792	
C	-0.0184257777	 1.5298903649	 0.0054864053	-0.425661
C	-0.0340839294	-0.0106802671	 0.0009860992	-0.016479
C	 0.7104758326	-0.533667255	-1.24271879	-0.077017
O	 0.8400147327	-1.9561672983	-1.2339706703	-0.222752
C	 1.0951879225	-2.5134632419	-0.0244245579	 0.133576
N	 1.0959198573	-1.9780056012	 1.1192858075	-0.26774
C	 0.7287584738	-0.5741136058	 1.2305081806	-0.164633
C	-1.415747533	-0.4961515973	-0.0070258819	 0.373463
C	-2.5554505691	-0.877703733	-0.0137582372	-0.505484
H	 1.0106650427	 1.9031707708	-0.023494089	 0.117787
H	-0.5588992318	 1.9299364321	-0.8572367991	 0.128764
H	-0.4982139085	 1.9131123172	 0.9100781317	 0.134806
H	 0.1800049982	-0.2836273198	-2.1636026725	 0.126479
H	 1.7126859729	-0.0863183773	-1.2768693324	 0.109379
H	 1.3151797866	-3.5720548406	-0.1464699855	 0.125921
H	 1.6395414526	 0.0194671675	 1.3877746843	 0.108452
H	 0.1168701705	-0.4507978802	 2.129781713	 0.121614
H	-3.5595598527	-1.2234227851	-0.0160451758	 0.199524
107.2005	133.4912	189.1552	217.5483	224.103	289.7229	371.6608	418.2347	463.9523	500.1145	587.6731	597.0632	633.037	640.379	709.3651	842.4298	902.3298	929.1537	951.8667	969.4961	971.1689	1012.8597	1054.5824	1130.1711	1172.8416	1199.5009	1210.9287	1266.7143	1330.398	1351.445	1393.9285	1408.6768	1421.0538	1476.0949	1488.8569	1495.188	1503.2104	1741.3975	2234.0009	3013.3377	3022.2811	3037.2766	3070.5043	3108.9201	3113.2826	3120.0285	3164.8593	3501.8792
CC1(COC=NC1)C#C	C[C@]1(COC=NC1)C#C	
InChI=1S/C7H9NO/c1-3-7(2)4-8-6-9-5-7/h1,6H,4-5H2,2H3	InChI=1S/C7H9NO/c1-3-7(2)4-8-6-9-5-7/h1,6H,4-5H2,2H3/t7-/m0/s1
