16
gdb 14162	3.49621	2.34059	1.89832	1.9555	64.12	-0.2333	0.0042	0.2375	754.9353	0.129609	-383.688225	-383.681207	-383.680262	-383.718809	28.02	
C	-0.107335006	 1.5095082323	-0.044157988	-0.480111
C	-0.0411727846	-0.0103287243	-0.0273497697	 0.433683
O	-1.2880517943	-0.5806782838	-0.3123116656	-0.470967
C	 1.2689040824	-0.6274618113	-0.6890216029	-0.056284
O	 1.964967513	-0.2106271981	 0.5279618965	-0.285189
C	 0.7329368972	-0.6399515835	 1.1889588384	-0.031613
C	 0.6982321131	-2.1353209323	 0.8451372689	-0.071409
C	 1.066789251	-2.1244934359	-0.4377655308	-0.069228
H	 0.8589563606	 1.9458754164	 0.2073271586	 0.149242
H	-0.3983395019	 1.8676437486	-1.0404068318	 0.110219
H	-0.8574837138	 1.8626793796	 0.6717492483	 0.123271
H	-1.7901495505	 0.0398461292	-0.8488655444	 0.282151
H	 1.7180021858	-0.2686616597	-1.61514885	 0.072285
H	 0.6233647674	-0.3005193978	 2.2187728754	 0.075685
H	 0.4088078684	-2.947673127	 1.4941752548	 0.109905
H	 1.1662997225	-2.9273365023	-1.1524659676	 0.10836
171.8257	236.3459	245.6719	262.7202	370.3397	391.6811	540.6836	575.3366	607.0935	633.3087	731.5659	794.6187	825.3089	854.1351	888.5421	906.6727	916.5709	940.4654	962.2238	1002.5529	1085.644	1120.3731	1142.5853	1157.9696	1209.0546	1231.3631	1245.2907	1295.8287	1307.1151	1388.7951	1401.0505	1490.092	1502.64	1615.1524	3022.2021	3084.2051	3123.4778	3128.4927	3154.6665	3236.9525	3263.7436	3827.5041
CC1(O)C2OC1C=C2	C[C@@]1(O)[C@H]2O[C@@H]1C=C2	
InChI=1S/C6H8O2/c1-6(7)4-2-3-5(6)8-4/h2-5,7H,1H3	InChI=1S/C6H8O2/c1-6(7)4-2-3-5(6)8-4/h2-5,7H,1H3/t4-,5+,6+
