21
gdb 60442	3.31312	0.9091	0.79039	4.6389	76.93	-0.2418	-0.0287	0.213	1527.3262	0.178636	-461.37479	-461.363972	-461.363028	-461.411878	38.127	
C	-0.2945386828	 1.4469304673	-0.1216719982	-0.387097
C	 0.591821773	 0.1982761409	-0.1882808662	 0.14965
O	 1.7849356448	 0.4413526491	-0.9062864458	-0.452173
C	 0.8949036922	-0.3752794947	 1.1964135512	-0.105313
O	 1.4869171539	 0.6449148788	 2.0029105057	-0.235763
C	 2.5364041973	 0.2454532397	 2.8255801814	-0.179707
C	 3.896341603	 0.2259889585	 2.1178582616	 0.36949
C	 5.0705962792	-0.2392065869	 2.9539269365	-0.480216
O	 4.0187475866	 0.5690690278	 0.9640230701	-0.280021
H	 0.1929497199	 2.2293750147	 0.4656097317	 0.126441
H	-0.4656244492	 1.8252146586	-1.1324905672	 0.119241
H	-1.2648996851	 1.2244481116	 0.336833758	 0.098995
H	 0.0554897274	-0.586120239	-0.7413155046	 0.072945
H	 2.4472998741	 0.7794579604	-0.2839933736	 0.297232
H	-0.0250789747	-0.7310316509	 1.6836189239	 0.094712
H	 1.5806726454	-1.2243092334	 1.0819326158	 0.098327
H	 2.6098724026	 0.9700671325	 3.6490951456	 0.135083
H	 2.3646300951	-0.7374085614	 3.2958397628	 0.111884
H	 4.9909791045	-1.3189959043	 3.1275120932	 0.150935
H	 6.0041430561	-0.030618874	 2.4306588949	 0.154495
H	 5.0737534768	 0.2432322346	 3.9370039134	 0.14086
38.7967	53.4857	91.5688	115.1216	131.9058	204.9403	249.6705	277.2956	319.7473	367.9257	415.2003	446.0762	461.8515	534.5113	598.183	668.9018	797.1624	813.1613	861.9915	911.4815	935.2882	964.3069	992.1392	1063.6511	1099.1137	1134.8315	1160.9349	1177.1251	1208.8387	1280.0706	1291.0394	1328.7016	1375.3803	1379.1976	1385.9417	1394.8194	1411.9934	1445.7548	1455.591	1464.4982	1475.8446	1488.7868	1500.0302	1503.8745	1812.4187	2971.0029	2989.4153	3010.9423	3032.2995	3036.9093	3038.8456	3047.795	3099.4229	3109.5484	3131.3544	3155.8797	3699.7582
CC(O)COCC(C)=O	C[C@@H](O)COCC(=O)C	
InChI=1S/C6H12O3/c1-5(7)3-9-4-6(2)8/h5,7H,3-4H2,1-2H3	InChI=1S/C6H12O3/c1-5(7)3-9-4-6(2)8/h5,7H,3-4H2,1-2H3/t5-/m1/s1
