19
gdb 41081	3.25275	1.80474	1.61999	1.6791	79.15	-0.2362	0.0687	0.3049	905.2538	0.161521	-385.776933	-385.770643	-385.769699	-385.80712	27.587	
C	-0.0114234331	 1.6211504259	-0.186026474	-0.276352
C	 1.5532569457	 1.4263869173	 0.0294842911	-0.356861
C	 1.1439654928	 0.145906739	 0.80121721	 0.323462
C	 0.778782564	 0.2095027977	 2.3641849608	 0.030387
C	-0.7093754316	-0.1705433849	 2.3586869485	-0.211477
C	-0.5874848472	-0.9861468003	 1.0682121121	-0.141016
C	-0.1234923504	 0.0661273949	 0.0189070293	 0.013836
C	 1.0544106328	-1.3498493871	 1.229903056	-0.046635
O	 1.4005915848	-1.0933141976	 2.5761381379	-0.274702
H	-0.4475103166	 2.2046387848	 0.6290221932	 0.110895
H	-0.3445863918	 2.036737575	-1.1400682349	 0.100775
H	 2.0593976464	 1.2211464761	-0.9174595047	 0.113162
H	 2.1011241035	 2.200335873	 0.5732982807	 0.103293
H	 1.1617094295	 0.9830184278	 3.029452039	 0.078361
H	-0.9600710903	-0.7552306842	 3.2461599438	 0.107434
H	-1.4010707414	 0.6701075852	 2.2627570823	 0.099675
H	-1.3314303249	-1.7503903611	 0.8443620384	 0.064223
H	 0.0806044139	-0.4264125338	-0.9384087921	 0.075473
H	 1.4742669739	-2.2493247678	 0.7796617725	 0.086068
218.5789	262.9471	319.3876	462.9668	510.0102	567.9414	625.3045	638.8466	661.0152	743.0408	765.3188	833.6242	850.2363	864.4677	903.6405	923.8022	933.9306	962.6119	997.7314	1013.7994	1039.7153	1050.9294	1065.6686	1093.6516	1118.188	1126.4529	1163.2093	1179.4241	1193.4065	1203.1067	1212.5114	1225.1702	1229.2907	1245.2216	1290.6743	1307.4708	1328.5025	1365.4141	1474.041	1481.5267	1489.7083	3040.9418	3056.9118	3062.434	3068.805	3110.0681	3116.3546	3122.5684	3123.6901	3126.7686	3128.7076
C1CC23C4CC(C12)C3O4	C1C[C@@]23[C@H]4C[C@@H]([C@@H]12)[C@@H]3O4	
InChI=1S/C8H10O/c1-2-8-5(1)4-3-6(8)9-7(4)8/h4-7H,1-3H2	InChI=1S/C8H10O/c1-2-8-5(1)4-3-6(8)9-7(4)8/h4-7H,1-3H2/t4-,5+,6+,7-,8-/m0/s1
