15
gdb 27995	2.61041	1.40512	0.91868	2.9476	72.02	-0.2165	-0.0472	0.1693	1190.7353	0.11281	-454.010993	-454.002804	-454.001859	-454.043799	30.019	
C	-0.0184827377	 1.4467259549	-0.0171450798	-0.503607
C	 0.0213550476	-0.0453228746	-0.0190663335	 0.368213
N	 0.0460788642	-0.7903711533	-1.0931912014	-0.384133
C	 0.0790273459	-2.0993389245	-0.6501053287	 0.350633
O	 0.1101468474	-3.1154483197	-1.529451416	-0.426828
C	 0.0748230327	-2.1723339124	 0.707289986	-0.225069
N	 0.0371712705	-0.8340064823	 1.1244366162	-0.089236
C	 0.0195328067	-0.3987312108	 2.4449769037	 0.169361
O	 0.034680563	-1.1387106221	 3.3933385739	-0.285811
H	 0.8526288876	 1.883333982	 0.4830443026	 0.145721
H	-0.0224894764	 1.7809729941	-1.0552315449	 0.162201
H	-0.9163571852	 1.8360946922	 0.4746566849	 0.145728
H	 0.103511274	-2.7176214262	-2.4089158874	 0.305852
H	 0.0932005746	-2.9803850322	 1.4137694855	 0.161068
H	-0.0104097649	 0.7008638149	 2.522008919	 0.105907
125.8405	144.0405	196.5707	212.5294	235.1693	290.405	388.2254	410.6879	443.1323	554.8899	633.2571	645.2371	701.7209	707.7346	740.5538	886.0254	1005.2145	1024.1836	1032.8567	1060.5379	1152.0475	1163.8991	1249.2191	1365.2782	1378.8148	1410.1366	1439.7995	1454.1385	1482.9491	1485.1755	1581.964	1693.4668	1818.9673	3002.8484	3038.5335	3091.6558	3150.6123	3319.6873	3799.6552
CC1=NC(O)=CN1C=O	Cc1nc(O)cn1C=O	
InChI=1S/C5H6N2O2/c1-4-6-5(9)2-7(4)3-8/h2-3,9H,1H3	InChI=1S/C5H6N2O2/c1-4-6-5(9)2-7(4)3-8/h2-3,9H,1H3
