22
gdb 112581	3.04281	0.92689	0.84037	4.0972	87.	-0.298	0.0401	0.3381	1499.3218	0.193311	-367.234278	-367.224309	-367.223365	-367.269321	36.965	
C	 0.020050472	 1.5233319705	 0.2561888981	-0.380829
C	-0.1447771173	 0.0199354874	 0.0109428815	-0.200721
C	 0.611318263	-0.4737721476	-1.2148152426	 0.062932
C	 2.1653704876	-0.4963876845	-1.1802191132	-0.265679
C	 2.1447903467	-1.8823858066	-1.9165238113	 0.140294
C	 3.0974593054	-2.9682228242	-1.4102142641	-0.451151
C	 0.6319508533	-1.9964214667	-1.5145305389	-0.282587
C	 2.2921343793	-1.7119658066	-3.3611787067	 0.255414
N	 2.4102723081	-1.5793373058	-4.5042189052	-0.349881
H	 1.072606303	 1.7899278471	 0.4016132873	 0.11943
H	-0.3537155569	 2.1055154208	-0.5931666396	 0.119395
H	-0.5289290843	 1.8430236518	 1.1469642808	 0.115721
H	 0.199073253	-0.5382092957	 0.8928006631	 0.089814
H	-1.2099803834	-0.2197948086	-0.1051938269	 0.100484
H	 0.2732083226	 0.072308994	-2.1027950216	 0.089212
H	 2.7096475001	 0.3156734366	-1.6645850711	 0.11987
H	 2.5467901575	-0.6252200062	-0.1620234543	 0.103504
H	 2.98121667	-3.0869054838	-0.328975037	 0.119339
H	 2.8878179644	-3.9302390811	-1.8875557166	 0.136255
H	 4.1392801852	-2.7065334505	-1.6184965443	 0.136161
H	 0.5360943641	-2.5918589981	-0.6010194087	 0.103755
H	-0.0559353934	-2.3850955423	-2.2672153986	 0.119265
55.6484	96.991	143.6956	177.0886	205.046	231.2345	247.4088	308.6565	341.5429	393.842	412.2148	521.344	585.3122	615.2134	704.9589	781.2311	834.1639	852.3287	905.7192	920.6062	954.0899	969.989	999.6699	1029.3883	1072.3433	1090.9812	1126.2989	1158.465	1187.1292	1212.3399	1241.5657	1279.3165	1280.7228	1290.899	1314.457	1348.3422	1394.9453	1411.5517	1413.8454	1472.9434	1483.5757	1488.7155	1490.6832	1499.8141	1500.3745	1506.7895	2346.241	3008.4613	3031.9018	3035.7676	3037.8437	3049.4595	3051.2481	3059.1089	3098.4025	3105.8004	3113.7881	3114.0678	3122.943	3125.1396
CCC1CC(C)(C1)C#N	CC[C@H]1C[C@@](C)(C1)C#N	
InChI=1S/C8H13N/c1-3-7-4-8(2,5-7)6-9/h7H,3-5H2,1-2H3	InChI=1S/C8H13N/c1-3-7-4-8(2,5-7)6-9/h7H,3-5H2,1-2H3/t7-,8-
