16
gdb 32016	3.70909	1.17793	0.90389	2.7862	74.84	-0.2587	-0.0631	0.1956	1250.6741	0.124487	-437.960437	-437.952316	-437.951372	-437.993748	29.534	
C	 0.1451003055	 1.5077059076	 0.0070249657	-0.374074
C	-0.0664845781	-0.004507264	 0.0037088859	-0.284419
C	-1.5066516586	-0.4271093243	 0.0140445683	 0.442678
N	-2.4844304852	 0.4115129619	 0.0239132454	-0.327444
C	-3.7509736586	-0.1297303491	 0.0324786456	 0.01307
C	-4.0064950241	-1.4582156221	 0.0310429249	-0.251452
C	-2.911562291	-2.3990106765	 0.0200728875	 0.420884
O	-2.9329185233	-3.595391782	 0.0170063089	-0.329957
O	-1.6385677253	-1.7656649972	 0.011687177	-0.238476
H	 1.214623634	 1.7344183762	-0.0010653651	 0.116377
H	-0.3154708363	 1.97134548	-0.8683265777	 0.135111
H	-0.3008688237	 1.9654566011	 0.8929813609	 0.135073
H	 0.4036340103	-0.4696370059	-0.8723362859	 0.140523
H	 0.4179315793	-0.47554163	 0.8687212021	 0.140515
H	-4.5613583857	 0.593750398	 0.0407010329	 0.129592
H	-5.0096168892	-1.8630963838	 0.0378362034	 0.132
57.6479	140.598	157.7613	191.103	225.9442	360.0008	396.519	487.5591	544.8395	605.3558	617.3141	752.9425	763.8452	809.3248	829.664	856.2029	970.411	993.0758	1017.539	1060.4344	1091.825	1109.9256	1137.2237	1261.9105	1281.3008	1282.3527	1393.976	1418.3518	1432.5422	1459.184	1491.0212	1500.0874	1598.3403	1662.7597	1870.5394	3032.7721	3055.3589	3058.4197	3127.4401	3134.4068	3174.8995	3230.6607
CCC1=NC=CC(=O)O1	CCc1nccc(=O)o1	
InChI=1S/C6H7NO2/c1-2-5-7-4-3-6(8)9-5/h3-4H,2H2,1H3	InChI=1S/C6H7NO2/c1-2-5-7-4-3-6(8)9-5/h3-4H,2H2,1H3
