14
gdb 16546	2.9957	2.35709	1.65524	2.5382	57.35	-0.2379	-0.0466	0.1912	778.4909	0.106391	-419.637499	-419.630345	-419.629401	-419.669262	25.666	
O	 0.3608677114	 1.1711926133	 0.6099210375	-0.429892
C	 0.0344550885	-0.1080955664	 0.1418370765	 0.020764
C	-1.4635871961	-0.5174332767	 0.0645240551	-0.116069
C	-2.3893904399	 0.559825216	-0.5133140839	-0.081347
O	-2.1205484765	 0.1380369297	-1.8792851058	-0.281527
C	-1.28066619	-0.9484875055	-1.4306286704	-0.020072
C	 0.1657150521	-0.3979167581	-1.3683565485	 0.363991
O	 1.0085234571	-0.1225893082	-2.1713925883	-0.296427
H	 1.0135942224	 1.5411960953	 0.0033375935	 0.303655
H	 0.5858734935	-0.8918128124	 0.6912959947	 0.104472
H	-1.8412137411	-1.1657545906	 0.8509304403	 0.092475
H	-3.44948179	 0.4290751233	-0.2712234474	 0.112569
H	-2.0885986178	 1.5950816233	-0.3274794101	 0.127307
H	-1.5183866736	-1.9107025331	-1.8882811131	 0.100099
75.2071	148.3353	206.4655	221.5671	256.2998	465.2713	513.2812	637.6614	641.304	779.7192	826.4774	847.7775	919.9224	973.757	989.0587	1033.5709	1046.8007	1062.61	1140.0477	1157.736	1171.4301	1204.8869	1206.7638	1264.1631	1319.183	1330.9607	1350.5149	1380.2315	1516.4796	1890.0701	2950.7101	3039.4314	3096.2571	3096.5995	3149.3733	3790.164
OC1C2COC2C1=O	O[C@H]1[C@H]2CO[C@H]2C1=O	
InChI=1S/C5H6O3/c6-3-2-1-8-5(2)4(3)7/h2-3,5-6H,1H2	InChI=1S/C5H6O3/c6-3-2-1-8-5(2)4(3)7/h2-3,5-6H,1H2/t2-,3+,5-/m1/s1
