18
gdb 85185	2.48833	1.44656	1.04772	3.1695	73.2	-0.232	-0.028	0.204	1173.5478	0.145537	-439.044273	-439.035498	-439.034554	-439.078213	31.795	
C	-0.1677283109	 1.4365640881	-0.0572096708	-0.330186
N	 0.0612312421	 0.0169742326	 0.1058914707	-0.07873
C	-1.1119129475	-0.8424892909	 0.3816601438	-0.283549
C	-0.2996024538	-1.5116092731	 1.4934600683	 0.399518
O	-0.4425825011	-2.4565976288	 2.2083011583	-0.293991
C	 0.7919854587	-0.4347581873	 1.3185333145	-0.126377
C	 2.2116183514	-0.8845718311	 1.0998586584	 0.074249
C	 2.7616772761	-2.0504043368	 1.8050685353	-0.183394
O	 2.3841282825	-2.1284587898	 0.4268095723	-0.229424
H	 0.7881842809	 1.9558398221	-0.178059505	 0.126809
H	-0.7579552424	 1.6157072548	-0.9611849283	 0.130161
H	-0.7021779968	 1.8949773369	 0.7975517764	 0.093725
H	-1.987378809	-0.310705311	 0.7913042835	 0.115451
H	-1.436880451	-1.4737873138	-0.4519518826	 0.140256
H	 0.7529125602	 0.2942872776	 2.1485680817	 0.09007
H	 2.8980395636	-0.1004629607	 0.774906133	 0.097706
H	 3.8316943786	-2.0994073586	 2.0001121324	 0.116572
H	 2.1234247384	-2.6068201805	 2.4877879783	 0.141134
80.2021	86.352	140.6442	173.5858	221.7467	270.9933	333.6392	369.0495	443.9511	516.0238	617.2407	650.6765	752.4784	816.7815	854.5863	913.3202	970.4313	985.6757	1002.7878	1054.8107	1084.704	1098.4903	1123.0308	1156.7041	1170.2094	1171.1236	1190.8482	1206.7762	1267.4583	1286.703	1305.8951	1343.5014	1421.0687	1452.1903	1472.0416	1494.9805	1496.4748	1522.8486	1913.8899	2920.4863	2942.0231	2970.2441	3064.0017	3069.995	3089.9359	3096.7119	3105.8214	3190.0462
CN1CC(=O)C1C1CO1	CN1CC(=O)[C@H]1[C@H]1CO1	
InChI=1S/C6H9NO2/c1-7-2-4(8)6(7)5-3-9-5/h5-6H,2-3H2,1H3	InChI=1S/C6H9NO2/c1-7-2-4(8)6(7)5-3-9-5/h5-6H,2-3H2,1H3/t5-,6+/m1/s1
