19
gdb 62393	2.47797	1.79557	1.35226	2.8887	78.74	-0.2648	0.0265	0.2914	1004.7797	0.162424	-382.071559	-382.063824	-382.06288	-382.103302	31.253	
N	-0.0117812943	 1.4483005011	-0.0266833797	-0.559617
C	 0.0161674154	-0.0097688163	-0.0315549383	 0.18473
C	 0.9485052388	-0.5277411075	-1.0442844179	 0.213388
N	 1.6935173264	-0.8860625033	-1.8543734637	-0.358323
C	 0.0990187233	-0.6253573257	 1.4130446038	-0.039645
C	-1.4119193455	-0.2744635499	 1.5383407113	-0.235121
C	-1.4189123162	-0.6498205551	 0.0281028793	-0.039646
C	-1.1075469974	-2.1571174648	 0.0737863272	-0.230625
C	 0.0516196494	-2.1384360775	 1.1313962101	-0.230624
H	 0.9189627074	 1.8135863773	 0.1544135354	 0.241248
H	-0.28351171	 1.794199416	-0.9426697739	 0.241247
H	 0.84588042	-0.2561584703	 2.1163774287	 0.071136
H	-2.009562057	-0.9012054339	 2.2044412742	 0.092922
H	-1.5936467758	 0.7812790694	 1.7188713142	 0.127468
H	-2.1938647632	-0.3051467119	-0.6570512792	 0.071135
H	-1.974779809	-2.7333812551	 0.4053749667	 0.10266
H	-0.7855398845	-2.5531902047	-0.8921190657	 0.122502
H	 0.9909158233	-2.5245613379	 0.728698009	 0.122504
H	-0.1892380509	-2.7046060201	 2.0344814983	 0.10266
142.8111	154.0163	253.0399	309.1419	319.5507	327.1528	447.4414	469.44	538.2972	558.1831	647.9055	704.2979	824.1591	831.8095	842.4379	868.6457	888.0003	905.4296	964.6169	967.1048	988.4718	1014.9649	1020.0288	1095.4692	1107.5231	1142.2835	1163.6268	1198.2029	1225.1727	1238.4974	1251.326	1262.0713	1285.6043	1289.6353	1328.4702	1335.1597	1485.0941	1492.5006	1514.2744	1661.1182	2331.489	3063.6801	3070.7859	3077.4477	3103.9279	3113.5508	3117.0389	3120.6078	3178.5375	3490.2235	3565.5898
NC1(C#N)C2CC1CC2	N[C@@]1(C#N)[C@H]2C[C@@H]1CC2	
InChI=1S/C7H10N2/c8-4-7(9)5-1-2-6(7)3-5/h5-6H,1-3,9H2	InChI=1S/C7H10N2/c8-4-7(9)5-1-2-6(7)3-5/h5-6H,1-3,9H2/t5-,6+,7+
