17
gdb 23269	2.60984	1.5145	1.09337	1.5763	70.77	-0.2405	-0.0099	0.2306	1094.7067	0.136063	-455.073885	-455.065695	-455.064751	-455.106749	31.22	
O	-0.0203763153	 1.2915573777	 0.1206066975	-0.387997
N	 0.036839425	-0.1075056081	 0.1323896302	-0.231059
C	-1.108599866	-0.6360399793	-0.0005165893	 0.335561
C	-2.465826606	-0.013448582	-0.2158707236	-0.257931
N	-3.3157946028	-1.064041478	-0.8098214076	-0.108476
C	-2.7394535409	-1.63110044	-2.0374510302	-0.243662
C	-2.5629765922	-2.3436883481	-0.750372318	-0.028828
C	-1.2297908912	-2.1520813832	-0.0466105909	 0.047976
O	-0.1604702205	-2.7868532993	-0.7141298393	-0.43538
H	 0.9071556053	 1.541168857	 0.1968052869	 0.310488
H	-2.9057513098	 0.3018290678	 0.7384445662	 0.133389
H	-2.4116774734	 0.8710258259	-0.8571676083	 0.141212
H	-3.4676310216	-1.989183033	-2.7580584099	 0.122274
H	-1.8620316072	-1.1552134491	-2.4716841195	 0.124728
H	-3.1423869041	-3.2328342874	-0.5260801418	 0.098311
H	-1.3129375772	-2.5343213179	 0.9856578055	 0.088163
H	 0.631596408	-2.2756224031	-0.504833318	 0.291233
66.5786	177.118	184.8296	245.7057	289.896	337.8928	388.8958	404.9345	508.1758	538.075	563.1153	650.9738	719.4889	768.2504	827.9465	864.22	930.2009	980.7175	999.7737	1022.5958	1041.5756	1105.1538	1108.3489	1126.1749	1162.9758	1213.0222	1216.7063	1243.6075	1276.286	1308.2958	1351.4129	1387.031	1409.2104	1423.0093	1475.1309	1507.511	1768.0229	2949.5222	3034.2637	3092.1177	3104.5857	3167.1946	3197.0565	3773.516	3813.65
ON=C1CN2CC2C1O	ON=C1CN2C[C@H]2[C@H]1O	
InChI=1S/C5H8N2O2/c8-5-3(6-9)1-7-2-4(5)7/h4-5,8-9H,1-2H2	InChI=1S/C5H8N2O2/c8-5-3(6-9)1-7-2-4(5)7/h4-5,8-9H,1-2H2/t4-,5-,7?/m0/s1
