19
gdb 38841	2.64474	1.99055	1.72519	2.5394	72.47	-0.2375	0.0786	0.3161	889.709	0.163207	-423.020488	-423.01401	-423.013066	-423.051015	27.645	
C	 0.054396363	 1.5715249075	-0.1944897828	-0.326307
C	 1.3187149138	 0.7751608856	-0.022073654	 0.113433
O	 2.0719996803	 0.8865595996	 1.1610971586	-0.262169
C	 1.5450480596	 0.2364575393	 2.3033752425	 0.217818
C	 0.9293738209	-1.121728298	 1.9557347155	-0.262282
C	-0.3861702049	-0.5920689793	 1.3479656806	-0.062491
C	-0.7712466672	 0.406032786	 2.4434831498	-0.08638
O	 0.4736104621	 0.9715648723	 2.8812297562	-0.270574
C	-0.0122219673	 0.0668892317	 0.0129834908	-0.07006
H	-0.21573479	 2.225449159	 0.6258403915	 0.136881
H	-0.1842536283	 1.9559937179	-1.1802426755	 0.107916
H	 1.9746356087	 0.6379524354	-0.8754414641	 0.095154
H	 2.3654280397	 0.2240112737	 3.0223543345	 0.089903
H	 1.5416343612	-1.6991727461	 1.2614351447	 0.109948
H	 0.759075717	-1.7036353697	 2.8663352323	 0.105071
H	-1.1552839665	-1.3539558988	 1.2079419502	 0.071142
H	-1.431301585	 1.2064073088	 2.097616606	 0.108169
H	-1.2584455965	-0.1044819627	 3.2854830038	 0.095656
H	-0.2611489907	-0.5255186623	-0.8619846406	 0.089173
145.7977	286.1337	350.0182	407.4239	457.6585	482.444	523.7833	619.5109	722.5527	771.2913	794.412	814.7324	848.944	874.8321	920.2081	933.8377	950.6702	980.0512	996.4232	1012.6752	1043.0114	1063.1316	1071.5244	1106.3267	1118.5605	1127.5211	1169.6317	1175.03	1204.5359	1231.3916	1246.5016	1305.2725	1317.5643	1350.2459	1358.0159	1385.4793	1393.7968	1416.1243	1476.5992	1487.4934	1530.1871	3010.8811	3063.183	3082.0694	3089.9195	3111.9465	3128.2741	3139.2161	3148.2449	3161.0935	3233.2229
C1C2OC3CC(CO3)C12	C1[C@H]2O[C@@H]3C[C@@H](CO3)[C@@H]12	
InChI=1S/C7H10O2/c1-4-3-8-7(1)9-6-2-5(4)6/h4-7H,1-3H2	InChI=1S/C7H10O2/c1-4-3-8-7(1)9-6-2-5(4)6/h4-7H,1-3H2/t4-,5+,6+,7+/m0/s1
