14
gdb 29258	3.21553	1.41745	0.98379	3.3142	69.41	-0.2116	-0.0219	0.1898	1097.7323	0.103146	-470.067598	-470.059901	-470.058957	-470.099745	29.393	
O	-0.0959239201	 1.3763786895	 0.0112094119	-0.415929
C	 0.0039058247	 0.0222464982	 0.0033041511	 0.286504
C	 1.157336714	-0.6710686053	-0.0075294345	-0.111152
N	 1.1769317168	-2.0614235281	-0.0151279306	-0.383572
C	 0.0418672703	-2.8400814959	-0.0124720854	 0.481801
O	 0.0530004353	-4.0538255351	-0.0191401105	-0.402956
N	-1.1248491097	-2.0899478927	-0.0013279325	-0.44696
C	-1.2789068226	-0.6926115143	 0.0073450714	 0.350776
N	-2.391754725	-0.0697542029	 0.0176858701	-0.520512
H	 0.7873902298	 1.760187574	 0.0080128816	 0.298089
H	 2.1283182811	-0.1906834274	-0.0109250068	 0.121449
H	 2.0474529255	-2.5659953269	-0.0231935178	 0.2724
H	-1.9637413116	-2.6522217175	 0.0007437132	 0.261322
H	-3.1840325785	-0.7142871857	 0.019076659	 0.208739
106.5428	135.0454	288.3876	329.7225	334.9676	382.121	393.9615	464.5707	490.3589	534.6582	609.71	617.9101	748.6603	750.4642	757.3596	818.5923	831.8637	844.0771	974.8146	1098.0424	1163.3003	1207.5223	1269.9263	1312.2363	1402.6724	1419.3191	1441.9331	1509.8577	1706.6367	1729.614	1826.9082	3201.5611	3462.2085	3620.3341	3669.2114	3820.9289
OC1=CNC(=O)NC1=N	OC1=C(NC(=O)N[CH]1)[NH]	
InChI=1S/C4H5N3O2/c5-3-2(8)1-6-4(9)7-3/h1,8H,(H3,5,6,7,9)	InChI=1S/C4H5N3O2/c5-3-2(8)1-6-4(9)7-3/h1,8H,(H3,5,6,7,9)
