17
gdb 69759	2.90382	1.52082	1.27187	1.8966	71.86	-0.2289	-0.0244	0.2045	1015.9734	0.135089	-421.783004	-421.775429	-421.774485	-421.814866	30.245	
O	-0.0770237514	 1.438452852	 0.0718577736	-0.459648
C	-0.0098135776	 0.060964406	 0.0555274222	 0.408228
C	-0.2499145218	-0.7526345906	-1.1803508108	-0.372433
C	-1.158782953	-0.937212923	 0.021329241	-0.112258
C	-0.4960412823	-1.777540558	 1.1391288108	-0.025368
C	 0.4803440131	-2.9308178956	 0.7592209384	-0.377192
C	 1.635032045	-1.8948343357	 0.7496243765	 0.390388
O	 2.8056726882	-1.9649090442	 0.5123086042	-0.297678
C	 0.6872137094	-0.7579077861	 1.1855226906	-0.231646
H	 0.6336321218	 1.7855904307	-0.4794235821	 0.291032
H	-0.7154305649	-0.1840761095	-1.9796782038	 0.12013
H	 0.4340942858	-1.5222500816	-1.5271215928	 0.122008
H	-2.2233003155	-0.756373075	-0.0624778777	 0.099032
H	-1.117098883	-1.9327377863	 2.0192045084	 0.08324
H	 0.6215874789	-3.6555958874	 1.5683883269	 0.132774
H	 0.3078366562	-3.4829934419	-0.1680089466	 0.130091
H	 0.9343900311	-0.1750903838	 2.0725856811	 0.0993
103.4876	154.8112	272.4104	281.6255	372.2404	408.7866	445.8446	474.2489	523.2798	601.7972	670.3367	730.099	794.9363	811.3573	863.3806	882.0669	907.8852	940.1876	985.125	998.3019	1032.4824	1046.2002	1059.0202	1082.3067	1107.0569	1129.4149	1145.7561	1197.2433	1216.0453	1237.728	1262.2363	1298.9939	1319.2467	1407.5255	1434.4253	1503.8721	1882.3137	3053.8778	3109.3024	3116.9156	3123.1986	3132.0302	3187.5879	3202.8537	3787.5668
OC12CC1C1CC(=O)C21	O[C@]12C[C@H]1[C@H]1CC(=O)[C@@H]21	
InChI=1S/C7H8O2/c8-5-1-3-4-2-7(4,9)6(3)5/h3-4,6,9H,1-2H2	InChI=1S/C7H8O2/c8-5-1-3-4-2-7(4,9)6(3)5/h3-4,6,9H,1-2H2/t3-,4+,6+,7-/m1/s1
