23
gdb 118854	2.02783	1.19159	0.93329	1.4122	83.51	-0.2315	0.0859	0.3174	1428.3027	0.201972	-425.395398	-425.384403	-425.383458	-425.431861	39.431	
C	-0.5958339395	 1.4857059773	-0.0881681999	-0.384243
C	-0.3220671314	 0.0087530227	 0.1400923034	-0.046029
O	-1.4514186656	-0.7219707157	-0.3175079698	-0.28642
C	-1.4158494667	-2.0985292793	-0.0814961952	 0.395349
C	-0.4978551352	-2.8879831385	-0.9890669164	-0.456028
C	-1.651796816	-2.5676656499	 1.345591011	-0.384702
C	-2.7475118914	-2.694551256	 0.3236025455	 0.061597
O	-3.8505025527	-1.8770096558	 0.5134158417	-0.229814
C	-4.4875789768	-1.5187309092	-0.7007263174	-0.234221
H	 0.2543561532	 2.0873473847	 0.2472688656	 0.113189
H	-0.7640693469	 1.6855012766	-1.1503704042	 0.124524
H	-1.485962957	 1.7999020281	 0.4640404031	 0.128568
H	 0.5848800961	-0.2997784785	-0.4018180276	 0.088844
H	-0.1496900689	-0.1957541576	 1.2074198684	 0.090466
H	 0.5576833745	-2.6730410877	-0.7888619038	 0.118753
H	-0.643804048	-3.9631307549	-0.8476990911	 0.11711
H	-0.7024967961	-2.6484384613	-2.0378923215	 0.122928
H	-1.1513492948	-3.4586936456	 1.7088816096	 0.109189
H	-1.8147025083	-1.7913882339	 2.084825802	 0.12793
H	-2.9797298532	-3.6864131948	-0.0728093542	 0.075904
H	-5.3566135274	-0.9114633827	-0.4359639	 0.122161
H	-3.8180656003	-0.9364544075	-1.3444976537	 0.12701
H	-4.8328489776	-2.4073785005	-1.2515657857	 0.097936
52.5556	83.4549	102.2785	151.6594	164.5409	201.0457	209.2883	250.1435	255.9794	310.646	377.2737	413.1536	432.7606	495.188	622.7951	723.8366	795.6824	819.8184	858.5368	906.7448	922.1348	986.6985	1026.6927	1062.226	1077.6884	1097.8369	1117.8869	1129.1989	1154.6766	1176.682	1187.2636	1191.6154	1245.7487	1261.0814	1295.722	1310.5514	1396.1462	1399.3146	1412.5409	1426.2986	1462.7169	1482.489	1483.663	1486.4016	1490.7291	1500.1915	1503.5179	1508.8837	1528.9556	2981.7399	2984.6115	3011.6339	3030.5527	3044.0537	3061.6521	3065.2966	3093.0831	3108.5929	3117.7953	3118.848	3121.876	3134.6109	3228.3275
CCOC1(C)CC1OC	CCO[C@@]1(C)C[C@H]1OC	
InChI=1S/C7H14O2/c1-4-9-7(2)5-6(7)8-3/h6H,4-5H2,1-3H3	InChI=1S/C7H14O2/c1-4-9-7(2)5-6(7)8-3/h6H,4-5H2,1-3H3/t6-,7+/m1/s1
