21
gdb 58270	2.83942	1.08047	0.8376	3.6179	74.64	-0.2361	0.0615	0.2977	1396.8143	0.180411	-461.332286	-461.32206	-461.321116	-461.367963	36.907	
C	 0.07471366	 1.5903030224	-0.0167808751	-0.414555
C	 0.0115795315	 0.0660787107	 0.0005938909	 0.116987
O	 0.669760928	-0.5068882505	-1.1247327677	-0.432517
C	 0.6791218334	-0.5287860278	 1.2515478038	 0.106618
O	 0.0215137877	-0.061366843	 2.427688544	-0.433434
C	 0.736276117	-2.0504597961	 1.2300333524	-0.042819
C	 1.8133262866	-2.7510091138	 0.3728497347	-0.07993
O	 2.3572365003	-3.4262120455	 1.5276388764	-0.278079
C	 1.4609625798	-2.7269601604	 2.4143130604	-0.090756
H	 1.1153884346	 1.9235704928	-0.0858831269	 0.125251
H	-0.4744988988	 1.9960527656	-0.8742790286	 0.102881
H	-0.3632801787	 1.9987956063	 0.8968948381	 0.136001
H	-1.0486687044	-0.2503067911	 0.0161977321	 0.051106
H	 0.33924499	-0.0761382084	-1.9188804082	 0.286274
H	 1.6998590587	-0.13206265	 1.3232521586	 0.093904
H	-0.8570047166	-0.4581020941	 2.4503918418	 0.279693
H	-0.2686588536	-2.4532019629	 1.0582537942	 0.065387
H	 1.447357946	-3.4532847475	-0.3836961776	 0.100333
H	 2.5391441638	-2.0758939944	-0.0934127776	 0.107353
H	 1.9899060359	-2.0309409445	 3.0786538862	 0.105148
H	 0.8662337591	-3.4157468977	 3.0262845582	 0.095154
54.0842	84.3558	98.119	146.6348	231.1859	251.4348	262.4382	282.6454	311.7641	343.4027	383.4836	466.4018	476.3519	541.0067	785.5137	860.5902	888.1671	896.4738	948.2572	986.4896	1020.3256	1037.6626	1051.8829	1075.9608	1095.34	1127.6204	1128.6742	1154.0641	1157.317	1179.1196	1227.5222	1259.3384	1279.2453	1305.0691	1318.6929	1364.1864	1371.6152	1397.7353	1405.9616	1415.9157	1432.0862	1489.7857	1501.8026	1513.4928	1538.5568	2919.9787	3008.2516	3026.6469	3031.3501	3035.8026	3041.3613	3056.3168	3078.2822	3098.4401	3131.4721	3792.002	3823.4225
CC(O)C(O)C1COC1	C[C@@H](O)[C@@H](O)C1COC1	
InChI=1S/C6H12O3/c1-4(7)6(8)5-2-9-3-5/h4-8H,2-3H2,1H3	InChI=1S/C6H12O3/c1-4(7)6(8)5-2-9-3-5/h4-8H,2-3H2,1H3/t4-,6-/m1/s1
