12
gdb 132241	2.04246	1.93996	0.99494	5.158	59.98	-0.2681	-0.0378	0.2303	1048.2494	0.079367	-510.164941	-510.157892	-510.156948	-510.19687	26.205	
F	 0.0962672437	 0.0924213498	 0.1745592249	-0.047896
C	-0.0532640165	 1.3928423727	 0.020684456	 0.416538
N	-1.1852065695	 1.9328032258	 0.1993846132	-0.390199
C	-1.2663566882	 3.3225471015	 0.0172399741	 0.454925
O	-2.2816650605	 3.9523765523	 0.1564393326	-0.348231
N	-0.0713757838	 3.9642185655	-0.3462209909	-0.375924
C	 1.1650374306	 3.3867477013	-0.5432115552	 0.474107
N	 2.1800477042	 4.0731584796	-0.872370621	-0.552464
N	 1.1125006926	 1.9977266287	-0.3308213046	-0.419436
H	-0.1209514596	 4.9641344955	-0.4793130341	 0.284812
H	 3.0176480083	 3.5071031611	-0.9805468522	 0.221091
H	 1.9486283486	 1.4455805262	-0.440700043	 0.282676
119.3483	133.2442	205.6771	358.3765	395.3729	469.6826	512.5239	536.5123	634.9155	636.5954	665.9444	708.732	735.5661	768.0593	793.3993	950.6782	1010.4261	1078.5039	1125.0455	1235.7619	1280.0155	1395.7641	1417.9696	1509.563	1733.3166	1778.8876	1846.1617	3528.038	3628.8768	3645.074
FC1=NC(=O)NC(=N)N1	FC1=NC(=O)N[C]([NH])N1	
InChI=1S/C3H3FN4O/c4-1-6-2(5)8-3(9)7-1/h(H3,5,6,7,8,9)	InChI=1S/C3H3FN4O/c4-1-6-2(5)8-3(9)7-1/h(H3,5,6,7,8,9)
