23
gdb 121395	4.15174	0.81132	0.7154	1.7058	82.65	-0.2574	0.0919	0.3492	1655.6184	0.206755	-425.441424	-425.432081	-425.431137	-425.476005	35.061	
C	 0.0332807925	 1.5577113296	-0.0334659986	-0.381871
C	 0.0092971642	 0.0276933526	-0.0037720934	-0.169606
C	-1.4116810037	-0.5457967964	 0.0227882175	-0.186311
C	-1.455883784	-2.0687453513	 0.0127468646	 0.125843
C	-2.8717618517	-2.6482914714	 0.1280226303	-0.215348
C	-2.8197608089	-4.1629522223	-0.0909456173	-0.093559
O	-2.1450971892	-4.4685067496	-1.3041866994	-0.232547
C	-0.8582717485	-3.911866934	-1.3132024511	 0.01914
O	-0.865956755	-2.5140579694	-1.212760315	-0.25178
H	 1.0587443057	 1.9398526619	-0.0503471322	 0.111268
H	-0.4796797642	 1.94414484	-0.9212858126	 0.115027
H	-0.4653366388	 1.9825001614	 0.8454112985	 0.11008
H	 0.5331563372	-0.3725272669	-0.8778973266	 0.116991
H	 0.5594472694	-0.3317975684	 0.8763228908	 0.088961
H	-1.9421302299	-0.1928444516	 0.917163427	 0.090725
H	-1.9769853226	-0.1796356111	-0.8439718741	 0.103228
H	-0.8471712241	-2.4566434282	 0.8512575359	 0.059153
H	-3.3005306097	-2.4196726112	 1.1104662532	 0.095728
H	-3.5086929939	-2.1915051894	-0.6377028238	 0.110682
H	-2.3030904235	-4.6485975764	 0.7552018629	 0.0866
H	-3.8193967046	-4.5977869869	-0.1708545106	 0.111429
H	-0.2600828877	-4.3425004112	-0.4855495758	 0.070622
H	-0.406730959	-4.1628315899	-2.2752829704	 0.115547
72.6707	88.2889	110.4382	192.4951	246.0013	258.8858	301.9679	345.5037	379.0623	490.0596	494.6024	527.6215	678.3577	744.2084	819.2777	863.5186	898.6126	903.5676	931.6855	986.384	1016.6392	1042.0583	1063.5549	1073.2746	1086.4514	1128.9266	1145.4957	1182.5588	1211.5152	1232.8034	1262.0012	1271.3162	1296.3169	1324.4888	1332.5194	1344.9723	1380.369	1388.1394	1402.7395	1408.5145	1414.6871	1449.2091	1465.5011	1475.2898	1493.4942	1497.4865	1499.6696	1509.5857	1510.6632	2905.5489	2926.0939	2959.6304	3015.3155	3020.8188	3027.7056	3037.7555	3054.8845	3074.497	3086.1974	3093.9458	3098.2119	3100.9784	3109.9165
CCCC1CCOCO1	CCC[C@H]1CCOCO1	
InChI=1S/C7H14O2/c1-2-3-7-4-5-8-6-9-7/h7H,2-6H2,1H3	InChI=1S/C7H14O2/c1-2-3-7-4-5-8-6-9-7/h7H,2-6H2,1H3/t7-/m0/s1
