18
gdb 71043	3.0795	2.17065	1.68206	0.8184	81.28	-0.2085	-0.0327	0.1758	854.7023	0.14868	-364.699032	-364.692402	-364.691458	-364.729358	28.349	
C	-0.1443194141	 1.4320122411	-0.0766427352	-0.457271
C	 0.0404259286	-0.0571731677	 0.1140951642	 0.369437
C	-1.2183821404	-0.926528712	 0.5496375025	-0.30253
C	-0.1008014044	-1.8352387446	 1.072907698	-0.004829
C	 0.3482722322	-2.7032408912	 0.1255484338	-0.110937
C	 1.4661388749	-2.0621017599	-0.5579118604	-0.052827
C	 1.9950136964	-0.9205627792	 0.2167398822	-0.052398
C	 0.9028855042	-0.6753155778	 1.243201981	-0.128185
N	 1.0706314168	-0.5750717171	-0.9184526202	-0.224756
H	 0.8193587353	 1.9485195799	-0.0937887511	 0.129185
H	-0.6508769683	 1.6333360978	-1.0262385086	 0.13237
H	-0.7502424276	 1.8465495853	 0.7352428451	 0.115569
H	-1.7922352372	-0.3483521131	 1.2844107868	 0.101003
H	-1.8832699656	-1.3432375515	-0.2087564108	 0.112312
H	-0.3174871589	-3.3708768049	-0.4132606557	 0.098893
H	 2.039736522	-2.5057375593	-1.3628042759	 0.103734
H	 3.0337719472	-0.61361579	 0.2374269262	 0.095892
H	 1.0459257589	-0.2045803657	 2.2130599582	 0.075337
226.4839	235.4605	280.3421	365.1058	448.3926	512.8404	560.378	639.2598	667.3415	697.3127	759.3396	776.0938	788.6108	820.283	846.9799	887.5609	925.3884	952.5267	972.8329	1000.0686	1016.5001	1039.8594	1050.4188	1078.9692	1091.9752	1140.7798	1150.6345	1175.5437	1199.8683	1235.3817	1257.793	1286.8114	1328.711	1352.4795	1403.3231	1481.6442	1485.5163	1492.9137	1544.5959	3025.8104	3035.8457	3105.7411	3114.5524	3120.1199	3137.981	3167.8144	3182.2133	3196.6887
CC12CC3=CC4C(C13)N24	C[C@]12C[C]3[CH][C@@H]4[C@H]([C@@H]13)N24	
InChI=1S/C8H9N/c1-8-3-4-2-5-7(6(4)8)9(5)8/h2,5-7H,3H2,1H3	InChI=1S/C8H9N/c1-8-3-4-2-5-7(6(4)8)9(5)8/h2,5-7H,3H2,1H3/t5-,6+,7-,8+,9?/m1/s1
