13
gdb 6252	3.71739	1.39273	1.01959	3.6107	57.59	-0.257	-0.0989	0.1581	1067.138	0.093009	-435.798704	-435.790302	-435.789357	-435.832631	27.898	
C	 0.4159987289	 1.3699580217	-0.2770665285	-0.50121
C	-0.0263163717	-0.0237325361	 0.1301097229	 0.415479
O	-0.4267035959	-0.3172363312	 1.2246761128	-0.286297
N	 0.0811489051	-0.9552713113	-0.9210804392	-0.38163
C	-0.2318831616	-2.2981615344	-0.9001847383	 0.323483
O	-0.6609156218	-2.955925309	 0.014805473	-0.291534
C	 0.0339087459	-2.9547630287	-2.2644631342	 0.102831
O	 0.4613137454	-2.3533833469	-3.2158606275	-0.244048
H	 1.4606804799	 1.3647067389	-0.6059196498	 0.14942
H	-0.1921949498	 1.7423885502	-1.1082921095	 0.149454
H	 0.3079578091	 2.0351842624	 0.5784245286	 0.161661
H	 0.4273514	-0.6369402751	-1.8186699658	 0.271497
H	-0.2098346335	-4.0341559605	-2.2736847845	 0.130895
61.4355	103.1291	110.6704	145.0985	169.6519	254.4017	364.4746	478.5527	565.6699	575.325	614.7121	679.0023	733.2738	896.6973	959.6957	1024.4579	1032.9412	1054.678	1205.6489	1230.8944	1357.9424	1390.3464	1467.3332	1481.4971	1525.1695	1802.2562	1819.7833	1863.7729	2972.81	3043.3673	3106.2968	3168.9656	3566.1694
CC(=O)NC(=O)C=O	CC(=O)NC(=O)C=O	
InChI=1S/C4H5NO3/c1-3(7)5-4(8)2-6/h2H,1H3,(H,5,7,8)	InChI=1S/C4H5NO3/c1-3(7)5-4(8)2-6/h2H,1H3,(H,5,7,8)
