15
gdb 47973	5.77267	0.70779	0.7005	3.0202	80.93	-0.2543	-0.072	0.1823	1581.0736	0.110925	-420.527455	-420.519374	-420.51843	-420.561422	28.924	
O	-0.552646454	 0.7322861441	-0.6338972008	-0.225424
C	 0.2339508104	 0.9348889494	 0.2620370944	-0.008233
C	 1.3981808852	 1.77514851	 0.145593751	 0.34544
C	 2.3835313996	 2.4725201874	 0.0839410512	-0.321427
C	 3.5351784446	 3.3073947566	-0.0403828923	 0.330758
C	 4.7937469875	 3.1187822204	-0.941592057	-0.247685
C	 5.0274071429	 4.306514649	 0.0194013253	 0.019153
C	 3.6127928262	 4.843918288	-0.2950464355	-0.247688
O	 4.4487383166	 3.4975006437	 1.1209750085	-0.333382
H	 0.109903778	 0.4750582942	 1.2630072079	 0.108853
H	 5.3726341133	 2.221392729	-0.7248671472	 0.123752
H	 4.6846131041	 3.3223303928	-2.008860015	 0.110676
H	 5.9432783513	 4.8536846904	 0.2323046529	 0.110774
H	 3.4000791332	 5.1987765397	-1.3056075034	 0.11068
H	 3.160038591	 5.4535262654	 0.48647696	 0.123753
53.4222	78.491	101.5134	207.6857	269.712	397.2159	466.2117	508.1801	535.1865	606.8526	693.802	727.6142	796.311	891.1592	916.4221	940.6749	949.9608	985.5606	1020.0734	1048.3621	1075.8052	1089.2275	1111.6366	1167.6554	1218.5112	1235.3248	1235.5641	1329.9882	1419.4627	1466.1644	1506.7002	1766.7484	2318.6628	2927.4958	3072.0413	3079.2859	3148.0935	3161.7244	3166.0234
O=CC#CC12CC(C1)O2	O=CC#C[C@@]12C[C@@H](C1)O2	
InChI=1S/C7H6O2/c8-3-1-2-7-4-6(5-7)9-7/h3,6H,4-5H2	InChI=1S/C7H6O2/c8-3-1-2-7-4-6(5-7)9-7/h3,6H,4-5H2/t6-,7+
