19
gdb 39869	3.34468	1.61215	1.48037	1.7201	78.69	-0.2341	0.0742	0.3083	966.0013	0.160892	-385.822569	-385.815766	-385.814822	-385.853504	28.457	
C	 0.0014443801	 1.5220762864	 0.0132143857	-0.327436
C	 1.2791363736	 0.7100476967	-0.0290811993	-0.344351
C	-0.0584081198	 0.0288085248	 0.0179813748	 0.420681
C	-0.5192854496	-0.9435795341	 1.111908155	-0.166168
C	-2.066187209	-0.9381110644	 1.277304027	-0.243078
C	-2.1965683039	-1.707743536	-0.0599840226	 0.105862
O	-2.0124660907	-0.846164214	-1.2061365022	-0.304149
C	-0.5709380259	-0.9114240036	-1.0713908572	-0.003762
C	-0.6791947219	-2.0455673534	-0.0111577131	-0.082654
H	-0.2367564115	 2.0452620125	 0.9341364426	 0.112166
H	-0.3087347032	 2.042518149	-0.8870775949	 0.118539
H	 1.8370962853	 0.680624596	-0.9601721102	 0.112799
H	 1.8989715709	 0.683356466	 0.86171052	 0.111401
H	 0.1000618438	-1.048547958	 2.0032845931	 0.065985
H	-2.3700697651	-1.576994969	 2.1136442825	 0.097881
H	-2.5753844301	 0.0266682477	 1.3486731047	 0.103755
H	-3.0235434296	-2.4057810472	-0.2036784689	 0.075853
H	-0.0683471877	-0.9472808512	-2.0409934422	 0.071405
H	-0.2108331859	-3.0249812382	-0.046383825	 0.075269
133.366	209.5416	255.3909	385.7762	391.7535	455.9572	593.233	692.005	755.3558	776.2011	822.2694	829.8271	835.51	873.1277	893.8368	914.8569	947.5247	961.4406	985.7921	995.2397	995.6731	1003.1627	1049.4882	1074.2374	1098.1107	1114.4412	1130.2734	1150.0715	1178.3225	1183.0466	1187.6751	1243.7338	1262.7299	1265.2671	1287.4466	1292.9442	1333.3091	1399.0788	1464.396	1467.0202	1502.9437	3043.1125	3078.9615	3089.6622	3100.2434	3106.3414	3119.9026	3125.8377	3156.5449	3198.2576	3213.3559
C1CC11C2CC3OC1C23	C1CC21[C@H]1C[C@H]3O[C@@H]2[C@@H]13	
InChI=1S/C8H10O/c1-2-8(1)4-3-5-6(4)7(8)9-5/h4-7H,1-3H2	InChI=1S/C8H10O/c1-2-8(1)4-3-5-6(4)7(8)9-5/h4-7H,1-3H2/t4-,5+,6-,7+/m0/s1
