19
gdb 73726	2.67355	1.98868	1.43771	1.8312	73.74	-0.2455	0.0875	0.333	954.4096	0.160906	-422.99849	-422.99124	-422.990295	-423.02967	29.704	
C	 0.1667896285	 1.3403471783	-0.0556010772	-0.468844
C	 0.0239004509	-0.1471509433	 0.1447366383	 0.435028
O	 1.1742895642	-0.8627822675	-0.2743034669	-0.293003
C	 0.8632788063	-1.7519505885	-1.3200074582	 0.011462
O	-0.0056791051	-2.784979916	-0.9142504058	-0.266529
C	-1.0122969144	-2.3194847638	-0.0267956801	 0.104975
C	-0.5753980311	-2.1590816672	 1.4705035471	-0.256722
C	-0.7440148185	-0.6479540636	 1.3370634613	-0.118819
C	-1.3024076518	-0.8094658648	-0.0927035654	-0.18846
H	 1.0429365049	 1.7114472076	 0.4851400087	 0.131592
H	 0.2977318785	 1.5795196263	-1.1160543735	 0.122278
H	-0.715700853	 1.8729139938	 0.3108004871	 0.118522
H	 0.4134688499	-1.1922436908	-2.1572067187	 0.081388
H	 1.7957364177	-2.2211014211	-1.6413511136	 0.115649
H	-1.8774156047	-2.9695030881	-0.1618629288	 0.089723
H	-1.3058758725	-2.60593509	 2.149076221	 0.101008
H	 0.4253443818	-2.5251606976	 1.7098503891	 0.110004
H	-1.0770312761	 0.0311546586	 2.1126446909	 0.085735
H	-2.1319322355	-0.3225410122	-0.5916764852	 0.085012
179.6078	217.7738	246.9287	268.7761	354.6754	391.8306	490.947	518.028	541.774	666.3638	698.37	804.9719	829.1415	842.3342	858.2374	917.6507	962.5499	973.3928	1000.6234	1009.0358	1039.076	1043.8172	1079.2895	1107.6222	1124.1609	1137.5838	1174.1388	1205.3485	1239.3149	1252.1597	1272.1286	1288.8371	1300.1579	1369.8342	1409.1047	1419.1675	1443.324	1478.4611	1480.8092	1501.6711	1520.3952	2956.4182	3036.1159	3065.3431	3101.4546	3103.1348	3106.5878	3114.7928	3124.2367	3174.8043	3187.1864
CC12OCOC3CC1C23	C[C@@]12OCO[C@H]3C[C@@H]1[C@@H]23	
InChI=1S/C7H10O2/c1-7-4-2-5(6(4)7)8-3-9-7/h4-6H,2-3H2,1H3	InChI=1S/C7H10O2/c1-7-4-2-5(6(4)7)8-3-9-7/h4-6H,2-3H2,1H3/t4-,5+,6-,7-/m1/s1
