15
gdb 41021	3.21703	2.00965	1.50008	1.7563	63.8	-0.2415	0.0347	0.2762	847.5467	0.113033	-457.619578	-457.613607	-457.612662	-457.649685	24.973	
C	-0.0321000141	 1.4847586626	 0.2376895436	-0.170777
O	 1.4154546559	 1.5262183579	-0.0565020068	-0.352954
C	 1.2268153068	 0.3426934187	-0.8271363978	 0.460557
C	 0.0043953362	-0.0456017395	-0.0731442452	 0.040835
O	-0.6993908717	-0.8777674664	-0.9974305558	-0.281725
C	 0.3162768999	-1.0438217674	-1.9808710511	 0.084677
C	 0.8910638617	 0.3179056798	-2.3751861389	-0.04613
O	 2.1905300346	-0.2711431981	-2.7080194602	-0.303918
C	 1.8628381665	-0.9180398847	-1.453066315	-0.112491
H	-0.2363807681	 1.7889273165	 1.2656519499	 0.125442
H	-0.5973426365	 2.0915337068	-0.4774151482	 0.12225
H	 0.1909639566	-0.6007470767	 0.8516044318	 0.105346
H	 0.0804475319	-1.8030096846	-2.7214954464	 0.119018
H	 0.4848664485	 1.0888418999	-3.0273358286	 0.105901
H	 2.5432302719	-1.6691692447	-1.0547157913	 0.103969
206.6212	311.1304	350.8766	412.7136	491.064	581.3854	621.4119	683.8652	713.8883	763.6796	808.992	856.8882	895.2975	912.2186	921.7545	960.5282	1009.6622	1031.1648	1050.8234	1092.4913	1105.9972	1129.6965	1140.0133	1158.0545	1163.3468	1193.9995	1218.2912	1267.6468	1295.297	1329.337	1346.6406	1386.8746	1503.496	3049.2058	3059.5001	3131.1271	3136.8021	3143.1124	3180.8818
C1OC23C1OC1C2OC31	C1O[C@@]23[C@@H]1O[C@H]1[C@@H]2O[C@@H]31	
InChI=1S/C6H6O3/c1-2-6(7-1)4-3(8-2)5(6)9-4/h2-5H,1H2	InChI=1S/C6H6O3/c1-2-6(7-1)4-3(8-2)5(6)9-4/h2-5H,1H2/t2-,3-,4-,5+,6-/m1/s1
