21
gdb 84670	2.57139	1.83206	1.44811	0.3332	86.16	-0.2308	0.0248	0.2556	1009.1865	0.185494	-349.939629	-349.932222	-349.931277	-349.971051	30.866	
C	 0.0901782532	 1.5788140919	-0.0118422181	-0.385698
C	 0.048654017	 0.0379571786	-0.0293262084	-0.05748
C	 0.5182609335	-0.5306864968	-1.3471387532	-0.06045
C	 1.6000280028	-1.2990317215	-1.469902308	-0.074867
C	 2.4624215792	-1.6088711674	-0.2785302525	-0.073598
C	 3.180269027	-0.3521818874	 0.3475297951	-0.23801
C	 2.2365759699	-0.4345295738	 1.5479945853	-0.073518
C	 1.6732548154	-1.7634664353	 1.0451730136	-0.096443
C	 0.7732058876	-0.5741018675	 1.1704392997	-0.019098
H	 1.1168410583	 1.9456313341	-0.1013565281	 0.122919
H	-0.4929780756	 1.9993598702	-0.8380722999	 0.107955
H	-0.3262296692	 1.964870545	 0.9248953365	 0.109134
H	-1.0113992654	-0.2439142785	 0.0716003864	 0.077022
H	-0.0864773335	-0.2859793591	-2.2178574832	 0.081135
H	 1.8983843609	-1.6795433349	-2.4431557648	 0.081557
H	 3.1545260808	-2.4278011414	-0.4776472482	 0.068159
H	 4.2100340954	-0.5837006503	 0.6343515531	 0.098556
H	 3.1768111904	 0.5620201919	-0.2531165096	 0.094182
H	 2.5074176025	-0.1603867106	 2.5613527579	 0.077683
H	 1.5119543247	-2.6984105853	 1.5680542093	 0.078913
H	 0.1528683152	-0.6019405221	 2.064217797	 0.081948
118.118	209.8564	235.4482	287.1117	346.2665	436.65	494.7615	562.3578	607.9026	694.841	717.951	755.8761	783.9522	813.1489	836.6553	890.9269	914.7877	958.6846	972.8353	989.1317	996.5492	1005.3089	1041.3128	1047.4378	1070.353	1081.4807	1093.2404	1128.548	1153.1008	1187.559	1189.7208	1223.2353	1258.2965	1291.6309	1316.184	1327.4818	1342.8473	1364.8391	1397.358	1413.4645	1437.8952	1488.9786	1497.6796	1499.4597	1711.7491	2971.7081	3029.4251	3046.3746	3090.3294	3095.3852	3102.5462	3110.5628	3125.3263	3140.2862	3166.9002	3167.6467	3183.0658
CC1C=CC2CC3C2C13	C[C@H]1C=C[C@H]2C[C@@H]3[C@H]2[C@H]13	
InChI=1S/C9H12/c1-5-2-3-6-4-7-8(5)9(6)7/h2-3,5-9H,4H2,1H3	InChI=1S/C9H12/c1-5-2-3-6-4-7-8(5)9(6)7/h2-3,5-9H,4H2,1H3/t5-,6-,7-,8+,9-/m0/s1
