15
gdb 27421	2.6827	1.72219	1.21927	4.1611	76.11	-0.2479	-0.0988	0.1491	1016.6133	0.113385	-412.996552	-412.988878	-412.987934	-413.028733	28.553	
C	 0.091197199	 1.4464787203	 0.1704951299	-0.442248
C	-0.1465086095	-0.0132525401	-0.0921415373	 0.343498
N	-1.3130722184	-0.5128623006	 0.0749949188	-0.233633
C	-1.5250180897	-1.8791296684	-0.1485325047	 0.332017
N	-2.3719316573	-2.296631853	-0.9907047485	-0.476643
N	-0.8118742471	-2.7322407534	 0.7399614184	-0.203739
C	 0.463048619	-2.7454959028	 0.6416364007	-0.022311
C	 1.2625922005	-1.8838502625	-0.2473769745	-0.005572
N	 0.9967046061	-0.6742462388	-0.5799108717	-0.229075
H	 0.3899419286	 1.9433569235	-0.7579179655	 0.154251
H	-0.8133345563	 1.9073496831	 0.5655017107	 0.150858
H	 0.9163530835	 1.5758201933	 0.8788993359	 0.139698
H	-2.4317072555	-3.3152663191	-0.9461893489	 0.226746
H	 1.0174178673	-3.4580051415	 1.2581704316	 0.132807
H	 2.2030646199	-2.3035630999	-0.6146085547	 0.133347
120.2634	135.7187	168.2435	255.2916	312.3295	373.3007	424.8782	457.9481	524.2786	649.9028	681.7857	712.6594	837.0714	852.1311	873.2165	887.7673	931.53	950.4783	1002.2049	1030.4263	1068.5064	1104.2359	1233.1547	1316.6706	1395.2752	1402.6965	1411.1723	1467.922	1473.6923	1616.8238	1678.6634	1698.382	1735.5137	3047.0672	3087.0991	3103.8926	3105.3375	3166.6532	3476.0307
CC1=NC(=N)N=CC=N1	CC1=N[C]([NH])N=CC=N1	
InChI=1S/C5H6N4/c1-4-7-2-3-8-5(6)9-4/h2-3,6H,1H3	InChI=1S/C5H6N4/c1-4-7-2-3-8-5(6)9-4/h2-3,6H,1H3
