13
gdb 26903	3.1901	1.46025	1.00476	6.8807	66.98	-0.2215	-0.052	0.1696	1069.3618	0.088567	-489.938225	-489.930119	-489.929175	-489.970798	29.907	
N	-0.000148603	 1.3305757465	 0.0794246427	-0.558386
C	-0.0440335058	-0.0133870988	 0.0282891646	 0.437918
C	-1.2263002514	-0.7388826069	-0.0056627239	 0.110877
O	-2.4291278469	-0.0539882627	-0.0738121256	-0.458043
C	-1.0976553914	-2.1234860481	-0.0812557166	-0.023604
N	 0.0387872187	-2.7961997564	-0.0691246688	-0.355635
C	 1.2086042689	-2.1267454263	 0.0007860461	 0.438722
O	 2.3285960122	-2.5285819615	 0.0439483596	-0.326933
O	 1.1172176329	-0.6290923181	 0.017748225	-0.263425
H	 0.8809575202	 1.7930200482	-0.0703791504	 0.282779
H	-0.857756717	 1.8296946058	-0.0895669671	 0.284579
H	-2.9105487763	-0.1729610315	 0.7523274449	 0.30582
H	-2.0090560812	-2.7186080102	-0.1542144406	 0.125329
91.073	167.2964	204.8272	268.1012	297.7512	339.161	352.6347	438.3909	479.6935	484.8789	531.8711	610.3072	643.5893	738.8738	770.5951	778.3442	846.9442	989.6437	1003.0571	1098.8895	1199.1125	1303.155	1332.8138	1408.4983	1473.9235	1542.321	1633.8831	1679.5274	1906.3966	3125.5242	3606.019	3737.6015	3791.6467
NC1=C(O)C=NC(=O)O1	Nc1c(O)cnc(=O)o1	
InChI=1S/C4H4N2O3/c5-3-2(7)1-6-4(8)9-3/h1,7H,5H2	InChI=1S/C4H4N2O3/c5-3-2(7)1-6-4(8)9-3/h1,7H,5H2
