18
gdb 112463	2.45436	1.47669	1.03148	4.2591	74.37	-0.2255	0.001	0.2265	1179.4818	0.148449	-439.144702	-439.136121	-439.135177	-439.178489	31.854	
C	 0.012848904	 1.5903249818	 0.0782949726	-0.388723
C	 0.0174834827	 0.0617572547	 0.156141468	-0.17483
C	-1.3745825886	-0.5637872851	-0.0179254712	 0.068685
O	-1.9378333314	-0.1478218387	-1.2947058303	-0.26278
C	-1.7993562468	-0.876161673	-2.4228271004	 0.470705
O	-2.029077935	-0.4064288584	-3.5068227568	-0.382102
N	-1.42207011	-2.1956798961	-2.2400700135	-0.384002
C	-1.3661146564	-2.8011080235	-0.9861326326	 0.010881
C	-1.3689981413	-2.0579753659	 0.1171305257	-0.144515
H	 1.0244143353	 1.9892385065	 0.1966048071	 0.114465
H	-0.3795532452	 1.930597044	-0.8830835268	 0.145632
H	-0.611951539	 2.0232981957	 0.8675340098	 0.114041
H	 0.684191109	-0.3629829659	-0.6041619226	 0.109494
H	 0.4059564499	-0.2698113055	 1.1273797272	 0.099869
H	-2.05612096	-0.1146810399	 0.7141710914	 0.103434
H	-1.4447819088	-2.7504644111	-3.0793336868	 0.267425
H	-1.3335704767	-3.8837331694	-0.9913357406	 0.125141
H	-1.3394086217	-2.5025122501	 1.1024890595	 0.10718
60.6038	106.3539	117.1872	214.8464	228.3284	329.4591	430.5889	471.2591	488.5968	534.8256	568.2527	613.2732	722.8285	744.4718	777.2194	831.0321	893.2592	935.6242	939.2713	993.0165	1017.3523	1062.6011	1091.9591	1124.5899	1149.4434	1187.4205	1259.0845	1288.7176	1317.0055	1382.0854	1404.749	1411.8099	1423.8098	1466.4054	1476.1242	1496.7528	1507.8403	1738.3276	1850.4973	3027.2586	3036.1779	3038.5764	3067.9089	3104.89	3127.9066	3205.4434	3231.1219	3665.2899
CCC1OC(=O)NC=C1	CC[C@H]1OC(=O)NC=C1	
InChI=1S/C6H9NO2/c1-2-5-3-4-7-6(8)9-5/h3-5H,2H2,1H3,(H,7,8)	InChI=1S/C6H9NO2/c1-2-5-3-4-7-6(8)9-5/h3-5H,2H2,1H3,(H,7,8)/t5-/m1/s1
