17
gdb 89971	3.12801	1.2526	1.0854	2.2097	69.27	-0.252	-0.0427	0.2093	1154.4722	0.133841	-458.938158	-458.929562	-458.928618	-458.972023	30.784	
C	-0.6211995804	 1.3805823129	-0.0317488559	-0.405622
C	 0.023222662	 0.007877846	 0.0049526739	 0.028002
O	 1.2387261481	-0.0949292581	-0.7928889829	-0.333003
C	 2.0660088494	-0.4836485048	 0.3097427391	 0.245154
C	 2.9317313241	-1.7574850595	 0.2153624973	-0.126552
O	 4.1191251988	-1.0250113795	 0.571791146	-0.268211
C	 3.4102910859	 0.2284490864	 0.5563201269	-0.124503
C	 0.8594555444	-0.3629992798	 1.239761947	 0.265144
O	 0.6675957237	-0.4790330799	 2.4113888722	-0.279223
H	 0.0862005438	 2.1559957123	 0.2751913547	 0.128481
H	-0.9677317122	 1.6076096697	-1.0439197859	 0.139167
H	-1.4818101571	 1.4036046613	 0.6437047285	 0.139311
H	-0.6947351514	-0.7745609147	-0.2764812769	 0.112285
H	 2.7048184349	-2.5561791439	 0.9306990557	 0.120152
H	 2.9702888899	-2.1617363955	-0.8039808202	 0.119392
H	 3.7031609796	 0.8741286255	-0.2810945076	 0.119171
H	 3.5039468265	 0.7718164217	 1.5034850881	 0.120855
68.0965	89.1912	151.0931	197.3953	205.8441	251.9633	329.3894	385.9008	488.2544	536.8611	694.2497	709.5802	806.7825	861.2262	890.3089	923.9259	977.5728	991.46	1008.4786	1039.5191	1068.836	1095.9199	1132.8628	1149.9708	1152.8539	1199.6373	1257.5807	1277.9549	1295.7169	1347.7536	1370.6859	1400.5923	1481.7503	1488.7573	1493.4108	1515.4014	1919.2293	3013.3111	3018.6771	3024.5331	3043.4744	3074.1423	3074.3743	3121.5655	3123.193
CC1OC2(COC2)C1=O	C[C@H]1OC2(COC2)C1=O	
InChI=1S/C6H8O3/c1-4-5(7)6(9-4)2-8-3-6/h4H,2-3H2,1H3	InChI=1S/C6H8O3/c1-4-5(7)6(9-4)2-8-3-6/h4H,2-3H2,1H3/t4-/m1/s1
