18
gdb 23530	2.31424	1.55377	1.21688	1.1857	75.27	-0.2493	0.0109	0.2603	1083.975	0.148462	-439.020865	-439.01287	-439.011926	-439.053196	31.545	
O	-0.1431147163	 1.3883456023	 0.0828897113	-0.398978
N	 0.0245739968	-0.0168107738	 0.0566351962	-0.303797
C	-1.0870289351	-0.60729067	-0.0573077231	 0.430881
C	-2.5781715995	-0.2908975658	-0.0055750815	-0.155077
C	-3.0709402855	-0.9278171413	-1.3227531261	-0.225443
C	-2.2407708587	-2.2644761376	-1.3020422999	-0.22663
C	-1.4736779256	-2.0742114813	 0.0243330912	-0.144476
C	-2.6161588096	-1.5329660088	 0.9637280856	 0.175013
O	-2.2743149839	-1.303974148	 2.3007912446	-0.453949
H	 0.7668911853	 1.6946939358	 0.1592421089	 0.30556
H	-2.9601690806	 0.6827601025	 0.2905175084	 0.092818
H	-4.1497642394	-1.1055085475	-1.3041659299	 0.106711
H	-2.8446221637	-0.3078890961	-2.1929749218	 0.115013
H	-2.8775609731	-3.1530503152	-1.2769738744	 0.106164
H	-1.5687653539	-2.3521588687	-2.1587139174	 0.113658
H	-0.7799909115	-2.8461862978	 0.35115876	 0.084404
H	-3.5473378089	-2.1061546245	 0.9694824782	 0.088417
H	-1.4403573367	-0.8174513241	 2.3258453101	 0.289711
91.6338	190.1275	247.3068	283.1614	288.7939	335.6101	390.328	407.3844	487.0947	525.1731	653.9358	673.1871	738.262	841.6505	852.0408	875.6093	895.9433	922.3205	940.5245	986.494	1012.4851	1026.7196	1073.8454	1080.4981	1151.3746	1162.459	1186.6411	1207.503	1218.724	1258.1533	1263.047	1300.3439	1315.3504	1324.6066	1405.4685	1436.4443	1492.357	1511.066	1796.1268	3057.8681	3066.7774	3080.5522	3099.9838	3118.0076	3146.5017	3159.5376	3770.0587	3818.3966
ON=C1C2CCC1C2O	ON=C1[C@H]2CC[C@@H]1[C@H]2O	
InChI=1S/C6H9NO2/c8-6-3-1-2-4(6)5(3)7-9/h3-4,6,8-9H,1-2H2	InChI=1S/C6H9NO2/c8-6-3-1-2-4(6)5(3)7-9/h3-4,6,8-9H,1-2H2/t3-,4+,6+
