20
gdb 40149	2.49797	1.60778	1.27503	1.8529	78.28	-0.2399	0.0546	0.2945	1076.5519	0.171476	-403.090083	-403.081979	-403.081035	-403.122896	31.662	
C	 0.1692729398	 1.4378064597	-0.3747739386	-0.302961
N	 1.3265527001	 0.5605190166	-0.0859410176	-0.355127
C	-0.0195556527	 0.0126544416	-0.0462840833	 0.200429
C	-0.6396133616	-0.6721421988	 1.1624396238	-0.138953
O	-1.2074953039	-1.6877092595	 0.3018253266	-0.332114
C	-0.6299169439	-1.1182917585	-0.8844669584	 0.40422
C	-1.5394326271	-0.8286639939	-2.100167206	-0.288328
C	-0.3877945928	-1.3133362256	-3.0248513612	-0.217819
C	 0.2604377098	-2.0004661507	-1.7906321802	-0.294852
H	-0.0208882026	 2.2034654113	 0.3730570766	 0.12212
H	-0.0046954605	 1.7549672666	-1.4003918544	 0.11603
H	 1.796010836	 0.2981067372	-0.9502799395	 0.233652
H	 0.0818483774	-1.0855444013	 1.8767655153	 0.112229
H	-1.4129239525	-0.111305949	 1.7008069037	 0.104783
H	-2.3837716151	-1.5238514128	-2.1018579186	 0.117294
H	-1.9175372068	 0.1897065271	-2.2202563693	 0.097718
H	-0.6584294943	-1.9527465312	-3.8667627041	 0.106554
H	 0.2167084307	-0.4840345106	-3.403391649	 0.099203
H	 1.3448852223	-1.9389233075	-1.6616202736	 0.096801
H	-0.0442967023	-3.0463974608	-1.6964542725	 0.119122
77.1108	101.7114	198.6718	254.2479	283.7031	349.9738	427.266	486.4575	498.0539	579.4734	695.5614	775.8176	825.7646	850.2297	886.229	904.7572	924.2584	927.4582	959.4895	970.3449	1009.6051	1017.5723	1042.3084	1057.0577	1115.1123	1124.7722	1148.9568	1155.9743	1182.4021	1195.7164	1234.4661	1242.3853	1257.5535	1270.3925	1279.4244	1318.8572	1329.7878	1439.2188	1467.6833	1483.8353	1504.3786	1517.7458	1521.1202	3020.2466	3054.5953	3057.9216	3063.6058	3068.6387	3100.5637	3104.2805	3111.7947	3125.04	3184.6232	3484.8924
C1NC11COC11CCC1	C1N[C@]21COC12CCC1	
InChI=1S/C7H11NO/c1-2-7(3-1)6(4-8-6)5-9-7/h8H,1-5H2	InChI=1S/C7H11NO/c1-2-7(3-1)6(4-8-6)5-9-7/h8H,1-5H2/t6-/m1/s1
