19
gdb 106861	2.48386	1.27758	1.00691	1.1429	83.84	-0.2321	0.0332	0.2653	1234.8695	0.157976	-385.827211	-385.818112	-385.817168	-385.861073	34.641	
O	 0.197810509	 1.3263772853	 0.2063409847	-0.412821
C	 0.0626052462	-0.0417823898	-0.1615099608	-0.168159
C	-1.3622117212	-0.5080105278	-0.1311280883	 0.267551
C	-2.0240607379	-0.9943908995	 1.1277793304	-0.376749
C	-1.9073529638	-1.9597579166	-0.0347301269	 0.153682
C	-2.9881191113	-1.6238250882	-1.080734241	-0.288342
C	-2.4372746758	-0.1650701927	-1.1707861079	-0.278794
C	-1.1979633366	-3.1893734186	 0.0586274475	 0.181821
C	-0.6045737371	-4.236033853	 0.1137472988	-0.419002
H	-0.1701774151	 1.423033893	 1.0911161691	 0.28188
H	 0.4639569903	-0.1084521968	-1.1785797073	 0.112296
H	 0.6769843501	-0.6974559181	 0.4756559056	 0.095176
H	-1.3595295434	-1.2094928466	 1.9586901385	 0.122996
H	-3.0066749706	-0.6273610336	 1.4172098421	 0.111175
H	-2.8538445549	-2.1802059063	-2.0094624895	 0.118116
H	-4.0205681719	-1.7477279817	-0.7400961774	 0.101306
H	-3.1244340233	 0.6404978447	-0.8955937179	 0.101869
H	-2.0145251148	 0.0595848249	-2.1525120076	 0.11049
H	-0.082197078	-5.1585766487	 0.1688079579	 0.18551
73.4655	96.8472	152.0397	188.7124	271.2147	294.1537	364.3695	374.024	415.9125	520.3421	531.8474	563.5956	614.0401	647.8278	727.3918	762.9711	787.5398	844.6219	936.8559	945.7514	948.7561	985.086	1014.1851	1054.6645	1085.3845	1117.1271	1125.0488	1184.3695	1212.0801	1244.1447	1244.8657	1286.3055	1330.9588	1359.2264	1398.3157	1426.7561	1482.2889	1482.7087	1498.7459	1512.4769	2227.4854	2981.2609	3051.9429	3059.0605	3068.2834	3103.3207	3104.7996	3127.1017	3201.1022	3503.2849	3808.8421
OCC12CC1(CC2)C#C	OC[C@]12C[C@]1(CC2)C#C	
InChI=1S/C8H10O/c1-2-7-3-4-8(7,5-7)6-9/h1,9H,3-6H2	InChI=1S/C8H10O/c1-2-7-3-4-8(7,5-7)6-9/h1,9H,3-6H2/t7-,8+/m1/s1
