15
gdb 49342	2.33015	1.86242	1.04193	4.0669	72.53	-0.2502	-0.0228	0.2274	1074.8177	0.114275	-450.149829	-450.141923	-450.140979	-450.182852	28.681	
N	 0.1286309375	 1.2832268648	 0.0069446852	-0.403957
C	 0.016482529	 0.024234282	 0.0039083419	 0.082037
N	-1.2213351036	-0.6431659789	 0.0120242095	-0.157598
C	-1.2793256757	-2.0381440519	 0.0089345225	 0.357991
N	-0.2593456523	-2.7898516436	-0.0010869694	-0.533891
C	-2.7571960213	-2.3694187086	 0.019840022	-0.194764
O	-3.4211086499	-1.1128994297	 0.0285093181	-0.251104
C	-2.5132253145	-0.0816783774	 0.0236622309	 0.486904
N	-2.8003499857	 1.1396582359	 0.028781477	-0.528463
H	 1.1189686768	 1.5279178358	-0.0005696987	 0.235442
H	 0.8219755566	-0.7127319847	-0.005097994	 0.147104
H	-0.5260254325	-3.7727277469	-0.0014812856	 0.231134
H	-3.0462782781	-2.9391186101	-0.8704227943	 0.147453
H	-3.0320934354	-2.9439061548	 0.9115095139	 0.147459
H	-3.8132571109	 1.253530698	 0.0370766912	 0.234255
72.9232	124.0242	148.9153	206.1284	233.5033	366.6126	454.3436	556.831	572.1441	636.2987	707.8153	711.334	755.2482	821.8786	834.732	847.872	986.5611	1014.7775	1038.3701	1093.6005	1104.8774	1124.7078	1174.7561	1211.5302	1250.9338	1338.4472	1371.7072	1426.7571	1451.2128	1502.5005	1722.9477	1750.8431	1814.151	3038.2161	3078.6122	3115.7696	3484.7988	3503.8646	3510.3438
N=CN1C(=N)COC1=N	[NH][CH]N1[C]([NH])CO[C]1[NH]	
InChI=1S/C4H6N4O/c5-2-8-3(6)1-9-4(8)7/h2,5-7H,1H2	InChI=1S/C4H6N4O/c5-2-8-3(6)1-9-4(8)7/h2,5-7H,1H2
