19
gdb 65815	3.6255	0.82201	0.76685	1.1957	77.45	-0.2544	0.0514	0.3058	1515.8163	0.156518	-422.967051	-422.957422	-422.956478	-423.002089	35.312	
O	-0.1481862533	 1.4694212793	 0.0395074891	-0.473763
C	 0.0212888066	 0.0731340209	 0.007842353	 0.332123
C	-1.366591697	-0.5534428584	-0.0400498204	-0.207192
C	-2.1945245585	-0.0827958528	-1.2532697811	-0.368532
C	-3.5133953747	-0.7002386303	-1.3030615435	 0.294333
C	-4.5949235443	-1.2245134885	-1.3217349731	-0.436809
C	 1.0426157029	-0.5136735452	-1.0067166303	-0.128615
O	 1.6833046923	-1.2748927534	 0.0337740957	-0.268416
C	 0.9633021545	-0.5669766455	 1.0615484728	-0.134855
H	 0.7198092102	 1.8865158242	 0.0460834174	 0.282885
H	-1.2618358176	-1.6427640084	-0.0597949313	 0.12152
H	-1.9000946456	-0.2955371446	 0.8812295413	 0.119038
H	-2.290672049	 1.007131343	-1.2142060799	 0.152071
H	-1.6531369215	-0.3092178686	-2.1814960143	 0.126321
H	-5.5540057144	-1.6788101597	-1.3496347336	 0.192813
H	 0.661951061	-1.1508475634	-1.8128808627	 0.109509
H	 1.7106203109	 0.2481617146	-1.4374974683	 0.088642
H	 1.5939569847	 0.1714382317	 1.5795297062	 0.088682
H	 0.5179120429	-1.2424000549	 1.8005484529	 0.110243
55.4756	90.9497	114.8395	137.2016	215.9851	296.8767	332.7874	338.1413	363.4621	419.5674	476.4889	507.6112	616.0238	637.2047	697.186	779.4343	841.128	916.5615	932.154	963.4021	984.0064	1010.8684	1027.932	1037.529	1097.553	1131.8421	1147.4392	1158.3643	1168.5243	1255.7188	1287.1128	1298.241	1324.6994	1363.4369	1379.2765	1416.0402	1471.4479	1485.4925	1502.3399	1528.2617	2239.6749	2979.3763	2991.9868	3021.8298	3048.9202	3059.2122	3063.6868	3073.2627	3099.6689	3507.8574	3809.2039
OC1(CCC#C)COC1	OC1(CCC#C)COC1	
InChI=1S/C7H10O2/c1-2-3-4-7(8)5-9-6-7/h1,8H,3-6H2	InChI=1S/C7H10O2/c1-2-3-4-7(8)5-9-6-7/h1,8H,3-6H2
