19
gdb 80625	2.46502	1.83186	1.39676	1.1927	74.57	-0.2361	0.0647	0.3007	989.9492	0.160331	-422.981083	-422.973519	-422.972574	-423.012751	30.736	
O	-0.0404801816	 1.4226035465	 0.0127000752	-0.430549
C	 0.0037169754	 0.0066936801	 0.0513028344	 0.008685
C	 0.4454644928	-0.5966808194	 1.414971123	 0.036561
C	-0.7505264715	-0.3129732056	 2.3443382097	-0.23527
C	-1.3495630218	-1.3522020077	 1.3687648668	-0.017285
O	-0.0185626902	-1.9745907668	 1.2801623628	-0.298835
C	-1.4143357627	-0.5972900699	 0.0481148069	 0.412889
C	-2.6209929668	 0.1309401753	-0.4608557946	-0.321807
C	-2.114734148	-1.1014078674	-1.1765449248	-0.343616
H	 0.8602020904	 1.7473691825	-0.0847741472	 0.285988
H	 0.6200692323	-0.3935334586	-0.7639079895	 0.075952
H	 1.4894967216	-0.49834975	 1.7162062619	 0.071251
H	-0.5958396326	-0.7233778976	 3.3425387062	 0.106641
H	-1.1713049111	 0.693561721	 2.3680939235	 0.113326
H	-2.1555976771	-2.0395874694	 1.62680223	 0.076094
H	-3.54477374	 0.0525423881	 0.1041039519	 0.10833
H	-2.4540151524	 1.0992171866	-0.9185255299	 0.128764
H	-1.6224429081	-0.9691166087	-2.1349342848	 0.112526
H	-2.6921568385	-2.017305529	-1.0964976214	 0.110355
119.1415	233.0371	240.4122	262.3693	286.6886	365.1132	462.6826	529.949	548.5207	593.6917	768.5311	777.2513	823.3332	844.0291	864.1338	918.658	926.0593	946.6217	969.7222	976.3733	993.1892	1029.8868	1058.2013	1069.7815	1077.5783	1085.659	1123.1696	1180.9981	1187.3374	1216.8497	1223.845	1246.2419	1265.3768	1280.1579	1298.5163	1328.7845	1385.6418	1429.8825	1468.3156	1481.5781	1509.4434	3019.3087	3081.4428	3109.9869	3120.3449	3121.5285	3130.9179	3154.3826	3201.5281	3222.029	3818.7416
OC1C2CC(O2)C11CC1	O[C@H]1[C@H]2C[C@H](O2)C21CC2	
InChI=1S/C7H10O2/c8-6-4-3-5(9-4)7(6)1-2-7/h4-6,8H,1-3H2	InChI=1S/C7H10O2/c8-6-4-3-5(9-4)7(6)1-2-7/h4-6,8H,1-3H2/t4-,5+,6+/m1/s1
