13
gdb 50066	4.37694	0.98718	0.87279	2.7126	67.65	-0.2763	-0.1124	0.1639	1239.117	0.087434	-452.74483	-452.736403	-452.735459	-452.779052	28.634	
O	-0.141577399	 0.4282885772	-0.3297869222	-0.270208
C	 0.038748158	 1.5848382376	-0.0633942959	 0.159663
N	 1.2145493654	 2.0623164308	 0.5336956313	-0.06367
C	 2.5316333488	 1.6624616599	 0.1539901228	-0.219787
C	 2.0717369114	 3.1149293888	 0.0446639254	-0.148824
C	 1.8842471233	 3.6379957426	-1.3430645823	 0.306936
O	 1.1796735747	 3.1330794745	-2.1820000558	-0.277764
C	 2.6657182703	 4.8541294851	-1.6386139088	 0.234897
N	 3.2860104213	 5.8060373785	-1.8528513366	-0.286102
H	-0.7238232412	 2.3754339202	-0.159692334	 0.106887
H	 3.2204483681	 1.4071905118	 0.9534798558	 0.151886
H	 2.635925218	 1.1063333929	-0.7742773296	 0.165236
H	 2.431244981	 3.8353192201	 0.7747276798	 0.140851
38.1814	94.388	155.595	196.9743	215.29	280.7298	305.2648	370.9755	480.5412	597.1669	622.7724	754.5699	804.7503	827.4663	968.4927	997.3041	1031.0321	1038.8967	1090.3287	1098.1871	1133.3094	1161.5508	1353.0173	1414.3745	1416.847	1501.0929	1782.8174	1819.7549	2340.3431	3001.5493	3116.6682	3153.1363	3215.8238
O=CN1CC1C(=O)C#N	O=CN1C[C@H]1C(=O)C#N	
InChI=1S/C5H4N2O2/c6-1-5(9)4-2-7(4)3-8/h3-4H,2H2	InChI=1S/C5H4N2O2/c6-1-5(9)4-2-7(4)3-8/h3-4H,2H2/t4-,7?/m0/s1
