19
gdb 74291	2.78421	1.17814	1.10195	1.932	84.83	-0.2394	0.0124	0.2518	1237.8031	0.156293	-385.86766	-385.858129	-385.857185	-385.901759	35.626	
C	 0.0359361934	 1.5283137333	-0.0275401101	-0.493687
C	-0.0047166498	 0.0351414287	-0.0434959827	 0.301011
C	-1.0385115177	-0.7776032357	 0.1476228036	-0.238433
C	-0.6047458076	-2.2282668678	 0.0638485764	 0.168106
C	-1.354954469	-3.0360787809	-1.0056743877	-0.410248
O	 0.7815632975	-2.1493377899	-0.320197757	-0.291111
C	 1.2294084475	-0.8006660153	-0.2721785821	-0.165453
C	-0.7276793792	-2.8869825477	 1.3776837282	 0.357442
C	-0.8457696718	-3.4212816462	 2.4481294689	-0.509633
H	 0.7242513066	 1.8949677275	 0.7443282888	 0.133626
H	 0.3978749539	 1.9255810021	-0.9839620196	 0.131395
H	-0.950916251	 1.9547695573	 0.1676768475	 0.131243
H	-2.0607884657	-0.4959751402	 0.3648283615	 0.105526
H	-1.2671464037	-2.5301631077	-1.9705599625	 0.118083
H	-0.9227551142	-4.0366042208	-1.0854579092	 0.134503
H	-2.4123887916	-3.1333985455	-0.7439049995	 0.121106
H	 1.7373464474	-0.5568546891	-1.2171654066	 0.10582
H	 1.9661413396	-0.6615883742	 0.5368996313	 0.104934
H	-0.9392433446	-3.8929416878	 3.3950921806	 0.19577
69.4268	124.4981	168.4518	184.4381	205.1058	231.1328	287.9063	355.7047	383.3526	454.5108	503.2898	540.2926	597.9842	616.7058	639.6391	658.0349	818.5338	839.8396	897.0358	906.1295	939.7999	1000.537	1014.6256	1068.7949	1089.6709	1095.7113	1165.3356	1180.4092	1205.5036	1242.536	1309.3874	1382.652	1397.3964	1415.1106	1480.045	1480.3882	1486.4683	1488.6299	1519.6495	1734.2157	2227.4226	2963.6867	3002.6244	3022.2294	3045.3946	3068.969	3118.8179	3125.5367	3132.0696	3218.901	3500.3288
CC1=CC(C)(OC1)C#C	CC1=C[C@@](C)(OC1)C#C	
InChI=1S/C8H10O/c1-4-8(3)5-7(2)6-9-8/h1,5H,6H2,2-3H3	InChI=1S/C8H10O/c1-4-8(3)5-7(2)6-9-8/h1,5H,6H2,2-3H3/t8-/m0/s1
