23
gdb 118853	2.26103	0.99772	0.78882	1.0973	83.51	-0.2427	0.0805	0.3231	1566.4093	0.202649	-425.404346	-425.3933	-425.392356	-425.441082	39.761	
C	-0.2634853071	 1.5056466802	 0.125495614	-0.384799
C	-0.1432972934	-0.0002821701	 0.2903433822	-0.047554
O	-1.2573695615	-0.6030505006	-0.3521107298	-0.293339
C	-1.3735114014	-1.9910440745	-0.1775335323	 0.4208
C	-0.3666413984	-2.8122784106	-0.9558535351	-0.453806
C	-1.876224219	-2.4821978462	 1.1600549049	-0.339568
C	-2.7873183174	-2.4936762119	-0.0540295403	-0.053124
C	-3.9606826967	-1.5528071566	-0.1105252861	-0.099728
O	-5.0072312464	-2.1085598416	 0.6807349114	-0.423142
H	 0.5862506265	 2.0094309538	 0.5960375662	 0.113926
H	-0.282815281	 1.7750992497	-0.934408891	 0.126296
H	-1.1846652807	 1.8722066161	 0.5876940663	 0.123022
H	 0.7990947737	-0.3555310863	-0.1529328438	 0.09047
H	-0.1270234553	-0.2772433759	 1.355320175	 0.090169
H	 0.6555927509	-2.6443701594	-0.600606339	 0.11776
H	-0.5792028447	-3.8799270963	-0.8526898198	 0.118516
H	-0.4052207608	-2.5540761965	-2.0193582251	 0.122849
H	-1.5073817022	-3.4244744655	 1.5507205432	 0.107773
H	-2.0918111789	-1.7333618211	 1.9148972877	 0.116067
H	-2.9817054669	-3.4654645864	-0.4998537719	 0.086023
H	-3.6557053987	-0.5643784669	 0.2566427375	 0.094654
H	-4.284266529	-1.4281830818	-1.1564314552	 0.084157
H	-5.7694941715	-1.5263083618	 0.609320391	 0.282578
55.7753	59.7973	102.8288	133.4689	178.6031	219.1521	239.2704	251.5616	268.5251	318.2443	325.1465	408.9277	442.8763	478.6489	606.1873	710.166	819.4585	830.655	872.9751	894.6813	937.4736	944.2129	989.2269	1036.9987	1058.7049	1076.3566	1093.3532	1113.1792	1123.4674	1155.448	1168.2163	1187.8722	1242.4272	1256.8188	1285.8413	1292.5801	1302.9155	1397.2472	1402.0517	1413.5124	1427.5309	1465.7263	1483.4997	1485.0047	1489.232	1500.2583	1505.4008	1524.9819	1529.5629	2972.3847	2981.8705	3011.4876	3033.8269	3034.767	3043.3742	3097.806	3114.3528	3117.6358	3119.8428	3131.5415	3144.7544	3218.6969	3824.2595
CCOC1(C)CC1CO	CCO[C@@]1(C)C[C@H]1CO	
InChI=1S/C7H14O2/c1-3-9-7(2)4-6(7)5-8/h6,8H,3-5H2,1-2H3	InChI=1S/C7H14O2/c1-3-9-7(2)4-6(7)5-8/h6,8H,3-5H2,1-2H3/t6-,7-/m0/s1
