22
gdb 93219	2.58552	1.28875	0.93039	2.4941	82.65	-0.2107	-0.0142	0.1966	1317.9888	0.19476	-404.382644	-404.373265	-404.372321	-404.416603	35.746	
C	-0.0082435956	 1.5705990576	 0.0436846463	-0.406345
C	 0.0018877545	 0.0437142897	-0.0011534422	 0.046479
C	 0.6903008195	-0.4935411405	-1.2686327679	-0.193598
C	 0.7512805167	-2.0383526099	-1.2977271241	-0.093336
C	 1.5155682975	-2.5861826762	-2.501430244	-0.399788
C	 1.3034244531	-2.5604492081	 0.0286630039	 0.378403
O	 2.1894294149	-3.3820498536	 0.0987079391	-0.310753
C	 0.6573557279	-1.9432181206	 1.2697596988	-0.264175
N	 0.6082935108	-0.4782128177	 1.2309413598	-0.288752
H	 1.0145003381	 1.9670565438	 0.049116473	 0.111851
H	-0.5186612182	 1.9849914974	-0.8306923769	 0.117073
H	-0.513424442	 1.9240999877	 0.9459929481	 0.127571
H	-1.0402807116	-0.3111694384	-0.002009529	 0.078467
H	 0.1756335615	-0.1336755943	-2.1686167128	 0.097274
H	 1.7135312465	-0.0925350083	-1.3127492531	 0.09426
H	-0.2904286017	-2.3979507207	-1.3364666621	 0.092
H	 2.5575016809	-2.2520258725	-2.4846814486	 0.123743
H	 1.5255247762	-3.6784110444	-2.4961798444	 0.129459
H	 1.0600654035	-2.2436528416	-3.4357358502	 0.106051
H	-0.3731667045	-2.3191924899	 1.3519951925	 0.115882
H	 1.2049447726	-2.2768718417	 2.154571261	 0.122255
H	 1.5537450094	-0.1119649277	 1.3154596727	 0.215978
71.4746	128.9682	185.0805	205.8812	232.0723	257.0336	283.1956	351.7635	384.7018	419.1848	473.332	504.3613	567.3702	700.8887	735.2993	775.466	853.707	887.7127	920.6911	938.4656	959.4628	1007.2565	1047.8318	1089.559	1105.8905	1127.3311	1153.8469	1179.5195	1184.8348	1208.5016	1283.3456	1297.0765	1326.783	1339.1596	1360.8228	1377.5862	1385.5354	1407.9989	1412.4877	1460.2487	1477.1026	1482.5745	1490.0399	1493.9838	1497.5937	1504.7477	1809.2767	2973.4588	2986.5067	3002.9897	3005.2508	3031.4725	3042.9693	3048.7695	3098.5741	3105.0556	3110.2539	3124.2846	3126.9919	3486.205
CC1CC(C)C(=O)CN1	C[C@H]1C[C@@H](C)C(=O)CN1	
InChI=1S/C7H13NO/c1-5-3-6(2)8-4-7(5)9/h5-6,8H,3-4H2,1-2H3	InChI=1S/C7H13NO/c1-5-3-6(2)8-4-7(5)9/h5-6,8H,3-4H2,1-2H3/t5-,6+/m1/s1
