23
gdb 84874	2.1163	1.66691	1.20468	1.6577	86.08	-0.2413	0.0149	0.2563	1156.8373	0.206025	-388.313852	-388.304537	-388.303592	-388.346847	37.388	
C	-0.1351068868	 1.5678793798	 0.0783450603	-0.439573
C	-0.0252015234	 0.0325500293	 0.014384765	 0.258171
C	-1.4379093992	-0.5705914581	 0.0080434653	-0.432258
C	 0.7404817009	-0.4092692572	-1.2521500641	-0.222491
C	 2.1795328094	 0.125299564	-1.3150588688	-0.276175
C	 2.8784006805	 0.0131586731	 0.0125538004	-0.044535
C	 2.2401815306	-0.2784821485	 1.1449969487	-0.10774
C	 0.7523271948	-0.5130985794	 1.2443630079	 0.093079
O	 0.2411945999	-0.0192771346	 2.4838096573	-0.449156
H	 0.8416092445	 2.0501000839	 0.184211696	 0.114045
H	-0.60219905	 1.9549552156	-0.8334652266	 0.111066
H	-0.7602832492	 1.8773686931	 0.9214284878	 0.115157
H	-2.0419324493	-0.1530963296	-0.8050685822	 0.102798
H	-1.4029608059	-1.6577056102	-0.1260893433	 0.105134
H	-1.9452709447	-0.3643712056	 0.9548434312	 0.127157
H	 0.7710282973	-1.5066092975	-1.2723218226	 0.096289
H	 0.1828599137	-0.0997262263	-2.1442970516	 0.090214
H	 2.7468104643	-0.419793768	-2.0803155204	 0.104223
H	 2.1918418106	 1.1746033604	-1.6446559677	 0.110349
H	 3.9530633823	 0.1822158735	 0.0255332876	 0.086835
H	 2.7820904382	-0.366173832	 2.0842304937	 0.089505
H	 0.5672738995	-1.5951490529	 1.3040560082	 0.089534
H	 0.5292360722	 0.8956758875	 2.570855688	 0.278372
114.8524	195.2789	230.9385	247.0036	264.9606	281.6822	321.0899	343.3949	346.2048	396.1818	445.6192	465.7421	508.2146	596.9468	679.832	722.124	788.6211	858.6645	872.0211	936.1018	945.5282	953.139	1002.2291	1008.1781	1020.8677	1041.7707	1065.6724	1082.6265	1143.6884	1176.9188	1200.5284	1233.1818	1253.3217	1264.8029	1311.2749	1338.0257	1369.237	1372.8161	1393.8746	1403.2455	1416.6012	1427.7266	1474.9408	1481.613	1495.0836	1498.7334	1504.9226	1521.0323	1720.6997	3002.5758	3002.9786	3014.9177	3026.3574	3035.297	3038.207	3058.4619	3089.9353	3099.2031	3107.1415	3111.7263	3139.1704	3163.0384	3807.8282
CC1(C)CCC=CC1O	CC1(C)CCC=C[C@H]1O	
InChI=1S/C8H14O/c1-8(2)6-4-3-5-7(8)9/h3,5,7,9H,4,6H2,1-2H3	InChI=1S/C8H14O/c1-8(2)6-4-3-5-7(8)9/h3,5,7,9H,4,6H2,1-2H3/t7-/m1/s1
