16
gdb 16932	3.60959	2.14458	1.93146	3.6219	63.56	-0.2281	-0.0191	0.209	755.6525	0.132948	-383.765643	-383.75954	-383.758596	-383.79577	24.462	
O	 0.0162899224	-0.0081600982	-0.0269164226	-0.323522
C	-0.0096148887	 1.1917416785	-0.0106924189	 0.440111
C	-1.2535038002	 2.1081221266	 0.0358273406	-0.334458
C	-0.6145264832	 3.5137828918	 0.0829407078	-0.055947
C	 0.1012878318	 3.6452211737	 1.4339904628	-0.068487
O	 1.1908370683	 2.7042161506	 1.3384915712	-0.280553
C	 1.1743120927	 2.177473445	-0.0040746412	 0.005639
C	 0.6185177562	 3.3322155238	-0.8405804876	-0.250888
H	-1.8458449494	 1.9546837265	-0.8728689375	 0.129482
H	-1.8901658738	 1.8691804064	 0.8923833062	 0.130145
H	-1.2859298658	 4.3389677906	-0.1542825029	 0.07925
H	 0.5021373565	 4.6530965305	 1.6017203387	 0.10255
H	-0.5344146752	 3.3759054024	 2.2852249485	 0.107374
H	 2.1482533657	 1.752204953	-0.2370311446	 0.0932
H	 0.3577768852	 3.0424506984	-1.8624613127	 0.111644
H	 1.2846410476	 4.1979685603	-0.8607873879	 0.11446
124.6146	245.5684	379.9958	417.213	463.716	542.1098	590.8623	698.1551	780.8926	804.4718	866.9785	890.4239	926.1325	935.1045	949.8919	961.1732	977.8376	1048.1278	1069.2588	1112.2194	1142.6653	1160.3353	1179.9	1225.6417	1245.6534	1283.2693	1294.8459	1309.3332	1333.0155	1374.914	1450.3855	1486.8161	1530.8727	1867.6095	3016.7222	3052.7039	3061.6037	3063.5548	3103.0371	3118.3968	3119.7733	3151.5475
O=C1CC2COC1C2	O=C1C[C@H]2CO[C@@H]1C2	
InChI=1S/C6H8O2/c7-5-1-4-2-6(5)8-3-4/h4,6H,1-3H2	InChI=1S/C6H8O2/c7-5-1-4-2-6(5)8-3-4/h4,6H,1-3H2/t4-,6-/m1/s1
