17
gdb 105288	2.44218	1.0927	0.90399	2.4765	78.05	-0.2538	-0.0349	0.2188	1313.2959	0.132804	-421.780605	-421.771068	-421.770123	-421.815269	34.565	
O	 0.0508099763	 1.4303523368	-0.4016881254	-0.411619
C	 0.0288073036	 0.1109610971	 0.0983576899	-0.128597
C	-1.3749103667	-0.4948866218	 0.0337799155	 0.090227
C	-1.8317274817	-1.1801627999	-1.2227120055	-0.31837
C	-1.5819336673	-2.0287752975	 0.0078793358	-0.144162
C	-0.4278399116	-2.9609140587	 0.0416747632	 0.158573
O	-0.4124430423	-3.9843405893	 0.6790043698	-0.260241
C	-2.3411413248	 0.2548022876	 0.79352679	 0.262738
C	-3.1041423799	 0.9259911756	 1.4383811266	-0.440042
H	-0.5711353485	 1.948003276	 0.1232778901	 0.290554
H	 0.7178792087	-0.4602466385	-0.5284228665	 0.111035
H	 0.3954701575	 0.0613010361	 1.1345131176	 0.10731
H	-2.8592452118	-1.0560181067	-1.5413253519	 0.141432
H	-1.1065594947	-1.2468940294	-2.0278487693	 0.135672
H	-2.4440523057	-2.3878933425	 0.5579493914	 0.124529
H	 0.4396951727	-2.6682226443	-0.591847929	 0.075132
H	-3.7942319337	 1.4981827294	 2.0082984077	 0.205829
76.8214	96.7523	116.8519	151.3052	205.5783	264.7607	314.8834	350.8519	393.9541	429.5923	461.1707	545.1995	593.8846	609.2635	671.8937	712.7644	847.4935	879.8233	928.0761	954.0482	1006.2561	1044.5653	1070.4161	1085.0378	1086.8647	1178.2355	1185.8824	1275.3772	1281.4543	1367.8353	1380.0716	1423.0756	1455.5445	1478.5086	1505.7943	1816.0993	2228.8029	2873.1104	2995.9775	3099.5689	3137.6347	3189.3312	3233.721	3499.564	3790.6037
OCC1(CC1C=O)C#C	OC[C@]1(C[C@H]1C=O)C#C	
InChI=1S/C7H8O2/c1-2-7(5-9)3-6(7)4-8/h1,4,6,9H,3,5H2	InChI=1S/C7H8O2/c1-2-7(5-9)3-6(7)4-8/h1,4,6,9H,3,5H2/t6-,7+/m0/s1
