19
gdb 73089	2.5316	1.80375	1.41188	1.229	75.02	-0.2243	0.0179	0.2422	989.4735	0.161614	-419.197308	-419.189467	-419.188523	-419.229485	30.584	
C	-0.1434367644	 1.5383643275	 0.0354389307	-0.4264
C	 0.0162567303	 0.0235878225	-0.0199098983	 0.272442
C	-1.3125292544	-0.6471415727	-0.3188794751	-0.140192
O	-1.2797763237	-2.0701464189	-0.1457840658	-0.227366
C	-0.6287749538	-2.4999565077	 0.9665776315	 0.10799
N	 0.2391636978	-1.8998429651	 1.6630384492	-0.257495
C	 0.7394167095	-0.6168156479	 1.2082518186	-0.038516
C	 1.9612768235	-0.7907777294	 0.2610693007	-0.164637
N	 1.1521909055	-0.3667638884	-0.9195051971	-0.363653
H	 0.819853234	 2.0126305525	 0.2422064123	 0.127099
H	-0.5013717804	 1.9250854004	-0.9248817497	 0.119969
H	-0.8501691361	 1.8361855682	 0.8179465624	 0.113209
H	-2.0864100966	-0.238565801	 0.3439695905	 0.113974
H	-1.6197490851	-0.4790579325	-1.355739498	 0.122749
H	-0.9458207625	-3.5102876931	 1.2196835722	 0.124356
H	 0.8916535022	 0.0353339114	 2.0726390474	 0.076959
H	 2.7848944737	-0.0958641957	 0.4550438402	 0.107455
H	 2.3556502782	-1.8090170883	 0.2255890643	 0.111135
H	 0.9029165723	-1.1697237619	-1.4899248561	 0.220922
91.4912	164.3027	222.7741	246.9907	334.0182	336.8723	368.2737	498.0607	537.8243	548.9146	671.0751	776.7599	805.5854	835.8863	898.409	908.1825	929.3029	957.7569	976.4686	993.5064	1017.3788	1031.1259	1058.7822	1139.8515	1162.3942	1197.4494	1205.0968	1251.4195	1262.1472	1289.9819	1327.0452	1343.6102	1381.8555	1408.3599	1414.9077	1419.7258	1484.9908	1489.4671	1496.05	1504.9738	1724.4818	3021.0002	3031.2983	3041.7669	3066.2912	3086.0837	3099.8335	3103.8106	3113.5889	3155.3226	3507.9088
CC12COC=NC1CN2	C[C@]12COC=N[C@H]1CN2	
InChI=1S/C6H10N2O/c1-6-3-9-4-7-5(6)2-8-6/h4-5,8H,2-3H2,1H3	InChI=1S/C6H10N2O/c1-6-3-9-4-7-5(6)2-8-6/h4-5,8H,2-3H2,1H3/t5-,6-/m0/s1
