16
gdb 57178	2.90429	1.27815	0.90986	1.6728	70.28	-0.2413	-0.0836	0.1577	1216.4237	0.123038	-471.238736	-471.229224	-471.228279	-471.274072	33.392	
C	-1.2894770045	 0.8052956848	-0.45084019	-0.315734
N	-0.1691625348	-0.0506783263	-0.0160635907	-0.171971
C	-0.21794907	-0.4702150448	 1.3585714985	 0.432708
N	 0.9207925907	-1.0516451398	 1.8431747073	-0.558294
N	-1.2974946208	-0.2127685151	 1.9919069605	-0.553406
C	 0.7885300801	-0.463160943	-0.8945786817	 0.365991
O	 1.7848214791	-1.1335350945	-0.6357022519	-0.38329
C	 0.6544178197	-0.1730713342	-2.4020352865	 0.087759
O	-0.3613103853	-0.0461555387	-3.0286231519	-0.230637
H	-0.9752630848	 1.4252685816	-1.2852147266	 0.140163
H	-2.1497327377	 0.2048611433	-0.7522431242	 0.149593
H	-1.578407139	 1.4222523403	 0.3959409294	 0.166387
H	 1.5992829173	-1.3849014574	 1.1692016749	 0.285853
H	 0.8225451264	-1.5522682224	 2.7103772732	 0.250567
H	-1.2338662519	-0.5270769226	 2.9579307586	 0.211171
H	 1.6570055453	-0.2308105113	-2.8708773089	 0.123141
50.2316	75.1911	86.9231	111.5554	242.7729	251.9375	316.5286	418.8143	425.4236	445.1022	497.5701	543.1903	586.9878	604.5718	702.5499	726.5487	735.341	802.0793	947.1652	1014.7113	1114.1548	1118.3357	1151.3389	1165.212	1209.8761	1382.4917	1404.5819	1421.0171	1467.8548	1475.8523	1514.8707	1611.0122	1713.9537	1734.0644	1830.4716	2948.4956	3084.5495	3167.0374	3203.8324	3504.0009	3510.8338	3688.3653
CN(C(N)=N)C(=O)C=O	CN(C(=N)N)C(=O)C=O	
InChI=1S/C4H7N3O2/c1-7(4(5)6)3(9)2-8/h2H,1H3,(H3,5,6)	InChI=1S/C4H7N3O2/c1-7(4(5)6)3(9)2-8/h2H,1H3,(H3,5,6)
