20
gdb 49738	2.3835	1.49668	1.3737	3.6928	78.97	-0.2455	0.0113	0.2568	1070.8495	0.173566	-403.165204	-403.157236	-403.156291	-403.197741	30.82	
O	 0.233643334	 0.171713598	-0.6208741095	-0.31389
C	 0.2178621494	 1.327510601	-0.2582903796	 0.144438
N	 1.2423125254	 1.9702997407	 0.3850581142	-0.056393
C	 2.6692289073	 1.9385988322	 0.1477782027	-0.037156
C	 3.2189401205	 1.3528420415	-1.1508688216	-0.232237
C	 3.2275441707	 2.3565973487	-2.3163478683	-0.188496
C	 1.9083721138	 3.1313786784	-2.4198050256	-0.217345
C	 1.6788365177	 3.9913116576	-1.1657229737	-0.220709
C	 1.8855872975	 3.2401464002	 0.1376834681	-0.035871
H	-0.6786681566	 1.9730971625	-0.3456521574	 0.079274
H	 3.2459780533	 1.7197004198	 1.0444004937	 0.10208
H	 4.2362239023	 0.9945355132	-0.9659601351	 0.100756
H	 2.6190132844	 0.4752214358	-1.4114263707	 0.147355
H	 4.047652429	 3.074207469	-2.1778334573	 0.094239
H	 3.4322913086	 1.825268345	-3.2515708426	 0.101098
H	 1.9163861781	 3.7841609748	-3.2988329075	 0.099937
H	 1.0785768898	 2.4294949247	-2.5661094909	 0.119372
H	 2.3914098244	 4.8266959361	-1.1687973804	 0.109046
H	 0.6803895013	 4.4448977607	-1.1803823058	 0.107569
H	 1.959547229	 3.8759368602	 1.0193964072	 0.096933
94.9206	135.7729	171.4598	252.7382	293.2941	374.5534	398.4079	439.855	544.5481	588.1646	678.5678	756.4139	796.3478	833.5787	849.4639	877.8391	948.9035	982.0215	1003.5961	1031.6088	1044.4721	1064.7961	1090.897	1107.2689	1153.3924	1182.1601	1188.876	1220.4859	1284.9452	1298.8224	1350.0639	1363.4025	1373.172	1384.8647	1389.4189	1399.3641	1425.9366	1466.1123	1485.9268	1489.8806	1493.0245	1505.5756	1778.4794	2932.4578	3015.2191	3021.2805	3036.3858	3052.2409	3056.45	3072.086	3079.1192	3095.1033	3108.5007	3124.3313
O=CN1C2CCCCC12	O=CN1[C@H]2CCCC[C@@H]12	
InChI=1S/C7H11NO/c9-5-8-6-3-1-2-4-7(6)8/h5-7H,1-4H2	InChI=1S/C7H11NO/c9-5-8-6-3-1-2-4-7(6)8/h5-7H,1-4H2/t6-,7+,8?
