19
gdb 108328	3.22339	1.20626	1.03773	1.6419	70.56	-0.2515	0.0479	0.2994	1181.6587	0.159168	-460.11593	-460.107372	-460.106428	-460.14941	32.511	
O	-0.036163564	 1.4915900301	 0.2940926154	-0.414994
C	 0.0588876594	 0.0769267735	 0.1829344659	-0.188711
C	-1.2833187293	-0.5533041077	-0.1000635673	 0.299004
C	-2.3585496392	-0.5037387346	 1.0000011227	-0.117731
O	-2.6712896997	-1.9152731226	 0.825075487	-0.307528
C	-1.590538805	-2.0832218388	-0.1203156614	-0.000969
C	-2.1397630608	-1.9780918648	-1.5675431394	 0.157299
O	-3.4454919711	-2.4438931413	-1.7331878168	-0.43599
C	-1.8925649569	-0.4269785425	-1.5299815797	-0.359043
H	-0.3206991206	 1.8349153918	-0.5595390108	 0.287649
H	 0.789478179	-0.2181207293	-0.587485806	 0.089903
H	 0.4457966336	-0.2687217695	 1.1481823445	 0.113374
H	-1.9669994437	-0.314647603	 2.0067808847	 0.112933
H	-3.2283838113	 0.1382574625	 0.8228017659	 0.108403
H	-0.9116281888	-2.8934330226	 0.1587063698	 0.074922
H	-1.5050446949	-2.4780625521	-2.3055013487	 0.088229
H	-3.862829877	-2.341447863	-0.8643596154	 0.288442
H	-2.8022634178	 0.1746728236	-1.6035337433	 0.106233
H	-1.1818752121	-0.0843585999	-2.288792617	 0.098571
73.3475	91.5359	154.4665	266.1293	291.0631	323.9532	358.8941	378.2778	420.3619	529.3216	591.6811	671.4731	686.2021	805.8166	859.5863	912.006	932.9175	948.0281	958.1788	990.9712	1014.645	1044.7374	1062.9285	1096.482	1138.6779	1148.1107	1155.7806	1197.4993	1222.7543	1257.9501	1280.1319	1287.5588	1311.8819	1334.6764	1374.7152	1380.831	1419.7357	1444.919	1472.06	1501.4136	1523.5688	2975.3224	3022.3811	3045.8024	3060.7244	3063.969	3074.5342	3078.4372	3107.5575	3712.7296	3809.9746
OCC12COC1C(O)C2	OC[C@]12CO[C@H]1[C@@H](O)C2	
InChI=1S/C6H10O3/c7-2-6-1-4(8)5(6)9-3-6/h4-5,7-8H,1-3H2	InChI=1S/C6H10O3/c7-2-6-1-4(8)5(6)9-3-6/h4-5,7-8H,1-3H2/t4-,5-,6+/m0/s1
