18
gdb 93117	2.05697	1.78355	1.28298	2.1504	77.53	-0.2465	0.0217	0.2682	1062.5041	0.14762	-401.932372	-401.923831	-401.922887	-401.965371	32.335	
C	 0.0029647281	 1.536059538	-0.0842237148	-0.414673
C	 0.0327797065	 0.0241503264	 0.0355945644	 0.142216
O	 0.5917187564	-0.4884850583	-1.1870913784	-0.234647
C	 0.9974832975	-1.7813130572	-1.1650656273	 0.135668
N	 1.0925350025	-2.5752148682	-0.1869293854	-0.261767
C	 0.7905323472	-2.0717647293	 1.1446853691	-0.167133
C	 0.8194153185	-0.5256536593	 1.2466773305	-0.232416
C	 2.1838146853	-0.0103435911	 1.3058581629	 0.359351
C	 3.31246794	 0.4000106054	 1.3580419954	-0.480589
H	 1.0184850304	 1.934328714	-0.144156189	 0.145221
H	-0.5461398471	 1.830702089	-0.9821989673	 0.129074
H	-0.4946116224	 1.9731113268	 0.7869562178	 0.118926
H	-0.9920146529	-0.3648371961	 0.1146758722	 0.089987
H	 1.2647655017	-2.1011284692	-2.1705136144	 0.124872
H	-0.1999361877	-2.4356455993	 1.4471576969	 0.111785
H	 1.5107107577	-2.5035279334	 1.8460274621	 0.123901
H	 0.2865805717	-0.2180932421	 2.1554525527	 0.109924
H	 4.3101208566	 0.7605905538	 1.4071515325	 0.200299
99.6355	128.4895	149.2353	227.905	251.1304	302.9356	381.4897	441.8274	449.6122	502.968	625.4669	635.2363	641.403	683.6489	766.6878	840.0435	885.8496	913.6866	953.7688	971.7091	1014.1925	1043.0992	1068.5543	1148.1364	1168.3985	1170.6781	1243.6155	1257.6968	1323.1103	1363.9821	1378.2018	1392.6865	1408.3666	1416.1313	1483.3099	1486.2747	1496.4761	1738.3063	2234.4354	3006.8765	3019.8931	3033.4252	3049.0304	3077.6979	3121.8148	3136.8622	3160.1895	3503.4571
CC1OC=NCC1C#C	C[C@H]1OC=NC[C@H]1C#C	
InChI=1S/C7H9NO/c1-3-7-4-8-5-9-6(7)2/h1,5-7H,4H2,2H3	InChI=1S/C7H9NO/c1-3-7-4-8-5-9-6(7)2/h1,5-7H,4H2,2H3/t6-,7-/m1/s1
