20
gdb 86796	4.78138	0.82339	0.7486	4.246	85.64	-0.2524	0.0103	0.2627	1531.4582	0.171553	-366.049739	-366.040758	-366.039813	-366.084073	33.384	
C	 0.0073135929	 1.6251778415	 0.0051742543	-0.397647
C	 0.0330317186	 0.0929257786	 0.0295581559	-0.013826
C	 0.7829091581	-0.5457444555	-1.1701862591	-0.250395
C	 1.4863750025	-1.8095662821	-0.612470709	-0.028645
C	 2.8638755235	-2.0601850128	-1.2690197002	-0.352601
C	 3.5196189804	-3.2658453873	-0.7665771405	 0.263485
N	 4.0194425434	-4.2226400825	-0.3534503613	-0.313098
C	 1.5420966121	-1.5281684991	 0.8735588917	-0.084548
C	 0.7589211792	-0.5076558344	 1.2146313834	-0.068528
H	 1.0240408552	 2.0333433447	 0.0137861552	 0.116232
H	-0.4983026568	 1.9960605455	-0.8925616074	 0.115951
H	-0.5228818252	 2.0264004236	 0.8752157975	 0.116147
H	-1.0098888818	-0.2597541493	 0.0412663345	 0.084263
H	 0.1271162123	-0.7653703338	-2.0169703301	 0.102865
H	 1.5441928621	 0.1609141719	-1.5250602955	 0.09911
H	 0.8739675042	-2.7041188032	-0.7945771072	 0.100014
H	 2.7504704004	-2.1546411169	-2.355219983	 0.150039
H	 3.5226321718	-1.20263289	-1.088776383	 0.149729
H	 2.1264139988	-2.1371126418	 1.5546622004	 0.115282
H	 0.6067015983	-0.1475756069	 2.2270339433	 0.096172
50.3798	77.7472	142.2942	216.6525	242.3745	269.8067	361.1496	380.5908	398.8044	484.9054	556.64	626.0307	737.7258	774.6287	844.6548	849.4345	884.4192	919.1871	955.3811	970.1976	982.8944	1044.0237	1053.8266	1076.9299	1119.8389	1140.4898	1157.8041	1205.7291	1213.1656	1274.9994	1304.7533	1317.9148	1331.5228	1346.1396	1360.143	1390.6275	1410.8977	1465.5479	1487.0277	1497.785	1499.4648	1685.8234	2359.4892	2980.4351	3001.0944	3026.0016	3029.4905	3039.7237	3080.0229	3092.3127	3099.3313	3100.3319	3179.0909	3205.4943
CC1CC(CC#N)C=C1	C[C@H]1C[C@@H](CC#N)C=C1	
InChI=1S/C8H11N/c1-7-2-3-8(6-7)4-5-9/h2-3,7-8H,4,6H2,1H3	InChI=1S/C8H11N/c1-7-2-3-8(6-7)4-5-9/h2-3,7-8H,4,6H2,1H3/t7-,8-/m1/s1
