17
gdb 74956	3.18635	1.64443	1.44619	0.2967	68.25	-0.2252	0.0485	0.2736	942.7247	0.139969	-455.177786	-455.170934	-455.16999	-455.208782	28.021	
N	 0.0667881352	 1.3666957964	-0.158242813	-0.563499
C	-0.0436749687	 0.0022028934	-0.0336494092	 0.45672
N	-1.1717629639	-0.5938863564	 0.018361047	-0.350885
C	-1.1140404856	-2.0561728055	 0.0305562588	-0.014572
C	-0.650590531	-2.5603741913	 1.404286987	-0.074987
O	 0.7911596393	-2.4044355251	 1.3698388984	-0.260929
C	 1.1580894743	-2.0152056289	 0.0799714222	 0.216131
C	 0.0601825017	-2.5460639794	-0.8351201899	-0.277145
O	 1.1947394157	-0.5726154001	-0.0298067513	-0.272538
H	 0.9086017498	 1.7666611947	 0.2267857427	 0.258402
H	-0.783485297	 1.8601044731	 0.0654102216	 0.261832
H	-2.0857073819	-2.4616874716	-0.2574571033	 0.079153
H	-1.0525627722	-1.9628781816	 2.2258205803	 0.117726
H	-0.891556082	-3.6189508895	 1.5676085261	 0.097752
H	 2.1826047758	-2.3317103534	-0.1127136011	 0.096612
H	 0.109484634	-3.6365732479	-0.8991433049	 0.109653
H	 0.0791720564	-2.111847147	-1.8354183113	 0.120573
143.1664	192.6864	356.8448	405.817	410.98	433.2123	485.5172	533.3437	572.0045	635.9056	755.7467	780.9708	832.3167	862.1816	877.2676	919.3494	922.1915	931.4048	975.6469	1009.0736	1053.2875	1087.1665	1120.1757	1153.2451	1194.681	1240.629	1245.8769	1301.3077	1316.9942	1335.3663	1369.8401	1387.1907	1415.4296	1482.827	1512.8908	1613.6489	1731.5743	3019.6428	3068.6874	3094.2477	3103.3192	3131.5134	3136.3202	3585.5207	3702.1691
NC1=NC2COC(C2)O1	NC1=N[C@@H]2CO[C@@H](C2)O1	
InChI=1S/C5H8N2O2/c6-5-7-3-1-4(9-5)8-2-3/h3-4H,1-2H2,(H2,6,7)	InChI=1S/C5H8N2O2/c6-5-7-3-1-4(9-5)8-2-3/h3-4H,1-2H2,(H2,6,7)/t3-,4+/m0/s1
