16
gdb 16035	3.5249	1.72581	1.40567	1.0038	72.54	-0.233	0.0311	0.2641	920.4949	0.129013	-346.527697	-346.52	-346.519055	-346.559369	29.226	
C	 0.0006502293	 1.5563778585	 0.0151437282	-0.424541
C	 0.0726458363	 0.0473553614	 0.0607329748	-0.080497
C	 1.3247472372	-0.7295156478	-0.1756770885	 0.038491
O	 2.4757332765	-0.0317459765	 0.2900584279	-0.279294
C	 1.9924179142	-0.0914056854	 1.6566481695	-0.139156
C	 0.6818423638	-0.7553931864	 1.2189918586	 0.089374
C	-0.0121944843	-1.7680098292	 1.9301613539	 0.177249
C	-0.5994718458	-2.618318356	 2.548354192	-0.405768
H	 0.9741487233	 2.0027469919	 0.229685048	 0.13888
H	-0.3007767273	 1.8895365665	-0.9834088866	 0.123442
H	-0.7293733111	 1.9428978632	 0.7332928112	 0.123648
H	-0.804485336	-0.4705197392	-0.3214012672	 0.103567
H	 1.4694956901	-1.5100659712	-0.914306692	 0.115812
H	 2.620053909	-0.7580557939	 2.2557939181	 0.122376
H	 1.9315265551	 0.8959793561	 2.127246593	 0.110522
H	-1.1176791403	-3.370432452	 3.089571419	 0.185894
134.7747	159.4217	173.5274	252.6172	259.068	389.7791	487.3148	505.8178	555.9501	565.8196	622.7487	655.2775	751.8851	774.8534	910.7865	932.0505	982.6428	993.6146	1010.6509	1069.4864	1084.6768	1106.2316	1123.5368	1159.2138	1223.1921	1270.6476	1293.3184	1351.0275	1411.2625	1452.2939	1492.5581	1501.265	1517.629	2231.1445	3035.3977	3041.1319	3092.09	3100.3212	3126.2478	3145.3813	3181.0378	3502.66
CC1C2OCC12C#C	C[C@H]1[C@H]2OC[C@@]12C#C	
InChI=1S/C7H8O/c1-3-7-4-8-6(7)5(7)2/h1,5-6H,4H2,2H3	InChI=1S/C7H8O/c1-3-7-4-8-6(7)5(7)2/h1,5-6H,4H2,2H3/t5-,6+,7-/m0/s1
