20
gdb 70347	2.73897	1.79958	1.4908	3.059	77.44	-0.2307	0.0752	0.3059	975.4954	0.173285	-403.116239	-403.10891	-403.107965	-403.147419	30.469	
C	-0.0110269503	 1.4915116319	-0.0351959208	-0.490794
C	-0.0023529409	-0.0167607063	 0.0050694772	 0.324713
N	-0.8014208892	-0.7420362706	 1.0032077678	-0.35608
C	 0.6786317028	-0.7728427353	 1.0930834355	-0.084768
C	 1.3693180256	-2.0820696718	 0.7111869643	-0.220493
C	 1.2691236333	-2.292045122	-0.8045174377	 0.094714
C	 1.6152546816	-1.015810713	-1.6090994098	-0.252026
C	 0.1192889508	-0.7228691204	-1.34878886	 0.036927
O	-0.123318243	-2.1400167845	-1.1997778618	-0.275025
H	 0.8283494092	 1.8799323825	-0.623598258	 0.124282
H	-0.934634463	 1.8659267802	-0.4928604693	 0.125699
H	 0.0641732614	 1.9146933703	 0.9719468225	 0.11517
H	-1.1617300424	-0.0779489013	 1.6860157787	 0.221743
H	 1.132704624	-0.2053794895	 1.9021269212	 0.078446
H	 2.4244514733	-2.0460275008	 1.0090941949	 0.094077
H	 0.9048154813	-2.9269953129	 1.230972511	 0.116724
H	 1.6893508365	-3.2475185928	-1.1299909579	 0.073153
H	 2.3596044045	-0.324570256	-1.2054301022	 0.094638
H	 1.8230810409	-1.2396746942	-2.656214365	 0.108432
H	-0.5004770263	-0.2746204135	-2.1313466406	 0.070467
192.7245	204.5797	237.6325	319.658	350.7387	402.6657	434.4643	504.6358	535.0592	630.3316	697.5713	795.3846	841.2014	856.4012	876.6183	910.9183	929.6355	939.0047	952.6465	985.7108	1011.7501	1033.0334	1064.0348	1077.745	1099.9938	1118.0683	1146.6026	1177.7157	1196.6266	1234.8184	1249.8181	1271.6077	1312.3479	1330.5489	1334.6868	1369.3258	1380.9592	1415.0632	1451.4486	1464.1973	1484.1427	1486.3109	1502.131	3020.5726	3031.1069	3059.4543	3065.7911	3075.1529	3079.0093	3081.9047	3095.4013	3128.7008	3134.3634	3481.1809
CC12NC1CC1CC2O1	C[C@]12N[C@H]1C[C@@H]1C[C@H]2O1	
InChI=1S/C7H11NO/c1-7-5(8-7)2-4-3-6(7)9-4/h4-6,8H,2-3H2,1H3	InChI=1S/C7H11NO/c1-7-5(8-7)2-4-3-6(7)9-4/h4-6,8H,2-3H2,1H3/t4-,5+,6-,7+/m1/s1
