15
gdb 42300	3.39765	1.25408	0.92654	3.0944	76.21	-0.2497	-0.0649	0.1849	1178.5668	0.114415	-413.005142	-412.99697	-412.996026	-413.039303	28.49	
N	-0.1464860008	 1.3501441902	 0.0130108689	-0.502582
C	 0.0364960049	 0.08600374	 0.0020324708	 0.282578
C	-1.1563379769	-0.7484829897	 0.0074211016	 0.298772
N	-2.0898821669	-1.4292913583	 0.0112123161	-0.324428
N	 1.209663678	-0.6452314551	-0.0144952244	-0.141086
C	 1.314354317	-2.1192926479	-0.0256627412	-0.203022
C	 2.8585012712	-2.3147448553	-0.0408208079	-0.179892
N	 3.4605549286	-0.9702177863	-0.0361127873	-0.25226
C	 2.5074878795	-0.1313515831	-0.0218348264	 0.081271
H	 0.7260666207	 1.876733719	 0.008536594	 0.233481
H	 0.8380129064	-2.5445708258	 0.8612101479	 0.146154
H	 0.8221788271	-2.5322729096	-0.9096906192	 0.14615
H	 3.2116797382	-2.8716590392	 0.8321999981	 0.134141
H	 3.1960305514	-2.8584245917	-0.9282619636	 0.134138
H	 2.6560582216	 0.941935853	-0.0153198173	 0.146584
40.7695	76.2759	131.8711	142.6084	282.6061	316.0159	462.625	492.6217	503.5317	660.8549	713.2798	782.0587	830.71	833.7078	888.8282	933.4098	953.5364	963.2821	976.1382	1108.9421	1195.4375	1220.81	1223.9519	1255.4047	1322.6481	1338.9321	1351.3264	1431.0065	1495.8392	1523.3096	1675.534	1702.1965	2361.3184	3054.9395	3064.2412	3084.977	3111.4458	3213.3226	3502.0246
N=C(C#N)N1CCN=C1	[NH][C](C#N)N1CCN=C1	
InChI=1S/C5H6N4/c6-3-5(7)9-2-1-8-4-9/h4,7H,1-2H2	InChI=1S/C5H6N4/c6-3-5(7)9-2-1-8-4-9/h4,7H,1-2H2
