14
gdb 18307	3.84754	2.18645	1.58363	2.0967	62.85	-0.2467	-0.0586	0.1881	775.9543	0.108905	-382.547265	-382.541123	-382.540179	-382.577738	23.259	
O	-0.0384201787	 0.0192146257	 0.2769704709	-0.328625
C	-0.054832755	 1.2029791021	 0.0352415533	 0.377912
C	-1.2541299883	 2.0563196409	-0.1914624441	-0.176314
C	-0.9024370321	 3.3235247301	-0.4427111683	-0.063754
C	 0.5943166168	 3.5091891677	-0.440130671	 0.078356
O	 1.0757490928	 4.1002508414	 0.7978548999	-0.290118
C	 1.6021532823	 2.8300997295	 1.2377264502	-0.082461
C	 1.1581206109	 2.1262786477	-0.0735462807	-0.202805
H	-2.259527572	 1.6598240964	-0.1214194726	 0.124345
H	-1.5837366912	 4.1536316562	-0.5942631556	 0.126333
H	 0.9794106612	 4.0419118998	-1.3154131625	 0.092681
H	 2.686596603	 2.873978057	 1.3821774835	 0.118351
H	 1.126880418	 2.4736045278	 2.158834922	 0.118294
H	 1.9586145724	 1.6958426177	-0.672674465	 0.107804
100.4227	225.4511	246.2311	395.7352	473.2589	594.1549	706.2895	732.6338	772.6651	833.6474	872.2844	895.4332	949.5572	982.5075	999.024	1009.4859	1029.1789	1052.0348	1104.7636	1156.3849	1185.4516	1214.2478	1262.2925	1276.7671	1325.2301	1343.4664	1362.9985	1521.8431	1641.3709	1816.9101	3029.8741	3058.9244	3078.7151	3134.5754	3195.3787	3224.5593
O=C1C=CC2OCC12	O=C1C=C[C@H]2OC[C@@H]12	
InChI=1S/C6H6O2/c7-5-1-2-6-4(5)3-8-6/h1-2,4,6H,3H2	InChI=1S/C6H6O2/c7-5-1-2-6-4(5)3-8-6/h1-2,4,6H,3H2/t4-,6+/m0/s1
