19
gdb 75034	2.11374	1.68138	1.02655	2.3485	85.9	-0.2278	-0.0267	0.2012	1181.9365	0.159298	-385.93298	-385.924523	-385.923579	-385.966227	32.453	
C	 0.4813508829	 1.4041546074	-0.0172873354	-0.478409
C	 0.0860590251	-0.0420157113	-0.143369096	 0.280051
C	-0.0677360266	-0.6404612591	-1.3406694775	-0.168566
C	-0.4035727185	-2.0441538305	-1.5221519373	-0.073834
C	 0.0644563001	-3.0405819826	-0.7514759161	-0.101874
C	 1.0972277591	-2.8631512724	 0.32499118	-0.349885
C	 0.7356885567	-1.9382681173	 1.4958510599	 0.392541
O	 1.1581358711	-2.1179666746	 2.6079075774	-0.294764
C	-0.1964166231	-0.7715998324	 1.1487890981	-0.397158
H	 1.406533564	 1.5100796416	 0.5639974321	 0.132762
H	 0.6398095711	 1.8663462652	-0.9949446865	 0.123428
H	-0.2850911796	 1.9805860502	 0.5162964854	 0.129661
H	 0.0335423855	-0.0347504218	-2.239550035	 0.084509
H	-1.0557556076	-2.2929573741	-2.3571760373	 0.091068
H	-0.2670462654	-4.0571855909	-0.9426173857	 0.098088
H	 1.4290782615	-3.8148420392	 0.7439853184	 0.125797
H	 1.9842319856	-2.3779894847	-0.1144820111	 0.145112
H	-0.2102465184	-0.0947132501	 2.0052942847	 0.119131
H	-1.1882482634	-1.2442741335	 1.0748284119	 0.142342
55.4416	132.8922	193.242	245.0482	308.1488	332.4769	354.3601	439.9965	480.7234	512.2645	532.8549	584.7817	710.0437	754.0601	776.3766	878.6803	888.3597	949.272	955.052	972.7086	989.9449	1009.1147	1063.7957	1073.9109	1136.8664	1165.2135	1202.2962	1239.6977	1257.5342	1302.8767	1310.8443	1366.0098	1413.6034	1427.0526	1445.4526	1451.0757	1478.2172	1491.2236	1658.523	1697.1326	1826.3495	2988.606	2999.1184	3016.0226	3061.8678	3111.4977	3114.572	3115.8546	3134.056	3145.6159	3173.2124
CC1=CC=CCC(=O)C1	CC1=CC=CCC(=O)C1	
InChI=1S/C8H10O/c1-7-4-2-3-5-8(9)6-7/h2-4H,5-6H2,1H3	InChI=1S/C8H10O/c1-7-4-2-3-5-8(9)6-7/h2-4H,5-6H2,1H3
