16
gdb 13013	2.67651	2.51335	1.68783	1.5697	64.81	-0.2336	0.0029	0.2364	804.0996	0.130472	-383.722849	-383.715611	-383.714667	-383.753778	28.63	
O	 0.1467118544	 1.3881561179	-0.2542348761	-0.436326
C	 0.0526630268	-0.0139634785	-0.0300065935	 0.013493
C	 0.6636493498	-0.5039343084	 1.2708045382	-0.139178
C	-0.1736632765	-1.2944847841	 1.9465874489	-0.070074
C	-1.4970093626	-1.4106474641	 1.2587421001	-0.130262
C	-2.2662828243	-0.0930362278	 1.1612390297	-0.348452
C	-1.3794912033	-0.5591667342	 0.0285699583	 0.394037
O	-1.970361427	-0.9741197664	-1.1622293045	-0.475266
H	-0.2800273512	 1.8262199513	 0.4909478399	 0.276061
H	 0.5572860465	-0.4600257576	-0.8967398748	 0.102402
H	 1.6639041828	-0.2178041625	 1.5742298601	 0.103056
H	 0.0362258084	-1.7722073569	 2.8973250333	 0.10281
H	-2.0554756108	-2.3389965039	 1.2567304863	 0.103047
H	-3.330799229	-0.1656838	 0.9650205582	 0.118156
H	-1.9657602954	 0.7226151088	 1.8125034682	 0.099468
H	-2.1343010385	-0.1856309637	-1.6926992424	 0.287029
140.2649	222.6534	295.8313	297.1373	326.6425	348.699	449.8811	483.035	579.9152	613.9173	710.2123	750.8396	799.147	862.439	908.4029	939.3785	970.1873	975.0817	1003.9835	1034.1053	1054.6081	1064.263	1080.5232	1148.7809	1203.9895	1242.3425	1263.6295	1301.0881	1322.5778	1370.5637	1406.5066	1427.2179	1476.1345	1665.3836	3032.9286	3115.8397	3182.7586	3190.9265	3212.6696	3214.5433	3786.5633	3795.0863
OC1C=CC2CC12O	O[C@H]1C=C[C@H]2C[C@@]12O	
InChI=1S/C6H8O2/c7-5-2-1-4-3-6(4,5)8/h1-2,4-5,7-8H,3H2	InChI=1S/C6H8O2/c7-5-2-1-4-3-6(4,5)8/h1-2,4-5,7-8H,3H2/t4-,5-,6-/m0/s1
