19
gdb 103135	2.28086	1.47932	1.10409	2.2274	71.85	-0.2331	-0.0349	0.1982	1160.8573	0.157071	-460.167709	-460.15818	-460.157235	-460.202088	35.372	
C	-0.515670581	 1.3767319296	 0.0437454769	-0.403365
C	 0.1192005131	 0.0018804537	-0.1029172786	-0.04499
C	 1.4916780877	-0.0928830191	-0.8561978345	-0.367051
C	 1.9978331937	-0.9702864261	 0.2888548313	 0.362185
O	 2.9119670793	-1.7367434168	 0.4420596584	-0.322102
C	 0.7663081951	-0.6375367828	 1.1712672852	 0.28604
O	 1.058381754	 0.3362981813	 2.1525704143	-0.475089
C	 0.1487474696	-1.8712003903	 1.8175259101	-0.137766
O	 1.0403434509	-2.3475298859	 2.819576306	-0.432885
H	 0.1784195151	 2.0782439563	 0.5125231992	 0.1373
H	-0.8035806532	 1.7722625662	-0.9356445238	 0.114729
H	-1.4138111998	 1.3329170116	 0.6674533809	 0.122368
H	-0.596313577	-0.7039353365	-0.5387921032	 0.081378
H	 1.5187170208	-0.5293745601	-1.8574795181	 0.128855
H	 2.0173972015	 0.8687919967	-0.8778665697	 0.141506
H	 1.3796648113	-0.1658189897	 2.9157828887	 0.290981
H	-0.7857164296	-1.6086133763	 2.3253741673	 0.119109
H	-0.0703979543	-2.6418396582	 1.0642731199	 0.096878
H	 1.8551486527	-2.6029945238	 2.3639557796	 0.30192
55.8865	114.0279	154.6308	199.0962	215.3531	262.3764	268.1854	326.2462	421.2153	442.2104	471.6142	515.3387	578.4955	598.7943	669.3455	724.6869	823.3307	873.4214	907.3504	978.5764	1003.7366	1044.5972	1058.5574	1064.672	1114.4131	1135.9167	1167.4129	1202.3083	1219.9734	1261.3731	1281.3473	1345.3388	1366.9046	1407.8531	1412.213	1432.6779	1439.0636	1491.5974	1494.2026	1497.9842	1862.9272	3000.2792	3040.5986	3046.3051	3050.1309	3074.9653	3105.3217	3113.7603	3128.6399	3734.0679	3747.0393
CC1CC(=O)C1(O)CO	C[C@H]1CC(=O)[C@]1(O)CO	
InChI=1S/C6H10O3/c1-4-2-5(8)6(4,9)3-7/h4,7,9H,2-3H2,1H3	InChI=1S/C6H10O3/c1-4-2-5(8)6(4,9)3-7/h4,7,9H,2-3H2,1H3/t4-,6-/m0/s1
