19
gdb 97816	4.94826	0.69704	0.66377	1.6389	85.88	-0.2361	0.0488	0.2849	1756.4607	0.158055	-385.825251	-385.816089	-385.815145	-385.861169	33.001	
C	-0.1645470892	 1.5688672998	 0.0400564305	-0.363583
C	 0.0164766463	 0.0398700747	 0.0382356509	-0.31362
C	 0.7198306605	-0.453674068	-1.1411142536	 0.077243
C	 1.3027439746	-0.84280465	-2.121561345	 0.079599
C	 2.0062241603	-1.3258245021	-3.2924975632	-0.207737
C	 3.5909315945	-1.3872983515	-3.279353145	-0.263895
C	 3.4857125176	-2.8853367612	-3.5844987561	 0.032864
O	 2.7459036582	-3.4795414614	-2.511130234	-0.234107
C	 2.0160437675	-2.8520417879	-3.5610569112	 0.026674
H	 0.8044755125	 2.0747763223	 0.0139465644	 0.126675
H	-0.7371136397	 1.8935108695	-0.8331163615	 0.12596
H	-0.6969120455	 1.8897239617	 0.9405498176	 0.112859
H	 0.5611934494	-0.2655558496	 0.9409431878	 0.129482
H	-0.966548932	-0.4444436514	 0.1041183609	 0.127643
H	 1.6737955152	-0.7947392219	-4.1911014038	 0.102452
H	 4.0314038465	-0.7948827936	-4.0839158853	 0.108713
H	 4.0687072558	-1.1453041313	-2.3288226162	 0.120831
H	 4.1694688468	-3.5248967915	-4.1296959519	 0.106728
H	 1.2689612909	-3.4437640667	-4.0774888454	 0.105218
17.609	72.0587	99.5092	146.4435	214.3644	272.7201	327.9049	412.4559	459.0607	524.3244	554.0238	714.5806	760.3657	785.2161	838.6791	849.2284	889.1712	906.7268	939.4994	987.6933	1004.4409	1024.0328	1060.7257	1081.0836	1103.5284	1134.7476	1187.577	1194.757	1233.4565	1238.8088	1267.7982	1285.4463	1338.0158	1355.2682	1391.5668	1408.2857	1471.7289	1475.524	1494.4737	1505.7778	2362.8338	3018.2378	3043.2001	3044.7657	3047.0482	3077.5932	3116.2022	3122.1332	3140.2306	3180.2079	3197.0792
CCC#CC1CC2OC12	CCC#C[C@H]1C[C@H]2O[C@@H]12	
InChI=1S/C8H10O/c1-2-3-4-6-5-7-8(6)9-7/h6-8H,2,5H2,1H3	InChI=1S/C8H10O/c1-2-3-4-6-5-7-8(6)9-7/h6-8H,2,5H2,1H3/t6-,7+,8-/m0/s1
