16
gdb 27550	4.31259	1.11816	0.95448	2.147	72.86	-0.2027	0.0315	0.2342	1211.5306	0.125968	-434.066804	-434.059033	-434.058088	-434.099458	29.543	
N	 0.1276026652	 1.3323274346	 0.2493299319	-0.589396
C	-0.0038304854	-0.0254249436	 0.1063833669	 0.466574
N	-1.0544655171	-0.7530495422	 0.326367458	-0.392174
C	-0.6012506138	-2.0600930481	 0.1054229588	 0.311294
C	 0.7022707563	-2.0333603444	-0.2431653423	-0.148169
O	 1.1062920732	-0.7049402638	-0.2452310711	-0.185506
N	-1.4034718617	-3.2051328903	 0.2315039226	-0.200971
C	-2.4261628353	-3.1770633303	 1.2921488799	-0.22283
C	-2.82387861	-3.057190619	-0.1304804167	-0.222897
H	 0.8375803061	 1.7525975572	-0.3321922521	 0.265182
H	-0.7547984807	 1.8209352687	 0.2310853727	 0.27043
H	 1.4398868369	-2.7691249237	-0.5037458544	 0.143944
H	-2.5519945983	-4.1160210261	 1.8229639159	 0.116574
H	-2.4844124027	-2.2775776839	 1.8974194603	 0.136836
H	-3.1473152337	-2.0781447305	-0.4705292021	 0.134976
H	-3.245822339	-3.9070615747	-0.6586918181	 0.116133
59.8781	158.4784	175.7545	287.8159	307.0733	383.9949	451.2672	486.756	576.7301	603.1831	668.4318	731.6767	751.0258	774.0862	825.1554	848.9837	909.0917	969.6669	1010.2909	1043.234	1102.3727	1112.7595	1130.6215	1133.9114	1170.186	1184.6711	1215.3953	1249.9528	1351.368	1443.0615	1479.1762	1506.8082	1605.7457	1655.0145	1689.8531	3115.8134	3118.5868	3204.1235	3218.1373	3316.369	3578.5128	3688.3645
NC1=NC(=CO1)N1CC1	Nc1nc(co1)N1CC1	
InChI=1S/C5H7N3O/c6-5-7-4(3-9-5)8-1-2-8/h3H,1-2H2,(H2,6,7)	InChI=1S/C5H7N3O/c6-5-7-4(3-9-5)8-1-2-8/h3H,1-2H2,(H2,6,7)
