18
gdb 93207	2.81619	1.35795	0.95319	2.7833	77.66	-0.2502	-0.0314	0.2189	1214.3882	0.147756	-439.106306	-439.097509	-439.096565	-439.139721	32.824	
C	 0.0479361618	 1.5220276232	-0.0739753581	-0.470045
C	-0.0005263724	 0.0208585097	-0.0467514846	 0.254683
C	-1.13443886	-0.6849404475	 0.0376678198	-0.208681
C	-1.1472879386	-2.1900779801	 0.0573852336	 0.046598
O	-2.2393422902	-2.7414424984	-0.6673525006	-0.425282
C	 0.1106961902	-2.692073115	-0.6407858685	-0.091071
O	 1.2835752923	-2.056090313	-0.1329225288	-0.261071
C	 1.2982987398	-0.6908999112	-0.0633599745	 0.33473
N	 2.3922494129	-0.053139366	 0.0447959448	-0.518923
H	 0.6264725415	 1.9062590852	 0.7709316673	 0.148594
H	 0.5538861189	 1.8772412176	-0.9770322003	 0.141902
H	-0.9597772252	 1.9440597119	-0.0421703878	 0.110488
H	-2.0950466759	-0.1776179196	 0.1000141288	 0.092099
H	-1.156087412	-2.5518924858	 1.0994993404	 0.089618
H	-3.050242898	-2.5460885896	-0.1878786999	 0.290099
H	 0.2563486042	-3.7622405238	-0.4848957472	 0.123656
H	 0.0068807559	-2.5024962772	-1.716867412	 0.120918
H	 3.1773589347	-0.7073517905	 0.0297231877	 0.221687
79.833	150.175	188.3697	207.8319	210.0248	288.7811	342.4468	361.9731	428.4107	443.8105	537.5956	575.1799	634.4062	749.9067	777.531	859.3523	912.7052	934.437	980.9859	1032.4703	1049.1338	1072.5555	1076.7516	1115.5886	1146.5063	1187.8383	1225.7853	1270.8486	1292.276	1350.6642	1374.9089	1415.5753	1419.354	1441.6576	1468.8521	1485.3412	1507.3047	1700.8103	1728.5827	2955.7062	3032.3541	3044.9863	3107.0793	3121.1348	3125.3973	3149.402	3468.1413	3826.8419
CC1=CC(O)COC1=N	CC1=C(OC[C@@H]([CH]1)O)[NH]	
InChI=1S/C6H9NO2/c1-4-2-5(8)3-9-6(4)7/h2,5,7-8H,3H2,1H3	InChI=1S/C6H9NO2/c1-4-2-5(8)3-9-6(4)7/h2,5,7-8H,3H2,1H3/t5-/m1/s1
