22
gdb 22074	2.10259	1.36737	1.05413	0.649	85.99	-0.2403	0.0096	0.2499	1282.8441	0.191317	-404.312414	-404.301971	-404.301027	-404.347719	38.97	
C	 0.3151784243	 1.7080085399	-0.1094350809	-0.400001
C	 0.0486331991	 0.2104715566	 0.0284151189	-0.074875
C	 0.4624982806	-0.7194308996	-1.1604531797	-0.28917
C	 1.2976458078	-1.6275140564	-0.1861366669	 0.235969
C	 0.6495030571	-2.9911523076	 0.083171758	-0.430702
C	 2.7799177551	-1.7776577456	-0.5322352002	-0.435671
C	 0.9877192347	-0.6039889556	 0.9026589049	 0.385334
N	 1.4473608963	-0.540678793	 2.0804543638	-0.2563
O	 0.9143730475	 0.56155978	 2.7851258675	-0.395671
H	 1.3554323652	 1.8968253474	-0.3948649888	 0.113188
H	-0.3295243942	 2.1407005873	-0.8820706935	 0.112097
H	 0.1272669721	 2.2248776254	 0.8341949106	 0.138845
H	-0.9940513374	 0.0519616149	 0.3294664742	 0.094713
H	-0.3566146587	-1.2214994253	-1.6800341157	 0.097727
H	 1.0835371864	-0.2048195443	-1.8986967113	 0.09999
H	 0.7289209998	-3.6338256697	-0.8011530522	 0.111663
H	 1.1425065146	-3.4953298469	 0.9202330992	 0.126111
H	-0.4117126519	-2.8890417541	 0.3319990433	 0.112879
H	 3.2459769606	-0.8055200016	-0.7199254464	 0.11244
H	 3.3231106596	-2.2550229435	 0.2893977837	 0.126901
H	 2.9054496301	-2.3942970841	-1.4296567363	 0.110444
H	 1.3605254513	 0.4903404857	 3.6354952877	 0.304091
34.7685	130.2221	166.5046	211.4957	222.6065	232.2239	253.6492	280.3941	319.2198	328.7401	369.8871	389.6509	430.3088	545.2022	589.0252	654.5844	757.9542	803.8606	882.5186	889.0036	946.8339	953.7749	965.79	984.3457	1022.7923	1040.4791	1101.9895	1137.9224	1179.225	1205.3072	1226.8214	1247.1272	1261.9475	1299.4433	1334.3463	1395.6245	1396.3628	1404.9023	1418.0843	1479.875	1482.5649	1485.4384	1490.7317	1499.6169	1500.422	1507.1152	1773.8987	3025.089	3028.993	3031.0299	3034.2468	3058.7241	3094.1837	3097.7166	3098.4527	3103.995	3108.3496	3115.1792	3128.5192	3819.5616
CC1CC(C)(C)C1=NO	C[C@H]1CC(C)(C)C1=NO	
InChI=1S/C7H13NO/c1-5-4-7(2,3)6(5)8-9/h5,9H,4H2,1-3H3	InChI=1S/C7H13NO/c1-5-4-7(2,3)6(5)8-9/h5,9H,4H2,1-3H3/t5-/m0/s1
