18
gdb 70382	2.43645	1.53322	1.33258	3.0394	76.17	-0.2704	0.0144	0.2848	1050.518	0.146453	-401.935517	-401.926715	-401.925771	-401.968479	33.558	
C	-0.0793057627	 1.5478535036	 0.052845706	-0.51108
C	 0.0464610935	 0.0516892359	 0.0280806955	 0.342783
C	-0.8463866125	-0.8714705474	 0.8162057931	-0.333321
C	 0.6359174131	-0.942211629	 1.0399600383	-0.082671
C	 1.2685139991	-1.7708166083	-0.0779704571	-0.299083
C	 0.6671557667	-0.7553916271	-1.1285881264	 0.194809
O	-0.2907485248	-1.2290158528	-2.0494366888	-0.463632
C	 1.7298014063	-0.0180090482	-1.8302942599	 0.235026
N	 2.5670295366	 0.5382776912	-2.4017561834	-0.347212
H	 0.8603305237	 2.0371103874	-0.2230612232	 0.140039
H	-0.8532241014	 1.8881987493	-0.6444576218	 0.134785
H	-0.3593788648	 1.8920013303	 1.0531633926	 0.121519
H	-1.4177011241	-0.3698830975	 1.5907398566	 0.117031
H	-1.3701628242	-1.688107495	 0.3284936687	 0.125208
H	 1.0973366171	-0.7294876794	 1.995702645	 0.095607
H	 2.3594168382	-1.7738370045	-0.078963187	 0.12837
H	 0.8975079517	-2.7941325574	-0.1915935933	 0.108914
H	 0.1613987585	-1.726362141	-2.7407816448	 0.292907
114.5359	134.6117	187.3343	208.4934	249.0598	298.2595	326.976	368.5874	435.568	456.9332	529.4013	551.5232	659.2654	667.8026	784.4024	844.5258	881.0924	886.428	963.7004	979.536	982.1384	1029.2257	1052.1797	1088.9391	1102.835	1117.3838	1163.1864	1212.8622	1236.5279	1269.5665	1281.244	1359.641	1387.1966	1423.5018	1474.4357	1485.0581	1499.1478	1501.2815	2347.1822	3031.2349	3054.3544	3094.8507	3107.6752	3122.9013	3127.0629	3195.9761	3210.3593	3799.4901
CC12CC1CC2(O)C#N	C[C@]12C[C@H]1C[C@]2(O)C#N	
InChI=1S/C7H9NO/c1-6-2-5(6)3-7(6,9)4-8/h5,9H,2-3H2,1H3	InChI=1S/C7H9NO/c1-6-2-5(6)3-7(6,9)4-8/h5,9H,2-3H2,1H3/t5-,6-,7-/m0/s1
