16
gdb 74120	2.41259	1.81456	1.14066	7.1684	73.96	-0.2152	-0.0229	0.1923	1035.8972	0.125865	-437.901407	-437.893772	-437.892828	-437.933543	29.182	
N	 0.0136563998	 1.298539764	-0.2557312157	-0.580903
C	-0.065236934	-0.0372064293	-0.0281045359	 0.386777
C	-1.1810489767	-0.8078726458	 0.0806841426	-0.33129
C	-0.8374578515	-2.2113811164	 0.2726662509	 0.403165
O	-1.5750992975	-3.1624915373	 0.4224648372	-0.36023
C	 0.7044929783	-2.2956413575	 0.2349984832	 0.00586
O	 1.201100129	-2.675120311	-1.0780706553	-0.281017
C	 1.7659033949	-1.3706146189	-1.2930296001	-0.074095
C	 1.1998201811	-0.851528569	 0.0558219405	-0.193475
H	 0.8839774295	 1.7772663577	-0.0964584472	 0.262765
H	-0.817575783	 1.863683871	-0.1989124649	 0.26762
H	-2.2031574911	-0.4544100662	 0.032010227	 0.095835
H	 1.1184599628	-2.9241474215	 1.0284008268	 0.092095
H	 2.8616820725	-1.4058621139	-1.3354300029	 0.104206
H	 1.3807119105	-0.8871544625	-2.1981749478	 0.112812
H	 1.9307960654	-0.4452920834	 0.7589219916	 0.089876
102.3298	157.425	235.9147	252.8579	290.684	340.9872	458.9618	502.5949	581.1011	594.5811	663.2509	723.3851	801.8509	844.6668	863.512	873.4159	929.5882	966.9233	1017.1236	1045.245	1067.2106	1074.2472	1164.0026	1200.4653	1217.2663	1244.8345	1273.1783	1291.9331	1312.3636	1346.6714	1419.4144	1519.7624	1631.4166	1674.5603	1800.6422	3014.6627	3063.3689	3072.4172	3085.1551	3212.6984	3600.7303	3715.1405
NC1=CC(=O)C2OCC12	NC1=CC(=O)[C@H]2OC[C@@H]12	
InChI=1S/C6H7NO2/c7-4-1-5(8)6-3(4)2-9-6/h1,3,6H,2,7H2	InChI=1S/C6H7NO2/c7-4-1-5(8)6-3(4)2-9-6/h1,3,6H,2,7H2/t3-,6-/m0/s1
