21
gdb 73672	2.1771	1.92	1.4579	1.4865	82.3	-0.2403	0.022	0.2623	1025.7964	0.184505	-387.120171	-387.112207	-387.111263	-387.152589	31.886	
C	-0.248837281	 1.516127335	 0.1308494319	-0.446635
C	 0.0259336052	 0.0219127211	 0.004381087	 0.380539
O	-1.2547893283	-0.6376982383	 0.0081141318	-0.291392
C	-1.0897676665	-1.906166128	 0.6198608927	-0.086598
C	-0.1181180431	-1.6506773537	 1.7776802978	-0.228193
C	 0.8593940626	-0.6168714061	 1.1768960874	-0.079342
C	 2.1363316296	-1.2173291024	 0.5267474356	-0.275667
C	 1.9372532068	-1.0085535511	-0.9535827377	-0.075939
C	 0.8208738484	-0.3413622908	-1.2314024681	-0.108336
H	 0.6857021228	 2.0849246226	 0.1183288447	 0.114046
H	-0.87269554	 1.8603887833	-0.6997910009	 0.121474
H	-0.7801788083	 1.7267798803	 1.0640218647	 0.115912
H	-2.0761689016	-2.2577617548	 0.9344562072	 0.103474
H	-0.6715772935	-2.6380689952	-0.089593764	 0.089344
H	-0.6622642272	-1.2134391209	 2.6206095172	 0.103098
H	 0.3799638913	-2.557103531	 2.1323255956	 0.095833
H	 1.1282850299	 0.1364389056	 1.9199196217	 0.072573
H	 3.0449536228	-0.7132952153	 0.8807338019	 0.10662
H	 2.2698208132	-2.2786891364	 0.7730458565	 0.102433
H	 2.6503602751	-1.3683748735	-1.6886028579	 0.093397
H	 0.4668514818	-0.0755322106	-2.2216692352	 0.093358
61.095	188.8252	232.7642	247.2428	279.2897	369.9704	413.7112	488.2907	571.2684	611.1362	631.5894	739.8126	770.4207	802.9964	841.3446	886.5603	916.3334	942.0987	950.5808	956.064	983.0931	997.2659	1052.528	1072.3535	1106.7839	1114.1478	1116.7976	1174.9617	1193.5799	1212.4603	1224.8411	1255.4912	1280.5672	1311.461	1324.8208	1343.9652	1380.639	1387.108	1403.2234	1479.3866	1482.1651	1491.646	1494.0734	1516.046	1690.6267	2977.7081	3017.0574	3036.5304	3039.4009	3050.9276	3083.3407	3088.741	3103.0958	3110.5911	3114.5976	3173.8354	3201.0956
CC12OCCC1CC=C2	C[C@]12OCC[C@H]1CC=C2	
InChI=1S/C8H12O/c1-8-5-2-3-7(8)4-6-9-8/h2,5,7H,3-4,6H2,1H3	InChI=1S/C8H12O/c1-8-5-2-3-7(8)4-6-9-8/h2,5,7H,3-4,6H2,1H3/t7-,8-/m1/s1
