13
gdb 44043	3.48644	1.8168	1.54824	4.5533	62.21	-0.2573	-0.0337	0.2236	834.0775	0.088343	-456.40898	-456.402893	-456.401949	-456.439358	24.382	
O	-0.1474621768	 0.1705939358	-0.5755838214	-0.288232
C	-0.0130065684	 1.239052604	-0.0956024477	 0.410933
O	-1.0071642824	 2.0783878504	 0.432393822	-0.265066
C	-0.0078790917	 3.002233888	 0.9153974353	 0.298508
C	 0.7368592058	 2.9858501333	 2.2524016971	-0.317137
C	 1.8491921955	 3.2117757756	 1.1972260209	-0.142314
C	 0.9030533634	 4.0743531861	 0.2327473154	 0.025805
O	 1.1519721683	 3.2926650491	-0.945567614	-0.316076
C	 1.1045437705	 2.3034267514	 0.1421513783	 0.111042
H	 0.5386563722	 3.798403514	 2.9532212455	 0.121981
H	 0.7751012562	 2.0222951864	 2.7662156708	 0.127406
H	 2.9220202084	 3.3421398114	 1.3386832609	 0.116355
H	 0.8189392192	 5.1589801945	 0.1386045368	 0.116795
135.2299	316.4579	327.4846	378.8824	498.1588	553.7802	628.7587	682.5491	716.242	765.3161	802.1658	859.8523	891.9387	907.2123	910.0832	989.5	1011.4672	1017.2226	1051.6319	1086.3957	1108.2191	1131.3214	1161.1203	1205.3103	1215.8858	1249.8214	1277.5	1512.3195	1950.8619	3071.5977	3099.754	3128.8179	3135.1868
O=C1OC23CC4C2OC134	O=C1O[C@]23C[C@@H]4[C@H]2O[C@]134	
InChI=1S/C6H4O3/c7-4-6-2-1-5(6,9-4)3(2)8-6/h2-3H,1H2	InChI=1S/C6H4O3/c7-4-6-2-1-5(6,9-4)3(2)8-6/h2-3H,1H2/t2-,3-,5-,6-/m1/s1
