21
gdb 111519	3.1837	1.16395	1.05684	1.8361	82.88	-0.257	0.08	0.3369	1255.0792	0.182175	-387.042058	-387.03343	-387.032486	-387.075476	33.443	
C	 0.0687440875	 1.3360422967	-0.3172869659	-0.372569
C	-0.0139436793	-0.0702114008	 0.2877907847	-0.213644
C	-1.3971179388	-0.6782697644	 0.1445720592	 0.003993
C	-1.9533292154	-1.3083987534	-1.1026343608	-0.068884
C	-0.8826976898	-2.1045806206	-1.8678705905	-0.339082
C	-0.6820571125	-2.9465595366	-0.5930156195	 0.466195
C	-0.3610120642	-4.3682632419	-0.4891884175	-0.271319
O	 0.5739383089	-3.3633873346	-0.0709152788	-0.276457
C	-1.7150615458	-2.1545284663	 0.1698116793	-0.188067
H	 1.0657383197	 1.7674650327	-0.1846583623	 0.111618
H	-0.1502259078	 1.3163427648	-1.3902902227	 0.116508
H	-0.6528173328	 2.0140636208	 0.1525302583	 0.110613
H	 0.740609816	-0.7176680629	-0.1680936618	 0.12116
H	 0.2390428188	-0.0291280613	 1.354717507	 0.099091
H	-2.1625334311	-0.1081767481	 0.6716795588	 0.083556
H	-2.9056088723	-1.0113395202	-1.5229076685	 0.087905
H	-1.2919695727	-2.692537727	-2.6933632485	 0.108473
H	-0.0127093492	-1.5474395561	-2.227416414	 0.11017
H	-0.7907740118	-4.9665862952	 0.3143152113	 0.11308
H	-0.0809811871	-4.9278746352	-1.3815882033	 0.111611
H	-2.4361315204	-2.5743442002	 0.8613455157	 0.08605
75.2852	90.4896	188.6679	226.873	249.7506	300.4851	367.6985	390.6369	481.1561	549.9815	614.4516	717.5114	786.584	797.6806	814.8465	861.8822	878.6442	898.4488	930.6187	969.3911	988.3188	1002.5873	1027.4028	1065.4867	1077.4233	1090.4581	1120.6962	1125.6708	1154.1414	1168.5719	1188.606	1215.6588	1244.1042	1289.1948	1300.5821	1319.8748	1357.2341	1409.0448	1438.4969	1451.2606	1478.9186	1496.6943	1498.9752	1510.8369	1537.1301	3029.5155	3033.3218	3055.4372	3071.8635	3079.2301	3098.5209	3103.9398	3105.4745	3112.314	3156.0685	3176.7433	3194.7444
CCC1C2CC3(CO3)C12	CC[C@H]1[C@H]2C[C@]3(CO3)[C@@H]12	
InChI=1S/C8H12O/c1-2-5-6-3-8(4-9-8)7(5)6/h5-7H,2-4H2,1H3	InChI=1S/C8H12O/c1-2-5-6-3-8(4-9-8)7(5)6/h5-7H,2-4H2,1H3/t5-,6+,7-,8-/m0/s1
