19
gdb 71247	2.22658	2.09726	1.68592	2.1292	74.6	-0.2359	0.0709	0.3068	924.8713	0.159415	-422.991401	-422.983821	-422.982877	-423.022716	31.373	
C	-0.101096096	 1.4760780908	 0.0721098351	-0.502846
C	 0.0695521659	-0.0130154715	 0.0324129128	 0.392008
C	 0.9341140941	-0.7805966535	-1.0025490337	-0.280974
C	 0.8127698645	-1.9184751334	 0.0171258086	-0.147174
C	-0.7155956284	-1.9856309518	 0.4338146971	 0.07718
C	-0.3361803389	-1.6553222764	 1.8985751301	-0.314494
C	 0.7682148416	-0.859636196	 1.1894213358	 0.349445
O	 1.8513397687	-0.2320343582	 1.7810155666	-0.48379
O	-1.1836300921	-0.7215017931	-0.0560210365	-0.301579
H	 0.8697299061	 1.9620518078	 0.200268758	 0.131955
H	-0.5534392927	 1.8363604733	-0.857566899	 0.125445
H	-0.749011305	 1.7679461335	 0.9039715769	 0.12582
H	 0.5138783651	-0.8942982432	-2.0047321615	 0.095155
H	 1.9596898496	-0.4054193323	-1.0434288362	 0.106915
H	 1.4039492832	-2.8330164453	 0.0261178667	 0.068328
H	-1.3841043356	-2.7978743851	 0.1574646974	 0.081994
H	-1.0873734787	-1.1432840859	 2.5053503126	 0.102858
H	 0.0774970677	-2.5196434331	 2.4290310484	 0.089087
H	 2.3269757408	-0.8747999267	 2.3176729008	 0.284668
188.5884	211.4564	227.6922	285.2701	339.1594	379.6202	461.4165	469.5673	534.9169	589.1139	638.6836	678.6334	725.6521	810.4606	843.4217	885.9625	908.2806	922.4586	951.6558	963.184	986.5833	1031.0517	1043.3651	1057.5686	1108.6849	1128.3692	1148.7324	1181.3013	1200.4196	1206.4697	1231.7376	1269.1725	1273.7148	1320.3922	1333.1877	1382.638	1418.67	1475.8819	1481.7887	1484.1462	1490.8563	3041.1094	3046.4346	3062.2467	3109.6754	3112.4254	3123.512	3126.8783	3128.7503	3147.0261	3807.2006
CC12CC3C(CC13O)O2	C[C@@]12C[C@@H]3[C@@H](C[C@]13O)O2	
InChI=1S/C7H10O2/c1-6-2-4-5(9-6)3-7(4,6)8/h4-5,8H,2-3H2,1H3	InChI=1S/C7H10O2/c1-6-2-4-5(9-6)3-7(4,6)8/h4-5,8H,2-3H2,1H3/t4-,5-,6-,7-/m1/s1
