16
gdb 48592	3.14833	1.59001	1.33997	3.2024	68.45	-0.2394	-0.0386	0.2007	960.6294	0.124466	-437.815195	-437.808143	-437.807199	-437.847207	27.463	
O	-0.8462375487	 1.1192025059	-0.0664388313	-0.258669
C	 0.3120389664	 0.786092918	-0.0838682892	 0.045348
C	 1.4432108712	 1.7656854898	-0.0354897143	 0.334769
C	 1.9798025172	 2.3882110055	 1.2991827538	-0.260246
C	 3.2257892778	 2.4447016536	 0.3713092566	 0.045362
O	 2.7655417009	 1.2087414302	-0.2419653847	-0.295584
C	 2.7923241011	 3.5241480322	-0.6573599218	-0.059147
N	 2.4936391301	 2.9527496904	-1.9885637786	-0.313016
C	 1.436356284	 3.0174807478	-0.9611220661	-0.114267
H	 0.6281902879	-0.278996181	-0.1200714568	 0.099955
H	 1.5295990894	 3.3192129803	 1.6523057262	 0.109694
H	 2.0786093294	 1.6491315958	 2.0954784823	 0.119601
H	 4.2533934705	 2.4112983789	 0.7296164484	 0.093909
H	 3.0474664871	 4.5690469516	-0.5311217664	 0.102084
H	 2.3441321651	 3.725575433	-2.6360981236	 0.23546
H	 0.5428068204	 3.6149534179	-1.0833757246	 0.114746
51.5644	181.1898	198.9604	372.5656	395.354	474.4258	517.3429	653.2795	675.2573	731.418	795.8362	810.0441	855.2363	875.7939	882.0365	909.7928	930.0048	955.6649	1017.1079	1029.7459	1055.5832	1075.955	1116.6454	1124.9337	1149.1811	1205.8522	1221.4257	1245.1437	1261.9834	1307.4336	1322.5444	1381.5777	1406.4893	1480.4619	1822.427	2904.2183	3069.6239	3136.995	3148.122	3191.0523	3210.829	3482.9458
O=CC12CC(O1)C1NC21	O=C[C@@]12C[C@@H](O1)[C@H]1N[C@@H]21	
InChI=1S/C6H7NO2/c8-2-6-1-3(9-6)4-5(6)7-4/h2-5,7H,1H2	InChI=1S/C6H7NO2/c8-2-6-1-3(9-6)4-5(6)7-4/h2-5,7H,1H2/t3-,4-,5-,6-/m1/s1
