17
gdb 31353	2.81657	1.34719	0.92162	7.2928	77.7	-0.2263	-0.0195	0.2068	1239.7482	0.137398	-418.07751	-418.069164	-418.06822	-418.111269	30.687	
C	 0.1170226618	 1.537662927	 0.0084056782	-0.366801
C	-0.0252884229	 0.0177348643	 0.002524566	-0.295897
C	-1.4602363161	-0.4631992753	 0.0129789335	 0.408434
N	-2.4480654485	 0.3620627011	 0.0227277701	-0.352475
C	-3.7844044534	-0.1112744158	 0.0322172354	 0.369693
O	-4.7193374404	 0.6646858597	 0.0410410215	-0.364328
C	-3.9552788593	-1.5701900063	 0.0296533708	-0.225245
C	-2.8798203754	-2.3777515831	 0.0193592817	 0.011806
N	-1.6182047713	-1.830100712	 0.0110058396	-0.339801
H	 1.1748945594	 1.8149360242	-0.0000608082	 0.107781
H	-0.3701944722	 1.9779094231	-0.8639139752	 0.142874
H	-0.3538561015	 1.9696572252	 0.8937540174	 0.142671
H	 0.4715583857	-0.4101509352	-0.8798372078	 0.120918
H	 0.4873684673	-0.4185280314	 0.8716283226	 0.120716
H	-4.9601727379	-1.9711455363	 0.0363300415	 0.118981
H	-2.9282136319	-3.4603906515	 0.0170209857	 0.135425
H	-0.8062432134	-2.4259291976	 0.0033032472	 0.265248
42.6953	114.8693	163.2754	183.2649	236.3364	404.9983	413.0479	493.3866	522.042	539.7537	584.0632	605.1711	729.9163	762.5783	812.0277	856.2251	904.6168	970.5059	985.2925	1023.8226	1065.2638	1104.6006	1113.7483	1170.8833	1216.9297	1265.5661	1289.6028	1383.5977	1417.5833	1418.7744	1467.8126	1489.033	1498.048	1501.5275	1638.9481	1700.7955	1776.9048	3007.9057	3035.3072	3056.5543	3129.7381	3141.5566	3200.0586	3229.2546	3642.7976
CCC1=NC(=O)C=CN1	CCc1nc(=O)cc[nH]1	
InChI=1S/C6H8N2O/c1-2-5-7-4-3-6(9)8-5/h3-4H,2H2,1H3,(H,7,8,9)	InChI=1S/C6H8N2O/c1-2-5-7-4-3-6(9)8-5/h3-4H,2H2,1H3,(H,7,8,9)
