15
gdb 126103	7.0335	0.66237	0.60993	5.1487	83.62	-0.2533	-0.0574	0.1959	1765.6446	0.111802	-416.767443	-416.758959	-416.758015	-416.802375	29.48	
C	-0.0608020941	 1.5268118845	-0.0753022858	-0.37071
C	 0.0108548503	-0.0086311132	 0.018045255	-0.331507
C	 0.7145321164	-0.4780717035	 1.2028920295	 0.224378
C	 1.3001083554	-0.8534348852	 2.1891454482	-0.060226
C	 1.9808771039	-1.2898222896	 3.3357798935	 0.295547
C	 2.5835490606	-0.6261525712	 4.3693649484	-0.243157
N	 3.091898452	-1.5751393039	 5.2146504507	-0.109178
N	 2.8488511097	-2.7330840999	 4.7821526537	-0.022283
O	 2.1273595849	-2.6066633552	 3.5609901275	-0.214634
H	 0.941158334	 1.9621191783	-0.110623535	 0.135365
H	-0.5978085798	 1.8221096148	-0.9806888158	 0.125833
H	-0.5836157783	 1.9456152827	 0.7883727148	 0.135366
H	-1.0024923216	-0.4302335225	 0.0170639606	 0.145946
H	 0.507188896	-0.4138904748	-0.8730447217	 0.145945
H	 2.6816740906	 0.4289542687	 4.5543349863	 0.143314
26.9295	74.3566	102.5346	187.2407	218.3248	316.2571	418.0608	470.6819	489.0576	569.9694	691.3822	701.7172	729.2224	784.5119	833.7027	885.9539	986.1385	1007.9686	1070.388	1093.0631	1101.4291	1128.2771	1271.3999	1282.6273	1332.6507	1348.8163	1412.8199	1439.0289	1467.8081	1496.1364	1504.7306	1593.3124	2355.372	3024.5384	3050.3977	3053.4364	3126.3514	3129.3761	3299.5715
CCC#CC1=CN=NO1	CCC#Cc1cnno1	
InChI=1S/C6H6N2O/c1-2-3-4-6-5-7-8-9-6/h5H,2H2,1H3	InChI=1S/C6H6N2O/c1-2-3-4-6-5-7-8-9-6/h5H,2H2,1H3
