17
gdb 15959	2.99995	1.93348	1.36353	4.0515	72.68	-0.2852	0.0254	0.3107	928.6327	0.143014	-326.719604	-326.712138	-326.711194	-326.751521	28.19	
N	-0.363236546	-0.8006383386	-0.8974692277	-0.33763
C	-0.2391046465	 0.2529526454	-0.4363430719	 0.278978
C	-0.0450152708	 1.5723905198	 0.1390713636	-0.21383
C	 0.0556864568	 1.6929094574	 1.6972934565	-0.226447
C	 1.2617100357	 2.6590113019	 1.5216667338	-0.302351
C	 1.367146975	 2.2022284315	 0.0615086946	 0.363328
C	 2.561512646	 1.5625706936	-0.5805681765	-0.319267
C	 2.0139014958	 2.8693334534	-1.110993944	-0.327342
H	-0.8058207044	 2.2503453763	-0.2616308746	 0.120935
H	-0.8319001051	 2.07646563	 2.2018623186	 0.116216
H	 0.3448395139	 0.743895098	 2.151153441	 0.130148
H	 0.9725141155	 3.7104347698	 1.6161259887	 0.109599
H	 2.1302141651	 2.4763776293	 2.1583628267	 0.111847
H	 3.4986105792	 1.5828426324	-0.0335474375	 0.116726
H	 2.4032010172	 0.6658025599	-1.1708556178	 0.139456
H	 1.491866202	 2.8523969064	-2.0625708932	 0.121848
H	 2.5790645806	 3.7777702735	-0.9278179304	 0.117788
77.9795	129.2243	196.8943	280.2898	318.5706	368.4884	500.668	543.9838	575.8408	709.2555	771.7404	784.534	866.1973	898.1306	920.0271	942.983	959.0138	986.8026	1050.8539	1063.4224	1084.2192	1090.6304	1117.1911	1189.1939	1198.7546	1231.1375	1239.1459	1266.8156	1277.3928	1341.7783	1374.853	1465.2985	1480.2695	1497.4055	1506.1454	2349.8867	3052.1616	3056.3787	3084.3469	3106.1646	3124.6577	3129.0804	3144.4673	3204.2944	3219.4793
N#CC1CCC11CC1	N#C[C@H]1CCC21CC2	
InChI=1S/C7H9N/c8-5-6-1-2-7(6)3-4-7/h6H,1-4H2	InChI=1S/C7H9N/c8-5-6-1-2-7(6)3-4-7/h6H,1-4H2/t6-/m1/s1
