19
gdb 90458	3.67094	1.18712	1.15448	1.1603	71.18	-0.2333	0.0717	0.305	1154.1881	0.156985	-460.14183	-460.132837	-460.131893	-460.175191	34.1	
C	-0.2381044203	 1.4673643073	-0.0067300344	-0.397176
C	 0.0538352535	-0.0254682881	 0.0025368494	 0.211708
O	 0.8421525446	-0.4221026284	-1.1197365025	-0.265796
C	 2.1833143659	-0.4011335396	-0.6940414284	-0.036214
C	 2.1452013244	-0.3966963234	 0.8072138886	 0.009694
O	 0.7852925998	-0.4193353317	 1.1632534611	-0.267281
C	 2.6865393674	-1.6125147355	 0.0866093954	 0.303982
C	 1.975092273	-2.9392952142	 0.074601338	-0.451762
O	 4.0853705218	-1.6650277534	 0.2003432929	-0.459761
H	 0.6950095062	 2.0379464481	 0.0142822593	 0.125596
H	-0.7936223193	 1.7343392883	-0.910068696	 0.125692
H	-0.8350088925	 1.7371568393	 0.8689032475	 0.126638
H	-0.86940453	-0.6140034368	-0.0194800358	 0.09625
H	 2.8663370386	 0.1972498709	-1.2884571109	 0.103764
H	 2.7984505711	 0.1973263445	 1.4370262744	 0.11213
H	 0.893468687	-2.8110085459	 0.030590008	 0.141311
H	 2.2808568013	-3.5296199378	-0.7975582019	 0.108514
H	 2.2255060886	-3.5060823563	 0.9764108778	 0.128163
H	 4.434232119	-2.0449700672	-0.6145015424	 0.28455
93.1889	131.8222	160.3717	230.8209	243.2868	262.2297	312.3692	382.1051	399.5085	440.2057	476.1948	548.7912	714.4705	752.603	766.2066	845.5138	869.8948	875.6928	899.5957	972.6561	1051.3008	1064.0159	1065.2414	1070.4376	1094.8442	1109.8998	1128.8487	1177.2349	1198.6887	1259.2026	1292.3678	1313.1762	1362.7128	1388.3465	1407.7428	1413.3945	1430.2636	1480.6408	1485.5618	1486.0825	1498.8097	3033.2532	3044.8612	3059.6111	3096.908	3125.7449	3126.0966	3151.5609	3157.4018	3171.7525	3784.831
CC1OC2C(O1)C2(C)O	C[C@H]1O[C@H]2[C@@H](O1)[C@]2(C)O	
InChI=1S/C6H10O3/c1-3-8-4-5(9-3)6(4,2)7/h3-5,7H,1-2H3	InChI=1S/C6H10O3/c1-3-8-4-5(9-3)6(4,2)7/h3-5,7H,1-2H3/t3-,4-,5+,6+
