16
gdb 116877	4.46822	0.56007	0.51422	4.1519	76.25	-0.2706	-0.0133	0.2573	2074.5009	0.12114	-437.833692	-437.823325	-437.822381	-437.871315	34.337	
C	-0.2582190677	 1.4873946117	-0.5353544165	-0.222592
O	-0.3577737552	 0.0808131744	-0.5850242684	-0.227436
C	 0.9066699375	-0.5417275219	-0.5254258741	-0.20132
C	 0.7517796505	-1.9903777598	-0.5659872784	 0.008071
C	 0.645270351	-3.1881080457	-0.5884318024	 0.166868
C	 0.5117440462	-4.6451555119	-0.6491761911	-0.186633
O	 0.4171618303	-5.1571801545	-1.9650519163	-0.381985
C	 1.622816744	-5.2888089151	 0.0973783592	 0.280557
N	 2.4928974083	-5.802863094	 0.6564794187	-0.316889
H	 0.2117132348	 1.8305354063	 0.3996121825	 0.110467
H	 0.3245237216	 1.8857598781	-1.3807356266	 0.109363
H	-1.2746872619	 1.882191326	-0.5876436232	 0.13743
H	 1.5441772729	-0.2169495879	-1.3665260656	 0.122858
H	 1.4409247953	-0.2594329006	 0.3987195946	 0.127627
H	-0.4236378575	-4.9437215386	-0.1598105497	 0.173641
H	 1.1708828398	-4.8251860364	-2.4674117228	 0.299972
21.5386	60.7942	73.8924	117.8326	152.9421	221.6757	231.3668	289.2611	319.9339	358.5787	368.4456	466.8898	534.9188	585.0149	623.9897	814.4436	926.2812	981.6531	1024.539	1046.5514	1140.4917	1173.0707	1182.3197	1220.7349	1253.6419	1263.217	1309.5319	1408.0848	1414.7544	1477.0511	1485.3706	1492.4856	1514.364	2360.2386	2374.7124	2948.5278	2967.4002	2974.2213	3019.9056	3046.1383	3127.5365	3800.0569
COCC#CC(O)C#N	COCC#C[C@@H](O)C#N	
InChI=1S/C6H7NO2/c1-9-4-2-3-6(8)5-7/h6,8H,4H2,1H3	InChI=1S/C6H7NO2/c1-9-4-2-3-6(8)5-7/h6,8H,4H2,1H3/t6-/m1/s1
