18
gdb 116564	3.42263	0.88657	0.78659	3.0114	77.4	-0.2549	-0.0399	0.2149	1501.4755	0.145418	-439.086405	-439.076998	-439.076054	-439.122481	32.567	
C	 1.1050060033	 0.3256602668	-0.3447337882	-0.36106
C	-0.4129334681	 0.3815011448	-0.1702704317	-0.152894
N	-0.978365713	-0.9649357605	-0.2386397947	-0.323283
C	-1.9253178103	-1.2031920084	-1.0120957127	 0.474365
C	-2.7372732157	-2.4348498216	-1.3578763234	-0.409499
C	-3.4682366365	-1.4542092175	-2.3204046517	 0.032427
O	-2.6239151441	-0.3671390176	-1.882872172	-0.251532
C	-3.3298784208	-1.7797033654	-3.7895035559	 0.14376
O	-2.5268074538	-1.283092054	-4.5305782137	-0.222344
H	 1.5414413278	 1.3223933373	-0.2264918372	 0.110205
H	 1.5521550112	-0.342535721	 0.3966606692	 0.124379
H	 1.3682440351	-0.047049714	-1.3392949304	 0.122678
H	-0.6483028033	 0.7850050702	 0.8227470873	 0.109483
H	-0.8569176477	 1.0586288786	-0.910969833	 0.115481
H	-2.1733143012	-3.2401772078	-1.8323291098	 0.147777
H	-3.3413194955	-2.8365973946	-0.5437137158	 0.146157
H	-4.5210636366	-1.2705779886	-2.0754035953	 0.112825
H	-4.0464653907	-2.5636129368	-4.130348881	 0.081078
26.2813	63.742	94.6232	157.1298	171.5978	240.0226	276.2595	308.9625	395.9728	503.8331	575.7979	682.14	722.5729	799.4861	832.5236	898.5575	906.7849	948.1922	975.773	1046.1106	1050.1415	1093.1777	1105.2245	1123.5295	1140.2755	1177.3369	1231.2295	1264.2712	1304.3176	1360.4329	1385.2186	1407.5009	1417.563	1467.5383	1488.1219	1493.5123	1510.7446	1845.4666	1858.607	2860.2403	3015.1154	3040.146	3047.7209	3051.9901	3087.4917	3112.022	3119.8528	3145.7839
CCN=C1CC(O1)C=O	CCN=C1C[C@@H](O1)C=O	
InChI=1S/C6H9NO2/c1-2-7-6-3-5(4-8)9-6/h4-5H,2-3H2,1H3	InChI=1S/C6H9NO2/c1-2-7-6-3-5(4-8)9-6/h4-5H,2-3H2,1H3/t5-/m1/s1
