19
gdb 30688	3.98565	0.95831	0.80127	1.5066	77.2	-0.2237	0.0179	0.2415	1426.3122	0.159151	-423.053678	-423.044719	-423.043775	-423.087938	33.268	
C	 0.1618164201	 1.6425265257	 0.046059561	-0.383781
C	 0.3419587381	 0.1262697419	-0.0474195746	-0.183065
C	 0.5589280423	-0.5346496539	 1.323974352	-0.003294
O	-0.5230304598	-0.2632599289	 2.2133324767	-0.424504
C	 0.8088228661	-2.016958143	 1.2248432618	 0.226466
C	 0.2668642079	-2.9705680085	 2.0315754406	-0.102761
O	 0.6996088553	-4.2112139143	 1.6782436338	-0.145528
C	 1.5420213636	-4.0466052229	 0.6267034688	 0.006133
C	 1.650063795	-2.7332220029	 0.3015947064	-0.300619
H	 1.0648734549	 2.1221049534	 0.4398763908	 0.114752
H	-0.0461528149	 2.0770026878	-0.9361186755	 0.109416
H	-0.6638231234	 1.8919474264	 0.7173768301	 0.128983
H	-0.5367622057	-0.3357320898	-0.5189610276	 0.091394
H	 1.1939490867	-0.1130985112	-0.6948323066	 0.099764
H	 1.4222448421	-0.0519704347	 1.8029707119	 0.102003
H	-1.3075323977	-0.6793983344	 1.8364064877	 0.276009
H	-0.3999746838	-2.9230299505	 2.8749985667	 0.141904
H	 1.9740753877	-4.9487722169	 0.225882045	 0.136155
H	 2.2525163456	-2.3207860833	-0.4925870091	 0.110573
51.5741	94.1047	140.0768	195.0457	236.174	286.1198	340.5672	359.8285	449.897	488.6694	624.057	635.1955	738.1411	748.4961	787.965	809.5056	831.526	887.0608	895.1795	984.3344	998.0717	1059.286	1064.9691	1096.729	1109.3584	1121.7466	1204.8918	1239.9705	1257.9338	1268.0475	1306.9716	1333.217	1379.9798	1397.2402	1406.6625	1424.5425	1479.1088	1495.3979	1508.9382	1532.6497	1626.0079	3006.8449	3019.5115	3037.9144	3060.2476	3102.8121	3124.0984	3253.169	3282.3325	3291.6127	3785.5685
CCC(O)C1=COC=C1	CC[C@@H](O)c1cocc1	
InChI=1S/C7H10O2/c1-2-7(8)6-3-4-9-5-6/h3-5,7-8H,2H2,1H3	InChI=1S/C7H10O2/c1-2-7(8)6-3-4-9-5-6/h3-5,7-8H,2H2,1H3/t7-/m1/s1
