17
gdb 55565	4.09396	0.86789	0.72239	1.3129	78.28	-0.2581	-0.0135	0.2446	1517.8917	0.133547	-418.02062	-418.010622	-418.009678	-418.056839	34.956	
C	 0.0532420366	 1.4243043153	 0.0335452456	-0.494031
C	-0.4876025738	 0.0564609867	 0.4172611576	 0.407332
O	-0.9234230503	-0.1945823276	 1.5225983169	-0.344932
N	-0.4320012971	-0.8600400098	-0.6148061355	-0.34963
C	-0.8265232897	-2.2053656029	-0.6638926259	 0.369892
N	-0.646981432	-2.796707883	-1.7736281984	-0.503773
C	-1.420680348	-2.800711476	 0.6092792992	-0.466542
C	-1.795410231	-4.1984801333	 0.451305843	 0.281259
C	-2.1035217242	-5.352261279	 0.3174205713	-0.389666
H	 1.1010711557	 1.3563850314	-0.2770334808	 0.146421
H	-0.5146118233	 1.8481996206	-0.8012517068	 0.146461
H	-0.0260102087	 2.0838708446	 0.8965390261	 0.156521
H	-0.0515364824	-0.5534537241	-1.4998459856	 0.259563
H	-0.9622513747	-3.7643983119	-1.7107972453	 0.236037
H	-0.7043204549	-2.6787386153	 1.4284704632	 0.17178
H	-2.2816235833	-2.1980954756	 0.9170980577	 0.171814
H	-2.3808862488	-6.3723834	 0.2151047577	 0.201494
46.2019	63.8744	69.2084	129.5211	138.6115	209.5672	312.0316	336.6728	407.5011	430.9205	523.2272	583.9805	597.9951	620.3958	663.9012	683.9084	694.672	826.5676	873.4228	967.3166	972.0537	1000.2965	1008.1683	1053.4703	1136.5364	1220.169	1249.2997	1299.6849	1387.1589	1415.8891	1421.4959	1466.028	1482.8767	1508.1995	1722.7228	1796.5413	2242.8582	3044.491	3059.9461	3085.2027	3107.4032	3167.6992	3489.9058	3504.1127	3598.7059
CC(=O)NC(=N)CC#C	CC(=O)NC(=N)CC#C	
InChI=1S/C6H8N2O/c1-3-4-6(7)8-5(2)9/h1H,4H2,2H3,(H2,7,8,9)	InChI=1S/C6H8N2O/c1-3-4-6(7)8-5(2)9/h1H,4H2,2H3,(H2,7,8,9)
