15
gdb 50001	3.72003	1.0753	1.02147	3.1748	67.15	-0.2627	-0.0436	0.2192	1169.8516	0.110136	-457.69734	-457.689696	-457.688752	-457.730013	28.377	
O	-0.6606649232	 0.7298074545	 0.7613171726	-0.245795
C	 0.1523628719	 0.9985658082	-0.0846988143	 0.160164
C	 1.1984218714	 2.050529154	 0.0765818837	-0.157743
O	 2.3814261907	 1.8570254368	-0.7335595652	-0.275548
C	 1.5329710726	 2.9229175648	-1.0657083508	 0.432456
C	 0.9329916628	 3.0971233989	-2.4853130543	-0.352178
C	 1.4148316907	 4.5583135035	-2.416467513	 0.036753
O	 0.7946021822	 5.1500295278	-1.2719006682	-0.231499
C	 1.983954218	 4.3779847842	-1.0666648272	-0.084844
H	 0.1898696861	 0.4794958388	-1.0678870728	 0.089111
H	 1.3663786192	 2.4082238102	 1.0904911821	 0.123174
H	 1.4816956468	 2.4881704547	-3.2083535386	 0.132696
H	-0.1429330935	 2.9630303741	-2.6115359143	 0.129052
H	 1.720054872	 5.215392261	-3.2211807007	 0.120638
H	 2.8229932325	 4.8387968086	-0.5596575093	 0.123564
75.9938	126.4685	173.7501	239.1501	363.8795	385.6394	432.2812	488.546	514.9962	601.9965	787.7778	847.1436	855.6262	866.8726	920.4417	951.808	961.803	994.1567	1023.1808	1067.2609	1071.602	1114.0772	1148.5102	1160.1018	1209.6343	1224.8184	1262.7784	1283.0915	1370.9477	1398.1022	1454.9091	1486.6969	1827.8519	2895.2691	3072.3628	3134.9014	3146.1349	3194.5574	3208.8564
O=CC1OC11CC2OC12	O=C[C@H]1O[C@]21C[C@H]1O[C@@H]21	
InChI=1S/C6H6O3/c7-2-4-6(9-4)1-3-5(6)8-3/h2-5H,1H2	InChI=1S/C6H6O3/c7-2-4-6(9-4)1-3-5(6)8-3/h2-5H,1H2/t3-,4-,5-,6+/m1/s1
