18
gdb 112093	3.19285	1.33237	1.0422	2.9711	71.98	-0.243	0.0131	0.2561	1139.5258	0.14953	-439.075199	-439.067426	-439.066482	-439.107728	30.03	
O	 0.1173048834	 1.3380916733	-0.1575248132	-0.425265
C	 0.0548020402	-0.0691962759	-0.1257831913	-0.04702
C	-1.3856095298	-0.5510146799	 0.1113303236	-0.008097
N	-2.2225379158	 0.0730200486	-0.914035656	-0.296167
C	-3.1355914505	-0.5857094823	-1.486587488	 0.123614
O	-3.488086519	-1.8834129178	-1.3374576299	-0.222801
C	-2.6609206134	-2.6922037514	-0.5254043323	 0.104319
C	-1.2546191373	-2.9578076093	-0.978661797	-0.323033
C	-1.5237784796	-2.0593084431	 0.2163208231	-0.083063
H	-0.6315889836	 1.6094033844	-0.7062930221	 0.290569
H	 0.432754218	-0.5152956936	-1.0606831328	 0.081349
H	 0.7014512715	-0.4116709571	 0.6899151493	 0.099456
H	-1.7070913318	-0.1176085477	 1.0684816795	 0.10171
H	-3.7816476815	-0.1166338624	-2.2260234465	 0.130644
H	-3.2526602679	-3.480418098	-0.0770629235	 0.115034
H	-0.8342948419	-3.9417402402	-0.8045128707	 0.124152
H	-0.944361066	-2.4916718982	-1.9078360734	 0.134834
H	-1.293148145	-2.4716390395	 1.193837071	 0.099768
85.8317	129.1913	172.5813	277.1631	345.923	383.5592	443.7497	502.6027	563.3062	581.6759	626.0937	762.2473	803.0152	827.9946	857.3068	913.8751	963.798	994.5579	1004.0497	1034.1762	1056.7206	1088.4764	1106.9304	1119.076	1126.719	1150.0194	1197.8307	1232.6729	1238.1365	1303.8672	1344.0307	1362.8065	1383.3164	1401.5321	1424.2147	1445.7917	1481.4061	1507.5454	1734.9837	2965.3044	3012.5308	3064.2809	3137.2104	3152.7321	3161.9227	3189.9812	3225.9781	3747.5718
OCC1N=COC2CC12	OC[C@H]1N=CO[C@H]2C[C@@H]12	
InChI=1S/C6H9NO2/c8-2-5-4-1-6(4)9-3-7-5/h3-6,8H,1-2H2	InChI=1S/C6H9NO2/c8-2-5-4-1-6(4)9-3-7-5/h3-6,8H,1-2H2/t4-,5+,6-/m0/s1
