18
gdb 55540	4.41286	0.84226	0.75211	5.7463	76.32	-0.2412	-0.0203	0.221	1530.0081	0.146148	-439.137108	-439.127517	-439.126573	-439.173019	33.591	
C	-0.1834932801	 1.5063189922	 0.2212493154	-0.50238
C	 0.1504111541	 0.0640282488	-0.1350475579	 0.413262
O	 1.2613491807	-0.3169839628	-0.394272632	-0.292226
N	-0.9827136062	-0.765933402	-0.1258738596	-0.40429
C	-1.0499364735	-2.1387940517	-0.4041259227	 0.456657
O	-0.0935921369	-2.813167116	-0.7015818055	-0.330405
C	-2.4347781458	-2.697049837	-0.2969801275	-0.14759
C	-2.7866417437	-3.8277682349	-1.2491454941	-0.245666
C	-2.5526846622	-4.1309517975	 0.1920291385	-0.245659
H	 0.7347077327	 2.0914418594	 0.194510229	 0.158324
H	-0.9030651659	 1.9284316314	-0.4887093609	 0.141167
H	-0.6247439407	 1.5701113702	 1.2218800296	 0.141243
H	-1.8557459009	-0.3192545297	 0.1090200283	 0.250049
H	-3.2318018539	-2.013123098	-0.0237443368	 0.078746
H	-3.7991570182	-3.8517070187	-1.6348958861	 0.118171
H	-2.0081516888	-4.1070114784	-1.9492459596	 0.146203
H	-1.6178751566	-4.6123746133	 0.4538215341	 0.146211
H	-3.3997215642	-4.3692284521	 0.824719118	 0.118183
48.7644	52.0311	94.4478	118.9906	141.7536	276.3631	277.3334	312.0712	387.3208	555.01	565.6623	616.0388	694.0748	754.8468	795.0691	830.1766	845.9843	911.5652	915.846	959.4101	1024.9293	1050.0802	1069.6446	1100.0323	1116.0846	1117.8532	1159.1402	1210.5169	1212.7862	1239.9096	1382.5714	1407.0313	1452.9519	1466.8191	1482.543	1486.1506	1506.0119	1798.6944	1857.9985	3039.4387	3101.791	3143.9074	3144.837	3156.8615	3167.0537	3232.4995	3246.3186	3624.2556
CC(=O)NC(=O)C1CC1	CC(=O)NC(=O)C1CC1	
InChI=1S/C6H9NO2/c1-4(8)7-6(9)5-2-3-5/h5H,2-3H2,1H3,(H,7,8,9)	InChI=1S/C6H9NO2/c1-4(8)7-6(9)5-2-3-5/h5H,2-3H2,1H3,(H,7,8,9)
