21
gdb 50762	2.98644	1.13857	0.90008	2.7878	78.88	-0.241	-0.0242	0.2168	1319.6063	0.183573	-424.239206	-424.230393	-424.229448	-424.273193	32.905	
O	-1.0871724791	 1.7354531829	 0.9345339305	-0.24667
C	-0.3705774397	 1.5581412002	-0.0180058632	 0.145846
C	 1.1094962539	 1.8799294399	-0.0700610407	-0.089439
C	 1.41410718	 2.7483809801	-1.312608577	-0.219913
C	 2.9152286517	 2.8387755039	-1.6396172638	-0.19068
C	 3.7228146624	 3.8612622236	-0.8155492173	-0.200118
C	 3.2888718756	 4.0103964279	 0.6512638041	-0.069523
O	 2.9684369113	 2.7833935885	 1.2857653363	-0.249811
C	 1.5915736686	 2.459200467	 1.2658277067	-0.083362
H	-0.7765649435	 1.128542235	-0.9647001249	 0.077082
H	 1.6140974451	 0.9137439118	-0.2361694501	 0.101761
H	 0.8935389458	 2.3045913132	-2.1707869696	 0.099568
H	 0.9828407987	 3.7499964953	-1.1836470166	 0.105921
H	 3.3516135957	 1.8425993835	-1.5049032948	 0.106274
H	 3.0372921701	 3.0807040213	-2.7011628405	 0.097346
H	 4.7806704081	 3.5794054576	-0.8582359649	 0.105214
H	 3.6527387042	 4.8547998912	-1.2770950801	 0.097133
H	 4.1043832063	 4.4628761059	 1.2272439586	 0.103137
H	 2.4295145244	 4.6939171552	 0.7229636508	 0.089242
H	 0.9854658682	 3.3410091604	 1.5219618192	 0.103251
H	 1.4340850623	 1.7222313856	 2.0580613374	 0.11774
64.3521	101.7186	133.9481	197.3651	264.6672	285.0037	356.5816	364.3959	418.1335	498.0915	570.7702	674.3462	740.7178	798.6992	821.6531	879.1166	912.1281	932.7102	975.7093	1011.6858	1040.6806	1055.6766	1108.8629	1126.0433	1138.0305	1170.1422	1214.8712	1246.6931	1274.7542	1287.2984	1311.7195	1333.6143	1341.2197	1363.2368	1382.0513	1389.3647	1409.5956	1429.8207	1434.6694	1481.7727	1485.1177	1489.4461	1496.2234	1510.4139	1823.8591	2848.7643	2978.9428	2987.3984	3000.1135	3016.5632	3023.7066	3033.294	3050.7164	3054.9937	3066.0448	3079.7258	3092.0559
O=CC1CCCCOC1	O=C[C@H]1CCCCOC1	
InChI=1S/C7H12O2/c8-5-7-3-1-2-4-9-6-7/h5,7H,1-4,6H2	InChI=1S/C7H12O2/c8-5-7-3-1-2-4-9-6-7/h5,7H,1-4,6H2/t7-/m1/s1
