21
gdb 121364	2.46548	1.18008	0.93845	1.3391	75.04	-0.2544	0.0877	0.3421	1348.6889	0.182312	-461.370613	-461.361019	-461.360075	-461.405921	34.771	
C	 0.6815957022	 1.3545084675	 0.0073287106	-0.389226
C	 0.1671344982	-0.0696730561	 0.1180499796	-0.043221
O	 0.8529893947	-0.7169720832	 1.1840980073	-0.279833
C	 0.4738801764	-2.0590916457	 1.3977398947	 0.189685
O	 0.8776989402	-2.9103368311	 0.3617216885	-0.264604
C	 2.1729788408	-3.4766558547	 0.6582355384	-0.07958
C	 2.5900956703	-2.9288585793	 2.0272953907	-0.26509
C	 1.2400684616	-2.5194751419	 2.6517683896	 0.107268
O	 1.3028901119	-1.5529693691	 3.6669173617	-0.441948
H	 1.7557352922	 1.3609610686	-0.1989342276	 0.127246
H	 0.1704408239	 1.8789845794	-0.8054405065	 0.119739
H	 0.5070447178	 1.9042745956	 0.9369338216	 0.12426
H	-0.916073907	-0.08002839	 0.3188239322	 0.092403
H	 0.3357752546	-0.622954981	-0.8144980106	 0.112546
H	-0.6198441417	-2.1280422113	 1.4714602453	 0.0743
H	 2.064810583	-4.5676516434	 0.6657583196	 0.106496
H	 2.8717721433	-3.2109575022	-0.1415996209	 0.108695
H	 3.1331344802	-3.6584606039	 2.6306306092	 0.107959
H	 3.2102961803	-2.03384955	 1.9248127673	 0.11347
H	 0.734774099	-3.3974188213	 3.0684423545	 0.092667
H	 1.372519548	-0.7039025371	 3.210108355	 0.286767
53.7358	86.179	106.9881	130.1605	164.2051	248.7986	291.6422	361.8649	392.9157	440.3731	534.3064	564.3179	628.743	746.2498	821.1409	835.4309	896.5427	904.5649	936.5779	977.9676	1000.4602	1061.8154	1083.6521	1114.4112	1123.3956	1142.7859	1151.4077	1188.2879	1204.9859	1223.641	1275.1485	1296.9535	1307.6146	1326.5883	1359.597	1374.4389	1399.9424	1404.7044	1437.9059	1453.5658	1484.5782	1487.7684	1500.5846	1529.4432	1529.8728	2981.3223	3020.4972	3031.3046	3042.8892	3044.0957	3055.9877	3063.7203	3074.5002	3118.4316	3120.0767	3125.2553	3761.4873
CCOC1OCCC1O	CCO[C@H]1OCC[C@H]1O	
InChI=1S/C6H12O3/c1-2-8-6-5(7)3-4-9-6/h5-7H,2-4H2,1H3	InChI=1S/C6H12O3/c1-2-8-6-5(7)3-4-9-6/h5-7H,2-4H2,1H3/t5-,6+/m1/s1
