16
gdb 19189	3.61904	1.96602	1.74116	2.8116	64.3	-0.2265	-0.0199	0.2067	809.3368	0.131158	-383.725057	-383.718211	-383.717267	-383.755891	26.346	
C	-0.105699987	 1.5990095447	 0.0428420863	-0.436594
C	 0.0217578581	 0.0838912538	-0.0056216778	 0.00798
C	 0.8743414679	-0.6202662391	-1.134690468	-0.20923
C	 2.2556774357	 0.006257721	-0.8941222128	-0.090117
O	 2.3080119209	 0.0050002242	 0.5604745531	-0.278168
C	 1.0638110708	-0.6155375033	 0.9248289366	-0.035637
C	 0.9652161324	-1.7682847579	-0.0992682388	 0.445558
O	 0.8491814901	-2.9548370354	-0.1004229541	-0.314955
H	 0.8693451727	 2.0799846653	 0.1428426814	 0.141811
H	-0.5942285242	 1.9825508255	-0.8585980197	 0.123102
H	-0.7126821038	 1.898990754	 0.9028564391	 0.125903
H	-0.9555303485	-0.4021551249	 0.0755434758	 0.097848
H	 0.5291524038	-0.7588715451	-2.1563874738	 0.09348
H	 3.0749730092	-0.5977615848	-1.2999067255	 0.119392
H	 2.3519635027	 1.0317348939	-1.2659757497	 0.110325
H	 0.9795995992	-0.7080703918	 2.0043995978	 0.099303
146.5344	175.8801	247.8401	275.9987	319.2246	480.7149	529.4424	662.1859	667.5271	729.5192	752.7398	821.0826	903.0349	921.9811	960.3013	990.664	1031.2619	1051.5881	1060.4883	1086.2801	1115.174	1129.1519	1176.2002	1206.2769	1220.1733	1255.3667	1277.7338	1363.411	1387.6531	1407.5786	1491.0732	1501.9663	1536.8506	1913.5102	3031.8339	3043.1593	3066.1847	3071.9967	3103.6112	3134.4366	3156.8142	3167.2082
CC1C2COC1C2=O	C[C@H]1[C@H]2CO[C@@H]1C2=O	
InChI=1S/C6H8O2/c1-3-4-2-8-6(3)5(4)7/h3-4,6H,2H2,1H3	InChI=1S/C6H8O2/c1-3-4-2-8-6(3)5(4)7/h3-4,6H,2H2,1H3/t3-,4+,6-/m0/s1
