21
gdb 78453	2.75011	1.57561	1.27492	1.3353	81.98	-0.2372	0.0752	0.3124	1078.5928	0.184448	-387.038066	-387.030234	-387.02929	-387.069829	32.318	
C	-0.0094095677	 1.6067176946	-0.0721269723	-0.437936
C	 0.0264501668	 0.080548676	-0.0577269801	 0.042806
C	 1.2037302793	-0.6101995681	-0.815327544	-0.05306
C	 2.074349714	-0.3048306374	 0.4558645109	-0.221164
C	 0.7080375556	-0.603326618	 1.1701093395	-0.060429
C	 0.5959782076	-2.1145537878	 0.8909160494	-0.109314
C	-0.3185206604	-2.7203997225	-0.153034462	 0.072254
O	-1.5845126737	-2.2780419831	-0.5618321841	-0.414891
C	 0.9765994211	-2.1206388908	-0.6102218605	-0.075111
H	 0.9447367431	 2.0826578808	 0.1669569776	 0.113056
H	-0.3169311845	 1.9662726032	-1.0606017932	 0.114484
H	-0.7479551884	 1.9734858106	 0.6499674319	 0.110476
H	-0.9628107004	-0.2866955968	-0.3109857388	 0.095051
H	 1.5047746906	-0.2917069127	-1.8147259979	 0.055456
H	 2.9049228776	-0.9846825022	 0.6663099533	 0.084844
H	 2.4144823857	 0.728284049	 0.5365090676	 0.094045
H	 0.5056828412	-0.2761853074	 2.1918358054	 0.051307
H	 1.0585441443	-2.7885980843	 1.605833547	 0.08149
H	-0.2581064771	-3.8120117497	-0.1315605569	 0.086438
H	-2.1991875753	-2.456049489	 0.158417803	 0.284889
H	 1.7289876505	-2.7900399843	-1.0154624558	 0.085311
166.9982	194.7764	221.6504	258.2766	284.2687	307.4519	438.8284	507.6386	549.2404	655.5542	673.7931	729.1256	764.6765	792.587	832.3129	835.269	882.443	892.7887	947.4903	989.5899	1024.0273	1029.899	1040.6124	1056.9502	1075.0085	1089.6174	1105.4771	1117.374	1128.9931	1131.6647	1220.8439	1234.6034	1251.9553	1258.6517	1270.7216	1273.4307	1307.2294	1319.9135	1371.216	1411.0804	1412.9656	1460.7184	1494.1394	1500.235	1520.4847	3029.8997	3056.3153	3060.2809	3085.0653	3091.8725	3098.4625	3104.7285	3132.6488	3146.0097	3157.2177	3167.7801	3800.5297
CC1C2CC1C1C(O)C21	C[C@H]1[C@H]2C[C@@H]1[C@H]1[C@@H](O)[C@@H]21	
InChI=1S/C8H12O/c1-3-4-2-5(3)7-6(4)8(7)9/h3-9H,2H2,1H3	InChI=1S/C8H12O/c1-3-4-2-5(3)7-6(4)8(7)9/h3-9H,2H2,1H3/t3-,4+,5-,6-,7+,8-
