19
gdb 84721	2.39559	1.54743	1.16123	1.8067	87.21	-0.224	-0.04	0.184	1134.7865	0.160158	-385.908653	-385.900078	-385.899134	-385.941624	33.005	
C	 0.0235600326	 1.5049882287	-0.1836743998	-0.480855
C	 0.0177708652	 0.0045875869	 0.0246406836	 0.301872
C	-1.1553316497	-0.662033047	 0.127185648	-0.18608
C	-1.3151252486	-2.1595211298	 0.130582586	 0.029598
O	-0.9713500543	-2.7568741116	-1.1253028684	-0.434012
C	-0.5581682994	-2.7727407436	 1.2804983965	-0.109643
C	 0.771621605	-2.6419699186	 1.4660783549	-0.068504
C	 1.6574135586	-1.7672597531	 0.7436362722	-0.105865
C	 1.3235785961	-0.6152478149	 0.1030303997	-0.162785
H	 0.5559139446	 2.0195420561	 0.6245678046	 0.129339
H	 0.536974285	 1.7653551168	-1.1174586714	 0.12825
H	-0.9905793113	 1.9073637182	-0.2356337855	 0.124011
H	-2.0741537763	-0.0806122629	 0.128085953	 0.088507
H	-2.3767598318	-2.392610417	 0.2467009835	 0.08759
H	-0.0365763936	-2.5747830371	-1.2743294749	 0.284687
H	-1.1167080084	-3.4209177113	 1.9505368037	 0.097917
H	 1.2392554835	-3.2521435783	 2.2362361998	 0.09484
H	 2.7161465325	-2.010022408	 0.7993061527	 0.094022
H	 2.1447121902	-0.0253436736	-0.3003380581	 0.087111
88.235	135.6207	169.5376	238.0916	304.2896	315.7846	363.3319	394.7294	412.0469	504.7054	514.9122	667.5112	693.5584	756.5964	825.2328	839.5612	848.2987	892.1785	927.5444	966.0662	987.7788	1008.3418	1021.3447	1058.2869	1068.6343	1116.9797	1174.3084	1232.7519	1255.4998	1289.8535	1357.9986	1362.8438	1411.6012	1418.345	1444.3341	1479.3038	1484.8348	1495.9721	1569.2051	1673.2094	1677.6629	3025.2046	3073.8068	3076.3303	3121.4637	3132.8993	3140.9084	3153.2627	3159.1725	3170.3245	3800.9148
CC1=CC(O)C=CC=C1	CC1=C[C@@H](O)C=CC=C1	
InChI=1S/C8H10O/c1-7-4-2-3-5-8(9)6-7/h2-6,8-9H,1H3	InChI=1S/C8H10O/c1-7-4-2-3-5-8(9)6-7/h2-6,8-9H,1H3/t8-/m0/s1
