16
gdb 34591	4.42093	1.06493	0.93231	5.068	77.15	-0.2366	-0.0478	0.1888	1230.2465	0.125551	-396.932547	-396.924751	-396.923807	-396.965108	29.508	
N	 0.1545118721	-1.079980821	 0.2278806289	-0.316135
C	 0.0325499753	 0.0650401639	 0.1317526966	 0.255949
C	-0.0624250561	 1.4961600718	 0.0232434309	 0.277359
N	-1.1625737028	 2.1363482657	 0.1542571062	-0.293115
C	-0.8194277351	 3.5556488629	-0.0348583539	-0.241315
C	 0.7175280059	 3.6161938557	-0.0763589545	 0.352694
C	 1.4983861714	 4.7284467584	-0.7003472851	-0.323307
C	 1.5428799712	 4.5139525746	 0.8031781168	-0.320941
N	 1.0834065709	 2.2197474119	-0.2834803753	-0.395101
H	-1.2620528625	 3.9006005859	-0.9786967808	 0.128573
H	-1.2520924999	 4.1598769001	 0.7689070129	 0.125624
H	 2.3818145169	 4.4692916501	-1.2740493395	 0.124567
H	 0.9496581221	 5.5819831935	-1.0860395095	 0.125896
H	 1.0208752471	 5.216692566	 1.4453034868	 0.126227
H	 2.4604902811	 4.1194215011	 1.2293981138	 0.117384
H	 1.9652329626	 1.8867134294	 0.0824469856	 0.25564
74.0596	147.5907	163.3156	285.6463	311.1863	396.3483	442.9879	484.0444	544.4025	586.3342	603.428	715.4567	767.6302	825.6137	878.5571	916.9275	935.3813	976.1753	988.8307	1029.6506	1053.3693	1057.9302	1079.9301	1185.8327	1205.6102	1229.4504	1267.4858	1291.4102	1379.3378	1444.9439	1461.9628	1488.3998	1505.9774	1671.2488	2366.4072	3019.9422	3069.712	3120.0241	3128.6068	3202.1835	3219.4152	3587.6562
N#CC1=NCC2(CC2)N1	N#C[C]1[N]CC2(CC2)N1	
InChI=1S/C6H7N3/c7-3-5-8-4-6(9-5)1-2-6/h1-2,4H2,(H,8,9)	InChI=1S/C6H7N3/c7-3-5-8-4-6(9-5)1-2-6/h1-2,4H2,(H,8,9)
