19
gdb 55826	3.48834	1.08249	1.04527	3.5459	75.59	-0.2351	0.0553	0.2904	1233.4517	0.160402	-419.214123	-419.205254	-419.204309	-419.248708	33.175	
N	-0.3484770415	 1.3231379547	 0.104650764	-0.568118
C	-0.3625942419	-0.0416568589	 0.391348132	 0.448969
O	 0.2319313208	-0.517011966	 1.3394307762	-0.390944
N	-1.1542110362	-0.782855349	-0.4551984019	-0.34607
C	-1.2304428411	-2.2086349568	-0.3689279094	 0.051048
C	-1.8812646691	-2.9264683699	 0.7757708622	-0.039916
C	-3.0696353176	-2.132354328	 1.3232229374	-0.223567
C	-3.7217459349	-2.1539920234	-0.096243094	-0.227747
C	-2.5158611066	-2.9423885943	-0.6266538122	-0.120469
H	 0.3888807694	 1.8023145241	 0.5991318987	 0.258851
H	-0.4370271444	 1.6057303796	-0.8601094541	 0.241094
H	-1.6184866986	-0.3289023728	-1.2244802669	 0.238022
H	-0.3521113245	-2.7326676721	-0.7433951375	 0.097265
H	-1.3468654837	-3.7070094936	 1.3026044872	 0.089105
H	-3.6538722101	-2.6978957913	 2.0516322079	 0.102659
H	-2.827467277	-1.1542646981	 1.7462008514	 0.115683
H	-4.6414903688	-2.7420316173	-0.1193934702	 0.104978
H	-3.919785325	-1.1852222537	-0.5664794268	 0.084557
H	-2.563274719	-3.7393963134	-1.3598924939	 0.084599
35.3625	61.2623	136.9423	226.6593	255.3325	277.4893	408.5888	413.2762	441.2497	546.554	598.6633	676.2092	738.5257	772.0766	781.6605	793.0292	816.2995	924.2751	953.6079	961.4518	984.6764	1023.0546	1024.7778	1062.0541	1076.7858	1101.9491	1128.2317	1146.6113	1221.0554	1240.3322	1253.092	1265.5186	1303.9982	1315.7475	1357.147	1438.2763	1478.0874	1501.1144	1526.2761	1629.2549	1804.39	3046.1662	3069.056	3102.0742	3110.9958	3123.6199	3172.3285	3193.2861	3571.3669	3633.4926	3685.0524
NC(=O)NC1C2CCC12	NC(=O)N[C@H]1[C@H]2CC[C@@H]12	
InChI=1S/C6H10N2O/c7-6(9)8-5-3-1-2-4(3)5/h3-5H,1-2H2,(H3,7,8,9)	InChI=1S/C6H10N2O/c7-6(9)8-5-3-1-2-4(3)5/h3-5H,1-2H2,(H3,7,8,9)/t3-,4+,5-
