17
gdb 55647	2.33822	1.23926	1.11095	5.6075	69.	-0.2766	-0.001	0.2756	1186.4659	0.134169	-455.199649	-455.189928	-455.188984	-455.234433	35.416	
C	 0.0149630808	 1.514836176	-0.1889454672	-0.406159
C	 0.0359937027	-0.0088552475	-0.022958265	 0.208461
O	 0.8867443313	-0.3031473432	 1.054959294	-0.441106
C	-1.3939492545	-0.5583807787	 0.2288901733	-0.34651
C	-1.3881987067	-2.0670612102	 0.4567730985	 0.438195
N	-2.4323963649	-2.7537266679	-0.0640788821	-0.514819
O	-0.5054808298	-2.6174225586	 1.1036240882	-0.378498
C	 0.553624183	-0.6227429673	-1.2820122463	 0.261188
N	 0.9372041171	-1.099251156	-2.2626450082	-0.344887
H	 1.0337295909	 1.8782065444	-0.3383851403	 0.150046
H	-0.5978270076	 1.8143976608	-1.04280691	 0.127068
H	-0.3849659755	 1.9645053866	 0.7234751118	 0.130568
H	 0.7142350358	-1.2360404549	 1.2884475254	 0.307694
H	-1.7641630915	-0.0840607687	 1.1446452886	 0.149363
H	-2.0596587062	-0.276351859	-0.5920007726	 0.115736
H	-3.0876611961	-2.3300928269	-0.6970828133	 0.270496
H	-2.4345687088	-3.7572020891	 0.0316321951	 0.273165
47.5288	88.3014	169.4065	195.6708	229.4595	239.5276	305.6263	328.6565	355.4256	407.5962	437.0324	526.6247	572.1765	589.9511	636.343	673.9603	699.2295	771.8072	863.0257	898.9151	960.7071	980.3477	1087.4845	1099.3791	1147.2681	1194.0303	1270.3121	1295.2675	1402.9432	1412.2052	1449.4686	1470.4254	1480.5016	1494.5449	1623.7465	1764.5537	2347.7141	3048.382	3053.7753	3101.7549	3133.9338	3141.5192	3562.8643	3598.8292	3735.2447
CC(O)(CC(N)=O)C#N	C[C@@](O)(CC(=O)N)C#N	
InChI=1S/C5H8N2O2/c1-5(9,3-6)2-4(7)8/h9H,2H2,1H3,(H2,7,8)	InChI=1S/C5H8N2O2/c1-5(9,3-6)2-4(7)8/h9H,2H2,1H3,(H2,7,8)/t5-/m1/s1
