14
gdb 16397	3.77977	2.31412	1.8149	3.5548	62.31	-0.2333	-0.0622	0.171	731.3287	0.10909	-382.535585	-382.529732	-382.528788	-382.565411	23.242	
O	 0.0148888723	-0.020713304	-0.0531304088	-0.330371
C	 0.002343856	 1.1866524843	 0.029099683	 0.407673
C	-1.2322302963	 2.0157322844	 0.1147858963	-0.171962
C	-1.0692827406	 3.3460028923	 0.1026943733	-0.042523
C	 0.3583382917	 3.8528143474	 0.0858036956	 0.039496
C	 1.1393824919	 3.1656000381	-1.0679640194	-0.255246
C	 1.2700126973	 2.0567287137	 0.0082287231	-0.027002
O	 1.1291430858	 3.0693482682	 1.0451438345	-0.288257
H	-2.1923532673	 1.5125311212	 0.1416781533	 0.119497
H	-1.9000147705	 4.0446084751	 0.0946936967	 0.118043
H	 0.4532326892	 4.9277584419	 0.2480403499	 0.089656
H	 0.6098149246	 2.9484023406	-1.9965872267	 0.11843
H	 2.0999856889	 3.6449111112	-1.2632877598	 0.122474
H	 2.1791401569	 1.4596468655	 0.0921465688	 0.100092
142.5449	322.6974	401.2972	424.1392	450.1034	508.3254	660.9477	719.2225	759.2662	818.8447	851.2134	887.7622	932.8027	954.7329	960.7558	1000.6942	1013.7182	1075.7431	1093.5982	1144.4187	1196.511	1223.3864	1257.1107	1288.8228	1299.2824	1343.8193	1379.0331	1486.5808	1654.8152	1807.0562	3078.5209	3102.3588	3115.0092	3146.5633	3177.9062	3205.3259
O=C1C=CC2CC1O2	O=C1C=C[C@@H]2C[C@H]1O2	
InChI=1S/C6H6O2/c7-5-2-1-4-3-6(5)8-4/h1-2,4,6H,3H2	InChI=1S/C6H6O2/c7-5-2-1-4-3-6(5)8-4/h1-2,4,6H,3H2/t4-,6-/m1/s1
