22
gdb 123108	2.16708	1.11632	0.79903	6.6618	79.56	-0.2357	0.0389	0.2746	1479.4364	0.194492	-441.520464	-441.510351	-441.509407	-441.556559	36.238	
C	 1.1419529181	 0.6173915765	-0.1173110006	-0.32594
N	 0.7582285191	-0.6907437883	 0.4218833923	-0.296779
H	 0.258096181	-1.2140874997	-0.291043472	 0.231408
H	 2.2096416015	-1.4150085258	 0.9821138229	 0.330484
C	-0.0849897448	-0.5949239364	 1.6217037475	-0.134388
C	-0.581959824	-1.9589227439	 2.1099310102	-0.216395
C	 0.4323289229	-2.8870736338	 2.8023578925	-0.193025
C	 1.5308449865	-3.5404600005	 1.9175852475	-0.31543
C	 2.9054186355	-2.8794097506	 2.0460825713	 0.380205
O	 3.0483777529	-1.6899038429	 1.4524594678	-0.393992
O	 3.8066619064	-3.3868812458	 2.6653825273	-0.335026
H	 1.7994815223	 1.1212398124	 0.5975730388	 0.148246
H	 1.6972313754	 0.4809567573	-1.0485091384	 0.135326
H	 0.2780490899	 1.2713866044	-0.3110321001	 0.114375
H	 0.512447514	-0.1108492484	 2.4047913084	 0.12298
H	-0.9525114828	 0.0602113896	 1.4358586278	 0.094153
H	-1.3925202456	-1.7635076489	 2.8220234449	 0.109171
H	-1.050739568	-2.4909652173	 1.2688253518	 0.095115
H	 0.9020855684	-2.3538204143	 3.6378404673	 0.117602
H	-0.1462037583	-3.695973581	 3.2603486879	 0.109956
H	 1.676748777	-4.5765051502	 2.2267428679	 0.125626
H	 1.2142324425	-3.5521600322	 0.8678939569	 0.096328
38.737	79.1096	110.734	135.1385	191.8326	224.4061	264.323	290.5762	303.6082	366.6604	442.4043	486.5775	600.4712	725.5105	774.7485	817.2829	844.1071	879.9505	924.2496	953.1475	976.1921	1031.4953	1049.0059	1072.1654	1090.2102	1129.091	1139.8524	1170.4305	1200.4938	1253.3355	1293.9754	1304.0269	1321.8353	1350.2538	1380.4841	1391.2091	1403.4024	1459.0482	1462.8857	1478.8601	1484.7004	1487.9642	1493.4189	1498.6959	1510.6796	1516.8244	1848.4109	2960.7123	2987.9295	3003.0769	3031.9055	3039.9788	3046.4557	3059.9444	3072.024	3082.3774	3086.897	3117.8485	3124.1331	3506.1896
C[NH2+]CCCCC([O-])=O	CNCCCCC(=O)O	
InChI=1S/C6H13NO2/c1-7-5-3-2-4-6(8)9/h7H,2-5H2,1H3,(H,8,9)	InChI=1S/C6H13NO2/c1-7-5-3-2-4-6(8)9/h7H,2-5H2,1H3,(H,8,9)
