17
gdb 122061	3.03014	0.99558	0.78486	2.5806	67.68	-0.2551	-0.0632	0.192	1400.6902	0.131791	-496.091606	-496.081827	-496.080883	-496.128052	33.453	
O	-0.8814319322	 1.4133750439	 0.6162976458	-0.431475
C	-0.1745746312	 0.3052579195	 0.1193274552	-0.052474
C	-1.0827048871	-0.8675448072	-0.2251688885	-0.090243
O	-1.8814192639	-0.5424784281	-1.3695605434	-0.256199
C	-3.2646785079	-0.5708574991	-1.2476922404	-0.071164
C	-3.8973415237	 0.8222287105	-1.1323350053	 0.150589
O	-3.2705898516	 1.831296506	-0.9447285887	-0.232244
C	-3.8723889195	-1.2869910237	-2.4621971851	 0.121871
O	-5.0553582064	-1.3923976893	-2.6418186971	-0.23547
H	-1.5126565094	 1.6933912966	-0.063474219	 0.302984
H	 0.4233135896	 0.556365763	-0.7719838325	 0.095799
H	 0.5231262014	-0.0140183915	 0.9029640759	 0.104901
H	-0.485499341	-1.7560325557	-0.4697396439	 0.103802
H	-1.7254079565	-1.1002789877	 0.6334695589	 0.107019
H	-3.6116125457	-1.133224725	-0.3623817843	 0.134159
H	-4.9981294255	 0.8224108264	-1.2534783075	 0.130945
H	-3.1042894993	-1.6858724984	-3.1575343002	 0.117198
19.4789	84.7529	119.5392	133.6061	177.6013	204.4209	243.5088	299.2478	327.7888	427.7285	498.8693	580.7689	615.4732	689.6255	790.2378	862.7109	877.6304	902.5648	1022.8637	1053.4461	1080.6147	1108.394	1137.0465	1194.7209	1212.6165	1246.0227	1293.8066	1316.7044	1376.3107	1387.9704	1406.5308	1414.4226	1442.5475	1490.1558	1495.5273	1812.6245	1844.4713	2924.9631	2952.3189	2964.6359	2977.0969	3006.8034	3059.8207	3062.9851	3708.7352
OCCOC(C=O)C=O	OCCOC(C=O)C=O	
InChI=1S/C5H8O4/c6-1-2-9-5(3-7)4-8/h3-6H,1-2H2	InChI=1S/C5H8O4/c6-1-2-9-5(3-7)4-8/h3-6H,1-2H2
