18
gdb 30034	3.22679	1.63938	1.15471	1.4912	85.78	-0.1985	-0.0013	0.1972	1061.5303	0.150295	-364.859722	-364.852421	-364.851477	-364.891258	29.35	
C	-0.0892841987	 1.578498112	-0.0037942477	-0.381932
C	 0.0104894149	 0.0418196751	 0.0085763079	-0.205256
C	 0.850380404	-0.5234008543	-1.1324716579	-0.133493
C	 1.859928308	-1.2552076267	-0.6473312211	-0.03779
N	 1.8062936375	-1.2692287956	 0.7551756458	-0.001302
C	 2.5063528303	-1.7911210498	 1.8129945228	-0.140009
C	 1.8684386131	-1.3661990835	 2.9591861523	-0.140671
C	 0.7480845938	-0.5612436424	 2.578987792	-0.333633
C	 0.736216857	-0.5210515004	 1.2057003448	 0.369131
H	 0.9054547418	 2.030352635	 0.0414214572	 0.125696
H	-0.5882286022	 1.929286712	-0.9130030011	 0.112184
H	-0.6644078578	 1.9325269987	 0.8570701102	 0.122042
H	-1.0093667087	-0.3656014003	-0.0536377262	 0.104053
H	 0.6484157671	-0.3405560744	-2.1778203247	 0.106554
H	 2.6417151329	-1.7928502977	-1.163977345	 0.131248
H	 3.3776467157	-2.408523702	 1.6669866023	 0.11662
H	 2.1689612398	-1.6063650859	 3.967970546	 0.093466
H	 0.0470278215	-0.0831178898	 3.2458437722	 0.093093
130.3962	144.9861	247.199	278.4186	354.3461	468.2556	547.3355	608.1479	663.7529	683.9089	686.7283	706.987	745.8083	778.1796	813.4951	825.9462	901.926	911.7191	916.4916	1010.4776	1034.6269	1075.721	1077.1758	1095.7412	1108.1414	1183.9149	1223.9597	1273.6651	1296.6033	1321.0848	1330.546	1404.4996	1426.6065	1443.1708	1493.5546	1495.6445	1504.8218	1592.2192	1655.9731	2996.3779	3036.2309	3106.5618	3119.0074	3233.104	3238.6791	3252.3649	3256.3586	3271.0021
CC1C=CN2C=CC=C12	C[C@H]1C=Cn2cccc12	
InChI=1S/C8H9N/c1-7-4-6-9-5-2-3-8(7)9/h2-7H,1H3	InChI=1S/C8H9N/c1-7-4-6-9-5-2-3-8(7)9/h2-7H,1H3/t7-/m0/s1
