17
gdb 107536	2.04998	1.67574	1.10612	2.0988	74.23	-0.2504	0.0434	0.2938	1122.4572	0.133675	-421.745109	-421.736269	-421.735325	-421.779092	32.811	
O	-0.0584773268	 1.4511204657	 0.3352375565	-0.408852
C	 0.0281039023	 0.0819660904	-0.0177967012	-0.17587
C	-1.3211035214	-0.5483329286	-0.1467097285	 0.388347
O	-2.0203116774	-0.8526925969	 1.0695544953	-0.286661
C	-1.8332959977	-1.90443427	 0.1141651395	-0.052645
C	-2.9441102352	-1.7618006632	-0.9307329287	-0.262251
C	-2.4037745526	-0.305016473	-1.2345588418	-0.254835
C	-3.2988894847	 0.8198895022	-1.060093679	 0.342259
C	-4.0558342506	 1.7431346645	-0.9193841865	-0.458015
H	-0.5918283354	 1.5070334786	 1.1360822815	 0.297255
H	 0.5536018927	 0.0487324177	-0.9782019131	 0.114278
H	 0.6162065161	-0.4970513069	 0.7109948987	 0.09988
H	-1.3230990283	-2.7977295475	 0.4559409164	 0.110686
H	-2.8359409551	-2.4278956413	-1.7890020502	 0.113456
H	-3.9588344439	-1.8200617254	-0.5347022858	 0.126569
H	-1.9416655331	-0.2772261516	-2.2267429787	 0.110094
H	-4.716098999	 2.5644622753	-0.7900979143	 0.196306
57.4513	89.8029	127.3098	200.4593	276.3309	295.7138	380.6348	402.3483	459.7792	514.5929	574.3344	622.1155	628.7001	712.1216	738.2606	796.0394	897.6403	900.8378	959.7796	967.9283	1010.0192	1036.397	1066.283	1084.5838	1145.5664	1156.1907	1189.666	1232.7863	1255.9234	1274.2243	1333.8806	1364.7718	1419.89	1458.2021	1481.041	1488.1594	2237.5849	2988.3814	3056.7111	3074.3052	3079.7651	3142.6353	3186.8348	3504.9006	3805.8052
OCC12OC1CC2C#C	OC[C@]12O[C@H]1C[C@H]2C#C	
InChI=1S/C7H8O2/c1-2-5-3-6-7(5,4-8)9-6/h1,5-6,8H,3-4H2	InChI=1S/C7H8O2/c1-2-5-3-6-7(5,4-8)9-6/h1,5-6,8H,3-4H2/t5-,6+,7-/m1/s1
