18
gdb 35759	3.03429	1.46437	1.30507	5.3616	74.45	-0.2575	0.035	0.2925	1025.9083	0.150696	-401.956385	-401.949121	-401.948176	-401.988135	28.671	
N	-0.036436172	-1.1612446784	-0.3598617469	-0.325685
C	-0.0100222376	-0.021174318	-0.1723517812	 0.280576
C	-0.0041931308	 1.4259339579	 0.0510805764	-0.155492
C	-0.686773483	 1.8208842977	 1.401568162	-0.240947
C	 0.3338449683	 1.9684185424	 2.5557323158	-0.203253
C	 1.6881903573	 2.4009030974	 1.9966722635	 0.099661
C	 1.558865549	 3.3147888806	 0.756349084	-0.270418
C	 1.4497779196	 1.954634294	 0.0389839109	 0.0902
O	 2.1592568278	 1.3243947352	 1.1288344432	-0.281651
H	-0.5623887515	 1.8813733444	-0.7763831975	 0.122892
H	-1.1906945023	 2.778082629	 1.2415814534	 0.114596
H	-1.4674412604	 1.1007390363	 1.6546468844	 0.128816
H	-0.0385863797	 2.690397014	 3.2910970603	 0.102725
H	 0.4810352996	 1.0162960669	 3.075184025	 0.129271
H	 2.4182266997	 2.6538871157	 2.7690127693	 0.08551
H	 0.7298717095	 4.0226100614	 0.6962561388	 0.104623
H	 2.4990681684	 3.812995143	 0.5183854047	 0.121707
H	 1.9395849282	 1.8050202005	-0.9258764662	 0.096867
98.8886	145.9941	260.5523	307.5352	391.7159	415.4332	436.2008	549.5277	591.7443	682.8832	769.7588	812.4107	832.574	880.3958	897.448	916.9991	952.5215	970.7135	985.4243	1022.1361	1053.5288	1086.8216	1115.9865	1127.7737	1186.5298	1209.7314	1234.6741	1261.2169	1279.1164	1309.9701	1330.7405	1345.2819	1354.3017	1373.0226	1383.9889	1475.8774	1486.9942	1510.6447	2358.0799	3034.4303	3042.6102	3064.7465	3077.9944	3086.4277	3088.5741	3092.2873	3113.1105	3142.6506
N#CC1CCC2CC1O2	N#C[C@H]1CC[C@@H]2C[C@H]1O2	
InChI=1S/C7H9NO/c8-4-5-1-2-6-3-7(5)9-6/h5-7H,1-3H2	InChI=1S/C7H9NO/c8-4-5-1-2-6-3-7(5)9-6/h5-7H,1-3H2/t5-,6-,7-/m1/s1
