21
gdb 111359	2.01994	1.62989	1.08858	0.7632	87.61	-0.2526	0.048	0.3006	1203.8497	0.181651	-349.896177	-349.887027	-349.886083	-349.929894	35.298	
C	-0.1471532841	 1.5610019833	 0.0079972101	-0.385318
C	-0.1933579551	 0.0304282358	 0.0734205589	-0.196651
C	 0.7019754165	-0.5495869202	 1.162890738	 0.019042
C	 0.718880732	-2.0651671391	 1.3965735718	-0.073025
C	 1.3564777122	-2.8012290391	 0.2494626995	-0.286022
C	 2.2375446089	-2.1125853293	 1.2483230296	-0.048603
C	 2.2851823973	-0.5949735867	 0.9705316855	-0.218006
C	 2.8578077164	-0.167248039	-0.2932563523	 0.353131
C	 3.3219313977	 0.1752074343	-1.3497731685	-0.482041
H	 0.8651274126	 1.9136874227	-0.2108896667	 0.129484
H	-0.8103010658	 1.9436771153	-0.7740758769	 0.109391
H	-0.4617161903	 2.0073916618	 0.9584715304	 0.107293
H	-1.2224002962	-0.3011554468	 0.266112316	 0.092061
H	 0.0872883196	-0.3855485459	-0.9003964721	 0.104871
H	 0.49907417	-0.031039616	 2.1060892112	 0.073845
H	 0.0973547082	-2.5784228654	 2.120865535	 0.084053
H	 1.3300006633	-3.8830909644	 0.3313057236	 0.111117
H	 1.2912973042	-2.4324835094	-0.7701797188	 0.119916
H	 2.9720316602	-2.6431023607	 1.8412258176	 0.08995
H	 2.7707853507	-0.0576340039	 1.7897843046	 0.101814
H	 3.7412832915	 0.4790282028	-2.2767210667	 0.193699
94.8472	110.5115	132.8859	182.0016	210.3186	267.5902	353.6015	367.794	468.0665	547.0413	579.836	618.6292	625.9644	671.4747	759.7348	789.8291	804.6615	813.7202	921.6341	943.4902	970.7197	996.9347	1005.3124	1027.1597	1051.794	1064.7879	1086.8516	1091.7426	1123.1857	1142.8303	1170.5096	1216.4775	1261.5804	1288.4507	1294.4674	1331.1202	1338.4519	1368.1717	1399.2911	1409.849	1477.9294	1493.7662	1499.194	1508.5806	2224.3119	3021.1071	3030.3509	3040.3019	3064.5158	3069.8917	3097.5784	3111.4619	3121.3003	3174.218	3187.3602	3206.786	3503.4793
CCC1C2CC2C1C#C	CC[C@H]1[C@H]2C[C@H]2[C@H]1C#C	
InChI=1S/C9H12/c1-3-6-7(4-2)9-5-8(6)9/h1,6-9H,4-5H2,2H3	InChI=1S/C9H12/c1-3-6-7(4-2)9-5-8(6)9/h1,6-9H,4-5H2,2H3/t6-,7+,8-,9+/m0/s1
