18
gdb 105845	2.07296	1.6089	1.22126	3.4568	72.09	-0.2329	0.0014	0.2344	1114.4224	0.146561	-439.071931	-439.06292	-439.061976	-439.105804	32.877	
C	 0.2799121529	 1.3676272895	 0.3580679174	-0.334336
N	-0.298035144	 0.1677002937	-0.255017824	-0.377492
C	 0.5136309262	-0.4535479725	-1.2248407601	 0.119093
C	 0.631978831	 0.1128644267	-2.6592641321	-0.050241
C	 1.9197317534	 0.5054991578	-3.3473607021	-0.426969
C	 0.1787499319	-1.2864759535	-2.4543714894	 0.006523
O	 1.3269733195	-2.1493386647	-2.2283039125	-0.267875
C	 1.6102268229	-1.4855504367	-1.033941145	 0.402613
O	 2.4068782502	-1.7956833327	-0.2089300602	-0.330374
H	 1.2405851688	 1.1913353039	 0.8633543841	 0.126711
H	 0.4346023883	 2.1270208029	-0.4146224794	 0.128728
H	-0.4290518603	 1.7700909101	 1.086628972	 0.123612
H	-0.5732272385	-0.4958067234	 0.4608527097	 0.233023
H	-0.2060530783	 0.7893062546	-2.8236387262	 0.113196
H	 2.6905842632	-0.2567932278	-3.2170296011	 0.148874
H	 1.7497790279	 0.6289549292	-4.4219635061	 0.12706
H	 2.2999332979	 1.4537746905	-2.9556791652	 0.126311
H	-0.7422660631	-1.7625827678	-2.75909036	 0.131545
78.4047	123.8438	147.8959	181.2329	186.3321	264.7208	284.6975	333.0418	427.1177	498.5043	596.4044	651.5107	711.3673	743.8782	793.092	805.3239	906.7948	926.2614	938.5206	982.6906	1048.3369	1057.5206	1074.6706	1104.1536	1134.5964	1156.9173	1196.4647	1230.7055	1280.352	1344.3423	1417.3904	1444.7657	1473.5134	1484.077	1491.8478	1494.2759	1504.5952	1522.9591	1929.5184	2998.4318	3043.4884	3078.2142	3104.3241	3115.6417	3124.499	3139.5032	3226.7906	3529.2538
CNC12C(C)C1OC2=O	CN[C@]12[C@@H](C)[C@H]1OC2=O	
InChI=1S/C6H9NO2/c1-3-4-6(3,7-2)5(8)9-4/h3-4,7H,1-2H3	InChI=1S/C6H9NO2/c1-3-4-6(3,7-2)5(8)9-4/h3-4,7H,1-2H3/t3-,4+,6+/m0/s1
