21
gdb 63798	2.88914	1.65765	1.48612	1.6351	79.92	-0.224	0.0836	0.3077	1003.4388	0.18339	-387.065148	-387.057358	-387.056414	-387.0967	32.357	
C	-0.0206777048	 1.5542876391	 0.0418722405	-0.448797
C	 0.0036229929	 0.0230586508	-0.006899485	 0.321855
C	-1.423018254	-0.5465469751	-0.030115721	-0.440094
C	 0.8417958533	-0.5261584202	-1.2124135287	-0.274974
C	 1.6352961289	-1.6982954884	-0.6378166092	-0.086077
C	 2.5244833064	-1.3833497375	 0.549501614	 0.091166
O	 2.1670260405	-0.1210033274	 1.1158179559	-0.312969
C	 0.7711662485	-0.5757404874	 1.1825782385	 0.071695
C	 1.1866194189	-2.0066870604	 0.7815157171	-0.162857
H	 0.9939970714	 1.9492229399	 0.1362014449	 0.134141
H	-0.4699988676	 1.9667928215	-0.8678997688	 0.108591
H	-0.6099676081	 1.914329496	 0.8930248957	 0.104987
H	-1.9769888341	-0.1628163327	-0.8934927526	 0.114393
H	-1.4163683477	-1.639639071	-0.0972902269	 0.117428
H	-1.9789730827	-0.2665945933	 0.8720029983	 0.109965
H	 0.1910230767	-0.8516291912	-2.0300920239	 0.093953
H	 1.506718524	 0.2465402884	-1.6102118028	 0.104257
H	 1.9474439325	-2.5195983147	-1.273779714	 0.085272
H	 3.5392887918	-1.7363401256	 0.6899774354	 0.100651
H	 0.3437925559	-0.3936662158	 2.1713369249	 0.072832
H	 0.8756608373	-2.9558354452	 1.1935249876	 0.094583
144.4349	233.8572	244.9209	268.7162	322.0164	359.1376	365.4973	473.3973	506.2101	579.6377	711.3919	743.7223	797.4285	802.3909	821.7642	885.5122	897.9743	924.9247	948.5307	955.6807	967.2177	987.4581	1010.391	1029.9088	1036.0128	1048.1298	1074.1772	1111.3702	1161.5401	1200.1572	1216.6675	1240.131	1249.2784	1279.4307	1285.2165	1319.0248	1338.6742	1395.2229	1402.2144	1421.2512	1486.104	1490.6653	1495.2306	1503.8639	1514.6527	3024.2015	3029.8264	3047.0123	3084.4929	3087.9112	3090.4862	3094.2054	3097.669	3120.69	3173.2657	3184.2757	3213.7367
CC1(C)CC2C3OC1C23	CC1(C)C[C@H]2[C@H]3O[C@@H]1[C@@H]23	
InChI=1S/C8H12O/c1-8(2)3-4-5-6(4)9-7(5)8/h4-7H,3H2,1-2H3	InChI=1S/C8H12O/c1-8(2)3-4-5-6(4)9-7(5)8/h4-7H,3H2,1-2H3/t4-,5+,6-,7-/m1/s1
