21
gdb 73845	2.52862	1.54496	1.09994	1.8167	85.47	-0.2241	0.0285	0.2526	1176.3811	0.182701	-387.100442	-387.091671	-387.090727	-387.133707	33.325	
C	 0.0642667928	 1.541210285	 0.0053089596	-0.495823
C	-0.0244139414	 0.0474811411	-0.0436054541	 0.221998
C	-1.1197727669	-0.7230327088	 0.054350062	 0.220598
C	-2.5451168512	-0.299482472	 0.2386113976	-0.50291
C	-0.7854722481	-2.1895485122	-0.0653183861	-0.163101
C	-0.9121747387	-2.7897899611	-1.4871888898	-0.077023
O	 0.4948518092	-2.5920831485	-1.7336215557	-0.294097
C	 0.7346945514	-2.2087480074	-0.3573782771	 0.120193
C	 1.2420216064	-0.7718470242	-0.2130470507	-0.316026
H	 0.7365528465	 1.8669254948	 0.8099556454	 0.12361
H	 0.4851879952	 1.9385484447	-0.927372702	 0.1282
H	-0.9052462501	 2.0187711358	 0.1649891557	 0.121543
H	-2.659568522	 0.7852490017	 0.2972455312	 0.123859
H	-3.1736360955	-0.6562614759	-0.5878307147	 0.125323
H	-2.9666418262	-0.7314750437	 1.1557831212	 0.123283
H	-1.1842466418	-2.8032798094	 0.7476892501	 0.071958
H	-1.1837441861	-3.854064235	-1.5126760267	 0.091948
H	-1.5385676808	-2.2411178542	-2.2011024212	 0.098295
H	 1.3507929869	-2.9547974026	 0.1563822811	 0.067204
H	 1.8134738199	-0.4849084663	-1.105099335	 0.11513
H	 1.9167337104	-0.6508623619	 0.6467164091	 0.095838
117.8154	131.5815	146.1679	171.567	218.9395	293.7046	326.1255	376.6881	411.825	556.1339	574.3228	634.8815	734.2337	815.8399	868.2093	874.2696	900.6298	958.9486	970.5575	1005.9478	1024.225	1030.1044	1051.5815	1076.0324	1086.4725	1108.7713	1164.4876	1181.3913	1195.2166	1215.4889	1252.8225	1269.5033	1322.5428	1333.9225	1358.9464	1360.3961	1409.6536	1420.5767	1466.8854	1478.2244	1482.1703	1486.6525	1493.1262	1520.6293	1731.3548	3000.129	3001.8399	3013.8486	3016.9101	3041.4687	3047.7269	3049.7549	3055.8785	3058.4919	3066.5872	3113.6228	3120.5157
CC1=C(C)C2COC2C1	CC1=C(C)[C@H]2CO[C@H]2C1	
InChI=1S/C8H12O/c1-5-3-8-7(4-9-8)6(5)2/h7-8H,3-4H2,1-2H3	InChI=1S/C8H12O/c1-5-3-8-7(4-9-8)6(5)2/h7-8H,3-4H2,1-2H3/t7-,8+/m1/s1
