17
gdb 66724	1.98232	1.84924	1.78396	2.1477	72.19	-0.2066	0.0497	0.2563	944.7397	0.133324	-421.705456	-421.697132	-421.696188	-421.737761	32.434	
C	-0.0349238755	 1.4583307109	 0.1177623844	-0.526579
C	 0.0075876002	-0.0288983265	 0.0026869395	 0.240524
C	 0.2840086708	-0.9967854392	-1.1905324591	-0.13039
C	-0.6235064547	-2.0473818644	-0.5674892519	-0.176081
C	 0.8644264966	-2.0304468194	-0.2365001805	-0.176079
C	 0.5933439675	-1.0603849289	 0.9665949873	 0.233004
O	 1.2917835236	-0.7785860642	 2.1112373097	-0.452763
C	-0.9090599124	-1.0774520039	 0.6323573524	 0.233008
O	-2.0327784066	-0.8163187751	 1.3716136378	-0.452763
H	 0.9278372623	 1.908944899	-0.1491095335	 0.121414
H	-0.8031480563	 1.8892623834	-0.5343975882	 0.121414
H	-0.2671624767	 1.7512553226	 1.1461670228	 0.135802
H	 0.5137326459	-0.8088251785	-2.2328627712	 0.083298
H	-1.2036497588	-2.8312353891	-1.0385130856	 0.086807
H	 1.6063798185	-2.7992495591	-0.413426445	 0.086808
H	 1.1470241842	-1.4875265968	 2.7487990056	 0.286288
H	-2.1566678686	-1.5250225108	 2.0138195755	 0.286288
146.1546	156.098	179.9505	216.717	268.9354	353.4667	361.2095	399.417	412.1453	616.604	634.6521	694.8212	733.2208	747.4817	756.1273	785.2593	797.5647	858.2735	912.4951	958.6797	984.0268	1004.9526	1010.9585	1080.0379	1088.9871	1170.2724	1178.5315	1202.2187	1265.5203	1271.6015	1305.4646	1368.2544	1401.6885	1414.7796	1482.4273	1487.6395	1513.0719	3024.4581	3081.5285	3105.8674	3172.3783	3181.859	3195.5561	3770.2753	3770.7424
CC12C3C4C3C1(O)C24O	C[C@@]12[C@@H]3[C@H]4[C@@H]3[C@]1(O)[C@@]24O	
InChI=1S/C7H8O2/c1-5-2-3-4(2)7(5,9)6(3,5)8/h2-4,8-9H,1H3	InChI=1S/C7H8O2/c1-5-2-3-4(2)7(5,9)6(3,5)8/h2-4,8-9H,1H3/t2-,3+,4-,5+,6+,7-
