17
gdb 28415	3.07591	1.35826	0.94869	2.2173	81.02	-0.1926	-0.0108	0.1819	1200.5186	0.137508	-418.084606	-418.0762	-418.075255	-418.117274	32.248	
C	-0.0420769243	 1.5475829595	-0.0144221697	-0.488784
C	 0.0192176947	 0.0453693343	-0.0329960564	 0.201581
C	-0.0063538902	-0.6985663928	-1.2018917092	-0.216813
C	 0.0505484704	-2.1003768438	-1.1711856359	 0.260827
N	 0.093077784	-2.856691821	-2.3532285666	-0.595814
C	 0.1314270165	-2.696786008	 0.0850984629	-0.073006
N	 0.1619809127	-2.0023515986	 1.2286345759	-0.363708
C	 0.1082720432	-0.6848256492	 1.1653811275	 0.345461
O	 0.1376223343	 0.0068357679	 2.3356521924	-0.424728
H	 0.8438389265	 1.9723549185	 0.4698416758	 0.13989
H	-0.1090659064	 1.9519498424	-1.0277316994	 0.115123
H	-0.906780094	 1.9007981848	 0.5577726297	 0.138424
H	-0.0672347482	-0.1858335548	-2.1587951916	 0.087373
H	-0.4137594638	-2.4398678656	-3.1222329317	 0.244201
H	-0.1964256783	-3.8173230165	-2.2279442811	 0.244786
H	 0.1768319801	-3.7802978128	 0.1766058734	 0.092712
H	 0.1994277527	-0.6618558243	 3.0308820639	 0.292475
118.5218	142.0591	207.1566	233.618	268.3791	325.9175	384.8495	457.1197	480.6919	500.5724	522.6543	581.1636	592.09	679.2823	737.3141	781.3295	806.3384	908.6442	917.2471	989.1463	1019.2608	1064.3416	1107.8067	1155.1882	1206.293	1297.0997	1321.9393	1348.7697	1365.8744	1414.2789	1473.5132	1476.0614	1496.8815	1522.0561	1637.6914	1653.3136	1663.5399	3034.2392	3088.3773	3116.6237	3141.7877	3156.8635	3546.5553	3639.6523	3776.7425
CC1=CC(N)=CN=C1O	Cc1cc(N)cnc1O	
InChI=1S/C6H8N2O/c1-4-2-5(7)3-8-6(4)9/h2-3H,7H2,1H3,(H,8,9)	InChI=1S/C6H8N2O/c1-4-2-5(7)3-8-6(4)9/h2-3H,7H2,1H3,(H,8,9)
