17
gdb 67390	3.00669	1.56886	1.43285	4.0847	72.35	-0.2413	0.0061	0.2474	974.2309	0.137881	-418.003133	-417.995898	-417.994954	-418.034537	28.775	
C	 0.0719749346	 1.538025163	 0.0861474211	-0.522461
C	-0.0633769462	 0.0574972842	-0.0618659905	 0.362645
C	 0.5003737661	-0.8200124072	-1.1100723373	-0.206639
N	 0.9778213334	-0.9494178944	 0.3284173309	-0.187014
C	-0.0614783415	-1.6928499646	 1.110084109	-0.159256
C	-1.2029642643	-0.8843821929	 0.4369045897	-0.110688
N	-1.6573080683	-1.5535798593	-0.7730531836	-0.311077
C	-0.5820814109	-1.7292354162	-1.6358182529	 0.416633
O	-0.5518866487	-2.4396458225	-2.6137740323	-0.375498
H	 1.0719168137	 1.8556618087	-0.2228054445	 0.141823
H	-0.6637195277	 2.0610275258	-0.5343503647	 0.135433
H	-0.0763636861	 1.8499506161	 1.1255607029	 0.128413
H	 1.2887659588	-0.5017860033	-1.7794078727	 0.117822
H	-0.0746278376	-2.7796011875	 0.9753182222	 0.110078
H	 0.0816258827	-1.4463786175	 2.1651961985	 0.118661
H	-2.0207448536	-0.4907634862	 1.0386095794	 0.093028
H	-2.3392752141	-2.2985559162	-0.7236184353	 0.248096
143.7159	192.8743	216.3034	266.1783	396.9149	446.7983	475.4186	541.7716	598.1856	642.7232	694.7628	715.7231	797.9633	816.5493	886.3482	905.3238	935.7059	949.5807	1001.7077	1030.7943	1078.6876	1098.5807	1116.0767	1152.4753	1182.1718	1218.3964	1239.4285	1262.5439	1297.8997	1339.8932	1389.958	1409.5935	1443.8085	1481.4039	1490.7341	1495.5504	1835.2564	3033.1141	3044.5233	3097.0013	3109.3752	3116.3342	3127.4201	3211.8055	3595.1787
CC12C3N1CC2NC3=O	C[C@@]12[C@H]3N1C[C@@H]2NC3=O	
InChI=1S/C6H8N2O/c1-6-3-2-8(6)4(6)5(9)7-3/h3-4H,2H2,1H3,(H,7,9)	InChI=1S/C6H8N2O/c1-6-3-2-8(6)4(6)5(9)7-3/h3-4H,2H2,1H3,(H,7,9)/t3-,4-,6+,8?/m0/s1
