16
gdb 51354	6.14477	0.92593	0.89268	2.427	70.55	-0.2387	0.0235	0.2622	1266.734	0.124335	-437.805229	-437.79786	-437.796916	-437.83819	27.739	
O	-0.1934797675	-0.0616101355	 0.375136379	-0.319463
C	-0.1159020649	 1.1187413674	 0.1117486226	 0.155556
N	 1.037533179	 1.7916575037	-0.1622401111	-0.303628
C	 2.3369159215	 1.1645340962	-0.17173412	 0.035988
C	 3.2969065213	 1.4747042673	-1.3421734406	-0.127696
C	 3.7748444728	 2.8194470759	-0.6925879383	 0.074277
O	 5.1903824895	 2.5019590685	-0.7822016554	-0.323473
C	 4.5444651071	 1.240141806	-0.4355893145	 0.092604
C	 3.5074178113	 1.8829617075	 0.5363368472	-0.127817
H	-0.9983840919	 1.7874838155	 0.0656858145	 0.07549
H	 0.9675308377	 2.7763997741	-0.3670823678	 0.248071
H	 2.1881313498	 0.1131351572	 0.073368286	 0.126448
H	 3.2058743315	 1.2529859378	-2.4048419003	 0.093516
H	 3.4633072628	 3.8467767395	-0.8809666891	 0.098671
H	 5.1554331763	 0.3480067497	-0.310148331	 0.107956
H	 3.6534928637	 2.1210492393	 1.5892820287	 0.093501
33.2867	130.4808	182.6987	242.9474	382.0316	496.8374	524.6815	563.23	718.5972	738.3444	798.4341	804.8657	829.0662	879.9159	901.8656	918.1457	974.2722	981.8769	1030.1963	1033.0349	1065.9821	1102.886	1126.922	1146.216	1168.9525	1170.5868	1182.1485	1209.9187	1245.3006	1286.9469	1335.541	1376.7052	1433.8675	1539.2733	1807.7165	2935.9462	3114.7408	3127.4092	3130.2559	3132.5034	3146.1198	3625.8938
O=CNC1C2C3OC2C13	O=CN[C@H]1[C@H]2[C@@H]3O[C@H]2[C@H]13	
InChI=1S/C6H7NO2/c8-1-7-4-2-5-3(4)6(2)9-5/h1-6H,(H,7,8)	InChI=1S/C6H7NO2/c8-1-7-4-2-5-3(4)6(2)9-5/h1-6H,(H,7,8)/t2-,3+,4-,5-,6+
