18
gdb 62452	3.59428	1.1745	1.14625	4.5829	76.7	-0.2548	0.0289	0.2838	1134.8942	0.148385	-401.954055	-401.945716	-401.944771	-401.987049	31.117	
C	-0.0211136069	 1.5442254233	 0.0513521579	-0.472261
C	 0.0256231361	 0.0278999863	-0.0181807546	 0.107748
C	-1.1243500971	-0.6418258135	 0.5337671574	 0.234392
N	-2.0428234036	-1.1862964516	 0.9810264197	-0.345068
C	 0.691453114	-0.7311942636	-1.1825005361	-0.116053
C	 1.6089000435	 0.0579088041	-2.1141618657	-0.277722
C	 2.8914974153	 0.2300327986	-1.2690652589	-0.070711
O	 2.5054833366	 0.0582335616	 0.1057651324	-0.257061
C	 1.3551404691	-0.7264685394	 0.1545134436	 0.066925
H	 0.9749857001	 1.9632020456	-0.0983614286	 0.140723
H	-0.7019660529	 1.9581491385	-0.6983884904	 0.133202
H	-0.3693122791	 1.862440001	 1.0375065764	 0.143286
H	 0.1770482851	-1.6066791465	-1.5575528391	 0.119853
H	 1.8029976382	-0.5039867966	-3.0306887682	 0.120095
H	 1.1797148684	 1.0208303944	-2.404741396	 0.120673
H	 3.6425036357	-0.5272008573	-1.5326021044	 0.109925
H	 3.3489047203	 1.2182772202	-1.3625211315	 0.119054
H	 1.404519437	-1.5817224753	 0.8198418661	 0.122998
101.5496	134.7379	158.4386	168.6761	229.7046	281.1101	403.3012	437.3543	552.3227	559.3956	655.8508	698.9894	733.6667	821.6488	862.8632	876.2867	930.3267	961.154	968.7644	1027.4894	1050.1005	1074.0509	1092.2248	1137.8318	1145.6985	1195.2912	1230.3267	1243.9573	1283.9834	1301.0177	1312.7667	1377.5866	1396.5645	1417.2727	1484.9694	1497.8639	1503.5603	1522.4055	2343.253	3011.7465	3050.4951	3064.266	3094.3746	3112.219	3116.1306	3143.9513	3169.9145	3195.9996
CC1(C#N)C2CCOC12	C[C@@]1(C#N)[C@H]2CCO[C@@H]12	
InChI=1S/C7H9NO/c1-7(4-8)5-2-3-9-6(5)7/h5-6H,2-3H2,1H3	InChI=1S/C7H9NO/c1-7(4-8)5-2-3-9-6(5)7/h5-6H,2-3H2,1H3/t5-,6+,7+/m0/s1
