20
gdb 87258	4.27757	0.80741	0.76566	2.8262	77.55	-0.2518	0.0298	0.2816	1540.9579	0.168594	-440.303274	-440.292994	-440.29205	-440.339655	36.304	
C	 1.8731797662	 1.3887358543	 0.1125198576	-0.425714
C	 1.1627674562	 0.0603653369	 0.1472749438	 0.032193
O	 1.7840295931	-1.00879339	 0.8772533249	-0.310239
C	 0.4997860901	-0.5247758564	 1.3279935687	 0.367377
C	 0.4802171835	 0.1515244281	 2.6794684243	-0.462244
C	-0.6104153309	-1.5385097874	 1.0912873978	-0.222326
N	-0.4178764184	-2.7227039716	 1.9107181192	-0.2676
C	-1.3385990374	-3.1772947247	 2.8012290372	 0.154599
O	-2.422091572	-2.6727286962	 3.009662617	-0.325394
H	 2.2431746499	 1.6846843349	 1.0953029294	 0.129595
H	 2.7283292847	 1.3364464969	-0.569377112	 0.133186
H	 1.1987584445	 2.1684065707	-0.2577702765	 0.12586
H	 0.7758513886	-0.2543684226	-0.8253191129	 0.084713
H	 1.3816041785	 0.7421315644	 2.8459269843	 0.128606
H	-0.3937777042	 0.8052439859	 2.7690530787	 0.129919
H	 0.4159152412	-0.5985865365	 3.4735327959	 0.135364
H	-1.5878516218	-1.1288215985	 1.3574433146	 0.148413
H	-0.6302025074	-1.8188514563	 0.0318608836	 0.109196
H	 0.4643100806	-3.2041321354	 1.8288481826	 0.258609
H	-0.983304435	-4.0848648365	 3.3283928017	 0.075888
33.4133	49.1547	146.8025	154.9351	160.7765	218.5939	244.5457	274.05	319.4405	374.2182	413.9444	479.499	567.6364	576.7422	706.4706	765.2046	802.8834	889.4003	943.6359	956.5384	991.0933	1027.1655	1033.4083	1088.4029	1107.8868	1136.8855	1179.6111	1207.7818	1234.5082	1285.1025	1349.8803	1388.653	1410.0522	1420.155	1429.1319	1460.5635	1474.7048	1483.4902	1487.2074	1499.9008	1517.7917	1530.9918	1803.3196	2938.1417	3035.8722	3041.0939	3046.8152	3073.3315	3101.5686	3107.6533	3117.5951	3136.8084	3148.1765	3631.6563
CC1OC1(C)CNC=O	C[C@H]1O[C@]1(C)CNC=O	
InChI=1S/C6H11NO2/c1-5-6(2,9-5)3-7-4-8/h4-5H,3H2,1-2H3,(H,7,8)	InChI=1S/C6H11NO2/c1-5-6(2,9-5)3-7-4-8/h4-5H,3H2,1-2H3,(H,7,8)/t5-,6-/m1/s1
