16
gdb 60512	2.62526	1.23514	0.96606	2.8547	72.46	-0.2473	-0.0791	0.1682	1215.6723	0.122459	-437.827612	-437.818677	-437.817733	-437.861888	32.412	
O	-0.041962806	 1.4694116673	-0.1086660124	-0.432188
C	-0.0831610819	 0.0731801926	-0.0133812932	-0.021661
C	 0.4600643542	-0.5860249766	-1.2806826759	-0.009759
C	 0.278984778	 0.0894309594	-2.5847169115	-0.241654
N	 1.6145809199	 0.0106296644	-1.9581955484	-0.314328
C	 0.7196007553	-0.3617500445	 1.2188559923	 0.221868
O	 1.2772645263	 0.475051169	 1.9022748799	-0.315926
C	 0.7575774558	-1.7703775873	 1.5244012773	 0.286465
C	 0.7618214886	-2.9496049438	 1.7650740494	-0.397877
H	 0.4736328109	 1.7666238485	 0.6604948992	 0.301476
H	-1.1183241002	-0.2775620575	 0.1416796136	 0.108711
H	 0.4675516728	-1.6725699486	-1.2412869648	 0.10353
H	 0.1580934674	-0.5041026881	-3.4861438209	 0.118148
H	-0.2258447488	 1.0500787934	-2.5833854428	 0.132648
H	 1.8008549054	 0.9120702715	-1.5202334922	 0.234709
H	 0.7779221023	-3.9892914098	 1.9885671205	 0.225837
65.8043	76.1937	123.4617	187.7289	251.3477	272.7157	336.781	378.4829	484.7204	513.9919	584.3121	628.3042	658.5455	692.5074	718.8182	813.226	855.7196	881.3422	945.4977	992.8826	1018.9394	1094.4438	1117.0362	1141.0119	1172.9491	1206.9192	1251.0146	1278.5084	1312.6828	1343.4561	1388.9657	1437.0332	1502.5657	1750.3065	2216.6367	2959.5762	3119.6342	3141.6547	3212.4552	3479.3578	3491.3375	3654.6192
OC(C1CN1)C(=O)C#C	O[C@@H]([C@H]1CN1)C(=O)C#C	
InChI=1S/C6H7NO2/c1-2-5(8)6(9)4-3-7-4/h1,4,6-7,9H,3H2	InChI=1S/C6H7NO2/c1-2-5(8)6(9)4-3-7-4/h1,4,6-7,9H,3H2/t4-,6+/m1/s1
