20
gdb 56279	4.87184	0.64651	0.63058	5.4727	76.26	-0.247	0.0223	0.2692	1796.5655	0.171345	-440.29936	-440.29005	-440.289106	-440.334894	33.814	
O	-0.5095977156	 0.0105170542	-0.5450974518	-0.362387
C	-0.2440551261	 1.2885856359	-0.2363758902	 0.421961
O	 0.6957525398	 1.8949135231	-0.6719353381	-0.331767
C	-1.249560899	 1.8844805873	 0.7639677115	-0.308153
N	-2.464939146	 1.0763254723	 0.8369214226	-0.318487
H	-1.3328221612	-0.1973776781	-0.0494739261	 0.301036
H	-2.8431552122	 1.0658484659	 1.7769107657	 0.234424
C	-3.5172373907	 1.4729492522	-0.1078432678	-0.162763
C	-4.7389331897	 0.6040202491	 0.0522269754	 0.011902
C	-5.7630960698	 0.9336055885	 1.1153252078	-0.263307
C	-6.0944188425	 1.1253756007	-0.3432681924	-0.270235
H	-0.7552303593	 1.8852239659	 1.7412576077	 0.139301
H	-1.4229228089	 2.9334969072	 0.4892896229	 0.128875
H	-3.7980148055	 2.5331827859	 0.017948959	 0.092714
H	-3.1093945338	 1.3745013789	-1.1218318934	 0.124315
H	-4.5575879802	-0.4524869481	-0.1241400209	 0.094192
H	-6.2338643171	 0.116592603	 1.6501722311	 0.11913
H	-5.6069100485	 1.8251501934	 1.7151946293	 0.111141
H	-6.1593032427	 2.141783155	-0.717399003	 0.117522
H	-6.7898219309	 0.4371553677	-0.8097359694	 0.120584
55.7924	58.334	85.8927	126.7754	185.6267	304.6356	328.2184	388.129	409.2894	544.1381	561.9829	664.9913	763.3096	780.4242	820.4584	839.0776	862.1146	883.7856	918.7405	927.0707	977.8052	1016.2752	1058.5796	1083.2809	1097.7381	1130.5192	1142.7246	1177.6019	1199.5595	1215.7497	1226.9455	1256.3811	1281.1064	1347.3035	1361.2234	1416.7137	1433.2497	1467.405	1469.6442	1478.8467	1504.5833	1514.8179	1880.0004	2953.7269	3021.5236	3044.2689	3082.636	3128.4684	3137.3889	3149.9394	3209.6644	3225.5116	3468.169	3543.6136
[O-]C(=O)C[NH2+]CC1CC1	OC(=O)CNCC1CC1	
InChI=1S/C6H11NO2/c8-6(9)4-7-3-5-1-2-5/h5,7H,1-4H2,(H,8,9)	InChI=1S/C6H11NO2/c8-6(9)4-7-3-5-1-2-5/h5,7H,1-4H2,(H,8,9)
