18
gdb 64671	3.16512	1.05217	0.94634	3.6193	78.26	-0.2483	0.0322	0.2806	1283.3717	0.145217	-401.946219	-401.9369	-401.935956	-401.980566	34.938	
C	-0.018298112	 1.6262255569	-0.1456769457	-0.439155
C	-0.0265209573	 0.102270493	-0.0758302998	 0.337002
C	-1.4411897449	-0.462725462	 0.1884924925	-0.391441
C	-1.9647195555	-0.0786119571	 1.4940592019	 0.29492
C	-2.3579315472	 0.2447401199	 2.5833476505	-0.440724
C	 0.7366920481	-0.6333223306	-1.2257752852	-0.45851
C	 1.6801405783	-1.1612890698	-0.1166984227	 0.440062
O	 2.6359976154	-1.886801079	-0.0654839167	-0.361311
N	 0.9846957207	-0.4600826915	 0.8372355751	-0.345294
H	 0.996084814	 1.9947989607	-0.3199991257	 0.124558
H	-0.6605918541	 1.9784218028	-0.9597422477	 0.121815
H	-0.3897269156	 2.0605773763	 0.7872635728	 0.135567
H	-2.1186577617	-0.1178633439	-0.6029437177	 0.134978
H	-1.403374021	-1.5564496363	 0.1193423162	 0.135271
H	-2.7270126018	 0.5237936574	 3.5393163758	 0.201906
H	 0.1744421816	-1.4106368955	-1.7467908125	 0.127837
H	 1.2203406839	 0.021515601	-1.9525349619	 0.130075
H	 1.0558793694	-0.4346715623	 1.8443910607	 0.252444
49.6629	84.9271	138.8233	230.9886	300.0022	319.1098	335.5849	366.392	386.5137	413.9795	490.1328	534.2616	563.5314	628.0951	649.3709	683.5529	793.3285	876.2189	902.048	920.8626	964.3604	978.0258	988.2286	1070.6881	1106.2822	1156.6964	1193.3747	1204.4516	1258.545	1302.7835	1327.1886	1380.1232	1412.088	1458.0779	1462.1039	1489.3559	1498.5853	1896.7326	2235.4233	3024.5891	3038.9367	3062.9823	3083.1428	3109.1342	3121.3866	3141.9964	3504.0083	3606.3996
CC1(CC#C)CC(=O)N1	C[C@@]1(CC#C)CC(=O)N1	
InChI=1S/C7H9NO/c1-3-4-7(2)5-6(9)8-7/h1H,4-5H2,2H3,(H,8,9)	InChI=1S/C7H9NO/c1-3-4-7(2)5-6(9)8-7/h1H,4-5H2,2H3,(H,8,9)/t7-/m1/s1
