20
gdb 58168	2.9486	1.04224	0.91886	3.5207	84.75	-0.2413	-0.0223	0.2189	1368.7712	0.167623	-403.144652	-403.133841	-403.132897	-403.181218	38.359	
C	-0.0209027603	 1.5962111991	 0.0822286719	-0.400841
C	-0.0457526678	 0.0648046637	 0.0309970771	 0.038792
C	 0.7939737905	-0.5682891308	 1.1493723668	-0.390789
N	-1.4242481422	-0.4572287226	 0.0348185155	-0.107445
C	-2.3447709344	-0.0036091953	 1.0626244236	-0.351489
C	-1.7533065254	-1.3941851808	-0.9079231378	 0.327179
O	-0.9744007023	-1.8161066505	-1.7501084947	-0.382048
C	-3.125058707	-1.8933853113	-0.8834792741	 0.173298
C	-4.2258954351	-2.3724788642	-0.961187873	-0.391259
H	 1.0056855071	 1.9482161756	-0.0547455419	 0.123693
H	-0.6359419916	 2.0276167512	-0.7131225679	 0.125228
H	-0.3747360664	 1.9852254892	 1.0426717493	 0.11594
H	 0.3651646802	-0.2604637922	-0.9260520821	 0.131852
H	 0.42458144	-0.2968279021	 2.1443774177	 0.113081
H	 0.7905003118	-1.658132238	 1.0634318536	 0.132945
H	 1.8304955909	-0.2241195008	 1.0788086901	 0.120428
H	-2.6036231316	 1.0534169013	 0.9340967131	 0.130624
H	-3.2613996894	-0.5895922961	 1.0154943486	 0.156255
H	-1.907385279	-0.1303482737	 2.0592178311	 0.128828
H	-5.1970927678	-2.7979318817	-1.0323614068	 0.205725
31.8067	68.1275	94.5429	161.9093	184.36	227.4351	253.3911	265.3581	280.455	315.2263	386.0415	448.0078	477.1448	528.4334	604.4241	643.499	677.8387	731.054	754.4226	844.7241	930.9761	951.5469	960.441	1089.2465	1131.8178	1139.8041	1156.8111	1201.4629	1259.9509	1356.7855	1372.0476	1398.3782	1418.0654	1440.268	1463.2003	1482.3404	1486.2938	1494.0293	1503.1337	1511.2277	1526.1245	1721.6994	2218.7241	3027.4373	3034.2648	3040.0227	3077.776	3092.1822	3101.4428	3115.4802	3119.2871	3122.6756	3158.3494	3496.3152
CC(C)N(C)C(=O)C#C	CC(C)N(C)C(=O)C#C	
InChI=1S/C7H11NO/c1-5-7(9)8(4)6(2)3/h1,6H,2-4H3	InChI=1S/C7H11NO/c1-5-7(9)8(4)6(2)3/h1,6H,2-4H3
