19
gdb 52075	2.74006	0.90629	0.74848	3.8142	77.9	-0.2473	-0.0269	0.2204	1513.4584	0.156491	-423.038439	-423.028823	-423.027879	-423.074095	34.038	
O	-0.3091605254	-0.0046316616	-0.3887947016	-0.239245
C	-0.0180810337	 1.1084206918	-0.0329099439	 0.156043
C	 1.3367511037	 1.7508626618	-0.2108030638	-0.275495
C	 1.2373630703	 3.0749733199	-0.9954125669	-0.304235
C	 2.5661665422	 3.796119453	-1.1199708197	 0.270689
C	 3.5943195622	 3.3241983446	-2.1446337229	-0.299012
C	 2.8724408938	 4.6053344427	-2.3801558822	-0.317838
C	 3.1284376937	 4.373592949	 0.1249740583	 0.11935
O	 2.6010305025	 4.3234556361	 1.2103182807	-0.274028
H	-0.7701814543	 1.7624171825	 0.4691843074	 0.07375
H	 1.7346471977	 1.9721888872	 0.7872480715	 0.14703
H	 2.0005926838	 1.036803319	-0.7063990655	 0.115256
H	 0.8410395627	 2.8768101791	-1.9977514125	 0.107461
H	 0.5232967876	 3.738801728	-0.4940640292	 0.122723
H	 4.6429379488	 3.3634784311	-1.8687317485	 0.128625
H	 3.3171255086	 2.4546527704	-2.7300615495	 0.135326
H	 2.088921623	 4.6360589632	-3.1287671378	 0.133765
H	 3.4180419576	 5.5359793683	-2.2641492293	 0.128897
H	 4.1093419953	 4.8870051239	-0.0132928244	 0.070938
53.1973	65.6922	110.774	142.6196	154.1397	242.3044	292.2326	327.1929	362.2761	432.667	533.0733	542.0409	753.5599	782.3677	808.5021	841.192	855.9701	920.9214	948.5731	990.9944	1010.1362	1050.0467	1058.9843	1086.7038	1093.0538	1111.5757	1194.2068	1198.1273	1267.074	1284.0026	1326.5898	1359.3962	1380.8665	1432.0189	1441.881	1463.9055	1468.3463	1481.8898	1498.8028	1809.2034	1835.1902	2852.5289	2854.211	3031.4598	3043.8885	3073.2358	3108.7963	3134.6337	3136.7086	3214.9777	3228.9896
O=CCCC1(CC1)C=O	O=CCCC1(CC1)C=O	
InChI=1S/C7H10O2/c8-5-1-2-7(6-9)3-4-7/h5-6H,1-4H2	InChI=1S/C7H10O2/c8-5-1-2-7(6-9)3-4-7/h5-6H,1-4H2
