17
gdb 87843	2.96027	1.41174	1.18954	2.8387	68.64	-0.2353	0.0585	0.2937	1065.5959	0.133462	-458.880031	-458.871648	-458.870704	-458.912654	32.52	
O	-0.0213238243	 1.3225364844	-0.0833979171	-0.438426
C	 0.0473755152	-0.0681340907	-0.0016996021	 0.044415
C	-0.4471443533	-0.7716746694	 1.2598075421	-0.39452
C	-1.2414198139	-0.8178803874	-0.003994841	 0.357126
O	-2.4656191141	-0.0643615096	-0.1335464045	-0.331055
C	-3.0704329993	-1.1696790157	-0.827590862	 0.046182
C	-2.3381848858	-1.4735856221	-2.1102255317	-0.370863
C	-1.804189026	-1.9846145662	-0.7871112627	 0.22696
O	-1.6016191365	-3.3096888657	-0.4755112606	-0.446504
H	-0.9272275789	 1.5415361845	-0.3384986987	 0.297316
H	 0.9121231143	-0.4841529325	-0.5144406277	 0.095782
H	 0.0485181032	-1.6844935603	 1.5747868178	 0.123331
H	-0.8279246027	-0.1400304236	 2.0554936524	 0.131376
H	-4.1100709895	-1.3873956844	-0.6209333459	 0.122514
H	-2.8136411562	-2.2408037224	-2.7150681155	 0.120877
H	-1.8356067021	-0.6821413601	-2.6596755715	 0.121292
H	-0.9874594899	-3.6838198387	-1.1165559113	 0.294196
114.4315	141.4018	189.6425	246.4893	292.2909	310.1067	384.6934	441.2561	450.171	465.7813	537.6698	627.3613	688.8761	786.2859	835.1031	869.3926	893.9071	929.8861	952.4297	990.383	1002.2118	1009.8622	1027.5263	1062.2664	1077.8332	1093.0768	1135.5665	1161.007	1242.6439	1248.6306	1301.3908	1321.5147	1376.4479	1407.4383	1422.5972	1473.9473	1508.0263	3111.7422	3125.2997	3128.797	3203.2095	3210.1052	3225.0237	3759.8228	3799.4688
OC1CC11OC2CC12O	O[C@H]1C[C@]21O[C@H]1C[C@@]21O	
InChI=1S/C6H8O3/c7-3-1-6(3)5(8)2-4(5)9-6/h3-4,7-8H,1-2H2	InChI=1S/C6H8O3/c7-3-1-6(3)5(8)2-4(5)9-6/h3-4,7-8H,1-2H2/t3-,4-,5-,6+/m0/s1
