15
gdb 5133	5.7831	1.35854	1.13068	1.3725	72.75	-0.1993	0.0424	0.2416	1013.363	0.119675	-325.52953	-325.52215	-325.521206	-325.561741	27.726	
C	-0.1406094864	-0.9988756758	-0.8310184521	-0.445026
C	-0.0461926008	 0.0312612176	-0.2182554772	 0.287855
C	 0.0912968946	 1.3070545819	 0.4809556413	-0.465552
C	 1.4516414369	 1.9331975652	 0.3196307918	 0.321474
C	 2.1393810177	 2.8129167538	 1.1262138382	-0.23607
C	 3.3593342446	 3.1346894327	 0.4671835042	-0.141597
C	 3.3800999603	 2.4395822791	-0.7191190039	-0.095647
N	 2.2140960178	 1.7212015895	-0.8002487938	-0.277463
H	-0.239228391	-1.922236714	-1.3462956269	 0.20057
H	-0.6944398242	 1.9873233802	 0.1194232012	 0.146455
H	-0.1082176339	 1.1657263851	 1.5496300434	 0.149807
H	 1.8004377056	 3.1865730922	 2.0809035914	 0.087859
H	 4.1319312403	 3.7969279624	 0.8265470987	 0.091578
H	 4.1203671623	 2.3865672817	-1.5009313624	 0.113794
H	 1.9692910163	 1.0660042385	-1.5238566041	 0.261964
39.8029	119.8408	238.0149	317.8529	331.0649	468.0952	525.0055	620.5703	629.9402	646.5752	654.768	711.4144	730.3605	788.9936	847.1447	898.1718	943.5447	946.2284	986.0027	1053.8447	1114.1459	1145.3046	1210.5767	1253.4676	1285.0157	1327.4284	1438.257	1461.5509	1478.8657	1496.1635	1609.884	2236.3627	2992.0045	3053.856	3238.2043	3251.733	3272.1016	3504.3925	3664.7221
C#CCC1=CC=CN1	C#CCc1ccc[nH]1	
InChI=1S/C7H7N/c1-2-4-7-5-3-6-8-7/h1,3,5-6,8H,4H2	InChI=1S/C7H7N/c1-2-4-7-5-3-6-8-7/h1,3,5-6,8H,4H2
