19
gdb 74122	2.19951	1.57047	0.9528	4.4086	87.02	-0.2373	-0.0581	0.1792	1238.033	0.1602	-385.93096	-385.922486	-385.921542	-385.964338	32.094	
C	 0.3472473862	 1.5325002444	 0.0610688347	-0.471055
C	-0.0038666029	 0.0708858459	-0.0287604527	 0.292036
C	-0.0571537331	-0.5345945547	-1.2257412497	-0.229476
C	-0.4831916894	-1.9028060616	-1.5942136421	 0.342796
O	-0.6851333966	-2.1456167478	-2.7778141772	-0.346061
C	-0.6598393773	-3.0079566327	-0.6198153513	-0.133427
C	-0.3004507426	-3.0691232579	 0.6663214494	-0.066466
C	 0.2889808702	-1.9769367967	 1.5146938418	-0.258401
C	-0.3188438534	-0.585238202	 1.2976627749	-0.298709
H	 1.2477138273	 1.678535298	 0.6716144772	 0.13138
H	 0.5175582991	 1.9764205758	-0.9218806924	 0.131363
H	-0.4553482825	 2.091534154	 0.5598951276	 0.133465
H	 0.1554672446	 0.0549616771	-2.1141547461	 0.096632
H	-1.0647799048	-3.8953158098	-1.0986570329	 0.10609
H	-0.431527329	-4.0258489259	 1.1686955174	 0.103855
H	 0.1616674694	-2.2481318047	 2.5683378892	 0.109606
H	 1.3753568053	-1.9313671976	 1.3490212178	 0.12518
H	 0.030290397	 0.0715155809	 2.1019233354	 0.104763
H	-1.4098977375	-0.6479439546	 1.4153729489	 0.126429
53.9428	152.3754	172.0281	225.2727	288.5378	325.0497	344.6589	393.5639	490.6438	502.7071	571.3052	644.6218	705.0283	809.2873	818.17	834.8566	881.0705	928.1801	965.6359	1003.4653	1032.859	1053.8927	1062.4014	1081.2463	1150.3827	1192.9457	1230.0458	1289.8853	1312.5818	1339.845	1368.7203	1405.6582	1410.434	1424.1165	1471.4862	1474.2732	1480.6472	1483.8963	1694.2762	1702.6829	1720.0453	3004.7494	3014.1465	3018.0717	3060.2743	3062.4737	3064.9855	3125.5686	3140.1667	3160.4692	3175.9462
CC1=CC(=O)C=CCC1	CC1=CC(=O)C=CCC1	
InChI=1S/C8H10O/c1-7-4-2-3-5-8(9)6-7/h3,5-6H,2,4H2,1H3	InChI=1S/C8H10O/c1-7-4-2-3-5-8(9)6-7/h3,5-6H,2,4H2,1H3
