19
gdb 64037	2.304	1.53604	1.15997	3.9382	78.27	-0.2432	-0.0202	0.223	1127.0272	0.1592	-419.256023	-419.247083	-419.246139	-419.289931	33.084	
C	-0.0374228055	 1.5492708981	 0.0134175538	-0.425944
C	-0.0279472182	 0.0162205627	-0.0007804334	 0.252849
C	-1.4508838806	-0.5539916306	-0.0248525923	-0.426007
C	 0.8477485807	-0.5508904464	-1.173510291	-0.211671
N	 1.9597212293	-1.3075436217	-0.5845590452	-0.259147
C	 1.8294423273	-1.2431118172	 0.6781398765	 0.082012
N	 0.736759149	-0.5186096852	 1.1585934097	-0.091521
C	 0.4489333067	-0.3497846979	 2.4887135208	 0.146567
O	 1.1054454575	-0.8071875118	 3.3978379267	-0.319327
H	 0.982147243	 1.9431326993	 0.0531443597	 0.133129
H	-0.5161796311	 1.9285330658	-0.8950780156	 0.127571
H	-0.5920250205	 1.9426043444	 0.871482108	 0.121877
H	-1.9673624652	-0.2315892039	-0.9346445939	 0.127589
H	-1.4308899211	-1.6474509853	-0.0117014974	 0.133116
H	-2.03926377	-0.2101618984	 0.8319776194	 0.121886
H	 0.2645477007	-1.208857505	-1.8274488576	 0.118696
H	 1.2460051497	 0.2536475194	-1.8018148837	 0.118703
H	 2.4924480791	-1.7011582937	 1.4016188467	 0.165949
H	-0.4608678309	 0.2580342875	 2.6483854089	 0.083671
45.5278	110.2313	206.9235	238.6703	273.4391	274.0016	317.6661	333.4634	352.888	435.1028	539.0565	555.2058	607.2435	792.1447	854.4854	884.5979	922.5925	953.1113	974.802	986.6347	989.1801	1031.7113	1043.1218	1173.6534	1177.3829	1201.4118	1240.7225	1277.8004	1296.2067	1334.308	1396.9283	1405.6022	1423.4952	1443.638	1482.6548	1486.7592	1493.6627	1502.6134	1508.6785	1702.5777	1793.2293	2960.0749	3034.4271	3034.5668	3040.3752	3068.4464	3104.154	3109.5387	3115.8928	3118.1069	3231.9066
CC1(C)CN=CN1C=O	CC1(C)CN=CN1C=O	
InChI=1S/C6H10N2O/c1-6(2)3-7-4-8(6)5-9/h4-5H,3H2,1-2H3	InChI=1S/C6H10N2O/c1-6(2)3-7-4-8(6)5-9/h4-5H,3H2,1-2H3
