18
gdb 72383	2.76628	2.16501	1.43123	2.1353	74.86	-0.2458	0.0167	0.2626	919.8031	0.150075	-401.921295	-401.914505	-401.913561	-401.952042	28.178	
C	 0.0359533674	 1.540441089	-0.159925636	-0.478571
C	 0.019363923	 0.0421217449	 0.0487669967	 0.46302
O	 0.298595641	-0.5104026049	-1.2539224934	-0.282944
C	 0.3329171985	-1.8553738699	-1.3038079884	 0.109738
N	 0.1427632449	-2.6262645039	-0.3172381003	-0.29733
C	-0.1231500117	-1.9109591215	 0.9065363571	 0.049498
C	 0.7532196559	-0.6500961922	 1.2411038045	-0.137481
C	-0.4118910499	-0.1932613565	 2.154184209	-0.246086
C	-1.1029460498	-0.6831809879	 0.8571448702	-0.137483
H	 1.0121464146	 1.8502982127	-0.5450664299	 0.131141
H	-0.7179489404	 1.8198651966	-0.9021205313	 0.131129
H	-0.163478048	 2.0908454803	 0.7595611546	 0.126719
H	 0.5468569321	-2.2188339606	-2.3059286777	 0.126573
H	-0.2825291308	-2.6008765929	 1.7363213469	 0.079114
H	 1.8233205935	-0.6385801797	 1.4486376997	 0.079757
H	-0.5828962139	-0.8170308139	 3.0345117433	 0.103057
H	-0.4830384101	 0.8639892856	 2.406906936	 0.100395
H	-2.1673159063	-0.709781205	 0.6231929492	 0.079753
178.2831	209.5092	300.0881	358.9734	394.3622	451.9255	547.4181	586.4081	605.8826	649.8939	790.48	796.4587	853.4256	887.2628	899.0857	902.6733	949.762	962.7493	1010.4801	1013.0963	1067.8949	1084.8569	1098.4879	1105.5145	1165.9535	1171.7363	1185.1576	1201.671	1213.8672	1240.3584	1242.0848	1311.9507	1380.0737	1391.4834	1418.1986	1481.8629	1493.8298	1526.3328	1711.9697	3049.9373	3075.7226	3099.3306	3111.0899	3112.9878	3119.0666	3139.0903	3153.0271	3173.7353
CC12OC=NC3C1CC23	C[C@@]12O[CH][N][C@H]3[C@@H]1C[C@@H]23	
InChI=1S/C7H9NO/c1-7-4-2-5(7)6(4)8-3-9-7/h3-6H,2H2,1H3	InChI=1S/C7H9NO/c1-7-4-2-5(7)6(4)8-3-9-7/h3-6H,2H2,1H3/t4-,5+,6-,7+
