16
gdb 7248	3.04889	1.46773	1.1625	2.5935	66.45	-0.2607	-0.034	0.2267	1045.3595	0.126788	-383.724136	-383.715066	-383.714122	-383.758136	32.466	
C	-1.2722293718	 1.1685095455	 0.990573504	-0.410009
C	-0.4901585795	 0.356394148	-0.0557149182	 0.059534
O	 0.8894746618	 0.4348164456	 0.1856294149	-0.439904
C	-0.9279752192	-1.1052691985	-0.0636317	 0.371906
O	-0.1259466231	-1.9772600859	 0.1855476832	-0.320543
C	-2.394557002	-1.4647515239	-0.3393906893	-0.451544
C	-3.0828167996	-0.6213123082	-1.305736307	 0.306008
C	-3.6514656566	 0.0676972213	-2.1092574834	-0.44625
H	-0.8765781563	 2.1866686525	 1.0058076218	 0.140128
H	-2.3377394085	 1.2148257751	 0.7498128208	 0.127162
H	-1.1410692843	 0.7380953815	 1.9881978103	 0.124483
H	-0.7221133783	 0.7634430106	-1.0527172289	 0.107881
H	 1.1820951638	-0.4793690308	 0.3268988311	 0.291814
H	-2.4093115018	-2.5151562791	-0.6464385031	 0.165265
H	-2.9129998106	-1.4187879226	 0.6294898667	 0.165897
H	-4.153169724	 0.6754444487	-2.821408343	 0.208174
56.5243	77.3611	129.5186	214.0494	243.6203	312.2443	332.6774	369.6216	404.0864	439.4826	493.8708	561.2874	635.2714	652.0796	674.6755	759.3285	899.1459	925.3891	988.3511	1040.5858	1092.504	1122.4446	1194.5166	1209.1463	1288.0589	1302.9545	1352.4507	1396.2292	1434.0029	1440.9428	1493.3821	1498.7525	1796.1938	2241.6082	2987.2719	3015.9833	3044.4797	3084.2337	3122.1806	3131.9108	3503.4642	3691.564
CC(O)C(=O)CC#C	C[C@@H](O)C(=O)CC#C	
InChI=1S/C6H8O2/c1-3-4-6(8)5(2)7/h1,5,7H,4H2,2H3	InChI=1S/C6H8O2/c1-3-4-6(8)5(2)7/h1,5,7H,4H2,2H3/t5-/m1/s1
