21
gdb 79853	2.74037	1.66741	1.20899	1.6607	82.16	-0.2336	0.0888	0.3224	1096.783	0.183295	-387.054084	-387.046091	-387.045147	-387.086008	32.326	
C	-0.1250650371	 1.6055756584	 0.0075922662	-0.43572
C	 0.0153650688	 0.0882733301	 0.0184906257	 0.015184
C	 1.2149603003	-0.6019421961	-0.6826378898	-0.1415
C	 2.1289141349	-0.2039827555	 0.5148374859	 0.138429
O	 3.1253327973	-1.1794924572	 0.7364890192	-0.283394
C	 2.3967302166	-2.3973240737	 0.5460468212	-0.140606
C	 0.9971851566	-1.8772492528	 0.222132077	 0.312867
C	-0.0721954089	-2.9114351788	-0.0465538183	-0.509979
C	 0.7776396133	-0.6290400617	 1.1636402925	-0.141558
H	 0.8094942627	 2.1251514385	 0.235578574	 0.117552
H	-0.4652024898	 1.9536209732	-0.9741944315	 0.116299
H	-0.8702286623	 1.9284774317	 0.7432618948	 0.116306
H	-0.9510964419	-0.3667631117	-0.2171365798	 0.064506
H	 1.4747856429	-0.5951488443	-1.7438475536	 0.063803
H	 2.5463393898	 0.7931978109	 0.6283744139	 0.084691
H	 2.8373203756	-2.9796805466	-0.2742971569	 0.096881
H	 2.426243158	-3.0050486729	 1.460391931	 0.096878
H	-0.20006751	-3.5713626149	 0.8192130965	 0.120237
H	-1.044410279	-2.462868658	-0.266296727	 0.125023
H	 0.2026734409	-3.5411767453	-0.9005275627	 0.120291
H	 0.5338742214	-0.6534192433	 2.2283945216	 0.063812
182.3733	185.3309	224.9727	234.5716	248.6151	326.2086	362.5325	438.6995	502.3373	612.3802	692.0656	726.1182	741.9234	803.0518	815.7652	876.6038	919.2855	946.2165	991.6841	996.6962	1006.7946	1032.8136	1064.833	1074.2118	1085.1783	1116.4228	1124.6579	1152.8947	1173.9144	1188.0866	1210.8336	1243.769	1244.2172	1261.6501	1284.8814	1330.6706	1390.2237	1406.8424	1414.4709	1427.4903	1490.8963	1494.7048	1496.5331	1501.752	1519.1194	3004.5003	3029.8019	3031.8563	3040.6142	3055.4037	3083.2815	3085.194	3088.5541	3088.6936	3111.1218	3113.715	3159.1246
CC1C2C3OCC2(C)C13	C[C@H]1[C@H]2[C@@H]3OC[C@@]2(C)[C@H]13	
InChI=1S/C8H12O/c1-4-5-7-6(4)8(5,2)3-9-7/h4-7H,3H2,1-2H3	InChI=1S/C8H12O/c1-4-5-7-6(4)8(5,2)3-9-7/h4-7H,3H2,1-2H3/t4-,5-,6+,7-,8+
