15
gdb 12941	2.5789	2.19715	1.72161	3.6555	61.54	-0.2362	0.0038	0.24	827.8574	0.117971	-399.784285	-399.77661	-399.775666	-399.815942	28.577	
C	 0.0583749491	 1.5593327831	 0.0495674364	-0.424282
C	 0.096811943	 0.0490116387	 0.1053976052	-0.080276
C	 1.311984538	-0.8040500358	-0.1629052147	-0.078687
N	 2.5407623934	-0.2066316051	 0.3718634372	-0.336085
C	 2.0222518789	-0.1337546153	 1.6806753852	 0.337266
O	 2.4701408704	 0.3117211891	 2.6980046846	-0.343285
C	 0.7165998233	-0.8011768824	 1.2313206551	 0.221591
O	 0.0442186814	-1.8188196357	 1.8626711477	-0.444705
H	 0.9991784791	 2.0056017891	 0.3827522242	 0.128079
H	-0.1342311194	 1.903518432	-0.972308783	 0.124676
H	-0.737241397	 1.9541083942	 0.6895364265	 0.128404
H	-0.8165598379	-0.4380134064	-0.2368220923	 0.103617
H	 1.3601681615	-1.6236066973	-0.8676045784	 0.121748
H	 3.0245401797	 0.5703440018	-0.0643832506	 0.242567
H	-0.5591409336	-1.4325573299	 2.5072057068	 0.299371
136.0361	174.019	196.5918	237.9337	262.0767	311.5338	390.9649	500.4658	538.5885	630.8589	692.6975	727.6226	761.4953	794.5351	917.1549	934.4732	974.854	983.9792	1077.2377	1103.2869	1107.9289	1150.9721	1213.442	1269.4119	1314.3964	1319.6708	1356.6489	1418.5214	1473.7762	1489.7719	1502.6737	1896.8723	3036.851	3097.6841	3109.4243	3124.8064	3206.9061	3546.5001	3800.6502
CC1C2NC(=O)C12O	C[C@H]1[C@H]2NC(=O)[C@@]12O	
InChI=1S/C5H7NO2/c1-2-3-5(2,8)4(7)6-3/h2-3,8H,1H3,(H,6,7)	InChI=1S/C5H7NO2/c1-2-3-5(2,8)4(7)6-3/h2-3,8H,1H3,(H,6,7)/t2-,3+,5+/m0/s1
