17
gdb 35199	3.44286	1.19781	1.08879	3.6549	77.43	-0.2452	0.0233	0.2686	1137.5142	0.136846	-380.81984	-380.812184	-380.81124	-380.852227	29.447	
N	 0.0131533583	-1.1172169117	-0.1023052179	-0.339826
C	-0.0093617433	 0.0391174173	-0.0536045802	 0.289224
C	-0.0056076948	 1.4721526983	-0.0034413444	-0.250072
C	 0.5087851573	 2.18266001	 1.246399468	-0.356298
C	 1.330785553	 2.2031161561	 0.0085022772	 0.364971
C	 2.7480165915	 1.6534688842	-0.1743817337	-0.25036
N	 3.1678140961	 2.9003572153	-0.9170272179	-0.120174
C	 2.3063288155	 2.9652538927	-2.1092856383	-0.239524
C	 1.7311612951	 3.3975131311	-0.8176539997	-0.121918
H	-0.821587727	 1.9459843838	-0.5396574367	 0.134685
H	-0.0205784468	 3.0838736221	 1.537643437	 0.133559
H	 0.8379664464	 1.5605339913	 2.0716595569	 0.143684
H	 3.3084746505	 1.5649830401	 0.7586030284	 0.125313
H	 2.8565262083	 0.7324534493	-0.755694606	 0.128783
H	 2.6097723285	 3.7407396681	-2.8057578355	 0.129138
H	 1.9665272923	 2.0403743457	-2.5712553784	 0.122859
H	 1.496171239	 4.4314164863	-0.5845597987	 0.105957
89.737	118.5997	179.6951	285.6536	323.4224	413.7828	480.59	494.7268	548.8205	619.8616	744.7844	780.4734	801.0718	829.5404	891.1596	911.5128	946.0024	965.162	1001.405	1047.4536	1059.6594	1082.0132	1087.5392	1113.8501	1116.9313	1130.0067	1194.2803	1213.2062	1243.5769	1281.677	1308.0775	1346.6356	1429.3263	1487.546	1490.2103	1504.8435	2348.7526	3053.4359	3104.3077	3115.6501	3133.4721	3160.5662	3164.4752	3200.7842	3224.1924
N#CC1CC11CN2CC12	N#C[C@H]1C[C@]21CN1C[C@@H]21	
InChI=1S/C7H8N2/c8-2-5-1-7(5)4-9-3-6(7)9/h5-6H,1,3-4H2	InChI=1S/C7H8N2/c8-2-5-1-7(5)4-9-3-6(7)9/h5-6H,1,3-4H2/t5-,6+,7-,9?/m1/s1
