19
gdb 40604	3.80607	1.16423	1.1081	1.7857	79.03	-0.228	0.058	0.2861	1174.5033	0.159198	-385.783328	-385.775754	-385.77481	-385.81585	30.286	
C	-0.2642335142	 1.3252453654	-0.244534427	-0.266309
C	 1.1799211929	 1.3571248469	 0.1835021108	-0.266327
C	 0.4831949137	 0.0308740936	-0.0184751196	-0.020089
C	 0.1414924895	-0.7842271151	 1.1950056937	 0.008534
C	-0.6725680638	-2.051119423	 1.3288220952	-0.141491
C	-0.3068775201	-3.182540348	 0.3196723982	 0.02013
O	 0.7116139379	-2.7331987344	-0.5846694717	-0.237993
C	 1.0903205063	-3.1519706056	 0.7338306113	 0.020113
C	 0.8014731055	-2.0188816923	 1.7656986541	-0.141488
H	-1.0144038877	 1.6138841062	 0.4851969187	 0.104263
H	-0.5113593673	 1.6015249618	-1.263624194	 0.109159
H	 1.9308039406	 1.6554447169	-0.5397735266	 0.109158
H	 1.3991658026	 1.6671936905	 1.2005391315	 0.104263
H	 0.7568697035	-0.5255987077	-0.9004498976	 0.11547
H	-0.1196119556	-0.1262666455	 2.0273702744	 0.085855
H	-1.5477003202	-2.1148004095	 1.9636699551	 0.089862
H	-0.9484300508	-3.9912529487	-0.008686406	 0.10851
H	 1.839091121	-3.9302840152	 0.8174386358	 0.108518
H	 1.1913684763	-2.0547771863	 2.7754689938	 0.089862
51.1131	148.4562	189.7487	300.3574	329.5306	392.6691	565.7928	641.6706	705.3296	722.1459	764.3399	780.7104	826.8185	834.3011	855.7683	883.3938	884.2416	923.4542	940.1299	955.1689	974.3973	1005.5338	1038.1241	1045.2444	1056.7178	1072.528	1089.4742	1091.9666	1148.0857	1200.2751	1218.7639	1224.8099	1236.5418	1261.2003	1278.9187	1305.9735	1332.92	1401.0234	1469.3332	1470.3338	1504.3711	3078.8789	3125.3708	3130.2762	3177.8627	3187.6724	3189.1734	3201.4666	3202.8783	3215.8501	3248.8323
C1CC1C1C2C3OC3C12	C1CC1[C@H]1[C@H]2[C@H]3O[C@H]3[C@@H]12	
InChI=1S/C8H10O/c1-2-3(1)4-5-6(4)8-7(5)9-8/h3-8H,1-2H2	InChI=1S/C8H10O/c1-2-3(1)4-5-6(4)8-7(5)9-8/h3-8H,1-2H2/t4-,5+,6-,7+,8-
