15
gdb 20601	3.35761	2.00218	1.27224	1.1731	63.72	-0.2115	0.0335	0.245	914.99	0.119856	-396.002406	-395.994058	-395.993113	-396.035618	29.737	
C	-0.0238467986	 1.5199877918	 0.1522308855	-0.508374
C	-0.0167171753	 0.0399923359	-0.0211979826	 0.381823
C	 0.0565008141	-0.7152470787	-1.180987459	-0.027377
N	 0.1568573744	-0.2039487557	-2.5038576185	-0.62223
C	 0.0279305712	-2.056136871	-0.7205763852	 0.369493
O	 0.0911929834	-3.1451806003	-1.5194279478	-0.436207
N	-0.0543013751	-2.1479211453	 0.5946300283	-0.338178
N	-0.0871026374	-0.8468603175	 1.001026525	-0.286708
H	 0.1824540136	 1.9825453711	-0.8153934791	 0.159153
H	-0.9927406749	 1.8901258492	 0.5078206158	 0.131778
H	 0.7392866584	 1.8505529064	 0.865680326	 0.128855
H	-0.7130267701	-0.3314320045	-3.0137565901	 0.238784
H	 0.8645826965	-0.7113178928	-3.0263117372	 0.241404
H	 0.0774596946	-3.9191060988	-0.9425652694	 0.300834
H	-0.1551430147	-0.6503459597	 1.9836227082	 0.26695
35.555	138.9674	179.4429	243.915	276.7018	288.7061	324.8875	396.7673	439.8632	535.5896	588.9631	660.9223	730.8368	739.0006	794.0975	866.0993	996.4233	1057.3686	1064.3832	1149.5906	1221.1228	1228.2375	1293.2349	1323.5285	1409.9085	1458.7536	1487.8695	1493.4929	1540.5645	1566.1373	1641.3679	1678.3429	3027.8535	3078.9049	3132.3506	3486.4757	3550.9449	3688.662	3794.8961
CC1=C(N)C(O)=NN1	Cc1c(N)c(O)n[nH]1	
InChI=1S/C4H7N3O/c1-2-3(5)4(8)7-6-2/h5H2,1H3,(H2,6,7,8)	InChI=1S/C4H7N3O/c1-2-3(5)4(8)7-6-2/h5H2,1H3,(H2,6,7,8)
