21
gdb 76084	2.26998	1.23089	0.98954	0.7823	89.75	-0.235	0.0502	0.2852	1317.2594	0.180811	-349.898166	-349.888464	-349.88752	-349.933075	36.477	
C	-0.1478352561	 1.5383360854	-0.0325103158	-0.40792
C	 0.0351382795	 0.0406282974	 0.0596803525	-0.038551
C	 1.392794658	-0.6175695956	-0.2005482606	-0.239182
C	 2.5524213295	 0.1766046219	-0.4771560304	 0.35053
C	 3.5303680829	 0.835720484	-0.7196713049	-0.481391
C	 0.7642937916	-0.6254724066	 1.1972136454	-0.039149
C	 1.3764468177	 0.1313963098	 2.3317862268	 0.024386
C	 0.6835413359	 0.1636927448	 3.6737925131	-0.274155
C	 1.9610522796	-0.6195525029	 3.5033084404	-0.271159
H	 0.7542460929	 2.0790804639	 0.2608835327	 0.13168
H	-0.3859624302	 1.8342033435	-1.0595585763	 0.119241
H	-0.9689557105	 1.8695761263	 0.6121264967	 0.118025
H	-0.8017750744	-0.5279279983	-0.3383090752	 0.087817
H	 1.3665816064	-1.5632241031	-0.7346136924	 0.108185
H	 4.3954492171	 1.4115644938	-0.9361415607	 0.192485
H	 0.3695151522	-1.5953185263	 1.4926147763	 0.082942
H	 1.9071313637	 1.0328525188	 2.0468822191	 0.094886
H	 0.7117715478	 1.0844858044	 4.2460558887	 0.110554
H	-0.2415769871	-0.393843885	 3.7788433837	 0.108779
H	 1.8938211925	-1.7027092807	 3.4941210805	 0.109515
H	 2.868433461	-0.2370757555	 3.9570784005	 0.112482
49.6845	101.6579	122.3759	153.4775	178.1356	247.3364	300.373	352.5783	364.6008	511.2451	566.4862	603.4076	613.2404	647.8054	739.3159	762.0235	795.4203	825.3431	829.32	912.8805	931.6575	954.6091	991.0774	1024.7285	1041.3308	1060.2821	1076.2438	1100.8504	1130.3374	1145.3956	1147.5094	1197.794	1207.6037	1225.1119	1265.1292	1316.0567	1361.9394	1404.375	1422.7363	1458.5119	1470.4401	1491.3826	1499.7132	1508.8437	2228.957	3037.995	3095.6726	3118.7108	3124.5185	3128.3015	3133.2985	3135.9995	3146.8592	3172.3722	3206.1732	3222.1222	3505.3254
CC1C(C#C)C1C1CC1	C[C@H]1[C@@H](C#C)[C@H]1C1CC1	
InChI=1S/C9H12/c1-3-8-6(2)9(8)7-4-5-7/h1,6-9H,4-5H2,2H3	InChI=1S/C9H12/c1-3-8-6(2)9(8)7-4-5-7/h1,6-9H,4-5H2,2H3/t6-,8+,9+/m0/s1
