20
gdb 126159	3.67997	1.0346	0.88686	3.5131	80.16	-0.2577	0.0132	0.2709	1363.095	0.172678	-399.364856	-399.355916	-399.354971	-399.399314	32.641	
C	 0.10690936	 1.5219635391	-0.1116412308	-0.390726
C	 0.0433733266	-0.001982064	 0.0186846744	-0.175377
C	 0.6734191129	-0.5413964981	 1.3161554226	 0.064754
C	-0.0753002611	-0.1248725687	 2.5820176096	-0.419158
N	 0.7881986733	-2.0017929659	 1.23722613	 0.035752
C	 0.0580720698	-2.983639583	 1.8067751128	 0.015953
N	 0.4813863734	-4.1724279057	 1.4105795282	-0.285647
C	 1.4995708957	-3.8510488772	 0.5698745641	 0.033723
N	 1.7260576634	-2.5547631402	 0.428063171	-0.249873
H	 1.1383436857	 1.8834882177	-0.0335876035	 0.122092
H	-0.280487243	 1.8384694027	-1.0842506151	 0.123731
H	-0.4849899899	 2.0292417598	 0.6564600945	 0.119442
H	-0.9976649978	-0.3455470916	-0.0358417801	 0.101234
H	 0.5736800238	-0.4665654307	-0.8181511053	 0.13072
H	 1.7053517486	-0.1786764968	 1.3753742948	 0.111283
H	-1.131342135	-0.4114499095	 2.5391601691	 0.127679
H	 0.3725624568	-0.572259157	 3.4735614667	 0.134037
H	-0.0328606027	 0.9604308336	 2.6937844545	 0.134686
H	-0.7508483747	-2.7977829485	 2.4948444461	 0.140636
H	 2.095061534	-4.5888452761	 0.0527944161	 0.125058
41.6697	97.9358	118.3521	215.1711	248.9623	273.8437	287.4622	357.7745	406.6195	482.8783	668.7066	694.855	717.3031	791.602	848.4098	855.4208	907.7241	964.3332	976.6756	994.4539	1019.5958	1042.8973	1107.3764	1144.5324	1171.1542	1191.2111	1231.7603	1245.1001	1291.4339	1316.4977	1342.3696	1370.1956	1379.7761	1388.1243	1412.4428	1419.0197	1473.3942	1485.8436	1496.3257	1503.7554	1509.0597	1510.9267	1545.3716	3028.9889	3036.5775	3044.2971	3056.4385	3083.9132	3106.0204	3112.3403	3115.1248	3134.1079	3257.0539	3273.5631
CCC(C)N1C=NC=N1	CC[C@@H](C)n1cncn1	
InChI=1S/C6H11N3/c1-3-6(2)9-5-7-4-8-9/h4-6H,3H2,1-2H3	InChI=1S/C6H11N3/c1-3-6(2)9-5-7-4-8-9/h4-6H,3H2,1-2H3/t6-/m1/s1
