12
gdb 61112	2.46571	1.27128	1.04049	3.9516	63.72	-0.3486	-0.0576	0.291	1120.4922	0.075049	-431.673117	-431.664012	-431.663067	-431.707386	30.991	
O	-0.0973639286	 1.4164267646	-0.0078154454	-0.407551
C	-0.0315414069	 0.0126251979	-0.0086680874	 0.055286
C	 0.6631553585	-0.5513412559	-1.2928495113	-0.375239
C	 0.0524747034	-0.0384154479	-2.5139567543	 0.285233
N	-0.4134426052	 0.3638869434	-3.4903684623	-0.27457
C	 0.721278905	-0.4897893812	 1.1679850742	 0.281506
N	 1.3695910379	-0.8436906909	 2.0553319853	-0.29908
C	-1.4223246553	-0.482038204	 0.0649605012	 0.342723
N	-2.4935874132	-0.9076164527	 0.1054481015	-0.294478
H	 0.7962578296	 1.7735021017	 0.0741979649	 0.314369
H	 1.7192901389	-0.2626426826	-1.2610649037	 0.176924
H	 0.6231273561	-1.6449723926	-1.2808402426	 0.194876
67.5862	112.9693	130.4418	185.2038	196.5921	234.5564	286.5805	357.701	390.2248	461.3948	502.7603	529.9224	573.3813	627.332	744.108	902.7735	949.1555	1046.4955	1054.0702	1107.2757	1228.6794	1333.6651	1388.5911	1456.0143	2363.6208	2376.4553	2381.1796	3057.783	3105.4394	3790.8968
OC(CC#N)(C#N)C#N	OC(CC#N)(C#N)C#N	
InChI=1S/C5H3N3O/c6-2-1-5(9,3-7)4-8/h9H,1H2	InChI=1S/C5H3N3O/c6-2-1-5(9,3-7)4-8/h9H,1H2
