13
gdb 20338	5.48458	2.23305	1.87563	3.4658	61.89	-0.2553	-0.0165	0.2389	690.1667	0.098872	-357.589934	-357.584628	-357.583684	-357.619233	20.816	
C	-0.0378881078	 1.3929585452	-0.1687885655	-0.267112
C	 1.3235615688	 0.8069580753	 0.0874354192	-0.002273
C	 0.0931567433	-0.1052141336	 0.0948546579	-0.190466
C	 0.6710916043	-0.6974787732	-1.1732965418	 0.298698
N	 0.4467280392	-1.1180444036	-2.3985247566	-0.334374
C	 1.5162935938	-0.5391945616	-3.0564407333	 0.034735
N	 2.3064679567	 0.2602034413	-2.3436325983	-0.260705
N	 1.7908393563	 0.0563866673	-1.0968405729	 0.042413
H	-0.4583426532	 1.9814894985	 0.6427030057	 0.13388
H	-0.2937861092	 1.7418078129	-1.1636442973	 0.152749
H	 1.9965621096	 1.0797081149	 0.8878632817	 0.133625
H	-0.3635822669	-0.6099219612	 0.9330365029	 0.128074
H	 1.716993025	-0.7342930422	-4.1005866517	 0.130756
163.3726	289.2926	471.609	499.4398	660.6513	724.1444	749.5435	787.0729	824.7737	855.3046	903.6101	940.2554	985.8393	998.569	1018.5115	1045.2	1094.6007	1119.5639	1151.8209	1173.0973	1235.0289	1256.3801	1274.0117	1284.8288	1392.0478	1406.1674	1478.9223	1568.5741	3124.4921	3215.0268	3223.125	3235.5496	3249.5101
C1C2C1C1=NC=NN21	C1[C@H]2[C@@H]1[C]1[N]C=NN21	
InChI=1S/C5H5N3/c1-3-4(1)8-5(3)6-2-7-8/h2-4H,1H2	InChI=1S/C5H5N3/c1-3-4(1)8-5(3)6-2-7-8/h2-4H,1H2/t3-,4+/m1/s1
