18
gdb 27284	3.22886	1.53551	1.06963	3.5612	79.35	-0.1759	0.042	0.218	1107.3737	0.152227	-398.177493	-398.169886	-398.168942	-398.209492	29.428	
N	 0.0562942133	 1.4183085581	 0.1258695688	-0.597598
C	-0.0335549351	 0.0224115981	 0.0206314936	 0.119221
C	-1.1476287356	-0.7838757168	-0.0050488516	 0.287356
C	-2.6436074486	-0.8111272657	 0.044690611	-0.361086
C	-2.952008843	-2.276547454	-0.3857799668	-0.207763
C	-1.6911501129	-3.0940517417	-0.005853994	-0.179947
N	-0.6526688605	-2.0769080517	-0.0518153555	-0.002931
C	 0.6966622449	-2.0058699019	-0.0373549379	-0.034757
N	 1.105211357	-0.7467662141	-0.0073720176	-0.324724
H	 0.9935868197	 1.7186791136	-0.1130319763	 0.244693
H	-0.6140130809	 1.9044149325	-0.4564610542	 0.235522
H	-3.0253818785	-0.6096461245	 1.0550121151	 0.116546
H	-3.1238190496	-0.0891919414	-0.6234209975	 0.110756
H	-3.8551934154	-2.6777298956	 0.0790501226	 0.109136
H	-3.0902846247	-2.3149402915	-1.4702122444	 0.118975
H	-1.7701029703	-3.5172023607	 1.0032996147	 0.121539
H	-1.4865459119	-3.9109952298	-0.7030178228	 0.123163
H	 1.3372489619	-2.8739745828	-0.064339887	 0.121899
126.2355	165.3237	200.6659	237.8566	268.1322	341.0562	510.4475	570.4381	620.4772	644.1875	694.0899	723.3378	771.6578	786.9299	830.379	867.0685	896.718	918.8506	1001.0429	1048.6621	1086.1096	1099.3021	1179.254	1219.334	1227.3397	1234.5136	1253.9918	1300.3269	1323.9848	1340.7201	1380.4556	1399.797	1456.1549	1489.5714	1500.2127	1509.2202	1528.9368	1634.4007	1661.098	3007.8891	3025.9842	3057.748	3069.8853	3089.4028	3116.7192	3253.5287	3528.0975	3622.3086
NC1=C2CCCN2C=N1	Nc1c2CCCn2cn1	
InChI=1S/C6H9N3/c7-6-5-2-1-3-9(5)4-8-6/h4H,1-3,7H2	InChI=1S/C6H9N3/c7-6-5-2-1-3-9(5)4-8-6/h4H,1-3,7H2
