17
gdb 86025	3.46485	1.18374	1.12122	2.4555	76.01	-0.2535	-0.0119	0.2415	1131.5072	0.134493	-421.791243	-421.782557	-421.781613	-421.824263	33.729	
O	-0.6732757544	 1.3751808805	-0.8245591166	-0.442222
C	-0.0033859743	 0.3373755315	-0.1167466706	 0.090732
C	-0.9580170833	-0.7513666604	 0.4201843675	-0.261289
C	-1.0239451427	-1.7884456981	-0.7247359993	 0.160095
O	-2.0644890983	-1.3271189221	-1.6160347814	-0.457352
C	 0.3422480883	-1.6185309681	-1.3847631716	-0.126476
C	 0.8981595794	-0.4578064666	-1.0448990728	-0.096357
C	-1.2951266686	-3.1583026793	-0.29106333	 0.266935
C	-1.5128468312	-4.2956522583	 0.0323771823	-0.439295
H	-1.2168716393	 0.9358376921	-1.4919916961	 0.284762
H	 0.5399372193	 0.8416925056	 0.6871371028	 0.081818
H	-0.5345341297	-1.2238230332	 1.3094857376	 0.117247
H	-1.9474755598	-0.35893361	 0.6599546781	 0.124219
H	-2.0890616908	-1.9205087343	-2.375638728	 0.282734
H	 0.7307075798	-2.3495486028	-2.084742832	 0.106551
H	 1.8244880935	-0.0571055551	-1.4401672805	 0.109448
H	-1.7086047979	-5.2962824616	 0.3301781607	 0.198449
81.1171	131.7364	169.2272	236.208	307.1911	352.3576	388.9736	420.6853	484.0279	518.0397	532.6835	542.4524	623.7221	632.0396	666.3957	775.4415	798.3654	818.8932	855.3284	921.5917	965.8626	980.0647	1020.6916	1060.9347	1102.595	1103.0909	1144.1957	1209.91	1273.1975	1304.7373	1311.1024	1341.8208	1375.5432	1448.8354	1468.1649	1671.3405	2232.8753	3071.2915	3083.2905	3137.9876	3189.2913	3214.7334	3500.1977	3766.632	3800.6726
OC1CC(O)(C=C1)C#C	O[C@H]1C[C@@](O)(C=C1)C#C	
InChI=1S/C7H8O2/c1-2-7(9)4-3-6(8)5-7/h1,3-4,6,8-9H,5H2	InChI=1S/C7H8O2/c1-2-7(9)4-3-6(8)5-7/h1,3-4,6,8-9H,5H2/t6-,7+/m1/s1
