23
gdb 89298	2.17063	1.62769	1.12318	1.6865	84.84	-0.2496	0.0649	0.3145	1193.9973	0.205446	-388.269352	-388.260038	-388.259094	-388.302786	36.835	
C	 0.6269952857	 1.5966680627	-0.3945541487	-0.429306
C	 0.0654178366	 0.2089165715	-0.0885155183	 0.034731
C	 0.4766823724	-0.9554697146	-1.0464397786	-0.306444
C	 1.1089155425	-1.7208547776	 0.1417165026	 0.395578
C	 0.8181271856	-3.1978803024	 0.2941917941	-0.49771
C	 2.5686517615	-1.2553751256	 0.4547795423	-0.345873
C	 2.0259058865	-0.4317210233	 1.6569889732	 0.167022
O	 2.5625252232	 0.8273931255	 1.9807571599	-0.439207
C	 0.578223602	-0.6137253279	 1.1418649959	-0.143233
H	 1.6984398166	 1.5692200524	-0.6292556572	 0.106435
H	 0.133853451	 2.0192582694	-1.2771284026	 0.117216
H	 0.4710277384	 2.2914169372	 0.4374150777	 0.127284
H	-1.023519445	 0.2962659667	-0.0282780899	 0.077875
H	-0.3841906639	-1.4721201501	-1.4818458796	 0.093667
H	 1.1618168999	-0.6921626441	-1.8598678139	 0.088331
H	 1.2998612648	-3.7770310028	-0.5037251393	 0.115582
H	 1.1883676956	-3.5856334795	 1.2502249038	 0.113973
H	-0.2579169448	-3.3998546324	 0.2459351596	 0.111455
H	 3.2875491542	-2.0408568356	 0.7028331674	 0.098927
H	 3.0021444483	-0.6360468475	-0.3375886296	 0.08891
H	 2.1312302189	-1.0220698613	 2.5733456302	 0.090753
H	 2.5265638674	 1.3820011541	 1.196936475	 0.278319
H	-0.1824302075	-0.8087403746	 1.9012882662	 0.055715
75.196	166.7959	217.0469	230.5035	248.9453	294.7311	316.8997	334.367	359.9989	388.3534	431.8524	549.4051	569.9672	667.5341	707.1192	820.251	825.9424	867.5391	900.4853	927.5262	936.2239	954.4288	1003.2082	1026.3776	1051.5257	1094.2141	1098.2394	1125.5777	1145.566	1163.0842	1187.2105	1219.7083	1242.956	1247.364	1264.6976	1296.9839	1307.5615	1331.9145	1334.9738	1369.2357	1409.8265	1411.825	1439.612	1479.4194	1487.1513	1492.8914	1493.9945	1500.136	1515.535	3014.9836	3015.6843	3033.2406	3042.2978	3043.5473	3049.3814	3074.8741	3077.3316	3079.9855	3085.0156	3089.316	3096.3665	3099.6035	3846.9621
CC1CC2(C)CC(O)C12	C[C@H]1C[C@@]2(C)C[C@@H](O)[C@@H]12	
InChI=1S/C8H14O/c1-5-3-8(2)4-6(9)7(5)8/h5-7,9H,3-4H2,1-2H3	InChI=1S/C8H14O/c1-5-3-8(2)4-6(9)7(5)8/h5-7,9H,3-4H2,1-2H3/t5-,6+,7+,8-/m0/s1
