17
gdb 54037	2.18556	1.43782	1.02055	3.1317	70.11	-0.2468	-0.0317	0.2152	1180.9983	0.134222	-455.149092	-455.139859	-455.138914	-455.183839	32.978	
N	 0.8235894794	-0.1989714828	 0.6049132131	-0.513034
C	-0.2561001231	 0.2991936707	-0.0391991535	 0.376679
O	-0.3871066055	 1.4491323277	-0.4107268031	-0.36816
C	-1.350186823	-0.7498161526	-0.3342502857	-0.171272
C	-1.3443896583	-0.9862897645	-1.8473740388	 0.155299
O	-1.3780211459	-2.0699703478	-2.3646275935	-0.238704
N	-1.1739987834	-1.9759605822	 0.4135320169	-0.075038
C	-1.9741486285	-2.1385215004	 1.6313682629	-0.234845
C	-2.2817688633	-2.9259985099	 0.4084079646	-0.200263
H	 1.6109852533	 0.4023170758	 0.7801879024	 0.264625
H	 0.8588975464	-1.1842298133	 0.8139240222	 0.275709
H	-2.3038071067	-0.2295946151	-0.1266201347	 0.111075
H	-1.3175125199	-0.042549084	-2.4295123332	 0.116792
H	-1.4603105389	-2.5978465893	 2.4701662773	 0.12342
H	-2.6562076037	-1.3341391111	 1.9002562919	 0.122905
H	-3.1753753915	-2.6575138901	-0.1488707508	 0.12468
H	-1.9987351276	-3.9706691009	 0.3332282021	 0.13013
53.4908	82.6391	119.6091	173.7421	200.3724	251.6251	330.8337	352.3834	382.4904	458.387	547.2353	628.935	676.884	735.3739	756.0681	814.1253	890.0011	931.0669	947.1104	1025.7796	1056.6654	1088.0328	1100.819	1121.8725	1126.0811	1173.749	1203.2904	1231.6298	1308.2193	1336.556	1362.8813	1405.5585	1492.9346	1519.7142	1585.4646	1800.841	1836.8939	2930.452	2943.1068	3103.4512	3119.2309	3190.4015	3209.4876	3582.6819	3728.6488
NC(=O)C(C=O)N1CC1	NC(=O)[C@@H](C=O)N1CC1	
InChI=1S/C5H8N2O2/c6-5(9)4(3-8)7-1-2-7/h3-4H,1-2H2,(H2,6,9)	InChI=1S/C5H8N2O2/c6-5(9)4(3-8)7-1-2-7/h3-4H,1-2H2,(H2,6,9)/t4-/m1/s1
