14
gdb 22698	2.78709	1.3096	1.02839	3.9514	72.32	-0.2564	-0.0121	0.2443	1126.0348	0.101138	-432.74615	-432.738438	-432.737494	-432.778577	28.748	
O	-0.0772460061	 1.3509721616	 0.066097775	-0.392192
N	 0.0547771892	-0.0515289074	 0.0073998468	-0.304992
C	-1.0670164219	-0.6157931825	-0.0604013231	 0.458262
C	-2.5812266871	-0.4556230296	-0.0121205456	-0.132754
C	-2.6634677364	-1.5776605839	-1.0881888387	-0.223671
C	-1.5974643292	-2.0451401621	-0.0458642829	 0.141227
N	-2.6053086595	-1.5936540887	 1.0228758904	-0.330124
C	-0.8883624946	-3.296106558	 0.0219200354	 0.176053
N	-0.3130230996	-4.296911152	 0.066766947	-0.338379
H	 0.8428142098	 1.6352063795	 0.103367704	 0.314418
H	-3.1911132763	 0.4354333717	 0.0957848802	 0.125226
H	-3.5853416623	-2.1591106784	-1.0590772953	 0.136261
H	-2.3060219788	-1.349496011	-2.0912769359	 0.133379
H	-2.0938406072	-1.3066791193	 1.8636198728	 0.237285
109.0067	142.0933	176.18	227.0732	327.3471	404.2574	412.7381	517.7104	527.6682	543.6222	684.9227	713.0919	759.123	789.0756	867.1655	913.5249	955.3507	970.4299	1032.812	1055.6074	1102.4378	1152.216	1188.4629	1214.0759	1262.0073	1283.8136	1302.3356	1415.6577	1483.9322	1819.2332	2365.1345	3093.0079	3181.3399	3184.6092	3402.7294	3814.8608
ON=C1C2CC1(N2)C#N	ON=C1[C@H]2C[C@@]1(N2)C#N	
InChI=1S/C5H5N3O/c6-2-5-1-3(7-5)4(5)8-9/h3,7,9H,1H2	InChI=1S/C5H5N3O/c6-2-5-1-3(7-5)4(5)8-9/h3,7,9H,1H2/t3-,5-/m1/s1
