18
gdb 89444	2.85281	1.67617	1.41282	3.4747	70.1	-0.221	0.0577	0.2787	961.5959	0.148462	-439.034431	-439.026825	-439.025881	-439.065968	30.812	
O	-0.0281952083	 1.4231092034	-0.1421944289	-0.424512
C	 0.0483596845	 0.0114683974	 0.0197541377	 0.076004
C	 0.6949061708	-0.4494450116	 1.3579335171	-0.304144
C	-0.5094404205	-0.8196362095	 2.2302024068	 0.374589
O	-0.2410487301	-1.5674743497	 3.3821276341	-0.494772
C	-1.4912564936	 0.3800934249	 2.3154698525	-0.207423
N	-2.2997306888	-0.1520488561	 1.1617011888	-0.144968
C	-1.3605944942	-0.5629356449	 0.0770283985	-0.023681
C	-1.5372600496	-1.4424676341	 1.2492354942	-0.092869
H	 0.8617060567	 1.7528621316	-0.301715447	 0.284434
H	 0.5789678484	-0.4332724207	-0.8340328493	 0.07357
H	 1.3188900858	-1.3367762824	 1.2046587424	 0.10446
H	 1.3131625875	 0.3432569229	 1.7961157784	 0.085032
H	 0.3777709944	-1.07185821	 3.9291301783	 0.279443
H	-2.111279417	 0.3271131991	 3.2136825184	 0.108497
H	-1.0960212023	 1.3891161006	 2.171352707	 0.10777
H	-1.884339949	-0.7502754628	-0.8538838266	 0.099821
H	-2.0034280747	-2.4192220981	 1.2955466976	 0.098748
149.3475	213.9384	239.3214	294.3772	324.3026	372.4945	416.6411	446.83	518.9251	608.1682	642.7514	699.1989	785.0119	791.8826	853.0208	890.4533	908.0132	960.8743	962.4906	1000.618	1016.829	1048.8026	1059.4791	1101.3628	1144.8795	1179.225	1195.4989	1217.1916	1225.8451	1238.1372	1265.0279	1284.2204	1309.798	1346.8534	1386.698	1395.3261	1428.0111	1473.13	1495.2362	2993.7236	3029.9919	3056.902	3082.4032	3121.9619	3173.4116	3191.1912	3808.0694	3819.2324
OC1CC2(O)CN3C1C23	O[C@H]1C[C@@]2(O)CN3[C@@H]1[C@@H]23	
InChI=1S/C6H9NO2/c8-3-1-6(9)2-7-4(3)5(6)7/h3-5,8-9H,1-2H2	InChI=1S/C6H9NO2/c8-3-1-6(9)2-7-4(3)5(6)7/h3-5,8-9H,1-2H2/t3-,4-,5-,6+,7?/m0/s1
