19
gdb 53980	2.71143	1.087	0.93451	7.1384	75.48	-0.2408	0.0033	0.2442	1315.4002	0.15712	-456.396333	-456.386045	-456.385101	-456.432597	37.22	
C	 0.0010115081	 1.5724301348	 0.104747014	-0.412979
C	-0.0165532562	 0.0338194572	 0.1060723003	 0.107811
C	 0.8276020281	-0.5225615359	 1.2697674201	-0.397493
N	-1.3720654394	-0.5342884547	 0.1195726484	-0.275393
C	-2.217625557	-0.1788614039	 1.0006227403	 0.110356
N	-3.4581355587	-0.7364137505	 1.1036723923	-0.502575
H	-3.7675252584	-1.3172786142	 0.33920915	 0.26245
H	-4.1730199477	-0.2355327513	 1.6030675783	 0.265274
C	 0.6497488312	-0.4494928755	-1.212433247	 0.435241
O	 1.7538680414	-0.1006993179	-1.5427578555	-0.36469
O	-0.0995577008	-1.2898161215	-1.9294402208	-0.379532
H	 1.0158337629	 1.9218615018	-0.0944123175	 0.150325
H	-0.6605488525	 1.9666542126	-0.672378564	 0.122091
H	-0.3206222386	 1.9737365291	 1.0712846184	 0.102901
H	 0.4534825523	-0.1444437321	 2.2269921215	 0.103444
H	 0.7822604743	-1.6152058114	 1.2913101967	 0.126305
H	 1.8697830584	-0.2181078376	 1.1510627624	 0.14568
H	-0.9344141534	-1.3661224437	-1.4087999432	 0.294546
H	-2.0146126141	 0.5697898746	 1.7742807253	 0.10624
15.05	99.2146	152.8824	163.2998	221.8935	259.6167	273.955	302.5463	329.6741	356.3415	410.1955	419.8277	456.2361	566.1841	582.9466	651.1811	768.2642	775.3202	856.9965	859.9632	941.3434	967.1194	1014.5918	1027.7614	1118.4088	1179.1169	1189.636	1229.4167	1247.0461	1313.1381	1386.4375	1405.2375	1413.5	1456.5753	1478.6636	1487.8485	1498.871	1508.667	1631.321	1759.5417	1857.9951	3035.5691	3038.6469	3064.9296	3105.6823	3108.8145	3133.6892	3139.6056	3397.6888	3590.5412	3718.5508
CC(C)(NC=[NH2+])C([O-])=O	CC(C)(N=CN)C(=O)O	
InChI=1S/C5H10N2O2/c1-5(2,4(8)9)7-3-6/h3H,1-2H3,(H2,6,7)(H,8,9)	InChI=1S/C5H10N2O2/c1-5(2,4(8)9)7-3-6/h3H,1-2H3,(H2,6,7)(H,8,9)
