20
gdb 78270	3.20576	1.36859	1.16431	2.2272	79.35	-0.2228	0.0748	0.2976	1123.8818	0.169894	-403.082234	-403.073453	-403.072509	-403.114905	34.391	
C	 0.7792110838	 2.2180113011	-1.9692967932	-0.421876
C	 0.4390166029	 0.7777155387	-1.6631689209	 0.025419
C	 1.2326152626	-0.3997124939	-2.0832342824	-0.081319
C	 2.7143177394	-0.1861062824	-1.9930968262	-0.211066
C	 3.2243530201	-1.0290017238	-0.8362650891	 0.049704
O	 4.5955640543	-0.9745634447	-0.5751730924	-0.436775
C	 2.4940140322	 0.2460267927	-0.5331694321	 0.357695
C	 3.0605417518	 1.3179900068	 0.3466685388	-0.507688
N	 1.0416585621	-0.0464855318	-0.588537507	-0.193293
H	 1.8513333869	 2.3785105689	-2.0895497335	 0.130986
H	 0.288594879	 2.5154650627	-2.9025526272	 0.11862
H	 0.4139492555	 2.8817895293	-1.178215197	 0.124685
H	-0.6334912936	 0.5861732016	-1.6724620806	 0.092589
H	 0.7629709417	-1.2869051615	-2.4995257209	 0.093276
H	 3.3838587275	 0.1900619412	-2.7596798729	 0.089022
H	 2.7421217918	-1.9826393077	-0.6111647613	 0.090337
H	 5.0493092506	-1.4919104521	-1.2482991297	 0.290346
H	 4.1517951858	 1.2838838438	 0.3188117412	 0.142195
H	 2.7301343192	 2.3188270813	 0.0568683887	 0.116411
H	 2.7404624265	 1.1463185098	 1.3808023077	 0.130732
150.3547	167.9931	182.778	249.6406	259.7166	275.5064	311.0534	345.934	358.822	469.9463	529.8346	615.8943	655.4623	710.9166	774.1102	816.964	850.055	906.6869	930.7272	955.3106	1005.0916	1045.5813	1058.0912	1069.7701	1080.9306	1119.4768	1125.1827	1147.6408	1168.5355	1198.5032	1238.4982	1262.2483	1280.7272	1338.763	1357.0679	1406.4002	1411.9684	1439.312	1460.1207	1485.9761	1494.5655	1498.7247	1506.0643	3037.3396	3040.3038	3075.0244	3092.8872	3102.6695	3114.5425	3134.1553	3142.2039	3147.4511	3160.2959	3810.8564
CC1C2C3C(O)C3(C)N12	C[C@H]1[C@H]2[C@@H]3[C@@H](O)[C@]3(C)N12	
InChI=1S/C7H11NO/c1-3-5-4-6(9)7(4,2)8(3)5/h3-6,9H,1-2H3	InChI=1S/C7H11NO/c1-3-5-4-6(9)7(4,2)8(3)5/h3-6,9H,1-2H3/t3-,4+,5-,6+,7+,8?/m0/s1
