19
gdb 40155	2.52043	1.6256	1.28246	1.6185	74.86	-0.2469	0.065	0.3119	1057.2087	0.158753	-422.973586	-422.965569	-422.964625	-423.006339	30.919	
C	 0.2218733434	 1.4118033798	-0.3732586716	-0.260149
O	 1.2804952212	 0.4571886309	-0.1694144545	-0.257726
C	-0.0539618029	 0.0115917632	-0.0674198498	 0.295831
C	-0.6519448964	-0.6708410437	 1.1550091392	-0.160843
O	-1.2461293915	-1.6737770792	 0.3010560634	-0.33221
C	-0.6587434596	-1.1241552967	-0.8952993963	 0.384205
C	-1.5490203186	-0.8558121906	-2.1256332885	-0.292762
C	-0.369376887	-1.3260165578	-3.0231809821	-0.215786
C	 0.270524475	-1.9921439841	-1.772098703	-0.283837
H	 0.1205055893	 2.167424475	 0.4047688186	 0.120541
H	 0.117055854	 1.7785018813	-1.3933368451	 0.122167
H	 0.088880525	-1.0907812511	 1.8461477881	 0.116685
H	-1.4044426903	-0.1068123205	 1.7185280678	 0.109114
H	-2.3813395781	-1.5652747281	-2.1400539453	 0.117532
H	-1.9431718659	 0.1553172335	-2.2575212117	 0.095097
H	-0.6147654983	-1.9764473399	-3.8643102225	 0.104413
H	 0.2292974485	-0.4898554487	-3.3933215318	 0.108689
H	 1.3448242029	-1.8759302478	-1.6163943223	 0.115515
H	-0.0039157607	-3.0462744855	-1.6786438425	 0.113525
81.6728	105.1761	186.645	247.1984	290.5529	349.3994	434.6964	489.3853	510.8542	585.5429	699.8769	777.0251	831.3715	865.5273	880.193	908.4689	924.727	931.4243	964.7631	1014.1441	1020.7138	1043.5577	1122.4448	1123.2595	1137.0896	1149.9857	1153.8675	1172.007	1201.7244	1206.1813	1242.7401	1270.3763	1272.0157	1311.9039	1325.6041	1454.0486	1463.4366	1481.3853	1502.5749	1514.7039	1542.8598	3020.0201	3056.1058	3066.6981	3067.7723	3070.0762	3083.1963	3106.4054	3120.2638	3133.0719	3169.951
C1OC11COC11CCC1	C1O[C@]21COC12CCC1	
InChI=1S/C7H10O2/c1-2-6(3-1)7(4-8-6)5-9-7/h1-5H2	InChI=1S/C7H10O2/c1-2-6(3-1)7(4-8-6)5-9-7/h1-5H2/t7-/m0/s1
