19
gdb 58673	1.87233	1.5984	1.2156	3.355	76.87	-0.2486	0.0214	0.2701	1138.7025	0.15773	-419.187524	-419.17791	-419.176966	-419.221527	35.714	
C	 0.2103471276	 1.1586899827	-0.4302397417	-0.33542
N	-0.0305059081	-0.1687395994	 0.1353330622	-0.13207
C	 0.4806370508	-0.2874276778	 1.5056395624	-0.350639
C	-1.3977360379	-0.6072176806	 0.0206847529	 0.121983
C	-1.8422225741	-1.1147717942	-1.3536043272	-0.371133
C	-1.5447298126	-2.1071825167	-0.2747466969	 0.110483
O	-0.392032241	-2.8708342983	-0.2990220653	-0.420571
C	-2.3828828548	 0.0503874564	 0.8516182317	 0.258487
N	-3.1418621925	 0.5937869985	 1.5369339656	-0.356358
H	 1.2853410798	 1.3605622523	-0.4252589	 0.126907
H	-0.1425773161	 1.1900493149	-1.463960421	 0.12827
H	-0.2947746511	 1.9585563827	 0.1344688761	 0.125554
H	-0.0202991526	 0.3986103309	 2.2066391886	 0.131049
H	 0.3401726087	-1.3125033546	 1.8565213924	 0.142857
H	 1.5506148903	-0.0615798316	 1.5067835693	 0.125688
H	-2.8726183683	-0.939460376	-1.6399206481	 0.141659
H	-1.1120149433	-1.0088388359	-2.148628951	 0.132269
H	-2.3694880575	-2.6345964198	 0.1905912549	 0.132898
H	 0.3341420528	-2.2444130834	-0.4454525949	 0.288087
95.9	132.2552	148.9778	176.9103	238.1273	244.6334	262.1882	343.397	372.2847	402.1609	455.1553	498.9015	524.7532	588.0949	628.1224	659.9362	838.7557	871.2903	893.0731	968.4893	1037.6591	1054.2297	1059.6416	1102.2652	1125.2212	1147.101	1190.0111	1200.2584	1237.9312	1259.922	1325.8402	1343.2822	1434.31	1443.8891	1471.3619	1472.2387	1483.6624	1501.4125	1501.857	1518.4797	2331.5864	2982.8815	2989.8096	3079.6053	3084.209	3122.1496	3128.7933	3139.8808	3187.5879	3236.2306	3698.5438
CN(C)C1(CC1O)C#N	CN(C)[C@]1(C[C@H]1O)C#N	
InChI=1S/C6H10N2O/c1-8(2)6(4-7)3-5(6)9/h5,9H,3H2,1-2H3	InChI=1S/C6H10N2O/c1-8(2)6(4-7)3-5(6)9/h5,9H,3H2,1-2H3/t5-,6-/m1/s1
