19
gdb 98971	5.14999	0.74264	0.65697	4.0878	75.49	-0.2544	0.0054	0.2598	1720.0894	0.158186	-456.402212	-456.391847	-456.390902	-456.438633	35.569	
C	-0.2000888089	 1.5375000057	 0.1208631151	-0.366672
C	 0.0260164608	 0.0471916238	-0.1171348559	-0.27313
C	 0.8233969362	-0.256730397	-1.3693887339	 0.391635
N	 1.2522092244	 0.6582918802	-2.1324280982	-0.503824
N	 1.0077713848	-1.6480097053	-1.5467416421	-0.432973
C	 1.6825282749	-2.2562355985	-2.5767237638	 0.545095
O	 2.2311912422	-1.7027441881	-3.5017637013	-0.398879
O	 1.6423241511	-3.5965034268	-2.4001709511	-0.265615
C	 2.314141629	-4.3556024954	-3.4122160185	-0.236932
H	 0.7516783651	 2.0648568353	 0.2140024769	 0.136659
H	-0.738220797	 1.9873609432	-0.7161965941	 0.136674
H	-0.779403056	 1.6915327463	 1.0359280944	 0.10397
H	 0.5472215442	-0.4026120956	 0.7401426516	 0.114761
H	-0.9364834786	-0.4798126015	-0.1859377445	 0.114744
H	 1.7659183771	 0.2645845286	-2.9214326126	 0.248743
H	 0.6111116408	-2.2703412965	-0.8597528027	 0.259263
H	 3.3744153522	-4.094406976	-3.4515659573	 0.145262
H	 2.1892974174	-5.3998252876	-3.1259659586	 0.135925
H	 1.8683891102	-4.1723491849	-4.3928569931	 0.145295
51.3348	82.9824	93.3615	109.1471	137.6349	172.8322	223.5625	266.0987	332.9024	352.0151	420.9771	523.2154	575.3297	639.0302	732.4904	779.3268	811.2848	878.3665	965.2757	974.2798	1009.3514	1048.4151	1107.4406	1117.4556	1146.7055	1182.8395	1215.4145	1235.029	1291.8042	1319.8139	1406.8346	1415.9374	1467.3284	1473.6373	1482.1167	1489.3624	1497.9389	1500.2148	1523.71	1741.2191	1823.5288	3005.8272	3032.3049	3053.814	3054.3725	3125.9055	3130.2735	3138.3274	3160.7561	3485.9727	3630.584
CCC(=N)NC(=O)OC	CCC(=N)NC(=O)OC	
InChI=1S/C5H10N2O2/c1-3-4(6)7-5(8)9-2/h3H2,1-2H3,(H2,6,7,8)	InChI=1S/C5H10N2O2/c1-3-4(6)7-5(8)9-2/h3H2,1-2H3,(H2,6,7,8)
