23
gdb 57480	2.89932	1.2041	1.04999	1.4502	87.22	-0.2417	0.0162	0.258	1276.182	0.205066	-388.312509	-388.302835	-388.30189	-388.346545	37.716	
C	-0.0837760468	 1.5356261886	 0.0888500597	-0.414806
C	 0.0021182175	 0.0007471028	 0.0476786402	 0.334087
C	 0.7483025813	-0.5055642557	 1.2849242401	-0.396177
O	-1.3139392143	-0.5547112562	 0.1405914673	-0.464319
C	 0.6954880832	-0.4887250955	-1.2567432147	-0.023467
C	 0.7637667164	-2.0393663888	-1.3803264414	-0.235211
C	 0.4627282755	-2.3760607784	-2.8629142991	-0.263941
C	-0.165649131	-1.1078427954	-3.381933866	-0.069967
C	-0.0270541044	-0.0917321857	-2.5310890632	-0.106374
H	 0.9078954819	 1.9950264746	 0.0165677022	 0.108536
H	-0.6968438254	 1.9250577863	-0.7294155647	 0.105379
H	-0.5446410202	 1.8544647929	 1.0280582523	 0.118479
H	 0.2222023899	-0.1905694239	 2.1906462541	 0.118452
H	 0.806984947	-1.5962822196	 1.2913665318	 0.121552
H	 1.764728896	-0.1013424639	 1.3164401491	 0.107461
H	-1.7513300305	-0.3979925816	-0.704948305	 0.274202
H	 1.7052508057	-0.0510232035	-1.2621004679	 0.070764
H	 1.7209718486	-2.4449751868	-1.0454486421	 0.094799
H	-0.0195017328	-2.4652036694	-0.7474555833	 0.122125
H	 1.3779693679	-2.6028941113	-3.4279870665	 0.106255
H	-0.1862937742	-3.2524309797	-2.9735598046	 0.10408
H	-0.6223903172	-1.0390754917	-4.3639284458	 0.092999
H	-0.3441418142	 0.9253199223	-2.7345069125	 0.095091
72.4626	102.8932	194.1427	221.6928	238.1764	261.7406	333.5495	344.3316	349.0602	386.5963	407.446	489.7391	568.3245	602.9823	746.3099	774.3204	807.4381	860.8895	862.6615	926.1144	932.1534	953.1784	964.7211	978.8538	1000.4722	1015.222	1038.081	1068.0806	1134.1416	1140.858	1168.2916	1203.3232	1228.3022	1240.0199	1290.0035	1299.3816	1321.7773	1338.4261	1376.6547	1388.1473	1402.4879	1418.4694	1476.5152	1482.2875	1488.8202	1497.9474	1500.7739	1511.1864	1681.9614	2985.6982	3007.901	3035.0225	3045.554	3049.8765	3067.2005	3105.0064	3111.1858	3113.5256	3117.5037	3127.4509	3175.6876	3201.2222	3779.5154
CC(C)(O)C1CCC=C1	CC(C)(O)[C@H]1CCC=C1	
InChI=1S/C8H14O/c1-8(2,9)7-5-3-4-6-7/h3,5,7,9H,4,6H2,1-2H3	InChI=1S/C8H14O/c1-8(2,9)7-5-3-4-6-7/h3,5,7,9H,4,6H2,1-2H3/t7-/m1/s1
