22
gdb 84109	2.47429	1.45965	1.11113	1.5487	88.54	-0.2204	0.0238	0.2443	1220.6476	0.193811	-367.213884	-367.204573	-367.203629	-367.247202	36.135	
C	-0.1409124356	 1.5526353661	 0.0709408609	-0.395319
C	-0.0061821276	 0.0252274517	-0.0110000657	-0.065897
C	 0.801452949	-0.4610557074	-1.19966446	-0.191607
C	 1.8198521403	-1.2589550318	-0.8617968491	 0.365826
C	 2.8217786995	-1.9094817863	-1.7612380454	-0.499753
C	 1.8675495626	-1.3941358353	 0.6291817915	-0.212954
N	 2.1298616363	-0.0843469025	 1.304086931	-0.369427
C	 0.743307455	-0.5954033757	 1.1824016672	 0.331525
C	-0.0249296213	-0.9624898179	 2.4248418208	-0.494019
H	 0.8456393539	 2.009150807	 0.1814095687	 0.138688
H	-0.6144063126	 1.9548323538	-0.830604998	 0.106467
H	-0.7568630469	 1.8477440307	 0.9277386945	 0.105349
H	-1.0186112104	-0.4062026601	-0.0516703309	 0.069835
H	 0.5739864794	-0.1449509894	-2.2133308468	 0.082934
H	 2.6125263211	-1.7001872364	-2.8138259596	 0.122319
H	 3.8375830792	-1.5594441228	-1.5379936415	 0.131893
H	 2.830035233	-2.9990806488	-1.6281907523	 0.120449
H	 2.2329282022	-2.3012766991	 1.1025855546	 0.07785
H	 2.4473713096	-0.2719033803	 2.2552421072	 0.217988
H	-0.4206889554	-0.0694184378	 2.9236011302	 0.12448
H	-0.8748232851	-1.6118526871	 2.187370052	 0.123041
H	 0.6105932941	-1.4913491007	 3.1435935809	 0.110332
137.4654	146.355	188.9464	209.705	225.9564	238.0674	248.135	326.0369	376.5464	438.7804	500.7846	579.6722	591.1804	637.9032	723.3094	830.7467	854.7199	863.027	881.6931	934.4605	969.6024	993.8678	1015.4782	1031.0513	1053.862	1066.2497	1098.4793	1114.5363	1135.7173	1158.027	1196.7139	1269.0941	1277.1883	1317.3888	1350.6629	1364.9732	1400.7009	1413.0269	1414.2462	1440.0937	1479.1689	1484.8092	1489.7687	1494.6974	1500.367	1504.9116	1709.4464	2978.5044	3015.9074	3020.4827	3032.8183	3062.0491	3081.7086	3093.4025	3093.8972	3109.4888	3127.159	3147.9659	3175.4764	3456.672
CC1C=C(C)C2NC12C	C[C@H]1C=C(C)[C@H]2N[C@@]12C	
InChI=1S/C8H13N/c1-5-4-6(2)8(3)7(5)9-8/h4,6-7,9H,1-3H3	InChI=1S/C8H13N/c1-5-4-6(2)8(3)7(5)9-8/h4,6-7,9H,1-3H3/t6-,7+,8-/m0/s1
