21
gdb 109277	2.68405	1.13938	0.87432	2.8297	85.62	-0.2334	-0.0102	0.2232	1388.499	0.182736	-387.137602	-387.128442	-387.127498	-387.172171	34.209	
C	-0.2196897495	 1.5376036754	 0.0661311456	-0.374353
C	 0.0467005739	 0.0217579719	 0.0395807263	-0.267881
C	 0.8079370248	-0.4464443873	-1.1786847822	 0.314011
C	 2.0718895497	-0.8721285307	-1.1045681421	-0.158775
C	 2.8843735156	-1.3500830847	-2.2789152446	-0.261296
C	 1.9933861205	-1.7852489992	-3.4581572184	-0.301224
C	 0.9033644866	-0.7635795895	-3.7174773549	 0.386191
O	 0.6962041663	-0.2786179611	-4.8050418266	-0.310148
C	 0.0659031423	-0.3927876604	-2.4984825802	-0.400002
H	 0.720595649	 2.0971711453	 0.0415340063	 0.121633
H	-0.8241078033	 1.8614199342	-0.7866578631	 0.122335
H	-0.7585827925	 1.8178334177	 0.9763853764	 0.115788
H	 0.6044846648	-0.2599674473	 0.9392714662	 0.101688
H	-0.9159343417	-0.5067810325	 0.0907536206	 0.098715
H	 2.5685979906	-0.8772452019	-0.1363902272	 0.080732
H	 3.5712660062	-0.5565879873	-2.6075914457	 0.12176
H	 3.5261482301	-2.1857762212	-1.9765873806	 0.110086
H	 2.5639735694	-1.9401788485	-4.3762629217	 0.117765
H	 1.5017526229	-2.7314565236	-3.1930551336	 0.119448
H	-0.7932896528	-1.0826744566	-2.4655470312	 0.130049
H	-0.364905703	 0.5968702975	-2.6841130696	 0.133479
62.2327	65.0817	124.6858	196.4987	217.9826	299.4802	339.5531	397.0799	444.5048	495.2507	518.2058	564.0399	648.8354	763.6008	784.6325	831.4279	838.5306	904.8983	915.6556	959.1952	972.6762	1044.0196	1048.818	1076.4793	1107.5684	1134.826	1167.1621	1208.3007	1221.0843	1249.7213	1282.2047	1311.0879	1329.9149	1353.8936	1374.2357	1383.9767	1408.4486	1442.9386	1466.3989	1480.5987	1488.1935	1499.8402	1507.3636	1736.8211	1820.1281	2985.6992	3003.879	3007.1256	3022.3612	3038.8125	3051.6756	3062.7467	3070.5754	3108.946	3112.7932	3113.2067	3145.8496
CCC1=CCCC(=O)C1	CCC1=CCCC(=O)C1	
InChI=1S/C8H12O/c1-2-7-4-3-5-8(9)6-7/h4H,2-3,5-6H2,1H3	InChI=1S/C8H12O/c1-2-7-4-3-5-8(9)6-7/h4H,2-3,5-6H2,1H3
