22
gdb 68184	2.92601	1.35176	1.32567	0.6334	81.17	-0.2254	0.0684	0.2938	1112.9051	0.194607	-404.319037	-404.310384	-404.30944	-404.351393	35.515	
C	-0.0351653759	 1.5064891035	 0.0018906352	-0.442686
C	 0.0263408665	-0.0249983766	-0.0128258301	 0.349007
C	-1.4131331842	-0.5479580858	-0.0754830477	-0.442675
C	 0.9650235732	-0.612721451	-1.1257738165	-0.300954
C	 1.9711724706	-1.3225042037	-0.2057324505	 0.392451
O	 2.9898873912	-1.9803077264	-0.8882905015	-0.482037
C	 1.027619493	-1.9664774433	 0.8447596793	-0.247385
N	 0.7158704824	-0.5349357435	 1.2463647842	-0.152556
C	 2.1715884215	-0.2614350018	 0.9089249087	-0.24738
H	 0.9496427269	 1.9778035515	 0.001263842	 0.113135
H	-0.5671205296	 1.8665059965	-0.8845493963	 0.113948
H	-0.574743105	 1.851067898	 0.8894991869	 0.123241
H	-1.9176668194	-0.1452604444	-0.9595900214	 0.113943
H	-1.47445422	-1.6363217716	-0.136270789	 0.113132
H	-1.9671572168	-0.2267268198	 0.8119826452	 0.123259
H	 0.4610444319	-1.3162866186	-1.7945513321	 0.100767
H	 1.4473804919	 0.1538075358	-1.7389899625	 0.100767
H	 3.5711896272	-2.3947031075	-0.2420448966	 0.279784
H	 0.1857439235	-2.5777279339	 0.5187353744	 0.10088
H	 1.5569588696	-2.4682222841	 1.660041346	 0.095237
H	 2.8080781095	-0.603450596	 1.7302265369	 0.095241
H	 2.4282843322	 0.7646513229	 0.6444737355	 0.100879
129.7929	188.8365	221.535	276.3993	287.5105	318.6376	391.1585	405.4334	431.1264	459.0271	488.7616	556.0799	568.7387	650.3607	742.5243	826.092	853.8584	859.826	918.7903	933.4881	949.6018	964.0608	987.1986	987.884	1019.855	1033.6273	1089.0641	1128.8904	1148.0948	1191.2817	1191.446	1217.5092	1226.988	1243.3123	1276.4117	1281.1918	1333.9747	1393.962	1402.1241	1421.6047	1475.0114	1484.7142	1497.0293	1500.9323	1509.6121	1514.3699	1543.7937	3038.8056	3044.5103	3054.6482	3057.6564	3067.5085	3099.1956	3104.5087	3111.9704	3116.677	3120.3297	3136.7678	3138.2728	3810.3123
CC1(C)CC2(O)CN1C2	CC1(C)C[C@]2(O)CN1C2	
InChI=1S/C7H13NO/c1-6(2)3-7(9)4-8(6)5-7/h9H,3-5H2,1-2H3	InChI=1S/C7H13NO/c1-6(2)3-7(9)4-8(6)5-7/h9H,3-5H2,1-2H3
