17
gdb 41569	3.15895	1.79275	1.65095	2.6272	71.	-0.2241	0.0094	0.2335	876.4605	0.139443	-417.96216	-417.955704	-417.95476	-417.993102	25.661	
C	 0.2780772128	 1.6069934555	-0.0901347645	-0.084997
O	 1.551212373	 1.3926821491	 0.5709288865	-0.284744
C	 1.2821094029	-0.0104652385	 0.7436369999	 0.087172
C	-0.0331922408	 0.1006242078	-0.07006889	-0.064763
N	 0.5880736176	-0.7304194192	-1.1575125983	-0.117733
C	 0.998993314	-0.1256640275	-2.3588315178	 0.029002
N	 2.2456730995	 0.0388043302	-2.5588347776	-0.222469
C	 2.9589308361	-0.3879864554	-1.3330198113	-0.189226
C	 1.8598146106	-0.906245894	-0.3784885483	-0.017069
H	-0.398317471	 2.1998480245	 0.5387979432	 0.107678
H	 0.3911024476	 2.0908365041	-1.0652694416	 0.122331
H	 1.3705542787	-0.3363801686	 1.782241988	 0.084807
H	-1.0199568404	-0.234122729	 0.2464924221	 0.096616
H	 0.2453827569	 0.1537301489	-3.0909813042	 0.123335
H	 3.6825857662	-1.169170035	-1.5823624217	 0.114095
H	 3.5101967766	 0.466402957	-0.9275747845	 0.129989
H	 2.0080395996	-1.9436059701	-0.0638406199	 0.085976
109.0311	178.5238	250.1677	397.1667	483.2463	542.0098	660.5575	690.3269	746.2475	826.4051	834.3309	890.0784	912.9916	943.064	958.3296	964.0857	976.2496	1007.8179	1043.2704	1054.3704	1083.0833	1097.9786	1160.2038	1182.1465	1196.0412	1212.4997	1224.0171	1255.9294	1297.344	1306.4436	1314.1008	1339.0267	1349.1308	1363.3057	1485.7982	1511.515	1676.6724	3019.1566	3049.7499	3057.8825	3082.3938	3088.0537	3093.8336	3121.432	3172.2494
C1OC2C1N1C=NCC21	C1O[C@H]2[C@@H]1N1C=NC[C@@H]21	
InChI=1S/C6H8N2O/c1-4-6-5(2-9-6)8(4)3-7-1/h3-6H,1-2H2	InChI=1S/C6H8N2O/c1-4-6-5(2-9-6)8(4)3-7-1/h3-6H,1-2H2/t4-,5+,6+/m0/s1
