20
gdb 126443	1.82148	1.63091	0.97562	0.5289	80.96	-0.2466	0.0029	0.2495	1281.1602	0.172257	-399.354648	-399.345228	-399.344284	-399.390421	33.704	
C	-0.2459717438	 1.545476647	 0.0136205011	-0.375886
C	-0.0661098391	 0.0176810982	-0.0136470049	-0.293542
C	 0.7064847694	-0.4667216313	-1.2022265505	 0.238982
N	 0.1071670597	-0.7052827975	-2.3736965061	-0.265795
N	 1.1052707233	-1.0866248094	-3.1573184698	-0.085077
N	 2.3091688558	-1.1321178504	-2.60572381	-0.2658
C	 2.0890818461	-0.7348331329	-1.3478824864	 0.23897
C	 3.2078628891	-0.6172066954	-0.3585610218	-0.293556
C	 3.9406175454	 0.7339782051	-0.4265628412	-0.375894
H	 0.7201064302	 2.0590954522	 0.0482071218	 0.122364
H	-0.7736554747	 1.8860360884	-0.881910266	 0.131939
H	-0.8241571822	 1.8529311986	 0.8905161178	 0.113214
H	 0.438730918	-0.3086632548	 0.9025616502	 0.105743
H	-1.0501846104	-0.4619907127	-0.0193822246	 0.121388
H	 0.9515964484	-1.3592513052	-4.1142059537	 0.288296
H	 2.8135012834	-0.7701616299	 0.6523257166	 0.105752
H	 3.9224897736	-1.4255839898	-0.543895306	 0.121392
H	 4.365132577	 0.8909029358	-1.4223389343	 0.131927
H	 3.2606430762	 1.5660891153	-0.2179178989	 0.122366
H	 4.7550202847	 0.7713654288	 0.3035899367	 0.113218
22.7123	55.3089	153.2183	171.0984	196.5145	226.7025	291.92	344.568	428.1315	465.6504	507.4346	627.1011	692.1261	732.0579	784.7168	793.1685	797.8431	968.1759	984.1687	998.5481	1068.2102	1070.9265	1083.5699	1087.3365	1188.2912	1196.2624	1255.7607	1271.7866	1296.3115	1350.1689	1359.4879	1381.8786	1404.666	1410.3074	1453.1641	1475.5659	1485.9089	1494.5887	1499.1166	1501.2626	1503.9052	1531.8242	1553.9697	3037.381	3038.5026	3041.4065	3042.8946	3079.4243	3080.6014	3108.0361	3109.6974	3118.0029	3119.2563	3671.279
CCC1=NNN=C1CC	CCc1n[nH]nc1CC	
InChI=1S/C6H11N3/c1-3-5-6(4-2)8-9-7-5/h3-4H2,1-2H3,(H,7,8,9)	InChI=1S/C6H11N3/c1-3-5-6(4-2)8-9-7-5/h3-4H2,1-2H3,(H,7,8,9)
