19
gdb 37407	3.50694	1.77281	1.66451	1.7187	76.12	-0.2373	0.0828	0.3201	885.6859	0.163682	-385.846905	-385.841032	-385.840088	-385.876738	26.433	
C	-0.0235275236	 1.5352626803	 0.1430333952	-0.307277
C	 1.3041212578	 0.8354918951	 0.0609232845	-0.049143
C	 0.0091856963	 0.0264927586	 0.0352744323	-0.044248
C	-0.0009029774	-0.6654789065	-1.3425239984	-0.0725
C	-0.1846386707	 0.3577554941	-2.4953844933	-0.222698
C	 1.3167880146	 0.6685076639	-2.6794296606	 0.040801
O	 1.7841989183	-0.676794209	-3.0211111705	-0.298464
C	 1.5381553006	-0.948012485	-1.6245291317	 0.092719
C	 1.9770683999	 0.4835496626	-1.2546572557	-0.038246
H	-0.2867505062	 1.9306684255	 1.1193823593	 0.109132
H	-0.3690918252	 2.1563230914	-0.6728122685	 0.113794
H	 1.9455140183	 0.8529633427	 0.9358015333	 0.085094
H	-0.3143161824	-0.5474896388	 0.8966996474	 0.083527
H	-0.663200459	-1.5291588308	-1.3890705357	 0.06554
H	-0.5460246208	-0.1164615451	-3.4104094996	 0.10697
H	-0.8356500226	 1.1974311718	-2.2591150138	 0.099932
H	 1.6280193302	 1.4376722341	-3.3864690585	 0.07804
H	 1.9925831766	-1.8634116475	-1.2442353751	 0.078016
H	 3.0516942554	 0.6560263825	-1.2978476305	 0.079012
216.9658	348.4909	464.0223	487.9184	549.3284	585.8228	650.7928	734.1391	758.3069	781.2046	809.7382	852.7932	863.8142	880.8679	915.782	920.0326	934.5256	949.8363	976.5639	992.0143	1039.5429	1058.0734	1067.892	1074.1138	1083.6616	1106.2402	1118.2433	1152.5164	1185.585	1203.9728	1209.3093	1235.1948	1260.1856	1293.4144	1305.7117	1316.7622	1342.0803	1351.0166	1384.5986	1475.7727	1513.5855	3083.4611	3113.2051	3118.3742	3121.0735	3131.5166	3135.3237	3148.0846	3157.5689	3167.6787	3221.4758
C1C2C1C1CC3OC1C23	C1[C@H]2[C@@H]1[C@H]1C[C@@H]3O[C@H]1[C@H]23	
InChI=1S/C8H10O/c1-3-4(1)7-6-2-5(3)8(7)9-6/h3-8H,1-2H2	InChI=1S/C8H10O/c1-3-4(1)7-6-2-5(3)8(7)9-6/h3-8H,1-2H2/t3-,4+,5-,6+,7-,8-/m1/s1
