16
gdb 54514	3.40864	1.40838	1.13187	2.5486	69.84	-0.2469	-0.0086	0.2383	1064.9108	0.124788	-437.910824	-437.903104	-437.90216	-437.94305	29.952	
N	 0.5679632429	 0.1256626174	 0.9965710735	-0.537974
C	-0.0420238936	 0.220204649	-0.2163774544	 0.293379
O	 0.4172471044	 0.8009801906	-1.1814238259	-0.357702
C	-1.3616375171	-0.4958543854	-0.2980639779	 0.306315
O	-1.9479747024	-0.9363572488	 0.9606259709	-0.309041
C	-1.5633992892	-1.9325853531	 0.0132319725	-0.020566
C	-2.7004515538	-2.444092163	-0.862113188	-0.293895
C	-3.1314211138	-1.2051062562	-1.6224137156	-0.085713
C	-2.3720710183	-0.1449387001	-1.3387491822	-0.118676
H	 1.4058735699	 0.6628750918	 1.1467731193	 0.26288
H	 0.0291869813	-0.1923531909	 1.7858530157	 0.272385
H	-0.7524873739	-2.5846782286	 0.3254336571	 0.107695
H	-2.3528391067	-3.2380471145	-1.534724286	 0.122077
H	-3.5104235897	-2.8687222037	-0.2568126635	 0.130756
H	-3.9816564889	-1.205921519	-2.2945400901	 0.108007
H	-2.4503154012	 0.8462187044	-1.7629718656	 0.120071
80.846	165.7119	186.9912	307.5174	377.7785	387.0889	410.039	492.1721	529.2436	610.2825	636.8931	713.1493	743.2057	765.6134	797.1101	882.3395	907.8993	932.1848	957.191	981.0634	990.0376	1051.0171	1096.2602	1134.5477	1174.7055	1188.114	1273.3558	1304.4905	1355.5644	1375.6307	1432.926	1456.3319	1596.9619	1663.8096	1797.8168	3032.9546	3067.8572	3156.2435	3200.9636	3241.8026	3591.1398	3728.7045
NC(=O)C12OC1CC=C2	NC(=O)[C@]12O[C@H]1CC=C2	
InChI=1S/C6H7NO2/c7-5(8)6-3-1-2-4(6)9-6/h1,3-4H,2H2,(H2,7,8)	InChI=1S/C6H7NO2/c7-5(8)6-3-1-2-4(6)9-6/h1,3-4H,2H2,(H2,7,8)/t4-,6+/m0/s1
