18
gdb 75325	2.42956	1.64915	1.38929	3.2778	77.59	-0.2271	-0.0134	0.2137	1024.991	0.149112	-401.951281	-401.943634	-401.942689	-401.983201	30.043	
C	 0.0706239445	 1.4919813628	 0.0694204881	-0.500771
C	-0.0093183063	-0.0030922896	 0.0089591345	 0.336677
C	-0.0262734352	-0.7298254737	-1.1159859165	-0.172492
C	-0.0077177252	-2.2434878058	-1.062803203	-0.275015
C	-0.0209122864	-2.6953407074	 0.4159826598	-0.124552
N	-1.0267329884	-1.9335998101	 1.2254741927	-0.30997
C	-0.0663855476	-0.791766537	 1.3210997714	-0.2266
C	 1.031852289	-1.8665852872	 1.1807760312	 0.468528
O	 2.1616491628	-2.0121283288	 1.5300150699	-0.316377
H	 0.9732201193	 1.8131972722	 0.604590363	 0.140233
H	 0.09436104	 1.9344310513	-0.930068158	 0.126424
H	-0.7822915169	 1.9137453501	 0.6160375952	 0.128757
H	-0.0360520161	-0.2493024766	-2.0907849318	 0.092369
H	-0.858097843	-2.6750524811	-1.6101080644	 0.109882
H	 0.8955751837	-2.6324430062	-1.5521722859	 0.127978
H	-0.0369718657	-3.7811055405	 0.5373237657	 0.093662
H	-1.8534414839	-1.6869580999	 0.682909123	 0.214631
H	-0.1374024247	-0.1711723926	 2.2162906853	 0.086636
122.7076	163.4695	196.464	286.6038	310.1187	390.9613	439.4822	478.8992	560.9117	583.5159	675.6115	750.792	761.4096	833.0778	861.7569	917.6632	938.622	969.6198	995.8311	1031.7226	1042.4451	1065.3529	1076.5235	1107.4809	1134.84	1173.5204	1179.8681	1237.1079	1278.7071	1309.156	1331.9613	1339.9084	1366.2326	1413.8	1476.6451	1480.7998	1488.1192	1711.7791	1922.179	3001.4176	3017.9881	3033.932	3066.6892	3085.9085	3098.3188	3112.7646	3161.9617	3468.097
CC1=CCC2NC1C2=O	CC1=CC[C@@H]2N[C@H]1C2=O	
InChI=1S/C7H9NO/c1-4-2-3-5-7(9)6(4)8-5/h2,5-6,8H,3H2,1H3	InChI=1S/C7H9NO/c1-4-2-3-5-7(9)6(4)8-5/h2,5-6,8H,3H2,1H3/t5-,6+/m0/s1
