19
gdb 38949	3.08987	1.88676	1.60978	2.2343	73.41	-0.2461	0.0858	0.3319	901.1401	0.163751	-423.017891	-423.011644	-423.010699	-423.048144	26.883	
C	-0.1048212007	 1.5793570519	 0.06305431	-0.240583
C	 1.4325151717	 1.4301320544	-0.0215984505	 0.079947
O	 1.7380034714	 0.8104932404	 1.2458364906	-0.290899
C	 0.8139428355	-0.2915519377	 1.2580062475	 0.230383
O	 1.4839301294	-1.5215021111	 1.1876767241	-0.272394
C	 2.5698887225	-1.5083566464	 0.2601012986	-0.070329
C	 2.1690527574	-0.9371866503	-1.1092716324	-0.264722
C	 1.1907649761	 0.2265676869	-0.9845474272	-0.002173
C	-0.0108744341	 0.0289843211	-0.0035805901	-0.109089
H	-0.4955181339	 2.0421209589	 0.9720303901	 0.102241
H	-0.5640578969	 2.0113133125	-0.8285820808	 0.101847
H	 2.1294194832	 2.2450067832	-0.2112797535	 0.079335
H	 0.2533072622	-0.3018986559	 2.1964756016	 0.085843
H	 3.3976199115	-0.9290625618	 0.6824790317	 0.111493
H	 2.8891807004	-2.5498452287	 0.1712503369	 0.103209
H	 3.0716150256	-0.6393852144	-1.6562707056	 0.100872
H	 1.6798651922	-1.7170107869	-1.7061105503	 0.105381
H	 0.8520701664	 0.5777371151	-1.9624532054	 0.075122
H	-0.8545237501	-0.6253328314	-0.2170239553	 0.074515
213.744	265.2772	345.9026	414.2729	478.3766	482.008	600.4711	679.8748	713.9107	806.6464	827.0006	853.003	862.191	883.378	916.3791	927.8996	963.6076	981.1321	1021.47	1035.0725	1048.5446	1075.5892	1101.9205	1112.5259	1117.8196	1136.4604	1182.4228	1224.5063	1249.4004	1262.2636	1273.4089	1285.0317	1295.542	1345.8854	1353.9115	1375.8331	1402.4153	1425.7638	1478.7346	1493.4712	1504.1058	3024.3827	3043.2445	3065.1706	3066.4258	3077.6043	3080.7676	3101.0595	3131.9352	3133.1338	3137.6016
C1C2OC3OCCC2C13	C1[C@H]2O[C@@H]3OCC[C@H]2[C@H]13	
InChI=1S/C7H10O2/c1-2-8-7-5-3-6(9-7)4(1)5/h4-7H,1-3H2	InChI=1S/C7H10O2/c1-2-8-7-5-3-6(9-7)4(1)5/h4-7H,1-3H2/t4-,5-,6+,7-/m0/s1
