12
gdb 43236	3.67939	1.26067	0.99005	2.0288	68.76	-0.2736	-0.1184	0.1552	1087.4476	0.077792	-435.491054	-435.484082	-435.483138	-435.522825	25.596	
O	 0.0690503551	-0.0133163843	-0.0769548189	-0.296149
C	 0.0087223875	 1.1864317818	-0.0018391537	 0.431733
C	-1.2299582551	 2.0209165535	 0.1001210612	-0.305843
C	-0.9159112797	 3.3275368729	 0.0201151436	 0.228281
C	-1.816873388	 4.4224067867	 0.0376781123	 0.228981
N	-2.5256559211	 5.3385152997	 0.036857562	-0.312779
C	 0.58678288	 3.5110501856	-0.0452495583	-0.074018
O	 1.2356153391	 2.9981989514	 1.1232275515	-0.231079
C	 1.175447503	 2.170359846	-0.0533040213	-0.09728
H	-2.2175246839	 1.5963246031	 0.2188487155	 0.157597
H	 1.0293460332	 4.3850845005	-0.5094217135	 0.136069
H	 2.1179783398	 1.8988992231	-0.5159177705	 0.134488
114.5393	147.8663	184.664	322.2585	410.8051	427.4877	497.5446	558.177	619.269	681.025	742.5231	834.0973	843.1933	869.4116	906.3979	933.0423	1025.4994	1077.3514	1139.5968	1180.0592	1234.6831	1266.7322	1308.7133	1391.9284	1637.0177	1835.0866	2338.5233	3184.7215	3195.3686	3239.2413
O=C1C=C(C#N)C2OC12	O=C1C=C(C#N)[C@H]2O[C@@H]12	
InChI=1S/C6H3NO2/c7-2-3-1-4(8)6-5(3)9-6/h1,5-6H	InChI=1S/C6H3NO2/c7-2-3-1-4(8)6-5(3)9-6/h1,5-6H/t5-,6+/m1/s1
