18
gdb 19690	4.69741	1.61665	1.50721	1.6404	70.08	-0.2294	0.0746	0.304	911.7537	0.154253	-347.736695	-347.729712	-347.728768	-347.767968	27.367	
C	-0.1148950467	 1.5299225064	 0.0035305117	-0.381063
C	 0.0018456507	 0.0021045356	 0.0278872571	-0.203169
C	 0.6889365689	-0.5613811803	-1.2090549201	 0.035663
C	 0.8251902213	-2.0746215436	-1.4109572966	-0.149952
C	-0.4731306358	-2.490314522	-2.1277160819	 0.095332
O	-1.3067229969	-1.3373159533	-2.2457781869	-0.29032
C	-0.088949921	-0.6017575259	-2.5623219142	 0.051419
C	 0.657809491	-1.9395350413	-2.9223794198	-0.149706
H	 0.8708284347	 2.0052617375	-0.0588219354	 0.109604
H	-0.7010028578	 1.869300939	-0.8575060408	 0.11773
H	-0.6081770605	 1.9053657866	 0.9051981687	 0.112623
H	 0.5636615367	-0.3106821326	 0.9178038285	 0.08931
H	-0.9926272515	-0.448496081	 0.1081330349	 0.113699
H	 1.6623105932	-0.0856248845	-1.3784496563	 0.070909
H	 1.4411125651	-2.7789733267	-0.8656657619	 0.087401
H	-0.9301589255	-3.4694386924	-2.0768320751	 0.108467
H	-0.2630747718	 0.2729100439	-3.1854676365	 0.083291
H	 1.2324523459	-2.2904627854	-3.7675500555	 0.098762
83.6606	172.9725	197.9357	277.588	372.72	545.2183	596.7562	725.5384	759.3544	770.2279	787.1964	815.987	831.5727	879.0301	912.9146	938.9756	972.9106	988.8443	1024.9576	1033.8203	1040.3471	1059.4761	1089.7446	1109.1451	1148.3692	1167.189	1174.8923	1224.6917	1239.1826	1292.6187	1314.7237	1340.7487	1373.0854	1402.7646	1413.5702	1485.9523	1501.5594	1505.2973	3024.1951	3029.2474	3040.8028	3075.5705	3098.906	3103.3044	3143.448	3193.181	3206.7323	3222.3568
CCC1C2C3OC1C23	CC[C@H]1[C@H]2[C@H]3O[C@@H]1[C@@H]23	
InChI=1S/C7H10O/c1-2-3-4-5-6(3)8-7(4)5/h3-7H,2H2,1H3	InChI=1S/C7H10O/c1-2-3-4-5-6(3)8-7(4)5/h3-7H,2H2,1H3/t3-,4+,5+,6-,7+/m0/s1
