22
gdb 9769	3.49734	1.42359	1.38209	1.5098	76.97	-0.2448	0.0756	0.3203	1057.0689	0.200813	-350.218581	-350.209736	-350.208792	-350.252204	33.236	
C	-0.1456539346	 1.5371914774	 0.1096838716	-0.395808
C	 0.0057859179	 0.0169870221	-0.0272307465	-0.229757
C	 0.7776132594	-0.4667830127	-1.2686593461	 0.331137
C	 2.2319153325	 0.0358489529	-1.2788644877	-0.437237
C	 0.7603687467	-2.0222782497	-1.3834084256	-0.288192
C	 0.4659069397	-2.2988090378	-2.878561835	-0.073746
O	 0.5181799681	-1.0408809564	-3.5420092809	-0.248781
C	 0.0892461514	-0.0769978165	-2.5968852363	-0.113329
H	 0.8219496406	 2.0385853371	 0.2054379962	 0.12038
H	-0.6621474122	 1.9718511658	-0.7529953504	 0.119254
H	-0.7316009736	 1.7852298281	 1.0002019266	 0.113878
H	 0.4998718796	-0.3775772377	 0.8703151336	 0.094254
H	-0.9935065023	-0.437562025	-0.0456767635	 0.090943
H	 2.7801884603	-0.3291702516	-0.4032498249	 0.107324
H	 2.7479940254	-0.3203207949	-2.1755088606	 0.125553
H	 2.2861343023	 1.1289103308	-1.27799339	 0.111756
H	 1.7155487325	-2.4506476809	-1.0684770164	 0.102472
H	-0.0158343829	-2.4566594545	-0.746788294	 0.096194
H	 1.1956433294	-2.9572492201	-3.3576344109	 0.106054
H	-0.5308005382	-2.7509198011	-3.001386562	 0.088117
H	-1.009478745	-0.09960722	-2.4830934323	 0.075377
H	 0.3771495227	 0.9081786048	-2.973216685	 0.104158
41.5588	97.521	202.6114	227.5979	242.1264	282.0861	331.8227	353.0616	408.3764	431.5221	593.0034	683.1573	781.9789	783.6295	821.4511	911.8483	930.1982	949.5223	973.7521	981.6227	1009.8157	1019.8839	1055.8237	1085.6368	1114.2418	1191.2316	1195.4132	1221.3439	1244.5231	1266.9977	1290.3564	1303.635	1347.6881	1363.1821	1368.6923	1394.4926	1409.5628	1417.4193	1481.5742	1494.0245	1496.7839	1500.6808	1504.9906	1509.9013	1514.3805	1527.8578	2941.5832	2977.7984	3012.457	3030.113	3036.8008	3045.3363	3055.7058	3079.3745	3089.9233	3097.0708	3101.2128	3101.984	3106.697	3112.1097
CCC1(C)CCOC1	CC[C@@]1(C)CCOC1	
InChI=1S/C7H14O/c1-3-7(2)4-5-8-6-7/h3-6H2,1-2H3	InChI=1S/C7H14O/c1-3-7(2)4-5-8-6-7/h3-6H2,1-2H3/t7-/m0/s1
