21
gdb 81074	2.66337	1.44288	1.19934	1.4126	82.42	-0.2501	0.0728	0.3229	1132.6526	0.183419	-387.02541	-387.01721	-387.016266	-387.058092	32.965	
O	-0.5472645823	 1.7195983737	 0.5215019251	-0.448713
C	-0.3469320107	 0.3714982207	 0.1884731778	 0.146634
C	 0.082517656	-0.6846148387	 1.2483766286	-0.101438
C	-1.3783231573	-0.6596016946	 1.7843976304	-0.296063
C	-1.5240198697	-0.6684057965	 0.22325406	 0.328706
C	-0.3985549534	-1.7519294932	 0.2278061275	-0.26066
C	-2.7846393071	-0.6543044703	-0.5691163799	-0.14571
C	-3.4327318913	 0.6641186257	-0.9320802673	-0.276464
C	-2.7808534536	-0.1736064461	-2.0012809036	-0.269305
H	-1.0094137637	 1.7718751392	 1.364488815	 0.283246
H	 0.2432647315	 0.3806523029	-0.7322179802	 0.080944
H	 1.0020848525	-0.7002084944	 1.8337966527	 0.073091
H	-1.7204213165	-1.5586303826	 2.3046757581	 0.093791
H	-1.7198809848	 0.2290759804	 2.3260493404	 0.074338
H	 0.1844926015	-1.8617615518	-0.691389472	 0.090542
H	-0.6737355873	-2.7225180251	 0.6467071006	 0.093137
H	-3.4635213808	-1.4743787458	-0.3465254984	 0.07776
H	-4.515232879	 0.7256702331	-0.9123313579	 0.10632
H	-2.9184134615	 1.5682092572	-0.6270694451	 0.127142
H	-1.8417764817	 0.1790140097	-2.4139271814	 0.113746
H	-3.4141667707	-0.6899996635	-2.7140133203	 0.108956
75.8704	149.9822	178.7265	251.603	319.8463	341.9833	411.3795	438.8674	535.8848	598.0122	646.0351	759.4757	800.8321	811.5857	836.2871	866.8579	894.3025	913.1811	917.9296	958.579	967.1111	1020.1111	1037.5196	1058.6272	1065.816	1082.0212	1088.939	1133.8937	1134.8103	1139.587	1151.4383	1164.7639	1204.2183	1209.7218	1220.25	1234.0753	1246.0213	1279.3238	1314.8184	1424.4292	1450.9409	1469.4795	1503.7256	1505.7735	1547.1609	3035.74	3050.4361	3075.7882	3094.8652	3113.0057	3118.6319	3127.0056	3134.0077	3139.1219	3214.3169	3230.9796	3815.7833
OC1C2CC1(C2)C1CC1	O[C@H]1[C@H]2C[C@@]1(C2)C1CC1	
InChI=1S/C8H12O/c9-7-5-3-8(7,4-5)6-1-2-6/h5-7,9H,1-4H2	InChI=1S/C8H12O/c9-7-5-3-8(7,4-5)6-1-2-6/h5-7,9H,1-4H2/t5-,7-,8+/m0/s1
