19
gdb 49421	3.36317	1.46942	1.42618	2.5252	77.46	-0.2443	-0.0192	0.2251	990.1299	0.16199	-385.911889	-385.904951	-385.904007	-385.943417	28.156	
O	-0.6820205478	 0.8117890793	 0.6347333194	-0.247464
C	 0.1196470847	 1.0268549413	-0.2397052867	 0.136657
C	 1.2904040771	 1.975289919	-0.1529181727	-0.078447
C	 1.2189958937	 3.148787538	-1.1427098202	-0.078756
C	 0.5808334251	 4.310722114	-0.4050123037	-0.050077
C	 0.2585670451	 3.8259120187	 1.0056470736	-0.227133
C	 1.4319329115	 2.8224914302	 1.1340377723	-0.057415
C	 2.6437897055	 3.7133718576	 0.765356913	-0.230648
C	 2.0892345751	 4.2456154644	-0.5541840769	-0.061169
H	 0.0448333927	 0.4951293182	-1.2184159509	 0.072159
H	 2.19114638	 1.3726869664	-0.34779385	 0.088171
H	 1.1127113894	 3.0061180289	-2.2100401152	 0.085639
H	-0.0132091207	 5.0514428524	-0.9235806	 0.083012
H	 0.3244829532	 4.6261496184	 1.7503870545	 0.093233
H	-0.7168709173	 3.3441819807	 1.0904345642	 0.122221
H	 1.4917704551	 2.2661185913	 2.0671962796	 0.075576
H	 2.8223713446	 4.5026412914	 1.5030415747	 0.096846
H	 3.5691034605	 3.1405987462	 0.6401365014	 0.09342
H	 2.6351513025	 4.9328558835	-1.1872192863	 0.084174
75.0138	184.4875	222.6856	379.791	425.8491	455.7231	638.6507	664.6545	696.1498	772.3837	811.3467	823.3602	850.6536	906.1786	913.3821	930.0195	940.837	950.1807	990.6004	993.5525	1010.1679	1053.3785	1068.1976	1076.4717	1086.9512	1092.7358	1151.478	1157.2626	1204.0941	1238.0508	1254.4753	1279.779	1282.2095	1311.378	1330.4362	1353.6911	1389.8582	1430.3052	1490.0966	1509.2056	1823.516	2845.8816	2994.1593	3040.8886	3053.5865	3084.607	3123.3124	3141.9464	3194.5848	3197.084	3210.25
O=CC1C2C3CC1CC23	O=C[C@H]1[C@H]2[C@H]3C[C@@H]1C[C@@H]23	
InChI=1S/C8H10O/c9-3-7-4-1-5-6(2-4)8(5)7/h3-8H,1-2H2	InChI=1S/C8H10O/c9-3-7-4-1-5-6(2-4)8(5)7/h3-8H,1-2H2/t4-,5+,6-,7-,8+/m1/s1
