15
gdb 9136	3.60873	0.95046	0.80684	4.1666	70.61	-0.2781	-0.0091	0.2691	1402.6422	0.11681	-362.639188	-362.629915	-362.62897	-362.675129	31.234	
C	 0.1398664278	 1.2619832596	 0.5937115432	-0.368326
C	-0.1860552997	 0.2392848854	-0.5101399445	-0.320019
C	-1.4554513022	-0.4465402876	-0.2994086905	 0.089781
C	-2.5098555222	-0.9971212888	-0.112886497	 0.064865
C	-3.7726655678	-1.6966925005	 0.1303844591	-0.180638
O	-3.610168004	-2.9787516938	 0.7107802943	-0.384599
C	-4.6768003844	-0.8514745751	 0.9526500493	 0.280495
N	-5.382189721	-0.2119596741	 1.6065297201	-0.319858
H	 1.0971409655	 1.7481381023	 0.3860742471	 0.122133
H	-0.6338691141	 2.0317284879	 0.651468049	 0.138107
H	 0.2051826731	 0.7742057286	 1.5697930928	 0.131787
H	-0.2110101297	 0.7404604066	-1.4858808694	 0.141124
H	 0.6155747849	-0.5071853235	-0.5752151871	 0.139633
H	-4.2832964591	-1.8809144949	-0.8230401374	 0.167133
H	-3.061831467	-2.876738752	 1.4978911109	 0.298382
15.2071	67.8401	111.2104	179.5775	217.8992	224.2787	295.9991	335.1643	377.5381	460.7067	515.8345	578.2614	612.6403	774.2601	783.8855	893.7144	976.1578	1043.0028	1080.8745	1103.4654	1165.7142	1262.5062	1284.6603	1314.8901	1348.1573	1411.3886	1414.4269	1470.4189	1495.1755	1504.4477	2358.8303	2367.2835	3026.9554	3042.9713	3049.169	3056.0812	3124.028	3129.1136	3800.1313
CCC#CC(O)C#N	CCC#C[C@@H](O)C#N	
InChI=1S/C6H7NO/c1-2-3-4-6(8)5-7/h6,8H,2H2,1H3	InChI=1S/C6H7NO/c1-2-3-4-6(8)5-7/h6,8H,2H2,1H3/t6-/m1/s1
