25
gdb 75538	2.07594	1.58094	1.14913	0.1471	94.75	-0.2255	0.0352	0.2608	1242.2378	0.229461	-352.390623	-352.380914	-352.37997	-352.424154	38.745	
C	 0.0054573285	 1.5416584302	-0.0028469329	-0.487247
C	 0.0039323126	 0.0309527614	-0.0165659247	 0.321528
C	-0.0310203965	-0.62749743	-1.1802364851	-0.162651
C	-0.0222146357	-2.1233162147	-1.344090745	-0.243525
C	 0.3822822447	-2.8369014091	-0.0501846495	-0.223825
C	-0.3141731998	-2.1881397365	 1.1473094298	-0.209839
C	 0.0499548945	-0.6950963292	 1.3326026888	 0.195934
C	 1.4640928275	-0.5683401048	 1.9475128118	-0.413027
C	-0.965361077	-0.0795469783	 2.3192571458	-0.426829
H	 0.849633375	 1.9465372831	 0.5682463941	 0.119559
H	 0.0715767389	 1.9396561773	-1.0188186547	 0.115614
H	-0.903279376	 1.9486851612	 0.455930137	 0.123304
H	-0.0753843075	-0.0475039146	-2.1011206237	 0.069702
H	-1.0202956367	-2.4606159527	-1.6645105199	 0.102644
H	 0.6526131937	-2.4012114539	-2.1639774575	 0.097215
H	 0.132519568	-3.9020751028	-0.1053588428	 0.08796
H	 1.4701388661	-2.7793314537	 0.0737072961	 0.098966
H	-1.400571686	-2.2690614898	 1.007295279	 0.088057
H	-0.0793844035	-2.7301618583	 2.0715876347	 0.083815
H	 2.2240889009	-1.0318482532	 1.3124811454	 0.115072
H	 1.7472379609	 0.4790490381	 2.0893789621	 0.111065
H	 1.4973852432	-1.0538939573	 2.9295682859	 0.10676
H	-0.9913995719	-0.6662568951	 3.2443015538	 0.107754
H	-0.7062827108	 0.9481251047	 2.5897655088	 0.110459
H	-1.9759516233	-0.0751792022	 1.8971455328	 0.111538
87.4085	179.364	205.0013	236.9629	257.9779	277.5739	298.7004	318.8391	341.6861	365.7839	429.5593	451.326	496.8639	589.9346	635.2773	667.7971	811.0518	824.9484	867.8042	891.2888	924.658	937.9113	972.4479	986.1037	1010.991	1038.1315	1060.2358	1076.0699	1102.9107	1134.5559	1152.5814	1178.4812	1224.3226	1232.8424	1282.0144	1299.7132	1357.1979	1368.3627	1380.8662	1387.2433	1393.7028	1410.6746	1423.6035	1474.4544	1476.392	1482.7494	1484.7598	1492.3982	1499.6524	1502.5971	1505.948	1514.6319	1726.1936	2986.9103	3011.058	3023.2006	3025.3605	3026.9567	3033.5401	3038.0377	3054.0606	3070.1938	3071.8235	3092.2069	3097.669	3106.8208	3109.9168	3113.5851	3129.752
CC1=CCCCC1(C)C	CC1=CCCCC1(C)C	
InChI=1S/C9H16/c1-8-6-4-5-7-9(8,2)3/h6H,4-5,7H2,1-3H3	InChI=1S/C9H16/c1-8-6-4-5-7-9(8,2)3/h6H,4-5,7H2,1-3H3
