15
gdb 26006	5.10865	0.99568	0.83769	2.1878	69.3	-0.2225	-0.0043	0.2182	1304.6326	0.113227	-454.013195	-454.004977	-454.004033	-454.047519	29.	
C	-0.1569440653	 1.5357047792	 0.0181401518	-0.497082
C	 0.1019516158	 0.0403168327	 0.0265462402	 0.400577
O	 1.2122444441	-0.4444788146	 0.1343945244	-0.354293
N	-1.0241469892	-0.7408825282	-0.0698090712	-0.430725
C	-1.0159241075	-2.1289080793	-0.033726083	 0.334449
C	 0.0049744615	-3.0180631661	 0.0825790339	-0.096846
O	-0.5621667008	-4.2721766953	 0.0612807784	-0.139403
C	-1.8802824849	-4.0537185814	-0.065826451	 0.08539
N	-2.2215853685	-2.8058255548	-0.1284600076	-0.335412
H	 0.6989430354	 2.03493863	-0.4374768528	 0.157892
H	-1.0693557776	 1.8085444221	-0.518971127	 0.124652
H	-0.2458137101	 1.8935508283	 1.0495091657	 0.155796
H	-1.9350526427	-0.3190683129	-0.1592320166	 0.264058
H	 1.0695006905	-2.9442593671	 0.1776906559	 0.176675
H	-2.5226182208	-4.9190877626	-0.1034763212	 0.154273
31.7856	89.9345	101.6759	158.046	348.7142	354.7109	371.0921	510.1943	580.9457	629.1232	640.2562	703.1883	756.773	788.1045	842.1888	937.4049	969.047	989.4872	1037.4995	1050.5715	1078.0793	1152.6947	1224.5153	1248.8705	1296.4414	1348.8749	1395.8502	1467.5889	1486.097	1518.413	1574.607	1651.1885	1780.8227	3046.6297	3113.2203	3152.4457	3279.5783	3352.519	3641.7775
CC(=O)NC1=COC=N1	CC(=O)Nc1cocn1	
InChI=1S/C5H6N2O2/c1-4(8)7-5-2-9-3-6-5/h2-3H,1H3,(H,7,8)	InChI=1S/C5H6N2O2/c1-4(8)7-5-2-9-3-6-5/h2-3H,1H3,(H,7,8)
