18
gdb 116259	1.96232	1.64705	0.99991	3.9873	72.7	-0.2682	0.0302	0.2984	1191.9762	0.147642	-439.086405	-439.077419	-439.076475	-439.120932	31.658	
C	 0.1187703862	 1.1695746676	 0.338549134	-0.241182
O	 0.0630792596	-0.2076693105	 0.0333181863	-0.237462
C	 0.5801795743	-0.5443441166	-1.2337513779	 0.08018
C	 2.1160599031	-0.7211991632	-1.2190744252	-0.088969
O	 2.3847900138	-2.1153747953	-1.0653860403	-0.257541
C	 1.1768014618	-2.8031487804	-0.7967801977	-0.077657
C	 0.1127758113	-1.9823683071	-1.5560886995	-0.200139
C	-1.2682707515	-2.2685517639	-1.1970757476	 0.284681
N	-2.3625249757	-2.5307898482	-0.9354843512	-0.325319
H	 1.1514940734	 1.5447035928	 0.3905782842	 0.110278
H	-0.4318278889	 1.7663611315	-0.4038439335	 0.115721
H	-0.3496740364	 1.2972266408	 1.3163218669	 0.142423
H	 0.2492961017	 0.180121849	-1.9900147427	 0.085343
H	 2.5819038497	-0.3816852775	-2.1515443703	 0.109922
H	 2.5488357446	-0.1530904147	-0.3862348872	 0.113392
H	 1.2737451217	-3.8275780251	-1.1626120847	 0.127236
H	 0.9419332985	-2.8208155695	 0.2760349152	 0.124535
H	 0.2409766829	-2.1580369899	-2.6297857388	 0.134557
57.9183	95.8938	135.3231	149.5198	200.6973	211.2798	323.106	365.9993	420.2862	518.5987	543.5914	653.9847	737.5154	844.7813	892.5764	937.539	981.8246	1017.6274	1048.9737	1075.48	1092.8458	1123.738	1156.9256	1183.288	1207.8895	1230.0359	1241.2637	1279.6941	1294.0368	1325.3606	1359.2288	1384.3345	1408.241	1481.2174	1490.3105	1503.5807	1509.4339	1519.0189	2366.311	2982.9462	3014.2341	3017.4657	3025.3243	3034.7678	3059.366	3064.3469	3110.5293	3129.0759
COC1COCC1C#N	CO[C@H]1COC[C@H]1C#N	
InChI=1S/C6H9NO2/c1-8-6-4-9-3-5(6)2-7/h5-6H,3-4H2,1H3	InChI=1S/C6H9NO2/c1-8-6-4-9-3-5(6)2-7/h5-6H,3-4H2,1H3/t5-,6+/m1/s1
