22
gdb 119681	4.21384	0.94711	0.92455	1.529	86.05	-0.231	0.09	0.321	1407.8741	0.19497	-367.155097	-367.146553	-367.145609	-367.188719	33.125	
C	-0.1103292925	 1.5630768735	-0.0906151846	-0.382541
C	-0.1120082743	 0.0330597387	-0.1180019976	-0.16074
C	 0.8978888795	-0.549024594	-1.1182028653	-0.309355
C	 0.8850099152	-2.0470062712	-1.1532397862	 0.379443
C	 1.3742802817	-3.0331387499	-0.0857933574	-0.29
C	 1.1523934729	-4.1353585752	-1.1546838656	-0.085546
C	-0.3679738129	-4.0764254053	-1.3651230461	-0.145337
N	-0.2244258079	-2.702484614	-1.9495019512	-0.184545
C	 1.2102394329	-2.9968142178	-2.245949679	-0.119862
H	 0.872847775	 1.9553173518	 0.1935777731	 0.110858
H	-0.3577201219	 1.9761092863	-1.0749475313	 0.115423
H	-0.8419732903	 1.9500248969	 0.6255770076	 0.110376
H	 0.1069108568	-0.3520810391	 0.8864419716	 0.093058
H	-1.1105680432	-0.3360606643	-0.3792682235	 0.113715
H	 0.6734651806	-0.1730927253	-2.1236770356	 0.105906
H	 1.9104017859	-0.2020898914	-0.8694515333	 0.091881
H	 2.4355835485	-2.8702931667	 0.1219877665	 0.1023
H	 0.8223170359	-3.1248479238	 0.8568624323	 0.091686
H	 1.7130010824	-5.0680539203	-1.1287453735	 0.071573
H	-0.7291141049	-4.7468921113	-2.1496811906	 0.105854
H	-1.0187677312	-4.1499728451	-0.4849537513	 0.092651
H	 1.6674555519	-2.8878478726	-3.2213367889	 0.093201
71.2661	86.9867	114.3976	252.4199	300.4428	316.37	334.0528	443.0828	476.7016	665.5915	701.5497	745.0495	765.7341	808.0829	851.484	865.3114	891.5785	925.2289	939.193	955.4164	980.8708	997.5753	1020.2301	1044.7992	1062.497	1077.3405	1115.7329	1145.0668	1148.5537	1160.6682	1188.3404	1225.1705	1238.9534	1262.2085	1285.2177	1306.3056	1313.9172	1337.6346	1377.2346	1413.1092	1427.3777	1473.1164	1493.3253	1494.1729	1501.2814	1509.6154	1514.5705	3011.7009	3022.2106	3025.1147	3028.3393	3035.1776	3051.3674	3069.1662	3094.8295	3096.3714	3097.46	3101.112	3130.1025	3194.0282
CCCC12CC3CN1C23	CCC[C@@]12C[C@H]3CN1[C@@H]23	
InChI=1S/C8H13N/c1-2-3-8-4-6-5-9(8)7(6)8/h6-7H,2-5H2,1H3	InChI=1S/C8H13N/c1-2-3-8-4-6-5-9(8)7(6)8/h6-7H,2-5H2,1H3/t6-,7+,8-,9?/m0/s1
