14
gdb 48099	3.36152	1.11907	0.8486	0.3757	65.54	-0.2581	-0.0853	0.1727	1243.3524	0.098456	-473.846916	-473.838429	-473.837485	-473.881237	29.141	
O	-0.8823701939	 1.3982637503	 0.0048893904	-0.24091
C	 0.2130120564	 1.0640761978	-0.3646144249	 0.093128
C	 1.4494909764	 1.963689478	-0.3757915712	 0.292644
O	 2.5126565967	 1.516259441	-0.774184651	-0.356451
N	 1.2779058819	 3.2255899433	 0.0673117069	-0.099573
C	 0.1500624874	 4.018404944	 0.5898338479	-0.284879
C	 1.1589080678	 5.1830351968	 0.7168541902	 0.380421
O	 1.0936184606	 6.310758356	 1.0902885777	-0.259441
C	 2.287584921	 4.2847137341	 0.1604451587	-0.288886
H	 0.4494915015	 0.0499285891	-0.7441365559	 0.124477
H	-0.6667381927	 4.1843288336	-0.1190809165	 0.160693
H	-0.2695489907	 3.6596668466	 1.5345382329	 0.160682
H	 3.106859763	 4.0731392224	 0.8566851885	 0.159041
H	 2.7081007645	 4.599043657	-0.8013696539	 0.159054
45.8782	98.7074	144.6762	155.4206	189.1525	257.3742	425.3302	440.6196	487.9376	567.6466	583.5979	697.856	728.5289	756.8234	921.5713	1027.8604	1044.632	1058.333	1085.2007	1101.4379	1158.864	1165.4292	1260.8941	1280.6194	1367.353	1458.5528	1463.6993	1481.6985	1756.7536	1823.9184	1939.0945	2951.2899	3040.0861	3057.2018	3088.562	3104.4339
O=CC(=O)N1CC(=O)C1	O=CC(=O)N1CC(=O)C1	
InChI=1S/C5H5NO3/c7-3-5(9)6-1-4(8)2-6/h3H,1-2H2	InChI=1S/C5H5NO3/c7-3-5(9)6-1-4(8)2-6/h3H,1-2H2
