25
gdb 122138	3.29919	0.59912	0.53178	2.6563	86.08	-0.2475	0.0643	0.3118	2149.3603	0.227614	-426.628524	-426.617008	-426.616063	-426.666423	41.218	
C	-0.1705578898	 1.5709926921	 0.0485717958	-0.381245
C	-0.0511923675	 0.0456204561	-0.0039052177	-0.162821
C	 0.7411964211	-0.4558597731	-1.2168625337	-0.173121
C	 0.8593553189	-1.9852753563	-1.2640434523	-0.195831
C	 1.5550623185	-2.5578006919	-2.5138779062	-0.046063
C	 3.0522796767	-2.2123760111	-2.5262079512	-0.072349
O	 3.7481556825	-2.6998728742	-3.6799308316	-0.422224
C	 1.3383559609	-4.0799483035	-2.6011241606	-0.054209
O	 1.7730762083	-4.6516134119	-3.8180020016	-0.438333
H	 0.8162761693	 2.0442793729	 0.1029413364	 0.113421
H	-0.6734702845	 1.9597670398	-0.8439745154	 0.113924
H	-0.7440529996	 1.8973395187	 0.9216809988	 0.112936
H	 0.4271672178	-0.3171371119	 0.9155314731	 0.095694
H	-1.0541913893	-0.401064947	-0.0186804657	 0.096437
H	 0.2557817054	-0.1018573873	-2.1371862218	 0.093258
H	 1.7371946446	 0.0052919037	-1.2030254126	 0.095995
H	 1.3810130513	-2.3390720772	-0.3632592587	 0.095673
H	-0.1507275332	-2.4122882853	-1.2093166302	 0.097866
H	 1.0920792224	-2.1121906321	-3.4081122412	 0.068869
H	 3.2067948968	-1.1299193738	-2.4285540155	 0.099072
H	 3.5469729301	-2.6904966629	-1.6723644654	 0.115771
H	 3.3976115129	-2.2368179261	-4.4487262497	 0.289639
H	 1.8266655047	-4.5582898699	-1.7322703148	 0.076567
H	 0.2671449878	-4.2985901001	-2.5218843298	 0.098765
H	 2.6821046642	-4.3465362476	-3.9448253784	 0.28231
35.2885	67.2689	92.6725	122.4661	126.0253	184.6622	241.8282	248.0257	265.2987	298.5807	314.6779	386.819	405.1257	460.9115	581.905	640.3662	730.8999	779.8459	859.0087	894.8742	903.9842	922.3263	999.0021	1022.0685	1045.2787	1060.6575	1076.5437	1088.2213	1104.6855	1127.4066	1150.2619	1201.2734	1234.0747	1267.5049	1280.7448	1308.4645	1324.9576	1330.0971	1356.0564	1377.6133	1392.8879	1397.4158	1405.2567	1414.2853	1422.8314	1470.9816	1482.5204	1486.1084	1498.9299	1500.2649	1500.3744	1511.105	1514.5605	2936.1746	2989.8904	3002.4907	3008.4835	3015.3964	3018.8475	3028.6832	3029.6937	3041.0975	3053.6627	3063.5908	3069.3049	3095.3034	3102.1705	3731.9807	3808.717
CCCCC(CO)CO	CCCCC(CO)CO	
InChI=1S/C7H16O2/c1-2-3-4-7(5-8)6-9/h7-9H,2-6H2,1H3	InChI=1S/C7H16O2/c1-2-3-4-7(5-8)6-9/h7-9H,2-6H2,1H3
