20
gdb 120197	3.81636	0.91773	0.83201	2.6941	77.27	-0.236	0.0684	0.3044	1455.9261	0.170108	-440.195109	-440.186074	-440.185129	-440.22953	33.58	
C	 0.0570945178	 1.5100070949	-0.0134216012	-0.385191
C	-0.1656848061	 0.0250792203	-0.2424441162	-0.043509
O	 0.9276017444	-0.4804066282	-0.9874556583	-0.257329
C	 0.8806693827	-1.8526961662	-1.1809882287	 0.219499
C	 0.0872657419	-2.4582867768	-2.3895968075	-0.14164
N	 1.1164381892	-1.8090909282	-3.292162982	-0.313619
C	 1.9210879573	-2.4359081942	-2.1637410503	-0.110803
C	 1.0338037639	-3.7000838269	-2.2767419073	 0.115539
O	 1.0008963165	-4.5709138274	-1.1761251051	-0.430317
H	 0.9853064963	 1.6766415839	 0.5405201777	 0.125853
H	 0.1297457788	 2.0363533831	-0.9690907997	 0.131969
H	-0.7721690097	 1.9369782518	 0.5586620091	 0.111302
H	-0.2472316088	-0.5089998871	 0.7196036982	 0.084238
H	-1.108748749	-0.1439612798	-0.7867706753	 0.088146
H	 0.7621401407	-2.3976176708	-0.2389584763	 0.084525
H	-0.9806469971	-2.4237967298	-2.611997685	 0.075438
H	 1.2291517311	-2.3796530863	-4.1388106173	 0.20237
H	 3.0080943366	-2.366051343	-2.1166974419	 0.085787
H	 1.1593083448	-4.2353524037	-3.2283701107	 0.069866
H	 0.3031233986	-5.2176890457	-1.3216429022	 0.287876
64.6006	69.8701	125.3553	236.1204	252.5466	257.8882	315.7757	358.5975	389.1817	453.3859	589.957	662.0416	781.8056	819.5393	843.448	874.778	888.1866	906.8904	916.3334	955.6467	1045.4965	1068.6317	1100.8094	1117.9608	1137.0107	1148.8529	1159.7398	1177.5527	1190.7713	1201.7454	1220.8871	1237.9491	1281.1614	1296.9777	1307.8379	1320.777	1389.7043	1407.4942	1425.8156	1459.1817	1483.1776	1499.9436	1528.6167	2957.7903	2988.0166	3008.8332	3045.215	3062.936	3100.6708	3118.7683	3118.9483	3124.0115	3355.4035	3818.1859
CCOC1C2NC1C2O	CCO[C@H]1[C@H]2N[C@@H]1[C@H]2O	
InChI=1S/C6H11NO2/c1-2-9-6-3-5(8)4(6)7-3/h3-8H,2H2,1H3	InChI=1S/C6H11NO2/c1-2-9-6-3-5(8)4(6)7-3/h3-8H,2H2,1H3/t3-,4+,5-,6-
