17
gdb 29582	2.92982	1.38593	0.99243	2.3063	74.22	-0.2	0.0187	0.2187	1159.5523	0.138018	-417.993227	-417.985055	-417.984111	-418.027012	30.665	
N	 0.1618041238	 1.3272864807	 0.4611018846	-0.607825
C	 0.0595757532	-0.0327969469	 0.1399658833	 0.112248
C	-1.0591517163	-0.8047087493	 0.0409583173	-0.07895
O	-0.7144436693	-2.1094065016	-0.1998112548	-0.145269
C	 0.6322686107	-2.1546842479	-0.26074289	-0.095536
C	 1.1811476498	-0.9235690019	-0.0554059769	 0.183745
C	 2.622299999	-0.5666221698	-0.0608361647	-0.150557
C	 3.2087209851	 0.208208688	 1.0683068169	-0.240709
N	 3.5567223931	-1.2095062614	 0.8897263631	-0.312979
H	 0.9469192117	 1.7749548145	 0.0069707903	 0.248966
H	-0.684243486	 1.847276584	 0.2692781511	 0.244923
H	-2.1132021334	-0.6016026959	 0.1244486645	 0.123612
H	 1.0671964401	-3.1215754912	-0.4570382714	 0.140109
H	 3.0714717343	-0.4280153487	-1.0431614206	 0.101946
H	 4.021852136	 0.9040338996	 0.8807452569	 0.115393
H	 2.5459850213	 0.4866995625	 1.8822326275	 0.130376
H	 3.0112011571	-1.7654943346	 1.544736883	 0.230506
25.271	151.1836	158.526	217.1617	290.603	336.3888	412.428	502.0769	601.3439	611.5011	659.4815	682.1925	726.0129	764.3159	790.1886	843.2112	872.5581	896.1586	966.252	1000.3174	1077.6972	1097.8616	1106.2445	1144.2533	1171.6858	1209.5197	1228.0978	1255.6104	1267.374	1306.0445	1329.1321	1406.9654	1423.6334	1511.3954	1585.3797	1641.8266	1670.5411	3108.1064	3113.5553	3201.5176	3268.0139	3281.7318	3493.8603	3542.4593	3633.4074
NC1=COC=C1C1CN1	Nc1cocc1[C@H]1CN1	
InChI=1S/C6H8N2O/c7-5-3-9-2-4(5)6-1-8-6/h2-3,6,8H,1,7H2	InChI=1S/C6H8N2O/c7-5-3-9-2-4(5)6-1-8-6/h2-3,6,8H,1,7H2/t6-/m1/s1
