15
gdb 48526	3.28755	1.53003	1.32375	0.6664	72.7	-0.2399	-0.0759	0.164	960.3616	0.111856	-416.669483	-416.66226	-416.661316	-416.701759	27.172	
O	-1.0658500438	 1.5260836472	 0.4360078542	-0.267152
C	-0.066708619	 1.1125348485	-0.1060604241	 0.01841
C	 1.2240429742	 1.813994388	-0.0616958721	 0.165273
C	 1.8906866102	 2.5303983484	 1.0876395103	-0.094034
C	 3.199057405	 1.7351662699	 1.3045952212	-0.186207
N	 3.6529964786	 1.5488720131	-0.1019856573	-0.146268
C	 2.6028774904	 1.7134588733	-0.8021856396	 0.058111
N	 2.4971191542	 3.0230578022	-1.4824236238	-0.329214
C	 1.5736047135	 3.2590824506	-0.2537328778	-0.058611
H	-0.0745191905	 0.1623061721	-0.6820890813	 0.086732
H	 1.2825047905	 2.8655771426	 1.92441116	 0.122307
H	 3.9928661238	 2.299200941	 1.8034586166	 0.139097
H	 3.0113413097	 0.8213424792	 1.8865874878	 0.122077
H	 1.8229620817	 2.9825177997	-2.2544519306	 0.231731
H	 0.8952286814	 4.1062738844	-0.2784287636	 0.137747
50.3893	157.0889	174.777	302.8258	368.7242	451.0731	513.1065	642.0689	676.1649	705.5449	727.4268	776.3253	871.0898	886.652	912.4587	953.802	959.8249	984.6651	1012.869	1059.762	1070.0296	1115.4154	1132.821	1162.3672	1187.0917	1257.0084	1293.8892	1301.1844	1390.8247	1434.1803	1479.8603	1602.3227	1785.914	2895.8886	3005.7703	3083.9389	3158.7488	3175.143	3379.8768
O=CC12C3CN=C1NC23	O=C[C@@]12[C@H]3C[N][C]1N[C@@H]23	
InChI=1S/C6H6N2O/c9-2-6-3-1-7-5(6)8-4(3)6/h2-4H,1H2,(H,7,8)	InChI=1S/C6H6N2O/c9-2-6-3-1-7-5(6)8-4(3)6/h2-4H,1H2,(H,7,8)/t3-,4+,6-/m0/s1
