17
gdb 127932	3.33607	1.29458	0.94473	1.7605	73.52	-0.1886	0.0483	0.2369	1211.8149	0.136083	-451.335803	-451.326405	-451.325461	-451.370552	33.001	
C	 0.0148536165	 1.3763823142	-0.1335955577	-0.33109
N	 0.033107674	-0.0738751402	-0.1085864983	-0.379554
C	-1.0947283947	-0.6510707428	 0.013403739	 0.482319
N	-2.3918833747	-0.1662490007	 0.1501792465	-0.338572
N	-3.3433811138	-1.2094703985	 0.1222708463	-0.351306
C	-2.6099630847	-2.2710598194	 0.1269717517	 0.478087
O	-3.0523641831	-3.5316804624	 0.1784107855	-0.417802
N	-1.2646210845	-2.0390466659	 0.0930356521	-0.168089
C	-0.1828872908	-2.9983776149	 0.0518708773	-0.338986
H	 1.0412478295	 1.7521284184	-0.1509568492	 0.121088
H	-0.4907422043	 1.7814878289	-1.0274275075	 0.096086
H	-0.4860229379	 1.8116803153	 0.7466895223	 0.106987
H	-2.6775628067	 0.6910419946	-0.2943713914	 0.268142
H	-4.0162772285	-3.4906168671	 0.2330156983	 0.320301
H	 0.0670786742	-3.2800654989	-0.9768294034	 0.139493
H	 0.6929515149	-2.5310291915	 0.5051332291	 0.166693
H	-0.4681933152	-3.8915122491	 0.6098296395	 0.146203
46.5334	108.225	134.5662	148.2402	183.175	267.2342	274.7589	367.0794	370.5078	434.4551	439.5411	596.1048	637.158	681.892	730.3477	766.2737	787.5582	977.3961	1058.4065	1080.3844	1120.6644	1159.6865	1172.3006	1211.9793	1216.7283	1286.8102	1360.1248	1394.4077	1438.3233	1446.8526	1489.2802	1494.2327	1503.0685	1510.902	1587.6417	1696.8233	1769.0526	2946.163	2988.2222	3040.9686	3093.5807	3114.9337	3156.2485	3650.9187	3793.8862
CN=C1NN=C(O)N1C	CN=c1[nH]nc(O)n1C	
InChI=1S/C4H8N4O/c1-5-3-6-7-4(9)8(3)2/h1-2H3,(H,5,6)(H,7,9)	InChI=1S/C4H8N4O/c1-5-3-6-7-4(9)8(3)2/h1-2H3,(H,5,6)(H,7,9)
