16
gdb 127122	4.00114	1.15399	0.91031	3.9357	68.8	-0.2087	0.0362	0.2449	1235.4237	0.124324	-471.239376	-471.2304	-471.229456	-471.273465	31.28	
C	-0.0345882831	 1.3965624461	 0.0223509307	-0.332079
N	-0.2058551485	-0.0469093659	-0.0251764567	-0.168311
C	 0.0999481461	-0.7911796619	 1.1882477471	-0.348755
C	-0.0458248069	-0.6412369889	-1.2355002029	 0.559737
N	 0.127008773	-0.0517128236	-2.3772230094	-0.351745
N	 0.1094929873	-1.1280194869	-3.2683713269	-0.319958
C	-0.0026968059	-2.3354419822	-2.6639092346	 0.47192
O	-0.0134800609	-3.4583099802	-3.0790286362	-0.39006
O	-0.1261323581	-1.9963383248	-1.2977134738	-0.251036
H	 1.0246642958	 1.6903862383	 0.0490465604	 0.125631
H	-0.4929076256	 1.8439876985	-0.8604537587	 0.16404
H	-0.528474636	 1.7787917357	 0.9195059964	 0.128988
H	-0.4886225746	-0.3790312231	 2.0126461159	 0.133651
H	-0.1667508252	-1.8391303339	 1.0576774368	 0.166745
H	 1.1650199913	-0.7281658518	 1.457486108	 0.124843
H	 0.2930898114	-0.9793600054	-4.2439166661	 0.286388
75.2301	114.5481	148.3067	164.4972	190.8044	211.6333	298.2889	354.2906	415.262	433.5982	591.3802	612.9934	711.1887	760.2328	770.6138	897.6176	944.8841	1019.6476	1089.4765	1097.8626	1130.9057	1177.8892	1202.7834	1254.6214	1294.2292	1382.4041	1448.8457	1453.7959	1479.4623	1487.836	1496.4388	1503.3476	1532.1435	1701.5741	1924.5871	2994.3018	3005.0292	3087.553	3091.4847	3148.2559	3162.0963	3709.926
CN(C)C1=NNC(=O)O1	CN(C)c1n[nH]c(=O)o1	
InChI=1S/C4H7N3O2/c1-7(2)3-5-6-4(8)9-3/h1-2H3,(H,6,8)	InChI=1S/C4H7N3O2/c1-7(2)3-5-6-4(8)9-3/h1-2H3,(H,6,8)
