17
gdb 44212	4.13551	1.15963	1.11435	4.455	72.91	-0.2715	0.0014	0.2729	1129.6717	0.136251	-421.809273	-421.801846	-421.800901	-421.84147	28.662	
O	-0.1058401681	 0.1227262387	-0.011618239	-0.326469
C	 0.0193591473	 1.3024147486	-0.0340836502	 0.479642
O	-0.9896456452	 2.254474992	-0.1888445054	-0.262434
C	-0.0288856417	 3.3194468851	 0.0503869626	 0.009725
C	 1.1119833777	 2.3266084567	 0.1148646642	-0.375092
C	 0.9729797271	 3.3334181882	-1.0359518486	 0.343024
C	 0.7248538313	 3.1535222488	-2.537612433	-0.294718
C	 1.3730834969	 4.5556882502	-2.7485049891	-0.208336
C	 1.9300714253	 4.5057491728	-1.2935142528	-0.307269
H	-0.3260272925	 4.1152429574	 0.7197343721	 0.127872
H	 1.9894370425	 2.2617878862	 0.7422226288	 0.124412
H	 1.3246931881	 2.3456512773	-2.9653771663	 0.117826
H	-0.3146801496	 3.022513775	-2.8421556094	 0.125044
H	 2.1102666136	 4.6401892514	-3.5484048034	 0.108793
H	 0.6254704631	 5.3416134763	-2.8759918407	 0.113789
H	 1.8062194463	 5.3960798819	-0.671450264	 0.108897
H	 2.9793245279	 4.1986370432	-1.2587605458	 0.115293
92.1135	120.6468	197.511	240.1658	360.4262	424.3181	499.3984	583.9641	701.4577	713.603	780.1512	794.6465	823.7019	863.2764	874.9399	912.4058	932.0498	946.9431	956.221	1003.6232	1044.505	1060.714	1083.3533	1116.7707	1145.2246	1190.9851	1214.0802	1224.3827	1254.3444	1263.2152	1278.9809	1287.9124	1415.3128	1475.7846	1482.728	1505.7129	1942.8206	3055.2088	3067.4922	3075.3036	3102.8524	3121.9419	3136.2586	3213.4944	3226.5271
O=C1OC2C1C21CCC1	O=C1O[C@H]2[C@@H]1C12CCC1	
InChI=1S/C7H8O2/c8-6-4-5(9-6)7(4)2-1-3-7/h4-5H,1-3H2	InChI=1S/C7H8O2/c8-6-4-5(9-6)7(4)2-1-3-7/h4-5H,1-3H2/t4-,5-/m0/s1
