16
gdb 65000	3.75205	1.02067	0.86241	1.1676	70.01	-0.2601	-0.03	0.2301	1317.4778	0.121979	-475.035656	-475.02657	-475.025625	-475.070113	32.502	
O	 0.0078977448	 1.3787970509	-0.1703562576	-0.458053
C	 0.0340492297	-0.0038149387	-0.0372989715	 0.270883
C	-0.3774827771	-0.6279538303	 1.2985535101	-0.304049
C	-1.3039482509	-0.6734635449	 0.1193514533	-0.285764
C	 1.0850723007	-0.7540738827	-0.7804573689	 0.425025
O	 1.1304631111	-1.9465292699	-0.928147869	-0.357737
O	 2.04948593	 0.1160221327	-1.2365206892	-0.228737
C	 3.1159860949	-0.4036494784	-1.9306366549	 0.118683
N	 4.0228366483	 0.3898092379	-2.2870866209	-0.420909
H	 0.9139049741	 1.7025618964	-0.1088023307	 0.298176
H	 0.1162601971	-1.5431562832	 1.6029101934	 0.136928
H	-0.5886716592	 0.0891358413	 2.0829523646	 0.132647
H	-2.1512041661	 0.0019251449	 0.1123058704	 0.138097
H	-1.4416841501	-1.619977479	-0.3886814597	 0.143579
H	 3.0321697531	-1.4786569603	-2.0890077894	 0.148201
H	 4.7464296098	-0.1170556769	-2.7950063602	 0.24303
53.6843	111.1818	123.6886	148.6483	260.5287	270.5292	292.7873	339.8109	412.2925	446.8761	532.3824	606.7078	745.342	780.0649	821.5154	852.78	888.5817	924.5221	948.251	998.9485	1031.6983	1056.2431	1070.7142	1091.212	1147.4663	1203.5331	1245.072	1261.7345	1343.4407	1387.7655	1403.1559	1439.6307	1481.4081	1747.6607	1828.7431	3143.6952	3144.4564	3149.8791	3238.7242	3252.5861	3508.7523	3805.8852
OC1(CC1)C(=O)OC=N	OC1(CC1)C(=O)O[CH][NH]	
InChI=1S/C5H7NO3/c6-3-9-4(7)5(8)1-2-5/h3,6,8H,1-2H2	InChI=1S/C5H7NO3/c6-3-9-4(7)5(8)1-2-5/h3,6,8H,1-2H2
