18
gdb 50086	2.61746	1.41141	1.12328	4.5396	72.49	-0.2514	0.0062	0.2576	1116.5144	0.147619	-439.044968	-439.036532	-439.035588	-439.078837	30.228	
O	-0.2910333513	 0.6343989272	-0.4043812204	-0.302357
C	-0.0181495099	 1.7375100581	 0.0053075541	 0.139369
N	 1.2329526671	 2.1100786562	 0.4596361985	-0.051893
C	 2.4983105685	 1.6972140567	-0.0880680704	-0.254111
C	 2.1399723758	 3.1563394108	 0.0261487806	-0.034754
C	 1.8901124205	 4.0257130451	-1.1836361027	-0.05683
C	 1.063570997	 3.4564201858	-2.3607094402	-0.110596
O	-0.0633052309	 4.2937645585	-2.0258881471	-0.270721
C	 0.7148567583	 5.0288587494	-1.0607226097	-0.083462
H	-0.7622019932	 2.5441184638	 0.1268205584	 0.101067
H	 3.2093472146	 1.2601091144	 0.6078153859	 0.131423
H	 2.4797752868	 1.2390840234	-1.074506139	 0.137795
H	 2.5880825826	 3.704936814	 0.8555322737	 0.106744
H	 2.8418473277	 4.4794603875	-1.4732765443	 0.094797
H	 1.475732212	 3.7026803082	-3.3475031591	 0.105379
H	 0.8035678268	 2.3934288994	-2.3408148361	 0.133886
H	 0.2189373416	 5.0840941668	-0.084458447	 0.109444
H	 0.9428774459	 6.0455062346	-1.4061052849	 0.104819
72.8185	85.5634	118.9965	192.5934	209.45	277.7937	314.3725	444.1562	524.3364	649.9872	717.79	828.2385	854.6101	878.9478	938.9767	959.9972	985.2612	1024.4324	1036.9757	1041.1733	1078.6997	1093.4555	1124.6474	1138.8328	1160.2591	1165.3393	1173.186	1178.5897	1243.9616	1312.883	1359.8552	1375.6812	1397.0762	1422.2048	1431.8525	1511.2959	1515.8146	1539.3884	1788.343	2984.729	3010.32	3021.8201	3058.4597	3072.4559	3083.0238	3099.7595	3106.2477	3192.5682
O=CN1CC1C1COC1	O=CN1C[C@H]1C1COC1	
InChI=1S/C6H9NO2/c8-4-7-1-6(7)5-2-9-3-5/h4-6H,1-3H2	InChI=1S/C6H9NO2/c8-4-7-1-6(7)5-2-9-3-5/h4-6H,1-3H2/t6-,7?/m0/s1
