16
gdb 18994	4.39767	2.24836	2.08578	2.7874	62.69	-0.2404	0.0794	0.3199	707.9629	0.133328	-383.68949	-383.683971	-383.683027	-383.718858	22.924	
C	 0.076234176	 1.5192208044	 0.1197162781	-0.084327
O	 1.4799171889	 1.5027898689	-0.2364693706	-0.29228
C	 1.4887686657	 0.0727067663	-0.3347585538	 0.136749
C	 2.0594015268	-0.6646430862	 0.8965529723	 0.037947
C	 1.1497263314	-1.918936569	 0.960233678	-0.235591
C	 0.1607892906	-0.7947386812	 1.3636243516	 0.05652
O	 1.278691196	-0.0989203893	 1.9929172597	-0.283592
C	-0.0166437622	-0.0184922444	 0.0428687551	-0.096314
H	-0.087689052	 1.9576929345	 1.1092768584	 0.113215
H	-0.5165488339	 2.0548407369	-0.6311085788	 0.097064
H	 1.8667567532	-0.2896616361	-1.2955838309	 0.078481
H	 3.1342465588	-0.6730811967	 1.0721189257	 0.088407
H	 0.961873886	-2.4937424367	 0.0484282578	 0.098559
H	 1.4053759816	-2.5669381695	 1.79846966	 0.118029
H	-0.694659715	-0.9444570042	 2.0220531923	 0.084005
H	-0.732850262	-0.4522975776	-0.6539085949	 0.083128
219.6517	282.891	400.1858	454.02	632.3008	660.1746	779.5736	819.6126	863.5093	870.2318	870.3238	881.5377	922.6881	951.1772	986.2937	1005.7959	1030.8801	1045.2221	1057.9495	1078.7578	1100.9127	1164.9634	1181.3558	1183.5121	1219.3716	1238.0396	1265.4422	1276.6881	1307.0172	1319.0544	1334.0788	1366.2073	1483.7378	1507.0086	3025.7681	3059.6296	3065.7544	3081.1579	3118.7493	3127.8077	3136.5869	3148.4173
C1OC2C3CC(O3)C12	C1O[C@H]2[C@@H]3C[C@@H](O3)[C@@H]12	
InChI=1S/C6H8O2/c1-4-3-2-7-6(3)5(1)8-4/h3-6H,1-2H2	InChI=1S/C6H8O2/c1-4-3-2-7-6(3)5(1)8-4/h3-6H,1-2H2/t3-,4-,5+,6-/m1/s1
