17
gdb 19021	3.32497	2.36835	1.96647	0.1591	66.85	-0.2266	0.046	0.2726	762.1355	0.143435	-363.767943	-363.761398	-363.760453	-363.798214	26.246	
C	-0.0319562329	 1.5706837663	 0.0887584633	-0.445234
C	 0.0647453153	 0.0632760447	-0.0732473362	 0.031513
C	 0.4753379129	-0.7244022262	-1.2500732052	-0.082094
C	 1.7728714586	-0.2742373889	-1.9448453884	 0.107486
O	 2.06054087	 1.1449264465	-2.0141450608	-0.299719
C	 2.8638448867	 1.0703152646	-0.8002710975	-0.107416
C	 2.4862719686	-0.4067392627	-0.6063474064	-0.021512
N	 1.2198391024	-0.8525742096	 0.104505461	-0.187596
H	 0.5110998667	 2.1233553418	-0.6720278271	 0.161856
H	-1.0888101483	 1.8473622424	 0.0108501526	 0.118
H	 0.3061925725	 1.8741102058	 1.0854963075	 0.122302
H	-0.7631535672	-0.4263646632	 0.4416153596	 0.105018
H	-0.1252859242	-1.5463161168	-1.6318745016	 0.092641
H	 2.0384790016	-0.806416366	-2.860404641	 0.088374
H	 3.9270293835	 1.2111097404	-1.0323477892	 0.108312
H	 2.5616111874	 1.7940257529	-0.0394982784	 0.113831
H	 3.2831399765	-1.1189367222	-0.4000390924	 0.09424
183.1482	216.7108	293.0801	307.5609	346.2663	494.6092	617.4871	660.7244	693.7062	712.5023	831.7461	868.5353	897.9334	909.553	927.114	958.3755	987.8935	1037.4483	1056.325	1077.0716	1082.9	1120.4792	1157.6621	1167.3389	1210.5975	1241.4465	1279.6699	1301.0847	1318.4961	1349.0225	1370.058	1405.8392	1448.2233	1492.8373	1510.1384	1530.4002	3024.7996	3040.8209	3088.1138	3089.532	3095.0448	3099.1242	3127.1914	3139.8542	3192.2639
CC1C2C3OCC3N12	C[C@H]1[C@H]2[C@H]3OC[C@H]3N12	
InChI=1S/C6H9NO/c1-3-5-6-4(2-8-6)7(3)5/h3-6H,2H2,1H3	InChI=1S/C6H9NO/c1-3-5-6-4(2-8-6)7(3)5/h3-6H,2H2,1H3/t3-,4+,5-,6-,7?/m0/s1
