17
gdb 25597	6.22138	0.69221	0.65529	5.4032	76.21	-0.2257	-0.0133	0.2124	1641.2005	0.136684	-418.057819	-418.04927	-418.048326	-418.092723	30.193	
O	-0.2753706181	 0.0252657935	 0.015201657	-0.241485
C	-0.0335038232	 1.2037559608	 0.073622862	 0.155491
C	 1.3271646228	 1.8264477566	-0.1160624824	-0.260469
C	 1.3147855883	 2.9290563633	-1.1971760234	-0.33097
C	 2.5998013278	 3.6955170982	-1.2377591847	 0.304006
C	 3.4833321078	 3.8417657462	-2.2759569913	-0.195117
N	 4.4969503514	 4.6397301465	-1.7886932899	-0.230011
C	 4.1888499603	 4.9346365325	-0.49572581	 0.013971
N	 3.0554339596	 4.3836219714	-0.1310003523	-0.305023
H	-0.8455502524	 1.942275787	 0.2808003709	 0.067351
H	 1.6204165587	 2.2951944028	 0.8331403931	 0.144755
H	 2.0515753752	 1.0415578261	-0.3494396684	 0.117533
H	 1.1174174021	 2.4877887736	-2.1798983217	 0.110904
H	 0.4868948493	 3.6193484912	-0.987251083	 0.117762
H	 3.4867957333	 3.4675731114	-3.2861755536	 0.130641
H	 5.3114391506	 4.9430122621	-2.2952539091	 0.268724
H	 4.8238659565	 5.5514331866	 0.1227121969	 0.131937
44.2226	68.7084	78.767	128.2471	280.5678	318.1023	367.1111	515.1901	520.9983	657.0853	686.7994	725.1451	747.1587	784.6462	823.3032	852.3885	949.8012	975.8509	1000.7687	1066.2073	1087.6731	1097.3888	1135.3681	1186.3648	1243.2963	1262.7348	1288.2053	1307.9939	1352.6288	1376.3318	1430.697	1456.8192	1463.0602	1485.9298	1529.2736	1602.3818	1834.6315	2840.4398	3019.3471	3030.6586	3073.322	3108.2576	3250.8525	3274.1311	3668.5046
O=CCCC1=CNC=N1	O=CCCc1c[nH]cn1	
InChI=1S/C6H8N2O/c9-3-1-2-6-4-7-5-8-6/h3-5H,1-2H2,(H,7,8)	InChI=1S/C6H8N2O/c9-3-1-2-6-4-7-5-8-6/h3-5H,1-2H2,(H,7,8)
