23
gdb 112808	2.38328	1.17717	1.00633	2.3947	82.59	-0.246	0.0725	0.3185	1351.4079	0.204529	-425.40771	-425.397555	-425.396611	-425.442804	37.757	
C	-0.2208881559	 1.779526241	-0.051766819	-0.384357
C	-0.2129679118	 0.3371105825	 0.4658839903	-0.19097
C	-1.4587802175	-0.4332379062	 0.0515075106	-0.017253
C	-1.7158310058	-0.7645002619	-1.4574156877	 0.134265
O	-0.5406784278	-0.9373487099	-2.2208921555	-0.440868
C	-2.3651030184	-2.1007659207	-0.991874095	-0.280747
C	-1.5812083321	-1.9531166242	 0.3436344714	 0.080517
O	-0.2888804533	-2.5410740486	 0.2687015227	-0.252668
C	-0.2879753039	-3.9337932231	 0.5023750926	-0.238203
H	 0.6703155249	 2.3223777962	 0.2781969022	 0.108514
H	-0.2371141394	 1.7959244045	-1.1457213827	 0.133252
H	-1.097853005	 2.3301492546	 0.3078487457	 0.105693
H	 0.6766290851	-0.1803657234	 0.0959813992	 0.10387
H	-0.1363611027	 0.3298656698	 1.5607876028	 0.090112
H	-2.3546956987	 0.0573533103	 0.4517286838	 0.072116
H	-2.3448817306	-0.0712377535	-2.0203072312	 0.077095
H	 0.0136932107	-1.5628815445	-1.7360120559	 0.283896
H	-3.4458175351	-2.0158999961	-0.8471282758	 0.101545
H	-2.150306616	-2.9797839973	-1.6049506479	 0.101809
H	-2.0771540947	-2.2625234349	 1.2741392934	 0.059444
H	-0.6733543664	-4.1678622194	 1.5059874909	 0.111151
H	-0.8929829887	-4.4797645635	-0.2356327721	 0.111829
H	 0.747755183	-4.2742499619	 0.4315540771	 0.129957
72.4967	100.129	132.3505	146.8347	197.7788	208.931	264.5512	288.6977	329.231	381.7375	425.5001	499.8103	545.6	578.7944	709.7463	786.2435	822.1955	859.5724	903.8844	914.1942	951.7213	987.6923	1024.0478	1032.1516	1082.6443	1095.711	1147.7352	1161.7246	1169.4912	1178.5488	1187.1382	1222.9097	1246.0881	1253.8054	1278.8877	1292.813	1327.8052	1342.5144	1376.1178	1391.7269	1408.954	1450.7796	1467.3989	1482.3903	1485.3132	1489.0424	1500.0154	1510.135	1510.4579	2984.9254	3002.6278	3027.5853	3030.5878	3034.7337	3036.3698	3058.9282	3081.1766	3086.524	3101.1094	3112.0411	3116.7396	3117.7445	3762.6448
CCC1C(O)CC1OC	CC[C@H]1[C@@H](O)C[C@H]1OC	
InChI=1S/C7H14O2/c1-3-5-6(8)4-7(5)9-2/h5-8H,3-4H2,1-2H3	InChI=1S/C7H14O2/c1-3-5-6(8)4-7(5)9-2/h5-8H,3-4H2,1-2H3/t5-,6-,7+/m0/s1
