15
gdb 13086	4.33156	1.31963	1.08969	6.4807	61.67	-0.267	0.0335	0.3005	1041.4332	0.118087	-399.785421	-399.777296	-399.776352	-399.818943	28.108	
O	 0.0453085247	 1.3966612306	-0.2192153531	-0.420686
C	 0.071714363	 0.0117453255	 0.0202237604	 0.036366
C	-0.0010403821	-0.4706870099	 1.4880348614	-0.09888
O	-1.2525000896	-1.1475787633	 1.2379260589	-0.280138
C	-1.3189678103	-0.6528746377	-0.1122309516	 0.120387
C	-2.489565791	 0.312642701	-0.335200105	-0.343879
C	-3.778233256	-0.3702883395	-0.2630963913	 0.260132
N	-4.7948314105	-0.9173222653	-0.2181699254	-0.303803
H	 0.9417938188	 1.7411242915	-0.1666692387	 0.29705
H	 0.8469591814	-0.486100418	-0.5734071965	 0.090743
H	 0.7793951097	-1.1636638476	 1.8215789636	 0.109219
H	-0.1067621502	 0.3467538023	 2.2120336733	 0.109643
H	-1.3758985675	-1.4773373444	-0.8322483461	 0.101366
H	-2.4562157511	 1.1139188927	 0.4076763882	 0.163216
H	-2.3865999292	 0.7835102824	-1.3190657882	 0.159265
60.9306	67.2152	128.7798	205.633	228.7422	370.0716	390.004	406.9213	525.5115	544.5884	755.8363	845.3267	895.229	899.9439	957.3561	1014.0768	1040.2631	1057.525	1099.1732	1151.2876	1176.9698	1194.4959	1228.2873	1277.8447	1306.6909	1312.2615	1356.0535	1391.8196	1437.849	1448.5437	1515.5076	2365.425	3020.2094	3031.1102	3046.8567	3060.7889	3076.1572	3111.2517	3831.5116
OC1COC1CC#N	O[C@H]1CO[C@H]1CC#N	
InChI=1S/C5H7NO2/c6-2-1-5-4(7)3-8-5/h4-5,7H,1,3H2	InChI=1S/C5H7NO2/c6-2-1-5-4(7)3-8-5/h4-5,7H,1,3H2/t4-,5-/m0/s1
