15
gdb 29655	2.45071	1.64366	0.99342	4.0428	64.34	-0.1761	0.0383	0.2144	1110.807	0.111771	-491.123384	-491.114228	-491.113284	-491.157049	32.785	
C	-0.0263292846	 1.4225310111	 0.0759154596	-0.342835
N	 0.0236999532	-0.0223046291	 0.0471556719	-0.148862
C	-0.0137302292	-0.7673335836	-1.1331856046	 0.449133
O	-0.0795077758	-0.3392629149	-2.2703261609	-0.436964
N	 0.0324708923	-2.0897838202	-0.7086924022	-0.425944
C	-0.0117693445	-2.146204966	 0.7025286708	 0.167743
O	-0.0546558352	-3.312782085	 1.4042038792	-0.432242
C	 0.0079413641	-0.8767711624	 1.1463409962	 0.287186
O	 0.0472742645	-0.341718759	 2.3882712146	-0.441123
H	 0.8494945235	 1.8392974444	 0.5824101231	 0.13618
H	-0.0398983455	 1.7534521699	-0.9636053656	 0.169257
H	-0.9281363409	 1.7787292987	 0.5840180249	 0.136236
H	-0.2837963233	-2.8296503959	-1.3134500003	 0.266112
H	 0.816749625	-3.7313597116	 1.3891376361	 0.303684
H	-0.0705791536	-1.0608577864	 3.0195805571	 0.31244
101.4352	122.6627	171.5638	237.4751	248.7158	256.3548	273.2859	305.3802	351.5315	360.8439	460.7501	565.509	618.3105	642.7304	673.317	744.6786	762.683	929.4289	1030.9866	1154.6405	1160.3682	1219.7398	1259.7642	1262.286	1283.3469	1360.5732	1426.6915	1439.8283	1492.0591	1515.9567	1524.0488	1780.7308	1835.6259	3038.608	3096.594	3151.3277	3665.5881	3718.855	3817.3951
CN1C(=O)NC(O)=C1O	Cn1c(=O)[nH]c(O)c1O	
InChI=1S/C4H6N2O3/c1-6-3(8)2(7)5-4(6)9/h7-8H,1H3,(H,5,9)	InChI=1S/C4H6N2O3/c1-6-3(8)2(7)5-4(6)9/h7-8H,1H3,(H,5,9)
