19
gdb 13597	4.23447	1.18161	1.09344	3.7087	73.32	-0.2375	-0.014	0.2235	1182.7069	0.163875	-365.062414	-365.0533	-365.052356	-365.096632	32.593	
C	-0.2984291275	 1.6897805387	-0.0503066283	-0.378505
C	-0.3758344896	 0.1857717458	-0.2939893312	-0.287233
C	 0.9150919918	-0.4103632097	-0.8421585352	 0.408756
O	 1.8786563542	 0.2730803549	-1.1067390774	-0.3112
C	 0.9055923155	-1.9051376384	-1.0008715345	-0.144122
N	 1.8477977885	-2.5006971166	-1.9679495103	-0.311734
C	 2.0567928185	-2.7716428042	-0.5516467144	 0.012495
C	 3.312741176	-2.2273538447	 0.0817031066	-0.40368
H	 0.4822914997	 1.9270319879	 0.6770939573	 0.130009
H	-0.050891844	 2.2197021689	-0.973304117	 0.13484
H	-1.2513033018	 2.0717063469	 0.3266167991	 0.10801
H	-0.6357206352	-0.3576551165	 0.6258027891	 0.120046
H	-1.1802104246	-0.0609861953	-1.0024676489	 0.12208
H	-0.0802735954	-2.3581853236	-0.9118412689	 0.081452
H	 1.4021918658	-3.2885552206	-2.430734739	 0.235348
H	 1.7473144736	-3.7505676848	-0.1837471985	 0.08728
H	 3.5442285762	-1.2397644665	-0.3179612526	 0.166431
H	 3.1995416636	-2.157702511	 1.1689421169	 0.110868
H	 4.1536839845	-2.8972271711	-0.1273047529	 0.118857
49.3254	79.3703	165.2568	182.3255	199.6907	236.9747	288.5475	353.3812	394.2647	430.5476	580.8025	656.5956	752.27	814.1995	822.4465	856.3008	924.476	980.7157	1008.4216	1018.2152	1047.6097	1081.3457	1091.4456	1128.2432	1154.1345	1191.7471	1242.3905	1259.6911	1276.6685	1360.4876	1398.3839	1413.4509	1431.4528	1451.3792	1460.6598	1492.1401	1495.7007	1497.6648	1501.4566	1803.3476	3008.6784	3034.9588	3038.1491	3051.4955	3095.803	3096.8362	3121.3393	3122.4109	3128.5014	3156.8073	3504.1692
CCC(=O)C1NC1C	CCC(=O)[C@H]1N[C@H]1C	
InChI=1S/C6H11NO/c1-3-5(8)6-4(2)7-6/h4,6-7H,3H2,1-2H3	InChI=1S/C6H11NO/c1-3-5(8)6-4(2)7-6/h4,6-7H,3H2,1-2H3/t4-,6-/m0/s1
