13
gdb 129168	5.36622	1.32257	1.06185	1.2676	68.78	-0.1946	-0.0076	0.187	1024.071	0.091611	-448.911041	-448.904039	-448.903095	-448.94242	26.59	
N	-0.073334795	 1.3129104683	 0.0569875724	-0.58628
C	-0.0003003614	 0.0449736942	-0.0106380211	 0.420241
N	 1.1343334224	-0.816860907	-0.0658190287	-0.475257
C	 0.6768571791	-2.1070527127	 0.00612888	 0.493686
C	-0.6810241415	-2.1326215147	 0.0196960788	 0.184698
N	-1.1112082675	-0.8044596095	-0.0513875225	-0.453491
C	-0.9737917362	-3.5077740744	 0.000330002	-0.085698
N	 0.1326629191	-4.2404571518	-0.0028597623	-0.169541
O	 1.2227690388	-3.3088469408	-0.0163700442	-0.234475
H	 0.8412043645	 1.7544390219	 0.0663407641	 0.21456
H	 2.0737303692	-0.4920917716	 0.0817962807	 0.27767
H	-2.021304311	-0.4421020943	 0.1717061734	 0.274803
H	-1.9215911505	-4.0259313476	 0.0057655873	 0.139085
112.8724	173.8579	261.0113	331.8574	348.49	403.823	547.3534	584.8623	594.5267	685.1736	713.1084	732.3232	770.8239	809.4043	867.5846	884.5583	928.0992	979.3396	1056.3887	1181.7692	1197.6866	1284.132	1311.713	1342.3242	1412.3973	1519.187	1581.2572	1662.1191	1764.1066	3251.1694	3541.3078	3686.8685	3691.1099
N=C1NC2=C(N1)C=NO2	[NH][C@@H]1Nc2c(N1)cno2	
InChI=1S/C4H4N4O/c5-4-7-2-1-6-9-3(2)8-4/h1H,(H3,5,7,8)	InChI=1S/C4H5N4O/c5-4-7-2-1-6-9-3(2)8-4/h1,4-5,7-8H/t4-/m0/s1
