19
gdb 34942	3.47537	1.51278	1.31471	0.7891	84.67	-0.2525	0.0534	0.3059	1016.8386	0.161467	-348.687256	-348.680329	-348.679384	-348.718251	29.366	
C	-0.0365971174	-1.1942132112	-0.0775683032	-0.440402
C	 0.0081229659	 0.0049203974	 0.0082589939	 0.291577
C	 0.0576123673	 1.4558901519	 0.0769852521	-0.149644
C	-0.3490855982	 2.0892427669	 1.4391892718	-0.058397
C	 0.6780609875	 1.4569897255	 2.4131306288	-0.243756
C	 1.6822040191	 2.314727294	 1.6318385484	-0.016902
C	 0.5730325868	 3.3879690454	 1.388847814	-0.030631
C	 1.1006153938	 3.6054344509	-0.0363089589	-0.25062
C	 1.4758601277	 2.104208319	 0.0669654115	-0.05038
H	-0.0785791307	-2.2526075463	-0.1500238454	 0.18837
H	-0.5435997437	 1.8612803676	-0.7446323361	 0.096623
H	-1.4130002028	 2.1347307294	 1.668200125	 0.067938
H	 0.5604069944	 1.8376527065	 3.4320727748	 0.094421
H	 0.7716813103	 0.3687366852	 2.427216621	 0.109865
H	 2.6874193979	 2.5574843971	 1.9742760072	 0.065917
H	 0.3459705163	 4.1883651703	 2.0922447458	 0.067941
H	 0.4239200132	 3.9155106137	-0.8397217587	 0.088827
H	 1.9801094664	 4.2559127207	-0.0252081762	 0.096685
H	 2.2307729759	 1.6437843859	-0.5680284659	 0.072567
143.9124	153.6606	352.3624	418.1967	429.7702	473.0787	526.9001	620.7113	624.2594	677.541	719.2974	782.2032	827.6793	834.2335	835.6033	871.995	926.9137	936.8033	972.4079	997.9722	1005.5161	1010.4975	1039.6732	1064.0991	1071.44	1087.1412	1123.6808	1153.0723	1186.8611	1198.4583	1212.3257	1240.7242	1252.6378	1270.4836	1282.6071	1296.5844	1314.8913	1365.2276	1495.7985	1498.1985	2230.8643	3036.2412	3041.7764	3057.0452	3096.5563	3115.3173	3115.5313	3120.8368	3127.2231	3134.5871	3504.2492
C#CC1C2CC3C2CC13	C#C[C@H]1[C@H]2C[C@@H]3[C@H]2C[C@H]13	
InChI=1S/C9H10/c1-2-5-6-3-8-7(5)4-9(6)8/h1,5-9H,3-4H2	InChI=1S/C9H10/c1-2-5-6-3-8-7(5)4-9(6)8/h1,5-9H,3-4H2/t6-,7-,8+,9+/m1/s1
