14
gdb 123521	4.07056	1.77155	1.23435	3.0789	77.27	-0.2357	-0.0426	0.193	923.4342	0.106552	-395.804908	-395.799214	-395.79827	-395.834869	23.098	
C	 0.0698618763	 1.2907251268	 0.0086626427	 0.03645
N	 1.3102059308	 1.7809960763	-0.0003873165	-0.275027
N	 2.050714995	 0.6473197586	-0.013674584	-0.041289
C	 3.4087302325	 0.5699422754	-0.0269826359	 0.03828
C	 3.9877098033	-0.667581008	-0.039324297	-0.173393
C	 3.1794344299	-1.8340398804	-0.0381133402	-0.07428
C	 1.8096313069	-1.742469696	-0.0246129579	-0.247986
C	 1.2149882819	-0.4648439648	-0.0119035513	 0.446573
N	-0.0546989412	-0.0521987401	 0.0024411357	-0.355837
H	-0.780863223	 1.9571319981	 0.020423879	 0.130461
H	 3.9361153912	 1.5138805093	-0.0267633476	 0.152079
H	 5.0673357194	-0.7437686976	-0.0499876604	 0.118074
H	 3.6558457002	-2.8078155647	-0.0480191859	 0.116504
H	 1.1676452068	-2.6139713325	-0.0233415606	 0.129392
224.2548	251.7397	433.3469	436.4864	571.8618	589.7143	645.1523	674.6919	772.263	788.5777	797.4974	874.7177	910.1046	935.0548	944.5458	968.4985	986.1206	1032.5018	1141.6943	1159.3503	1207.04	1231.9375	1277.0986	1301.5137	1356.6437	1371.5593	1466.4841	1487.8239	1547.3118	1574.5759	1679.62	3194.6651	3217.4726	3224.1084	3242.4864	3252.6069
C1=NN2C=CC=CC2=N1	c1nn2ccccc2n1	
InChI=1S/C6H5N3/c1-2-4-9-6(3-1)7-5-8-9/h1-5H	InChI=1S/C6H5N3/c1-2-4-9-6(3-1)7-5-8-9/h1-5H
