21
gdb 110708	2.98265	1.20596	1.08199	1.4542	83.25	-0.222	0.0159	0.238	1225.9415	0.183026	-387.047371	-387.038775	-387.037831	-387.080515	33.79	
C	-0.1123892676	 1.705542382	 0.4350677955	-0.431889
C	-0.0387978418	 0.1969706235	 0.268975731	 0.056594
C	 1.0495838577	-0.4918117586	-0.6389093626	-0.088496
C	 2.3385175516	-0.0225331902	 0.0479815223	-0.088857
C	 2.0712112928	-0.178456888	 1.3485813654	-0.090523
C	 0.6381009383	-0.7293381597	 1.3506302588	-0.118505
C	 0.7849273081	-1.8003197714	 0.2029687808	 0.073894
C	-0.3993995157	-2.6850824182	-0.1471416669	-0.136046
O	-0.071786947	-3.3539004142	-1.3606680391	-0.421483
H	 0.8571598479	 2.1370322972	 0.6944016526	 0.119089
H	-0.4588939856	 2.1775097772	-0.4914187967	 0.110814
H	-0.8263646895	 1.972153454	 1.2228093415	 0.108947
H	-1.0358624999	-0.1749213635	 0.0166716518	 0.066664
H	 0.9951637254	-0.4845185946	-1.7269405243	 0.063578
H	 3.2332675237	 0.336403929	-0.4404953371	 0.096627
H	 2.6845237732	 0.019450128	 2.216085881	 0.096064
H	 0.1637980684	-0.9551393488	 2.307161006	 0.051352
H	 1.6658534085	-2.4400468064	 0.3004555955	 0.074991
H	-0.5521582833	-3.4059040263	 0.6736726344	 0.084037
H	-1.3334708878	-2.1165784146	-0.2544243344	 0.087315
H	-0.7963525674	-3.9465305862	-1.5807521456	 0.285832
64.6772	161.6004	219.553	229.4887	261.1743	269.6461	312.3823	388.4114	521.2118	566.5411	571.7005	705.7039	736.9083	743.3158	805.9891	835.0605	895.4022	910.7383	920.8499	934.102	980.5481	1025.2768	1053.1309	1064.1493	1065.6509	1090.2672	1105.0909	1117.3112	1162.9153	1180.104	1196.0308	1229.8119	1244.7202	1254.7213	1262.8921	1270.8747	1326.8958	1378.8341	1397.3495	1409.3663	1461.3712	1492.4727	1502.7235	1519.7222	1619.9861	2961.0198	3008.961	3029.7021	3067.4119	3078.2469	3085.4012	3101.6321	3122.3751	3125.5162	3217.858	3244.9905	3829.1986
CC1C2C=CC1C2CO	C[C@H]1[C@H]2C=C[C@@H]1[C@H]2CO	
InChI=1S/C8H12O/c1-5-6-2-3-7(5)8(6)4-9/h2-3,5-9H,4H2,1H3	InChI=1S/C8H12O/c1-5-6-2-3-7(5)8(6)4-9/h2-3,5-9H,4H2,1H3/t5-,6+,7-,8-
