17
gdb 53466	4.91436	0.69648	0.61499	1.8558	80.39	-0.2404	-0.0537	0.1866	1780.5313	0.133145	-418.011122	-418.000569	-417.999625	-418.049172	35.982	
C	 0.0829381933	 1.4879041359	 0.0443996127	-0.498837
C	 0.0259579027	 0.0364660436	-0.0462859838	 0.136795
C	-0.0245340921	-1.1630007512	-0.1204508463	 0.042464
C	-0.0818519328	-2.6117326935	-0.2095162265	-0.497138
C	-1.4773071215	-3.193253353	-0.01648015	 0.382509
O	-2.4716166329	-2.5292327106	 0.1603970149	-0.305159
C	-1.5809158595	-4.7157140457	-0.0491336961	 0.272543
N	-2.8749438178	-5.1405894597	 0.0087145694	-0.537809
N	-0.4981914755	-5.3933935854	-0.1426664233	-0.510965
H	 0.7486062146	 1.8119450215	 0.8521014331	 0.146002
H	 0.4515136183	 1.9320766218	-0.8869091475	 0.146184
H	-0.9086243947	 1.9094385809	 0.2428109101	 0.151351
H	 0.2880925397	-2.9760241326	-1.1770912819	 0.166231
H	 0.5782327834	-3.0977230425	 0.5192356318	 0.171352
H	-3.5637173649	-4.4399684758	 0.2384480767	 0.27268
H	-3.0828375543	-6.1029351106	 0.2123282451	 0.25416
H	-0.6781671459	-6.3996828932	-0.1487170684	 0.207638
20.3548	30.5481	73.7444	80.0632	200.736	223.6914	280.963	294.6776	368.3463	376.2522	403.755	426.1711	510.563	543.2845	614.6409	672.9641	775.1485	828.8528	871.2573	950.3167	1050.5503	1054.8451	1055.0602	1105.6868	1141.8686	1173.975	1198.9571	1343.0032	1414.5121	1417.8179	1430.3555	1478.472	1478.6761	1599.2087	1719.1923	1805.069	2383.9141	3026.7917	3036.294	3061.4958	3086.6043	3088.6674	3445.7652	3583.1905	3717.8146
CC#CCC(=O)C(N)=N	CC#CCC(=O)C(=N)N	
InChI=1S/C6H8N2O/c1-2-3-4-5(9)6(7)8/h4H2,1H3,(H3,7,8)	InChI=1S/C6H8N2O/c1-2-3-4-5(9)6(7)8/h4H2,1H3,(H3,7,8)
