18
gdb 101290	2.78118	0.9898	0.8499	5.3105	73.03	-0.2672	0.0228	0.2901	1377.0671	0.146761	-439.076177	-439.066752	-439.065808	-439.11103	34.248	
O	 0.0646699484	 1.4053989327	 0.0697457842	-0.421089
C	 0.0008940577	 0.0088678824	 0.2347669092	-0.058692
C	-1.3920203549	-0.51874264	-0.1276726461	 0.077948
O	-1.7440629708	-0.0495988571	-1.4317913865	-0.437897
C	-1.4821625313	-2.0224178351	-0.01775102	-0.033132
C	-1.8176575436	-2.6821616333	 1.2875187021	-0.29307
C	-2.8240307871	-2.7235984835	 0.1484106022	-0.181591
C	-4.038408464	-1.9626359891	 0.2506705896	 0.296954
N	-5.02258064	-1.3618174387	 0.343462018	-0.338255
H	-0.426239449	 1.5930371124	-0.7414085577	 0.287877
H	 0.7527837204	-0.5101897634	-0.3902686831	 0.069408
H	 0.235935616	-0.2162822204	 1.2806045201	 0.112802
H	-2.1266323314	-0.0507954317	 0.5364788572	 0.118223
H	-1.202894405	-0.5212641035	-2.0764659386	 0.282771
H	-0.7820922858	-2.5593368379	-0.6552904235	 0.097965
H	-1.3275740038	-3.611926169	 1.5506204531	 0.134816
H	-2.0611606876	-2.0428164021	 2.1286331515	 0.147855
H	-2.9435900482	-3.6699058728	-0.3680874717	 0.137106
56.0982	84.475	123.1053	174.8025	221.0245	270.1257	308.7124	327.4739	404.312	456.2956	507.6132	532.7431	565.3982	640.2881	776.2208	833.4455	858.7475	891.5756	962.8073	997.263	1061.6508	1080.7988	1087.5676	1108.5553	1117.5884	1125.5588	1157.4495	1209.432	1220.8026	1277.1808	1297.7032	1375.8453	1380.9559	1406.5239	1435.3783	1447.2579	1488.5721	1506.056	2356.2275	2921.9035	3063.3137	3074.195	3126.7443	3145.4988	3170.7283	3235.7784	3761.9927	3786.8175
OCC(O)C1CC1C#N	OC[C@@H](O)[C@H]1C[C@H]1C#N	
InChI=1S/C6H9NO2/c7-2-4-1-5(4)6(9)3-8/h4-6,8-9H,1,3H2	InChI=1S/C6H9NO2/c7-2-4-1-5(4)6(9)3-8/h4-6,8-9H,1,3H2/t4-,5-,6+/m0/s1
