21
gdb 105195	1.83489	1.47151	1.04763	2.1007	79.62	-0.2406	-0.0099	0.2308	1266.9079	0.179364	-424.236284	-424.225866	-424.224922	-424.271557	38.19	
C	-0.6629990422	 1.3811555879	 0.4292471686	-0.380547
C	 0.146131463	 0.1572680768	-0.020199768	-0.283153
C	 0.9585764008	-0.4872703806	 1.0919917082	 0.206373
C	 0.2100432196	-1.2485938826	 2.1851085392	-0.356188
C	 0.9924769477	-2.0215386697	 1.1810271557	 0.080386
O	 0.3484026889	-2.7318290946	 0.1684505685	-0.420392
C	 2.2610793798	 0.1227935993	 1.5357020566	 0.328403
C	 2.9209030377	 1.158113975	 0.6421807404	-0.499295
O	 2.8019221804	-0.2455139632	 2.5601366215	-0.322499
H	-0.0225278009	 2.1787755278	 0.8204988184	 0.115744
H	-1.2354841129	 1.7962736482	-0.4060866195	 0.114784
H	-1.3703559261	 1.1157430749	 1.2215287046	 0.118736
H	-0.5289775126	-0.6003393929	-0.4270697612	 0.117258
H	 0.8091156757	 0.4355917132	-0.8471672921	 0.098098
H	 0.6072178968	-1.1709759777	 3.1902834894	 0.13899
H	-0.8709031954	-1.2667139067	 2.0906317706	 0.111757
H	 1.9430091322	-2.4403080311	 1.5062600717	 0.11136
H	-0.1958608123	-3.4102633217	 0.5808967453	 0.293443
H	 3.1234213025	 0.7343627894	-0.3480025238	 0.144414
H	 2.2742240149	 2.0277286096	 0.4899221019	 0.142296
H	 3.8581962525	 1.4736743788	 1.1012331541	 0.140035
55.1452	127.108	167.3438	176.4974	182.5564	194.635	211.2852	239.623	317.3333	347.472	420.4045	444.1217	530.935	566.5606	623.1174	654.382	778.4134	806.9175	862.4651	899.3154	953.6712	980.352	1011.9031	1031.3184	1056.9637	1069.9437	1097.7759	1130.3755	1163.5567	1198.8107	1265.3111	1287.4757	1311.3071	1345.1671	1371.7422	1380.9197	1401.4618	1414.5195	1456.2161	1462.1398	1476.2063	1494.9465	1498.4222	1508.3899	1773.7608	3035.0336	3039.7499	3046.7184	3085.2779	3104.3817	3106.4057	3108.0303	3125.082	3132.5622	3154.2544	3233.2366	3812.6834
CCC1(CC1O)C(C)=O	CC[C@]1(C[C@H]1O)C(=O)C	
InChI=1S/C7H12O2/c1-3-7(5(2)8)4-6(7)9/h6,9H,3-4H2,1-2H3	InChI=1S/C7H12O2/c1-3-7(5(2)8)4-6(7)9/h6,9H,3-4H2,1-2H3/t6-,7+/m1/s1
