17
gdb 56748	2.95036	1.32997	1.10418	3.4495	72.2	-0.2571	0.0153	0.2724	1113.0743	0.136127	-417.939276	-417.931003	-417.930058	-417.97254	31.071	
N	-1.1279163601	 1.2564846894	-0.8049882819	-0.502817
C	-0.0897320216	 0.3601153258	-0.2933671204	-0.28312
C	-0.6645542398	-0.603311315	 0.6552690738	 0.298379
N	-1.104750065	-1.3936292702	 1.3731953762	-0.315852
C	 0.6806787395	-0.3872375135	-1.3714811384	 0.432407
C	 1.9875310618	-1.2188335614	-1.2941352353	-0.263094
C	 1.6448564463	-0.9247363233	-2.7727074751	 0.042972
C	 0.1691873838	-1.3064294137	-2.5125088501	-0.260233
O	 1.3228406308	 0.4772000363	-2.3924834341	-0.354356
H	-0.7017694621	 1.8422640982	-1.5189768411	 0.255454
H	-1.8495263457	 0.7122468558	-1.2703556844	 0.242852
H	 0.6383201071	 0.9730330361	 0.2548461898	 0.145147
H	 2.8530414134	-0.6828438108	-0.9034738181	 0.114865
H	 1.9191543075	-2.2496711172	-0.94135029	 0.115178
H	 2.2490588502	-1.068940775	-3.6667629998	 0.108635
H	-0.0620016695	-2.3453841754	-2.2690667834	 0.115038
H	-0.5510359667	-0.8504319461	-3.1926000179	 0.108545
58.3357	111.1146	183.3151	218.1771	260.0318	337.1148	391.8848	463.5882	526.8533	578.298	605.7934	686.3863	746.5452	809.1884	877.2587	900.6462	923.3988	939.5323	954.581	984.6653	1004.5473	1086.4516	1091.9736	1120.6267	1131.1466	1158.6264	1204.4849	1213.8045	1225.3206	1241.2756	1304.9941	1318.8827	1404.4933	1466.9405	1510.9066	1661.5143	2367.5231	3030.8	3070.9846	3077.9393	3136.8218	3152.81	3158.7225	3486.2234	3568.5117
NC(C#N)C12CC(C1)O2	N[C@@H](C#N)[C@@]12C[C@@H](C1)O2	
InChI=1S/C6H8N2O/c7-3-5(8)6-1-4(2-6)9-6/h4-5H,1-2,8H2	InChI=1S/C6H8N2O/c7-3-5(8)6-1-4(2-6)9-6/h4-5H,1-2,8H2/t4-,5-,6+/m0/s1
