15
gdb 32555	2.64117	1.57614	0.99334	4.2983	71.6	-0.2295	-0.0339	0.1956	1125.9454	0.113249	-457.789845	-457.782162	-457.781217	-457.822213	28.606	
C	 0.0468979718	 1.3889310222	 0.0071951845	-0.247579
O	-0.0154245407	-0.0255287984	 0.0031663822	-0.228499
C	-1.2333104089	-0.599142415	 0.0107841295	 0.165826
C	-2.4089332681	 0.0713301329	 0.0221755516	-0.069594
O	-3.6225602818	-0.5492474596	 0.0294633541	-0.186497
C	-3.6520816742	-1.8925776539	 0.0249638749	 0.073678
C	-2.5497935556	-2.6622729295	 0.0137934847	-0.266416
C	-1.2096259824	-2.0834888762	 0.0059272931	 0.32097
O	-0.1751550704	-2.7291353401	-0.0053026456	-0.365255
H	 1.1061013468	 1.6475535355	-0.0002075164	 0.147818
H	-0.4380353295	 1.8134674175	-0.8821746784	 0.125713
H	-0.4241402023	 1.8077566239	 0.9066838226	 0.125706
H	-2.5233959487	 1.1447117696	 0.0266445372	 0.134228
H	-4.6700060064	-2.2624254515	 0.0313672345	 0.144235
H	-2.6407685595	-3.7412587375	 0.0105040215	 0.125666
101.1814	138.3717	223.6895	248.4037	324.7632	343.5984	432.1574	484.1149	524.0582	565.7034	586.5149	747.7526	768.3885	831.4362	860.438	871.0603	960.458	1001.2599	1063.7395	1124.8203	1177.3722	1203.6414	1228.3861	1284.7821	1356.9212	1403.4139	1429.8421	1482.3608	1491.1316	1505.3515	1632.3167	1672.0732	1755.7762	2999.8318	3058.286	3144.739	3209.1782	3227.6991	3245.604
COC1=COC=CC1=O	COc1coccc1=O	
InChI=1S/C6H6O3/c1-8-6-4-9-3-2-5(6)7/h2-4H,1H3	InChI=1S/C6H6O3/c1-8-6-4-9-3-2-5(6)7/h2-4H,1H3
