18
gdb 67976	3.09948	1.68376	1.26448	3.9457	75.92	-0.2356	0.0163	0.2519	1004.6566	0.149312	-401.943205	-401.93602	-401.935076	-401.974356	29.519	
C	 0.0071477535	 1.5305600899	-0.0815068202	-0.512038
C	 0.0020394992	 0.025525796	 0.0068289369	 0.386847
N	 0.3149933424	-0.6526446505	-1.254253514	-0.394877
C	 0.3564560645	-2.0031800213	-0.9319375946	 0.411277
O	 0.7188971209	-2.9265625221	-1.619460724	-0.373333
C	-0.1244785669	-1.9738355443	 0.5118483411	-0.167556
C	 0.6439359556	-0.7842103603	 1.2027497738	-0.09303
C	-0.6097740188	-0.5065481755	 2.0626195803	-0.263713
C	-1.162288481	-0.8016411276	 0.6481420461	-0.075798
H	 1.001515867	 1.901604847	-0.3550059532	 0.123641
H	-0.7010551144	 1.8731933522	-0.8426757827	 0.134391
H	-0.2667439901	 1.9891683425	 0.8708945999	 0.132914
H	 0.9682646119	-0.271094174	-1.9221755344	 0.244026
H	-0.2727161452	-2.9181462174	 1.0304585565	 0.088902
H	 1.69121278	-0.7891322992	 1.5128766155	 0.078555
H	-0.8389757015	-1.2538827329	 2.8253175773	 0.102908
H	-0.7413139598	 0.5025148425	 2.4608509472	 0.095812
H	-2.2001982473	-0.8230410449	 0.3102372785	 0.081072
169.8469	212.8141	269.2254	298.4429	369.3067	421.3413	447.9105	536.2627	618.5836	630.3813	692.4053	730.3902	803.136	830.3277	883.7575	898.7787	910.2143	949.2055	962.6779	1011.1324	1048.4509	1061.8478	1079.1924	1119.384	1140.0682	1152.1947	1178.4497	1204.8567	1230.756	1243.7862	1254.4526	1283.1682	1304.8176	1389.1749	1420.8229	1488.2097	1496.7235	1527.116	1858.3713	3036.4207	3062.2641	3091.8444	3096.8934	3100.0082	3119.8031	3129.2439	3155.4267	3620.5296
CC12NC(=O)C3C1CC23	C[C@@]12NC(=O)[C@H]3[C@@H]1C[C@@H]23	
InChI=1S/C7H9NO/c1-7-3-2-4(7)5(3)6(9)8-7/h3-5H,2H2,1H3,(H,8,9)	InChI=1S/C7H9NO/c1-7-3-2-4(7)5(3)6(9)8-7/h3-5H,2H2,1H3,(H,8,9)/t3-,4+,5-,7+
