15
gdb 73742	2.12612	1.80332	0.98321	6.2215	79.55	-0.2089	-0.0188	0.19	1129.8582	0.112734	-416.834376	-416.825767	-416.824822	-416.867309	32.378	
N	 0.0216188415	 1.3127910659	-0.1070129735	-0.601354
C	-0.015132415	-0.0418530517	-0.0314917236	 0.241698
C	-1.1070848993	-0.8532550952	-0.000825285	-0.01944
C	-2.4489423832	-0.4269818962	 0.0032143021	 0.203926
C	-3.5826977971	-0.015556638	 0.0117866051	-0.417486
C	-0.6483386708	-2.269320764	 0.0158276698	 0.32795
O	-1.3012679206	-3.2860651571	-0.0349181019	-0.37141
N	 0.7411573435	-2.2098613274	 0.1147216239	-0.352424
C	 1.2502386093	-0.8659674681	-0.0323885431	-0.235845
H	 0.859360767	 1.7966030841	 0.1713786041	 0.261602
H	-0.8437551154	 1.8030904637	 0.0635011002	 0.270977
H	-4.591539676	 0.3145090792	 0.0126140437	 0.186376
H	 1.2820352896	-3.0191184248	-0.1415649117	 0.250944
H	 1.8058554613	-0.7165483271	-0.9700155698	 0.132625
H	 1.9157308953	-0.5760312334	 0.7942758697	 0.121859
118.0582	119.6215	185.3746	206.2815	307.1234	343.0108	409.5322	420.158	435.2273	475.6797	525.3292	537.743	591.2493	632.8051	660.4879	675.6772	752.7841	777.0304	953.1976	1013.2706	1079.8948	1131.7009	1180.2572	1193.2798	1257.0913	1331.8121	1409.5265	1446.4448	1504.5013	1630.3753	1689.0414	1827.5797	2219.8261	2990.9981	3014.1204	3503.1547	3579.7918	3658.0594	3697.3183
NC1=C(C#C)C(=O)NC1	NC1=C(C#C)C(=O)NC1	
InChI=1S/C6H6N2O/c1-2-4-5(7)3-8-6(4)9/h1H,3,7H2,(H,8,9)	InChI=1S/C6H6N2O/c1-2-4-5(7)3-8-6(4)9/h1H,3,7H2,(H,8,9)
