19
gdb 55460	3.25079	1.12605	1.0445	3.7623	72.12	-0.2461	-0.0185	0.2275	1232.2516	0.158732	-460.183571	-460.174734	-460.17379	-460.217831	32.326	
C	 0.912485729	 0.8921196446	 0.2911070902	-0.477066
C	-0.2591139336	 0.0111780688	-0.066122653	 0.385638
O	-1.2936499714	-0.0306272395	 0.552216692	-0.300759
C	-0.0731631559	-0.8753998304	-1.3116062753	 0.111755
O	 0.1493591327	-0.0272249013	-2.410668508	-0.260988
C	 0.3376911437	-0.7714120352	-3.612454255	-0.078506
C	 1.4972815214	-1.7570060384	-3.4494385431	-0.208617
C	 1.2654420653	-2.5848242563	-2.1831102535	-0.078506
O	 1.0191183662	-1.7272902336	-1.0706650371	-0.26099
H	 1.7973046815	 0.2695955192	 0.456901808	 0.154816
H	 1.1422203482	 1.5502407046	-0.552709223	 0.154816
H	 0.6830723168	 1.4770529978	 1.1819319453	 0.134902
H	-0.991265361	-1.4688736818	-1.4686355118	 0.073513
H	-0.5907785284	-1.3114276767	-3.8610933638	 0.097348
H	 0.5276829363	-0.0402206361	-4.4017456733	 0.117149
H	 1.5737340232	-2.4091517704	-4.3264400353	 0.103849
H	 2.435671449	-1.2011328107	-3.353285727	 0.11715
H	 0.4081437067	-3.263952069	-2.3221024329	 0.097348
H	 2.1379962004	-3.1877882456	-1.9208082634	 0.117149
42.8834	112.6723	128.1378	177.8454	259.6017	266.7094	339.1621	399.3146	468.7416	522.716	569.7749	585.6093	653.2139	821.0826	861.828	899.5039	927.9264	933.3273	1007.5961	1025.9375	1037.0968	1056.8757	1071.4928	1137.9649	1174.7292	1240.0539	1253.3602	1261.9562	1299.0051	1368.1733	1372.9289	1377.0072	1384.2348	1408.3655	1414.7831	1462.6958	1464.8744	1469.2931	1497.5613	1506.693	1835.8781	2956.5828	2973.6993	2980.4108	3044.9817	3050.0487	3092.233	3098.9124	3103.288	3115.7798	3160.8529
CC(=O)C1OCCCO1	CC(=O)C1OCCCO1	
InChI=1S/C6H10O3/c1-5(7)6-8-3-2-4-9-6/h6H,2-4H2,1H3	InChI=1S/C6H10O3/c1-5(7)6-8-3-2-4-9-6/h6H,2-4H2,1H3
