18
gdb 22335	3.28586	1.13336	0.86991	2.7298	78.03	-0.231	-0.0647	0.1663	1314.4605	0.146764	-439.07643	-439.067692	-439.066748	-439.109906	32.884	
C	-0.2971954173	 1.4520196317	 0.0248167263	-0.403237
C	 0.1130359862	-0.0171385125	 0.0700004098	 0.015105
C	 0.8061985503	-0.5338110936	-1.205103195	-0.329299
C	 1.5906043827	-1.771689628	-0.7636834807	 0.335256
O	 1.9916183014	-2.6560343021	-1.4771048633	-0.301484
C	 1.7496981509	-1.6557212488	 0.7366475838	 0.290477
C	 1.1266812599	-0.3574752499	 1.1899084348	-0.297603
N	 2.2685667965	-2.4691214818	 1.5771288944	-0.211748
O	 2.7866050207	-3.6147435487	 1.0075356389	-0.347124
H	 0.573676398	 2.0964332396	-0.1431592101	 0.11611
H	-1.012443929	 1.6401305174	-0.7823801205	 0.119408
H	-0.7653529423	 1.7615225515	 0.9652567265	 0.118063
H	-0.7833943169	-0.6294330506	 0.2359533377	 0.088193
H	 0.1367058435	-0.7661135772	-2.0362782247	 0.127717
H	 1.5336742581	 0.2069384714	-1.5693426991	 0.126421
H	 1.8950614009	 0.4280244598	 1.2363534836	 0.116167
H	 0.6773479068	-0.4306095632	 2.1826080609	 0.12337
H	 3.1090980696	-4.0973578847	 1.7777642268	 0.314207
71.3241	114.2416	206.2918	246.0245	277.637	290.1434	318.9457	391.8557	450.7545	476.9412	498.1341	537.5946	641.6992	704.5751	716.6766	846.2098	891.289	914.527	952.5915	1018.7974	1039.6677	1090.3435	1104.43	1134.9785	1168.3317	1221.5446	1248.6396	1264.3081	1293.0673	1344.5622	1381.9893	1415.8181	1421.1162	1452.1725	1481.0209	1497.026	1500.3217	1696.9474	1827.8421	3003.2284	3009.4432	3022.3986	3028.462	3094.3708	3101.5261	3105.3942	3109.0396	3797.5745
CC1CC(=O)C(C1)=NO	C[C@H]1CC(=O)C(=NO)C1	
InChI=1S/C6H9NO2/c1-4-2-5(7-9)6(8)3-4/h4,9H,2-3H2,1H3	InChI=1S/C6H9NO2/c1-4-2-5(7-9)6(8)3-4/h4,9H,2-3H2,1H3/t4-/m1/s1
