18
gdb 57055	2.35739	1.44581	0.98752	2.1563	71.87	-0.2677	0.0246	0.2923	1193.8566	0.146724	-439.079921	-439.070665	-439.069721	-439.114411	33.287	
C	-0.0801675638	 1.4897612198	 0.1059738746	-0.411668
C	 0.0366815585	-0.0426154152	 0.050412906	-0.139008
C	 0.5994627019	-0.5148023609	-1.2176768213	 0.259134
N	 1.0746536818	-0.9227161948	-2.1901095808	-0.336485
C	 0.903000162	-0.5849544868	 1.2003169163	 0.103862
O	 0.3006764766	-0.3299206482	 2.4821030166	-0.294788
C	 0.1471919769	-1.7448099775	 2.7529300288	-0.086626
C	 0.8458426482	-2.1229462724	 1.4376992578	 0.051856
O	 0.0181994064	-2.880402698	 0.5934774889	-0.425544
H	 0.8954857494	 1.9632545303	-0.0359079213	 0.134602
H	-0.7581477742	 1.8599723676	-0.6665510041	 0.135544
H	-0.4686679429	 1.7752843223	 1.0860950329	 0.150621
H	-0.9565172367	-0.4937218328	 0.1481171686	 0.140016
H	 1.9114487961	-0.1553642494	 1.1402145014	 0.089173
H	 0.6505052918	-2.0386116453	 3.6794258612	 0.113829
H	-0.9040340297	-2.0516398878	 2.7860826421	 0.120679
H	 1.833141444	-2.5817489746	 1.5611923314	 0.090422
H	 0.4862273636	-3.0481657863	-0.232572399	 0.30438
67.9857	82.8164	121.1459	200.6331	213.5101	236.7868	296.9243	377.0309	400.1417	421.4574	485.3823	548.5357	617.3397	778.3216	825.142	867.8972	913.5549	964.3629	1005.3187	1027.4308	1047.5852	1076.1883	1097.2324	1150.2927	1154.2848	1184.3956	1238.2852	1268.5727	1278.4226	1315.9475	1322.7448	1348.986	1378.874	1409.5995	1440.5584	1497.2728	1499.916	1515.1838	2348.3509	3019.3815	3035.8674	3044.1784	3051.2993	3066.5544	3091.8049	3127.1469	3139.8136	3803.7177
CC(C#N)C1OCC1O	C[C@@H](C#N)[C@H]1OC[C@H]1O	
InChI=1S/C6H9NO2/c1-4(2-7)6-5(8)3-9-6/h4-6,8H,3H2,1H3	InChI=1S/C6H9NO2/c1-4(2-7)6-5(8)3-9-6/h4-6,8H,3H2,1H3/t4-,5+,6+/m0/s1
