24
gdb 123090	5.34463	0.47585	0.46541	3.4729	88.69	-0.2396	0.0392	0.2788	2471.4379	0.215439	-405.600237	-405.58843	-405.587486	-405.640024	40.405	
C	 0.026970313	 1.4677870081	-0.2198365194	-0.379891
C	-0.0946947885	-0.0574182865	-0.2749417574	-0.165096
C	-1.4541243474	-0.5709242917	 0.2117617427	-0.154568
C	-1.5833312997	-2.0964460473	 0.1591256571	-0.184774
C	-2.9482250808	-2.5888869659	 0.6548283415	-0.166981
N	-3.0796308795	-4.0358097198	 0.6299240724	-0.312679
C	-3.8708984887	-4.6925728528	-0.270425673	 0.40538
C	-3.8337659267	-6.2113088588	-0.1754776025	-0.4808
O	-4.5613414733	-4.1161090328	-1.0919846943	-0.374032
H	 1.0072635306	 1.8038302831	-0.5719516278	 0.111471
H	-0.7338848943	 1.9481264646	-0.8450374272	 0.115683
H	-0.1047884755	 1.8390526489	 0.8026800312	 0.112735
H	 0.0740193408	-0.4022203216	-1.3035080125	 0.09758
H	 0.7011843351	-0.5112234302	 0.3306052927	 0.092515
H	-1.6246275646	-0.2249919009	 1.2411879546	 0.090787
H	-2.2512326525	-0.1186566024	-0.3941914689	 0.100964
H	-1.4331280129	-2.4509239066	-0.8680513817	 0.109697
H	-0.7875897007	-2.55299954	 0.7649458029	 0.08366
H	-3.1290689759	-2.2254827051	 1.6750933103	 0.09987
H	-3.7474024664	-2.2038266963	 0.017004779	 0.148988
H	-2.5071196062	-4.5785252547	 1.2549278063	 0.23939
H	-3.2326909559	-6.5893696311	 0.6559379551	 0.107123
H	-4.8572502991	-6.5801740763	-0.0732260829	 0.152117
H	-3.4350631908	-6.6125323639	-1.1114763183	 0.15086
26.4997	47.0231	47.2286	68.9462	100.8639	132.9073	156.5073	247.9446	278.3075	291.5881	343.279	436.7578	441.6735	508.6315	621.798	641.4759	734.494	758.7021	832.6319	897.0278	914.1347	987.0538	996.1989	1019.0538	1040.0872	1050.8429	1068.9641	1107.8045	1137.0666	1186.4201	1238.7308	1258.8939	1277.923	1307.8993	1330.4473	1338.8006	1352.1179	1394.1406	1398.9022	1406.6796	1412.9257	1470.4844	1479.6154	1483.425	1486.5777	1489.7708	1499.7724	1502.0805	1513.0975	1542.5965	1780.3664	3002.2319	3006.3933	3015.8006	3018.0735	3028.9127	3030.4975	3048.2121	3048.3663	3065.8377	3095.9383	3101.6833	3116.3103	3123.4615	3131.3569	3646.3658
CCCCCNC(C)=O	CCCCCNC(=O)C	
InChI=1S/C7H15NO/c1-3-4-5-6-8-7(2)9/h3-6H2,1-2H3,(H,8,9)	InChI=1S/C7H15NO/c1-3-4-5-6-8-7(2)9/h3-6H2,1-2H3,(H,8,9)
