21
gdb 41537	2.76069	1.50428	1.06625	1.8857	84.39	-0.2307	0.0194	0.2501	1167.8273	0.1852	-387.083386	-387.075525	-387.07458	-387.115578	31.297	
C	 0.0889631642	 1.4669036875	 0.2742121261	-0.171032
O	 1.4053324896	 1.5092237765	-0.3342314183	-0.311118
C	 1.2633290245	 0.1537379476	-0.8449696011	 0.075364
C	 2.3763450675	-0.8052388444	-0.4597999408	-0.21629
C	 2.1037441154	-2.2338265392	-0.9941236672	-0.198377
C	 0.6242484499	-2.6425787012	-1.1687949347	-0.201843
C	-0.3039101855	-2.4905881965	 0.0495209919	-0.237463
C	-0.6443351541	-1.0689375136	 0.4264594277	-0.204664
C	-0.0056861868	-0.0067378878	-0.0378438314	 0.268437
H	 0.1053846734	 1.7547572514	 1.3329059366	 0.113797
H	-0.6220082946	 2.1153418951	-0.2584596607	 0.104688
H	 1.1260196565	 0.1827035234	-1.9367795588	 0.080046
H	 3.3384627014	-0.4392962565	-0.8361880717	 0.102663
H	 2.4438204369	-0.8099859133	 0.6331693174	 0.100994
H	 2.583925046	-2.3479499583	-1.9732425585	 0.100754
H	 2.6004918249	-2.9534111493	-0.3324971055	 0.09954
H	 0.1852841183	-2.0830035374	-2.0036906707	 0.105742
H	 0.6115378017	-3.6940274529	-1.4788380338	 0.092365
H	-1.2369131329	-3.0345518626	-0.1513001507	 0.104872
H	 0.1360638139	-2.9970862194	 0.9228409909	 0.107338
H	-1.4495653902	-0.9374317591	 1.1478225332	 0.084186
103.2407	191.2061	216.9272	283.6463	293.9479	316.3415	363.4778	451.6156	560.8807	589.9187	719.673	773.4852	798.859	817.654	870.2378	914.2333	920.2964	964.8098	982.6814	1004.2711	1025.5229	1048.2766	1061.7553	1097.0025	1119.0342	1137.8107	1142.3505	1192.4845	1199.1014	1257.4562	1273.9971	1302.4461	1316.5664	1328.7602	1365.0262	1377.2779	1387.3348	1391.3739	1396.6732	1476.299	1483.8526	1494.0985	1504.6742	1513.1158	1799.6334	2978.4669	2989.6698	2992.5014	3018.3343	3024.4392	3034.1152	3040.9449	3041.7385	3053.5432	3067.7296	3085.8683	3136.5482
C1OC2CCCCC=C12	C1O[C@H]2CCCCC=C12	
InChI=1S/C8H12O/c1-2-4-7-6-9-8(7)5-3-1/h4,8H,1-3,5-6H2	InChI=1S/C8H12O/c1-2-4-7-6-9-8(7)5-3-1/h4,8H,1-3,5-6H2/t8-/m0/s1
