20
gdb 104679	2.06443	1.81299	1.14579	2.0128	74.83	-0.2207	0.0552	0.2759	1118.6495	0.170877	-440.183	-440.174079	-440.173135	-440.216966	33.609	
C	 1.0721476794	 1.4375712392	 0.2054851277	-0.255228
O	 0.20772852	 0.3316956608	 0.0238343926	-0.291217
C	 0.4226356988	-0.4150423451	-1.1616523632	 0.408341
C	-0.1529331709	 0.40369781	-2.3425845877	-0.165047
O	-0.5990243324	-0.3207021002	-3.4837981415	-0.404419
C	 1.7722358149	-1.2074096773	-1.2890711596	-0.101974
C	 1.3314376768	-2.0709579289	-0.0777132797	-0.202646
C	 0.1128485794	-1.9406205531	-1.0272027234	-0.11515
N	 1.0819971777	-2.2405430765	-2.1617263767	-0.340418
H	 2.1294981151	 1.1385105075	 0.1751589852	 0.113068
H	 0.912653166	 2.2270232942	-0.5425734743	 0.111756
H	 0.8536006366	 1.8514930019	 1.1928267454	 0.13093
H	-0.9690872447	 1.0094777269	-1.9262280651	 0.111928
H	 0.6058247	 1.0953926479	-2.7231448742	 0.118974
H	-1.3872883394	-0.8127430635	-3.2316086647	 0.291961
H	 2.7677835004	-0.8306136896	-1.5321422937	 0.07516
H	 1.7735547236	-3.0669147464	-0.0588434192	 0.104651
H	 1.2642228014	-1.5947710436	 0.8970322723	 0.109889
H	-0.859991909	-2.4313053941	-0.9489470512	 0.071598
H	 0.7442770265	-1.7997883101	-3.018697899	 0.227845
59.9897	78.7498	182.8983	194.366	239.2137	289.551	355.6013	401.0594	425.7541	453.9701	566.9681	601.7754	686.8741	782.5914	820.1977	872.3597	887.9221	914.3774	1000.3331	1021.7849	1041.4856	1062.6595	1070.36	1092.335	1107.117	1146.2968	1170.9914	1180.0013	1186.1375	1208.7864	1219.6396	1226.2808	1255.2175	1282.4124	1331.477	1339.0166	1392.6089	1422.9073	1476.0621	1484.6486	1493.4198	1504.	1506.9148	2990.3852	3012.804	3041.4429	3076.9535	3084.8256	3089.5914	3106.002	3114.6881	3187.8208	3447.9295	3816.9898
COC1(CO)C2CC1N2	CO[C@@]1(CO)[C@H]2C[C@@H]1N2	
InChI=1S/C6H11NO2/c1-9-6(3-8)4-2-5(6)7-4/h4-5,7-8H,2-3H2,1H3	InChI=1S/C6H11NO2/c1-9-6(3-8)4-2-5(6)7-4/h4-5,7-8H,2-3H2,1H3/t4-,5+,6+
