21
gdb 93844	2.37318	1.3271	1.0144	3.6111	73.98	-0.2545	0.0565	0.311	1229.5731	0.183322	-461.377279	-461.368167	-461.367223	-461.410457	35.882	
O	-0.0330330303	 1.4592971298	-0.0576630965	-0.438585
C	 0.0492548565	 0.0399094032	-0.0217840674	 0.121229
C	 0.7643586828	-0.4661555475	 1.2368898739	-0.212516
C	 0.7497547512	-2.0000737887	 1.3012408748	-0.242768
C	-0.6762636076	-2.5581114004	 1.2199204532	 0.088343
O	-1.4745041763	-2.156430368	 2.3400669474	-0.446017
C	-1.420151836	-2.0300149296	-0.0160688617	 0.127651
O	-2.7462181131	-2.5252251517	-0.0440135682	-0.447615
C	-1.3806272615	-0.4956922418	-0.0768873128	-0.207054
H	 0.8628291309	 1.8092066286	-0.015775019	 0.276849
H	 0.5986647102	-0.3263560758	-0.9083447353	 0.057055
H	 1.7982295191	-0.0988420701	 1.2579625191	 0.078175
H	 0.2523810319	-0.0523268465	 2.1124297923	 0.113756
H	 1.3317059013	-2.4199892408	 0.4694537462	 0.100447
H	 1.2325457071	-2.3521319493	 2.2211136289	 0.08886
H	-0.6504618841	-3.6554975188	 1.1606455224	 0.068848
H	-1.1734562445	-2.6350349669	 3.1175843296	 0.289648
H	-0.9259903929	-2.4417646057	-0.9051714432	 0.081
H	-3.0900006765	-2.3876525761	 0.8479617124	 0.284504
H	-1.9375122582	-0.0865418807	 0.7736007561	 0.112165
H	-1.8767681799	-0.154411783	-0.9896760523	 0.106025
116.4709	163.1272	224.7618	254.5282	265.4093	287.0299	299.0943	355.3488	414.2372	424.5754	450.6801	466.9122	501.5491	590.0366	687.9026	790.5031	844.3856	889.8231	924.4032	958.2383	981.2013	1048.8659	1060.7067	1075.5647	1093.1146	1112.6916	1117.883	1155.9706	1203.6224	1227.5853	1232.2919	1280.3278	1298.8523	1317.2136	1337.1129	1355.1158	1376.4234	1386.7077	1394.3271	1428.3442	1438.7542	1448.3441	1479.9015	1483.1231	1504.0801	2929.9947	2997.947	3017.1216	3026.5172	3035.3415	3051.5441	3053.5494	3081.9397	3102.3683	3777.9226	3811.2236	3836.2761
OC1CCC(O)C(O)C1	O[C@H]1CC[C@@H](O)[C@@H](O)C1	
InChI=1S/C6H12O3/c7-4-1-2-5(8)6(9)3-4/h4-9H,1-3H2	InChI=1S/C6H12O3/c7-4-1-2-5(8)6(9)3-4/h4-9H,1-3H2/t4-,5+,6-/m0/s1
