19
gdb 93560	3.44208	1.00034	0.80839	3.0402	79.73	-0.2453	-0.0546	0.1907	1410.1189	0.158211	-423.060668	-423.051411	-423.050467	-423.095335	33.871	
C	-0.0145953133	 1.496079689	 0.0800162656	-0.488984
C	 0.0396450355	-0.0201831902	 0.0342007484	 0.294187
O	 1.0976096907	-0.6159561698	-0.0024724239	-0.304048
C	-1.2610575788	-0.7510197557	 0.0424627639	 0.227444
C	-1.3528889163	-2.0846049446	-0.0398924086	-0.19474
C	-2.7818125304	-2.5679786621	-0.041963309	 0.116147
O	-3.0206785829	-3.7111167137	 0.763845044	-0.429582
C	-3.5753099384	-1.302159732	 0.3792294493	-0.247065
C	-2.6358822814	-0.1062608053	 0.0925217402	-0.335364
H	 0.9971924856	 1.8985288852	 0.0263886027	 0.141609
H	-0.6158918451	 1.8899041523	-0.7472495209	 0.137639
H	-0.493898062	 1.8336124225	 1.0064357999	 0.139375
H	-0.5042032334	-2.7533085864	-0.1234027234	 0.128101
H	-3.0643832522	-2.8923427129	-1.0528033099	 0.103416
H	-2.704444696	-3.5116722856	 1.6523698112	 0.276853
H	-4.5442805071	-1.2237197568	-0.1182484639	 0.108906
H	-3.7692561671	-1.3736420631	 1.4558235914	 0.101606
H	-2.7160635057	 0.6845967426	 0.8458093483	 0.108203
H	-2.8756581419	 0.3640697464	-0.8706747155	 0.116297
49.6558	102.7225	130.3232	155.4044	180.8177	308.0683	340.8762	372.6958	400.9072	473.347	529.9787	587.6968	616.8793	630.3772	825.2682	857.6687	878.8766	912.9137	967.2508	983.8412	1010.071	1037.621	1042.2032	1085.0065	1111.8008	1154.495	1213.8579	1254.2823	1262.134	1271.42	1306.1768	1324.8841	1351.8943	1383.2421	1423.1293	1461.0855	1474.7984	1483.2714	1499.4774	1668.304	1777.9263	3016.8048	3017.9139	3033.8974	3043.0117	3065.2813	3092.6711	3110.1763	3154.9638	3214.3864	3794.823
CC(=O)C1=CC(O)CC1	CC(=O)C1=C[C@@H](O)CC1	
InChI=1S/C7H10O2/c1-5(8)6-2-3-7(9)4-6/h4,7,9H,2-3H2,1H3	InChI=1S/C7H10O2/c1-5(8)6-2-3-7(9)4-6/h4,7,9H,2-3H2,1H3/t7-/m0/s1
