22
gdb 87146	2.62181	1.22198	1.1395	2.5848	81.86	-0.2434	0.0784	0.3218	1245.9292	0.191431	-404.313162	-404.302885	-404.301941	-404.348219	38.16	
C	-0.0792197506	 1.7810125483	 0.6274837721	-0.42644
C	-0.3470692995	 0.2966542036	 0.6698870724	 0.032603
O	 0.2503564927	-0.5236497855	-0.3382029244	-0.298927
C	 0.6391836563	-0.7458245922	 1.0327266377	 0.294599
C	 2.0820343267	-0.3991534995	 1.3473778014	-0.462919
C	 0.1820991941	-2.080619065	 1.5961220127	 0.262193
C	 0.6337016562	-3.2789878819	 0.7833904771	-0.447072
C	 0.0352134609	-2.1993563471	 3.0712238582	-0.273433
N	-1.1533591956	-2.2410609048	 2.2004468323	-0.351384
H	 0.9770637291	 2.0095436937	 0.479328957	 0.12803
H	-0.6420782406	 2.235355217	-0.1945772276	 0.133822
H	-0.411416353	 2.2528141405	 1.5587780635	 0.121046
H	-1.4000415757	 0.0576165225	 0.8348448288	 0.086167
H	 2.4173274962	 0.4649940091	 0.7726475568	 0.128419
H	 2.2113527611	-0.1882105107	 2.4135475438	 0.121786
H	 2.7365779046	-1.2386789079	 1.0937653278	 0.130502
H	 1.7254858741	-3.3619228866	 0.7593772459	 0.112564
H	 0.2258495358	-4.1956777187	 1.2148479492	 0.125423
H	 0.275998724	-3.1875383447	-0.2459630889	 0.139068
H	 0.2794577977	-3.1349068261	 3.5679510502	 0.114827
H	 0.1976140264	-1.3123689771	 3.6793706128	 0.105106
H	-1.6374396011	-1.3493606168	 2.2532711715	 0.224022
53.1375	118.5778	143.0393	155.8873	190.1122	220.8709	285.884	294.5184	304.0174	346.4586	446.1197	477.9504	490.5371	519.5145	626.9584	769.748	807.723	840.2012	898.8339	919.7537	935.103	974.0663	991.6868	1030.0485	1052.0399	1075.1826	1102.6066	1118.7845	1125.2463	1135.0258	1181.2435	1214.7223	1264.8397	1323.028	1344.4183	1367.1527	1403.1486	1409.3072	1416.1688	1453.3729	1474.9375	1482.2816	1484.8953	1495.2543	1502.0313	1513.6277	1515.1459	3040.2875	3041.0197	3047.1167	3077.4608	3099.3989	3099.8991	3105.5669	3110.7421	3131.8849	3136.3824	3147.9182	3182.4815	3513.0075
CC1OC1(C)C1(C)CN1	C[C@H]1O[C@]1(C)[C@@]1(C)CN1	
InChI=1S/C7H13NO/c1-5-7(3,9-5)6(2)4-8-6/h5,8H,4H2,1-3H3	InChI=1S/C7H13NO/c1-5-7(3,9-5)6(2)4-8-6/h5,8H,4H2,1-3H3/t5-,6-,7+/m1/s1
