17
gdb 111193	2.87121	1.16578	0.94299	1.3324	75.1	-0.2447	0.0326	0.2772	1248.3636	0.133949	-421.70654	-421.698017	-421.697073	-421.739981	32.085	
O	 0.0404914719	 1.3990904914	-0.3656119625	-0.42637
C	 0.0968329608	 0.0409563529	 0.0574741291	-0.125978
C	-1.3237038221	-0.475761341	 0.0650281165	 0.023505
C	-1.9788342649	-0.852428933	-1.2910160851	 0.040206
O	-1.0841305357	-2.0277387286	-1.3839576335	-0.31249
C	-1.567183604	-2.0070515205	 0.0128199639	 0.013348
C	-3.0091880438	-1.7634363627	-0.5443867549	-0.173001
C	-4.0623345253	-1.2118967009	 0.2782282092	 0.300776
C	-4.9503141872	-0.7662779472	 0.9560990495	-0.444025
H	 0.9411834327	 1.7302369194	-0.4256822617	 0.288519
H	 0.7060957806	-0.5711224734	-0.6189251152	 0.109196
H	 0.5199917321	-0.0416128862	 1.0719677377	 0.083996
H	-1.959753133	 0.0870643442	 0.7516510561	 0.100738
H	-2.1264423814	-0.251597925	-2.1873325407	 0.108546
H	-1.2264534913	-2.7993563094	 0.6802495382	 0.100932
H	-3.347678643	-2.5928436614	-1.1685499581	 0.113543
H	-5.7326744363	-0.3689981885	 1.5543707714	 0.198557
76.2514	120.2943	153.1495	206.0776	234.843	300.7698	388.2001	466.3849	500.9912	545.7318	635.3027	648.6474	658.5052	744.6149	797.6482	862.8965	890.8052	900.7226	904.3788	1038.0769	1053.2283	1062.0199	1071.4297	1105.5978	1129.9192	1146.0278	1184.1661	1187.0437	1230.25	1258.1332	1261.2832	1270.8366	1348.275	1399.7416	1462.7492	1522.855	2232.7008	2969.1747	3043.9498	3097.1068	3099.79	3115.9765	3135.6266	3502.7133	3831.9298
OCC1C2OC1C2C#C	OC[C@H]1[C@H]2O[C@@H]1[C@H]2C#C	
InChI=1S/C7H8O2/c1-2-4-6-5(3-8)7(4)9-6/h1,4-8H,3H2	InChI=1S/C7H8O2/c1-2-4-6-5(3-8)7(4)9-6/h1,4-8H,3H2/t4-,5-,6-,7+
