19
gdb 87464	2.79597	1.36445	1.24524	2.4995	76.36	-0.241	0.0696	0.3106	1094.1133	0.158332	-422.946243	-422.937872	-422.936927	-422.978765	33.18	
O	 0.0330406333	 1.3787518967	 0.2217190672	-0.424221
C	 0.0094201776	-0.0161740714	 0.0684581546	-0.039857
C	-0.4367400451	-0.799817742	 1.2908922037	-0.415127
C	-1.290759289	-0.7379776747	 0.0669808742	 0.404892
C	-2.7373953341	-0.2723238852	-0.1780203036	-0.140255
C	-2.5216867114	-0.6421319769	-1.6779023251	-0.287098
C	-1.8977247065	-1.8117463493	-0.8427249852	 0.315175
O	-1.1924177708	-2.9131462725	-1.2822932644	-0.473704
C	-3.1712638183	-1.7510522505	 0.0664548338	-0.284176
H	-0.2340808721	 1.7712972121	-0.6158219985	 0.285104
H	 0.836351083	-0.4305490536	-0.5100373928	 0.090433
H	 0.0914920122	-1.718467286	 1.5260203013	 0.118953
H	-0.7313631617	-0.2041486067	 2.1491734781	 0.121652
H	-3.2154699873	 0.6211541736	 0.2137149776	 0.089225
H	-3.4232984077	-0.8752566163	-2.2524091721	 0.084075
H	-1.8236577525	-0.0227747154	-2.2465277028	 0.086243
H	-1.7787994041	-3.4646161758	-1.8111089329	 0.285205
H	-3.0619175422	-2.1313265581	 1.0839049803	 0.101304
H	-4.1169269231	-2.057612278	-0.3913238035	 0.082177
124.6587	152.4886	187.3144	241.0339	279.2696	304.669	384.1597	443.6546	462.5226	505.5389	629.9406	641.4855	675.7672	777.0527	806.7047	847.1081	906.9395	935.4714	943.4623	953.754	1000.0926	1014.7922	1054.4419	1058.2912	1062.4888	1108.5992	1121.3778	1133.7507	1143.223	1166.4787	1189.6189	1207.0286	1216.3947	1292.8838	1298.3101	1329.1015	1387.8275	1435.7768	1486.3511	1501.4841	1544.6591	3044.7077	3050.5838	3089.0297	3116.0552	3123.8486	3127.2352	3158.7941	3213.1421	3807.5508	3812.8647
OC1CC11C2CC1(O)C2	O[C@H]1C[C@]21[C@H]1C[C@]2(O)C1	
InChI=1S/C7H10O2/c8-5-3-7(5)4-1-6(7,9)2-4/h4-5,8-9H,1-3H2	InChI=1S/C7H10O2/c8-5-3-7(5)4-1-6(7,9)2-4/h4-5,8-9H,1-3H2/t4-,5-,6-,7+/m0/s1
