16
gdb 24340	3.70923	1.60503	1.14018	1.9583	80.07	-0.1876	0.0019	0.1895	1017.4208	0.127687	-400.786132	-400.779247	-400.778303	-400.817223	27.65	
C	 0.0045707918	 1.4842181873	 0.1118629508	-0.142706
O	 1.3089320011	 2.079247596	 0.023720102	-0.290132
C	 2.1374139304	 1.465495284	-0.8628122875	 0.275303
C	 3.2383327451	 1.9874384755	-1.4895288007	-0.20645
N	 3.8069409019	 0.9460642529	-2.2070389705	-0.247321
C	 3.0828191835	-0.202290441	-2.0444690637	-0.195118
C	 2.0281040352	 0.0817639327	-1.1997296036	 0.174488
C	 0.9602095348	-0.6899615414	-0.6045073526	-0.155543
C	 0.005620784	-0.0257228212	 0.0605578742	-0.123469
H	-0.4111232401	 1.8451679648	 1.0571034418	 0.116266
H	-0.6272570535	 1.890930722	-0.6985613644	 0.103088
H	 3.6714988841	 2.9726468427	-1.4758292946	 0.123558
H	 4.6084617273	 1.0395258324	-2.8039372343	 0.262541
H	 3.3661362396	-1.1178974296	-2.5384224356	 0.122605
H	 0.9582990672	-1.7733945395	-0.672722604	 0.089487
H	-0.8176489427	-0.5374436277	 0.5478027528	 0.093405
130.9782	178.0939	317.6278	390.7198	410.4789	451.4757	525.7589	593.0664	616.9855	646.6476	683.5313	713.7311	741.8077	774.1972	842.4525	911.6319	919.9528	973.778	1032.7228	1035.6018	1068.2363	1144.0814	1179.4981	1217.7677	1243.1762	1270.7199	1326.1613	1378.2384	1417.6391	1429.3291	1474.9617	1496.5585	1570.8736	1637.7155	1690.9527	2933.0794	3077.5257	3169.4506	3191.7603	3259.7305	3280.3408	3698.9464
C1OC2=CNC=C2C=C1	C1Oc2c[nH]cc2C=C1	
InChI=1S/C7H7NO/c1-2-6-4-8-5-7(6)9-3-1/h1-2,4-5,8H,3H2	InChI=1S/C7H7NO/c1-2-6-4-8-5-7(6)9-3-1/h1-2,4-5,8H,3H2
