19
gdb 103896	4.46583	0.73146	0.68977	1.7344	73.33	-0.2538	-0.0293	0.2245	1625.6592	0.155515	-460.150048	-460.139854	-460.13891	-460.186406	35.705	
C	-0.0419842878	 1.629234851	-0.0728357329	-0.467063
C	-0.2277080588	 0.1519057155	 0.1844817135	 0.350482
C	-1.4540856268	-0.4641222744	-0.4687321676	-0.117288
O	-1.3590896902	-0.4095272745	-1.8810764543	-0.41418
O	 0.9439807533	-0.6779647976	 0.0041486902	-0.304095
C	 0.3855395798	-0.5584112105	 1.3219074714	-0.01057
C	 1.2560248201	 0.0868193971	 2.3807239009	-0.319503
C	 2.4309661998	-0.804780627	 2.7435237899	 0.162924
O	 2.7178493223	-1.1299761316	 3.8660225081	-0.234867
H	 0.9566284701	 1.9691255233	 0.2048128484	 0.127687
H	-0.1887213343	 1.826426889	-1.1383725839	 0.14663
H	-0.7824825588	 2.2135968884	 0.4839044962	 0.126258
H	-1.577997559	-1.4977149853	-0.1143093205	 0.093997
H	-2.3545551567	 0.0977908398	-0.1981434032	 0.113913
H	-0.5588732001	-0.8921529895	-2.1198984189	 0.294426
H	-0.1155227422	-1.4671713702	 1.6630340711	 0.09963
H	 1.6642812654	 1.0316644047	 2.0049706867	 0.126935
H	 0.6785169576	 0.2904604513	 3.2874967021	 0.127734
H	 3.0290116363	-1.1447746795	 1.8697169627	 0.09695
48.0611	56.7979	80.4607	144.6732	174.4851	193.7238	264.0744	312.5575	355.0071	404.3045	441.1178	454.1025	516.3876	621.4989	713.3794	816.506	824.1167	893.6718	933.5536	958.6418	1032.8007	1056.6749	1071.9963	1103.3046	1119.3358	1143.745	1201.0816	1223.7455	1271.1498	1292.6102	1339.0684	1391.0457	1414.5556	1421.5005	1424.9254	1447.4198	1461.9247	1489.6359	1494.6094	1509.9646	1835.1979	2897.6481	2998.6958	3044.6754	3049.3375	3076.1594	3082.0925	3109.6459	3114.0101	3141.9557	3795.4804
CC1(CO)OC1CC=O	C[C@@]1(CO)O[C@H]1CC=O	
InChI=1S/C6H10O3/c1-6(4-8)5(9-6)2-3-7/h3,5,8H,2,4H2,1H3	InChI=1S/C6H10O3/c1-6(4-8)5(9-6)2-3-7/h3,5,8H,2,4H2,1H3/t5-,6-/m0/s1
