19
gdb 74223	2.28932	1.53867	0.96491	4.69	84.81	-0.2026	-0.0065	0.1961	1216.1166	0.161884	-419.229064	-419.220663	-419.219719	-419.262112	32.613	
N	 0.1537672175	 1.2174565464	 0.6238159546	-0.547907
C	 0.120910515	-0.041630318	 0.0310522349	 0.282368
C	-0.9029502543	-0.881059853	 0.3022910974	-0.175191
C	-1.2239438242	-2.2574432786	-0.0642530608	 0.336864
N	-2.3961408927	-2.6912352986	 0.2063461281	-0.528815
O	-0.3467764577	-3.0933189674	-0.7009228526	-0.261064
C	 1.0491162082	-2.8252154561	-0.7430060006	-0.078176
C	 1.3924288344	-1.6024781203	-1.5884584925	-0.224551
C	 1.3564424883	-0.3002770849	-0.7941749224	-0.285409
H	 0.5964967984	 1.946691786	 0.084096045	 0.24615
H	-0.7102723713	 1.5231174214	 1.0478114172	 0.252776
H	-1.7106651214	-0.4757838788	 0.9055368056	 0.09257
H	-2.4683666394	-3.665737729	-0.0917080676	 0.20953
H	 1.4513996877	-2.7250482448	 0.2749300553	 0.107279
H	 1.4787100395	-3.7282591535	-1.1845451843	 0.114838
H	 2.3970057439	-1.7234009252	-2.0091606843	 0.103356
H	 0.6958644033	-1.5699339368	-2.4333790954	 0.12156
H	 1.4984832648	 0.5495789777	-1.4771190524	 0.10563
H	 2.2155046699	-0.2667234167	-0.1091770052	 0.128189
73.2723	131.4908	182.204	290.0105	309.602	360.4367	373.0897	422.6319	477.1473	501.9936	547.0152	606.4795	651.7409	689.3751	775.5366	867.2065	875.9499	889.9433	900.9138	905.8686	992.1871	1066.4046	1086.7489	1098.6167	1151.9262	1181.8211	1215.2473	1241.9992	1291.5512	1310.1891	1351.6131	1379.3141	1391.057	1430.179	1438.0096	1470.3281	1482.3943	1503.9807	1646.2447	1669.7885	1712.484	3002.4527	3010.555	3027.3302	3042.03	3084.7302	3092.932	3162.7635	3469.0852	3559.5737	3663.4318
NC1=CC(=N)OCCC1	N[C]1C=C([NH])OCCC1	
InChI=1S/C6H10N2O/c7-5-2-1-3-9-6(8)4-5/h4,8H,1-3,7H2	InChI=1S/C6H10N2O/c7-5-2-1-3-9-6(8)4-5/h4,8H,1-3,7H2
