19
gdb 62514	1.95998	1.3046	1.13235	2.3115	75.44	-0.2402	-0.0186	0.2216	1213.7602	0.154267	-460.152399	-460.142052	-460.141108	-460.186959	38.28	
C	 1.5800533957	 0.9761733788	-1.0569340512	-0.461492
C	 0.9023449607	-0.2535515503	-0.4898723792	 0.34025
O	-0.1904236821	-0.673820358	-1.2452074463	-0.439972
C	 1.7320128357	-1.3964695906	 0.1613789865	-0.262281
C	 3.1960402273	-1.3663002216	 0.3041844337	 0.149825
O	 3.9066332087	-2.3423499383	 0.2133758481	-0.281341
C	 0.7643760856	-0.4901119344	 0.9743378059	 0.340231
C	 1.2910118883	 0.4806224234	 2.0103907035	-0.461484
O	-0.4348363512	-1.0928247981	 1.3484138268	-0.439972
H	 2.4202557703	 1.3247330778	-0.4544005786	 0.124995
H	 1.9665830989	 0.7596876321	-2.0598998742	 0.121329
H	 0.8515013638	 1.7881242834	-1.1428594976	 0.137982
H	 0.1292550854	-0.8984618947	-2.1265390843	 0.287162
H	 1.319718988	-2.3804812212	-0.0364543442	 0.115314
H	 3.6425395515	-0.3667420688	 0.5077940029	 0.057995
H	 2.2162994804	 0.974943909	 1.7104401203	 0.124992
H	 0.5354507861	 1.2462652195	 2.2112717815	 0.137982
H	 1.4945671743	-0.0494225555	 2.9483824392	 0.121327
H	-0.2744849574	-1.5908336725	 2.1581524973	 0.287161
82.9813	157.1765	186.8236	197.8048	212.6957	242.2709	254.6428	285.91	291.4739	331.5361	382.9929	405.76	452.6794	455.4658	526.5622	555.1527	667.2087	698.4514	903.5905	929.8506	989.727	1001.7545	1041.0801	1076.2434	1082.8554	1128.8333	1144.1059	1180.0726	1253.9714	1273.3447	1284.069	1336.3765	1411.9312	1416.8971	1445.9763	1461.6197	1479.392	1487.1377	1497.6665	1537.2292	1791.4132	2863.737	3033.6962	3036.5042	3097.4334	3099.544	3131.7945	3141.9858	3178.8709	3794.5361	3794.5784
CC1(O)C(C=O)C1(C)O	C[C@@]1(O)[C@@H](C=O)[C@]1(C)O	
InChI=1S/C6H10O3/c1-5(8)4(3-7)6(5,2)9/h3-4,8-9H,1-2H3	InChI=1S/C6H10O3/c1-5(8)4(3-7)6(5,2)9/h3-4,8-9H,1-2H3/t4-,5-,6+
