14
gdb 25553	3.48329	1.10516	0.88821	3.5033	63.84	-0.2285	-0.0467	0.1818	1220.9803	0.100097	-473.874065	-473.866093	-473.865149	-473.90802	27.944	
O	 0.110239981	-0.1449432625	 0.2537984832	-0.221446
C	 0.0610493093	 0.970104417	-0.1882127801	 0.151751
C	 1.2007776744	 1.976664551	-0.0609292644	-0.262564
N	 1.2602457873	 2.8979565572	-1.1696367957	-0.136616
C	 1.657110947	 2.6379046235	-2.4853924429	-0.131927
C	 1.5737777861	 3.7979729348	-3.1449780417	-0.028692
O	 1.136145963	 4.7903106817	-2.2944379051	-0.212125
C	 0.9389820991	 4.2382817323	-1.0471343217	 0.497719
O	 0.5650079834	 4.8377855094	-0.0750009525	-0.406782
H	-0.8356521474	 1.3636582688	-0.7177902111	 0.098736
H	 1.0151797528	 2.5850799005	 0.833339606	 0.181763
H	 2.1445788375	 1.4398626928	 0.0751902433	 0.146451
H	 1.9616384884	 1.6591322506	-2.8145191755	 0.16192
H	 1.772881578	 4.0820824129	-4.1626702318	 0.161813
49.9937	71.8773	107.8506	244.1463	269.38	340.1252	424.8526	558.942	591.3951	676.272	691.1597	766.4954	770.225	786.553	818.2103	908.1552	1037.0673	1043.0877	1045.4392	1110.9666	1144.2335	1203.4299	1284.0431	1327.5525	1366.1067	1411.0799	1431.8364	1454.1201	1654.6477	1845.2293	1877.5809	2888.4873	3042.168	3099.6105	3282.4261	3312.6764
O=CCN1C=COC1=O	O=CCn1ccoc1=O	
InChI=1S/C5H5NO3/c7-3-1-6-2-4-9-5(6)8/h2-4H,1H2	InChI=1S/C5H5NO3/c7-3-1-6-2-4-9-5(6)8/h2-4H,1H2
