18
gdb 17256	4.23661	1.86073	1.82345	1.8421	71.	-0.2532	0.095	0.3482	814.6172	0.156183	-347.773538	-347.767301	-347.766357	-347.803621	25.921	
C	 0.0214923716	 1.4714039156	-0.0162417044	-0.2893
O	 1.1758348022	 0.61603653	-0.0046805436	-0.296663
C	-0.1166074047	 0.0161292653	-0.0208593217	 0.509585
C	-0.5620901132	-0.869106263	 1.1607882074	-0.306
C	-1.1181046376	-2.0531756145	 0.3405921398	-0.020055
C	-0.0219569406	-2.2393153763	-0.7514492987	-0.22772
C	-0.5263280947	-0.8371932585	-1.2114824389	-0.092876
C	-1.9401804972	-1.3172773177	-0.7603815113	-0.229221
H	-0.1515815375	 2.0316347507	 0.9024089002	 0.110069
H	-0.1282471	 2.0379129396	-0.9353806557	 0.109704
H	 0.2912588031	-1.1402763513	 1.7888370524	 0.113396
H	-1.3216622601	-0.3943491922	 1.7892460603	 0.100474
H	-1.5259341989	-2.8972400447	 0.8964543924	 0.063233
H	 1.0203499813	-2.3288211067	-0.4335804332	 0.104216
H	-0.2723757467	-3.0259258844	-1.4665631054	 0.096861
H	-0.3248183053	-0.4330083587	-2.2029760186	 0.064315
H	-2.392885938	-2.0030519751	-1.4799321137	 0.099638
H	-2.6682231135	-0.5627368882	-0.4468716072	 0.090346
134.5202	287.0414	340.159	416.6504	455.5627	528.55	534.3203	736.5944	819.3155	828.9697	842.4578	856.8104	867.5406	915.9399	935.376	950.0431	974.572	1021.1787	1028.6578	1059.5451	1080.0652	1087.4343	1114.6264	1123.084	1161.7604	1180.6988	1211.4013	1224.8262	1237.7148	1261.4861	1269.4254	1297.6404	1320.5717	1439.6019	1486.9234	1488.8117	1523.6509	1539.8442	3050.6082	3053.1425	3060.8441	3073.0306	3101.1069	3113.9241	3116.6044	3121.4052	3125.5401	3156.9395
C1OC11CC2CC1C2	C1O[C@]21C[C@@H]1C[C@H]2C1	
InChI=1S/C7H10O/c1-5-2-6(1)7(3-5)4-8-7/h5-6H,1-4H2	InChI=1S/C7H10O/c1-5-2-6(1)7(3-5)4-8-7/h5-6H,1-4H2/t5-,6+,7-/m0/s1
