20
gdb 63817	3.20693	1.54115	1.36354	0.7132	77.64	-0.2277	0.0584	0.2861	1029.3076	0.17038	-403.072102	-403.063965	-403.06302	-403.1042	32.59	
C	-0.0489932463	 1.5691150734	-0.0624147067	-0.451717
C	 0.0461393264	 0.0524848497	 0.0028811876	 0.390773
C	-1.2930768023	-0.5890326968	-0.3647276905	-0.418444
O	 1.0950029976	-0.516627053	-0.8715326827	-0.347895
C	 1.5370258134	-1.4099353753	 0.1792235952	 0.095272
C	 2.783100948	-0.9621559138	 0.9611024513	-0.044524
C	 2.8747033434	 0.4985644481	 1.0065346303	-0.246583
N	 1.9195513757	-0.155466043	 1.9374745436	-0.176156
C	 0.6859569341	-0.6750928641	 1.2092081616	-0.06297
H	-0.1841094469	 1.8823069032	-1.1031174016	 0.128332
H	-0.9208168128	 1.90867045	 0.5056253043	 0.121896
H	 0.8267619845	 2.0753616055	 0.3412587025	 0.130812
H	-1.5720105813	-0.3096579513	-1.3853795668	 0.125048
H	-1.2325563174	-1.6801980399	-0.3168682914	 0.11851
H	-2.0840022172	-0.2568530044	 0.3158238886	 0.115815
H	 1.4534952878	-2.4658002748	-0.0848626054	 0.081186
H	 3.5600979731	-1.6318014479	 1.3162275131	 0.094598
H	 3.7101199751	 0.9291159419	 1.550235989	 0.122056
H	 2.5405509849	 1.0651102358	 0.1481282438	 0.138254
H	 0.0234775302	-1.1574838934	 1.9268970343	 0.085737
126.5473	172.9942	204.2899	235.8243	312.9424	341.5649	366.2258	394.0386	528.0461	566.0943	624.9199	704.3083	731.5847	794.0667	842.9102	881.8199	903.9031	930.089	943.0969	948.1821	973.4504	996.497	1010.6516	1042.2133	1059.8984	1118.035	1133.7229	1168.978	1187.7637	1214.58	1233.6267	1238.0309	1289.6597	1303.8341	1327.1	1360.7845	1397.7827	1413.7714	1474.634	1479.5648	1490.628	1497.0659	1508.8414	3034.1504	3046.5354	3088.4106	3103.8962	3111.9995	3113.1459	3119.3269	3138.7151	3153.341	3161.7864	3242.4062
CC1(C)OC2C3CN3C12	CC1(C)O[C@H]2[C@H]3CN3[C@@H]12	
InChI=1S/C7H11NO/c1-7(2)6-5(9-7)4-3-8(4)6/h4-6H,3H2,1-2H3	InChI=1S/C7H11NO/c1-7(2)6-5(9-7)4-3-8(4)6/h4-6H,3H2,1-2H3/t4-,5+,6-,8?/m1/s1
