21
gdb 59133	4.06963	1.13622	1.03507	1.3838	83.08	-0.2141	0.0671	0.2812	1242.1526	0.182235	-383.150312	-383.141954	-383.14101	-383.183213	32.896	
C	 0.9277537618	-0.3464751681	-1.3462630059	-0.38747
C	 0.1157703506	 0.0403908877	-0.1073449434	 0.080552
C	-0.0110019103	 1.5607843533	 0.0197780778	-0.387288
N	-1.2288030235	-0.54403861	-0.2140799039	-0.127426
C	-2.0210171579	-0.6256349857	 1.0515634502	-0.039134
C	-2.8011827641	-1.8757318903	 0.5389053868	-0.032897
N	-2.5484973435	-2.7334365335	 1.7406811707	-0.350283
C	-1.3000858755	-1.9144327721	 1.6137363036	-0.047041
C	-1.336865149	-2.0125998941	 0.0462830698	-0.005944
H	 1.9268086145	 0.098714165	-1.3085484369	 0.109898
H	 1.0498690337	-1.4312655666	-1.424595444	 0.110908
H	 0.4239739062	 0.0035156272	-2.2528959807	 0.122797
H	 0.6477708397	-0.3375323866	 0.7859398245	 0.053725
H	-0.5415867833	 1.9697693883	-0.8459309057	 0.122882
H	-0.5646869726	 1.8443736389	 0.9203959706	 0.108275
H	 0.9769811136	 2.0280847639	 0.0760026232	 0.110106
H	-2.4026773839	 0.2442164222	 1.5903428245	 0.081299
H	-3.7117992042	-1.9052171932	-0.0583913847	 0.089995
H	-3.1064007869	-2.401269658	 2.5320991307	 0.207702
H	-0.4633814566	-2.014157946	 2.3053930353	 0.086756
H	-0.9157941788	-2.7861084525	-0.5951003425	 0.092589
72.98	161.0419	185.6453	203.6809	236.5651	323.4034	400.3357	444.8954	524.1462	537.1689	745.6376	762.8031	789.5735	817.3157	832.7954	872.4456	902.6656	920.1004	924.8373	935.5118	968.7211	980.5672	1037.3586	1045.3969	1097.4755	1107.6421	1144.7464	1152.8903	1153.3553	1170.413	1174.5545	1183.6876	1200.3152	1219.5524	1294.7095	1298.5562	1344.6648	1367.0868	1376.1764	1398.427	1417.0515	1483.1881	1487.6623	1496.9716	1511.4395	2920.1645	3034.1302	3038.3424	3091.6133	3103.5153	3106.1836	3108.696	3112.2446	3114.865	3122.2612	3135.4315	3398.096
CC(C)N1C2C3NC2C13	CC(C)N1[C@H]2[C@@H]3N[C@H]2[C@H]13	
InChI=1S/C7H12N2/c1-3(2)9-6-4-7(9)5(6)8-4/h3-8H,1-2H3	InChI=1S/C7H12N2/c1-3(2)9-6-4-7(9)5(6)8-4/h3-8H,1-2H3/t4-,5+,6-,7+
