15
gdb 24538	3.85961	1.69301	1.1768	2.074	86.21	-0.1908	-0.0598	0.131	977.1792	0.11605	-383.538305	-383.532148	-383.531204	-383.568568	25.545	
O	-0.0323023378	 1.3323316805	 0.009851855	-0.202128
C	 1.1085281738	 2.0358931217	 0.0023754971	 0.038417
C	 2.340414931	 1.4621979671	-0.0128775566	-0.170607
C	 2.4701481513	 0.0429315112	-0.0218073625	-0.21468
C	 1.3354324469	-0.7165064238	-0.0147038003	 0.232267
C	 1.0295433689	-2.1111226903	-0.019244876	-0.276358
C	-0.3438547427	-2.2239780151	-0.0062530198	-0.075614
C	-0.9805118721	-0.9268231607	 0.0070910095	-0.316384
C	 0.037021385	-0.0213637736	 0.0018653332	 0.337036
H	 0.9206535089	 3.101262059	 0.0099705342	 0.138666
H	 3.2102900349	 2.1060397043	-0.0180016247	 0.113253
H	 3.4576766439	-0.4080762335	-0.0340041683	 0.113749
H	 1.7501847843	-2.9152646132	-0.0307345235	 0.088838
H	-0.8927673	-3.1578723406	-0.0058702341	 0.095859
H	-2.0410080164	-0.728541513	 0.0186794468	 0.097685
194.7688	254.4702	379.9606	423.9598	535.0771	550.3561	592.6266	602.3684	700.3806	729.6178	756.8143	775.5985	792.4212	846.9746	901.2098	904.0923	916.2153	956.0582	1019.2025	1047.3106	1078.3066	1098.7448	1199.9437	1224.4299	1291.6409	1303.6469	1367.1464	1401.9453	1433.0996	1476.2941	1559.4318	1614.1319	1681.0579	3179.5809	3207.0919	3214.6909	3235.5601	3242.1221	3251.7869
O1C=CC=C2C=CC=C12	o1cccc2cccc12	
InChI=1S/C8H6O/c1-3-7-4-2-6-9-8(7)5-1/h1-6H	InChI=1S/C8H6O/c1-3-7-4-2-6-9-8(7)5-1/h1-6H
