19
gdb 110239	1.96316	1.66919	1.0866	3.3301	77.5	-0.2352	-0.0049	0.2303	1181.3091	0.157056	-423.011615	-423.002451	-423.001507	-423.045648	33.774	
C	 0.2807739671	 0.9864169703	 0.4180248165	-0.243402
O	-0.4016471172	-0.0200248301	-0.3098791024	-0.239127
C	 0.3733699812	-0.596014868	-1.3061255144	 0.093764
C	 1.4720572686	-1.6178540063	-1.0125991333	-0.297501
C	 1.0397227772	-2.5166178692	 0.1013730883	 0.447603
O	 1.6146751401	-2.9789288051	 1.0471729668	-0.33028
C	-0.3321710756	-2.8206623462	-0.5425968153	-0.405013
C	 0.1152139088	-1.9761669381	-1.753427541	 0.260632
C	-0.0899712782	-2.3799587237	-3.1844030376	-0.49459
H	 1.1671814625	 0.5826326644	 0.9253888922	 0.127394
H	 0.5949939772	 1.8124862406	-0.2370490996	 0.108327
H	-0.4185498555	 1.3701983043	 1.1633384916	 0.133784
H	 0.6692416911	 0.1025645701	-2.0939074538	 0.092378
H	 2.4814525807	-1.4878402233	-1.3861882533	 0.103258
H	-0.4146734956	-3.8881297893	-0.7684124692	 0.124225
H	-1.2231311682	-2.4817929706	-0.0115277255	 0.133106
H	-1.1524123377	-2.3324187759	-3.4505963577	 0.133872
H	 0.4540032678	-1.7200734714	-3.8672865796	 0.123795
H	 0.2510973158	-3.4058256525	-3.3595920926	 0.127774
71.4171	108.5654	168.5603	181.7585	212.5163	247.3455	291.0275	324.8723	452.9156	476.3621	509.8956	600.2256	622.1392	665.8215	768.1314	877.5796	905.2443	949.8859	958.083	973.5312	1032.3295	1052.8906	1083.165	1110.6593	1138.2832	1168.4467	1183.6799	1203.0956	1218.7944	1252.4948	1283.6727	1340.6189	1416.7745	1439.2183	1460.6089	1485.4264	1486.265	1491.406	1499.7304	1511.2704	1877.2059	2990.2287	3027.4363	3049.0217	3066.3049	3067.5453	3089.6552	3104.4275	3128.7354	3130.1646	3183.986
COC1C2C(=O)CC12C	CO[C@H]1[C@H]2C(=O)C[C@@]12C	
InChI=1S/C7H10O2/c1-7-3-4(8)5(7)6(7)9-2/h5-6H,3H2,1-2H3	InChI=1S/C7H10O2/c1-7-3-4(8)5(7)6(7)9-2/h5-6H,3H2,1-2H3/t5-,6+,7-/m1/s1
