16
gdb 97348	7.69945	0.65497	0.60588	2.2377	76.21	-0.2552	-0.0221	0.2332	1784.2203	0.122737	-471.239075	-471.22941	-471.228466	-471.274738	32.533	
C	-0.0213130782	 1.6469906981	-0.3620960381	-0.312674
N	-0.1662163991	 0.2424273305	-0.0463714746	-0.161202
C	 0.4935281453	-0.5769552642	-0.7374873511	 0.096828
N	 0.4695517504	-1.9624500385	-0.566064944	-0.409683
C	-0.2472778867	-2.6901762824	 0.3536117425	 0.558256
O	-0.9982301398	-2.2946416081	 1.1967445401	-0.3476
O	 0.065620369	-4.0215857339	 0.123747433	-0.23853
C	-0.5369003055	-4.9517907869	 0.9291437749	 0.123649
N	-0.2640467099	-6.1639622008	 0.7340676806	-0.42832
H	 0.6708708221	 1.8494302193	-1.1963150505	 0.095858
H	-1.0019418983	 2.0659252895	-0.6138870738	 0.135374
H	 0.3350561719	 2.1838162778	 0.5240985462	 0.13538
H	 1.1679608153	-0.2960603155	-1.5596746382	 0.092235
H	 1.0448394833	-2.5105239908	-1.1860360784	 0.273173
H	-1.202689512	-4.5008783562	 1.6655122811	 0.147463
H	-0.7772985878	-6.7419121081	 1.3977934903	 0.239795
46.4423	94.0644	109.722	125.5981	137.9593	207.5849	230.9349	335.3342	349.71	369.0621	527.1876	583.6837	644.9368	767.68	835.7468	850.3816	943.5825	972.8833	1037.795	1071.4753	1074.7506	1140.3856	1144.7308	1180.0664	1229.3965	1278.8917	1388.3394	1415.8846	1444.6446	1476.7828	1501.6771	1541.5289	1749.9919	1774.9626	1877.6524	2964.648	3007.9491	3063.8749	3084.3855	3138.4509	3510.646	3644.0675
CN=CNC(=O)OC=N	CN=CNC(=O)O[CH][NH]	
InChI=1S/C4H7N3O2/c1-6-3-7-4(8)9-2-5/h2-3,5H,1H3,(H,6,7,8)	InChI=1S/C4H7N3O2/c1-6-3-7-4(8)9-2-5/h2-3,5H,1H3,(H,6,7,8)
