23
gdb 89716	3.14075	1.01294	0.95575	1.181	87.16	-0.2396	0.0767	0.3164	1397.6991	0.203588	-388.273319	-388.263348	-388.262403	-388.30788	38.425	
C	 0.1466119407	 1.5696113411	 0.0580018653	-0.40494
C	 0.0601609022	 0.0515358757	 0.0413428487	 0.057586
C	 0.9908502172	-0.730609292	-0.9381066047	-0.323086
C	 1.3200761938	-1.6911447076	 0.2122662401	 0.349787
C	 1.1608632875	-3.1952613087	 0.2051553361	-0.423356
C	 2.5200404521	-2.5569762231	 0.4120411692	 0.329198
C	 3.5836945888	-2.6659166638	-0.6564087317	-0.44685
O	 3.0216434602	-2.5240464519	 1.7259419305	-0.464604
C	 0.6866218835	-0.7387151477	 1.2322494508	-0.302972
H	 1.180323609	 1.9020696005	 0.2087074578	 0.111448
H	-0.2077284388	 2.0005139064	-0.8854555292	 0.110778
H	-0.4595327098	 1.9942540841	 0.8663507085	 0.112648
H	-0.9791307256	-0.2596147763	-0.107518381	 0.070047
H	 0.5227013208	-1.1599694621	-1.8285741157	 0.09355
H	 1.8547802768	-0.1336978984	-1.2529020969	 0.095159
H	 0.6909740644	-3.6482975248	 1.0729197364	 0.107103
H	 0.9582755327	-3.6930745379	-0.7393187204	 0.102766
H	 3.1472602389	-2.6251208327	-1.6585000385	 0.118732
H	 4.3083991372	-1.8503714464	-0.5613766825	 0.122951
H	 4.1300392682	-3.6137037697	-0.5704983952	 0.105264
H	 3.3732922766	-3.3977682759	 1.9302189534	 0.278506
H	 1.4378439285	-0.1560864921	 1.775496313	 0.105537
H	-0.0047497449	-1.1728718465	 1.959011396	 0.094749
48.8256	140.8611	162.1766	208.952	237.2265	252.2932	286.1031	309.34	345.2875	390.3586	437.0165	443.0223	456.3812	577.7513	701.2429	728.3191	825.3756	881.1208	889.9405	897.4439	906.2456	923.2459	945.2902	979.8911	1030.7189	1052.0998	1071.995	1088.8277	1130.6375	1155.3175	1182.3023	1189.0284	1234.9667	1237.9674	1261.0513	1273.6576	1290.8012	1315.1134	1368.507	1406.9814	1411.1171	1421.8776	1475.5131	1478.8023	1484.8672	1493.209	1496.727	1499.4062	1512.229	3020.3244	3021.492	3032.1212	3042.7576	3047.8426	3083.7518	3085.0167	3087.8418	3090.889	3100.4714	3109.839	3113.0845	3201.5905	3790.253
CC1CC2(CC2(C)O)C1	C[C@H]1C[C@]2(C[C@]2(C)O)C1	
InChI=1S/C8H14O/c1-6-3-8(4-6)5-7(8,2)9/h6,9H,3-5H2,1-2H3	InChI=1S/C8H14O/c1-6-3-8(4-6)5-7(8,2)9/h6,9H,3-5H2,1-2H3/t6-,7-,8+/m0/s1
