20
gdb 62801	2.51956	1.50611	1.20465	3.1058	79.47	-0.2317	-0.026	0.2058	1118.0767	0.168975	-403.111783	-403.102761	-403.101816	-403.145095	34.266	
C	-0.3315133898	 1.4673500985	 0.0396272262	-0.464149
C	-0.0405105549	-0.0203724751	 0.0455145321	 0.336914
C	-1.0505057324	-0.815313364	 0.8553397094	-0.441592
C	 0.5582166556	-0.7430811341	-1.0981269962	-0.059239
C	 1.5966029338	 0.0790072422	-1.8639547556	-0.315397
C	 2.3454978183	 0.1803981097	-0.5003431152	-0.041483
C	 2.8018710793	 1.5067350107	 0.0482324768	 0.154505
O	 2.5016194479	 1.9726617014	 1.1164053446	-0.244675
N	 1.312312892	-0.6170211164	 0.2308407649	-0.176579
H	 0.2904437271	 2.0379236169	-0.6509973128	 0.113349
H	-1.3749603514	 1.625439819	-0.2545200741	 0.113683
H	-0.1872016086	 1.8887762566	 1.0377105987	 0.146965
H	-2.0562523878	-0.7058396035	 0.4354372629	 0.111576
H	-0.78842548	-1.8757964642	 0.8708903607	 0.126037
H	-1.0716344526	-0.4584930482	 1.8900922893	 0.127207
H	 0.1809316919	-1.703186121	-1.4382835342	 0.093156
H	 2.148481828	-0.4953371973	-2.6086136188	 0.11842
H	 1.2423010268	 1.0038717148	-2.3276754475	 0.113684
H	 3.2593957024	-0.4292869422	-0.5474301192	 0.11496
H	 3.5111483245	 2.0349508461	-0.6350183918	 0.07266
102.4322	132.3058	176.7712	209.0875	238.2782	277.7992	304.1497	342.7502	367.8329	439.1345	491.2231	622.2364	676.0931	725.454	787.1087	842.4084	862.5224	896.9104	960.9058	983.8484	997.4346	1022.4085	1046.4008	1056.9667	1094.8453	1125.4357	1135.7034	1152.4442	1228.8192	1254.9871	1261.8125	1298.6666	1351.5337	1406.7448	1413.9943	1418.8839	1425.8186	1477.6229	1480.86	1497.7047	1505.6729	1509.5267	1830.9666	2834.284	3007.0435	3035.2175	3044.8108	3061.2002	3101.4051	3111.931	3124.3847	3125.0404	3139.5332	3152.2718
CC1(C)C2CC(C=O)N12	CC1(C)[C@H]2C[C@@H](C=O)N12	
InChI=1S/C7H11NO/c1-7(2)6-3-5(4-9)8(6)7/h4-6H,3H2,1-2H3	InChI=1S/C7H11NO/c1-7(2)6-3-5(4-9)8(6)7/h4-6H,3H2,1-2H3/t5-,6+,8?/m0/s1
