24
gdb 58036	1.88039	1.30713	0.94353	3.9049	89.27	-0.3074	0.0372	0.3447	1407.923	0.215313	-368.449105	-368.437903	-368.436959	-368.485027	41.172	
C	 0.4497522617	-0.3923621506	 1.3222570374	-0.399501
C	-0.0555965342	 0.1006503566	-0.0396794272	 0.009202
C	-0.0458842311	 1.6338394077	-0.1123432024	-0.405984
C	 0.7313463166	-0.5153311832	-1.2362939105	-0.124074
C	 2.1322321681	-0.0756686243	-1.1902160568	 0.293185
N	 3.2353226834	 0.2669940589	-1.1324578953	-0.353454
C	 0.6638170855	-2.0667134822	-1.3711649246	 0.021638
C	-0.7857109973	-2.5695484985	-1.3959806961	-0.407295
C	 1.4130875559	-2.5360159528	-2.6268676911	-0.406461
H	 0.3564641191	-1.4769500969	 1.4302482852	 0.11753
H	 1.502296048	-0.1279723873	 1.4695960309	 0.139701
H	-0.1266670242	 0.0701543987	 2.1292432746	 0.116997
H	-1.0931735656	-0.2279608769	-0.1643498126	 0.085474
H	 0.967317916	 2.0309444934	 0.0078550532	 0.142154
H	-0.4355826413	 1.991745303	-1.0714086442	 0.112314
H	-0.6687365551	 2.0579670293	 0.6811266435	 0.115944
H	 0.3024993751	-0.0921263991	-2.156238021	 0.114312
H	 1.1672395242	-2.4985995364	-0.4978912306	 0.095264
H	-0.8029469153	-3.6485098905	-1.5772701205	 0.119206
H	-1.3117992512	-2.3873374837	-0.4555761432	 0.123257
H	-1.355746945	-2.091095497	-2.2015152257	 0.116091
H	 2.4559372153	-2.2082355715	-2.6235790855	 0.143835
H	 1.4025713845	-3.6282154205	-2.6918061976	 0.116467
H	 0.9383671869	-2.1451090163	-3.53496634	 0.114198
66.9543	81.6578	148.7706	174.9957	186.0313	226.6485	234.5947	245.275	257.3751	313.8694	341.712	394.5963	409.5613	431.1162	447.9928	551.1178	631.1036	788.2556	856.8726	899.0373	935.0664	937.9333	959.1156	969.0199	971.0833	998.5617	1080.5364	1119.716	1145.5384	1184.0206	1189.0658	1203.4729	1280.2729	1294.8442	1349.687	1355.1969	1369.6594	1378.4663	1403.383	1407.9851	1424.6647	1427.8489	1486.3425	1489.3055	1494.543	1495.1493	1504.021	1506.3058	1511.3071	1514.8133	2346.9851	3005.9703	3029.2563	3031.0404	3032.9081	3038.3028	3040.9089	3047.5843	3095.2441	3101.1153	3102.3596	3106.1684	3110.1339	3112.37	3116.6274	3120.196
CC(C)C(C#N)C(C)C	CC(C)C(C#N)C(C)C	
InChI=1S/C8H15N/c1-6(2)8(5-9)7(3)4/h6-8H,1-4H3	InChI=1S/C8H15N/c1-6(2)8(5-9)7(3)4/h6-8H,1-4H3
