22
gdb 88392	2.07761	1.45264	1.17231	1.9416	83.38	-0.2185	-0.0252	0.1933	1205.7166	0.190259	-404.327813	-404.317268	-404.316324	-404.363111	38.848	
C	-1.5695458995	-0.8224410168	 2.4316835516	-0.425025
C	-0.6889603129	-0.9647697096	 1.2077212178	 0.025924
C	-0.5461523901	 0.1591044676	 0.2288206236	-0.269362
N	 0.5932480018	-0.2991940916	 1.0119496161	-0.100468
C	 1.3350202588	 0.5021147483	 2.0002761767	 0.172153
C	 2.0635542587	-0.462869445	 2.9386175151	-0.39732
C	 2.3377694775	 1.354684166	 1.1958643767	-0.407195
C	 0.4970898386	 1.5019622839	 2.8028559171	 0.132866
O	 0.4939560737	 1.6018618755	 4.0036944903	-0.259511
H	-1.6902856497	 0.2146758842	 2.7527245888	 0.132549
H	-2.5671414861	-1.2144263294	 2.2055619531	 0.123553
H	-1.1767001433	-1.3930943147	 3.2794162943	 0.132803
H	-0.6841658819	-1.9778443688	 0.8045038085	 0.092757
H	-0.4857827059	-0.0270425844	-0.8416273438	 0.113639
H	-1.0475818171	 1.0895259913	 0.4873221095	 0.111349
H	 2.6863216074	-1.1425580524	 2.3521637227	 0.119026
H	 2.6908114567	 0.085835345	 3.6443343218	 0.12675
H	 1.3531602964	-1.0552237742	 3.5205511036	 0.123853
H	 1.81797591	 2.0668049516	 0.5462580601	 0.118229
H	 2.9994978926	 1.9153913948	 1.8627073518	 0.125299
H	 2.9385924351	 0.6959161096	 0.5637293543	 0.133622
H	-0.1071627509	 2.1987679592	 2.1770870603	 0.074507
54.9609	84.0215	159.0699	190.9512	216.9164	241.6523	242.0063	262.5762	302.0748	340.1149	365.2671	378.2445	453.5033	533.0751	559.2838	702.3853	792.2399	804.4015	898.6782	904.4654	938.8659	952.1314	1017.0311	1027.2476	1041.102	1049.7748	1115.5868	1136.4914	1153.2476	1179.9402	1194.9381	1209.4562	1266.1497	1344.4286	1389.8891	1403.7077	1406.4353	1422.1945	1430.0616	1475.0648	1481.6418	1488.0952	1491.2565	1502.3753	1504.0609	1516.1465	1819.755	2857.6562	3036.5923	3039.6285	3056.2588	3090.0957	3093.826	3098.1279	3107.8626	3125.2868	3128.3488	3130.1347	3138.4022	3169.0386
CC1CN1C(C)(C)C=O	C[C@H]1CN1C(C)(C)C=O	
InChI=1S/C7H13NO/c1-6-4-8(6)7(2,3)5-9/h5-6H,4H2,1-3H3	InChI=1S/C7H13NO/c1-6-4-8(6)7(2,3)5-9/h5-6H,4H2,1-3H3/t6-,8?/m0/s1
