19
gdb 68418	2.60282	1.855	1.43027	2.4683	74.44	-0.223	0.0551	0.2781	965.4804	0.161614	-419.138906	-419.131477	-419.130533	-419.17027	30.645	
O	-0.1851574395	 1.3784226726	 0.0885627484	-0.491391
C	 0.0043158458	 0.0019572389	 0.0676962483	 0.287424
C	 0.8545591683	-0.7961488956	-0.9652276436	-0.246269
N	 0.7513798018	-1.9306932069	 0.0351229859	-0.128235
C	 0.7864471317	-0.8546124108	 1.1055552898	-0.238685
C	-0.7242367665	-2.2013792201	-0.0217204884	-0.255952
C	-1.3028204634	-0.7768660011	-0.0012553441	 0.373789
C	-2.5606531297	-0.3005823282	 0.6015907896	-0.324877
N	-2.3996931749	-0.367715099	-0.8728998483	-0.389615
H	 0.6710978201	 1.815746801	 0.0545949941	 0.288379
H	 0.4381973015	-1.0038872184	-1.9541699819	 0.115405
H	 1.8920470151	-0.4592226093	-1.0432555806	 0.098552
H	 1.8158555043	-0.5255864625	 1.2726371135	 0.099434
H	 0.3064927864	-1.1183227702	 2.0516671563	 0.107887
H	-0.9752379597	-2.7376892881	-0.939717227	 0.121824
H	-1.0182810662	-2.8087344187	 0.8382169804	 0.110099
H	-3.2719311869	-1.0115288987	 1.014388808	 0.114266
H	-2.5608659165	 0.6788842106	 1.0719560329	 0.122707
H	-2.2121065416	 0.5723121346	-1.2201769033	 0.235258
137.2535	240.1652	256.1164	288.0923	371.3858	414.6601	447.1447	459.1798	549.3638	581.0064	644.6942	731.7945	834.663	849.9996	862.0139	876.4018	931.9372	955.7945	966.7058	984.373	1008.2316	1034.8945	1052.0541	1081.4792	1114.7468	1119.2099	1141.1329	1210.3287	1210.7854	1223.3536	1234.4463	1276.0018	1277.5661	1302.3546	1304.5241	1369.5408	1441.7955	1493.1039	1494.096	1511.8118	1532.041	3049.3888	3055.9685	3065.2374	3105.9152	3114.6538	3118.9003	3120.8241	3193.94	3471.5478	3827.655
OC12CN(C1)CC21CN1	O[C@@]12CN(C1)C[C@]12CN1	
InChI=1S/C6H10N2O/c9-6-3-8(4-6)2-5(6)1-7-5/h7,9H,1-4H2	InChI=1S/C6H10N2O/c9-6-3-8(4-6)2-5(6)1-7-5/h7,9H,1-4H2/t5-/m0/s1
