20
gdb 109449	1.94588	1.65899	1.02861	3.6334	81.38	-0.2278	0.0372	0.265	1223.1368	0.170053	-403.159654	-403.150435	-403.149491	-403.194309	34.106	
C	 0.06360253	 1.5336491155	 0.1026304147	-0.377055
C	 0.0086859017	 0.0194862447	-0.1299909999	-0.169323
N	 0.7283484727	-0.4221831718	-1.3027618019	-0.117157
C	 0.2732323163	-0.8418044808	-2.5319737504	 0.412061
O	-0.8338108886	-0.8924207619	-3.002676233	-0.379473
C	 1.710181387	-1.2050278816	-2.9812481289	-0.481358
C	 2.1218757069	-0.749761194	-1.5725789928	 0.397994
C	 3.331346277	 0.0160706019	-1.142317437	-0.332136
C	 3.0790868648	-1.3949240679	-0.6216431639	-0.331389
H	 1.0889716913	 1.8795018078	 0.2632244772	 0.121274
H	-0.3448518949	 2.0685257601	-0.7592034193	 0.136913
H	-0.5248621177	 1.8020347819	 0.9858218068	 0.119497
H	 0.3932613327	-0.5163784389	 0.7475245269	 0.10972
H	-1.0287164993	-0.2993618072	-0.2744628056	 0.141728
H	 1.8560353913	-2.2650093294	-3.1985330116	 0.13183
H	 2.091686996	-0.5988545675	-3.8053595443	 0.131225
H	 4.1267004354	 0.1663963387	-1.8651873155	 0.122242
H	 3.2074125069	 0.8348937967	-0.4417446845	 0.121209
H	 2.7859006325	-1.4958902368	 0.41844929	 0.119638
H	 3.7021500779	-2.2044097696	-0.9874258971	 0.122559
44.1163	99.4171	108.1633	171.5169	238.9189	273.5572	286.8184	376.2878	466.6215	524.653	529.0104	573.5394	688.662	762.0412	770.2224	831.6288	841.2156	912.6308	938.6219	967.8888	987.3238	1024.2196	1049.0813	1073.5621	1078.3749	1103.291	1133.0311	1182.3201	1183.2688	1195.975	1228.6054	1334.2492	1380.7246	1400.0599	1409.276	1416.7601	1456.494	1463.8712	1475.2957	1491.944	1501.0408	1509.2061	1876.1425	3021.9354	3041.5782	3080.3165	3082.4043	3112.9582	3124.163	3126.5887	3131.0021	3137.6729	3205.879	3220.5834
CCN1C(=O)CC11CC1	CCN1C(=O)CC21CC2	
InChI=1S/C7H11NO/c1-2-8-6(9)5-7(8)3-4-7/h2-5H2,1H3	InChI=1S/C7H11NO/c1-2-8-6(9)5-7(8)3-4-7/h2-5H2,1H3
