21
gdb 61563	2.89577	1.06753	0.87856	3.6053	79.91	-0.2278	0.0619	0.2897	1390.668	0.182779	-420.429861	-420.419821	-420.418876	-420.465564	36.475	
C	-0.321486091	 1.4435237853	-0.0924287711	-0.354998
N	-0.0983910512	 0.0126576989	-0.0122812763	-0.083286
C	 0.0228155815	-0.6043659912	 1.3080554536	-0.200708
C	-1.3020006868	-0.8633816012	 1.9957120736	 0.018432
C	-2.1151384557	-2.0678142004	 1.5961349295	-0.252474
C	-1.4214579633	-2.0384619787	 2.9352519676	-0.271665
C	-0.019290753	-0.797286765	-1.1188596363	 0.452383
N	-0.0653488212	-0.1380051393	-2.3467220357	-0.569269
O	 0.0472349279	-2.0165836476	-1.0553791097	-0.41665
H	 0.6099010088	 2.0161409667	-0.225308741	 0.115608
H	-1.0013111939	 1.684795911	-0.9138782465	 0.144886
H	-0.7900100204	 1.7891657169	 0.8323466183	 0.135868
H	 0.5487420345	-1.5502037161	 1.1656173454	 0.136384
H	 0.6552033031	 0.0426852067	 1.9301263757	 0.094637
H	-1.8594747056	 0.0274258655	 2.2756072223	 0.073123
H	-3.1954575106	-1.9740508127	 1.5785255082	 0.103871
H	-1.7000836543	-2.6962165039	 0.8166837479	 0.148013
H	-0.5490922446	-2.6700034202	 3.069661715	 0.112549
H	-2.0239649074	-1.9219322364	 3.8293852058	 0.10703
H	 0.3797768416	 0.7641534613	-2.4205279646	 0.248368
H	 0.1695775117	-0.7664789697	-3.1004829016	 0.257899
62.4287	71.5326	89.193	124.4494	145.6948	244.5556	308.5969	313.1133	402.1575	421.9363	439.2155	569.7671	576.4591	601.4492	771.8927	781.7074	789.2707	811.0886	844.5408	911.1124	951.0371	1003.5166	1043.0092	1063.1776	1085.5282	1105.8761	1126.9241	1141.3315	1146.6235	1199.9346	1224.6116	1244.8793	1272.8719	1339.4953	1368.4692	1424.5817	1432.3164	1465.3775	1474.4779	1490.3699	1501.976	1509.0995	1525.1893	1625.8594	1768.396	2980.0637	3017.9088	3079.4183	3112.4595	3120.1922	3130.2408	3132.8426	3139.9407	3210.3352	3231.8839	3574.7148	3685.6051
CN(CC1CC1)C(N)=O	CN(CC1CC1)C(=O)N	
InChI=1S/C6H12N2O/c1-8(6(7)9)4-5-2-3-5/h5H,2-4H2,1H3,(H2,7,9)	InChI=1S/C6H12N2O/c1-8(6(7)9)4-5-2-3-5/h5H,2-4H2,1H3,(H2,7,9)
