14
gdb 129846	2.51122	1.49103	0.93751	4.7744	69.27	-0.2269	-0.0327	0.1941	1149.5405	0.102085	-470.03902	-470.031112	-470.030167	-470.071435	29.539	
N	 0.091235351	 1.4100882189	-0.0402007921	-0.604858
C	-0.0506527274	 0.0294777438	-0.0114173203	 0.463349
C	-1.1672521782	-0.760951611	-0.0629858989	-0.429845
C	-0.6470725882	-2.0875512067	-0.0725746175	 0.485412
O	-1.4058229345	-3.1920070225	-0.1082329958	-0.419282
N	 0.6617255027	-2.1470600931	-0.0248968565	-0.357974
N	 1.0485399461	-0.8187112246	-0.0050942951	-0.087891
C	 2.3869842318	-0.4488317395	-0.0706637154	 0.178079
O	 3.3153704233	-1.2095000612	-0.0607026486	-0.277689
H	 0.7004198311	 1.7901892196	 0.672680561	 0.263631
H	-0.8015093008	 1.8836307388	-0.0220876123	 0.265002
H	-2.199708127	-0.4545787166	-0.0663239886	 0.117303
H	-0.8053291815	-3.9498942025	-0.0970914113	 0.310942
H	 2.4881925515	 0.6481247964	-0.1447665085	 0.093821
119.9624	190.6383	210.4128	232.6039	254.6932	319.2478	436.1004	453.6552	484.9155	588.9408	612.1185	638.8092	708.7105	712.5848	723.6584	780.2189	903.7706	1014.7648	1017.4277	1099.0087	1161.58	1191.387	1250.752	1341.3237	1410.904	1465.8796	1547.7646	1570.5894	1634.7803	1674.6554	1833.9682	2983.1669	3275.2876	3548.3971	3640.8443	3776.5424
NC1=CC(O)=NN1C=O	Nc1cc(O)nn1C=O	
InChI=1S/C4H5N3O2/c5-3-1-4(9)6-7(3)2-8/h1-2H,5H2,(H,6,9)	InChI=1S/C4H5N3O2/c5-3-1-4(9)6-7(3)2-8/h1-2H,5H2,(H,6,9)
