15
gdb 78682	3.3049	1.42974	1.13583	3.1339	66.01	-0.2412	0.003	0.2442	1031.7077	0.111192	-457.697669	-457.68984	-457.688896	-457.72993	29.593	
O	 0.0101664906	 1.4629288973	-0.0624519156	-0.441259
C	 0.0731540229	 0.062632462	 0.0105629532	 0.09702
C	 0.0050519626	-0.6101346166	 1.4011632999	-0.151729
C	-1.52789131	-0.294201886	 1.5429772475	-0.197646
C	-1.2967665091	-0.6268663523	 0.0163579577	-0.0906
C	-0.7203492341	-1.8859568432	 0.7555788176	 0.241889
O	-0.1486370692	-2.9532976199	 0.1168424714	-0.469798
C	-1.8077434302	-1.7716750868	 1.8230497953	 0.376237
O	-2.4722604092	-2.4744506117	 2.5226316403	-0.338904
H	 0.9068518535	 1.8110301731	-0.0752978921	 0.287388
H	 0.8158520133	-0.350264568	-0.6838631299	 0.086858
H	 0.7231056492	-0.6328630145	 2.2210637667	 0.08814
H	-1.9593959313	 0.6150947005	 1.942678557	 0.111901
H	-2.0712232155	-0.6468674272	-0.7493071197	 0.097187
H	-0.0224809936	-3.6607209067	 0.7592750908	 0.303316
136.8599	145.9916	174.899	247.6068	267.744	300.1268	423.5662	436.8082	574.0957	682.0451	708.6202	724.3585	791.7059	841.9725	866.9875	879.0604	923.5778	936.2869	998.5127	1020.9648	1036.8753	1114.0925	1119.8102	1152.2245	1164.5155	1178.7422	1197.6282	1268.1073	1303.6626	1311.1301	1407.5102	1447.6792	1908.4113	3026.7441	3115.8743	3129.4213	3208.3849	3808.3535	3826.5365
OC1C2C3C1C2(O)C3=O	O[C@H]1[C@H]2[C@H]3[C@@H]1[C@]2(O)C3=O	
InChI=1S/C6H6O3/c7-4-2-1-3(4)6(2,9)5(1)8/h1-4,7,9H	InChI=1S/C6H6O3/c7-4-2-1-3(4)6(2,9)5(1)8/h1-4,7,9H/t1-,2+,3-,4-,6-
