21
gdb 59236	2.4868	1.4207	1.06185	1.7422	77.55	-0.2503	0.0743	0.3247	1205.3031	0.181176	-424.190685	-424.181463	-424.180519	-424.224513	35.288	
C	-0.0182544652	 1.6199356852	 0.1123921762	-0.395889
C	 0.0241788439	 0.0885957516	 0.0130018648	 0.034366
C	 0.813014001	-0.52598101	 1.1778822014	-0.39978
C	-1.3882743319	-0.4924369207	-0.053685388	-0.05705
C	-2.268217327	-0.158152103	-1.2650233786	 0.008287
O	-1.6608117869	-0.768494432	-2.4197497404	-0.262581
C	-2.5034158506	-1.5758301769	-1.5775657842	-0.022166
C	-1.591565608	-2.0309777895	-0.4294234819	 0.092978
O	-0.4750806668	-2.7909466381	-0.8040558663	-0.426619
H	 0.9939079611	 2.0367867505	 0.1365717376	 0.112885
H	-0.5417339977	 2.0676292935	-0.7387791394	 0.113972
H	-0.5298658471	 1.94108107	 1.02787975	 0.108962
H	 0.5351935391	-0.1724335123	-0.9222872109	 0.072623
H	 0.3351111676	-0.296157451	 2.1382983858	 0.10436
H	 0.8744085225	-1.6120737231	 1.0755869695	 0.136094
H	 1.8317916983	-0.1258583917	 1.2128457428	 0.106813
H	-1.9284972633	-0.2782496363	 0.8770115969	 0.071981
H	-2.9031067848	 0.7006551173	-1.4483058015	 0.107222
H	-3.3398045821	-2.0756896509	-2.052325723	 0.10717
H	-2.1089333177	-2.5821719957	 0.3587671823	 0.09343
H	-0.1393947846	-2.3890193067	-1.6157272431	 0.292942
75.9769	114.1243	163.9312	222.0167	233.1511	260.6202	296.4389	324.2937	415.1975	472.508	507.7757	557.2989	656.0825	737.0481	785.5396	861.0021	875.8097	887.3446	905.7416	919.9944	933.9757	971.2681	1006.0269	1019.6826	1058.2193	1100.1654	1142.7599	1155.8798	1188.6917	1206.7808	1227.1276	1242.3155	1269.3121	1292.3184	1304.6172	1346.8204	1376.686	1392.4152	1397.1536	1418.9753	1440.7435	1489.6752	1493.918	1504.1665	1516.7204	3021.9753	3022.8251	3026.6998	3038.5266	3086.4377	3092.8708	3095.3373	3099.4156	3124.3523	3180.654	3195.9138	3773.5978
CC(C)C1C2OC2C1O	CC(C)[C@H]1[C@H]2O[C@H]2[C@H]1O	
InChI=1S/C7H12O2/c1-3(2)4-5(8)7-6(4)9-7/h3-8H,1-2H3	InChI=1S/C7H12O2/c1-3(2)4-5(8)7-6(4)9-7/h3-8H,1-2H3/t4-,5+,6-,7+/m1/s1
