14
gdb 16942	3.80454	2.22816	2.03717	4.361	56.35	-0.2529	0.0003	0.2533	706.1481	0.109863	-419.710186	-419.70453	-419.703586	-419.739885	22.415	
O	-0.0207007994	-0.00915611	-0.0684362747	-0.340187
C	 0.0220124982	 1.1813647901	-0.0255279442	 0.461471
O	-1.0967847523	 1.9819678835	 0.0513251726	-0.245353
C	-0.6184007116	 3.3513590598	 0.11053873	 0.065793
C	 0.0503146505	 3.5090981943	 1.4787272108	-0.080468
O	 1.2325715599	 2.6954977243	 1.3451320552	-0.277776
C	 1.2023527266	 2.1662715124	 0.0046624498	-0.04117
C	 0.6105135049	 3.3144161519	-0.817019996	-0.255934
H	-1.4416245149	 4.0231072784	-0.1209341033	 0.106461
H	 0.3309860232	 4.5465170098	 1.6949183255	 0.113594
H	-0.5814467541	 3.1236476003	 2.2848600138	 0.127374
H	 2.1706458882	 1.7415512199	-0.243367883	 0.112491
H	 0.3529907024	 3.0462097658	-1.8432063932	 0.130363
H	 1.2187177182	 4.2201126196	-0.7899967232	 0.123343
164.9814	277.046	422.5309	437.2808	490.5971	602.2701	729.809	742.8155	825.9463	865.5557	884.383	906.2064	946.5953	958.3179	974.2586	991.8761	1060.1703	1064.6161	1122.3429	1159.4814	1193.4223	1222.1381	1276.6589	1291.1393	1301.7605	1349.5994	1369.504	1480.4821	1514.7903	1908.5262	3035.1224	3082.6637	3090.0502	3146.59	3156.6583	3178.0449
O=C1OC2COC1C2	O=C1O[C@H]2CO[C@@H]1C2	
InChI=1S/C5H6O3/c6-5-4-1-3(8-5)2-7-4/h3-4H,1-2H2	InChI=1S/C5H6O3/c6-5-4-1-3(8-5)2-7-4/h3-4H,1-2H2/t3-,4-/m1/s1
