18
gdb 75624	2.14507	1.73325	1.09042	2.6544	74.2	-0.2333	0.0243	0.2576	1126.9532	0.145849	-439.081286	-439.071851	-439.070906	-439.115755	33.672	
C	-0.0053365576	 1.3887462194	 0.0504234905	-0.354507
N	-0.0159785167	-0.0497621136	 0.0301883131	-0.135472
C	 0.0543382029	-0.9481395791	-1.0024070135	 0.393544
O	 0.1418417535	-0.8213310945	-2.1982829407	-0.391231
C	 0.0219637948	-2.1434154606	-0.0079371328	-0.144049
O	 1.1488747303	-2.9812151549	-0.0099696002	-0.429601
C	 0.0377520579	-1.0576025529	 1.079872618	 0.401796
C	 0.8756960994	-1.0284004776	 2.3121868533	-0.321103
C	-0.6465884855	-1.0218211498	 2.4064917239	-0.343869
H	 0.8910931301	 1.7786988448	 0.5480748264	 0.133222
H	-0.0071080279	 1.7326836021	-0.98644202	 0.165343
H	-0.8904352951	 1.7902868318	 0.5578182382	 0.132511
H	-0.9186349862	-2.7108260872	-0.0468483985	 0.093056
H	 1.3021189143	-3.2550825037	-0.921445299	 0.300634
H	 1.4122878916	-1.9358591254	 2.5659697006	 0.139269
H	 1.3962529719	-0.1104760171	 2.5648876137	 0.117871
H	-1.1223805358	-0.0966732191	 2.715996622	 0.117115
H	-1.1520202617	-1.9189217728	 2.7488504052	 0.125469
83.7917	98.302	132.0271	148.8673	197.2757	213.8771	259.2635	270.4466	387.9214	489.6544	525.21	590.021	646.5123	768.3639	805.552	820.002	890.8279	923.744	972.3409	983.0927	1045.9124	1057.6578	1072.7557	1134.8454	1147.3231	1167.1759	1183.0578	1207.5498	1256.8914	1311.827	1365.4329	1416.82	1424.675	1455.2274	1456.0031	1483.5675	1507.9819	1518.0404	1876.3139	3007.1687	3016.8238	3069.393	3126.7935	3131.4263	3134.7346	3208.1507	3225.2178	3804.5799
CN1C(=O)C(O)C11CC1	CN1C(=O)[C@@H](O)C21CC2	
InChI=1S/C6H9NO2/c1-7-5(9)4(8)6(7)2-3-6/h4,8H,2-3H2,1H3	InChI=1S/C6H9NO2/c1-7-5(9)4(8)6(7)2-3-6/h4,8H,2-3H2,1H3/t4-/m1/s1
