15
gdb 60838	2.92354	1.1675	0.94734	2.9742	63.68	-0.2636	-0.0546	0.209	1195.0537	0.107576	-494.914116	-494.90466	-494.903715	-494.949388	32.047	
O	-0.0291897471	 1.3456347219	 0.0817755852	-0.43897
C	 0.1142201916	-0.0410632533	-0.0485668755	 0.031385
C	 1.0160692066	-0.3627181604	-1.2345558346	 0.155652
O	 1.3076664131	 0.4959117627	-2.0291945595	-0.268227
C	 0.585768307	-0.6370139993	 1.2837438094	-0.222248
C	 2.0517826803	-0.3234184509	 1.5774680085	 0.164758
O	 2.8569968813	-0.1378211032	 0.7028245408	-0.234486
C	-0.3094166154	-0.2182480931	 2.4488132392	 0.154744
O	 0.0150698861	-0.3619768665	 3.5984185767	-0.247328
H	 0.3939873777	 1.7216169045	-0.7090219555	 0.303725
H	-0.8582033369	-0.5136332202	-0.2943358419	 0.103186
H	 1.3105834372	-1.4211507071	-1.3689495462	 0.102391
H	 0.5225781633	-1.7372222324	 1.2444065745	 0.144617
H	 2.3216293541	-0.3004236386	 2.6495770685	 0.133693
H	-1.2840881488	 0.2278919461	 2.1654446604	 0.117108
53.6043	78.5985	121.6163	137.8052	181.1755	210.0235	246.9698	303.7713	375.4918	471.9247	501.6082	551.1682	708.8333	729.0334	822.7638	868.6773	904.9016	968.9376	997.2557	1084.695	1100.3242	1176.5367	1215.3669	1258.4268	1280.8706	1342.2143	1387.8702	1394.3677	1424.3893	1439.4701	1809.6492	1815.7641	1835.2978	2908.2316	2932.4343	2953.4783	2972.7419	2993.798	3660.4279
OC(C=O)C(C=O)C=O	O[C@@H](C=O)C(C=O)C=O	
InChI=1S/C5H6O4/c6-1-4(2-7)5(9)3-8/h1-5,9H	InChI=1S/C5H6O4/c6-1-4(2-7)5(9)3-8/h1-5,9H/t5-/m0/s1
