19
gdb 17451	4.651	1.54174	1.38893	1.4881	75.67	-0.2139	0.0747	0.2886	981.7889	0.164766	-327.847861	-327.840113	-327.839169	-327.879246	30.49	
C	-0.0214964164	 1.482854571	 0.0022642141	-0.416939
C	-0.0224888697	-0.0265878144	-0.0539128933	 0.014616
C	 0.7199047086	-0.7061539035	-1.1395042062	-0.105896
N	 1.2905938055	-0.6328403602	 0.2545174929	-0.156309
C	 1.1952402062	-2.1455031745	 0.3039860854	-0.047481
C	-0.1343028511	-2.7890246922	 0.0000770238	-0.358724
C	 0.7116952476	-2.253066305	-1.125077995	 0.339456
C	 1.2083922814	-3.0646117349	-2.2848394484	-0.494454
H	 0.9101577252	 1.8855075353	-0.4043767569	 0.127849
H	-0.8591673697	 1.8913199799	-0.5730727414	 0.115633
H	-0.1146887879	 1.8289280852	 1.036556339	 0.124498
H	-0.9174882612	-0.4827713107	 0.3562833942	 0.084547
H	 1.1895431546	-0.1514324507	-1.948341421	 0.088332
H	 1.9893530559	-2.6647105795	 0.8269056114	 0.098645
H	-0.0935070033	-3.8716913115	 0.0866060694	 0.111592
H	-1.0972766989	-2.3799936763	 0.2843568674	 0.1138
H	 0.4777982442	-3.0819936919	-3.1031845207	 0.12017
H	 2.1441849297	-2.6566755597	-2.6844332865	 0.121578
H	 1.3955699894	-4.1010991564	-1.9869240083	 0.119086
177.2953	196.3979	204.1102	223.1407	269.9263	338.8714	392.4756	440.8371	521.1332	623.943	726.6533	733.7983	811.0265	823.8231	891.8072	944.4798	962.368	978.363	992.6752	1022.9171	1026.7886	1044.2937	1072.2045	1089.7605	1124.4124	1145.6967	1159.5592	1211.1053	1240.8829	1260.5251	1303.7269	1375.4109	1410.7084	1420.1667	1441.8405	1484.5177	1489.2247	1494.4598	1499.4596	1508.0119	3018.5136	3036.1983	3075.0536	3098.4442	3102.6213	3115.6907	3122.8832	3134.9873	3159.8824	3180.96	3199.9597
CC1C2N1C1CC21C	C[C@H]1[C@H]2N1[C@H]1C[C@@]21C	
InChI=1S/C7H11N/c1-4-6-7(2)3-5(7)8(4)6/h4-6H,3H2,1-2H3	InChI=1S/C7H11N/c1-4-6-7(2)3-5(7)8(4)6/h4-6H,3H2,1-2H3/t4-,5-,6+,7+,8?/m0/s1
