17
gdb 31168	2.28392	1.58894	0.96358	2.4338	71.67	-0.1662	0.0555	0.2217	1173.1223	0.137018	-455.165627	-455.156574	-455.15563	-455.199062	34.068	
N	-0.1152792558	 1.4690054737	 0.3636834276	-0.606363
C	-0.0548698538	 0.0820412919	 0.1069662875	 0.134689
C	-1.0994163653	-0.8092428011	 0.0893672966	-0.181325
N	-0.5576120359	-2.0867844875	-0.0803454279	-0.319575
C	 0.7887719514	-1.98571768	-0.1876755462	 0.344863
O	 1.5404347556	-3.089248417	-0.39228646	-0.441195
C	 1.1624846052	-0.6605823207	-0.0713840124	 0.048747
C	 2.5863712536	-0.2080736818	-0.0828370035	-0.203834
O	 3.3883905339	-1.0247017308	-0.9657580279	-0.421592
H	 0.482091738	 1.9989540824	-0.2611881962	 0.233736
H	-1.0589000117	 1.8253046465	 0.2706861536	 0.236122
H	-2.1593531	-0.6660389257	 0.2131478657	 0.103282
H	-1.0736285855	-2.9390805773	-0.2054596512	 0.261762
H	 2.4354527707	-2.7549327992	-0.5773398205	 0.303048
H	 2.6738244524	 0.8526946904	-0.3589345936	 0.096515
H	 3.0760595106	-0.3178588837	 0.8925751286	 0.125665
H	 3.0243223467	-0.9090947501	-1.8515945001	 0.285457
96.4495	153.6567	174.7663	203.4926	249.6072	261.8964	293.732	384.3712	430.5242	451.5746	523.6494	569.075	596.2611	635.7409	690.6571	695.5951	753.2612	774.4142	815.8958	960.6988	993.5621	1069.2185	1075.5877	1135.8	1199.5636	1212.5857	1270.2252	1306.9402	1361.2877	1396.0272	1405.4487	1455.8455	1509.3212	1586.7014	1595.8361	1641.3643	1662.0794	2996.168	3040.907	3273.2996	3510.3635	3599.9594	3646.3546	3694.6792	3789.5631
NC1=CNC(O)=C1CO	Nc1c[nH]c(O)c1CO	
InChI=1S/C5H8N2O2/c6-4-1-7-5(9)3(4)2-8/h1,7-9H,2,6H2	InChI=1S/C5H8N2O2/c6-4-1-7-5(9)3(4)2-8/h1,7-9H,2,6H2
