21
gdb 93144	2.3748	1.49384	1.03591	1.252	85.66	-0.2236	0.0236	0.2472	1215.6057	0.182725	-387.099066	-387.089957	-387.089013	-387.132648	35.113	
C	 0.8405368376	 1.3751501395	 0.0698072514	-0.467319
C	 0.0921768906	 0.0779314311	-0.075399847	 0.319508
C	-0.1349553878	-0.4853066831	-1.2627702254	-0.153819
C	-0.8583802667	-1.7924767497	-1.4991627284	-0.316996
C	-0.3891913095	-2.9891614406	-0.6995900692	-0.047702
C	 0.1550837794	-3.0281933923	 0.5168341648	-0.048323
C	 0.4074243476	-1.8940806318	 1.4760114739	-0.263577
C	-0.3829796131	-0.6050832561	 1.1943266125	 0.020835
O	-0.2523335212	 0.3152502664	 2.2727838764	-0.441646
H	 1.7291274155	 1.2553335597	 0.7002924525	 0.125961
H	 1.1555952301	 1.7501624944	-0.9073474617	 0.108149
H	 0.2235584935	 2.1348638624	 0.5597935474	 0.135401
H	 0.225207347	 0.0249236445	-2.1528265882	 0.079802
H	-1.9418440598	-1.6583462046	-1.336774624	 0.120849
H	-0.772733635	-2.0487262283	-2.5606657495	 0.105506
H	-0.5267489338	-3.9420980423	-1.2077468449	 0.084659
H	 0.4418410626	-4.0064140932	 0.8990656538	 0.082491
H	 0.140695336	-2.2421644677	 2.4862337231	 0.083604
H	 1.4785272734	-1.652427205	 1.5238461461	 0.116207
H	-1.4432867631	-0.8837666456	 1.0706881739	 0.076117
H	-0.5490301634	-0.1287913178	 3.0728969027	 0.280294
66.8588	135.2924	188.366	218.7543	275.1024	302.0368	311.0914	347.778	388.0939	431.1022	478.3309	573.51	647.2424	655.5605	731.8585	781.1772	839.1499	881.4258	921.3901	967.0042	998.6277	1011.7856	1017.2347	1059.3183	1077.1027	1093.422	1112.8163	1178.8124	1200.9946	1218.5576	1259.7843	1274.2051	1336.5942	1356.6215	1369.3792	1377.3639	1412.2394	1424.9979	1442.7826	1470.4745	1472.1435	1474.7038	1489.8494	1733.6642	1742.9013	2947.3054	2959.6137	2983.535	3025.4495	3033.005	3055.1232	3087.1128	3117.9962	3124.2222	3148.5642	3151.7478	3826.0158
CC1=CCC=CCC1O	CC1=CCC=CC[C@H]1O	
InChI=1S/C8H12O/c1-7-5-3-2-4-6-8(7)9/h2,4-5,8-9H,3,6H2,1H3	InChI=1S/C8H12O/c1-7-5-3-2-4-6-8(7)9/h2,4-5,8-9H,3,6H2,1H3/t8-/m1/s1
