18
gdb 16985	3.81974	2.16575	2.05023	1.8651	71.26	-0.2363	0.0592	0.2954	760.9099	0.156464	-347.693944	-347.687999	-347.687055	-347.723505	25.56	
C	 0.0396016029	 1.6026165598	-0.290292397	-0.181168
O	 1.4607578085	 1.4600109268	 0.1183543346	-0.361742
C	 1.0219879109	 0.3085985376	 0.9051834635	 0.425195
C	 1.1345918805	-1.2481675314	 1.0578141161	-0.320435
C	-0.470905985	-1.0485877882	 1.0936773056	-0.083084
C	-0.6685942546	-0.3254946904	 2.4311648549	-0.199818
C	 0.4926402691	 0.7019406855	 2.3099429734	-0.256805
C	-0.16168664	 0.0826848063	 0.0302524267	-0.027923
H	-0.4770455151	 2.3318717619	 0.3400230672	 0.112147
H	-0.0401599415	 1.8839232947	-1.342761656	 0.115588
H	 1.4680952065	-1.7657793443	 0.1589026065	 0.114266
H	 1.6023654559	-1.6687743557	 1.9543438042	 0.094727
H	-1.1297494765	-1.8841145014	 0.8549595872	 0.073436
H	-1.6494327868	 0.1525265371	 2.5030036131	 0.101151
H	-0.5617780461	-1.0033740041	 3.2828457661	 0.099265
H	 1.2667606767	 0.5700089143	 3.0706446666	 0.100654
H	 0.1563367445	 1.7387749206	 2.3568763779	 0.102758
H	 0.1688088299	-0.4310655793	-0.8760321907	 0.091788
224.4198	334.7417	378.6074	423.0959	490.6636	551.0432	620.8548	655.0201	749.5215	811.1767	831.4611	843.3677	876.5228	923.3986	952.721	960.2691	974.6627	995.204	1039.4962	1043.2389	1069.6832	1121.5564	1129.9569	1135.0032	1154.2867	1190.699	1212.1134	1230.369	1248.8945	1263.4174	1281.903	1315.2666	1332.0347	1425.6044	1488.9005	1493.3639	1505.6085	1525.6319	3048.1035	3052.6775	3053.6867	3061.3756	3069.2041	3093.3139	3110.7713	3116.2922	3123.0469	3147.4096
C1OC23CC(CC2)C13	C1O[C@@]23C[C@@H](CC2)[C@@H]13	
InChI=1S/C7H10O/c1-2-7-3-5(1)6(7)4-8-7/h5-6H,1-4H2	InChI=1S/C7H10O/c1-2-7-3-5(1)6(7)4-8-7/h5-6H,1-4H2/t5-,6-,7-/m1/s1
