17
gdb 91998	2.7796	1.54641	1.25729	2.4176	71.6	-0.2478	0.0193	0.2672	1017.9339	0.137842	-417.998031	-417.990335	-417.989391	-418.030129	29.811	
O	-0.0952157076	 1.1457832084	 1.2380323408	-0.411247
C	-0.0197537948	 0.1286308244	 0.2586311487	 0.05826
C	 0.8792847595	-1.0039975255	 0.7926828198	-0.169919
N	 0.0401103924	-2.0371695283	 1.425041198	-0.102567
C	-0.9245912726	-1.5111238135	 2.4080485041	-0.245886
C	-1.3489250889	-1.7856345914	 1.0120308108	-0.038948
C	-1.3825786845	-0.613922736	 0.0274448764	-0.180176
C	-2.5218812212	 0.2843265024	 0.1684624389	 0.266253
N	-3.3908735044	 1.0382306989	 0.2865196348	-0.330171
H	-0.754636269	 1.7953726828	 0.9644328319	 0.301395
H	 0.3517007262	 0.5360469733	-0.6906274048	 0.092097
H	 1.416890691	-1.4764753375	-0.0359116963	 0.114671
H	 1.612974855	-0.6075475595	 1.4987960293	 0.133302
H	-1.1938963478	-2.2192275287	 3.1858207641	 0.122718
H	-0.8336321205	-0.4772441224	 2.7220256037	 0.149537
H	-1.9640122697	-2.647948318	 0.774706726	 0.108682
H	-1.3924048731	-1.0157978795	-0.9928217761	 0.131998
108.4264	138.5007	205.9619	300.4841	372.4631	386.4757	408.5774	413.3635	517.8038	571.2821	677.8022	739.7378	793.248	810.72	870.7173	895.4158	965.7354	975.2673	1009.653	1037.3352	1052.915	1115.5908	1128.699	1135.1129	1177.7054	1218.2186	1246.7465	1263.274	1283.1411	1319.4073	1342.2907	1349.8901	1390.477	1421.4602	1483.7271	1505.8614	2351.7703	3014.3458	3044.2495	3055.7555	3113.5355	3125.8576	3158.2883	3224.8279	3783.7395
OC1CN2CC2C1C#N	O[C@H]1CN2C[C@H]2[C@H]1C#N	
InChI=1S/C6H8N2O/c7-1-4-5-2-8(5)3-6(4)9/h4-6,9H,2-3H2	InChI=1S/C6H8N2O/c7-1-4-5-2-8(5)3-6(4)9/h4-6,9H,2-3H2/t4-,5+,6+,8?/m1/s1
