17
gdb 6339	5.39566	1.07121	0.9045	5.4887	67.3	-0.245	0.0108	0.2559	1259.4282	0.142265	-397.237683	-397.228588	-397.227643	-397.271882	32.377	
C	 0.0538699214	 1.6012153423	-0.1412248073	-0.365655
C	 0.0955861827	 0.0918237842	 0.0802224337	-0.274815
C	 0.7862006246	-0.317035577	 1.3671000764	 0.395573
N	 1.2789763704	 0.5361634379	 2.1626042792	-0.503016
N	 0.8016466619	-1.7230330726	 1.5285168918	-0.401098
C	 1.3328102766	-2.4209181277	 2.6027779839	 0.476508
N	 1.1862372708	-3.794133639	 2.4915847169	-0.563361
O	 1.8429587808	-1.8961402313	 3.5741213809	-0.375093
H	 1.0633984071	 2.016252783	-0.1747363562	 0.136567
H	-0.4546071105	 1.8331688318	-1.0817274694	 0.102194
H	-0.4726629928	 2.0987581643	 0.6759253229	 0.136996
H	-0.924304159	-0.319981966	 0.0901338148	 0.111164
H	 0.605771771	-0.4036979331	-0.758394738	 0.110425
H	 1.6913857429	 0.0731277343	 2.9735357998	 0.250122
H	 0.3000189278	-2.2546598794	 0.8343898699	 0.244266
H	 1.1783480478	-4.2119655639	 1.5737470738	 0.251271
H	 1.7266313166	-4.3002050678	 3.1766865168	 0.26795
57.74	83.8486	109.0646	170.2309	216.5052	305.6031	353.7799	356.3963	425.2954	494.9969	530.8719	548.2366	584.4867	697.779	771.5254	811.8177	903.7215	943.3739	973.1856	1030.0334	1099.6539	1107.4983	1117.3888	1120.271	1286.5653	1291.941	1341.7071	1412.4869	1415.38	1472.122	1487.9159	1499.5102	1518.5731	1628.5032	1741.5031	1812.6098	3002.1033	3028.5401	3053.3046	3125.4881	3138.7432	3481.2809	3578.4444	3622.8173	3694.4365
CCC(=N)NC(N)=O	CCC(=N)NC(=O)N	
InChI=1S/C4H9N3O/c1-2-3(5)7-4(6)8/h2H2,1H3,(H4,5,6,7,8)	InChI=1S/C4H9N3O/c1-2-3(5)7-4(6)8/h2H2,1H3,(H4,5,6,7,8)
