14
gdb 129354	4.63343	0.90941	0.80611	3.1512	65.84	-0.2819	-0.0493	0.2326	1337.6112	0.10009	-469.968373	-469.960302	-469.959357	-470.002779	27.718	
N	-0.4087624694	 0.9783846581	-0.6488229032	-0.427199
C	-0.5587605681	-0.0679076651	 0.0329087288	 0.131786
O	-0.4396894905	-1.2793322571	-0.5679666542	-0.172381
C	-0.7960735875	-2.4102846433	 0.2050512031	-0.207049
C	-2.2496963003	-2.7278987696	 0.0498903935	 0.38757
C	-3.2246688484	-2.2069974488	-0.7437167985	-0.195425
N	-4.3741821199	-2.9062421615	-0.4556745396	-0.096976
N	-4.1744388929	-3.7781287232	 0.4169675468	-0.004542
O	-2.7663722856	-3.6999109665	 0.790518637	-0.223917
H	-0.4954616598	 1.8015785575	-0.0567505376	 0.239164
H	-0.7683668677	-0.1353387891	 1.1093051967	 0.09876
H	-0.1881492208	-3.2447232182	-0.1583543247	 0.162527
H	-0.5554825843	-2.2675468369	 1.2675344337	 0.14172
H	-3.1897313147	-1.4176429663	-1.4732348119	 0.165962
46.6478	55.0261	104.5547	199.6303	237.1243	350.274	393.455	558.3638	651.279	660.5376	698.4832	721.359	824.3134	835.0545	959.7231	983.6633	1038.6502	1044.0899	1048.0738	1115.7784	1150.1042	1234.0522	1236.6893	1321.9831	1345.7105	1408.5355	1430.4878	1475.5901	1485.229	1603.8478	1753.2221	3018.0003	3028.1234	3085.123	3306.6417	3525.0959
N=COCC1=CN=NO1	[NH][CH]OCc1cnno1	
InChI=1S/C4H5N3O2/c5-3-8-2-4-1-6-7-9-4/h1,3,5H,2H2	InChI=1S/C4H5N3O2/c5-3-8-2-4-1-6-7-9-4/h1,3,5H,2H2
