18
gdb 93934	3.2008	1.15266	1.00779	4.4428	68.41	-0.2344	0.02	0.2544	1229.1309	0.147425	-476.25784	-476.248828	-476.247884	-476.292592	32.775	
C	-0.275912431	 1.2789654068	-0.0956820895	-0.412877
C	 0.1258900792	-0.1825794039	-0.0682805438	 0.118473
C	 1.0542509481	-0.6486960315	-1.1894884323	-0.098569
O	 1.7428936777	-1.751079859	-0.6000294418	-0.284761
C	 1.7327722804	-1.5622808663	 0.8101771555	 0.124004
O	 0.9362572043	-0.4301965796	 1.0844208519	-0.262586
C	 1.1815965001	-2.8101446125	 1.5402198898	 0.358395
N	 0.4888620691	-3.6703733459	 0.7459693222	-0.518263
O	 1.340745672	-2.9393872168	 2.7354846413	-0.355829
H	 0.6101182209	 1.9199887043	-0.1178880474	 0.129751
H	-0.8870890061	 1.4894465972	-0.9789603723	 0.121312
H	-0.8612947501	 1.5296810818	 0.7923981775	 0.140113
H	-0.7672580356	-0.8258474626	-0.0387270685	 0.083035
H	 0.5327892313	-1.0019283299	-2.0826074333	 0.114754
H	 1.7617331954	 0.1438330722	-1.4718955518	 0.105224
H	 2.7411796187	-1.3669601797	 1.1952643483	 0.109193
H	 0.5965522695	-3.5917635661	-0.2516466169	 0.267429
H	 0.187968066	-4.5443511184	 1.1465800113	 0.261201
38.4743	61.5942	142.9742	214.6261	224.5092	306.4693	325.1989	407.1195	447.7205	472.1263	526.8856	601.4682	642.7407	710.4765	785.1247	865.2856	904.7382	913.9275	958.3034	985.8555	1036.6082	1098.0301	1102.7467	1138.1514	1158.5852	1170.7206	1238.2335	1306.9987	1348.3002	1356.0775	1367.44	1378.2352	1407.0369	1418.4716	1484.8796	1498.4919	1516.149	1590.9285	1819.5821	2983.9236	3009.6373	3039.3101	3045.16	3100.2442	3118.2971	3127.8917	3590.0379	3726.3641
CC1COC(O1)C(N)=O	C[C@H]1CO[C@@H](O1)C(=O)N	
InChI=1S/C5H9NO3/c1-3-2-8-5(9-3)4(6)7/h3,5H,2H2,1H3,(H2,6,7)	InChI=1S/C5H9NO3/c1-3-2-8-5(9-3)4(6)7/h3,5H,2H2,1H3,(H2,6,7)/t3-,5-/m0/s1
