19
gdb 48953	3.09971	1.63063	1.39133	2.7639	79.54	-0.2438	-0.0261	0.2177	982.9149	0.161427	-385.87045	-385.863449	-385.862505	-385.901872	28.5	
O	-0.0738228533	-0.0014320515	-0.1952544434	-0.26068
C	 0.032813617	 1.1399805976	 0.1906939658	 0.037286
C	 1.2779640828	 1.9417470014	 0.1358513391	 0.273884
C	 1.5621330586	 3.1691795044	 1.0202540888	-0.303069
C	 2.5939707777	 3.5190795138	-0.0807055718	-0.050313
C	 3.6225823775	 2.3783302758	 0.0976025182	-0.212561
C	 2.6454973624	 1.2502961884	-0.2952306138	-0.078262
C	 2.3301693434	 1.621147346	-1.769279956	-0.242147
C	 1.6310649724	 2.8295893626	-1.1395043765	-0.058219
H	-0.8493271016	 1.6848826404	 0.6024465586	 0.065837
H	 0.7023033818	 3.8464877623	 1.0260836161	 0.10014
H	 1.9275092627	 3.0237626802	 2.0420838769	 0.096624
H	 2.9619944942	 4.5352919946	-0.2170273191	 0.067578
H	 4.4783833306	 2.4355292612	-0.5809050618	 0.096749
H	 3.9949726079	 2.3167279898	 1.1240383239	 0.095834
H	 2.864277102	 0.2261994318	-0.0004620796	 0.080212
H	 3.1745630591	 1.7849692787	-2.4463150921	 0.090979
H	 1.60850763	 0.9387527211	-2.2228836705	 0.122533
H	 0.8882095347	 3.4510062614	-1.6387114629	 0.077595
90.4624	182.913	229.9959	401.453	429.9963	449.0097	487.4055	634.3893	669.6384	724.8612	809.5456	831.6571	834.3857	879.3912	912.4106	935.9346	952.395	977.9648	984.9207	997.0117	1024.0757	1057.4834	1072.1325	1094.1942	1121.5305	1147.4121	1164.5058	1191.9427	1208.0158	1235.8008	1244.1733	1250.8097	1263.7037	1307.9641	1310.761	1323.905	1427.602	1485.5422	1497.299	1515.6401	1797.8042	2852.8937	3039.258	3049.0408	3055.3204	3095.1449	3100.7679	3116.4868	3122.2691	3126.8139	3142.3896
O=CC12CC3CC1CC23	O=C[C@@]12C[C@H]3C[C@@H]1C[C@@H]23	
InChI=1S/C8H10O/c9-4-8-3-5-1-6(8)2-7(5)8/h4-7H,1-3H2	InChI=1S/C8H10O/c9-4-8-3-5-1-6(8)2-7(5)8/h4-7H,1-3H2/t5-,6-,7-,8+/m1/s1
