19
gdb 39161	3.09979	1.68419	1.25516	1.4041	81.55	-0.2128	0.0186	0.2314	1024.9797	0.161674	-385.882834	-385.875685	-385.874741	-385.914236	29.103	
C	-0.0716868478	 1.5026536452	 0.0017148836	-0.386049
C	 1.2798984304	 0.8387875935	 0.0273179231	 0.059773
O	 1.9033093333	 0.6552584128	 1.2822996058	-0.27628
C	 1.0230593857	-0.0865089838	 2.1489263812	-0.206759
C	 0.0487617041	-0.7552627608	 1.2263972743	 0.315152
C	-0.6447521425	-1.8883697744	 1.1522742814	-0.254745
C	-1.2893113573	-2.035111552	-0.2167644001	-0.248089
C	-0.5529418422	-0.9682617642	-1.0925264028	-0.339028
C	 0.0460752627	-0.0162081336	-0.0626788443	 0.258032
H	-0.450774003	 1.9860077726	 0.8971175043	 0.113573
H	-0.3498556747	 1.9928249916	-0.9268169575	 0.112671
H	 2.0026357804	 0.9880474803	-0.7667689344	 0.103406
H	 1.6288738573	-0.7823743021	 2.7370936141	 0.123929
H	 0.5246325908	 0.6003983095	 2.8497490938	 0.109419
H	-0.7404877923	-2.6365567489	 1.9307243116	 0.092405
H	-1.1749381433	-3.047234938	-0.6204724296	 0.104264
H	-2.3706655053	-1.8433106791	-0.1746985027	 0.107853
H	 0.2360194975	-1.4522214973	-1.6789854611	 0.108704
H	-1.2242880437	-0.4672852512	-1.7943170908	 0.101768
107.3123	215.0106	245.4694	280.5956	383.2439	431.3514	527.4973	577.5487	679.9238	697.5931	744.3592	809.613	832.8197	849.4451	873.1014	902.2312	923.8523	969.6512	985.7516	1008.6432	1014.9817	1025.2619	1063.8952	1079.2752	1102.2881	1134.478	1177.2164	1202.1847	1226.2396	1244.9317	1267.1953	1294.4083	1320.8505	1336.9445	1365.6434	1398.2203	1476.22	1482.8879	1499.4892	1509.8608	1738.9282	2984.368	3008.1952	3039.3436	3060.318	3074.9764	3097.7383	3115.9553	3178.0932	3196.7089	3204.5781
C1C2OCC3=CCCC123	C1[C@H]2OCC3=CCC[C@]123	
InChI=1S/C8H10O/c1-2-6-5-9-7-4-8(6,7)3-1/h2,7H,1,3-5H2	InChI=1S/C8H10O/c1-2-6-5-9-7-4-8(6,7)3-1/h2,7H,1,3-5H2/t7-,8-/m1/s1
