21
gdb 40795	3.74344	1.08594	0.90032	0.9812	84.4	-0.2408	0.026	0.2668	1337.3708	0.183679	-387.083285	-387.074931	-387.073987	-387.116562	32.421	
C	-0.1710546653	 1.3958351416	-0.1721111578	-0.272699
C	 1.2531926606	 1.0039208535	 0.1321029776	-0.273055
C	 0.1859483473	-0.0533229498	 0.0499776862	 0.020557
C	-0.2825972824	-0.7587696411	 1.2950795936	 0.114781
C	-1.6942739414	-1.347699933	 1.1565733777	-0.255496
C	-1.9884053769	-2.2924286642	 2.2914474166	-0.07174
C	-1.01760001	-2.7704035147	 3.065105838	-0.063789
C	 0.4266911166	-2.4322656972	 2.8210985415	-0.115564
O	 0.6537250486	-1.7959187118	 1.5795258439	-0.266014
H	-0.7316897334	 1.9060217802	 0.6047677781	 0.10964
H	-0.4198812148	 1.7153013676	-1.1777954258	 0.111128
H	 1.9852396165	 1.055394147	-0.6658492991	 0.111935
H	 1.6484182381	 1.2451743124	 1.113138037	 0.113021
H	 0.2032354584	-0.6910258386	-0.8298846797	 0.086081
H	-0.2873481705	-0.0388385688	 2.1335006846	 0.055871
H	-2.4284425552	-0.5326205385	 1.1354148827	 0.104731
H	-1.7859307525	-1.8659030244	 0.1913344055	 0.108678
H	-3.024613856	-2.5682389363	 2.4689615213	 0.087187
H	-1.2307251246	-3.4245156013	 3.906525651	 0.08845
H	 0.8105723991	-1.8095916392	 3.6519505207	 0.092082
H	 1.0361252976	-3.3445115733	 2.8095057363	 0.114214
72.3805	106.3858	160.8259	193.712	291.0659	377.0932	413.4438	433.9002	498.2071	542.6426	668.7443	756.1054	797.1068	828.2294	862.1629	903.6388	924.9045	931.2829	966.6424	976.049	994.6832	1038.226	1045.8997	1060.0286	1075.2146	1084.3993	1119.1568	1136.0922	1178.0129	1196.3227	1207.2152	1225.1502	1235.856	1265.5898	1302.7274	1351.8414	1372.2316	1399.551	1408.846	1439.5345	1468.7317	1470.4738	1488.0134	1507.7128	1728.0321	2921.0285	2937.2069	3007.9682	3042.1581	3048.9689	3129.3923	3135.6231	3144.3497	3149.8638	3173.5673	3208.0461	3223.7122
C1CC1C1CC=CCO1	C1CC1[C@H]1CC=CCO1	
InChI=1S/C8H12O/c1-2-6-9-8(3-1)7-4-5-7/h1-2,7-8H,3-6H2	InChI=1S/C8H12O/c1-2-6-9-8(3-1)7-4-5-7/h1-2,7-8H,3-6H2/t8-/m1/s1
