14
gdb 25272	3.23339	1.79843	1.16417	1.3132	70.31	-0.2092	-0.0323	0.1769	966.3231	0.103503	-436.745224	-436.738685	-436.737741	-436.776257	25.384	
O	-0.0155775892	-0.0329513367	 0.0030967265	-0.343332
C	-0.0130670272	 1.1685527665	 0.0092080974	 0.39391
C	-1.2185930375	 2.1245712225	 0.0320598211	-0.227213
O	-0.6938268173	 3.4616794561	 0.0310280878	-0.276613
C	 0.6554556677	 3.3505574305	 0.0102942789	 0.455629
C	 1.7347443783	 4.1753336491	-0.0016473523	-0.34635
C	 2.8814452792	 3.2897442773	-0.0233135268	-0.116098
C	 2.4635773805	 1.9895625556	-0.0236775101	-0.133249
N	 1.0708280305	 2.0317244794	-0.0026147171	-0.10473
H	-1.8470520761	 1.9738032841	-0.8505502293	 0.159828
H	-1.82045519	 1.964739838	 0.9314524116	 0.159826
H	 1.7387749274	 5.2520332517	 0.0037712653	 0.118027
H	 3.9123990922	 3.6111862495	-0.0371026249	 0.113361
H	 2.9896154816	 1.0512680164	-0.036322268	 0.147004
140.0201	159.0426	297.0111	307.9496	548.6691	560.5864	607.3278	643.5542	655.8347	685.7065	711.5806	734.2123	765.7445	861.3246	914.4939	1008.6165	1020.5183	1024.6036	1054.9043	1092.2722	1163.2752	1198.4419	1256.3962	1295.2549	1330.7632	1414.7879	1451.4925	1479.5845	1531.1993	1659.7857	1861.6858	3062.9312	3110.9389	3246.1599	3277.4802	3298.2516
O=C1COC2=CC=CN12	O=C1COc2cccn12	
InChI=1S/C6H5NO2/c8-5-4-9-6-2-1-3-7(5)6/h1-3H,4H2	InChI=1S/C6H5NO2/c8-5-4-9-6-2-1-3-7(5)6/h1-3H,4H2
