21
gdb 58121	3.01969	1.02517	0.93435	1.4111	80.42	-0.2606	0.0438	0.3044	1351.3034	0.177771	-424.19839	-424.187379	-424.186434	-424.233767	41.321	
C	 0.1134754987	 1.51464222	-0.1277645323	-0.432036
C	-0.0049429239	 0.0046172224	 0.05953674	 0.120048
O	 0.7360759025	-0.4502495655	 1.1889533898	-0.436876
C	-1.4675936509	-0.5073641029	 0.1157785915	 0.342725
C	-2.2585624922	 0.0867199156	 1.2889103838	-0.443114
O	-2.0406423119	-0.1141439089	-1.1263815841	-0.47343
C	-1.4358191956	-2.0611425242	 0.2087000371	-0.377049
C	-2.7577677652	-2.6448587986	 0.0216275125	 0.267448
C	-3.8679412944	-3.0695764884	-0.1682998607	-0.430848
H	 1.1624293298	 1.7880879013	-0.2711855262	 0.121241
H	-0.4631180876	 1.8396401735	-0.9960356706	 0.146233
H	-0.2596894537	 2.0565400313	 0.7496141094	 0.105883
H	 0.4566972228	-0.4889973577	-0.803827455	 0.09328
H	 0.5730506707	 0.1611902211	 1.9145752208	 0.282032
H	-2.3862265727	 1.1637362993	 1.1587539893	 0.124218
H	-3.2514902335	-0.3690180637	 1.3442503148	 0.127894
H	-1.7559671968	-0.1007152098	 2.2436927463	 0.106445
H	-2.8822037763	-0.5790489204	-1.2148910005	 0.282873
H	-0.7624606559	-2.4396791077	-0.5695432802	 0.132713
H	-1.0075327412	-2.359571746	 1.170064571	 0.142471
H	-4.8358211925	-3.4797903205	-0.3196339068	 0.197849
73.3567	83.1264	127.186	217.8781	225.4429	251.2205	283.0198	289.9038	321.7409	339.6553	348.6566	372.9024	403.5299	427.8259	479.3292	514.1221	618.4131	624.6455	654.4028	755.3719	859.2128	889.5177	933.6416	955.361	974.5363	1030.9459	1072.6799	1106.747	1116.3933	1146.5205	1208.0818	1262.2696	1296.5096	1299.6902	1368.0822	1394.1972	1401.0577	1405.4106	1413.3055	1460.0954	1487.7568	1495.466	1498.9188	1506.1933	2226.5992	3031.4454	3037.5417	3041.43	3044.4626	3091.7696	3103.5845	3108.3801	3127.8757	3140.5101	3503.6056	3768.9452	3811.8324
CC(O)C(C)(O)CC#C	C[C@@H](O)[C@@](C)(O)CC#C	
InChI=1S/C7H12O2/c1-4-5-7(3,9)6(2)8/h1,6,8-9H,5H2,2-3H3	InChI=1S/C7H12O2/c1-4-5-7(3,9)6(2)8/h1,6,8-9H,5H2,2-3H3/t6-,7+/m1/s1
