18
gdb 39919	3.25747	1.61317	1.40927	1.0502	76.68	-0.2364	-0.0005	0.2359	968.8015	0.150191	-401.900378	-401.893563	-401.892619	-401.931316	28.325	
C	-0.0458785232	 1.509627972	-0.0225732719	-0.291432
N	 1.2400825071	 0.7984823249	 0.0518350786	-0.367695
C	-0.0189326947	 0.0229579649	-0.0015631644	 0.353323
C	-0.3819662062	-0.7582809637	 1.2170223264	-0.109444
C	-0.978635697	-1.9394080763	 1.0438485702	-0.082039
C	-1.2189333184	-2.3584820111	-0.3937212119	 0.03332
C	 0.0997191195	-2.2149518533	-1.1964832894	-0.255802
C	-0.379811124	-0.7468856991	-1.2651260303	-0.026617
O	-1.7529004771	-1.2091132852	-1.131387687	-0.290043
H	-0.316176302	 2.0585798844	 0.8752297207	 0.121878
H	-0.3307520284	 1.9948007941	-0.9533606611	 0.116296
H	 1.6873717526	 0.7896279148	-0.8635112601	 0.23089
H	-0.1427194581	-0.3397428522	 2.1890643977	 0.103036
H	-1.2679255307	-2.585143865	 1.8654341441	 0.097309
H	-1.8381448424	-3.2491541005	-0.5112902049	 0.079476
H	 1.0407453596	-2.4466010056	-0.6956559536	 0.110915
H	 0.0396952023	-2.694795821	-2.1746124431	 0.108819
H	-0.212623709	-0.1637534221	-2.1770471101	 0.06781
123.4862	248.4421	307.4938	379.1833	426.1701	445.2076	450.5243	606.1498	657.6322	727.504	753.1689	855.7525	870.5258	882.8477	904.2519	925.3025	948.3422	950.4191	968.3105	971.6782	985.0363	1018.7224	1066.6809	1090.7258	1109.3724	1138.6759	1162.5477	1199.6387	1247.2892	1252.0073	1293.9077	1298.2557	1314.9129	1350.7955	1367.7745	1427.0149	1485.3069	1509.0224	1683.1493	3051.6803	3077.8889	3102.2458	3103.3572	3144.3167	3178.1108	3190.1422	3200.7816	3474.4162
C1NC11C=CC2CC1O2	C1N[C@]21C=C[C@@H]1C[C@H]2O1	
InChI=1S/C7H9NO/c1-2-7(4-8-7)6-3-5(1)9-6/h1-2,5-6,8H,3-4H2	InChI=1S/C7H9NO/c1-2-7(4-8-7)6-3-5(1)9-6/h1-2,5-6,8H,3-4H2/t5-,6-,7+/m1/s1
