17
gdb 54925	5.18135	0.83939	0.81642	6.3356	74.06	-0.261	0.0066	0.2676	1391.4976	0.136583	-418.050247	-418.041177	-418.040233	-418.085565	32.265	
N	-0.0509238052	 1.2562686527	 0.525802387	-0.537738
C	-0.0180457866	 0.1487773541	-0.2654049215	 0.433356
O	 0.9648424304	-0.1597332439	-0.9178221681	-0.372599
C	-1.2903012853	-0.682796984	-0.2894819172	-0.130829
C	-1.7486143036	-1.0005852058	-1.7480191437	-0.233702
C	-1.0420917636	-2.3876879596	-1.6418082125	-0.121363
C	-0.9961414834	-2.20321003	-0.0931751684	-0.233742
C	-1.7349648111	-3.5486206399	-2.1709245082	 0.260815
N	-2.3072663161	-4.4672703362	-2.5786984113	-0.32781
H	 0.771887078	 1.8353883586	 0.5731920645	 0.265249
H	-0.8553036335	 1.509919793	 1.0707346102	 0.263105
H	-2.0609719893	-0.2665216795	 0.362657871	 0.072978
H	-2.8331751351	-1.0989915287	-1.8174181063	 0.12373
H	-1.3859348565	-0.339821329	-2.5355740578	 0.131811
H	-0.0345784061	-2.3287339779	-2.0563327862	 0.151123
H	-0.0546564633	-2.4655479815	 0.3895160216	 0.132109
H	-1.8228485498	-2.7132765123	 0.4038859666	 0.123509
22.2768	66.3793	141.8173	177.776	205.7279	261.7999	290.8752	372.6722	543.353	547.3835	568.7604	593.4881	669.4631	763.9817	771.9607	836.626	879.0992	943.3628	987.8806	999.0386	1053.6289	1082.8236	1095.1073	1108.4162	1195.341	1215.8171	1260.5787	1263.8074	1275.6141	1287.8687	1342.9641	1420.7906	1467.2999	1486.583	1618.1956	1781.4541	2352.2228	3075.0428	3083.1565	3089.5494	3109.2136	3148.0356	3150.511	3603.0026	3742.2402
NC(=O)C1CC(C1)C#N	NC(=O)[C@H]1C[C@@H](C1)C#N	
InChI=1S/C6H8N2O/c7-3-4-1-5(2-4)6(8)9/h4-5H,1-2H2,(H2,8,9)	InChI=1S/C6H8N2O/c7-3-4-1-5(2-4)6(8)9/h4-5H,1-2H2,(H2,8,9)/t4-,5-
