18
gdb 113181	2.69348	1.13791	1.06769	3.0357	69.69	-0.2398	0.0332	0.2731	1225.6207	0.145195	-476.229008	-476.219162	-476.218217	-476.263866	35.85	
C	-0.4820121694	 0.9711895899	-0.244940813	-0.249462
O	 0.3661542577	-0.1270279364	 0.0695379218	-0.252681
C	 0.9686779039	-0.6781667976	-1.062499542	 0.057219
C	 1.6479574205	-1.995205017	-0.8913158937	-0.371887
C	 0.3007362796	-1.9426491365	-1.5932143073	 0.286814
O	-0.8327121833	-2.3908643261	-0.9068222416	-0.495042
C	 0.2680519015	-2.1337318873	-3.0789455222	 0.360289
N	-0.8946147483	-2.6504716414	-3.5504524384	-0.540381
O	 1.2168356356	-1.8191374824	-3.7797363861	-0.390978
H	 0.0883550739	 1.7887196527	-0.7056419126	 0.126294
H	-1.2891690804	 0.6770794423	-0.9291383183	 0.121282
H	-0.9116786138	 1.3204339683	 0.6961546496	 0.134969
H	 1.3685567085	 0.0316106151	-1.7833529807	 0.117112
H	 2.5198877624	-2.1882116008	-1.5043178558	 0.146389
H	 1.6381456118	-2.4322044781	 0.1011266289	 0.125595
H	-0.9453171843	-1.7930547126	-0.1536506243	 0.291447
H	-1.6244049208	-2.9126423959	-2.910514845	 0.272898
H	-0.9845159152	-2.8255980363	-4.5365289894	 0.260124
65.7884	94.0617	116.2999	175.4723	224.3931	231.0344	284.7079	328.8084	355.3673	427.0879	453.2699	487.3763	520.6644	607.217	627.6214	722.0929	746.3699	825.5809	885.5343	906.9863	1011.7728	1059.545	1071.6454	1093.4863	1123.2844	1147.0013	1181.7391	1183.7047	1244.0014	1289.0595	1318.5099	1372.915	1435.6756	1456.5241	1485.3746	1488.1121	1507.8497	1597.3326	1782.5563	3000.896	3059.6018	3129.0762	3136.8349	3142.0163	3245.1389	3607.1202	3727.4592	3749.1888
COC1CC1(O)C(N)=O	CO[C@H]1C[C@]1(O)C(=O)N	
InChI=1S/C5H9NO3/c1-9-3-2-5(3,8)4(6)7/h3,8H,2H2,1H3,(H2,6,7)	InChI=1S/C5H9NO3/c1-9-3-2-5(3,8)4(6)7/h3,8H,2H2,1H3,(H2,6,7)/t3-,5+/m0/s1
