18
gdb 92926	2.92131	1.21587	0.90984	2.6503	73.6	-0.2455	-0.0261	0.2194	1262.3007	0.147274	-439.115379	-439.106808	-439.105864	-439.149134	31.355	
C	 0.2389080547	 1.5395428729	 0.0841357483	-0.403133
C	 0.0840008755	 0.0370966331	-0.0743830118	 0.12697
C	 0.9778546336	-0.5723271431	-1.149228698	-0.227157
C	 0.8651763841	-2.0970977653	-1.0903857998	-0.068387
C	 1.9067819394	-2.8035674778	-1.95240649	 0.154577
O	 2.502671888	-2.2812195596	-2.8576724244	-0.248691
N	 0.9610430496	-2.6385470418	 0.2609652206	-0.292473
C	 0.7507751025	-1.8487168926	 1.2278428217	 0.136016
O	 0.38437525	-0.550791972	 1.2161948792	-0.237843
H	 1.2784712797	 1.7972370248	 0.3072932071	 0.130659
H	-0.0551042143	 2.0466897313	-0.8395171009	 0.124402
H	-0.3911898985	 1.9066153191	 0.8985042092	 0.131096
H	-0.965763518	-0.2055398772	-0.2914163356	 0.091536
H	 0.6989992695	-0.1938338194	-2.1358874444	 0.12212
H	 2.0183210613	-0.2768302608	-0.9742329762	 0.121179
H	-0.1039021577	-2.4171110525	-1.5127835928	 0.11178
H	 2.0638969494	-3.8663563571	-1.6688568779	 0.097698
H	 0.8636600214	-2.193172512	 2.2545003457	 0.129652
61.6701	124.7228	140.076	191.4324	232.7501	314.5399	350.4083	430.7817	459.9366	494.2657	573.7496	628.2147	774.1418	822.2004	852.024	912.6571	932.6285	970.2547	981.8782	1028.61	1093.9567	1118.513	1146.261	1168.1257	1181.8677	1238.1137	1270.7192	1299.8652	1348.0219	1376.4183	1396.1934	1400.5623	1408.943	1416.7408	1475.4648	1485.9537	1497.8073	1726.9251	1834.7806	2912.2778	2953.414	3007.5152	3044.7687	3054.4021	3106.7805	3121.9238	3125.3646	3157.2934
CC1CC(C=O)N=CO1	C[C@H]1C[C@@H](C=O)N=CO1	
InChI=1S/C6H9NO2/c1-5-2-6(3-8)7-4-9-5/h3-6H,2H2,1H3	InChI=1S/C6H9NO2/c1-5-2-6(3-8)7-4-9-5/h3-6H,2H2,1H3/t5-,6-/m0/s1
