15
gdb 35307	5.61464	0.97784	0.91289	3.6023	78.28	-0.2447	-0.0094	0.2354	1232.2346	0.112254	-379.595241	-379.587237	-379.586292	-379.627913	30.251	
C	-0.0777752528	-1.2225863079	-0.1694883443	-0.435256
C	-0.0159740877	-0.0305703676	-0.0308952503	 0.358164
C	 0.0660863996	 1.4127591832	 0.1142378444	-0.195294
N	-0.1111150895	 1.9409610503	 1.5248385681	-0.359772
C	 1.1262112651	 2.7442669492	 1.3640555511	 0.258807
C	 2.2814092969	 1.7880309575	 1.2296020283	-0.307103
C	 1.4473748513	 2.0896923633	 0.0175863711	-0.138087
C	 1.2274966036	 4.1009519377	 1.7833417486	 0.179526
N	 1.2883333214	 5.205536587	 2.1251886982	-0.34361
H	-0.1339849385	-2.2770404949	-0.2849721976	 0.205839
H	-0.630679332	 1.8985517798	-0.5773088984	 0.119892
H	-0.9338376852	 2.534287505	 1.5745505827	 0.240974
H	 3.2675411332	 2.2388214053	 1.2230033513	 0.14309
H	 2.197963581	 0.831562085	 1.7360718088	 0.146092
H	 1.8577099936	 2.5245392469	-0.8833580819	 0.126737
79.6659	112.8527	180.7194	215.0657	321.2976	404.1362	472.5802	508.8296	555.2454	583.3855	624.9468	639.4328	665.6065	699.3079	823.4189	843.8326	890.5912	919.6527	964.2265	989.2086	1030.4536	1072.0961	1093.4649	1114.9903	1167.2898	1235.8562	1271.5221	1315.2782	1352.5842	1416.1426	1478.7188	2239.6617	2344.0674	3046.9344	3131.6282	3210.0104	3231.439	3501.9204	3525.5603
C#CC1NC2(CC12)C#N	C#C[C@H]1N[C@]2(C[C@@H]12)C#N	
InChI=1S/C7H6N2/c1-2-6-5-3-7(5,4-8)9-6/h1,5-6,9H,3H2	InChI=1S/C7H6N2/c1-2-6-5-3-7(5,4-8)9-6/h1,5-6,9H,3H2/t5-,6+,7+/m0/s1
