16
gdb 106238	2.7647	1.45356	1.25341	0.7565	63.69	-0.2399	0.0018	0.2417	1029.3092	0.12404	-474.99603	-474.987771	-474.986826	-475.029075	30.522	
O	 0.631052158	 0.2214810784	-0.7581012048	-0.409672
C	-0.2006614721	 0.313876974	 0.3863546574	-0.176088
C	-1.4871343321	-0.4735221001	 0.2394004047	 0.20371
N	-2.4300773774	-0.3660513287	 1.3374682798	-0.328165
C	-2.9859457954	-1.510628953	 1.4368539031	 0.099632
O	-2.5952798723	-2.5033434944	 0.6120984997	-0.195887
C	-1.6416675265	-1.9134495355	-0.2614179476	-0.010594
C	-2.1430070836	-0.7570996645	-1.0966814954	 0.044678
O	-3.4990887017	-0.5511325098	-1.3115342833	-0.428695
H	 0.2915740161	 0.8284868772	-1.422478858	 0.291309
H	 0.3780716504	-0.0910356381	 1.2234547121	 0.122389
H	-0.4479635102	 1.355397578	 0.6357240856	 0.109605
H	-3.7607126088	-1.7806234702	 2.1441688522	 0.151009
H	-0.8681203867	-2.5971601149	-0.5844680891	 0.126088
H	-1.5231320275	-0.5548057765	-1.9663641026	 0.103497
H	-3.8284914503	 0.0147864182	-0.6023099538	 0.297184
62.8556	183.5262	195.2747	225.0171	234.687	264.3554	313.5875	416.5837	500.6322	603.9558	642.7573	701.5679	757.7668	769.0606	896.7675	904.0305	952.496	973.364	1021.7129	1033.5709	1071.5122	1083.9921	1134.4433	1156.7879	1211.4994	1221.6503	1251.1012	1304.0551	1344.7685	1364.0003	1389.8648	1407.0209	1435.9158	1500.9055	1648.5083	3008.1492	3072.4033	3143.9364	3208.5055	3230.5942	3774.2641	3829.6606
OCC12N=COC1C2O	OC[C@]12N=CO[C@H]1[C@H]2O	
InChI=1S/C5H7NO3/c7-1-5-3(8)4(5)9-2-6-5/h2-4,7-8H,1H2	InChI=1S/C5H7NO3/c7-1-5-3(8)4(5)9-2-6-5/h2-4,7-8H,1H2/t3-,4+,5-/m1/s1
