20
gdb 73594	2.1923	1.61538	1.28932	4.3073	83.04	-0.2762	0.0324	0.3087	1097.5814	0.172599	-366.043521	-366.035073	-366.034129	-366.076278	32.65	
C	 0.1334359202	 1.5534080865	-0.075976639	-0.481215
C	-0.0210602165	 0.0590034291	 0.0799128069	 0.322394
C	-1.4093754735	-0.5468775688	-0.1165087443	-0.267778
C	-1.4011557467	-1.9112924888	 0.6154748294	-0.242166
C	-0.2664685717	-1.8184779843	 1.667391301	-0.226644
C	 0.671507161	-0.7378790531	 1.1552016485	-0.081129
C	 1.1785541442	-0.8201979725	-0.2848669263	-0.238257
C	 1.0866463467	-2.0024833105	-1.0923388843	 0.303332
N	 1.0295008059	-2.9491412068	-1.7567262356	-0.361257
H	 1.1514650363	 1.8809854915	 0.1570714857	 0.118553
H	-0.0928574921	 1.8714902604	-1.0997957623	 0.1294
H	-0.5511329043	 2.0838372937	 0.5956712372	 0.123145
H	-2.1362909873	 0.1361456478	 0.3393276512	 0.101747
H	-1.6821777037	-0.6446265416	-1.1724515537	 0.114293
H	-2.3668849609	-2.1300047451	 1.0778365576	 0.100565
H	-1.1970291718	-2.7181051014	-0.0897990287	 0.143208
H	-0.6579651296	-1.4974069169	 2.6395116393	 0.105694
H	 0.2318059363	-2.7804738643	 1.8232799427	 0.116199
H	 1.3482899943	-0.2596662755	 1.8559770171	 0.092663
H	 2.0955540231	-0.2682303995	-0.4701105525	 0.127253
113.7346	139.1567	196.11	206.9177	223.236	314.997	362.4417	382.1538	536.2264	553.2007	579.2973	667.744	717.0573	779.1163	837.1623	847.5127	888.3883	905.0763	944.2462	983.3705	1002.335	1026.1153	1059.176	1081.8597	1116.0903	1124.0219	1179.1863	1198.867	1246.2332	1260.8679	1286.302	1317.4977	1336.1152	1343.1048	1359.1286	1419.2016	1437.3755	1486.5265	1490.2433	1492.4249	1501.1215	1514.4142	2342.4789	3025.9817	3033.6059	3039.671	3074.7486	3077.7141	3080.5158	3089.718	3100.4056	3127.0152	3150.4248	3164.5169
CC12CCCC1C2C#N	C[C@]12CCC[C@H]1[C@H]2C#N	
InChI=1S/C8H11N/c1-8-4-2-3-6(8)7(8)5-9/h6-7H,2-4H2,1H3	InChI=1S/C8H11N/c1-8-4-2-3-6(8)7(8)5-9/h6-7H,2-4H2,1H3/t6-,7+,8-/m0/s1
