19
gdb 26330	3.94527	0.97773	0.81287	1.8084	79.09	-0.2125	0.0214	0.2339	1426.3021	0.158187	-423.06355	-423.05421	-423.053266	-423.098001	34.413	
C	 0.0862010304	 1.427351715	-0.4035471056	-0.39645
C	 0.0287314653	 0.0133308373	 0.183911551	 0.01379
O	 0.4740185097	-0.0020473093	 1.5381740639	-0.42287
C	-1.333588248	-0.6166251208	 0.0574819251	 0.245821
C	-1.9676255772	-1.341762056	 1.0173390088	-0.129578
O	-3.1846045879	-1.7691870669	 0.5771247372	-0.183781
C	-3.3359910741	-1.3132645323	-0.6987580051	 0.381911
C	-4.6059573925	-1.6609516393	-1.3889147061	-0.487704
C	-2.2352451571	-0.6024346207	-1.0648593314	-0.407537
H	 1.0876971154	 1.8436111883	-0.266641788	 0.122996
H	-0.1466357439	 1.4249091444	-1.4728904922	 0.117901
H	-0.6378716404	 2.0823492255	 0.094667169	 0.111634
H	 0.764594263	-0.6084372506	-0.3430243455	 0.104155
H	-0.1495969301	 0.5308596359	 2.0453983923	 0.274978
H	-1.6896515584	-1.6418581169	 2.012861844	 0.138525
H	-5.4761835478	-1.2620700414	-0.8551633722	 0.137914
H	-4.6049150943	-1.2462585422	-2.3992666886	 0.134487
H	-4.7384478386	-2.7462792053	-1.4635340509	 0.139
H	-2.0820791434	-0.1252775147	-2.0206212958	 0.104808
50.4607	116.5564	141.3476	166.78	237.0338	270.9972	315.3239	343.5081	353.9166	461.4778	480.9732	608.639	640.7394	680.5592	719.7574	759.0946	809.7068	894.5485	943.3507	982.9983	1013.8123	1038.0196	1064.3039	1081.5058	1105.8007	1164.7474	1173.6381	1228.5504	1273.8897	1304.3144	1347.3433	1388.484	1401.4451	1416.7009	1422.7248	1473.1129	1489.7329	1491.1743	1493.3141	1582.1108	1654.199	3020.9076	3030.7977	3032.5952	3080.9417	3102.6572	3121.8291	3129.9048	3250.6632	3290.1533	3788.8247
CC(O)C1=COC(C)=C1	C[C@@H](O)c1coc(C)c1	
InChI=1S/C7H10O2/c1-5-3-7(4-9-5)6(2)8/h3-4,6,8H,1-2H3	InChI=1S/C7H10O2/c1-5-3-7(4-9-5)6(2)8/h3-4,6,8H,1-2H3/t6-/m1/s1
