20
gdb 71765	3.14438	1.8172	1.57767	1.7086	80.27	-0.2284	0.0904	0.3188	938.8274	0.174329	-366.009251	-366.002426	-366.001482	-366.039915	28.97	
C	-0.0305302059	 1.4952391539	 0.0013421841	-0.490625
C	 0.0016894361	-0.0136360472	-0.033613571	 0.32826
C	 0.9596023261	-0.710809363	-0.9925826903	-0.303976
C	 0.3631680124	-2.0967787557	-1.159418332	-0.037061
C	 0.015518066	-2.8450437561	 0.0739941516	-0.035992
C	 0.2927686244	-2.1623178805	 1.4025722533	-0.256472
C	-0.3391920275	-0.791928887	 1.2259243005	-0.113013
C	-1.2559287301	-0.8569206309	 0.0216440608	-0.068687
N	-1.0487559425	-2.1269235547	-0.6833333148	-0.126503
H	 0.9193370907	 1.9077040675	 0.3617457793	 0.117348
H	-0.2172594883	 1.9112487064	-0.995533385	 0.117311
H	-0.8195637161	 1.8588674627	 0.6674026551	 0.116796
H	 0.97824471	-0.1846360981	-1.9543659444	 0.10236
H	 1.991141919	-0.7422732031	-0.6195409973	 0.10281
H	 0.5636470999	-2.6422420041	-2.0774260279	 0.085379
H	-0.0349269654	-3.9299567728	 0.0451804721	 0.085331
H	-0.1924883371	-2.7056354993	 2.2209704449	 0.106714
H	 1.3649602966	-2.11794309	 1.629817159	 0.104462
H	-0.6159940452	-0.2204330915	 2.1058860466	 0.079727
H	-2.2592449735	-0.4502625264	-0.0044777144	 0.085831
204.1317	223.9957	262.417	304.8074	433.9811	441.4791	556.5021	678.435	694.9684	722.4734	742.6749	764.8626	800.7511	862.3716	879.216	927.8466	929.178	943.1658	990.0754	1009.6837	1024.9083	1047.9641	1063.4639	1071.5851	1090.2775	1110.9603	1126.5419	1187.3302	1195.463	1211.7285	1222.998	1272.81	1283.4749	1294.5733	1337.1997	1353.8269	1414.1704	1418.8536	1425.303	1485.1009	1490.9823	1495.9384	1504.2548	3020.4418	3025.1646	3030.835	3059.4049	3067.6135	3080.2006	3096.7426	3139.2709	3150.1456	3160.691	3188.1653
CC12CC3C4CC1C2N34	C[C@@]12C[C@H]3[C@H]4C[C@@H]1[C@@H]2N34	
InChI=1S/C8H11N/c1-8-3-6-5-2-4(8)7(8)9(5)6/h4-7H,2-3H2,1H3	InChI=1S/C8H11N/c1-8-3-6-5-2-4(8)7(8)9(5)6/h4-7H,2-3H2,1H3/t4-,5-,6+,7+,8-,9?/m1/s1
