15
gdb 5750	4.93564	1.77827	1.39367	1.4728	68.91	-0.2081	0.0342	0.2422	861.0618	0.121047	-362.657305	-362.650705	-362.64976	-362.688177	25.322	
O	 0.3533178344	 1.322117762	 0.3579050639	-0.419252
C	 0.1034197171	-0.0218139587	 0.0446887372	-0.011695
C	-1.4088736978	-0.5183031659	 0.0471590044	-0.210534
N	-1.1985149357	-0.8607649662	-1.3688479537	 0.026991
C	-1.5573322538	-1.5002766448	-2.5162695123	-0.154336
C	-0.43108265	-1.4592937434	-3.3308227446	-0.125931
C	 0.6378652754	-0.8150525004	-2.6356958324	-0.334936
C	 0.1054624702	-0.461137143	-1.4130641648	 0.273299
H	 0.003373571	 1.8603414564	-0.3611428502	 0.283993
H	 0.7378020036	-0.6084311642	 0.7148338291	 0.110176
H	-1.6275001232	-1.3780351917	 0.6875237168	 0.12601
H	-2.145358873	 0.2730609856	 0.2144003582	 0.120423
H	-2.5445011917	-1.8959413613	-2.6910898376	 0.120257
H	-0.385522098	-1.8442828049	-4.3392097929	 0.095134
H	 1.6377310813	-0.6486561095	-3.0039173813	 0.1004
97.8539	145.1131	282.62	366.9796	454.4997	505.8331	606.1515	658.7337	712.155	755.4703	763.4042	776.1997	834.787	848.7183	933.1962	1003.8074	1022.6568	1058.6881	1092.8905	1137.3748	1149.1451	1203.6884	1232.2856	1255.7639	1292.0625	1311.0486	1398.0559	1420.6214	1461.0049	1470.1214	1515.7503	1568.8706	3047.6633	3078.1887	3106.5277	3236.2952	3259.8882	3270.9	3798.4996
OC1CN2C=CC=C12	O[C@H]1Cn2cccc12	
InChI=1S/C6H7NO/c8-6-4-7-3-1-2-5(6)7/h1-3,6,8H,4H2	InChI=1S/C6H7NO/c8-6-4-7-3-1-2-5(6)7/h1-3,6,8H,4H2/t6-/m0/s1
