21
gdb 116832	10.84208	0.37466	0.36623	0.1306	110.27	-0.2237	0.0012	0.2249	3045.0837	0.180382	-349.928492	-349.917295	-349.916351	-349.966631	38.49	
C	 0.0015662703	 1.5974447592	 0.0106746032	-0.381332
C	 0.0185049426	 0.0678343988	 0.0022695331	-0.155389
C	-1.4039696033	-0.5327401876	 0.0125416628	-0.371544
C	-1.4149400113	-1.9875848366	 0.0047966268	 0.195682
C	-1.4009599682	-3.198742672	-0.0018960419	-0.109041
C	-1.3875078733	-4.5590176441	-0.0092765219	-0.244752
C	-1.3746101839	-5.7701489306	-0.0158599012	 0.292405
C	-1.3813066588	-7.225852629	-0.0235486382	-0.342886
C	-2.8011434672	-7.8246756846	-0.0131901029	-0.365378
H	 1.0178839297	 2.002300583	 0.0031820428	 0.116091
H	-0.5215208685	 1.9946269117	-0.8663896096	 0.116698
H	-0.5046901549	 1.9850997545	 0.9017653636	 0.116698
H	 0.5503866441	-0.300102196	-0.8819161356	 0.112406
H	 0.5670461562	-0.3095574702	 0.8721772742	 0.112405
H	-1.9451366527	-0.1670873757	 0.8964077279	 0.130386
H	-1.9617823895	-0.1576414036	-0.8569016945	 0.130387
H	-0.8378169195	-7.5863517973	-0.9069732383	 0.134005
H	-0.8210899534	-7.5956837335	 0.8454561478	 0.134005
H	-2.750937678	-8.9174759249	-0.0194733376	 0.116109
H	-3.3489744345	-7.5081745277	 0.8781971604	 0.131522
H	-3.3658487458	-7.4987814337	-0.8905538512	 0.131522
30.8868	49.9199	61.6342	110.881	114.2855	212.4055	226.0886	230.6098	286.9208	313.43	388.9313	390.5883	512.9729	555.3766	559.9409	642.8019	743.025	785.6211	871.3833	871.579	912.0479	1008.7118	1044.3658	1081.4176	1101.5435	1105.7393	1121.1235	1258.549	1268.4745	1284.1744	1311.226	1323.0733	1354.6446	1383.4585	1409.9152	1411.6553	1468.5847	1471.0362	1491.2396	1494.7592	1497.1346	1505.2393	1507.9041	2273.8278	2382.8027	3004.9663	3015.2159	3029.9582	3032.2522	3042.5403	3044.3674	3046.143	3075.4627	3101.6071	3106.3138	3120.2002	3127.3878
CCCC#CC#CCC	CCCC#CC#CCC	
InChI=1S/C9H12/c1-3-5-7-9-8-6-4-2/h3-5H2,1-2H3	InChI=1S/C9H12/c1-3-5-7-9-8-6-4-2/h3-5H2,1-2H3
