21
gdb 100755	2.4803	1.11265	0.8056	4.2811	71.59	-0.249	0.0386	0.2877	1425.2648	0.179905	-498.486909	-498.476169	-498.475225	-498.52265	39.647	
C	-0.0442947724	 1.4880861315	-0.2512124871	-0.38565
C	 0.0142357704	 0.0304710354	 0.1854803022	 0.131011
O	 0.4414963392	 0.0180447973	 1.5403426312	-0.452971
C	-1.3523847286	-0.6673207963	 0.0079690481	 0.089604
O	-1.7331958235	-0.4870494828	-1.3419389193	-0.446516
C	-1.3201752343	-2.1701794426	 0.3687121105	 0.064745
O	-0.8401359968	-2.4111813983	 1.6953903563	-0.431248
C	-2.6867875528	-2.857458569	 0.2422682062	-0.111645
O	-3.1049061142	-2.8416264114	-1.1220734783	-0.417089
H	 0.939512934	 1.947915128	-0.1251387921	 0.114763
H	-0.3513542244	 1.5661827635	-1.2948118991	 0.134979
H	-0.7586025211	 2.0384061704	 0.3706472386	 0.111088
H	 0.7351678638	-0.5057970229	-0.4548356028	 0.065132
H	 0.5019856384	-0.9089705144	 1.802397979	 0.282143
H	-2.0672116229	-0.1713196933	 0.6964480398	 0.047614
H	-2.4009912317	-1.1534938695	-1.5580405218	 0.294504
H	-0.6120550455	-2.6734605852	-0.2992968989	 0.11255
H	-1.3606761389	-1.8646301594	 2.2973520656	 0.29067
H	-2.5881743002	-3.8861014061	 0.6130301969	 0.114077
H	-3.4132429091	-2.3319813422	 0.8832614197	 0.090758
H	-4.0165850395	-3.1432467329	-1.1732374648	 0.301482
50.3685	86.1542	147.8007	192.547	212.5925	247.0637	264.7618	274.8953	316.9233	318.6472	377.2149	402.1513	478.162	483.3162	509.0328	546.6329	566.919	658.7754	862.0547	899.2227	960.4211	1012.8608	1058.144	1065.7766	1074.5688	1096.3256	1109.9213	1128.5225	1174.9134	1212.5345	1238.3218	1263.7443	1283.8786	1316.8779	1341.0495	1363.6386	1382.1187	1390.9076	1409.7847	1434.8265	1455.4312	1471.2371	1489.0839	1497.4147	1516.779	2890.1491	2959.0998	2974.0722	3036.3394	3044.6851	3064.5015	3112.4623	3151.2229	3710.1769	3765.1344	3781.959	3834.9985
CC(O)C(O)C(O)CO	C[C@@H](O)[C@@H](O)[C@@H](O)CO	
InChI=1S/C5H12O4/c1-3(7)5(9)4(8)2-6/h3-9H,2H2,1H3	InChI=1S/C5H12O4/c1-3(7)5(9)4(8)2-6/h3-9H,2H2,1H3/t3-,4+,5-/m1/s1
