16
gdb 46753	2.89272	1.8148	1.41176	4.2787	67.17	-0.2343	0.0315	0.2658	919.5452	0.126658	-437.881934	-437.875113	-437.874169	-437.913304	26.751	
O	-0.0167533783	-0.0450594746	 0.0554021088	-0.38768
C	 0.0019595123	 1.1663447014	 0.0292114596	 0.416351
N	-1.0934353894	 1.9878458485	 0.0219541896	-0.299847
C	-0.8611674962	 3.4243050662	 0.0653125012	-0.18327
C	 0.6794333654	 3.5402922723	 0.0170897676	-0.068574
C	 1.4183573127	 3.7387083584	 1.3611640956	 0.010837
O	 0.9068814765	 2.761950522	 2.2725767387	-0.232839
C	 1.9183951465	 2.3550837921	 1.3449308801	 0.027884
C	 1.2242970303	 2.0781396697	-0.010214949	-0.183261
H	-2.0124788032	 1.5847870778	 0.118968767	 0.250756
H	-1.3349292213	 3.9243477445	-0.7878192449	 0.108075
H	-1.2648277041	 3.8645899565	 0.984906369	 0.120459
H	 1.0450301973	 4.1861210159	-0.7809968062	 0.090329
H	 1.8339114968	 4.6457621989	 1.784786953	 0.110037
H	 2.8158009485	 1.9061259963	 1.7518900722	 0.115559
H	 1.910328926	 1.820633304	-0.8171189823	 0.105181
110.6656	149.5629	218.667	348.6862	470.0467	505.9145	582.5086	610.9412	699.6582	728.3539	756.4055	817.4119	858.8541	866.3387	910.5939	931.8364	971.5297	997.0591	1019.7641	1047.9799	1066.98	1098.5054	1151.7966	1217.0818	1221.0514	1234.0343	1249.483	1257.5114	1296.8705	1308.9901	1359.298	1388.2971	1460.5227	1525.9713	1825.8604	3019.6398	3052.4053	3113.3913	3123.9584	3183.0725	3204.4099	3634.6477
O=C1NCC2C3OC3C12	O=C1NC[C@H]2[C@H]3O[C@H]3[C@@H]12	
InChI=1S/C6H7NO2/c8-6-3-2(1-7-6)4-5(3)9-4/h2-5H,1H2,(H,7,8)	InChI=1S/C6H7NO2/c8-6-3-2(1-7-6)4-5(3)9-4/h2-5H,1H2,(H,7,8)/t2-,3+,4-,5+/m1/s1
