13
gdb 52507	2.84298	0.66345	0.55053	4.4978	85.1	-0.2795	-0.0922	0.1873	1902.7488	0.085027	-419.38417	-419.374105	-419.373161	-419.424473	31.558	
C	 0.0781941953	 1.4433933149	-0.1293675317	-0.502119
C	 0.0381576065	-0.002157062	-0.0141606399	 0.000685
C	-0.0050120158	-1.2048988113	 0.0815943542	 0.09321
C	-0.0597032927	-2.6382305759	 0.1937068028	 0.152461
O	-1.0819341774	-3.2715628312	 0.3679629152	-0.258514
C	 1.2297402439	-3.2988270761	 0.0825149301	 0.13726
C	 2.2905064691	-3.873576997	-0.0135139736	-0.057467
C	 3.5591354532	-4.5583252397	-0.0888384403	 0.026155
O	 4.0953131233	-4.8750074451	-1.1236342191	-0.215046
H	 1.100663124	 1.8033551731	-0.2813118303	 0.166544
H	-0.5323550198	 1.778902881	-0.9745701597	 0.171807
H	-0.3204535419	 1.9135336694	 0.7760348224	 0.170627
H	 4.0117920823	-4.7733922698	 0.89952779	 0.114397
2.1676	39.5609	67.0803	96.9589	144.8447	150.5259	272.6246	279.9111	336.0442	400.5331	457.3582	519.0416	646.2712	716.4382	770.3531	915.6282	1016.3475	1042.26	1051.6635	1086.7201	1248.4239	1408.3122	1416.7931	1466.4234	1469.6155	1721.0598	1771.0569	2295.6508	2340.8196	2932.1006	3034.8	3100.0143	3105.1909
CC#CC(=O)C#CC=O	CC#CC(=O)C#CC=O	
InChI=1S/C7H4O2/c1-2-4-7(9)5-3-6-8/h6H,1H3	InChI=1S/C7H4O2/c1-2-4-7(9)5-3-6-8/h6H,1H3
