19
gdb 52398	3.90443	0.70945	0.66686	3.3311	73.08	-0.2461	-0.0301	0.2159	1701.2676	0.15667	-460.130904	-460.121318	-460.120374	-460.167985	32.71	
O	 1.0273685524	-0.0873013675	-0.3346735526	-0.230222
C	 0.8797312899	 1.0349121979	-0.7403358876	 0.124758
C	 0.9091118119	 2.276285221	 0.147139662	-0.156792
O	 1.0603049438	 3.4583989483	-0.5972642399	-0.23901
C	 2.3847511207	 3.6841075814	-1.0434567469	-0.078283
C	 2.3670382469	 4.8149241648	-2.0474473158	 0.146463
C	 3.7181939264	 5.2029793475	-2.6851791128	-0.303529
C	 3.0133494642	 4.877951853	-4.0178745693	-0.05753
O	 1.8301349932	 4.4183580126	-3.3303853	-0.288835
H	 0.674943068	 1.2659268193	-1.8110322049	 0.101522
H	-0.0627410057	 2.3396201581	 0.6537167984	 0.141516
H	 1.6793792249	 2.1544889713	 0.9236566907	 0.118513
H	 3.0376304951	 3.9521814895	-0.1942836249	 0.094212
H	 2.8059148724	 2.785229962	-1.5210122108	 0.098326
H	 1.7981308314	 5.6554301718	-1.6280682668	 0.087683
H	 4.0396909834	 6.2348663058	-2.5415192708	 0.11638
H	 4.5419401825	 4.5313714326	-2.4316592446	 0.112228
H	 2.8028193944	 5.7468672119	-4.6539601842	 0.104998
H	 3.4640673043	 4.0903067386	-4.6322588195	 0.107602
19.7974	54.2131	88.0306	100.8484	158.9502	189.8806	301.3037	347.1467	381.2002	460.0873	572.5456	725.2302	747.8654	819.1866	884.0532	907.5022	971.1152	982.2297	1022.6913	1031.9395	1063.9336	1105.7512	1116.1439	1154.3522	1164.4972	1180.919	1217.9492	1247.4352	1260.9048	1274.263	1299.3709	1343.1407	1346.8991	1374.4359	1398.3825	1432.7618	1458.3198	1491.3176	1499.2949	1533.2086	1839.9122	2879.9766	2954.1938	2994.5017	3000.7587	3016.8607	3025.9925	3057.6717	3060.1672	3075.8356	3135.2346
O=CCOCC1CCO1	O=CCOC[C@H]1CCO1	
InChI=1S/C6H10O3/c7-2-4-8-5-6-1-3-9-6/h2,6H,1,3-5H2	InChI=1S/C6H10O3/c7-2-4-8-5-6-1-3-9-6/h2,6H,1,3-5H2/t6-/m1/s1
