16
gdb 32314	2.71972	1.46551	0.95796	1.5373	77.19	-0.209	-0.0393	0.1697	1162.8248	0.125143	-437.913233	-437.90515	-437.904206	-437.946109	30.159	
O	 0.0150699655	 1.4377143137	 0.0063994357	-0.42396
C	 0.0053201204	 0.0213508391	 0.0023678049	-0.159226
C	-1.4149357152	-0.4644740033	 0.0124577038	 0.167933
C	-2.4887747665	 0.3572244683	 0.0233720083	-0.155066
C	-3.8191140728	-0.1875772381	 0.0325650908	-0.187703
C	-3.9610407473	-1.5224567473	 0.0300424586	 0.066627
O	-2.9097206951	-2.3727671049	 0.0192471973	-0.233154
C	-1.5963627071	-1.9088032949	 0.0098817583	 0.341294
N	-0.6243260577	-2.7301363185	-0.0002174886	-0.548258
H	 0.9312576928	 1.7265216941	 0.0000465293	 0.29339
H	 0.5145593994	-0.3931371496	-0.8817164943	 0.118857
H	 0.5288076304	-0.398260793	 0.8756407372	 0.118864
H	-2.3344881171	 1.4291197321	 0.0251145135	 0.132876
H	-4.6934846379	 0.4491781952	 0.0413441099	 0.112131
H	-4.9022731798	-2.0576349709	 0.0361517829	 0.135404
H	-0.9598867419	-3.693127612	-0.0001724475	 0.219992
85.7576	133.1858	200.4113	211.215	237.0781	350.2482	390.2196	502.1335	540.8909	551.6241	571.0177	746.4521	766.6851	783.6136	839.6793	885.0441	922.8258	940.0925	974.4495	1044.6979	1047.5998	1090.1782	1114.9013	1180.1308	1217.8356	1241.3212	1258.1549	1292.6238	1395.1616	1437.4009	1463.5133	1496.922	1621.4607	1682.4413	1726.3221	2981.0487	3000.391	3210.3093	3218.8063	3233.5343	3494.7275	3849.2021
OCC1=CC=COC1=N	OCC1=C(OC=CC1)[NH]	
InChI=1S/C6H7NO2/c7-6-5(4-8)2-1-3-9-6/h1-3,7-8H,4H2	InChI=1S/C6H8NO2/c7-6-5(4-8)2-1-3-9-6/h1,3,7-8H,2,4H2
