20
gdb 13710	3.58873	1.20761	1.06653	1.9646	72.	-0.2473	0.0776	0.3248	1188.5079	0.175682	-386.113469	-386.104276	-386.103332	-386.147899	33.278	
C	-0.3584367714	 1.3740743067	 0.6550878243	-0.409918
C	 0.0357043949	-0.0346946778	 0.2677234896	-0.018107
C	 1.4283419996	-0.3209184159	-0.263872701	-0.323453
C	 1.0318324199	-0.8314516948	 1.084908974	 0.128352
O	 1.6734789992	-0.244977499	 2.1756987569	-0.264594
C	 0.9412600777	-0.326769077	 3.3927626827	-0.071678
C	 1.7136954837	 0.4970472119	 4.4119060089	-0.065392
O	 1.8741164445	 1.8340759423	 3.9775118937	-0.420115
H	 0.4077572812	 1.8427041336	 1.2783181413	 0.1264
H	-0.506757153	 2.000856017	-0.2308783072	 0.116487
H	-1.2937219333	 1.3810842765	 1.2252198888	 0.116827
H	-0.7625732227	-0.6228311718	-0.1782513114	 0.084084
H	 1.5587389383	-1.0265967091	-1.076572398	 0.112581
H	 2.1291999402	 0.5076954101	-0.2665804109	 0.118254
H	 0.8524205891	-1.9005608244	 1.206049655	 0.082612
H	-0.0687010789	 0.0836103858	 3.2574568186	 0.103035
H	 0.8508700411	-1.373937248	 3.7229671204	 0.089193
H	 1.1635908391	 0.5270107838	 5.357925827	 0.108841
H	 2.6871548731	 0.0177013688	 4.6010675499	 0.094328
H	 2.2682860176	 1.7738398812	 3.0995691773	 0.292263
48.2249	75.4292	147.2005	180.6581	205.9657	246.2082	307.7338	343.219	422.7619	450.325	507.9563	608.1953	777.0654	790.6334	832.1028	886.8532	905.9336	928.8865	1006.354	1036.381	1067.6637	1088.4606	1104.0487	1125.2614	1138.0211	1139.8333	1185.697	1190.0763	1238.3786	1248.4043	1260.4414	1362.8765	1388.0545	1392.5985	1419.7212	1426.4972	1436.837	1483.3687	1493.4207	1498.9704	1503.7483	1510.39	2978.7517	2986.2159	3033.035	3038.2973	3082.7402	3089.3868	3089.7833	3114.5986	3132.7509	3138.5106	3220.3318	3800.1869
CC1CC1OCCO	C[C@H]1C[C@H]1OCCO	
InChI=1S/C6H12O2/c1-5-4-6(5)8-3-2-7/h5-7H,2-4H2,1H3	InChI=1S/C6H12O2/c1-5-4-6(5)8-3-2-7/h5-7H,2-4H2,1H3/t5-,6+/m0/s1
