16
gdb 71023	4.18798	1.72561	1.436	2.0492	71.41	-0.2355	-0.0237	0.2118	888.4212	0.125779	-396.779445	-396.772977	-396.772033	-396.809745	27.211	
N	 0.0196619133	 1.4171870832	 0.0899274791	-0.622492
C	 0.0226691406	-0.0046191765	 0.0411083768	 0.2857
C	 0.6916899905	-0.9563756	 1.1220536766	-0.376683
C	-0.031026869	-1.8949159437	 0.1335725255	 0.335683
N	-0.4660320449	-3.2235252618	-0.366834386	-0.2854
C	-1.1257200683	-2.8041455026	-1.3796246853	 0.011022
N	-1.1378358585	-1.3103075165	-1.5572731185	-0.250497
C	-1.2104794493	-0.925802272	-0.0636655881	-0.038572
C	 0.3110065422	-1.0375264801	-1.0963587553	-0.067007
H	 0.959340321	 1.7882468973	-0.0137392036	 0.233772
H	-0.5414845125	 1.7968502344	-0.667238385	 0.242077
H	 1.7847480151	-0.9879557154	 1.1356705686	 0.108139
H	 0.286855152	-0.883545322	 2.1343210407	 0.11845
H	-1.6529476818	-3.4364170668	-2.0847023722	 0.129107
H	-2.1500731468	-0.8948092878	 0.490538304	 0.091531
H	 1.1661002764	-1.1408259397	-1.7671883172	 0.08517
216.9538	267.0821	293.4785	369.384	473.602	476.0523	556.3621	602.5709	733.6598	760.3515	770.6909	779.3789	814.5693	835.0051	846.2663	910.4493	925.7171	949.2228	953.2496	971.7136	1044.5335	1066.9902	1090.6475	1119.293	1146.1538	1164.7293	1203.8406	1217.4011	1241.7272	1279.0384	1310.6308	1401.6907	1507.3744	1595.8757	1647.434	3056.8776	3100.739	3109.7562	3124.6163	3212.8508	3490.9122	3571.8723
NC12CC34N=CN(C13)C24	N[C@@]12C[C@@]34[N][CH]N([C@H]13)[C@@H]24	
InChI=1S/C6H7N3/c7-5-1-6-3(5)9(2-8-6)4(5)6/h2-4H,1,7H2	InChI=1S/C6H7N3/c7-5-1-6-3(5)9(2-8-6)4(5)6/h2-4H,1,7H2/t3-,4+,5+,6-
