19
gdb 54680	3.31067	1.1422	0.87962	1.947	79.79	-0.2435	-0.0478	0.1957	1313.5194	0.159068	-423.055508	-423.046762	-423.045818	-423.089377	32.378	
C	-0.0302417831	 1.5119795203	 0.0179735319	-0.49349
C	-0.014836997	-0.0070515961	 0.0518676245	 0.322859
O	-0.0268037494	-0.6046889237	 1.1093696728	-0.308714
C	 0.0195802527	-0.7332222341	-1.2592904104	 0.140933
C	 0.0403626935	-2.0723841254	-1.2586397181	-0.101839
C	 0.0241178957	-2.8800862696	-2.5205358782	-0.264139
C	-0.3701159588	-1.9954610598	-3.7053493428	-0.084342
O	 0.3525600773	-0.776757293	-3.6818236281	-0.244461
C	 0.0268516912	 0.0299023363	-2.5674892988	-0.177087
H	 0.9041599089	 1.8950087118	-0.4086649586	 0.143226
H	-0.8453293315	 1.8877736563	-0.6105668582	 0.136441
H	-0.1427119211	 1.8914615729	 1.033703243	 0.142539
H	 0.0611660835	-2.5833965738	-0.3000821087	 0.12277
H	 1.0158966942	-3.3231790884	-2.6880987654	 0.127476
H	-0.6720480522	-3.7230476535	-2.4240473903	 0.114022
H	-0.1362975833	-2.472835957	-4.6604748288	 0.1117
H	-1.4546145203	-1.7982305562	-3.6796238973	 0.092646
H	-0.9510975023	 0.5218862458	-2.7253827454	 0.099849
H	 0.7795923321	 0.8254499075	-2.5514372534	 0.119611
55.0584	112.9545	158.1789	206.6864	227.1783	306.8885	353.1413	401.9983	436.6368	501.137	562.4989	596.4293	631.4076	791.4775	883.1438	894.9751	925.6062	958.9522	981.8528	1021.1584	1044.8639	1051.4406	1074.958	1102.5751	1138.8382	1225.1167	1251.1292	1270.6748	1317.898	1335.3811	1365.1979	1382.4542	1395.1724	1421.8066	1458.8827	1462.2329	1477.7042	1487.804	1502.1528	1684.8094	1781.4824	2929.3023	2971.4792	3013.507	3034.273	3049.8932	3062.8828	3094.0783	3094.2859	3155.0194	3178.1744
CC(=O)C1=CCCOC1	CC(=O)C1=CCCOC1	
InChI=1S/C7H10O2/c1-6(8)7-3-2-4-9-5-7/h3H,2,4-5H2,1H3	InChI=1S/C7H10O2/c1-6(8)7-3-2-4-9-5-7/h3H,2,4-5H2,1H3
