17
gdb 106398	3.5032	1.45052	1.28151	2.5557	66.4	-0.2536	0.0641	0.3177	1000.2412	0.136243	-458.890747	-458.883572	-458.882627	-458.922291	28.792	
O	 0.0790820993	 1.3859930418	-0.1210432314	-0.416042
C	 0.0290517939	-0.018085557	 0.034390992	-0.180034
C	-1.3867171337	-0.5200241603	 0.1123485338	 0.345699
C	-2.5038434747	 0.0875075925	 1.0177934285	-0.268554
C	-3.3213498841	-0.45131964	-0.1872203773	 0.011892
O	-2.1941078301	-0.1334492862	-1.0442305775	-0.305428
C	-3.156769933	-1.9896369413	 0.0033487553	 0.025479
O	-2.2873975368	-2.5923613727	-0.9565361356	-0.225038
C	-1.7130529488	-2.0414545758	 0.2299230367	-0.033439
H	-0.5119499215	 1.5950892038	-0.8543928543	 0.293758
H	 0.5408779837	-0.5389627003	-0.7910664964	 0.109161
H	 0.5617169496	-0.2599727166	 0.9608441529	 0.113844
H	-2.6717512199	-0.3492213784	 2.0065013519	 0.098724
H	-2.457640319	 1.1761589671	 1.0558230909	 0.121647
H	-4.2735801516	-0.0413944748	-0.5197120118	 0.091749
H	-3.9037905999	-2.6184292444	 0.4744022276	 0.108769
H	-1.1884276234	-2.7148942074	 0.8985351745	 0.107813
108.205	165.7918	262.4854	353.5094	400.0625	409.1782	463.248	512.6061	658.6314	704.9656	737.9753	807.7584	827.7555	831.5021	878.9989	893.6525	901.086	963.5635	992.5631	993.6245	1055.0962	1061.673	1070.1749	1099.7032	1137.638	1200.3657	1216.649	1226.0033	1254.9154	1267.4204	1284.1392	1313.7285	1380.5407	1395.076	1440.481	1488.0367	1489.8036	2980.2158	3062.2485	3070.6151	3137.3028	3147.7166	3175.5733	3188.6981	3792.9146
OCC12CC(O1)C1OC21	OC[C@@]12C[C@@H](O1)[C@H]1O[C@@H]21	
InChI=1S/C6H8O3/c7-2-6-1-3(9-6)4-5(6)8-4/h3-5,7H,1-2H2	InChI=1S/C6H8O3/c7-2-6-1-3(9-6)4-5(6)8-4/h3-5,7H,1-2H2/t3-,4-,5-,6-/m1/s1
