25
gdb 100805	3.59156	0.75068	0.65685	0.7925	95.74	-0.2572	0.0566	0.3137	1795.0299	0.225788	-352.335057	-352.32346	-352.322516	-352.372326	42.692	
C	-0.0264741101	 1.6330868635	 0.0043228404	-0.392391
C	-0.0719964231	 0.10387564	-0.1026941059	-0.186003
C	 0.7694542057	-0.4916723345	-1.2518272158	 0.047396
C	 2.2415457595	-0.0644048901	-1.119613513	-0.405065
C	 0.6349433047	-2.0382166816	-1.3406983564	 0.040613
C	-0.8085002499	-2.5461274344	-1.2078248063	-0.413276
C	 1.238029859	-2.566238187	-2.6724493276	-0.370838
C	 1.3472941256	-4.0191429189	-2.7319847767	 0.306496
C	 1.4431939639	-5.2175461285	-2.7612541674	-0.447958
H	 0.962224438	 2.0031897548	 0.289505918	 0.118876
H	-0.296422636	 2.1042610871	-0.9480425273	 0.112225
H	-0.7362523449	 1.9859768863	 0.7591651902	 0.11143
H	 0.2567254171	-0.3384386258	 0.8486365272	 0.091744
H	-1.1164271266	-0.1941591011	-0.2318683793	 0.100213
H	 0.3747586061	-0.0748993931	-2.1926014137	 0.064182
H	 2.8708583308	-0.4689321264	-1.9162171956	 0.11347
H	 2.3468705996	 1.022678345	-1.1566376353	 0.11749
H	 2.6575316126	-0.4065677348	-0.1640618817	 0.113811
H	 1.2249048755	-2.4724790281	-0.5216222195	 0.079608
H	-1.4685661978	-2.0525758332	-1.9321246862	 0.10864
H	-0.8474282664	-3.6216916	-1.4004452837	 0.128566
H	-1.2162758777	-2.3738189342	-0.2095074818	 0.11671
H	 0.6128553757	-2.2141257093	-3.5050928221	 0.124715
H	 2.231997715	-2.139326918	-2.8391596378	 0.127759
H	 1.5301983639	-6.2749339678	-2.7980464527	 0.191586
35.8003	57.362	95.3151	133.8305	187.7377	215.1404	228.3922	276.7911	313.4865	336.8452	349.3085	367.0946	392.5339	418.3259	486.7029	561.233	610.8005	634.2016	775.173	816.4468	845.2424	883.3059	916.2477	956.5642	978.0362	994.8015	1001.2187	1041.5939	1080.7092	1118.9708	1151.0774	1175.7904	1182.3327	1237.5586	1277.0427	1305.3268	1329.5521	1352.1991	1356.5984	1375.1333	1385.3162	1408.7593	1413.4047	1417.2882	1467.6585	1483.1584	1496.3589	1498.183	1499.0793	1506.5547	1514.4933	1518.7657	2234.2025	2972.4126	3005.2482	3011.5214	3019.0365	3030.5815	3031.7556	3034.5009	3071.6602	3075.878	3095.2831	3102.1499	3103.6842	3110.1492	3119.5625	3123.8252	3507.2564
CCC(C)C(C)CC#C	CC[C@@H](C)[C@@H](C)CC#C	
InChI=1S/C9H16/c1-5-7-9(4)8(3)6-2/h1,8-9H,6-7H2,2-4H3	InChI=1S/C9H16/c1-5-7-9(4)8(3)6-2/h1,8-9H,6-7H2,2-4H3/t8-,9+/m1/s1
