16
gdb 39714	3.52339	1.78002	1.56766	2.1969	71.37	-0.2381	-0.0135	0.2246	871.7757	0.126927	-396.847548	-396.841273	-396.840328	-396.877971	25.865	
C	 0.0825428109	 1.4272356123	-0.036991198	-0.329305
N	 1.2840050616	 0.5658090349	 0.0599055437	-0.373789
C	-0.0309704608	-0.0430011563	 0.0139686031	 0.43742
C	-0.680865221	-0.8863412883	 1.0803625083	-0.13539
C	-1.5798172742	-1.4997979962	 0.0655497082	-0.042659
C	-0.6635311435	-0.9507750595	-1.0754286951	-0.17291
N	 0.3335649671	-2.0111155808	-1.3366528729	-0.193286
C	 0.353927812	-2.6876304956	-0.2599820244	 0.051367
N	-0.6164220233	-2.3719580483	 0.7513915562	-0.165761
H	-0.1186357047	 2.0295085164	 0.845194271	 0.12445
H	-0.1383684124	 1.9200619691	-0.9809571161	 0.118287
H	 1.7460435201	 0.4803045333	-0.8424295346	 0.243784
H	-0.8348724318	-0.6447269027	 2.1240347473	 0.113781
H	-2.639206839	-1.7253035869	 0.0769160886	 0.107661
H	-1.0711959919	-0.5006179777	-1.9778388645	 0.082896
H	 1.052654441	-3.4932573139	-0.0607610807	 0.133455
151.1361	250.3591	281.6085	434.6686	477.2385	536.5592	620.7114	711.7206	761.6627	822.6642	838.0689	876.0764	879.8343	913.8483	928.1066	954.363	959.5845	967.0466	977.2133	978.8653	1006.682	1060.2225	1075.2567	1133.9593	1162.3385	1204.8263	1208.9351	1238.7721	1265.5521	1274.1211	1292.5046	1327.3108	1431.9216	1517.791	1661.4427	3101.4483	3143.2286	3185.9645	3187.5258	3202.7179	3207.0934	3503.5781
C1NC11C2C3C1N=CN23	C1N[C@]21[C@H]1[C@H]3[C@@H]2[N][CH]N13	
InChI=1S/C6H7N3/c1-6(8-1)4-3-5(6)9(3)2-7-4/h2-5,8H,1H2	InChI=1S/C6H7N3/c1-6(8-1)4-3-5(6)9(3)2-7-4/h2-5,8H,1H2/t3-,4+,5-,6+,9?/m1/s1
