19
gdb 65398	3.31235	1.07819	1.00046	3.5509	76.87	-0.2554	-0.0403	0.215	1261.8217	0.156612	-423.000577	-422.991378	-422.990434	-423.034884	33.801	
C	 0.6658889305	 1.080125723	-1.0734090895	-0.47532
C	 0.0509305682	 0.0280124264	-0.1768387371	 0.382268
O	 0.8603470294	-1.1322201542	 0.0319610767	-0.267052
C	 0.6533241229	-0.2879012815	 1.1557664381	-0.107305
C	 1.8164252868	 0.4740624171	 1.7069745068	 0.141205
O	 2.8690214492	 0.6488735863	 1.1480228527	-0.249934
C	-1.4165646399	-0.2004210495	-0.4111527284	-0.041057
C	-2.2780573382	-1.0621037079	 0.4695373578	-0.279966
C	-2.4624076125	 0.4326093341	 0.4802334954	-0.263053
H	 1.7291636273	 1.2007487078	-0.8675753818	 0.163221
H	 0.5470305506	 0.7763176548	-2.1190380937	 0.128717
H	 0.155090451	 2.0398258733	-0.9448836983	 0.12421
H	-0.0001511787	-0.6918554863	 1.9305269795	 0.095439
H	 1.6208286919	 0.8939235893	 2.720565036	 0.078435
H	-1.6598837111	-0.2247623603	-1.4704227749	 0.093135
H	-3.0302470244	-1.6703284844	-0.0196905598	 0.119602
H	-1.833505526	-1.5368011978	 1.3363408057	 0.125241
H	-2.1115626748	 0.976519395	 1.3511626212	 0.113073
H	-3.3471217623	 0.8556849446	 0.0181174036	 0.119142
55.9677	107.5262	142.1762	197.365	218.6427	232.5887	273.8179	349.4005	388.0083	487.8055	518.1584	656.3655	746.4892	779.9794	818.8651	840.0231	874.5137	911.7067	938.1917	965.2861	972.352	1057.6638	1062.2121	1075.1477	1081.4646	1107.9505	1134.1058	1154.3117	1194.6457	1213.358	1246.8695	1321.2497	1404.1078	1415.5862	1424.3262	1432.8016	1475.0157	1491.8646	1501.422	1511.672	1826.417	2867.7781	3042.0971	3101.9148	3103.2385	3134.1457	3136.5336	3147.0206	3159.3395	3214.9304	3230.4393
CC1(OC1C=O)C1CC1	C[C@]1(O[C@H]1C=O)C1CC1	
InChI=1S/C7H10O2/c1-7(5-2-3-5)6(4-8)9-7/h4-6H,2-3H2,1H3	InChI=1S/C7H10O2/c1-7(5-2-3-5)6(4-8)9-7/h4-6H,2-3H2,1H3/t6-,7-/m0/s1
