21
gdb 122917	3.11974	0.67672	0.63092	4.7823	81.39	-0.2386	0.0335	0.2721	1855.2702	0.18089	-420.398518	-420.387666	-420.386722	-420.435848	37.476	
C	-0.0136386843	 1.3814145887	 0.2168403014	-0.227698
O	 0.0132911145	-0.0215942531	 0.0917498069	-0.238975
C	-1.2698192332	-0.5912035225	-0.0741406409	-0.066215
C	-1.10233243	-2.1018308195	-0.0920346334	-0.150229
N	-0.5827144644	-2.5438623709	 1.1959668916	-0.290126
C	-0.3181544597	-3.9739009935	 1.3081528074	-0.096924
C	 0.8820311546	-4.5127590593	 0.4981113618	-0.394295
C	-0.1424133858	-4.3117672925	 2.7333944336	 0.279719
N	 0.0241229114	-4.5868839673	 3.8429838182	-0.321853
H	 1.017797209	 1.7185244436	 0.3437579963	 0.130361
H	-0.4366475125	 1.860706952	-0.6797572103	 0.106865
H	-0.6039115211	 1.7014299405	 1.089238229	 0.111452
H	-1.9308162905	-0.2989967917	 0.7571246877	 0.101809
H	-1.7290983825	-0.2487781302	-1.0159170257	 0.089177
H	-2.0823998511	-2.5664477527	-0.2587316139	 0.106477
H	-0.4620807804	-2.3670233739	-0.9508153608	 0.095216
H	 0.2494147491	-2.0068036971	 1.4189272942	 0.235853
H	-1.2254489187	-4.4948644911	 0.9734638914	 0.128047
H	 0.7369490071	-4.3167490333	-0.5670321811	 0.129056
H	 1.8077630724	-4.0270558976	 0.8201824164	 0.134951
H	 0.9941713761	-5.5916691488	 0.6376256703	 0.137333
37.6009	63.1732	81.4972	124.2641	169.3084	208.0356	227.7898	235.1359	277.9617	326.2581	336.8415	392.385	531.825	567.7366	587.8582	754.9317	827.9277	863.5709	905.5457	957.488	1031.3306	1066.9565	1090.2276	1119.4894	1147.4826	1166.2667	1177.9134	1187.5082	1227.4528	1258.544	1282.9779	1325.9662	1344.2818	1394.2281	1404.716	1425.6739	1478.4507	1485.3924	1486.5208	1488.9454	1498.1574	1500.1579	1507.3119	1523.3447	2361.4006	2954.731	2965.1724	2978.5582	3008.3446	3022.8105	3024.7557	3045.5198	3047.1314	3117.3806	3122.2016	3127.9168	3529.2639
COCCNC(C)C#N	COCCN[C@@H](C)C#N	
InChI=1S/C6H12N2O/c1-6(5-7)8-3-4-9-2/h6,8H,3-4H2,1-2H3	InChI=1S/C6H12N2O/c1-6(5-7)8-3-4-9-2/h6,8H,3-4H2,1-2H3/t6-/m0/s1
