18
gdb 68167	3.56599	1.43751	1.2301	5.3095	71.58	-0.2402	0.0128	0.253	1040.3122	0.149302	-439.100862	-439.09325	-439.092306	-439.132652	29.988	
C	-0.0379301122	 1.5580643822	-0.00263816	-0.48715
C	 0.0259312751	 0.0474460764	-0.0460098608	 0.273467
C	 0.7351283589	-0.6881215009	-1.2150467552	-0.276237
C	 1.0980784187	-1.703134381	-0.105212986	-0.150629
N	 0.946096708	-0.6306826071	 0.9453594133	-0.355316
C	-0.0671162056	-2.6591660223	 0.0812308593	 0.479812
O	 0.0091796393	-3.8546624083	 0.0998447741	-0.339959
O	-1.2721642066	-2.0419857054	 0.1904165944	-0.244891
C	-1.3341159715	-0.6023839332	 0.1974249822	-0.063355
H	 0.9521362219	 1.991563668	-0.1770984974	 0.120958
H	-0.7136135195	 1.9455670065	-0.772470291	 0.13045
H	-0.3954122217	 1.9059475423	 0.9724312636	 0.136396
H	 0.1461232842	-1.0226946757	-2.0745805775	 0.114228
H	 1.6168317455	-0.1396640257	-1.5578152773	 0.104382
H	 2.0372887144	-2.2530395533	-0.1261212049	 0.099181
H	 1.820640647	-0.1053456029	 0.9651275433	 0.219178
H	-1.7197359908	-0.2997472387	 1.1763333529	 0.124775
H	-2.0531306752	-0.3130915512	-0.5768480031	 0.114709
124.6223	194.2464	213.7673	267.5877	328.5903	389.7488	429.1953	444.1552	488.5258	639.5005	681.0808	750.3692	773.8767	838.1885	900.8896	904.2862	923.6601	953.2322	984.1943	1011.5358	1030.2791	1057.26	1087.5374	1154.2902	1180.9988	1216.6914	1233.7092	1247.6764	1262.9898	1302.7074	1325.7856	1398.8326	1413.5141	1428.5691	1486.9854	1491.4905	1496.5576	1501.5864	1867.0799	3031.2236	3040.1393	3047.5349	3088.7053	3102.7869	3105.5053	3107.8331	3137.6793	3448.9884
CC12CC(N1)C(=O)OC2	C[C@@]12C[C@@H](N1)C(=O)OC2	
InChI=1S/C6H9NO2/c1-6-2-4(7-6)5(8)9-3-6/h4,7H,2-3H2,1H3	InChI=1S/C6H9NO2/c1-6-2-4(7-6)5(8)9-3-6/h4,7H,2-3H2,1H3/t4-,6+/m1/s1
