17
gdb 95118	2.49861	1.54337	1.18135	1.3518	74.71	-0.2319	0.0372	0.2691	1071.284	0.135223	-421.772858	-421.764605	-421.76366	-421.805483	32.052	
O	 0.2635314827	 1.1678168127	-0.4114173186	-0.426249
C	 0.0557947732	-0.1377347482	 0.0911398235	 0.000592
C	 0.4004267799	-0.1208277075	 1.5981363369	-0.107634
O	-0.5038742904	-0.9994489252	 2.2581489294	-0.254319
C	-1.6618309291	-1.1004788999	 1.4832169514	 0.07424
C	-2.3368481649	 0.1411672572	 0.9905955625	-0.36651
C	-1.3952165505	-0.6340137183	 0.0611774991	 0.128627
C	-1.8818317928	-1.2896113946	-1.1099763228	 0.149174
C	-2.2711599959	-1.8264541622	-2.1149934928	-0.38228
H	 0.0654185391	 1.1570096274	-1.3537458234	 0.292233
H	 0.6765900895	-0.8651195095	-0.4488062292	 0.084484
H	 1.415610569	-0.4618832592	 1.8125990527	 0.119994
H	 0.2966011367	 0.9108871364	 1.9590735054	 0.117225
H	-2.232888942	-1.9935664496	 1.7056013444	 0.119799
H	-3.3945057865	 0.0720246091	 0.7651938906	 0.130577
H	-2.0020134855	 1.112726219	 1.3359565437	 0.134435
H	-2.6214785324	-2.3097453076	-2.992920423	 0.18561
96.8655	141.8744	171.454	247.7271	318.654	363.1119	421.4654	467.1656	505.2165	531.2763	571.7668	593.648	647.6397	687.1315	703.0922	838.1573	869.9981	922.8611	991.087	1000.9494	1016.4566	1040.3777	1051.8652	1084.5606	1112.7912	1179.5011	1222.827	1236.5299	1253.0204	1263.8265	1333.9447	1359.8408	1413.0803	1425.2643	1479.6517	1524.2625	2230.3276	3013.0915	3025.5726	3104.4226	3143.8361	3194.9268	3236.4501	3503.1877	3815.348
OC1COC2CC12C#C	O[C@H]1CO[C@H]2C[C@@]12C#C	
InChI=1S/C7H8O2/c1-2-7-3-6(7)9-4-5(7)8/h1,5-6,8H,3-4H2	InChI=1S/C7H8O2/c1-2-7-3-6(7)9-4-5(7)8/h1,5-6,8H,3-4H2/t5-,6-,7-/m0/s1
