19
gdb 88295	2.7147	1.24421	1.12078	3.4223	78.14	-0.2347	-0.0132	0.2215	1190.1611	0.15858	-419.163942	-419.154909	-419.153965	-419.198313	32.844	
C	 0.0744709576	 1.6088486588	-0.0313152826	-0.324641
N	-0.0419116068	 0.1657145707	 0.156823318	-0.080219
C	 1.1095725818	-0.6603422973	-0.1288322108	-0.262328
C	 0.6383020019	-0.5007137562	 1.2845459685	-0.073013
C	 1.4099746189	 0.2400215848	 2.3398896182	 0.35586
O	 1.0428703804	 0.237393992	 3.4950540237	-0.333483
N	 2.5210204335	 0.9871926081	 1.9072644409	-0.101572
C	 3.8246595435	 0.3670197705	 1.6737199549	-0.231959
C	 3.5915722252	 1.2700321226	 2.8414582825	-0.21944
H	 1.0747781625	 2.0118004178	 0.1714273573	 0.126971
H	-0.196523593	 1.8326806365	-1.0678780352	 0.123179
H	-0.6446523049	 2.1103611352	 0.6234937008	 0.130858
H	 0.9149163807	-1.596054958	-0.6478059963	 0.119479
H	 2.0380491524	-0.165555107	-0.4059546437	 0.119337
H	 0.0333500326	-1.2814457708	 1.7372960617	 0.113712
H	 3.9161662875	-0.6976095475	 1.8732724722	 0.135917
H	 4.3686716726	 0.7204646595	 0.8020853438	 0.128033
H	 3.9757653414	 2.2851718281	 2.8197547246	 0.128176
H	 3.5012584023	 0.8220494523	 3.8264979715	 0.145135
50.4177	91.073	151.9603	173.9873	208.9466	263.7525	292.4936	365.7082	408.6754	474.896	615.0916	676.9733	722.4084	804.5892	831.5096	879.833	914.3427	950.3702	992.0664	1034.88	1051.8419	1093.3648	1121.7165	1125.4256	1134.2998	1135.5912	1166.9565	1172.1758	1179.3076	1211.959	1228.6915	1326.4452	1362.1453	1380.2773	1448.9161	1488.6289	1494.691	1502.9253	1508.1076	1520.3822	1771.0841	3014.8738	3086.6422	3096.9225	3107.2661	3108.2666	3123.5786	3149.2321	3181.7559	3194.7263	3216.5561
CN1CC1C(=O)N1CC1	CN1C[C@H]1C(=O)N1CC1	
InChI=1S/C6H10N2O/c1-7-4-5(7)6(9)8-2-3-8/h5H,2-4H2,1H3	InChI=1S/C6H10N2O/c1-7-4-5(7)6(9)8-2-3-8/h5H,2-4H2,1H3/t5-,7?/m0/s1
