16
gdb 11514	4.69804	1.07957	0.96717	4.9425	65.41	-0.2646	0.0202	0.2848	1179.2189	0.130264	-379.898161	-379.889718	-379.888773	-379.931918	29.743	
N	-0.4056486581	 1.2969945952	 0.090631839	-0.506922
C	 0.0668299683	-0.0740265389	-0.1014193794	-0.118169
C	 0.9864463709	-0.3312978893	-1.3266273413	-0.233276
C	 0.2967019048	 0.024395377	-2.6212595613	 0.070841
C	 0.3205010386	-0.861498171	-3.7912462474	-0.173692
O	-0.8397000577	-0.7784277531	-2.9612107385	-0.236666
C	 0.756296291	-0.5213833412	 1.1203770403	 0.296969
N	 1.3345888765	-0.8772280827	 2.0550045297	-0.318408
H	 0.3732354611	 1.9487630161	 0.1013493822	 0.237901
H	-1.0211018284	 1.559864831	-0.6713164947	 0.24689
H	-0.8209105486	-0.7059592515	-0.2231085484	 0.153925
H	 1.90604855	 0.2571060118	-1.2216264997	 0.116629
H	 1.2724492913	-1.3882344533	-1.3377587628	 0.125822
H	 0.1492383457	 1.0899711335	-2.8036652788	 0.092744
H	 0.2108368376	-0.4426718181	-4.7902479755	 0.122596
H	 0.866401687	-1.8022108255	-3.7380212735	 0.122816
51.1688	82.1331	136.8064	200.5722	241.2456	303.9078	341.4231	400.7351	498.3306	551.6139	586.1374	794.6943	817.7939	834.2909	869.6513	934.0011	958.7716	1016.4589	1078.8906	1098.5433	1144.7123	1162.2089	1171.421	1198.2197	1253.6343	1293.2323	1299.5391	1351.3891	1413.1153	1444.294	1469.3932	1529.9324	1653.4766	2362.5462	3036.6291	3054.319	3084.5617	3087.8048	3102.8781	3175.822	3500.3194	3592.7625
NC(CC1CO1)C#N	N[C@@H](C[C@H]1CO1)C#N	
InChI=1S/C5H8N2O/c6-2-4(7)1-5-3-8-5/h4-5H,1,3,7H2	InChI=1S/C5H8N2O/c6-2-4(7)1-5-3-8-5/h4-5H,1,3,7H2/t4-,5-/m0/s1
