19
gdb 29709	2.45093	1.52757	0.9571	0.2858	80.4	-0.1692	0.067	0.2363	1228.1903	0.158378	-419.239691	-419.229432	-419.228488	-419.274831	36.74	
C	-0.0718222118	 1.4592347675	-0.0224962979	-0.337225
N	 0.0083190561	 0.0144127727	-0.0099466099	-0.059319
C	 0.1152716696	-0.7789075444	-1.1115970828	 0.369188
O	 0.1497386451	-0.1608633038	-2.3240626525	-0.444904
C	 0.1675717603	-2.0981878541	-0.7333799802	-0.423969
C	 0.0873685457	-2.1174752873	 0.6970183863	 0.280811
C	 0.1053425929	-3.33112651	 1.5744456716	-0.502855
C	-0.0097155652	-0.8117634341	 1.1209676845	 0.11284
N	-0.1154370655	-0.2186461648	 2.3998515852	-0.612987
H	 0.8194098558	 1.8983208928	-0.4822296605	 0.131322
H	-0.9489168044	 1.7993701932	-0.5823796391	 0.131297
H	-0.1490037157	 1.7903784593	 1.0130880854	 0.153
H	 0.2243073573	-0.840232128	-3.0005934506	 0.303647
H	 0.2526822191	-2.9498242609	-1.3919742744	 0.078875
H	 1.0277296679	-3.9125327102	 1.4531813909	 0.119684
H	 0.0306762202	-3.0505365098	 2.6299027145	 0.099693
H	-0.7282381284	-4.009704943	 1.3548283219	 0.119679
H	-0.9496638067	-0.509110647	 2.8975309813	 0.240609
H	 0.6842760279	-0.4180460883	 2.9903504263	 0.240613
60.4107	104.6387	125.6755	177.8628	198.3556	234.7141	256.7013	258.4267	286.5482	331.1235	340.4531	561.8959	589.7742	608.6247	639.7398	662.0384	697.489	743.4604	750.4486	893.8748	990.5481	1058.9934	1077.7926	1141.2274	1157.9414	1192.3519	1198.7758	1225.3275	1277.4861	1366.7527	1409.442	1430.6136	1437.5697	1485.7812	1495.0157	1496.7426	1514.1881	1561.8407	1583.598	1629.1154	1662.5234	3015.2042	3036.9245	3059.9702	3090.4808	3093.0773	3155.8707	3232.8076	3503.5061	3567.0614	3848.9709
CN1C(O)=CC(C)=C1N	Cn1c(O)cc(C)c1N	
InChI=1S/C6H10N2O/c1-4-3-5(9)8(2)6(4)7/h3,9H,7H2,1-2H3	InChI=1S/C6H10N2O/c1-4-3-5(9)8(2)6(4)7/h3,9H,7H2,1-2H3
