18
gdb 78720	3.46687	1.29098	1.21579	1.9947	83.71	-0.2341	0.034	0.268	1101.1599	0.147133	-364.714746	-364.706862	-364.705918	-364.746796	31.443	
C	-0.0740536988	 1.5777909317	-0.0380913777	-0.422272
C	 0.0777508111	 0.0692864534	-0.0792338278	 0.093946
C	 0.7612988956	-0.68089227	-1.2472337725	-0.122118
C	 2.1715101028	-0.0474702478	-1.3199903948	-0.309803
C	 2.3803959005	-0.6072938099	 0.0940470979	 0.230341
C	 3.5936607038	-0.6752608153	 0.8311155462	 0.121499
C	 4.6441100381	-0.7217116184	 1.4153428875	-0.347651
C	 1.311026993	-1.6298578849	-0.1164375753	-0.102922
N	 1.066760357	-0.5545787666	 0.8715365619	-0.188108
H	 0.8708515958	 2.0991189398	-0.2084353667	 0.12589
H	-0.7925112453	 1.9119069157	-0.7947241002	 0.117729
H	-0.4492256018	 1.8847724475	 0.9433036974	 0.132057
H	-0.8821241541	-0.4073011105	 0.149237873	 0.08496
H	 0.2279783939	-0.962079928	-2.1532203182	 0.07698
H	 2.8127514819	-0.5839022186	-2.0230896434	 0.116727
H	 2.2608583976	 1.0291427277	-1.4886057086	 0.103626
H	 5.5642677048	-0.7637453204	 1.9431977952	 0.182014
H	 1.267709594	-2.6894206352	 0.0985976762	 0.107105
118.3762	155.7804	183.3478	253.141	303.4927	453.55	497.4102	519.9938	537.8246	576.4216	600.2703	654.8229	689.5535	714.0829	793.4298	838.9689	884.3219	919.2472	935.7358	954.1936	1001.892	1020.4522	1073.2222	1101.2084	1111.3993	1118.3209	1163.9438	1167.6213	1184.7464	1238.2325	1273.6367	1297.835	1367.3976	1394.702	1414.4939	1486.1418	1492.1861	1515.8304	2240.9347	3038.7524	3045.3223	3060.3534	3104.9855	3114.778	3126.7897	3134.9636	3205.9941	3503.9373
CC1C2CC3(C#C)C2N13	C[C@H]1[C@H]2C[C@]3(C#C)[C@H]2N13	
InChI=1S/C8H9N/c1-3-8-4-6-5(2)9(8)7(6)8/h1,5-7H,4H2,2H3	InChI=1S/C8H9N/c1-3-8-4-6-5(2)9(8)7(6)8/h1,5-7H,4H2,2H3/t5-,6+,7-,8+,9?/m0/s1
