21
gdb 61828	1.97604	1.40001	0.92986	4.0155	80.2	-0.2449	0.0313	0.2762	1319.116	0.181759	-420.414229	-420.404035	-420.40309	-420.450047	36.718	
C	-0.2098946719	 1.5624743858	 0.4767531154	-0.409528
C	 0.0203364137	 0.1531740855	-0.0725014631	 0.038527
N	 0.6209442562	 0.2267409418	-1.4045633117	-0.278664
C	 0.3321419631	-0.6299186133	-2.4171808414	 0.156763
O	-0.4624875136	-1.5459798078	-2.3620844748	-0.325085
C	 0.8962571594	-0.6651976813	 0.8659866493	-0.009029
N	 0.3038064456	-1.0541221214	 2.1537546322	-0.342744
C	 0.6870899158	-2.1039306489	 1.188799002	-0.00105
C	-0.4169467233	-2.9645263895	 0.6243039824	-0.390604
H	 0.7366529436	 2.1101817537	 0.5713011339	 0.10441
H	-0.8731183941	 2.136152497	-0.1766355497	 0.121998
H	-0.6592286913	 1.4971051653	 1.4702104146	 0.14602
H	-0.9396869321	-0.350722187	-0.1989448281	 0.12046
H	 1.315176548	 0.9381062608	-1.5748891503	 0.242301
H	 0.9084118713	-0.3884874801	-3.3334998778	 0.071477
H	 1.9324200184	-0.3212586321	 0.8789585522	 0.066249
H	 0.9852233679	-0.9739929389	 2.9029229849	 0.228759
H	 1.6043595241	-2.6491715232	 1.4120777791	 0.079379
H	-1.3582957075	-2.4139744087	 0.5754547022	 0.129424
H	-0.174066338	-3.3038537564	-0.3858602531	 0.143334
H	-0.5754326354	-3.8389037414	 1.264780862	 0.107604
39.6057	73.2845	138.1887	161.992	194.9465	211.9205	239.0565	256.2234	375.7664	396.5088	409.0287	464.0421	525.7587	563.0549	765.2908	791.463	825.0706	883.0637	915.084	949.1877	1000.6882	1017.6735	1031.021	1054.5417	1099.6076	1110.2215	1140.72	1159.2741	1214.9347	1224.4801	1261.6149	1274.9495	1325.9723	1340.0045	1402.1981	1407.7817	1430.857	1432.611	1465.1975	1485.7205	1495.5887	1497.2357	1503.5137	1526.8341	1800.6222	2925.6698	3025.8718	3043.2306	3077.9449	3093.7557	3100.1276	3113.5174	3116.5784	3133.9344	3139.6337	3508.2312	3621.9998
CC(NC=O)C1NC1C	C[C@@H](NC=O)[C@H]1N[C@H]1C	
InChI=1S/C6H12N2O/c1-4(7-3-9)6-5(2)8-6/h3-6,8H,1-2H3,(H,7,9)	InChI=1S/C6H12N2O/c1-4(7-3-9)6-5(2)8-6/h3-6,8H,1-2H3,(H,7,9)/t4-,5+,6-/m1/s1
