20
gdb 126461	2.85849	1.22275	0.93055	3.1916	82.58	-0.2369	0.0035	0.2404	1325.6888	0.169443	-403.173012	-403.163072	-403.162128	-403.20845	35.143	
C	 0.1056791852	 1.5499641321	 0.1484289998	-0.37814
C	-0.088332713	 0.0467280733	-0.1142769739	-0.289833
C	 0.7029651367	-0.4499137104	-1.2873511763	 0.331138
N	 0.1068977653	-0.661686193	-2.435750578	-0.218744
O	 1.105361827	-1.0923774246	-3.307176067	-0.221187
C	 2.2810265045	-1.131961226	-2.6496573892	 0.360718
C	 3.4618896939	-1.5807563308	-3.4358556005	-0.493731
C	 2.1061543697	-0.7358742084	-1.3571336733	-0.005328
C	 3.1157368161	-0.633561014	-0.2573630434	-0.518889
H	 1.1530079261	 1.7914567645	 0.3551141097	 0.119612
H	-0.2082788005	 2.1357793753	-0.7201761711	 0.133714
H	-0.487998906	 1.8695231665	 1.010150234	 0.117141
H	 0.1972513177	-0.5218777345	 0.779079144	 0.106427
H	-1.145320015	-0.1614882066	-0.3037484545	 0.127827
H	 3.2927213022	-2.5740059572	-3.8644289425	 0.149144
H	 3.6658029353	-0.8954690504	-4.2656728098	 0.148909
H	 4.3499508777	-1.6240902251	-2.8022597793	 0.13634
H	 3.3035533486	 0.4063175689	 0.0343571638	 0.135054
H	 2.7832520932	-1.1637367178	 0.6423004129	 0.132922
H	 4.0745641653	-1.0664158216	-0.5554667455	 0.126906
59.8353	80.8891	111.8675	116.6549	190.4634	223.6436	258.9923	284.1958	293.4998	421.1659	462.424	572.8779	642.5775	683.7392	727.9158	761.3204	795.054	932.6844	957.1372	978.2569	1014.3942	1057.5262	1068.5389	1077.539	1095.9979	1134.0623	1222.4793	1270.5769	1301.8673	1354.9573	1407.8117	1411.3693	1426.3605	1456.6048	1473.0469	1477.9079	1483.9552	1488.1074	1497.3364	1498.5662	1507.8872	1534.9822	1680.2887	3028.1887	3035.2271	3040.3671	3040.819	3076.4337	3087.8359	3095.6102	3109.4117	3112.0235	3119.7794	3134.0435
CCC1=NOC(C)=C1C	CCc1noc(C)c1C	
InChI=1S/C7H11NO/c1-4-7-5(2)6(3)9-8-7/h4H2,1-3H3	InChI=1S/C7H11NO/c1-4-7-5(2)6(3)9-8-7/h4H2,1-3H3
