16
gdb 5393	5.13187	1.57201	1.21471	1.8443	76.52	-0.2002	-0.0078	0.1924	975.6387	0.13337	-342.848438	-342.841228	-342.840284	-342.879981	26.922	
C	 0.0091004951	 1.4389725424	 0.1281837532	-0.322425
N	-0.0720769738	 0.0164828604	-0.1004854311	-0.341401
C	 0.5819337891	-0.6361044826	-1.1134820871	 0.420972
N	 0.5897587906	-1.9770219272	-1.0187600084	-0.345077
C	 1.1850547134	-2.6671959176	-1.9899942769	 0.005302
C	 1.8038019558	-2.0919786396	-3.0949766003	-0.147153
C	 1.7979687382	-0.7005815741	-3.1799362487	-0.064665
C	 1.1871152443	 0.047508995	-2.1864592101	-0.210864
H	 1.0421100251	 1.7961378745	 0.2573435833	 0.120788
H	-0.4404828089	 2.0019347603	-0.6990121395	 0.131705
H	-0.5512557499	 1.6823393915	 1.0330393652	 0.129956
H	-0.315421381	-0.5828098132	 0.6714723074	 0.244987
H	 1.1676666938	-3.7493349314	-1.8744107057	 0.099936
H	 2.2733993675	-2.7084264787	-3.8515904951	 0.08988
H	 2.2703365372	-0.1975201173	-4.0180689838	 0.09887
H	 1.1731452635	 1.1289993277	-2.2350577621	 0.089188
82.7586	155.9606	224.5882	231.932	404.6184	433.642	482.6614	537.9804	587.9321	640.6937	762.3347	794.2208	828.8405	862.8159	980.2042	990.6362	994.3589	1065.4303	1098.0054	1111.4041	1158.0062	1178.716	1195.0738	1291.2555	1333.4877	1356.262	1450.5213	1463.526	1483.3426	1491.5551	1523.6729	1556.0214	1611.9686	1644.9577	2987.1238	3046.4861	3124.6875	3142.9404	3174.8529	3205.2071	3210.3411	3641.5373
CNC1=NC=CC=C1	CNc1ncccc1	
InChI=1S/C6H8N2/c1-7-6-4-2-3-5-8-6/h2-5H,1H3,(H,7,8)	InChI=1S/C6H8N2/c1-7-6-4-2-3-5-8-6/h2-5H,1H3,(H,7,8)
