17
gdb 69796	2.68616	1.94084	1.34391	2.4619	73.26	-0.2454	-0.0104	0.235	963.3925	0.136664	-417.973971	-417.966479	-417.965535	-418.005618	29.473	
C	 0.0083127106	 1.5693968823	 0.0440588376	-0.489941
C	 0.1689429576	 0.0805644396	 0.0215979349	 0.36604
O	-0.769480698	-0.7034940791	 0.8055041385	-0.285362
C	 0.6219716378	-0.8054584663	 1.1109089356	-0.050228
C	 1.2906922435	-2.011954375	 0.4890959603	-0.059851
C	 0.4430141502	-2.9488844726	-0.2882570247	-0.25323
N	 1.1948779687	-1.873444131	-0.9816444625	-0.15667
C	 0.4914048816	-0.6528764014	-1.2602203631	 0.310269
N	 0.2271925367	-0.1901177442	-2.4074789992	-0.513043
H	 0.9449046393	 2.0611740511	-0.2347412195	 0.133483
H	-0.7530078278	 1.8704767263	-0.6807527969	 0.153984
H	-0.2912992312	 1.9038106122	 1.0399673838	 0.127548
H	 0.9276145742	-0.4453844783	 2.0887647335	 0.105275
H	 2.2551593552	-2.3192898794	 0.8816605175	 0.104179
H	 0.8059876049	-3.9485023604	-0.5069542968	 0.126701
H	-0.6313229691	-2.8367051601	-0.1994795143	 0.153567
H	 0.5472830157	-0.8385770037	-3.1311003849	 0.227279
132.9858	172.8146	236.2832	256.4217	297.8717	375.2443	455.402	550.757	588.6952	650.2481	703.1754	755.2794	778.6945	809.5682	841.0479	885.7031	937.5665	947.9529	991.3185	1022.0078	1055.6168	1062.4693	1091.9161	1110.4305	1125.8064	1155.0476	1218.1407	1260.008	1301.0284	1349.1065	1369.1263	1404.8909	1445.1156	1476.4877	1488.243	1494.0583	1758.2275	3049.2785	3119.7415	3127.1833	3134.6943	3155.2646	3167.8906	3230.0069	3449.8592
CC12OC1C1CN1C2=N	C[C@]12O[C@H]1[C@H]1CN1[C]2[NH]	
InChI=1S/C6H8N2O/c1-6-4(9-6)3-2-8(3)5(6)7/h3-4,7H,2H2,1H3	InChI=1S/C6H8N2O/c1-6-4(9-6)3-2-8(3)5(6)7/h3-4,7H,2H2,1H3/t3-,4+,6+,8?/m1/s1
