20
gdb 72275	2.70332	1.85141	1.63109	2.2832	77.12	-0.2045	0.0726	0.2771	931.7136	0.173853	-403.104364	-403.097287	-403.096343	-403.135174	30.155	
O	-0.0228688306	 1.4187578736	 0.0079561288	-0.494244
C	 0.0111087287	 0.0257160663	-0.0615998221	 0.415153
C	 0.3791431846	-0.7389628988	-1.3305052539	-0.252822
N	-0.5597949994	-1.8296914261	-0.877221139	-0.12541
C	 0.2073923417	-2.7965075002	-0.0723377525	-0.16475
C	 1.113173756	-2.0688417442	 0.9605630317	-0.23112
C	 0.4239115724	-0.7371688651	 1.2759729341	-0.089412
C	-1.0883131085	-1.005059372	 1.5293632698	-0.249819
C	-1.2825522245	-0.8184478231	 0.0200646606	-0.021206
H	 0.8539427592	 1.7350846064	 0.2521614153	 0.276174
H	-0.0084302165	-0.2491504727	-2.2300682618	 0.106353
H	 1.4127043664	-1.0557359874	-1.5087666139	 0.090546
H	-0.5016321212	-3.4611896346	 0.429589484	 0.107771
H	 0.7961897041	-3.4199068022	-0.752816055	 0.102498
H	 1.2345071339	-2.6682930245	 1.8703198531	 0.095754
H	 2.1184373102	-1.9002700628	 0.5588073099	 0.096642
H	 0.9635158247	-0.1316266005	 2.0091034565	 0.058102
H	-1.3710738097	-1.9489157443	 2.0046989975	 0.09439
H	-1.5693534086	-0.1789114863	 2.0591957749	 0.111458
H	-2.2456271827	-0.5231601615	-0.3999955183	 0.073941
210.8576	242.8868	302.1233	315.9105	397.5492	424.8612	452.7967	489.8983	584.0846	655.9302	684.1553	749.3988	801.8189	846.0981	876.4907	899.1837	920.602	947.2528	961.8624	990.6521	1019.4287	1046.9726	1070.7288	1101.3871	1119.0146	1139.3541	1170.4998	1193.7825	1210.5132	1235.8514	1243.8643	1261.267	1275.5509	1297.0994	1305.0046	1311.7518	1351.028	1357.4303	1382.3376	1478.4201	1487.1614	1504.5518	1520.5429	3029.0542	3033.4511	3049.2366	3053.9889	3065.2489	3070.5234	3082.5699	3091.2671	3093.6715	3109.6708	3796.0227
OC12CN3CCC1CC23	O[C@@]12CN3CC[C@@H]1C[C@@H]23	
InChI=1S/C7H11NO/c9-7-4-8-2-1-5(7)3-6(7)8/h5-6,9H,1-4H2	InChI=1S/C7H11NO/c9-7-4-8-2-1-5(7)3-6(7)8/h5-6,9H,1-4H2/t5-,6+,7+/m1/s1
