23
gdb 114878	3.83081	1.01101	0.87414	0.394	93.03	-0.22	0.0267	0.2467	1433.8117	0.207106	-351.150202	-351.141405	-351.140461	-351.183795	34.259	
C	-0.1891322915	 1.4447932659	-0.0737789563	-0.378854
C	 0.1747264272	-0.0433606154	-0.0706054265	-0.193543
C	 0.8212399021	-0.4998128866	 1.2317150383	-0.06445
C	-0.0375995684	-0.5757602696	 2.5582896908	-0.263267
C	 0.7005348502	-1.9129631543	 2.9213701868	-0.033367
C	 0.0421020422	-3.2826012151	 3.1826217356	-0.240733
C	 0.6238370473	-4.1869557749	 2.0441090726	-0.234604
C	 0.9585653122	-3.1879940652	 0.9368060828	-0.240057
C	 1.073833076	-1.9740382963	 1.4653696694	 0.294613
H	 0.6989152111	 2.0702789063	 0.0709299734	 0.113117
H	-0.6520433129	 1.738436616	-1.0209560739	 0.111486
H	-0.8947948164	 1.6831579917	 0.7293909113	 0.118539
H	-0.7223831358	-0.6492306514	-0.249992893	 0.095296
H	 0.8594164634	-0.2563810209	-0.9018546057	 0.097976
H	 1.7230955472	 0.0954976992	 1.429933283	 0.07723
H	 0.0516504314	 0.2585023365	 3.2586303823	 0.09481
H	-1.0937196144	-0.7492006988	 2.3285583304	 0.100814
H	 1.5454170379	-1.7143027069	 3.5924457458	 0.070108
H	 0.2325154808	-3.6847645712	 4.1819872431	 0.09079
H	-1.0445655246	-3.2064410758	 3.060268379	 0.098053
H	 1.5120047943	-4.7382164416	 2.3853202592	 0.101574
H	-0.0955513223	-4.9433173514	 1.7109399454	 0.098177
H	 1.007048073	-3.4613673001	-0.1110278837	 0.086292
81.9824	110.7934	125.1324	204.9403	251.5092	298.7408	337.7515	404.0707	461.5147	593.9751	651.1756	681.5983	766.7079	806.0415	813.4273	844.7071	863.8397	904.3843	923.2462	931.9013	962.6995	971.3937	995.1846	1037.967	1071.4775	1082.5615	1104.2744	1139.2764	1156.906	1183.7874	1200.1886	1229.7304	1238.9249	1251.1403	1272.3487	1288.804	1304.8446	1322.1207	1335.5812	1346.8788	1389.7495	1410.8218	1474.8001	1482.9777	1487.9437	1497.7742	1499.1916	1506.7641	1729.8362	3002.2824	3008.2082	3019.3302	3022.618	3030.2139	3036.9143	3047.8036	3053.0903	3059.681	3090.8606	3096.915	3102.7779	3110.2631	3194.5543
CCC1CC2CCC=C12	CC[C@H]1C[C@H]2CC[CH][C]12	
InChI=1S/C9H14/c1-2-7-6-8-4-3-5-9(7)8/h5,7-8H,2-4,6H2,1H3	InChI=1S/C9H14/c1-2-7-6-8-4-3-5-9(7)8/h5,7-8H,2-4,6H2,1H3/t7-,8+/m0/s1
