22
gdb 116363	3.06201	1.1458	0.8855	2.2786	84.37	-0.2385	0.0207	0.2591	1373.8181	0.19527	-404.367066	-404.357853	-404.356908	-404.401453	34.459	
C	 0.0305618656	 1.5851621017	-0.1192488839	-0.387722
C	 0.0058615045	 0.0589815493	-0.0102385779	-0.184273
C	-1.4026258688	-0.5370011761	-0.0121335718	 0.146397
C	-1.3997399449	-2.0633843923	 0.0047828419	-0.199804
C	-2.779853515	-2.6722800546	-0.2418665684	-0.224724
C	-3.7668825661	-2.4660581091	 0.9110687117	-0.140543
N	-4.1720525849	-1.1136673562	 1.2532422077	-0.243339
C	-3.4048908898	-0.1202042268	 1.3526687676	 0.114828
O	-2.0726707891	 0.0498119841	 1.1209451778	-0.244601
H	 1.0583373005	 1.9600376776	-0.1134422416	 0.111801
H	-0.4418644983	 1.9221604811	-1.0489293975	 0.11148
H	-0.5062898994	 2.0425054999	 0.7149389937	 0.133848
H	 0.5578333834	-0.3845614206	-0.8472404292	 0.097745
H	 0.5142227788	-0.2613092361	 0.9076867943	 0.106226
H	-1.9368158529	-0.1992997718	-0.9143094756	 0.078429
H	-0.7079554661	-2.4008479308	-0.7761217099	 0.098588
H	-0.9920990221	-2.4109994451	 0.9633038466	 0.101607
H	-3.2054090978	-2.2554763046	-1.1644467188	 0.100408
H	-2.6806332232	-3.7522822224	-0.4050836957	 0.096707
H	-4.682148299	-3.0270493103	 0.6920544975	 0.105078
H	-3.3450516328	-2.9219399657	 1.8204026902	 0.110367
H	-3.8107553227	 0.8135449989	 1.7469497214	 0.111498
66.8096	87.9251	110.8083	196.4481	228.5112	298.6526	313.3959	367.8936	421.0811	460.7455	485.801	542.4421	739.387	776.2893	798.6932	848.5066	895.3472	911.6335	941.9712	961.6029	990.553	1033.0621	1041.9761	1087.2537	1110.1758	1140.2889	1150.1867	1156.6032	1215.0766	1256.8264	1290.9941	1307.3564	1321.4625	1371.0077	1377.2442	1393.4215	1400.1691	1404.2493	1411.7307	1434.9931	1467.7734	1478.637	1482.6017	1491.224	1496.9515	1509.7735	1758.9748	2980.9731	2991.164	3017.5425	3020.0846	3031.5581	3037.6705	3053.7892	3060.0976	3063.8474	3073.7953	3102.5612	3116.5982	3129.4849
CCC1CCCN=CO1	CC[C@H]1CCCN=CO1	
InChI=1S/C7H13NO/c1-2-7-4-3-5-8-6-9-7/h6-7H,2-5H2,1H3	InChI=1S/C7H13NO/c1-2-7-4-3-5-8-6-9-7/h6-7H,2-5H2,1H3/t7-/m0/s1
