23
gdb 122985	4.4692	0.55502	0.53611	1.339	82.87	-0.2597	0.0793	0.339	2111.4253	0.203281	-425.408515	-425.397607	-425.396663	-425.445618	38.863	
C	 0.2936575812	 1.5428183897	-0.3815988311	-0.461496
C	 0.009018145	 0.0716162694	-0.164112233	 0.429634
C	-1.4261896016	-0.3928576711	-0.345105931	-0.263933
C	-2.3945503551	 0.1789254217	 0.7005286735	-0.186072
C	-3.8127940094	-0.3798294232	 0.5560867413	-0.165293
C	-4.777591591	 0.17263651	 1.5966678326	-0.07629
O	-6.0534856171	-0.4058064236	 1.3632629092	-0.421784
C	 1.1022193017	-0.8992890213	-0.3273985398	-0.231287
O	 0.6723628632	-0.5019441952	 0.9770758154	-0.277979
H	 1.3524490752	 1.7563120936	-0.2165470242	 0.125758
H	 0.0321853088	 1.8419095767	-1.402577046	 0.119161
H	-0.2862801647	 2.163240985	 0.3086107934	 0.128354
H	-1.7660614772	-0.1238232023	-1.3543507861	 0.096552
H	-1.4463027901	-1.4870430802	-0.2866403825	 0.101269
H	-2.001753172	-0.0503862161	 1.6990421406	 0.113994
H	-2.4270161974	 1.2733454534	 0.62275722	 0.094663
H	-4.2111184633	-0.1520493091	-0.4406954063	 0.102423
H	-3.7988405743	-1.4733125546	 0.6426207931	 0.105739
H	-4.4097566293	-0.0670771499	 2.6078762744	 0.08554
H	-4.8188659799	 1.2719820458	 1.5191833986	 0.081719
H	-6.6617020729	-0.0698733314	 2.0278163161	 0.284697
H	 0.8759991103	-1.9293985019	-0.6015114354	 0.107728
H	 2.0944684399	-0.5540599054	-0.6174360328	 0.106903
50.4563	59.0235	97.3328	119.0558	142.5761	193.6669	218.9612	265.1005	299.9029	356.1808	371.9282	429.7474	437.6267	536.6512	731.3271	745.0418	795.7327	842.1636	905.2342	928.9617	929.8827	1009.6712	1012.7109	1039.2601	1062.0503	1082.4205	1100.5924	1128.6603	1135.6099	1174.462	1205.1421	1226.7658	1264.8029	1288.1965	1299.9998	1318.3124	1333.156	1353.006	1391.6298	1408.8923	1424.659	1464.0314	1471.4859	1488.0346	1491.0841	1499.0828	1506.0529	1529.5927	1531.4769	2956.9196	2982.5152	3016.6782	3020.7845	3030.3138	3038.78	3048.9439	3065.2214	3074.216	3082.3971	3103.3589	3123.362	3158.3868	3830.6335
CC1(CCCCO)CO1	C[C@@]1(CCCCO)CO1	
InChI=1S/C7H14O2/c1-7(6-9-7)4-2-3-5-8/h8H,2-6H2,1H3	InChI=1S/C7H14O2/c1-7(6-9-7)4-2-3-5-8/h8H,2-6H2,1H3/t7-/m1/s1
