15
gdb 18554	3.86688	2.09529	1.69241	3.1246	61.51	-0.2609	0.0123	0.2732	781.457	0.121171	-399.80001	-399.793755	-399.792811	-399.830508	24.099	
N	-0.1635986711	 1.2423299551	-0.4623397374	-0.543412
C	-0.073872613	 0.0635756821	-0.0512343395	 0.405502
O	 1.0038777866	-0.6323971919	 0.4696132622	-0.273136
C	 0.2071093625	-1.8516417608	 0.6463018718	 0.085262
C	-0.1603737645	-2.1233096064	 2.0978137996	-0.244141
C	-1.3215235808	-1.1380544713	 2.3380087607	-0.095692
O	-2.0076503729	-1.0536473346	 1.0857444725	-0.247332
C	-1.0378852769	-1.121965696	 0.0730467562	-0.012728
H	 0.72472928	 1.7400947891	-0.3735328981	 0.229895
H	 0.6531070084	-2.6828419638	 0.1007921987	 0.099591
H	-0.5072781304	-3.1573088249	 2.1920324201	 0.118494
H	 0.6823145023	-1.9731181216	 2.7761176548	 0.124848
H	-2.0413165917	-1.4733588918	 3.0868358851	 0.119897
H	-0.9409923752	-0.150546937	 2.63377701	 0.117327
H	-1.5044526235	-1.4584089063	-0.8525178868	 0.115625
109.6356	198.6072	285.3936	371.4132	442.4938	604.5878	642.0754	699.3721	808.0295	837.3398	857.7273	878.2136	896.6131	933.85	961.8105	994.166	1002.8806	1037.0001	1094.7892	1127.7224	1185.7112	1206.0473	1231.5228	1241.7569	1295.4501	1312.023	1346.1601	1349.1999	1393.5315	1468.3259	1520.5571	1824.6246	3013.9166	3060.8642	3113.9194	3119.2832	3124.3031	3129.6678	3467.5466
N=C1OC2CCOC12	[NH][C]1O[C@H]2CCO[C@@H]12	
InChI=1S/C5H7NO2/c6-5-4-3(8-5)1-2-7-4/h3-4,6H,1-2H2	InChI=1S/C5H7NO2/c6-5-4-3(8-5)1-2-7-4/h3-4,6H,1-2H2/t3-,4+/m0/s1
