20
gdb 26182	3.91221	0.9603	0.93236	1.0425	82.3	-0.2264	0.0153	0.2417	1399.4128	0.170254	-403.20503	-403.195495	-403.194551	-403.239935	34.599	
C	-0.0364988261	 1.5255927556	-0.006239102	-0.391526
C	-0.0291367703	-0.0134126094	 0.0473631731	-0.075688
C	 0.7027207847	-0.5273849016	 1.3010492986	-0.391523
C	-1.4171325232	-0.5646895132	-0.0334449515	 0.389655
N	-1.9300965308	-1.331425689	-0.9434028941	-0.354242
C	-3.2488062789	-1.5478121873	-0.5387918199	 0.246676
C	-4.1870265175	-2.3926671986	-1.3318446948	-0.491385
C	-3.451015867	-0.8792573975	 0.6205332601	-0.126369
O	-2.2858803764	-0.2420812027	 0.9607884895	-0.184888
H	 0.9879253431	 1.9100438624	 0.0123980607	 0.11507
H	-0.521288481	 1.887932303	-0.9173661812	 0.124588
H	-0.5716924972	 1.9420691772	 0.8525890683	 0.12849
H	 0.4803241747	-0.3964373496	-0.8421909722	 0.108076
H	 1.7288556211	-0.1476864021	 1.3227591067	 0.115081
H	 0.1966967748	-0.1922555428	 2.2116414767	 0.128454
H	 0.7420600127	-1.6203982969	 1.3164798076	 0.12463
H	-3.8011419093	-3.4122523764	-1.4364950212	 0.137757
H	-5.169780064	-2.4440391691	-0.856026549	 0.12189
H	-4.3143148857	-1.9914943182	-2.3429326708	 0.137741
H	-4.2835292036	-0.7506686439	 1.2907077952	 0.13751
34.392	119.5506	143.6999	174.0307	218.5797	250.4858	258.3046	282.7426	357.7069	410.6956	494.9083	624.7829	652.465	705.3382	744.6189	773.0427	885.3826	934.4782	960.3992	967.0118	995.7898	1026.7743	1067.0234	1067.8172	1119.7787	1129.0188	1188.3546	1231.3075	1290.6048	1337.7399	1340.1383	1357.3392	1395.6669	1418.1088	1419.5685	1475.5767	1487.6925	1490.7289	1491.026	1500.6435	1510.9677	1615.2868	1644.2641	3036.7954	3037.1178	3040.2286	3067.5441	3092.6301	3108.2776	3112.9672	3114.3119	3119.2765	3120.4302	3289.662
CC(C)C1=NC(C)=CO1	CC(C)c1nc(C)co1	
InChI=1S/C7H11NO/c1-5(2)7-8-6(3)4-9-7/h4-5H,1-3H3	InChI=1S/C7H11NO/c1-5(2)7-8-6(3)4-9-7/h4-5H,1-3H3
