18
gdb 75452	2.00266	1.60711	1.32977	3.1903	78.1	-0.2575	-0.0054	0.2521	1085.8321	0.146917	-401.980051	-401.970962	-401.970018	-402.01371	33.667	
C	-0.1301243875	 1.4785304243	 0.0322492633	-0.52106
C	-0.0110918391	-0.0087247536	-0.0533657329	 0.293791
C	 0.0544795511	-0.783617112	-1.1358926778	-0.161203
C	 0.135006784	-2.2537142061	-0.8166698791	-0.263891
C	 0.4300399744	-2.2651680771	 0.6993094768	-0.259855
C	 0.0264055598	-0.8611742176	 1.2172225281	 0.190022
O	 0.9956641168	-0.4398380613	 2.1718340648	-0.456508
C	-1.3121565669	-0.8614136699	 1.8536484525	 0.222903
N	-2.3562103411	-0.8199179259	 2.3494860497	-0.344833
H	 0.7129097453	 1.9084116956	 0.5867464847	 0.131979
H	-0.1471841573	 1.9341387385	-0.9605009479	 0.134519
H	-1.0476802597	 1.7731795306	 0.5575700743	 0.144728
H	 0.0280651433	-0.409178996	-2.1541702018	 0.100395
H	-0.8124432932	-2.7571669026	-1.0496738872	 0.123827
H	 0.9086844607	-2.7714658317	-1.3938062316	 0.114469
H	-0.0676092593	-3.0704393205	 1.2413269277	 0.123621
H	 1.5044503054	-2.3470419183	 0.8823160111	 0.133514
H	 0.6721915133	 0.3525753936	 2.6149913652	 0.293583
74.1577	132.7244	172.9375	188.9153	232.8613	258.6935	288.8508	337.3348	396.7946	485.0049	535.554	597.2096	629.6125	670.0542	698.0273	814.9201	872.5031	929.0872	951.6379	972.4041	1038.4572	1043.5646	1060.5874	1079.0115	1099.2389	1199.2582	1215.3776	1250.4382	1297.5157	1318.0085	1350.2738	1357.4442	1411.7924	1479.0923	1480.8491	1492.5439	1499.2877	1728.7429	2341.3009	3020.7186	3024.8578	3062.4659	3070.5965	3079.6968	3120.8032	3132.885	3186.0603	3808.8934
CC1=CCCC1(O)C#N	CC1=CCC[C@]1(O)C#N	
InChI=1S/C7H9NO/c1-6-3-2-4-7(6,9)5-8/h3,9H,2,4H2,1H3	InChI=1S/C7H9NO/c1-6-3-2-4-7(6,9)5-8/h3,9H,2,4H2,1H3/t7-/m0/s1
