20
gdb 124625	4.26488	0.90472	0.82645	3.6941	82.42	-0.1932	0.044	0.2372	1451.3478	0.172126	-399.349807	-399.34055	-399.339606	-399.384114	34.626	
C	-0.0833995322	 1.5102826429	-0.0101045515	-0.388816
C	 0.0276043593	-0.0207294734	 0.0539483314	 0.061981
C	 0.7225856019	-0.487256307	 1.3342425862	-0.398164
N	-1.2689884089	-0.6996626513	-0.0480621612	-0.40839
C	-1.9552054205	-0.6734390384	-1.2524700101	 0.461211
C	-1.5640922656	-0.3723429378	-2.5487622329	-0.301963
C	-2.7147356718	-0.6267967411	-3.330669255	-0.002574
N	-3.7434979843	-1.044603131	-2.6096831639	-0.239128
N	-3.2551056412	-1.0626678906	-1.3373425816	-0.286235
H	 0.9087558596	 1.973196953	-0.0127683374	 0.116197
H	-0.6129404386	 1.8267475441	-0.9123158106	 0.134439
H	-0.629797423	 1.8937441969	 0.8598763644	 0.108151
H	 0.6165569113	-0.3682615429	-0.8029603853	 0.10156
H	 0.1485721661	-0.1872976288	 2.2199746764	 0.110371
H	 0.8257402601	-1.5752095737	 1.347620981	 0.127312
H	 1.7159472173	-0.0379103743	 1.4200471691	 0.121002
H	-1.8591305575	-0.519008734	 0.755040866	 0.224938
H	-0.6019943956	-0.0180903669	-2.8774212773	 0.093865
H	-2.8256459062	-0.5109339714	-4.3995220305	 0.103031
H	-3.8398492202	-1.4080439442	-0.5961351871	 0.261211
59.9106	80.6631	142.5983	225.7726	257.6335	279.5385	316.1916	345.2245	405.7834	433.0207	475.5605	564.8876	671.0353	699.5705	752.0344	767.8741	850.0532	891.8894	930.5147	931.2063	948.4949	973.7981	1050.4755	1072.2775	1107.9864	1145.9246	1168.9061	1194.7827	1253.1381	1287.4731	1353.0763	1359.8358	1381.7644	1396.9755	1416.9802	1437.8934	1473.0449	1486.2857	1486.8175	1503.5633	1509.0665	1560.3235	1622.1868	3027.1876	3030.1215	3042.8003	3093.8702	3102.978	3121.7364	3125.7424	3237.4186	3276.54	3548.0919	3676.0555
CC(C)NC1=CC=NN1	CC(C)Nc1ccn[nH]1	
InChI=1S/C6H11N3/c1-5(2)8-6-3-4-7-9-6/h3-5H,1-2H3,(H2,7,8,9)	InChI=1S/C6H11N3/c1-5(2)8-6-3-4-7-9-6/h3-5H,1-2H3,(H2,7,8,9)
