21
gdb 97769	3.57914	0.69759	0.64795	1.9814	90.82	-0.236	0.0324	0.2684	1812.8781	0.18001	-387.053657	-387.042988	-387.042044	-387.090329	38.45	
C	-0.2581942149	 1.522095694	 0.1860016076	-0.452403
C	-0.0153419073	 0.0324685179	 0.0562126556	 0.345175
C	-1.2036934132	-0.7582379365	-0.4562915786	-0.448399
C	 1.3580660945	-0.439371135	-0.3251025468	-0.317725
C	 0.8622933695	-0.6655832035	 1.1020508908	-0.245021
C	 1.4480029739	 0.048354856	 2.1962715886	 0.044924
C	 1.9457703638	 0.6456920344	 3.1197737895	 0.08517
C	 2.4965575916	 1.3588084477	 4.2694642738	-0.192394
O	 1.5718853188	 2.2434597663	 4.8925397989	-0.404399
H	 0.608161344	 2.0365923579	 0.6075080303	 0.131332
H	-0.4762091768	 1.9612568614	-0.7942556322	 0.113352
H	-1.1146180139	 1.7238643448	 0.8394565722	 0.116603
H	-1.4942685812	-0.4167866363	-1.456796637	 0.118143
H	-0.9790543475	-1.8274682057	-0.5224702562	 0.113621
H	-2.072119559	-0.6365075556	 0.2011689201	 0.119002
H	 1.4552483271	-1.3155665002	-0.9576167861	 0.112589
H	 2.1375918061	 0.3026006251	-0.4567218718	 0.121063
H	 0.5692643716	-1.6864598315	 1.3335528539	 0.103415
H	 2.8951980118	 0.6274182245	 4.9914530916	 0.115208
H	 3.3412168546	 1.9853214284	 3.9607159384	 0.136025
H	 0.7584707266	 1.7483808459	 5.0348484575	 0.284721
29.154	68.644	96.3475	170.5719	208.5512	233.1066	242.7982	290.2135	326.871	355.8314	367.4631	374.8698	471.1182	526.9128	588.68	698.1233	737.169	841.614	914.1327	926.1852	953.0752	974.9623	990.2098	1032.3526	1053.4763	1063.4891	1077.1983	1109.8362	1151.2752	1205.171	1218.2207	1279.2631	1334.5248	1353.9667	1400.3027	1413.6784	1420.8409	1426.4164	1480.619	1483.7492	1492.7955	1493.1037	1501.2593	1513.0107	2346.5548	2970.3262	3022.4122	3029.9372	3056.5898	3083.638	3087.4629	3099.1136	3124.2595	3130.5453	3133.6321	3222.051	3817.5283
CC1(C)CC1C#CCO	CC1(C)C[C@H]1C#CCO	
InChI=1S/C8H12O/c1-8(2)6-7(8)4-3-5-9/h7,9H,5-6H2,1-2H3	InChI=1S/C8H12O/c1-8(2)6-7(8)4-3-5-9/h7,9H,5-6H2,1-2H3/t7-/m1/s1
