18
gdb 17331	3.4759	2.17976	1.82676	2.241	70.78	-0.2183	0.0739	0.2922	808.92	0.155899	-343.939463	-343.932698	-343.931754	-343.969864	27.536	
C	 0.0933250287	 1.5051188864	 0.0291002584	-0.485394
C	-0.0257788095	 0.0008337199	 0.0006290333	 0.351352
C	-0.6998467203	-0.7712163997	 1.0772673924	-0.287032
N	 0.7706282919	-0.7847513593	 0.9772557116	-0.146057
C	 1.3681431707	-1.942907013	 0.2727439829	-0.171326
C	 0.9585421769	-1.8710610965	-1.1942352865	-0.034884
N	-0.4909840958	-2.0410796726	-1.4188110361	-0.338585
C	 0.0847451888	-0.6799599329	-1.3510589756	-0.107088
H	 0.9819356931	 1.8436271941	-0.5164355748	 0.115589
H	-0.7837139052	 1.9774553613	-0.4281081855	 0.115791
H	 0.1770099422	 1.8592737052	 1.0592403971	 0.129814
H	-1.0786541608	-0.2510668759	 1.9544879652	 0.100864
H	-1.2515744724	-1.6585789218	 0.7846254886	 0.135685
H	 2.4578836606	-1.8592075973	 0.352798563	 0.105656
H	 1.0665897286	-2.882751553	 0.7465132466	 0.113361
H	 1.6534463132	-2.192297415	-1.9650139777	 0.088061
H	-0.6563242098	-2.2877424365	-2.3920795796	 0.230812
H	 0.094068919	-0.0640108735	-2.2440771734	 0.083381
192.0476	206.5771	267.3196	321.8819	371.4248	453.0564	518.5446	591.37	706.2075	737.8971	766.5379	810.297	856.1308	869.622	895.9163	950.3934	966.2224	977.0287	1010.8794	1059.0278	1091.4585	1106.9754	1128.9272	1137.2107	1159.9803	1178.6729	1230.6592	1250.195	1254.207	1339.5658	1362.7508	1379.1768	1412.2266	1429.4626	1484.7393	1488.998	1495.1267	1505.0944	3026.9854	3038.1972	3081.6378	3086.0125	3101.8487	3122.3563	3147.3065	3169.5383	3202.3547	3491.8323
CC12CN1CC1NC21	C[C@]12CN1C[C@H]1N[C@@H]21	
InChI=1S/C6H10N2/c1-6-3-8(6)2-4-5(6)7-4/h4-5,7H,2-3H2,1H3	InChI=1S/C6H10N2/c1-6-3-8(6)2-4-5(6)7-4/h4-5,7H,2-3H2,1H3/t4-,5-,6-,8?/m1/s1
