19
gdb 85618	2.23538	1.67155	1.20376	4.0181	76.81	-0.2346	-0.0086	0.226	1084.5736	0.160153	-423.049362	-423.040918	-423.039974	-423.082378	32.453	
O	 0.0428061701	 1.3404626502	 0.3040451677	-0.42314
C	 0.0337751343	-0.0642363337	 0.0281574826	 0.067447
C	-1.4487353703	-0.476677228	 0.0271226072	-0.297687
C	-2.3454293192	 0.3692478854	-0.877860087	 0.397253
O	-3.3138606609	 0.9297737127	-0.4200818948	-0.298344
C	-2.0445599643	 0.4439199592	-2.371898566	-0.285273
C	-0.6604299803	 1.0308680004	-2.7433048296	-0.257058
C	 0.4874853995	 0.097342578	-2.4488325895	-0.054342
C	 0.7753784751	-0.4057781911	-1.2474070849	-0.100246
H	 0.9468145057	 1.6525294879	 0.192609924	 0.283636
H	 0.5161675973	-0.6033696367	 0.8570174048	 0.073943
H	-1.5194805709	-1.5278890892	-0.2773630543	 0.114737
H	-1.8523909915	-0.3800433402	 1.0377929644	 0.126429
H	-2.1215904406	-0.5685596818	-2.7904251356	 0.110936
H	-2.838291532	 1.0531219147	-2.8118362239	 0.118854
H	-0.6717578207	 1.2671103133	-3.8110962548	 0.104586
H	-0.5266066091	 1.9769719947	-2.2080024463	 0.132519
H	 1.1039768692	-0.200277648	-3.2941353704	 0.096256
H	 1.6049913083	-1.1017181576	-1.1491786137	 0.089494
78.4882	121.016	185.5108	244.7756	298.4138	315.9022	373.088	410.8888	484.7476	494.2361	584.8776	638.0261	696.1669	752.2512	812.8817	869.5755	877.9508	879.7105	938.6836	994.8967	1011.2576	1033.3017	1051.0609	1080.6702	1149.3409	1207.7568	1208.8498	1241.6104	1265.3034	1276.5603	1332.4179	1344.0351	1370.8233	1382.2595	1405.5372	1423.8493	1456.5776	1467.9415	1485.0407	1715.7944	1807.9254	2983.6138	3023.5422	3044.5694	3048.5409	3090.0233	3102.5262	3112.4027	3141.4413	3165.3489	3816.9425
OC1CC(=O)CCC=C1	O[C@H]1CC(=O)CCC=C1	
InChI=1S/C7H10O2/c8-6-3-1-2-4-7(9)5-6/h1,3,6,8H,2,4-5H2	InChI=1S/C7H10O2/c8-6-3-1-2-4-7(9)5-6/h1,3,6,8H,2,4-5H2/t6-/m1/s1
