19
gdb 53046	3.45109	0.9893	0.88607	1.8222	86.04	-0.235	0.028	0.263	1405.1997	0.158196	-385.834341	-385.825227	-385.824282	-385.870189	32.74	
C	 0.0022642001	 1.498316697	-0.133979628	-0.504615
C	-0.0216621636	 0.0458219548	-0.0560612832	 0.158566
C	-0.0387949789	-1.1569641542	 0.0197361153	-0.033716
C	-0.0612998286	-2.5953312453	 0.0840084362	 0.26425
C	 0.6152538243	-3.4288544169	-1.0395959453	-0.276493
C	-0.6283174586	-4.3689532984	-1.0867311933	-0.228244
C	-1.3355307656	-3.5137427982	-0.0022960142	-0.140455
C	-0.9814986893	-3.8957291601	 1.4386146561	-0.085517
O	 0.248035889	-3.1342509787	 1.4004057812	-0.32246
H	 0.6496902389	 1.8450902936	-0.9469365063	 0.14937
H	-1.0001176368	 1.904530904	-0.3097505229	 0.149131
H	 0.3770664101	 1.9345814572	 0.7984907517	 0.154434
H	 0.770054355	-2.8618465658	-1.9600993372	 0.109199
H	 1.560555299	-3.8756861205	-0.7256997832	 0.113988
H	-1.141164865	-4.3597925303	-2.0505938368	 0.106522
H	-0.4516034842	-5.4101367039	-0.8038424229	 0.102956
H	-2.33740925	-3.1411897507	-0.208197386	 0.082947
H	-1.6684380989	-3.500255543	 2.1981361753	 0.102423
H	-0.8047163571	-4.9607500609	 1.6352614136	 0.097716
16.5704	70.5938	97.5868	126.3918	262.0101	305.6166	349.6074	354.8151	466.1292	515.347	523.5159	672.0587	741.6624	811.9455	860.4283	910.7382	939.3789	953.9254	987.1241	1010.5376	1031.4657	1050.8778	1053.1528	1077.2298	1096.1544	1133.2948	1153.1549	1183.9569	1228.9207	1240.39	1270.125	1307.649	1328.7177	1349.6755	1413.24	1461.5241	1475.9178	1477.4482	1487.9772	1523.6007	2361.7991	3005.6532	3026.2596	3049.0697	3061.2272	3070.6114	3086.5763	3089.2163	3107.5796	3127.2257	3134.2859
CC#CC12CCC1CO2	CC#C[C@]12CC[C@H]1CO2	
InChI=1S/C8H10O/c1-2-4-8-5-3-7(8)6-9-8/h7H,3,5-6H2,1H3	InChI=1S/C8H10O/c1-2-4-8-5-3-7(8)6-9-8/h7H,3,5-6H2,1H3/t7-,8-/m0/s1
