18
gdb 66488	2.95879	1.77129	1.40137	0.4188	74.38	-0.215	0.0723	0.2873	964.0943	0.147832	-401.850316	-401.84305	-401.842105	-401.881418	30.039	
C	-0.0113265228	 1.5037979323	 0.0262666967	-0.515493
C	-0.0155425851	-0.00091019	-0.0370745358	 0.335429
C	 0.2903419961	-0.8382251522	-1.299767371	-0.218521
N	-0.4855028124	-1.9735825661	-0.6757861266	-0.154256
C	 0.2365829855	-2.2478140552	 0.6020178266	-0.133021
C	 0.5803304146	-0.8309960722	 1.1300326198	-0.190581
C	-0.7256381658	-1.5011788192	 1.477108192	 0.384732
O	-1.2731620025	-1.7465509196	 2.7073929907	-0.458516
C	-1.2768669932	-0.928236795	 0.139227875	-0.16445
H	 1.0092346697	 1.8985557398	-0.0424304618	 0.120029
H	-0.5930133421	 1.9380788568	-0.7942386068	 0.116167
H	-0.4399105451	 1.8601041528	 0.9694072822	 0.125868
H	-0.244956551	-0.4794632211	-2.1848736476	 0.102563
H	 1.3290807136	-1.0671951563	-1.5577619192	 0.097909
H	 0.8479534721	-3.1244237309	 0.7736029041	 0.093744
H	 1.4377001568	-0.6261783476	 1.7571871643	 0.090738
H	-1.8071935961	-2.5476334887	 2.6494874675	 0.292198
H	-2.2978991323	-0.6923277476	-0.1580789502	 0.075459
188.2212	227.1066	271.0471	299.8638	304.8623	372.2859	464.9029	584.8738	590.5772	605.3607	735.2233	773.9527	815.1506	839.2307	847.5066	866.2763	891.5877	903.3612	933.0442	998.4447	1019.8956	1029.7496	1046.2858	1102.2329	1108.5998	1123.0607	1149.7111	1187.4042	1200.146	1223.9948	1241.208	1250.8855	1305.9276	1346.6663	1413.96	1485.0017	1491.5615	1492.8809	1500.3209	3022.9565	3041.8144	3086.3015	3093.5196	3099.9498	3123.9028	3196.3805	3209.9561	3783.5188
CC12CN3C4C1C4(O)C23	C[C@@]12CN3[C@H]4[C@@H]1[C@@]4(O)[C@@H]23	
InChI=1S/C7H9NO/c1-6-2-8-4-3(6)7(4,9)5(6)8/h3-5,9H,2H2,1H3	InChI=1S/C7H9NO/c1-6-2-8-4-3(6)7(4,9)5(6)8/h3-5,9H,2H2,1H3/t3-,4-,5+,6+,7-/m0/s1
