13
gdb 132465	3.18079	1.3995	0.97189	3.4199	68.13	-0.2047	-0.0392	0.1656	1085.1485	0.088586	-497.878489	-497.871128	-497.870184	-497.910355	28.114	
O	 0.0783697095	 1.3210287784	 0.0075809106	-0.40037
C	-0.0487418095	-0.0111308822	 0.0011265418	 0.486642
C	-1.2251313212	-0.6687235253	 0.0040944251	-0.308987
C	-1.175623117	-2.1011922433	-0.0038865107	-0.188141
C	 0.0081705638	-2.7464237333	-0.0138983402	 0.181818
F	 0.0880882808	-4.0737275993	-0.0214864372	-0.056379
C	 1.2756097808	-2.043372244	-0.017107094	 0.301743
N	 2.4161085611	-2.590441988	-0.0263697811	-0.526046
O	 1.1447411042	-0.6403731475	-0.008850557	-0.283754
H	 1.0199978996	 1.5350957775	 0.0035478408	 0.313579
H	-2.1542966378	-0.1198840429	 0.0121828457	 0.124785
H	-2.0917236806	-2.6800326046	-0.0019408997	 0.129399
H	 3.1621122462	-1.8962601853	-0.0267627841	 0.22571
113.9841	164.2144	311.9463	336.5517	344.9408	382.0634	404.3009	460.0915	515.1283	590.5073	672.8029	733.9847	749.1677	774.9363	788.2099	818.2765	927.9447	970.2295	1006.9763	1099.7449	1187.7576	1212.8641	1280.6497	1308.7181	1404.3586	1431.681	1650.2186	1709.312	1763.4412	3208.1885	3251.2108	3508.1524	3802.1195
OC1=CC=C(F)C(=N)O1	OC1=CCC(=C([NH])O1)F	
InChI=1S/C5H4FNO2/c6-3-1-2-4(8)9-5(3)7/h1-2,7-8H	InChI=1S/C5H5FNO2/c6-3-1-2-4(8)9-5(3)7/h2,7-8H,1H2
