15
gdb 18439	3.12217	2.07532	1.59013	4.7101	65.19	-0.2583	0.0259	0.2843	831.5146	0.118761	-362.632887	-362.625716	-362.624772	-362.664212	26.746	
C	-0.1781363694	 1.5392512934	-0.0817789521	-0.426404
C	 0.0600170977	 0.0560584373	 0.0870319752	 0.139761
O	 1.107459467	-0.5021906794	-0.7782331903	-0.289792
C	 1.6589988853	-1.2011759541	 0.3209548634	 0.092566
C	 2.2413672387	-0.2594526948	 1.3506936474	-0.207155
C	 2.8646401315	 0.9919092975	 1.015419052	 0.312184
N	 3.3963100356	 1.9887606373	 0.7668358245	-0.348464
C	 0.7399171649	-0.5508441212	 1.3192192442	-0.173681
H	 0.7165408881	 2.1276136969	 0.1235212841	 0.163707
H	-0.5008681024	 1.7447932773	-1.1072253142	 0.135218
H	-0.9778366966	 1.860405993	 0.594256646	 0.122934
H	-0.8633231888	-0.5032411094	-0.1107303515	 0.09869
H	 2.0069070178	-2.2168812156	 0.173395476	 0.123738
H	 2.7303846415	-0.7757628763	 2.1729685731	 0.140421
H	 0.2385747891	-0.9455397119	 2.1922862422	 0.116277
135.0692	141.4417	207.8284	236.3863	322.6347	403.1148	483.8852	600.3523	641.3562	737.1365	754.7113	793.5226	854.6529	909.9915	937.3396	986.6606	1017.3082	1043.5447	1064.8331	1089.9624	1101.026	1162.1462	1176.1955	1259.043	1294.4186	1338.4667	1387.1486	1410.4981	1422.4369	1484.1394	1499.446	2352.6588	3024.2325	3045.9894	3108.6737	3150.3878	3155.5472	3185.3914	3210.3608
CC1OC2C(C#N)C12	C[C@H]1O[C@H]2[C@@H](C#N)[C@@H]12	
InChI=1S/C6H7NO/c1-3-5-4(2-7)6(5)8-3/h3-6H,1H3	InChI=1S/C6H7NO/c1-3-5-4(2-7)6(5)8-3/h3-6H,1H3/t3-,4+,5-,6+/m1/s1
