18
gdb 65243	2.65675	1.45965	1.11276	2.7986	71.93	-0.243	0.0333	0.2762	1109.9461	0.14655	-439.084916	-439.075923	-439.074979	-439.118959	33.161	
O	-0.0161285106	 1.3882583872	 0.4989106871	-0.480481
C	 0.057755917	 0.0424188646	 0.0932066776	 0.421743
C	 1.1168278499	-0.3852282251	-0.8901280435	-0.340378
C	 1.1837085798	-0.8334987887	 0.5640987208	-0.332886
C	-1.3399183339	-0.5087004075	 0.0210571261	-0.190497
C	-2.2505074159	-0.0277284636	-1.1506626127	-0.173002
N	-2.340504965	-1.4339742708	-1.5618814206	-0.32289
C	-1.5133780298	-1.9264134352	-0.5877474901	 0.417456
O	-1.0938564825	-3.028110059	-0.3426410576	-0.370641
H	 0.8775617961	 1.732440668	 0.5942608206	 0.281759
H	 0.8834969885	-1.1309871312	-1.6420984538	 0.130775
H	 1.8189683305	 0.374209598	-1.220336054	 0.103704
H	 1.9377532662	-0.3808377872	 1.2011780314	 0.103033
H	 0.9660064999	-1.8740543818	 0.7771236526	 0.152464
H	-1.8227215296	-0.4166327869	 0.9980256665	 0.111124
H	-3.2051401667	 0.4161322923	-0.8550636294	 0.115243
H	-1.7458016222	 0.6183933314	-1.8742647155	 0.122019
H	-2.8050412915	-1.8894179542	-2.3333623957	 0.251454
59.9746	113.3322	142.6935	152.974	203.9374	315.2767	328.7079	353.4419	444.363	518.6678	532.495	650.9358	738.7668	760.197	778.1591	882.3498	886.3525	933.7089	945.7395	979.1663	984.6505	1049.7576	1060.6566	1076.1611	1079.8363	1154.9485	1165.0712	1179.4279	1188.563	1200.2669	1273.8834	1297.8256	1346.2249	1396.5121	1435.1025	1456.1675	1500.0533	1526.6066	1880.3098	3052.7727	3078.5902	3104.6402	3124.0917	3127.5208	3209.355	3224.3356	3612.2144	3821.2349
OC1(CC1)C1CNC1=O	OC1(CC1)[C@H]1CNC1=O	
InChI=1S/C6H9NO2/c8-5-4(3-7-5)6(9)1-2-6/h4,9H,1-3H2,(H,7,8)	InChI=1S/C6H9NO2/c8-5-4(3-7-5)6(9)1-2-6/h4,9H,1-3H2,(H,7,8)/t4-/m0/s1
