18
gdb 74077	2.7178	1.51179	1.10761	4.2048	79.73	-0.2282	-0.0491	0.179	1133.0957	0.147106	-401.963706	-401.955121	-401.954177	-401.996618	32.356	
C	 0.0297273884	 1.4971809855	 0.0875220708	-0.497199
C	-0.0225456135	 0.010979903	-0.0215700342	 0.374925
C	-0.0078015889	-0.7407059232	-1.1368236187	-0.313384
C	-0.0640315431	-2.1838944591	-0.8040517152	 0.399453
O	-0.133312784	-3.1250126034	-1.5604963625	-0.340967
C	-0.0667248727	-2.2746320116	 0.7249134698	 0.19054
C	-0.7537969362	-3.4350734709	 1.3855291063	-0.490246
N	 1.2030230062	-1.7054066955	 1.2703128852	-0.358304
C	-0.0367966623	-0.8751278898	 1.1942458765	-0.213976
H	 0.9246269516	 1.8073158238	 0.6415071232	 0.147897
H	 0.0439334186	 1.9777454077	-0.8932852309	 0.135964
H	-0.8323279799	 1.8791625662	 0.6485578511	 0.135893
H	 0.0588546968	-0.3810007585	-2.1558282133	 0.112219
H	-0.2851524341	-4.3752487696	 1.0793936347	 0.148315
H	-0.7056950021	-3.3572126269	 2.4765189461	 0.110176
H	-1.8072686013	-3.4837733612	 1.0923604878	 0.134866
H	 1.3015265659	-2.0531799944	 2.2263638291	 0.228149
H	-0.5122611293	-0.5515035022	 2.1143571243	 0.095681
132.9898	141.4472	172.7386	183.8651	244.1591	275.8827	302.7997	385.9458	491.6049	535.6502	568.6559	625.3741	694.7402	759.0333	808.874	869.9484	872.8563	897.6059	964.5645	995.3202	1026.6218	1049.5736	1060.8913	1100.9157	1129.5917	1162.7722	1186.0954	1274.9339	1327.3285	1359.15	1409.9436	1410.807	1438.0316	1476.2042	1479.1516	1479.8442	1498.2323	1668.7819	1814.8501	3022.9261	3035.6927	3071.902	3105.2104	3110.9909	3124.2013	3168.9027	3216.5287	3437.7785
CC1=CC(=O)C2(C)NC12	CC1=CC(=O)[C@@]2(C)N[C@@H]12	
InChI=1S/C7H9NO/c1-4-3-5(9)7(2)6(4)8-7/h3,6,8H,1-2H3	InChI=1S/C7H9NO/c1-4-3-5(9)7(2)6(4)8-7/h3,6,8H,1-2H3/t6-,7+/m0/s1
