22
gdb 117552	2.21651	1.04511	0.74666	4.5842	83.84	-0.2679	0.0385	0.3064	1582.8669	0.191696	-404.360393	-404.349288	-404.348343	-404.397336	38.854	
C	-0.1786235411	 1.3745815637	 0.0230897067	-0.230793
O	-0.0721909708	-0.0304775469	-0.0021265578	-0.227191
C	 0.6595631923	-0.5091810362	-1.1021015461	-0.071892
C	 0.6253364811	-2.0458127454	-1.0583065849	-0.156846
C	-0.7734039615	-2.492475381	-1.0864513363	 0.295112
N	-1.8674097853	-2.8603455091	-1.1453029261	-0.340322
C	 1.4385966963	-2.7297522036	-2.1957570551	 0.024477
C	 2.9101929229	-2.2903317424	-2.1867941775	-0.40617
C	 1.3386231992	-4.2583498828	-2.0968512782	-0.405524
H	 0.8090041446	 1.8573287986	 0.0919301306	 0.104906
H	-0.6896727986	 1.7591447814	-0.8727750028	 0.111909
H	-0.7643939708	 1.6388072381	 0.9060009832	 0.13637
H	 0.2282161446	-0.151636597	-2.0520734671	 0.10111
H	 1.7007975919	-0.1583190566	-1.0541321997	 0.09816
H	 1.0461607893	-2.3538693218	-0.0918274983	 0.129334
H	 0.988717848	-2.4187073641	-3.1477758358	 0.093726
H	 3.3760658329	-2.4932880867	-1.2151234335	 0.119731
H	 3.4701577238	-2.8490306088	-2.9428081137	 0.121557
H	 3.0372514765	-1.2273123696	-2.4071916433	 0.121367
H	 0.300933489	-4.5996448306	-2.1253140727	 0.147403
H	 1.8738837988	-4.7283484477	-2.9272532809	 0.116996
H	 1.7888178269	-4.6193305515	-1.1644920706	 0.116579
48.375	73.344	87.7172	138.3466	157.0238	211.3044	232.8118	238.7307	263.2177	322.6327	326.9369	403.6192	419.0305	450.8083	545.1436	616.5323	820.3717	868.9904	934.6332	949.2724	970.7883	986.9037	1056.9545	1084.3088	1141.4406	1154.6493	1169.6045	1186.0375	1188.8208	1232.5169	1257.0478	1273.8586	1339.5154	1352.7946	1373.5554	1403.3231	1415.113	1426.1904	1480.2214	1486.8986	1487.4568	1495.6405	1501.5533	1505.07	1514.4762	1528.5213	2357.1088	2964.3944	2977.0912	3011.4091	3018.4855	3022.505	3031.3108	3033.8523	3041.4782	3097.2995	3103.9585	3115.5195	3123.8013	3124.3634
COCC(C#N)C(C)C	COC[C@@H](C#N)C(C)C	
InChI=1S/C7H13NO/c1-6(2)7(4-8)5-9-3/h6-7H,5H2,1-3H3	InChI=1S/C7H13NO/c1-6(2)7(4-8)5-9-3/h6-7H,5H2,1-3H3/t7-/m1/s1
