19
gdb 56051	5.10729	0.66846	0.61842	2.0068	84.54	-0.2345	-0.0138	0.2207	1824.0014	0.157956	-419.232355	-419.222564	-419.22162	-419.268687	34.499	
C	 0.1539856076	 1.6244999368	-0.4517211358	-0.500026
C	-0.2520964201	 0.3342367101	 0.2362155504	 0.412219
O	-0.7090761159	 0.2836489554	 1.3582150068	-0.340797
N	-0.056032728	-0.8004763901	-0.5341754758	-0.338477
C	-0.3626031811	-2.0845762981	-0.1096517517	 0.115147
N	-0.1491332899	-3.0748921077	-0.8705418466	-0.268603
C	-0.4750598685	-4.3927129597	-0.4100937073	 0.05638
C	 0.6003653557	-5.2806752435	 0.1553806678	-0.248388
C	-0.5381931373	-4.8150734423	 1.0398938661	-0.286958
H	 1.2128038592	 1.6010394614	-0.7303567078	 0.144003
H	-0.4273569957	 1.7753432414	-1.3675020277	 0.145226
H	-0.0229379813	 2.4555589965	 0.2296535796	 0.156607
H	 0.3300296421	-0.7233206924	-1.4641641133	 0.258288
H	-0.7850603876	-2.1105178755	 0.8959891489	 0.139785
H	-1.1714918285	-4.8866713077	-1.0831930095	 0.096466
H	 0.6368704369	-6.3182732404	-0.1575932143	 0.111894
H	 1.570378489	-4.8249523177	 0.3229295059	 0.116097
H	-0.2999728091	-4.0905168519	 1.8100825436	 0.117897
H	-1.2991553573	-5.5309677945	 1.3308260105	 0.113241
44.0966	55.6312	77.6788	105.454	150.4304	239.4283	280.927	351.3077	429.4113	455.1173	566.1651	585.1821	636.0024	656.8791	765.894	812.103	825.7052	939.2768	955.2273	979.7926	1025.2321	1030.6414	1052.1685	1053.0688	1072.5183	1131.9658	1161.8194	1194.5851	1218.7456	1228.7806	1258.5857	1350.7799	1384.9716	1388.3172	1462.7863	1466.423	1481.9469	1497.2998	1510.3731	1745.47	1805.6892	3042.8827	3105.1015	3124.8683	3131.9319	3133.2484	3140.2599	3166.9068	3213.2709	3227.6536	3614.6477
CC(=O)NC=NC1CC1	CC(=O)NC=NC1CC1	
InChI=1S/C6H10N2O/c1-5(9)7-4-8-6-2-3-6/h4,6H,2-3H2,1H3,(H,7,8,9)	InChI=1S/C6H10N2O/c1-5(9)7-4-8-6-2-3-6/h4,6H,2-3H2,1H3,(H,7,8,9)
