23
gdb 40427	3.23783	1.19248	1.08933	0.1276	89.07	-0.236	0.0903	0.3264	1249.4006	0.208309	-351.147493	-351.139253	-351.138309	-351.18042	33.441	
C	-0.0148469125	 1.3904370744	-0.3695385643	-0.280342
C	 1.3429471301	 0.8376250049	-0.0084933988	-0.272997
C	 0.1263764196	-0.0556115143	 0.0435190574	-0.07699
C	-0.4187962006	-0.6001454675	 1.329718243	 0.397557
C	-0.3775344274	-2.0998293962	 1.5415472122	-0.34645
C	-1.7073756694	-1.4049829536	 1.3631612833	-0.062932
C	-2.4830028997	-1.0352411124	 2.6170374384	-0.212935
C	-1.4278971352	-0.3982203018	 3.5510202021	-0.230716
C	-0.3822811962	 0.2395994515	 2.6063562799	-0.290288
H	-0.4758279684	 2.0880571621	 0.3206156902	 0.111113
H	-0.2270260275	 1.6010902247	-1.4121279153	 0.107361
H	 2.0682902512	 0.6797389634	-0.7992479774	 0.106973
H	 1.7779498293	 1.1565945371	 0.9325413854	 0.111279
H	 0.048878562	-0.7659945153	-0.7762758919	 0.073636
H	-0.0200989921	-2.6983916085	 0.7099460321	 0.103559
H	-0.1084544191	-2.5018384676	 2.5135747701	 0.10316
H	-2.2593864074	-1.5925490597	 0.4477345021	 0.074935
H	-3.2584896614	-0.3036187318	 2.3587273859	 0.096483
H	-2.988276902	-1.8875800361	 3.0852458703	 0.09362
H	-1.8626384992	 0.3296811627	 4.241047718	 0.095041
H	-0.9571445759	-1.1693123439	 4.1686944459	 0.104417
H	 0.6120357278	 0.281583502	 3.0646953803	 0.095549
H	-0.6715305059	 1.271138516	 2.3722112811	 0.098967
54.1516	153.43	194.5186	242.4898	290.6645	363.3711	401.0935	476.8614	547.5656	623.2283	669.2934	781.7998	806.948	812.2797	829.4729	879.7237	890.0249	893.0833	910.8674	946.6535	966.9632	982.09	1000.2261	1037.869	1057.816	1065.6911	1075.5802	1081.2817	1083.635	1120.6268	1140.3577	1179.7316	1197.3926	1200.5815	1220.6633	1255.8451	1265.4113	1293.6689	1321.447	1339.3944	1349.9248	1384.306	1436.0637	1468.3412	1486.4874	1491.5931	1494.0148	1508.6474	1517.4296	3026.3528	3029.4927	3049.014	3064.3887	3068.7014	3097.9906	3121.5995	3126.7238	3131.5327	3137.4365	3158.6868	3202.987	3208.2794	3223.4308
C1CC1C12CC1CCC2	C1CC1[C@]12C[C@H]1CCC2	
InChI=1S/C9H14/c1-2-8-6-9(8,5-1)7-3-4-7/h7-8H,1-6H2	InChI=1S/C9H14/c1-2-8-6-9(8,5-1)7-3-4-7/h7-8H,1-6H2/t8-,9+/m1/s1
