20
gdb 58931	2.90542	1.60455	1.23052	1.7408	79.21	-0.206	0.0791	0.2851	1071.1317	0.169806	-403.037374	-403.028988	-403.028044	-403.070322	32.487	
C	 0.007828614	 1.4759449906	-0.0609998846	-0.339631
N	-0.0758194804	 0.0262704696	 0.0406423539	-0.184327
C	 0.7637731909	-0.511260516	 1.1045645326	-0.330844
C	-1.3926884578	-0.4774225063	 0.0270715475	 0.410167
C	-2.4965478309	-0.1631269942	-1.0045649222	-0.338458
C	-3.1696720743	-1.2087869941	-0.0939740501	-0.08812
C	-1.8365090908	-1.9783085688	 0.1395884413	 0.016344
O	-1.9588506109	-1.9870599279	 1.5907573197	-0.325994
C	-2.4794924011	-0.6817842651	 1.194857705	 0.014179
H	 1.0525095407	 1.7672982234	-0.2086900201	 0.119773
H	-0.5669444187	 1.8249665004	-0.9226996266	 0.126359
H	-0.3651205537	 1.9986601679	 0.8387316156	 0.097287
H	 0.4765740583	-0.1488187211	 2.1064375428	 0.104464
H	 0.7004636763	-1.6007950575	 1.1163197817	 0.137445
H	 1.8031869074	-0.2201427665	 0.9214052645	 0.111533
H	-2.9221535497	 0.843980621	-0.9827050492	 0.099311
H	-2.292483525	-0.469959924	-2.0346024256	 0.102636
H	-4.1621233792	-1.6498318432	-0.1545974971	 0.086381
H	-1.4448244885	-2.8636586588	-0.3622387545	 0.090978
H	-2.8587732566	-0.0138808995	 1.9678586355	 0.090519
59.705	162.9994	195.8612	228.1929	237.7608	351.1871	376.3361	388.506	454.8045	544.2815	641.0985	713.1551	782.5659	834.356	845.9221	872.8483	885.4911	923.6899	969.5452	984.3137	1048.4621	1055.7517	1073.2806	1083.1211	1108.6638	1125.439	1137.977	1166.1158	1167.3395	1182.2359	1204.4874	1225.1292	1260.3923	1279.6872	1320.9441	1395.6257	1444.4948	1474.3731	1477.2107	1491.5038	1498.8509	1514.0879	1526.0655	2940.0188	2962.6534	3048.9784	3065.8201	3066.9896	3104.8584	3114.1544	3114.964	3121.7839	3131.4671	3150.5804
CN(C)C12CC3C1OC23	CN(C)[C@@]12C[C@H]3[C@@H]1O[C@@H]23	
InChI=1S/C7H11NO/c1-8(2)7-3-4-5(7)9-6(4)7/h4-6H,3H2,1-2H3	InChI=1S/C7H11NO/c1-8(2)7-3-4-5(7)9-6(4)7/h4-6H,3H2,1-2H3/t4-,5-,6+,7-
