17
gdb 66505	3.36929	1.92544	1.7271	0.7913	76.23	-0.1917	-0.0743	0.1174	835.9422	0.13624	-384.533327	-384.526791	-384.525847	-384.563606	28.073	
O	 0.0014899255	 1.3593951325	 0.1164016232	-0.472258
C	 0.0397420811	-0.0162724401	 0.0259344392	 0.419863
C	-1.0777452727	-1.0054819573	 0.1555753984	-0.141034
C	-0.3442453715	-0.8468200122	-1.1759880143	-0.166515
C	 0.6680145346	-1.9971302139	-1.2943782876	-0.04044
C	 0.3317998729	-2.9386634924	-0.3398229457	-0.06568
C	-0.1601484083	-2.0663858734	 0.779182136	-0.085625
C	 1.0955642081	-0.9549393473	 0.6642934516	-0.121199
C	 1.9574796135	-1.4629901192	-0.5850148281	-0.254595
H	 0.4526764056	 1.7322081438	-0.6487090879	 0.287211
H	-2.1402688031	-0.8706982673	 0.3055251244	 0.095181
H	-0.8385020693	-0.3941248097	-2.0265827685	 0.083436
H	 1.0001153248	-3.7684632442	-0.1117530832	 0.107083
H	-0.3897436737	-2.4831634583	 1.7584089876	 0.076152
H	 1.5978817765	-0.5883656677	 1.5632328847	 0.074087
H	 2.689010089	-2.2337770489	-0.33675498	 0.10953
H	 2.4622221369	-0.6276640644	-1.0843825598	 0.094804
186.5232	277.8675	316.4141	401.5559	436.0216	551.28	586.7569	602.7513	664.2338	695.712	716.968	772.8091	826.0678	853.2909	886.4145	907.5444	913.3704	932.8735	949.1182	983.592	997.9304	1021.8339	1043.1726	1065.1328	1099.8451	1141.5615	1164.4808	1207.1996	1211.0241	1224.0602	1236.3243	1263.8985	1279.1773	1312.1612	1430.7119	1465.1963	1485.9781	3034.8498	3090.3204	3115.047	3122.5564	3132.0558	3191.1629	3207.6211	3797.7871
OC12C3C1C1=CC3C2C1	O[C@@]12[C@H]3[C@@H]1[C]1[CH][C@H]3[C@H]2C1	
InChI=1S/C8H8O/c9-8-5-2-3-1-4(5)7(8)6(3)8/h1,4-7,9H,2H2	InChI=1S/C8H8O/c9-8-5-2-3-1-4(5)7(8)6(3)8/h1,4-7,9H,2H2/t4-,5+,6-,7+,8+/m0/s1
