17
gdb 91896	2.3756	1.60405	1.08222	2.1857	68.46	-0.248	-0.0324	0.2155	1093.3688	0.136325	-458.969877	-458.962027	-458.961083	-459.002347	30.158	
O	-0.1641643621	 1.4502843906	-0.146396508	-0.433522
C	 0.0242566971	 0.0508135815	-0.0305692415	 0.110669
C	-1.3657890119	-0.5600837027	 0.1873431439	-0.224464
C	-1.4402521389	-2.0489969605	-0.0970976974	 0.025651
O	-1.4786462102	-2.4183182358	-1.4703451676	-0.237139
C	-0.3147947958	-2.7929012723	-0.7213047942	-0.057507
C	 0.9373967269	-2.0333098776	-1.0531635089	 0.383251
O	 2.017720825	-2.5768431576	-1.0684242907	-0.313392
C	 0.7260194605	-0.5459764198	-1.2710839147	-0.343019
H	 0.7014459325	 1.8702712113	-0.1823115229	 0.28613
H	 0.6489248666	-0.1756122897	 0.8491764566	 0.081279
H	-1.6932141952	-0.3613351247	 1.212105496	 0.115317
H	-2.0699032167	-0.0486426154	-0.4788608791	 0.136281
H	-2.1170343482	-2.6282802937	 0.5305427884	 0.109556
H	-0.1842046695	-3.8580204612	-0.5419694186	 0.110039
H	 0.0939417677	-0.3801703179	-2.1496168099	 0.140201
H	 1.7007241722	-0.0779963645	-1.4331035911	 0.110669
93.4409	127.2866	235.3503	300.7258	332.2972	355.1222	407.6976	441.572	497.2094	506.5379	590.3116	708.6056	796.1339	817.7015	856.0361	904.7184	927.2233	993.1686	1006.6602	1064.3781	1086.6524	1111.5406	1138.5983	1143.3897	1225.8088	1258.1908	1264.0048	1278.4843	1297.8689	1344.9844	1357.5513	1390.8276	1423.769	1441.6753	1465.5997	1481.6631	1812.7353	2962.4621	3048.8851	3055.0083	3094.4336	3113.9829	3116.1821	3146.6258	3816.7779
OC1CC2OC2C(=O)C1	O[C@H]1C[C@H]2O[C@H]2C(=O)C1	
InChI=1S/C6H8O3/c7-3-1-4(8)6-5(2-3)9-6/h3,5-7H,1-2H2	InChI=1S/C6H8O3/c7-3-1-4(8)6-5(2-3)9-6/h3,5-7H,1-2H2/t3-,5-,6+/m1/s1
