18
gdb 53250	3.91767	0.77902	0.75636	4.6084	88.7	-0.2484	0.0136	0.2619	1576.1855	0.145392	-364.80103	-364.790848	-364.789904	-364.838889	35.361	
C	 0.0612456868	 1.4845867079	-0.0115108101	-0.500341
C	 0.0257095647	 0.029716249	 0.0107279446	 0.123022
C	 0.0017933491	-1.1750754186	 0.0292014231	 0.048724
C	-0.0049346648	-2.6078570118	 0.0374593344	-0.240325
C	-0.4603714639	-3.3873205852	 1.2508102684	-0.30737
C	-1.3445920325	-3.3800466166	 0.0199756699	 0.151353
C	-2.6605435577	-2.6223797431	 0.0383142029	-0.456045
C	-1.3468976126	-4.5796534318	-0.7800242193	 0.244921
N	-1.3538052852	-5.5389751669	-1.4272068838	-0.347303
H	 1.0929160036	 1.8523191413	-0.0374217129	 0.154515
H	-0.4556906339	 1.8837277108	-0.8911386453	 0.152641
H	-0.418529738	 1.9077391581	 0.8778189425	 0.150846
H	 0.784602239	-3.0756081958	-0.5431394665	 0.134922
H	 0.0740046535	-4.2976788153	 1.49411816	 0.141129
H	-0.820800095	-2.8199418412	 2.100879457	 0.134534
H	-2.5545443186	-1.7031686983	 0.617714834	 0.136686
H	-2.9683238098	-2.3521360464	-0.975653239	 0.141737
H	-3.4493392546	-3.2336686762	 0.48603897	 0.136353
5.0614	75.5084	85.9367	169.6303	181.7184	204.9891	250.7364	300.8175	349.8173	358.0043	464.9025	507.9648	573.867	583.9445	676.1163	728.9654	828.1109	913.6212	951.9647	966.9291	1037.8744	1051.5304	1053.3465	1082.2489	1106.5246	1117.488	1208.535	1269.4066	1293.9964	1400.2214	1415.1293	1417.6737	1476.0267	1477.81	1478.5398	1486.5119	1498.5294	2347.2412	2368.3931	3027.9176	3048.7931	3089.2505	3090.5162	3117.8587	3137.0763	3146.9115	3154.0702	3241.8967
CC#CC1CC1(C)C#N	CC#C[C@H]1C[C@]1(C)C#N	
InChI=1S/C8H9N/c1-3-4-7-5-8(7,2)6-9/h7H,5H2,1-2H3	InChI=1S/C8H9N/c1-3-4-7-5-8(7,2)6-9/h7H,5H2,1-2H3/t7-,8+/m0/s1
