13
gdb 132460	3.26243	1.43205	0.99556	0.9539	67.77	-0.2049	-0.0452	0.1598	1065.0019	0.089657	-494.059587	-494.052165	-494.051221	-494.09145	28.337	
N	 0.0409338432	 1.3235394618	-0.0172159001	-0.547977
C	-0.0314315254	-0.0313074953	 0.0101947003	 0.35173
N	-1.1606992317	-0.6598123481	 0.08415357	-0.335919
C	-1.1252715523	-2.0434378831	 0.1599132379	-0.247615
C	 0.0353663558	-2.7042451508	 0.1497825865	 0.318708
F	 0.1946222837	-4.0082730866	 0.2215857499	-0.043282
O	 1.2346029365	-2.0866073982	 0.0583552826	-0.227247
C	 1.2845973954	-0.7154164145	-0.0297239513	 0.361363
N	 2.3732653449	-0.0773202827	-0.1467604679	-0.540442
H	 0.9281193938	 1.732488691	-0.2617414365	 0.280839
H	-0.8094188816	 1.8370885441	-0.1747605657	 0.265318
H	-2.0645944728	-2.5744437138	 0.2291098279	 0.128358
H	 3.1807856004	-0.6992932838	-0.1677825535	 0.236167
111.8518	164.7032	294.2995	344.2037	348.1765	393.9038	439.8092	492.3182	517.7318	535.6828	587.0226	614.6647	716.9358	788.7651	799.3271	846.7222	858.6395	987.23	1040.3732	1103.9549	1247.8505	1270.2605	1297.0959	1365.7141	1433.8614	1582.5429	1669.0605	1694.4226	1747.7653	3224.3871	3502.203	3598.5058	3734.6872
NC1=NC=C(F)OC1=N	NC1=C(OC(=C[N]1)F)[NH]	
InChI=1S/C4H4FN3O/c5-2-1-8-3(6)4(7)9-2/h1,7H,(H2,6,8)	InChI=1S/C4H4FN3O/c5-2-1-8-3(6)4(7)9-2/h1,7H,(H2,6,8)
