19
gdb 36293	3.84669	1.09159	1.02869	4.5206	79.54	-0.2334	0.027	0.2604	1215.1601	0.161676	-382.048685	-382.041035	-382.040091	-382.081252	29.96	
N	 0.1032063081	-1.1216938452	 0.1186656922	-0.309218
C	 0.0588466797	 0.0266552956	 0.2349324432	 0.280111
C	-0.0120050447	 1.4879273056	 0.3573172803	-0.301524
N	 1.3040337057	 2.0789791907	 0.147787963	-0.105922
C	 1.7757495817	 2.1437548878	-1.2941464955	 0.004322
C	 0.9349788531	 3.4322652547	-1.4976309199	-0.239709
C	 1.3063309312	 3.5888303439	 0.0009353466	 0.009161
C	 2.8262792787	 3.8313069947	-0.0481615358	-0.207782
C	 3.1946730568	 2.6958099251	-1.0642242152	-0.204388
H	-0.8131848076	 1.8344845008	-0.318883966	 0.128158
H	-0.3379475639	 1.7292319081	 1.3762982543	 0.152622
H	 1.6579600868	 1.2472249383	-1.9027052179	 0.089418
H	 1.2930324774	 4.1843244206	-2.2066235812	 0.099075
H	-0.1245595945	 3.2440459915	-1.6721132342	 0.107035
H	 0.7098963447	 4.16632706	 0.7087729932	 0.071398
H	 3.0739208413	 4.832463972	-0.409634741	 0.099644
H	 3.2882426789	 3.6838136413	 0.9293026649	 0.111737
H	 3.8514335906	 1.9416638575	-0.628160544	 0.115927
H	 3.6478721059	 3.0704738271	-1.9852483971	 0.099936
61.0018	114.4194	276.5445	280.224	329.7255	388.6463	421.0405	495.4328	585.7411	666.5574	773.519	825.1825	827.1431	844.6474	883.6766	912.6764	935.8328	954.0735	956.7464	1000.4149	1014.5962	1044.1522	1055.5711	1096.3985	1105.0718	1181.5024	1185.988	1225.0695	1235.2969	1253.7309	1255.7139	1277.8095	1305.1076	1313.7592	1333.0857	1377.921	1475.0664	1480.7886	1496.2302	1521.223	2366.0351	2953.5956	3051.9791	3063.9305	3067.6714	3076.7171	3109.628	3117.8866	3123.972	3132.7025	3136.2156
N#CCN1C2CC1CC2	N#CCN1[C@H]2C[C@@H]1CC2	
InChI=1S/C7H10N2/c8-3-4-9-6-1-2-7(9)5-6/h6-7H,1-2,4-5H2	InChI=1S/C7H10N2/c8-3-4-9-6-1-2-7(9)5-6/h6-7H,1-2,4-5H2/t6-,7+
