21
gdb 90593	2.50875	1.39242	1.06496	3.0085	82.9	-0.2322	-0.0149	0.2174	1218.3138	0.18177	-387.092368	-387.083308	-387.082364	-387.126363	34.245	
C	-0.9209010411	 1.1470134296	 0.2883121506	-0.414587
C	-0.039040835	-0.0581500533	-0.0035011145	 0.042083
C	 1.1139244167	 0.0722644953	-1.0445942061	-0.265368
C	 2.0766826231	-0.7110242885	-0.0847940406	-0.153783
C	 0.9845879001	-0.5649844848	 1.0481012538	-0.055651
C	 1.8742990306	 0.5043076015	 1.7646841074	-0.116887
C	 2.2723253977	 0.2254562864	 3.2131430909	-0.404783
C	 2.9833535835	 0.2025986407	 0.7295952982	 0.410287
O	 4.1473332263	 0.4845648459	 0.6809107537	-0.316479
H	-0.3319274453	 2.0335182472	 0.5460164474	 0.117611
H	-1.5285142483	 1.4039504822	-0.5865746677	 0.118394
H	-1.6052301653	 0.9462513555	 1.1202163406	 0.116786
H	-0.6763961348	-0.9024890038	-0.2893393408	 0.076813
H	 0.9409213062	-0.4133407335	-2.0066362495	 0.11242
H	 1.4317214484	 1.1011158182	-1.2388987118	 0.109418
H	 2.4816064428	-1.652119188	-0.4575723075	 0.08596
H	 0.6906587428	-1.3995150735	 1.6864563575	 0.068822
H	 1.4942448445	 1.5280348934	 1.6782211249	 0.094956
H	 2.634778525	-0.8009807893	 3.3337163302	 0.120196
H	 3.0754974342	 0.9001529931	 3.5232113551	 0.135494
H	 1.4223913578	 0.3652997656	 3.8884476182	 0.118296
46.7992	145.9636	173.4288	211.0556	216.8054	237.8533	282.431	350.4837	405.5918	490.5495	573.7217	692.1078	724.2776	772.618	808.3694	834.3	877.9481	892.4696	920.8749	943.5364	992.4744	1034.5808	1040.842	1089.3504	1107.9672	1117.5341	1131.4504	1147.7069	1192.2778	1200.4224	1231.4296	1251.0726	1258.0662	1277.1918	1303.1637	1343.8477	1370.7408	1403.8247	1411.1329	1486.5275	1492.9916	1494.1134	1496.562	1499.8284	1876.7293	3027.0265	3034.1063	3035.1121	3050.7762	3057.4792	3092.0165	3094.2491	3097.854	3102.9506	3108.3614	3114.2885	3120.6411
CC1CC2C1C(C)C2=O	C[C@H]1C[C@@H]2[C@H]1[C@@H](C)C2=O	
InChI=1S/C8H12O/c1-4-3-6-7(4)5(2)8(6)9/h4-7H,3H2,1-2H3	InChI=1S/C8H12O/c1-4-3-6-7(4)5(2)8(6)9/h4-7H,3H2,1-2H3/t4-,5+,6+,7+/m0/s1
