17
gdb 52868	2.74667	1.05155	0.83027	1.5933	79.	-0.2443	-0.0254	0.2189	1422.8767	0.131479	-421.796838	-421.786608	-421.785664	-421.833926	34.807	
C	 0.0981445317	 1.6467966133	 0.5491294633	-0.506486
C	 0.0776442648	 0.222687845	 0.2561834344	 0.207942
C	 0.0656379586	-0.955676317	 0.0120944187	-0.031432
C	 0.0644249944	-2.357951867	-0.3048577319	 0.089721
C	-0.6954284909	-3.307953953	 0.5537246843	-0.206057
O	-1.1947228465	-2.9355327764	-0.7158053101	-0.257698
C	 1.2916072777	-2.8937777636	-1.036092435	 0.305855
C	 1.0806817942	-4.1013130033	-1.9254369306	-0.484146
O	 2.3600270546	-2.3498329784	-0.9042369038	-0.282434
H	 1.1028383567	 2.0588361543	 0.4067244914	 0.159912
H	-0.583832431	 2.1947422601	-0.1101570042	 0.154997
H	-0.2030347311	 1.8467122075	 1.5830940965	 0.151671
H	-0.3553625782	-4.3381566262	 0.6523647769	 0.121393
H	-1.223046156	-2.8988724155	 1.4129175199	 0.134875
H	 0.4395660916	-3.8223902438	-2.7683568721	 0.15976
H	 2.0491048436	-4.4426435421	-2.2920597625	 0.140946
H	 0.5668937058	-4.914132644	-1.4049158053	 0.141181
23.5048	58.5407	79.6588	110.1748	136.7724	238.716	272.2006	302.012	328.6405	395.0299	447.4752	508.3021	562.1251	604.0002	622.1272	804.3602	845.6448	913.5305	963.3714	1030.4388	1047.588	1050.9866	1053.7964	1137.9679	1142.0724	1179.9523	1302.0831	1350.6233	1389.5528	1413.0284	1453.417	1468.5454	1474.8938	1475.9871	1520.1415	1817.7006	2375.9313	3030.622	3050.988	3086.638	3092.5252	3095.9935	3114.4304	3158.8482	3181.5815
CC#CC1(CO1)C(C)=O	CC#C[C@]1(CO1)C(=O)C	
InChI=1S/C7H8O2/c1-3-4-7(5-9-7)6(2)8/h5H2,1-2H3	InChI=1S/C7H8O2/c1-3-4-7(5-9-7)6(2)8/h5H2,1-2H3/t7-/m0/s1
