18
gdb 9968	2.48098	1.91332	1.64669	1.6926	63.86	-0.2278	0.0656	0.2934	914.149	0.15129	-422.039725	-422.030744	-422.0298	-422.072581	33.23	
C	 0.1681307494	 1.0903719039	-0.3902160214	-0.256118
O	-0.1181559848	-0.1303004047	 0.2885247872	-0.300386
C	-1.4228652073	-0.6101425349	 0.1227164122	 0.33198
C	-2.4786040521	 0.0435706334	 0.9803047655	-0.460392
C	-1.7941109684	-1.1991207333	-1.2396021747	 0.023975
O	-0.8832810666	-1.1546713078	-2.289024986	-0.431209
C	-1.4314109188	-2.1108726661	-0.0810289959	-0.014472
O	-0.1864021653	-2.7358045511	-0.2148711133	-0.436523
H	 1.221744361	 1.3092081026	-0.2018285594	 0.125615
H	-0.002894543	 0.9878276289	-1.4654246189	 0.146133
H	-0.4359826618	 1.9175291817	 0.0043962755	 0.111893
H	-2.6147649208	 1.0980011173	 0.716338312	 0.123251
H	-3.4439455153	-0.4545272037	 0.8482134126	 0.122341
H	-2.2063240001	-0.0152045411	 2.0393844732	 0.127747
H	-2.8303308022	-1.1201083788	-1.5599762143	 0.096048
H	-0.2521163844	-1.8696747237	-2.110113139	 0.289179
H	-2.1776241228	-2.7273291986	 0.4122391611	 0.099124
H	 0.4622404535	-2.1001615742	 0.1245105536	 0.301815
125.997	163.1992	173.9834	197.4686	234.9292	256.1129	283.8224	320.4129	363.8598	388.2913	546.6887	589.5439	631.3536	669.7915	726.091	825.6752	849.4517	955.6983	1013.5133	1081.8555	1089.8425	1118.9892	1144.2947	1170.13	1178.7633	1209.3905	1242.0454	1289.7705	1318.4641	1374.5044	1396.0442	1411.0147	1450.9683	1472.7359	1479.595	1494.7946	1500.0789	1511.7742	3015.9805	3031.8702	3094.0443	3097.9633	3107.6025	3131.4011	3132.8452	3147.6069	3687.169	3711.3697
COC1(C)C(O)C1O	CO[C@@]1(C)[C@@H](O)[C@H]1O	
InChI=1S/C5H10O3/c1-5(8-2)3(6)4(5)7/h3-4,6-7H,1-2H3	InChI=1S/C5H10O3/c1-5(8-2)3(6)4(5)7/h3-4,6-7H,1-2H3/t3-,4+,5-
