14
gdb 25830	4.14029	1.1222	0.88366	13.5434	66.88	-0.19	-0.0151	0.1749	1209.3296	0.101766	-470.046281	-470.038209	-470.037265	-470.079171	29.607	
N	 0.1103835896	 1.3601833697	 0.1252930573	-0.598743
C	 0.0067173348	-0.0013268118	 0.0274580528	 0.498452
N	-1.1458452827	-0.7007538233	 0.0160908851	-0.303327
H	-2.0642823339	-0.2907758454	 0.073044364	 0.284035
C	-0.8527759689	-2.0762742318	-0.0051690841	-0.199365
C	 0.4963681569	-2.1854059096	-0.004390537	 0.170495
N	 0.9917106203	-0.8880652197	 0.0137152814	-0.273698
C	 1.6173591276	-3.2582440428	-0.0342316365	 0.340852
O	 2.7379038114	-2.6876913047	-0.0295459771	-0.515235
O	 1.2528336547	-4.4295164486	-0.0586180413	-0.442253
H	 1.0364086148	 1.7247101898	-0.044799961	 0.288122
H	-0.6058442633	 1.895273941	-0.3443203374	 0.278522
H	-1.6285609249	-2.8198341681	-0.0275954966	 0.176213
H	 2.0251464837	-0.8850574048	 0.0073857804	 0.295929
102.5385	129.9005	140.1874	198.5689	307.0942	342.1166	386.5461	519.9503	540.3841	565.8447	608.9762	692.3537	730.5662	743.2225	767.5933	805.0463	865.365	920.5518	1002.8395	1038.329	1109.0249	1148.0024	1210.1538	1286.3755	1311.5892	1394.3292	1554.2614	1607.4094	1641.5469	1686.9849	1805.799	3299.0357	3310.6324	3574.1933	3649.2885	3673.5475
NC1=[NH+]C=C(N1)C([O-])=O	N[C@@H]1NC=C(N1)C(=O)[O]	
InChI=1S/C4H5N3O2/c5-4-6-1-2(7-4)3(8)9/h1H,(H,8,9)(H3,5,6,7)	InChI=1S/C4H6N3O2/c5-4-6-1-2(7-4)3(8)9/h1,4,6-7H,5H2/t4-/m1/s1
