20
gdb 73317	2.83954	2.01695	1.40621	1.9119	82.63	-0.2202	0.0846	0.3047	971.1756	0.172584	-365.912136	-365.905049	-365.904105	-365.943041	29.811	
C	-0.0206967687	 1.5765517572	-0.0451128872	-0.507419
C	 0.0625505126	 0.0680470879	 0.0074964621	 0.314761
C	 0.5618763015	-0.6909925319	-1.2675286007	-0.262076
C	 0.5156380744	-2.2143843591	-0.8435932828	-0.362734
C	 0.0038076077	-1.9690403747	 0.5655742977	 0.292565
C	-0.4651296896	-2.3696576805	 1.9767239189	-0.275767
N	-0.5957066195	-0.839374163	 2.0545509169	-0.192698
C	 0.6766836301	-0.7181954034	 1.1782614761	-0.059858
C	-1.0476377945	-0.8345050882	 0.5722256592	-0.059864
H	 0.9602201588	 2.0204502219	-0.2503571925	 0.114206
H	-0.7038470411	 1.9082207867	-0.8354734489	 0.114204
H	-0.3822635872	 1.9787924701	 0.9060388985	 0.133839
H	-0.0860770353	-0.4884355412	-2.1266400498	 0.10133
H	 1.5738032642	-0.3764692163	-1.5432536525	 0.101331
H	-0.1666848431	-2.7982289028	-1.4677123094	 0.103098
H	 1.5017519345	-2.6856815035	-0.8812984477	 0.103098
H	-1.4211636486	-2.8941798074	 2.07555799	 0.101588
H	 0.2749666258	-2.7797668845	 2.671677433	 0.101588
H	 1.6686783448	-0.6545635295	 1.6322814241	 0.069403
H	-2.1048997367	-0.9090951178	 0.306012695	 0.069404
212.6432	220.7753	241.2743	282.9687	356.974	443.2085	456.2978	601.8195	667.9136	715.9565	764.4694	821.2261	837.4066	844.7512	852.0341	893.8506	898.4183	901.7807	916.4719	1006.4199	1011.4038	1060.538	1063.8961	1068.3539	1098.2207	1145.4902	1154.4643	1180.4773	1185.1235	1198.9709	1223.1749	1223.3524	1245.1881	1268.1762	1290.8414	1317.1822	1374.1216	1412.6167	1484.3507	1494.2185	1495.0013	1507.9795	1513.257	3025.777	3035.4531	3043.0677	3057.4996	3079.4447	3081.1649	3086.252	3086.2576	3097.2604	3104.738	3105.8595
CC12CCC34CN(C13)C24	C[C@@]12CC[C@@]34CN([C@H]13)[C@@H]24	
InChI=1S/C8H11N/c1-7-2-3-8-4-9(5(7)8)6(7)8/h5-6H,2-4H2,1H3	InChI=1S/C8H11N/c1-7-2-3-8-4-9(5(7)8)6(7)8/h5-6H,2-4H2,1H3/t5-,6+,7-,8-
