14
gdb 34904	2.06102	1.91137	1.2309	5.0377	69.22	-0.2838	-0.0197	0.264	995.0284	0.101907	-395.696876	-395.6893	-395.688356	-395.729359	27.617	
N	-0.2312169797	-1.2149504816	 0.0270527192	-0.312968
C	-0.1318781951	-0.0636381619	 0.0307698449	 0.299496
C	-0.0034682806	 1.3849995434	 0.0530550597	-0.199383
C	-0.2240680331	 2.1041045773	 1.388779565	-0.023607
C	 0.8349871671	 1.7858964385	 2.3596741787	-0.249402
N	 1.1220869615	 2.8084877638	 1.3311990905	-0.121573
C	 1.42489842	 2.055728962	 0.0598518417	-0.141471
C	 2.6032804311	 1.2010498483	 0.0917330192	 0.324681
N	 3.5396114176	 0.5248185051	 0.1272303849	-0.313826
H	-0.6033407324	 1.8127830331	-0.7522243557	 0.150281
H	-1.1355169653	 2.6313436798	 1.6438758848	 0.127813
H	 0.742383149	 2.2204598006	 3.3489124135	 0.148486
H	 1.3526702786	 0.8307241279	 2.3253213153	 0.160726
H	 1.5212972712	 2.7692726338	-0.7602575517	 0.150747
99.6007	101.9757	172.1245	215.8151	325.4941	415.8113	453.2737	517.1061	595.5401	616.6963	758.7276	761.7806	790.4698	808.259	955.2803	973.2435	1019.8553	1032.9009	1070.5951	1096.073	1120.5729	1139.1654	1189.8875	1226.1862	1257.2317	1335.1016	1349.3348	1370.4192	1505.0976	2359.5056	2360.2927	3096.5448	3107.8617	3124.1671	3189.9725	3220.226
N#CC1C2CN2C1C#N	N#C[C@H]1[C@H]2CN2[C@H]1C#N	
InChI=1S/C6H5N3/c7-1-4-5(2-8)9-3-6(4)9/h4-6H,3H2	InChI=1S/C6H5N3/c7-1-4-5(2-8)9-3-6(4)9/h4-6H,3H2/t4-,5+,6-,9?/m1/s1
