21
gdb 91869	2.28301	1.55577	1.04102	3.3375	82.69	-0.2307	-0.0048	0.2259	1204.1429	0.18403	-387.122212	-387.113846	-387.112902	-387.155039	32.999	
C	 0.0332822298	 1.5755818982	 0.0139955757	-0.40317
C	 0.00899304	 0.0451558725	-0.0066534447	 0.030839
C	 0.6538734631	-0.5130225415	-1.2891968823	-0.22137
C	 0.8578707477	-2.0298002587	-1.2844542696	-0.046188
C	 2.090766718	-2.6173526554	-0.6768273451	-0.290794
C	 0.7527758502	-2.803093423	 0.0291013449	-0.109981
C	 0.4741422997	-2.0612519472	 1.2903846735	 0.390348
O	 0.0425378674	-2.6209835445	 2.2756895497	-0.334936
C	 0.6909967339	-0.5546388517	 1.2410916639	-0.316772
H	 1.0634519318	 1.9509380119	 0.0241327177	 0.113915
H	-0.4639533228	 1.99138129	-0.868934411	 0.113647
H	-0.4738814523	 1.9678509782	 0.9011656236	 0.117875
H	-1.0406788354	-0.2808408134	 0.0097505953	 0.084725
H	 0.0315825043	-0.2373051655	-2.1472169606	 0.103733
H	 1.620214957	-0.0142100958	-1.4434869736	 0.099729
H	 0.4597073545	-2.5538291539	-2.1472326165	 0.096142
H	 2.5307676159	-3.5038773269	-1.1190925959	 0.122868
H	 2.810023475	-1.9390975785	-0.2290979473	 0.119675
H	 0.3304061891	-3.8013631893	 0.0137427791	 0.102976
H	 1.7663076069	-0.3281329982	 1.2130871602	 0.109376
H	 0.2899165963	-0.1326116875	 2.1661411929	 0.117366
91.408	129.152	212.2272	238.6773	287.2739	353.8828	393.7682	415.1333	460.4629	482.4904	571.1463	681.8599	754.2936	797.9251	853.8082	869.0891	872.9287	897.6508	946.2701	952.314	991.5234	1005.1586	1064.525	1094.8359	1097.089	1118.1946	1131.5376	1165.4979	1188.7098	1217.4375	1258.2757	1286.4996	1289.6834	1322.1716	1367.3402	1373.1209	1384.0272	1394.0502	1413.1601	1467.0274	1483.5885	1495.5923	1498.245	1500.9462	1795.1262	2999.8294	3014.6741	3020.3485	3027.5921	3066.6453	3092.4588	3099.3707	3103.3953	3133.5542	3157.0572	3179.5496	3220.1062
CC1CC2CC2C(=O)C1	C[C@H]1C[C@H]2C[C@H]2C(=O)C1	
InChI=1S/C8H12O/c1-5-2-6-4-7(6)8(9)3-5/h5-7H,2-4H2,1H3	InChI=1S/C8H12O/c1-5-2-6-4-7(6)8(9)3-5/h5-7H,2-4H2,1H3/t5-,6-,7+/m0/s1
