17
gdb 105961	3.06003	1.562	1.23265	1.7742	71.61	-0.2021	0.0704	0.2724	1034.068	0.133598	-421.685844	-421.677832	-421.676888	-421.718447	30.989	
C	-0.0144115535	 1.2896809704	 0.0503060597	-0.261087
O	 0.0269360376	-0.1201440006	-0.0656263655	-0.279066
C	 0.647436749	-0.5816588965	-1.1918485423	 0.353089
C	 0.6336715053	-0.1621184708	-2.6584997902	-0.187841
C	 0.8024706384	-1.6496745638	-3.0831536822	-0.134169
C	 2.1348522913	-1.7248356202	-2.317596126	-0.18135
C	 1.966134791	-0.2414610626	-1.8820978668	-0.192058
C	 0.8163264685	-2.0834562416	-1.6373795027	 0.314381
O	 0.3453265224	-3.2621414655	-1.1325317543	-0.447088
H	 0.9961091681	 1.7199788449	 0.0942997707	 0.115161
H	-0.5576403497	 1.7450627499	-0.789258571	 0.117698
H	-0.5390305694	 1.5156019698	 0.9804692716	 0.134059
H	 0.1893064969	 0.6863184453	-3.1622749091	 0.087982
H	 0.4732849446	-2.2058931791	-3.9508988704	 0.092471
H	 3.0043678349	-2.3398339768	-2.5113906151	 0.087924
H	 2.6883379167	 0.5417275135	-1.6923284542	 0.087578
H	 0.8469877279	-3.4775838562	-0.3373729123	 0.292316
64.9662	156.4873	191.9038	255.8884	275.8287	360.2084	387.3782	479.0867	560.8008	652.9156	655.4146	747.0151	785.688	839.5014	841.6788	855.0361	892.8543	897.0939	903.9274	941.3723	948.983	1019.6231	1034.2665	1069.8869	1157.6032	1170.464	1178.1156	1207.0491	1219.2903	1232.2978	1249.6766	1311.0354	1409.9633	1470.2593	1486.6855	1495.9917	1506.9885	2993.0112	3047.0439	3128.2782	3183.936	3194.6937	3198.4641	3206.2328	3777.6433
COC12C3C4C(C13)C24O	CO[C@@]12[C@@H]3[C@H]4[C@@H]([C@H]13)[C@@]24O	
InChI=1S/C7H8O2/c1-9-7-4-2-3(5(4)7)6(2,7)8/h2-5,8H,1H3	InChI=1S/C7H8O2/c1-9-7-4-2-3(5(4)7)6(2,7)8/h2-5,8H,1H3/t2-,3+,4-,5+,6-,7+
