18
gdb 22098	3.61139	0.79548	0.70906	1.5081	78.68	-0.2401	0.0081	0.2482	1575.864	0.143258	-439.006825	-438.996165	-438.995221	-439.043535	37.813	
C	-0.2472539949	 1.5793233486	-0.0485349137	-0.495581
C	-0.0284680349	 0.0926858051	-0.0385974356	 0.354598
C	 0.0141313108	-0.6416892039	 1.2809489801	-0.279638
C	 1.3718959108	-0.5029607662	 2.0183749006	-0.049358
O	 1.6939051006	 0.8486177122	 2.3413547858	-0.413225
C	 1.3975440773	-1.3533708895	 3.2111649117	 0.29609
C	 1.377200094	-2.0214835557	 4.2104324809	-0.443146
N	 0.1357143738	-0.6510491448	-1.0667209228	-0.16652
O	 0.1136781393	 0.065475884	-2.2727368196	-0.397136
H	 0.5487975298	 2.0684614186	 0.520051895	 0.156883
H	-0.2747226742	 1.97226352	-1.0631375014	 0.151015
H	-1.1926675734	 1.8188433257	 0.4531862138	 0.124253
H	-0.7792597627	-0.278166873	 1.9459473064	 0.101594
H	-0.1609600931	-1.7049054055	 1.0982759566	 0.132227
H	 2.1610930502	-0.8223532207	 1.3280936686	 0.133779
H	 1.1711689406	 1.0943814637	 3.1130046274	 0.286472
H	 1.381339165	-2.6204129597	 5.0877321362	 0.202715
H	 0.2259476711	-0.6363972388	-2.9218972701	 0.304978
39.0632	55.968	81.3911	126.3094	200.8231	229.0577	289.4692	308.1755	329.1953	352.3107	392.6751	426.6546	492.8446	564.4346	574.4815	638.2673	657.3382	675.8025	825.3449	850.4431	933.3684	986.3541	999.1914	1050.5457	1068.8513	1082.8062	1185.945	1263.6704	1284.3081	1307.7594	1354.768	1395.9426	1398.3024	1421.1055	1463.426	1486.1818	1489.4146	1729.6944	2232.5597	3030.9904	3039.2783	3054.0771	3102.3761	3108.3727	3172.5147	3502.4601	3803.8227	3824.9787
CC(CC(O)C#C)=NO	CC(=NO)C[C@@H](O)C#C	
InChI=1S/C6H9NO2/c1-3-6(8)4-5(2)7-9/h1,6,8-9H,4H2,2H3	InChI=1S/C6H9NO2/c1-3-6(8)4-5(2)7-9/h1,6,8-9H,4H2,2H3/t6-/m0/s1
