19
gdb 81711	2.66034	1.61638	1.31869	1.1676	70.5	-0.2362	0.0612	0.2974	1020.914	0.160678	-460.126147	-460.118508	-460.117564	-460.157718	30.887	
O	-0.0982728653	 1.3437091554	-0.1006889937	-0.443926
C	-0.0036548611	-0.0659989036	-0.0373649611	 0.074451
C	 0.2900028996	-0.5761174026	 1.4128570204	 0.078465
C	-1.2476864447	-0.5623677034	 1.6558242486	-0.282652
C	-1.4416038435	-0.6468240446	 0.1166960768	 0.113025
O	-1.5823465172	-1.9465436131	-0.4235952089	-0.270034
C	-0.940891452	-3.0095275091	 0.263347756	-0.09134
C	 0.5550897024	-2.8151691836	 0.5180158647	-0.088202
O	 0.891748569	-1.8538245443	 1.5092751419	-0.270054
H	 0.7810096269	 1.7098554388	 0.0408599854	 0.286295
H	 0.6021765841	-0.4735848486	-0.8555338892	 0.0713
H	 0.896909316	 0.0840032159	 2.0387936204	 0.076238
H	-1.67059522	-1.3395618782	 2.2933013549	 0.10638
H	-1.5717323507	 0.4163814851	 2.0142247919	 0.118939
H	-2.2313433137	-0.0409430462	-0.3314422979	 0.09324
H	-1.4464443795	-3.2302583829	 1.2142450287	 0.102204
H	-1.0651324918	-3.8823383818	-0.3863374244	 0.112163
H	 0.9660864296	-3.7603367687	 0.8882815898	 0.110952
H	 1.0534108618	-2.5878905047	-0.4358196944	 0.102555
180.2271	239.0912	262.1633	297.0943	305.2687	353.2866	385.9207	405.5008	442.0044	540.9639	574.2464	763.3129	842.0934	851.5449	866.6595	923.4434	931.9166	957.644	979.4599	1045.0702	1073.7787	1105.397	1109.8426	1122.4155	1130.1578	1178.7168	1191.496	1222.4159	1254.5238	1272.1286	1277.3441	1318.534	1325.8034	1354.0137	1364.0243	1402.9534	1409.1128	1418.7349	1460.7097	1494.1446	1498.7597	2994.9571	3007.4208	3033.971	3068.8823	3075.0994	3078.7419	3085.6596	3100.3878	3142.9269	3809.5814
OC1C2CC1OCCO2	O[C@H]1[C@H]2C[C@@H]1OCCO2	
InChI=1S/C6H10O3/c7-6-4-3-5(6)9-2-1-8-4/h4-7H,1-3H2	InChI=1S/C6H10O3/c7-6-4-3-5(6)9-2-1-8-4/h4-7H,1-3H2/t4-,5+,6+
