19
gdb 112014	2.55904	1.48951	1.14304	1.0557	76.98	-0.231	0.0077	0.2387	1133.2804	0.158388	-423.000491	-422.991835	-422.990891	-423.033697	33.132	
C	-0.0023180821	 1.4102206927	-0.0822003648	-0.233496
O	-0.0153029801	 0.0356179385	 0.2262777103	-0.251769
C	-1.2879211939	-0.5812778674	 0.0666846467	 0.005227
C	-1.6976386141	-0.8614852353	-1.3714895278	-0.118198
C	-1.9740642382	-2.1537018149	-1.5595759518	-0.072187
C	-1.7387723992	-2.9550361163	-0.3213085339	-0.141976
C	-0.2869807973	-2.9700013799	 0.1568039267	-0.329072
C	-1.2665352221	-1.9675047764	 0.7088796291	 0.389557
O	-1.6906979387	-2.0778811524	 2.0316801519	-0.476246
H	 0.997783548	 1.784282825	 0.1515428487	 0.12598
H	-0.2071999827	 1.6052787424	-1.1453163003	 0.106173
H	-0.7390167418	 1.9690927262	 0.5167018307	 0.103462
H	-2.0464980431	 0.0357880256	 0.5794687368	 0.074966
H	-1.7505550818	-0.0883036318	-2.1284396389	 0.098299
H	-2.2937278596	-2.5992075681	-2.4954223475	 0.100276
H	-2.3820439723	-3.7839505839	-0.0517373309	 0.099482
H	-0.0150619592	-3.7688362825	 0.8389035933	 0.111248
H	 0.4885512577	-2.6419042239	-0.5256537561	 0.122416
H	-0.9733111994	-1.7579110676	 2.5906010975	 0.285859
79.7017	123.9329	178.975	222.5385	292.0367	307.3987	334.291	352.0051	464.0255	498.2765	557.0609	613.3813	723.1546	762.9715	800.2264	866.193	913.8306	956.9888	966.7374	974.4518	998.5378	1013.4402	1045.8146	1057.1752	1067.617	1128.4954	1158.2783	1181.2926	1202.4511	1226.9405	1250.5467	1315.3779	1322.2971	1357.2369	1386.1251	1412.6379	1475.9132	1479.1388	1488.6695	1509.6365	1667.5173	2949.6338	2974.0996	3022.0321	3109.6553	3131.3889	3181.4036	3190.9887	3212.3391	3229.6902	3789.6573
COC1C=CC2CC12O	CO[C@H]1C=C[C@H]2C[C@@]12O	
InChI=1S/C7H10O2/c1-9-6-3-2-5-4-7(5,6)8/h2-3,5-6,8H,4H2,1H3	InChI=1S/C7H10O2/c1-9-6-3-2-5-4-7(5,6)8/h2-3,5-6,8H,4H2,1H3/t5-,6-,7-/m0/s1
