20
gdb 105818	2.39381	1.53644	1.22391	2.5295	78.93	-0.2182	0.0656	0.2838	1124.8437	0.169545	-403.035007	-403.026128	-403.025184	-403.068494	33.666	
C	 0.711409879	 1.2944718807	-0.7546671372	-0.255721
O	 0.1421024165	 0.0803288436	-0.2900867321	-0.271404
C	 0.665140133	-0.3361831745	 0.9134952715	 0.398966
C	 1.9762495602	-1.0563099869	 1.0588097577	-0.077958
C	 3.2613922933	-0.6773068513	 1.7904273458	-0.444298
C	 0.6642459333	-1.7174970078	 1.5025814214	-0.142584
N	-0.0603657891	-1.2724382176	 2.7573130182	-0.131534
C	 0.7201423766	-0.2585622803	 3.491522051	-0.253109
C	 0.0287608868	 0.1403945514	 2.2447554206	-0.11576
H	 1.7912086527	 1.1889669205	-0.9290277538	 0.110896
H	 0.216383585	 1.5387750052	-1.6969270987	 0.129573
H	 0.5511114501	 2.1172418691	-0.043523088	 0.112636
H	 2.1876853292	-1.5124491483	 0.0905987145	 0.104294
H	 3.521211512	-1.3965622657	 2.5742815786	 0.130648
H	 4.0930337976	-0.6636131706	 1.0789258016	 0.115149
H	 3.2113075085	 0.3165000535	 2.2420133421	 0.129133
H	 0.3536853174	-2.6676292577	 1.0868333544	 0.110141
H	 0.2296643041	 0.0257313084	 4.419990856	 0.121492
H	 1.7934852056	-0.3374985076	 3.5664431136	 0.125057
H	-0.8557662819	 0.769909326	 2.2363001827	 0.104384
78.6704	136.25	157.7905	177.4813	214.3542	296.5312	346.5055	369.6224	416.5213	499.1045	590.7753	664.9769	694.9149	736.6063	772.1811	826.9077	900.6044	937.2776	972.8478	996.8673	1040.8863	1057.0178	1069.0767	1084.9873	1105.0054	1119.5939	1128.0397	1142.1482	1179.4699	1197.5283	1222.1103	1241.1759	1251.3322	1328.3289	1351.8327	1413.8077	1449.7561	1487.0311	1493.0451	1497.0931	1504.0808	1507.0372	1516.9527	2992.032	3034.6821	3046.0089	3089.8472	3103.2818	3115.3336	3124.1747	3126.635	3158.9663	3193.3103	3263.1735
COC12C(C)C1N1CC21	CO[C@]12[C@@H](C)[C@H]1N1C[C@@H]21	
InChI=1S/C7H11NO/c1-4-6-7(4,9-2)5-3-8(5)6/h4-6H,3H2,1-2H3	InChI=1S/C7H11NO/c1-4-6-7(4,9-2)5-3-8(5)6/h4-6H,3H2,1-2H3/t4-,5-,6+,7-,8?/m0/s1
