14
gdb 5206	8.77427	1.01743	0.91693	0.6215	80.08	-0.2057	-0.0113	0.1944	1229.2443	0.107193	-345.414833	-345.407236	-345.406292	-345.448811	26.457	
C	-0.1018579545	 1.4475589785	-0.0016292066	-0.510577
C	-0.0145216322	-0.003088433	-0.0073682869	 0.224652
C	 0.0556107975	-1.2081825491	-0.0126773809	-0.090234
C	 0.1508048542	-2.609761367	-0.0159877315	 0.217925
C	 1.1972559789	-3.4695386583	 0.1889128206	-0.301618
C	 0.6741930408	-4.7901718062	 0.0574373419	-0.157866
C	-0.6499145776	-4.6428968858	-0.2174417692	-0.030409
O	-0.9897135477	-3.3329890223	-0.2668681686	-0.171777
H	 0.5755136122	 1.8922669561	-0.7395273261	 0.152353
H	-1.1182654489	 1.7766828127	-0.2436146955	 0.156146
H	 0.1561406115	 1.8609766447	 0.980053612	 0.152245
H	 2.2130567648	-3.1811546916	 0.4064601462	 0.11272
H	 1.2108234924	-5.7207014129	 0.1543877391	 0.113774
H	-1.4524047517	-5.3394160658	-0.3970710643	 0.132666
12.5574	97.7382	108.7903	270.0326	319.4461	461.1471	477.2386	530.5769	608.0691	687.786	753.6122	812.2394	856.5649	901.5291	911.66	1004.9847	1045.1361	1050.4984	1050.759	1114.4412	1193.4404	1232.2086	1287.4343	1411.1871	1413.1148	1472.4385	1476.6315	1518.0045	1614.1863	2354.6934	3024.3035	3082.3571	3090.6898	3254.01	3268.5516	3284.07
CC#CC1=CC=CO1	CC#Cc1ccco1	
InChI=1S/C7H6O/c1-2-4-7-5-3-6-8-7/h3,5-6H,1H3	InChI=1S/C7H6O/c1-2-4-7-5-3-6-8-7/h3,5-6H,1H3
