18
gdb 126976	5.98366	0.71867	0.65078	1.1889	74.53	-0.2266	-0.0235	0.2031	1697.5851	0.148165	-435.257489	-435.24864	-435.247696	-435.292461	30.961	
C	 0.0942490556	 1.4729691477	 0.4064707158	-0.39156
C	 0.0067100542	 0.0107356124	-0.0186303318	-0.095098
N	-1.3775297713	-0.4456692794	-0.0301839638	-0.292033
C	-1.5213595514	-1.8383173384	-0.4019401898	-0.245479
C	-2.9142261234	-2.3412336434	-0.1982569629	 0.371972
N	-3.827298349	-1.6775678422	 0.4589759081	-0.178408
O	-4.9400624931	-2.5323001263	 0.4294643639	-0.154776
C	-4.5532392057	-3.6116254585	-0.2492135458	 0.106613
N	-3.3292709638	-3.5751083405	-0.6651863938	-0.307908
H	 1.1304438896	 1.822612433	 0.382826221	 0.115887
H	-0.5044666709	 2.1031982158	-0.2568941183	 0.130665
H	-0.2787171652	 1.6082253195	 1.4282856445	 0.115524
H	 0.405915394	-0.1033916328	-1.0354918578	 0.103176
H	 0.6520192194	-0.6077922852	 0.6350465431	 0.07703
H	-1.8117014991	-0.2829262264	 0.872710971	 0.231396
H	-1.2678771801	-1.9648726663	-1.4627761163	 0.136832
H	-0.8440259669	-2.5242210214	 0.1463472753	 0.108915
H	-5.2843177729	-4.3950944876	-0.3859969424	 0.167252
48.532	71.6132	101.8674	131.3761	247.8489	267.0186	290.4802	338.8441	490.6611	628.9901	701.9914	726.6723	769.6091	818.9448	905.511	913.6175	931.1464	985.5201	1011.7287	1018.7345	1049.2446	1142.4688	1149.4415	1172.5679	1179.2909	1249.4792	1270.6104	1304.5508	1319.6669	1378.1962	1410.2593	1437.5163	1485.2688	1492.2671	1499.034	1505.5798	1525.0542	1534.4042	1604.786	2899.8139	2913.3836	3025.7361	3035.8732	3036.4058	3102.0482	3122.1509	3266.3995	3524.4938
CCNCC1=NOC=N1	CCNCc1nocn1	
InChI=1S/C5H9N3O/c1-2-6-3-5-7-4-9-8-5/h4,6H,2-3H2,1H3	InChI=1S/C5H9N3O/c1-2-6-3-5-7-4-9-8-5/h4,6H,2-3H2,1H3
