18
gdb 104138	2.71561	1.35958	1.19824	3.744	69.53	-0.2533	0.0555	0.3088	1121.8381	0.146633	-476.245563	-476.236663	-476.235719	-476.279337	32.651	
C	-0.1412541892	 1.3876966919	-0.225437869	-0.262131
O	-0.0996011131	-0.0345451351	-0.2506385921	-0.271684
C	 0.7817254794	-0.6193147348	-1.1687548267	 0.432762
C	 2.2423468809	-0.2616858161	-0.937118649	-0.458327
C	 0.4570509173	-2.1210840842	-1.1695388364	-0.137629
O	-0.4657542223	-2.2685158421	-2.248129697	-0.25047
C	-0.4183999315	-1.157858975	-3.0357164792	 0.478425
N	-1.0353184085	-0.9616254293	-4.1118250631	-0.580107
O	 0.4321865911	-0.2402459323	-2.5078463361	-0.247181
H	 0.7588821782	 1.8155031145	 0.2336381624	 0.114335
H	-0.2688668236	 1.8000049619	-1.231354666	 0.144421
H	-1.0057340224	 1.6543456504	 0.3852198554	 0.136384
H	 2.5324591947	-0.53279398	 0.0816443098	 0.13438
H	 2.8781215192	-0.795990559	-1.6461525463	 0.136401
H	 2.407320956	 0.8084773976	-1.0763207868	 0.142495
H	 1.3436913137	-2.7359413459	-1.3560601381	 0.116311
H	-0.0247148156	-2.421296123	-0.2387469902	 0.140012
H	-1.5828065642	-1.7840080495	-4.3545616016	 0.231602
75.7255	117.8725	140.6047	183.4688	227.3678	273.3431	320.7083	366.9847	415.4291	491.391	561.2143	637.6166	721.7646	732.4387	807.4563	829.1093	872.488	932.7728	957.997	994.076	1034.7752	1094.7343	1100.8701	1146.0736	1180.8752	1190.8178	1209.1538	1241.068	1263.2695	1332.41	1409.9014	1414.2646	1472.8214	1484.2745	1487.4065	1506.5889	1509.6345	1513.9678	1804.1284	3019.4793	3051.3324	3059.3008	3091.8305	3134.6159	3134.6733	3137.4014	3143.4091	3535.3415
COC1(C)COC(=N)O1	CO[C@@]1(C)CO[C]([NH])O1	
InChI=1S/C5H9NO3/c1-5(7-2)3-8-4(6)9-5/h6H,3H2,1-2H3	InChI=1S/C5H9NO3/c1-5(7-2)3-8-4(6)9-5/h6H,3H2,1-2H3/t5-/m1/s1
