18
gdb 72323	3.25581	1.75579	1.36839	3.4597	75.37	-0.2463	-0.0245	0.2218	962.7941	0.148962	-401.893066	-401.885979	-401.885035	-401.924094	28.883	
C	-0.0244622521	 1.5508144273	-0.0173536664	-0.489611
C	-0.1395004578	 0.0464068177	 0.0202256573	 0.306216
C	-0.4934187644	-0.690688002	-1.2864692359	-0.226119
N	-0.7306650162	-2.0932647908	-0.8821736161	-0.215489
C	-0.8568185157	-2.0600508754	 0.3808564332	 0.25947
O	-0.231520802	-2.9700390502	 1.2031950279	-0.258637
C	 1.013146258	-2.1946853163	 1.3378205817	-0.097068
C	 0.6080492612	-0.6900340616	 1.2111551287	-0.141018
C	-0.8776384253	-0.7017201074	 1.0737045164	-0.181605
H	 0.8219121361	 1.8655390094	-0.6382822222	 0.125994
H	-0.9300421183	 2.0001823389	-0.4410006934	 0.123981
H	 0.1198367789	 1.9733580911	 0.9814435943	 0.12087
H	-1.3591812622	-0.2140309218	-1.7683522626	 0.109622
H	 0.3185743136	-0.7075472901	-2.023020546	 0.11822
H	 1.4167940324	-2.3974473494	 2.3333053717	 0.122577
H	 1.7091902944	-2.5353012845	 0.5656191953	 0.125852
H	 1.1061745797	-0.0065477372	 1.8916593513	 0.09697
H	-1.6335922702	-0.3752803376	 1.7770444449	 0.099774
191.2858	214.1461	251.6428	293.8609	308.6786	425.7551	524.9347	552.105	615.7841	655.2644	724.1616	788.0354	841.3724	851.1313	899.3075	916.3413	933.6721	942.2	983.4557	1012.8385	1025.2157	1070.3346	1092.6705	1101.8486	1127.2348	1190.1005	1208.5515	1217.1425	1253.3061	1288.4091	1309.0885	1344.5713	1401.9428	1417.7845	1481.7076	1489.3111	1491.1426	1498.7611	1663.0828	3005.6724	3027.1436	3050.8285	3056.22	3086.3443	3102.9827	3112.8212	3159.697	3186.8372
CC12CN=C3OCC1C23	C[C@@]12C[N][C]3OC[C@@H]1[C@@H]23	
InChI=1S/C7H9NO/c1-7-3-8-6-5(7)4(7)2-9-6/h4-5H,2-3H2,1H3	InChI=1S/C7H9NO/c1-7-3-8-6-5(7)4(7)2-9-6/h4-5H,2-3H2,1H3/t4-,5-,7-/m1/s1
