15
gdb 24027	4.51893	1.08951	0.88256	0.5179	79.21	-0.2463	-0.0516	0.1947	1240.8333	0.11354	-379.684188	-379.676497	-379.675552	-379.717609	28.418	
C	-0.7055834649	-0.5184849222	-1.1984823675	-0.439157
C	-0.2337788809	 0.1793920322	-0.3416955345	 0.304856
C	 0.3260814097	 1.0214784234	 0.7071774466	-0.451039
C	 1.6075526978	 1.7572838949	 0.3505158995	 0.306159
C	 2.2362110089	 1.6573731119	-0.8927118918	-0.04922
N	 3.3617654087	 2.3160827755	-1.1768868885	-0.238407
C	 3.8602375086	 3.0809566456	-0.2060360123	-0.010672
C	 3.2377405908	 3.1847084589	 1.0359136513	-0.022235
N	 2.1147706997	 2.527302577	 1.3190078009	-0.287823
H	-1.1253537798	-1.136277439	-1.9534282273	 0.202412
H	-0.4143828755	 1.7687263937	 1.0202431822	 0.159509
H	 0.5229036922	 0.4193775438	 1.6034938233	 0.159511
H	 1.8169311442	 1.0300434637	-1.6725921629	 0.130952
H	 4.7766716774	 3.6244331425	-0.4204209143	 0.117632
H	 3.6540761732	 3.8122389382	 1.8201019453	 0.117522
22.8836	130.1714	181.8261	317.4511	325.7069	418.2256	443.0232	473.9533	616.2712	624.3371	650.6476	669.5173	776.0867	833.8211	848.8791	945.158	982.314	985.204	997.7124	1034.3591	1080.3857	1196.8608	1219.3761	1225.4103	1256.5803	1301.2346	1350.2027	1432.9783	1452.3279	1503.7012	1581.5748	1616.6931	2243.0026	3026.3384	3052.9206	3154.3242	3173.6457	3188.6815	3504.6178
C#CCC1=CN=CC=N1	C#CCc1cnccn1	
InChI=1S/C7H6N2/c1-2-3-7-6-8-4-5-9-7/h1,4-6H,3H2	InChI=1S/C7H6N2/c1-2-3-7-6-8-4-5-9-7/h1,4-6H,3H2
