17
gdb 16812	3.75646	1.87798	1.42547	2.5212	68.13	-0.2399	-0.0218	0.2182	889.3832	0.142965	-363.867959	-363.860858	-363.859913	-363.899074	27.648	
C	 0.0340798659	 1.5973558142	-0.0167072999	-0.395474
C	 0.0168203826	 0.0751577586	 0.0137494665	 0.060012
C	 0.6027434784	-0.6283825245	-1.2272685577	-0.376832
C	 1.2473244654	-1.9054158449	-0.6623389256	 0.422559
O	 1.4792799806	-2.9227791588	-1.2626845634	-0.322348
C	 1.4664918047	-1.6664300468	 0.8020277244	-0.139554
C	 2.1846279791	-0.3897862562	 1.1175415815	-0.247122
N	 0.7352956716	-0.4533738121	 1.2167564853	-0.097225
H	 1.0506250823	 1.9818729935	-0.1522459081	 0.11594
H	-0.5783912732	 1.9718550321	-0.8424758334	 0.121911
H	-0.3620506078	 2.0030638513	 0.9185049958	 0.13141
H	-1.0179679559	-0.2621164816	 0.1439456107	 0.09514
H	-0.147488984	-0.8882671197	-1.9759257282	 0.136123
H	 1.3684873979	-0.0300693089	-1.7360436767	 0.128311
H	 1.5085100744	-2.5160574022	 1.4743907603	 0.114238
H	 2.708119473	-0.3149739016	 2.0657902108	 0.131815
H	 2.6506937551	 0.1554203876	 0.3002808279	 0.121096
111.7221	207.0068	236.543	268.1949	362.004	465.7062	476.6668	540.6728	593.9732	653.7516	735.0657	797.5261	853.8914	889.4035	902.251	942.2927	961.2512	1053.9535	1061.5391	1095.352	1108.9394	1142.1625	1156.392	1194.3403	1207.7058	1242.7072	1264.7566	1323.3038	1362.1409	1378.1284	1411.1233	1458.5591	1490.7807	1497.1265	1511.435	1844.345	3034.1073	3037.7229	3046.0504	3106.4956	3110.8694	3118.0755	3121.3654	3179.8714	3197.2811
CC1CC(=O)C2CN12	C[C@H]1CC(=O)[C@H]2CN12	
InChI=1S/C6H9NO/c1-4-2-6(8)5-3-7(4)5/h4-5H,2-3H2,1H3	InChI=1S/C6H9NO/c1-4-2-6(8)5-3-7(4)5/h4-5H,2-3H2,1H3/t4-,5+,7?/m0/s1
