15
gdb 81524	3.80768	1.28865	1.07785	2.1921	68.03	-0.2558	0.0201	0.2759	1079.0759	0.10971	-457.641851	-457.63371	-457.632765	-457.674121	31.69	
O	 0.1569234811	 1.4152658372	-0.1339449849	-0.448934
C	 0.1195384716	 0.0329828837	-0.0710050933	 0.169539
C	 0.006598392	-0.6247700786	 1.3417373939	-0.052072
O	-1.3741305867	-0.082587696	 1.4209234442	-0.330324
C	-1.2770816451	-0.6495307879	 0.0524007591	-0.073689
C	-0.5833661449	-1.9045773303	 0.6902716832	 0.24751
O	 0.3213250099	-2.6455440096	-0.0878981774	-0.479842
C	-1.4277471063	-2.7470529069	 1.5193146778	 0.295149
C	-2.096861525	-3.5313551154	 2.137552709	-0.445045
H	-0.4968734265	 1.7217843267	 0.5113467938	 0.290037
H	 0.8355217862	-0.3833830038	-0.7764943865	 0.120222
H	 0.6366376154	-0.5344114137	 2.2263936539	 0.107816
H	-2.1632316321	-0.5893857738	-0.5798861184	 0.103592
H	-0.0984298276	-3.4810876061	-0.3164918554	 0.293781
H	-2.6936664419	-4.2023977055	 2.7049853608	 0.202258
131.4124	139.7958	222.9624	249.329	314.0136	344.2978	358.8491	468.7801	524.6181	555.9246	582.5502	630.2857	664.8191	676.0438	738.5476	765.9639	812.0224	862.1308	919.2151	958.1467	1014.7062	1097.2156	1119.9291	1130.2955	1153.6089	1185.3801	1194.0949	1209.918	1264.675	1320.4939	1390.0816	1451.3364	2235.3899	3122.496	3130.1674	3153.443	3500.3167	3738.3529	3825.5699
OC1C2OC1C2(O)C#C	O[C@H]1[C@H]2O[C@@H]1[C@]2(O)C#C	
InChI=1S/C6H6O3/c1-2-6(8)4-3(7)5(6)9-4/h1,3-5,7-8H	InChI=1S/C6H6O3/c1-2-6(8)4-3(7)5(6)9-4/h1,3-5,7-8H/t3-,4+,5-,6-
