18
gdb 31488	3.13869	1.07865	0.84973	2.251	77.72	-0.1887	0.0192	0.2079	1363.1434	0.147019	-439.110234	-439.10059	-439.099646	-439.145185	34.584	
C	 0.177671258	 1.3721724523	-0.225489947	-0.50041
C	-0.0498628305	-0.0882554222	-0.0782637635	 0.293033
C	-1.1533716237	-0.8497998334	 0.1852766137	 0.144033
N	-2.4618674189	-0.42294255	 0.4680785059	-0.609034
C	-0.7061938031	-2.2152816438	 0.2118834341	-0.335187
C	 0.6309006292	-2.1920557092	-0.026724153	 0.343515
C	 1.6772502906	-3.2414346379	-0.165175042	-0.176344
O	 2.1767419517	-3.3676689608	-1.4942973656	-0.414019
O	 1.050560212	-0.9069320552	-0.196092943	-0.234574
H	 0.7012826432	 1.807478671	 0.6354694849	 0.136206
H	 0.7741494861	 1.5936804845	-1.1177660139	 0.134929
H	-0.7769387012	 1.8974411708	-0.3270026377	 0.120786
H	-2.631122269	 0.5346406211	 0.1869776345	 0.238243
H	-3.1605761244	-1.0168820637	 0.0385667524	 0.244209
H	-1.3103830453	-3.0919329868	 0.389976881	 0.105582
H	 2.5004855537	-3.042241534	 0.539229893	 0.100606
H	 1.2451099303	-4.2109649711	 0.0958036411	 0.121588
H	 2.4772122913	-2.4931125418	-1.7632903247	 0.28684
55.5815	94.2533	114.0219	185.1839	213.674	246.1124	266.7436	302.9766	325.4861	416.9065	477.4966	600.5012	637.5007	655.4084	717.6994	766.3633	791.4479	822.2565	930.0294	997.7426	1012.7125	1043.9932	1057.9577	1061.4953	1167.0261	1199.0684	1225.7239	1269.9009	1321.116	1368.4789	1412.9162	1420.2819	1465.2567	1469.8186	1490.1609	1494.8257	1610.0175	1651.6015	1700.6125	2978.289	3016.3053	3067.2375	3099.8344	3104.3899	3249.0055	3527.6356	3616.1793	3814.8426
CC1=C(N)C=C(CO)O1	Cc1c(N)cc(CO)o1	
InChI=1S/C6H9NO2/c1-4-6(7)2-5(3-8)9-4/h2,8H,3,7H2,1H3	InChI=1S/C6H9NO2/c1-4-6(7)2-5(3-8)9-4/h2,8H,3,7H2,1H3
