14
gdb 5752	5.0844	1.77838	1.40583	2.8576	64.19	-0.2271	0.0235	0.2506	837.8241	0.109882	-378.713001	-378.706624	-378.705679	-378.74368	23.961	
O	 0.3431820301	 1.3433986616	 0.3122054537	-0.413477
C	 0.0929097418	-0.0110880185	 0.0675142507	-0.014082
C	-1.4207131445	-0.4997788159	 0.064991959	-0.210571
N	-1.1753183264	-0.9454133718	-1.3254949174	-0.000993
C	-1.4698174684	-1.5596186638	-2.4981649119	-0.025329
N	-0.4100837379	-1.5251311146	-3.2928987309	-0.260394
C	 0.6037135311	-0.8917837155	-2.6069731984	-0.226066
C	 0.1260905796	-0.5269730245	-1.3699356968	 0.230482
H	 0.0079241341	 1.8494258602	-0.4366575152	 0.287828
H	 0.7121502261	-0.5671621781	 0.7757223427	 0.117784
H	-1.6713196051	-1.3120139403	 0.7514682946	 0.134701
H	-2.1509257351	 0.3089598483	 0.1469247162	 0.130211
H	-2.4263255082	-1.9959150178	-2.7389121038	 0.135618
H	 1.5748779128	-0.7458848494	-3.0522779425	 0.11429
113.0195	150.8586	287.0047	362.4913	456.9714	501.4641	661.0428	665.6552	754.9841	764.6019	796.0551	839.9401	855.1362	953.9963	1010.2124	1073.607	1112.6487	1135.5688	1155.5334	1202.9742	1222.4915	1243.5134	1288.8504	1297.7781	1360.1757	1402.1749	1446.1429	1455.6926	1508.7564	1551.77	3063.5501	3087.2154	3126.7951	3260.3436	3264.602	3799.0667
OC1CN2C=NC=C12	O[C@H]1Cn2cncc12	
InChI=1S/C5H6N2O/c8-5-2-7-3-6-1-4(5)7/h1,3,5,8H,2H2	InChI=1S/C5H6N2O/c8-5-2-7-3-6-1-4(5)7/h1,3,5,8H,2H2/t5-/m0/s1
