21
gdb 87722	2.37065	1.37197	1.17729	2.9202	78.5	-0.2286	0.07	0.2985	1185.2266	0.180344	-424.194948	-424.185399	-424.184454	-424.229287	36.248	
C	 0.6492054497	 1.3258285597	-0.3975891781	-0.403256
C	 0.0644491684	-0.010476154	 0.0158487332	 0.139856
O	 0.59071412	-1.1069068036	-0.7957551377	-0.340212
C	 1.2404656166	-1.6697745955	 0.3511410424	 0.406544
C	 1.5796400646	-3.1266018251	 0.3847668215	-0.398793
C	 2.6667505619	-2.0811131488	 0.1534501586	 0.063711
O	 3.1968762156	-1.899956185	-1.1208765201	-0.436789
C	 0.5788939665	-0.6959656878	 1.3191434021	-0.150039
C	 1.4481824498	 0.0690676502	 2.3061710186	-0.417317
H	 1.7419675437	 1.3142017856	-0.3567449128	 0.128183
H	 0.3496175536	 1.5593956612	-1.4239481987	 0.128503
H	 0.2836572568	 2.1278076219	 0.2528470204	 0.119407
H	-1.0278609451	 0.0120124122	-0.0674131229	 0.08353
H	 1.5544468731	-3.6441167858	 1.3393739822	 0.111823
H	 1.2751962212	-3.7170352869	-0.4737552271	 0.125494
H	 3.3933879984	-1.9170846925	 0.9454926062	 0.095471
H	 2.5235109289	-1.4118082361	-1.6186221517	 0.290601
H	-0.2525460348	-1.1712017333	 1.8494295654	 0.085756
H	 2.3015791431	 0.5470875756	 1.8177460865	 0.126447
H	 0.8708935239	 0.8443860252	 2.8205000433	 0.119321
H	 1.842044854	-0.6068037772	 3.0729069489	 0.121759
45.6584	132.2515	182.1073	207.3221	209.4091	237.27	263.2201	376.4996	402.6237	445.1359	459.689	487.5708	573.9554	618.263	755.1627	786.0318	815.9501	863.0668	888.2186	911.2353	998.5104	1003.0133	1022.333	1042.2652	1073.3913	1075.9697	1097.2102	1152.9044	1164.2364	1171.6418	1197.8663	1264.3634	1303.1387	1315.7935	1354.5893	1380.0838	1401.1082	1410.4986	1415.839	1419.7759	1476.4657	1486.7385	1491.6689	1498.2523	1505.9906	3034.281	3035.7004	3038.4998	3055.6977	3096.897	3107.136	3113.6303	3118.8532	3121.4885	3134.7276	3214.3512	3706.4541
CC1OC2(CC2O)C1C	C[C@H]1O[C@]2(C[C@H]2O)[C@H]1C	
InChI=1S/C7H12O2/c1-4-5(2)9-7(4)3-6(7)8/h4-6,8H,3H2,1-2H3	InChI=1S/C7H12O2/c1-4-5(2)9-7(4)3-6(7)8/h4-6,8H,3H2,1-2H3/t4-,5+,6+,7+/m0/s1
