20
gdb 92481	2.56017	1.68642	1.65867	2.0277	73.26	-0.2217	0.0671	0.2888	967.4318	0.174223	-440.286561	-440.278962	-440.278017	-440.318494	30.372	
C	-0.116451128	 1.5519310656	-0.0115821829	-0.406317
C	 0.0455025	 0.0396047902	 0.0129227277	 0.17762
O	 0.7630092786	-0.3859546285	-1.1661574155	-0.290575
C	 1.8625399984	-1.2066897817	-0.8386347778	 0.202387
C	 2.8654050037	-0.4136337814	 0.0067117696	-0.194376
N	 2.1565370899	 0.054445368	 1.2205460013	-0.297668
C	 0.7997387224	-0.507076907	 1.2385896033	-0.075419
C	 0.8387343459	-2.0360493788	 1.1057721366	-0.071444
O	 1.4533731638	-2.3699432952	-0.1460301248	-0.269694
H	 0.8483357993	 2.0430500127	 0.1322479895	 0.137161
H	-0.5384146547	 1.8630040466	-0.9711204499	 0.12248
H	-0.7950319546	 1.8766727013	 0.7847044509	 0.106142
H	-0.9463621391	-0.4348632228	-0.0191846852	 0.076333
H	 2.2928395499	-1.5451777886	-1.7827590276	 0.08883
H	 3.7185304014	-1.0584156501	 0.24801184	 0.101842
H	 3.2366786517	 0.4382031303	-0.5765081541	 0.107419
H	 2.6557378181	-0.2323116454	 2.0539225027	 0.220585
H	 0.2922805581	-0.2085400947	 2.1603110744	 0.076279
H	 1.4203578585	-2.4815537091	 1.9255879219	 0.087127
H	-0.1703790333	-2.4707585816	 1.1280560199	 0.101289
78.3767	218.6274	236.0954	282.1306	310.6653	402.4577	433.2665	444.6579	588.0302	615.3231	699.9632	767.8692	797.98	840.5599	867.3172	902.2388	923.2531	957.3803	987.7655	1003.6681	1061.0718	1069.3333	1088.7581	1121.9389	1140.5439	1148.5788	1180.8199	1223.1928	1242.4826	1295.4946	1301.1267	1344.7911	1349.3106	1380.627	1383.9787	1403.7669	1407.0336	1409.1324	1464.9	1484.3591	1497.0719	1507.4981	1518.2759	2988.2356	2993.1764	3016.879	3026.5244	3041.5823	3057.0716	3073.8087	3106.7124	3111.1944	3137.5762	3540.7024
CC1OC2CNC1CO2	C[C@H]1O[C@H]2CN[C@@H]1CO2	
InChI=1S/C6H11NO2/c1-4-5-3-8-6(9-4)2-7-5/h4-7H,2-3H2,1H3	InChI=1S/C6H11NO2/c1-4-5-3-8-6(9-4)2-7-5/h4-7H,2-3H2,1H3/t4-,5-,6+/m1/s1
