20
gdb 86217	2.41272	1.32045	1.03078	4.0851	79.51	-0.2684	0.0276	0.296	1242.7324	0.170999	-403.184933	-403.175703	-403.174759	-403.219778	34.07	
C	 0.138440896	 1.5863314092	 0.0310291325	-0.41396
C	 0.1725453897	 0.0694711641	 0.0018319609	 0.157567
C	 0.8694056815	-0.5505000756	-1.2353466483	-0.265338
C	 1.632056282	-1.7826726622	-0.6575230733	-0.17416
C	 3.0736367654	-1.6757131561	-0.8663388315	 0.280926
N	 4.2146437689	-1.5915737751	-1.0339891208	-0.338142
C	 1.225972431	-1.7598155601	 0.8578761461	 0.129879
C	 2.2520468737	-2.2567058369	 1.857555247	-0.421335
O	 0.9169517061	-0.405741338	 1.1171812419	-0.255637
H	 1.1543693323	 1.9898885896	-0.0160640262	 0.132106
H	-0.4314300932	 1.9722155434	-0.8196949063	 0.120104
H	-0.3331713601	 1.9421545864	 0.9508894686	 0.130657
H	-0.8556792345	-0.3263097461	 0.0668940178	 0.067899
H	 0.1549973874	-0.8426858344	-2.0074945275	 0.115813
H	 1.5699752345	 0.1600710286	-1.6788108409	 0.132471
H	 1.3007917706	-2.7172578014	-1.1189150326	 0.123963
H	 0.3071126819	-2.3667831423	 0.9365885571	 0.072139
H	 3.1705232115	-1.6682431759	 1.7959334434	 0.150858
H	 1.8493692904	-2.174459707	 2.8702477397	 0.129703
H	 2.4978213647	-3.3055501303	 1.6673188323	 0.124485
22.6128	137.074	154.5669	216.4667	223.8955	239.6713	275.622	355.1809	443.2238	454.4779	491.4628	573.6593	621.4009	701.3285	786.0915	849.5906	885.5335	902.6678	947.1736	967.1299	1003.3811	1062.7111	1111.8202	1127.4131	1140.8712	1149.629	1181.6928	1220.5272	1250.8668	1297.0538	1327.5481	1347.7273	1379.8085	1383.945	1402.7544	1413.0416	1429.1785	1482.5972	1483.8376	1495.6603	1498.1052	1501.0235	2352.5288	2943.7439	2952.0118	3043.0753	3051.3704	3071.3345	3077.842	3117.6818	3122.2223	3124.4703	3127.1061	3136.3625
CC1CC(C#N)C(C)O1	C[C@H]1C[C@@H](C#N)[C@@H](C)O1	
InChI=1S/C7H11NO/c1-5-3-7(4-8)6(2)9-5/h5-7H,3H2,1-2H3	InChI=1S/C7H11NO/c1-5-3-7(4-8)6(2)9-5/h5-7H,3H2,1-2H3/t5-,6+,7-/m0/s1
