13
gdb 123686	2.72029	1.62278	1.09173	3.3195	71.32	-0.2417	-0.0725	0.1693	1021.6394	0.088965	-452.727803	-452.720634	-452.71969	-452.759877	26.412	
C	-0.0538221368	 1.6879207198	 0.0128870716	-0.350325
C	 1.4511066871	 1.8578297163	-0.0314399876	 0.040928
O	 2.1432914784	 1.3498494133	 1.1149421306	-0.247807
C	 2.1064434334	 0.5383235456	-0.0761367278	-0.100704
C	 1.0220428357	-0.4687638878	-0.0746617834	 0.235417
C	-0.3076294675	 0.1623433936	 0.033844962	 0.323864
O	-1.3806663125	-0.3811071402	 0.1248312646	-0.334464
N	 1.2602374086	-2.8872048095	-0.0312139001	-0.211832
N	 1.1824897705	-1.7579880983	-0.0470001027	 0.119581
H	-0.5049190247	 2.1448617043	 0.8980200626	 0.154056
H	-0.538986102	 2.1189185227	-0.8694906955	 0.139775
H	 1.8928817249	 2.7352589237	-0.4951212347	 0.11093
H	 3.0626352551	 0.3435955365	-0.5498890896	 0.120582
101.953	136.3677	146.2927	344.202	408.2119	452.4219	507.8211	529.4748	598.0178	615.1255	683.7447	753.9277	805.3673	863.2324	912.1534	989.6494	1006.4849	1061.5916	1105.906	1181.4634	1226.6828	1249.5498	1271.4007	1303.7252	1390.6948	1433.202	1441.8536	1807.5233	2220.7871	3060.0179	3109.6221	3154.5199	3178.1837
C1C2OC2C2=C1ON=N2	C1[C@H]2O[C@H]2[C](C1=O)[N][N]	
InChI=1S/C5H4N2O2/c1-2-4(6-7-9-2)5-3(1)8-5/h3,5H,1H2	InChI=1S/C5H4N2O2/c6-7-4-2(8)1-3-5(4)9-3/h3,5H,1H2/t3-,5-/m1/s1
