21
gdb 95000	2.83657	1.62394	1.31156	2.2205	80.69	-0.228	0.0679	0.2958	1050.6114	0.184865	-387.040864	-387.033446	-387.032502	-387.072376	30.666	
C	-0.2264281774	 1.5717006874	 0.0224316701	-0.390001
C	-0.0070918773	 0.0526801823	-0.0551302136	-0.018601
C	 0.7564324494	-0.38028323	-1.323004829	-0.216935
C	 2.2776369952	-0.2512839567	-1.1430040149	-0.250978
C	 2.6942021527	-0.7247167386	 0.2475333621	 0.010755
C	 1.7404869347	-1.640983865	 1.0758027715	 0.00454
O	 2.3959819133	-1.1659342775	 2.310523836	-0.314215
C	 2.1712065504	 0.0421380374	 1.4898133906	 0.038274
C	 0.7308656704	-0.4582718022	 1.185713161	 0.007501
H	 0.7232500732	 2.1172306239	-0.0128496879	 0.115784
H	-0.8419044846	 1.9217245798	-0.8126268845	 0.112428
H	-0.7317174923	 1.8527522554	 0.9525979965	 0.115452
H	-0.9961714265	-0.4228069846	-0.0764006266	 0.072027
H	 0.5243541805	-1.4338467888	-1.5216423606	 0.098081
H	 0.4131586009	 0.1837909251	-2.1969152274	 0.090669
H	 2.7943946797	-0.8362148423	-1.911754797	 0.100637
H	 2.6062273799	 0.7870387411	-1.2815310182	 0.102203
H	 3.7455865869	-1.0068967953	 0.3364666401	 0.076238
H	 1.5529373627	-2.7129005742	 0.9925945271	 0.085089
H	 2.5033232096	 0.9969780419	 1.9012166687	 0.085289
H	 0.1079001987	-0.507682749	 2.0822911659	 0.075765
137.4631	184.3957	234.8254	302.6882	342.1063	427.7406	457.2962	499.1419	593.1596	686.6612	741.4035	767.7436	832.2436	855.1988	870.699	886.3526	906.444	937.0112	972.4804	1000.1148	1006.8011	1038.212	1048.7786	1084.4049	1092.5302	1145.6486	1156.3362	1161.5777	1195.5922	1202.6486	1211.5401	1252.8991	1258.5972	1274.6624	1322.7893	1349.9492	1354.2254	1367.5376	1378.2665	1405.3435	1413.1293	1486.3955	1496.9516	1502.268	1503.6856	3010.3585	3022.5395	3027.9914	3030.1456	3060.7649	3072.9678	3083.3577	3091.1024	3094.7419	3098.0511	3099.9381	3108.4364
CC1CCC2C3OC2C13	C[C@H]1CC[C@@H]2[C@H]3O[C@@H]2[C@@H]13	
InChI=1S/C8H12O/c1-4-2-3-5-7-6(4)8(5)9-7/h4-8H,2-3H2,1H3	InChI=1S/C8H12O/c1-4-2-3-5-7-6(4)8(5)9-7/h4-8H,2-3H2,1H3/t4-,5-,6+,7-,8+/m0/s1
