16
gdb 77537	3.14251	1.34322	1.11666	4.7637	71.41	-0.2756	-0.0092	0.2665	1095.5988	0.122782	-437.836123	-437.82789	-437.826945	-437.868687	31.336	
C	 0.025551369	 1.4292359944	 0.1599480425	-0.515509
C	-0.0531072996	-0.0429799054	-0.0660907882	 0.324756
C	 0.6164180267	-0.9440568693	-1.1291767084	-0.29407
C	 0.0002732387	-1.8600541915	-0.0527631452	 0.261509
O	 0.5207005336	-0.9505543845	 0.9969406739	-0.384927
C	 0.1433657567	-3.2805026663	 0.1311982145	 0.173792
N	 0.2243178093	-4.4271841357	 0.2523800716	-0.340316
C	-1.3028436268	-0.9837579895	-0.0788207074	 0.126089
O	-2.1223403295	-0.9960360783	 1.0269388247	-0.431921
H	 1.0599017553	 1.7419305298	 0.328137217	 0.145315
H	-0.3629048066	 1.963017107	-0.7128870743	 0.139296
H	-0.5745590346	 1.7118315868	 1.030090611	 0.143451
H	 0.1834253166	-0.9724805293	-2.1315644025	 0.116867
H	 1.7054996211	-0.9260698621	-1.1263865077	 0.133721
H	-1.9124826142	-1.0192693317	-0.983672994	 0.106957
H	-1.5290114458	-0.9832629544	 1.7934073026	 0.294992
124.4051	143.2872	181.6126	203.9092	288.6479	326.2722	389.7872	503.2938	519.5218	539.9103	547.9032	600.3001	644.1063	710.1847	745.8226	791.2	886.8748	936.9231	973.1556	1014.6783	1103.075	1106.8955	1140.871	1160.8198	1172.3701	1191.388	1234.3121	1306.2326	1361.8062	1416.3396	1444.3108	1475.5593	1485.4273	1502.743	2356.1616	3043.3118	3077.2808	3110.5528	3117.3568	3122.1531	3167.0437	3727.4364
CC12CC(O1)(C#N)C2O	C[C@@]12C[C@](O1)(C#N)[C@H]2O	
InChI=1S/C6H7NO2/c1-5-2-6(3-7,9-5)4(5)8/h4,8H,2H2,1H3	InChI=1S/C6H7NO2/c1-5-2-6(3-7,9-5)4(5)8/h4,8H,2H2,1H3/t4-,5-,6-/m0/s1
