17
gdb 51716	4.37709	0.90676	0.84488	1.7536	70.41	-0.2504	0.0169	0.2673	1342.7758	0.137685	-455.216578	-455.208089	-455.207145	-455.251648	30.55	
O	-0.1734751855	-0.0075466073	 0.2340848631	-0.321409
C	-0.0730591697	 1.1852204873	 0.0409169141	 0.154623
N	 1.0992027659	 1.8505238058	-0.1518367414	-0.281601
C	 2.3898694842	 1.1794910538	-0.1613249175	 0.025411
C	 2.9608123685	 1.0354592683	-1.5984035844	-0.177829
N	 3.7233839758	 2.262667807	-1.7523459457	-0.303637
C	 4.1240624235	 2.8383225951	-0.5716870793	 0.395042
O	 4.8592461427	 3.7919324485	-0.4551030451	-0.371852
C	 3.4622718749	 2.0238798403	 0.5477544484	-0.35652
H	-0.9433271557	 1.8698099515	 0.0100147831	 0.08095
H	 1.0637128186	 2.8403900706	-0.341954131	 0.254853
H	 2.22343614	 0.2041927919	 0.2938924232	 0.128547
H	 3.5947568624	 0.1409064209	-1.6777484847	 0.114791
H	 2.1600649137	 0.955336179	-2.3379014807	 0.125766
H	 4.1650988283	 2.5354031679	-2.6164100001	 0.255192
H	 3.0659470788	 2.6687516099	 1.3333645307	 0.135485
H	 4.2312770535	 1.3872987697	 0.9985416173	 0.142187
16.1242	73.7578	143.486	209.2949	228.759	349.0122	418.3898	488.5056	506.8388	531.1896	593.2265	668.0324	740.7431	772.6687	853.1148	896.4881	917.6125	969.3618	1027.2522	1036.9587	1076.9006	1103.1203	1175.358	1199.1121	1238.4576	1256.8211	1262.5261	1298.3355	1356.935	1377.0855	1429.2426	1440.3642	1460.6546	1523.4583	1527.5665	1803.8504	1837.3786	2942.779	3003.9087	3062.2643	3091.9475	3128.9439	3136.1551	3623.9312	3638.9371
O=CNC1CNC(=O)C1	O=CN[C@H]1CNC(=O)C1	
InChI=1S/C5H8N2O2/c8-3-7-4-1-5(9)6-2-4/h3-4H,1-2H2,(H,6,9)(H,7,8)	InChI=1S/C5H8N2O2/c8-3-7-4-1-5(9)6-2-4/h3-4H,1-2H2,(H,6,9)(H,7,8)/t4-/m1/s1
