16
gdb 114944	2.93759	1.19357	0.90921	2.9575	68.73	-0.2703	-0.0741	0.1962	1254.9596	0.123351	-475.036934	-475.028398	-475.027454	-475.070914	29.832	
C	 0.160248969	 1.5344813141	 0.3355138619	-0.250395
O	 0.0514354256	 0.1303520087	 0.1366774717	-0.225241
C	 0.7594351519	-0.6294693303	 1.0461986944	 0.18061
C	 0.5365666938	-2.1261292044	 0.7485123147	-0.212208
N	 1.7961763958	-2.5946836828	 0.1612394093	-0.286696
C	 2.6086121377	-1.6194163935	 0.2725945741	 0.310754
O	 2.1935980943	-0.4694519446	 0.8527997046	-0.250214
C	 4.0191877019	-1.7035626742	-0.203226491	 0.099991
O	 4.8155054949	-0.8062152244	-0.1155744277	-0.238218
H	 1.1888624565	 1.8786586597	 0.1844910832	 0.141873
H	-0.4948115632	 2.0071610995	-0.398050904	 0.137631
H	-0.167044522	 1.8152326803	 1.3468245029	 0.114487
H	 0.557781665	-0.3109628713	 2.0767906366	 0.087894
H	 0.3150335655	-2.7057326161	 1.6506227493	 0.131266
H	-0.2921079863	-2.2531316965	 0.0469936954	 0.143783
H	 4.2524628996	-2.6903254941	-0.6472785853	 0.114684
72.8989	104.9782	128.6537	184.9885	202.6238	262.9355	293.259	417.3273	499.4151	517.958	624.5344	758.4107	798.6174	852.4599	937.4284	948.3004	1014.3518	1024.0634	1027.9305	1070.3463	1148.6068	1179.6819	1195.8741	1244.0492	1279.1876	1334.3773	1375.0927	1392.0554	1409.5288	1469.5737	1481.7123	1487.2291	1510.7993	1694.6187	1821.6802	2959.8617	3003.5341	3030.8488	3057.7714	3081.429	3107.0714	3138.9625
COC1CN=C(O1)C=O	CO[C@H]1CN=C(O1)C=O	
InChI=1S/C5H7NO3/c1-8-5-2-6-4(3-7)9-5/h3,5H,2H2,1H3	InChI=1S/C5H7NO3/c1-8-5-2-6-4(3-7)9-5/h3,5H,2H2,1H3/t5-/m1/s1
