12
gdb 43612	2.41733	1.45472	1.05389	4.138	66.29	-0.301	-0.0445	0.2565	1084.2389	0.075248	-435.471925	-435.463949	-435.463004	-435.504825	28.807	
O	 0.0941964521	 0.2270957064	-0.8086421229	-0.286473
C	-0.0433175713	 1.2229979991	-0.1859664159	 0.457162
C	-1.1831833219	 2.1151578746	 0.2947996153	-0.455942
C	-0.0311931166	 2.9709835968	 0.9108068718	 0.090065
O	 0.9481348467	 2.0026130731	 0.3811088621	-0.245903
C	 0.1546717861	 4.3003640018	 0.3618734395	 0.305203
C	 0.2882085515	 5.3972755184	-0.1058312668	-0.402961
C	 0.0037363226	 2.9781250022	 2.3777537224	 0.276484
N	 0.0012966188	 2.9780445718	 3.5323516232	-0.315486
H	-1.7445736525	 2.6118687618	-0.4957614758	 0.173458
H	-1.8578111991	 1.6508339867	 1.0139755603	 0.17783
H	 0.4168801838	 6.3705196273	-0.5140284032	 0.226564
83.2422	124.2466	170.3769	194.4383	272.2755	446.6333	472.3986	494.663	522.7078	525.2027	584.426	616.3937	666.8005	699.7834	807.625	889.3702	890.1872	956.905	1075.1139	1115.0179	1147.6841	1229.2275	1237.6324	1445.7148	1967.0476	2250.6176	2367.774	3107.2889	3174.1759	3495.1599
O=C1CC(O1)(C#C)C#N	O=C1C[C@@](O1)(C#C)C#N	
InChI=1S/C6H3NO2/c1-2-6(4-7)3-5(8)9-6/h1H,3H2	InChI=1S/C6H3NO2/c1-2-6(4-7)3-5(8)9-6/h1H,3H2/t6-/m0/s1
