15
gdb 125426	4.28911	1.11499	0.89128	4.6783	70.34	-0.2409	-0.04	0.201	1250.9796	0.112961	-450.143536	-450.135063	-450.134119	-450.177466	30.346	
C	 0.4516592243	 1.1816677802	-0.7014817988	-0.496401
C	 0.0357634057	-0.1213513318	-0.1222361698	 0.414001
N	-0.4420018058	-1.1670021341	-0.7263003224	-0.37255
C	-0.6344206001	-2.0518783422	 0.3162591661	 0.389774
N	-0.2961286408	-1.586383195	 1.4905972084	-0.163308
O	 0.1517054882	-0.2948047968	 1.2009335874	-0.186172
C	-1.1905470324	-3.413371847	 0.0904948873	 0.246296
N	-1.2949673764	-3.7130317069	-1.2490772131	-0.552211
N	-1.4708909363	-4.1480493528	 1.0968694346	-0.494932
H	 1.5195528163	 1.3523953953	-0.5344438093	 0.163632
H	 0.251102154	 1.1807700872	-1.7725446302	 0.162589
H	-0.0933211676	 2.0038793586	-0.2288685839	 0.16287
H	-1.2398945947	-2.9444705672	-1.8997626012	 0.270646
H	-1.8743903945	-4.4928064516	-1.5126847044	 0.250732
H	-1.8384558999	-5.0535692058	 0.7977709693	 0.205035
58.97	62.0637	160.4752	182.6842	302.0116	344.0485	376.3351	407.0633	480.6937	522.7512	608.0617	637.987	685.1172	728.6716	811.1743	868.8726	928.9599	995.0591	1015.9689	1069.618	1073.3136	1108.3809	1131.7848	1288.9822	1330.387	1409.1704	1420.6709	1474.6577	1476.4485	1564.3335	1617.3958	1638.2712	1725.1227	3055.2034	3115.465	3164.7014	3453.7239	3581.9909	3707.7061
CC1=NC(=NO1)C(N)=N	Cc1nc(no1)C(=N)N	
InChI=1S/C4H6N4O/c1-2-7-4(3(5)6)8-9-2/h1H3,(H3,5,6)	InChI=1S/C4H6N4O/c1-2-7-4(3(5)6)8-9-2/h1H3,(H3,5,6)
