23
gdb 38953	2.74929	1.62924	1.34107	0.2685	86.68	-0.2558	0.073	0.3289	1072.5974	0.210486	-351.172355	-351.164921	-351.163977	-351.20439	31.131	
C	 0.1783089174	 1.6575488987	 0.261613035	-0.28683
C	 1.3468642651	 0.7676180888	-0.0759298467	-0.026713
C	 2.2134860638	 0.2980977599	 1.0914883858	-0.252008
C	 1.3955341649	-0.7797751346	 1.866807726	 0.014387
C	 1.2647771957	-0.5544878526	 3.3872010319	-0.216487
C	-0.0086901474	 0.2925437843	 3.5486295721	-0.202802
C	-0.9698629289	-0.2882433898	 2.491893282	-0.217132
C	-0.0703641761	-0.7370288661	 1.3045199559	-0.012014
C	-0.0353146868	 0.1739174943	 0.0774020004	-0.04097
H	 0.1252803236	 2.0853513043	 1.2576722323	 0.108307
H	-0.2011769544	 2.3127652717	-0.5156694698	 0.10386
H	 1.8062735569	 0.8720195676	-1.0528505116	 0.076772
H	 3.155605723	-0.1222825078	 0.7267042047	 0.095347
H	 2.4839386265	 1.1350453306	 1.7472485383	 0.094353
H	 1.8432027346	-1.7573829567	 1.6677108851	 0.064696
H	 1.1257187239	-1.5177022866	 3.8933084694	 0.090679
H	 2.1534068481	-0.0890688481	 3.8254623798	 0.090935
H	-0.4186901015	 0.2575034771	 4.562572057	 0.089512
H	 0.2096237468	 1.3452308829	 3.3330393308	 0.099641
H	-1.4877072534	-1.1574128297	 2.9131788259	 0.09032
H	-1.7399472413	 0.4232724086	 2.1808679743	 0.096137
H	-0.3786689032	-1.7332734758	 0.9740199525	 0.064115
H	-0.6010083072	-0.1365365513	-0.7948565509	 0.075895
54.4435	190.0098	230.6537	341.9282	360.3906	449.5063	551.9806	590.5622	638.7789	706.097	736.919	805.0712	813.7003	828.2257	859.9388	901.0669	907.7701	921.6456	940.626	976.5527	989.3447	999.0911	1037.6831	1057.8581	1067.1147	1087.1024	1105.1421	1111.2063	1124.1315	1157.2533	1184.6831	1204.6786	1216.5745	1234.4176	1273.4153	1298.3776	1312.2528	1316.2482	1325.0265	1331.7906	1347.4466	1356.3221	1368.3941	1394.8976	1483.3329	1484.8883	1493.6312	1499.8172	1511.4439	3024.6654	3027.1126	3031.94	3038.2428	3045.6152	3059.8465	3075.7998	3077.7995	3083.4789	3093.9022	3127.1485	3153.8398	3165.2372	3208.4115
C1C2CC3CCCC3C12	C1[C@H]2C[C@H]3CCC[C@H]3[C@@H]12	
InChI=1S/C9H14/c1-2-6-4-7-5-9(7)8(6)3-1/h6-9H,1-5H2	InChI=1S/C9H14/c1-2-6-4-7-5-9(7)8(6)3-1/h6-9H,1-5H2/t6-,7-,8-,9+/m1/s1
