14
gdb 17050	5.64728	1.36906	1.30621	3.1877	58.92	-0.2581	-0.0208	0.2373	938.5431	0.105044	-419.589938	-419.582678	-419.581733	-419.621804	26.031	
C	 0.1612451541	 1.3008126095	 0.1607434003	-0.245984
O	-0.3077355649	 0.0334776043	-0.2599559373	-0.244433
C	 0.4392547664	-0.5172066102	-1.2844739364	 0.181887
C	 1.7579716151	-1.2894012878	-0.9201852229	-0.126881
O	 0.9176507378	-2.3511615183	-0.3083695628	-0.293288
C	 0.1530258839	-2.0153623516	-1.5391076485	-0.122256
C	 1.5466884668	-2.1069251775	-2.2197657265	 0.459081
O	 2.1312406943	-2.6503012554	-3.0964405856	-0.303246
H	 1.1691708437	 1.2384004765	 0.5943675349	 0.115737
H	 0.1812732892	 2.0197947126	-0.6719847025	 0.113068
H	-0.5319138676	 1.6587492759	 0.9241114266	 0.14033
H	 0.4969828085	 0.1380206544	-2.167859855	 0.085639
H	 2.6519293856	-0.9770754667	-0.3857965871	 0.117846
H	-0.7920232627	-2.5253159458	-1.7082541473	 0.1225
86.1521	139.0969	170.4262	221.0455	317.458	391.1548	508.0037	558.8131	681.9182	750.9301	784.2313	797.8308	870.1547	964.1226	978.7899	1024.9244	1059.3558	1135.2109	1141.1629	1151.983	1174.8853	1180.6197	1210.7896	1238.4263	1273.1431	1404.1776	1484.1909	1489.6114	1505.9688	1940.5931	2983.0911	2991.099	3041.0884	3131.3827	3160.2851	3166.9666
COC1C2OC1C2=O	CO[C@H]1[C@H]2O[C@@H]1C2=O	
InChI=1S/C5H6O3/c1-7-5-3-2(6)4(5)8-3/h3-5H,1H3	InChI=1S/C5H6O3/c1-7-5-3-2(6)4(5)8-3/h3-5H,1H3/t3-,4+,5-
