19
gdb 72043	2.40304	1.65205	1.27668	0.8354	88.73	-0.2188	0.0384	0.2572	1076.3539	0.158885	-348.684028	-348.675859	-348.674915	-348.716305	32.597	
C	-0.1571807978	 1.4309128367	-0.0338295702	-0.500945
C	 0.0256583876	-0.0559191291	-0.0190299991	 0.280051
C	 0.9639233175	-0.8900190009	-0.8937514179	-0.282577
C	 0.133683528	-2.1246437486	-0.4593560331	-0.12334
C	 0.4171073961	-2.2494618925	 1.0607128302	-0.237801
C	-0.3057876048	-0.9128782323	 1.2045003523	-0.162812
C	-1.0615541382	-1.1305627303	-0.1078087975	 0.301714
C	-2.4275941628	-1.0744834603	-0.441529928	-0.001406
C	-3.594444927	-1.0318458768	-0.7419644567	-0.380657
H	 0.7152193385	 1.9408118692	 0.3916817646	 0.121292
H	-0.2984994667	 1.8024082768	-1.0545329205	 0.123901
H	-1.0346212447	 1.7256019403	 0.5509340621	 0.127442
H	 0.8226772189	-0.6523870769	-1.9521785602	 0.102445
H	 2.0348860806	-0.8975942252	-0.6565197659	 0.087096
H	 0.0542971859	-3.0037119868	-1.0942132564	 0.081313
H	-0.1552376866	-3.0606809475	 1.5182698806	 0.106813
H	 1.4667980198	-2.315578757	 1.3698276863	 0.089888
H	-0.7092824339	-0.4615187819	 2.1022775916	 0.095016
H	-4.6225673304	-0.9942745667	-1.0023630122	 0.172566
112.1993	143.9851	196.5395	252.6026	292.9232	402.0961	411.1053	489.8412	539.663	544.9339	580.6063	610.8545	652.7225	716.6963	762.3723	835.8331	876.6712	919.9186	935.6579	964.5367	981.9727	999.5416	1010.5754	1048.9557	1089.4087	1123.2287	1138.1708	1175.2476	1205.7434	1222.8748	1238.4223	1267.1564	1290.9658	1339.3261	1413.4641	1437.1254	1484.7849	1492.7103	1497.1961	1511.5013	2222.6118	3023.2396	3025.7872	3034.3426	3085.9352	3091.6678	3099.7434	3099.9817	3147.7513	3197.0725	3504.2969
CC12CC3CC1C23C#C	C[C@@]12C[C@H]3C[C@@H]1[C@@]23C#C	
InChI=1S/C9H10/c1-3-9-6-4-7(9)8(9,2)5-6/h1,6-7H,4-5H2,2H3	InChI=1S/C9H10/c1-3-9-6-4-7(9)8(9,2)5-6/h1,6-7H,4-5H2,2H3/t6-,7+,8-,9+/m1/s1
