16
gdb 43493	2.35856	1.90245	1.1639	2.5835	69.45	-0.2418	-0.0437	0.1981	1018.4353	0.12542	-437.922339	-437.914992	-437.914048	-437.954564	27.78	
O	-0.1832458489	 0.1872584214	 0.7271007701	-0.292159
C	-0.1395705223	 1.2527316106	 0.1763122913	 0.368443
C	-1.2964407338	 2.0435314875	-0.4436734697	-0.440209
C	-0.804950346	 3.4956295092	-0.3750735294	 0.358245
O	-1.4721907985	 4.4921306145	-0.2339794312	-0.34676
N	 0.5825191472	 3.4529942985	-0.405355138	-0.098511
C	 1.4110397596	 4.1581379621	 0.607835964	-0.178578
C	 1.8471465491	 2.7757501004	 1.1872062451	-0.254059
C	 1.1043189328	 2.1277217261	-0.0182624606	-0.082157
H	-1.419262996	 1.7246620122	-1.4865797588	 0.162463
H	-2.2490503233	 1.9056145869	 0.0680219036	 0.161169
H	 2.2215526455	 4.7345553168	 0.1554951999	 0.125876
H	 0.8190641977	 4.8098615898	 1.2543164897	 0.141204
H	 2.9195252296	 2.586948915	 1.2376164596	 0.12507
H	 1.3945656427	 2.5385929605	 2.1521155381	 0.133037
H	 1.7672982346	 1.6738464087	-0.7644010638	 0.116928
81.9654	126.8678	208.3982	234.9881	388.5751	449.0395	497.5799	593.6461	634.3329	646.4454	683.6658	754.0662	788.1605	890.087	917.7964	927.9623	946.7602	1027.473	1068.9716	1096.0192	1130.0811	1160.2867	1184.597	1207.5668	1215.1758	1233.8712	1255.2021	1290.8233	1313.0241	1336.3802	1420.6072	1487.8318	1517.3657	1821.7059	1867.8377	3038.0189	3047.1623	3067.824	3084.3822	3120.187	3143.5693	3146.8118
O=C1CC(=O)N2CCC12	O=C1CC(=O)N2CC[C@@H]12	
InChI=1S/C6H7NO2/c8-5-3-6(9)7-2-1-4(5)7/h4H,1-3H2	InChI=1S/C6H7NO2/c8-5-3-6(9)7-2-1-4(5)7/h4H,1-3H2/t4-/m0/s1
