20
gdb 38150	2.9055	1.78003	1.2854	1.685	82.82	-0.2209	0.0162	0.2371	1021.0734	0.174709	-366.010222	-366.00317	-366.002226	-366.041472	29.416	
C	-0.0573069041	 1.5159130117	 0.218528511	-0.200542
C	 1.3784756611	 2.0636562786	 0.080711188	-0.227005
C	 2.2589968426	 0.8534226137	 0.4691899852	-0.063808
C	 3.6203981066	 0.735842116	-0.1781498935	-0.112075
C	 3.6735523659	-0.2729457256	-1.0550546723	-0.052441
C	 2.3731422429	-1.0017927148	-1.1007481723	-0.152246
N	 2.0052044342	-1.6586831989	 0.1984575578	-0.398476
C	 1.4764552836	-0.3263534529	-0.1226849058	 0.363972
C	 0.0102505601	 0.0527657486	-0.2968125311	-0.336039
H	-0.3476179791	 1.5183725241	 1.2753166566	 0.103256
H	-0.7944695614	 2.1180346122	-0.3191559075	 0.096773
H	 1.5792413538	 2.3402480856	-0.9611906465	 0.099783
H	 1.5579386146	 2.9485079676	 0.6975362982	 0.095143
H	 2.3284282983	 0.7791105858	 1.5620600999	 0.085303
H	 4.4484325016	 1.389182529	 0.0751189207	 0.093108
H	 4.5363450431	-0.550725472	-1.6493732517	 0.094265
H	 2.0063015794	-1.4519173401	-2.01793812	 0.083957
H	 1.2757688346	-2.3443608264	 0.0000929223	 0.220731
H	-0.654689181	-0.6057490138	 0.2719727623	 0.101967
H	-0.2955160769	-0.0109742484	-1.3468822512	 0.104375
108.7372	194.8052	282.4703	361.756	379.9955	476.4523	535.5898	588.0064	635.6804	717.3934	764.7114	786.5622	818.8915	865.4388	886.7254	900.2314	917.6282	939.6083	963.2798	969.0286	998.8503	1011.3623	1046.6414	1055.2415	1099.3436	1126.2626	1162.6619	1174.6873	1182.8549	1238.3246	1260.1372	1270.2178	1288.8975	1312.9059	1324.0346	1341.298	1355.4058	1379.0843	1421.3888	1485.8873	1491.7556	1506.0763	1652.8062	3025.9401	3034.8518	3038.5951	3042.0567	3071.4453	3092.1367	3100.7053	3158.4537	3182.2056	3208.3859	3454.3064
C1CC2C=CC3NC23C1	C1C[C@@H]2C=C[C@H]3N[C@@]23C1	
InChI=1S/C8H11N/c1-2-6-3-4-7-8(6,5-1)9-7/h3-4,6-7,9H,1-2,5H2	InChI=1S/C8H11N/c1-2-6-3-4-7-8(6,5-1)9-7/h3-4,6-7,9H,1-2,5H2/t6-,7-,8+/m1/s1
