21
gdb 65210	3.42618	1.19519	1.1187	1.4524	82.02	-0.2401	0.0796	0.3197	1193.9689	0.182825	-387.04069	-387.032316	-387.031372	-387.073562	33.653	
O	 0.3215760482	 1.3710506534	 0.2343327194	-0.465257
C	 0.1499042347	-0.0136227408	 0.0474198938	 0.395868
C	 1.1602367024	-0.7053914845	-0.8399179097	-0.328628
C	 1.2343229983	-0.841338583	 0.6688247332	-0.29674
C	-1.2759640162	-0.5121134358	 0.0791233802	-0.019076
C	-2.1864203649	-0.241029545	 1.3291765822	-0.266016
C	-3.2779868646	 0.2944778918	 0.3902794722	-0.037297
C	-2.7735893525	 1.5051827331	-0.3331847347	-0.284274
C	-2.349838215	 0.1354257402	-0.8164524117	-0.09817
H	-0.0134572446	 1.8076027444	-0.5564138881	 0.284171
H	 0.8445333004	-1.5630239964	-1.424649546	 0.108021
H	 1.9051153617	-0.0770451054	-1.3152375629	 0.112094
H	 2.0220605987	-0.2980945608	 1.177440423	 0.121906
H	 0.9678627426	-1.7912929904	 1.1195010124	 0.110338
H	-1.257591081	-1.5894111438	-0.1138963744	 0.070123
H	-2.4561558172	-1.1573734145	 1.8579262873	 0.098139
H	-1.79974943	 0.4835584146	 2.0514246813	 0.108137
H	-4.3337177882	 0.0643946674	 0.460503364	 0.083475
H	-3.4960311591	 1.9990967943	-0.9756333057	 0.107288
H	-2.0779112347	 2.1762341179	 0.1602051137	 0.114907
H	-2.595558719	-0.1962704968	-1.8189815494	 0.08099
63.4077	165.3736	172.9318	258.8452	314.788	342.4754	380.3323	405.6954	497.7878	535.4118	666.0353	758.9801	771.3366	782.0164	799.1658	871.7919	892.539	919.3463	926.8013	954.2909	970.9594	983.545	1019.3087	1022.7504	1038.359	1050.0008	1064.9052	1076.871	1086.6193	1101.1454	1143.33	1189.5322	1204.0923	1234.9563	1245.6092	1260.567	1299.4155	1315.8999	1335.341	1363.5013	1413.7954	1452.491	1476.1053	1492.3771	1499.8576	3051.4996	3059.5975	3114.4593	3123.1281	3129.4071	3137.2794	3168.2936	3187.7438	3208.6909	3215.4105	3231.2183	3803.5321
OC1(CC1)C1CC2CC12	OC1(CC1)[C@H]1C[C@H]2C[C@@H]12	
InChI=1S/C8H12O/c9-8(1-2-8)7-4-5-3-6(5)7/h5-7,9H,1-4H2	InChI=1S/C8H12O/c9-8(1-2-8)7-4-5-3-6(5)7/h5-7,9H,1-4H2/t5-,6-,7+/m1/s1
