25
gdb 123158	6.90583	0.46178	0.44893	0.8114	91.74	-0.2472	0.0908	0.338	2553.4674	0.227362	-389.476846	-389.465764	-389.464819	-389.514828	39.131	
C	-0.1114676288	 1.5175440109	-0.1942944651	-0.378829
C	-0.0690041359	-0.0006603257	-0.0006519887	-0.164896
C	-1.457095343	-0.6466306591	-0.0467857465	-0.176986
C	-1.4165431957	-2.1557007073	 0.1509738421	-0.047074
O	-2.7321882275	-2.6601358276	 0.0771512344	-0.248242
C	-2.8052568492	-4.0588608754	 0.2606159095	-0.065088
C	-4.2443902245	-4.4914111901	 0.2032128335	 0.012366
C	-4.9025843361	-4.7369577926	-1.1288205529	-0.246044
C	-4.5810518912	-5.8985396128	-0.2223925086	-0.272984
H	 0.8918073007	 1.953323165	-0.156925632	 0.110479
H	-0.5536477145	 1.7805500204	-1.1616066064	 0.115049
H	-0.7135106462	 1.998546357	 0.5844852666	 0.114988
H	 0.5686890442	-0.4498296328	-0.7736536512	 0.095277
H	 0.4106560668	-0.2328354279	 0.9596157355	 0.095237
H	-2.101448951	-0.2098688215	 0.7262419929	 0.102241
H	-1.9393684553	-0.4342494098	-1.0089927289	 0.103066
H	-0.7813237641	-2.6265426841	-0.6208051855	 0.078949
H	-0.9639022597	-2.4032858501	 1.1279186613	 0.079753
H	-2.2245560683	-4.5811036302	-0.5210626599	 0.075737
H	-2.3565657542	-4.3376006102	 1.2305284822	 0.082308
H	-4.8671760792	-4.054306322	 0.9782040142	 0.088449
H	-5.9404677845	-4.4481488377	-1.2501372211	 0.11175
H	-4.2976429671	-4.6044332808	-2.0196584699	 0.112735
H	-3.7634821856	-6.5533893704	-0.5064731129	 0.109923
H	-5.3964261102	-6.4046574952	 0.2820024474	 0.111836
37.2218	51.0337	78.2056	97.357	131.3121	154.9562	191.682	252.0953	272.9355	326.2572	374.1818	479.3146	506.3767	743.4247	774.5627	813.3611	816.7322	844.8111	905.3477	920.8066	949.2642	954.7872	1013.7195	1036.0447	1049.8628	1060.6206	1073.8728	1078.598	1133.2712	1148.5109	1154.7827	1189.0152	1196.2453	1207.6492	1227.5357	1252.3378	1281.9803	1292.8062	1310.3848	1323.4968	1367.1871	1387.8744	1411.5355	1417.2292	1461.7675	1469.9572	1487.3187	1495.7382	1500.0048	1504.099	1509.558	1515.444	1533.9776	2931.1409	2944.1692	2959.5148	2963.2579	3012.1115	3027.748	3031.9872	3037.7851	3072.0383	3097.7488	3102.299	3130.732	3135.9065	3152.6864	3208.7235	3224.0774
CCCCOCC1CC1	CCCCOCC1CC1	
InChI=1S/C8H16O/c1-2-3-6-9-7-8-4-5-8/h8H,2-7H2,1H3	InChI=1S/C8H16O/c1-2-3-6-9-7-8-4-5-8/h8H,2-7H2,1H3
