20
gdb 57948	3.22685	1.01048	0.78318	2.2382	81.64	-0.2372	0.0138	0.251	1476.1129	0.169888	-436.514543	-436.50378	-436.502835	-436.551525	37.11	
C	-0.9646252502	 1.0225194455	 0.4147489099	-0.343793
N	-0.0597414472	-0.039992346	 0.0077352972	-0.129917
C	 1.1266456428	-0.2524567976	 0.8171609005	-0.357641
C	-0.4428643143	-0.8590749697	-1.0332685979	 0.524982
O	-1.4338033659	-0.6442122807	-1.7131995202	-0.422536
N	 0.4001894198	-1.9449353087	-1.2419934483	-0.397745
C	 0.3392250475	-2.9287208696	-2.2342480799	 0.364987
C	-0.6908833081	-2.7944544994	-3.3247457665	-0.441036
N	 1.2003258593	-3.8648851079	-2.1150874936	-0.518277
H	-0.4494149442	 1.9904273403	 0.4108701314	 0.121011
H	-1.792017029	 1.0527819744	-0.2914903967	 0.173621
H	-1.3577442426	 0.8447902961	 1.4244813616	 0.119501
H	 1.0145357554	-1.0747805781	 1.5392156658	 0.132132
H	 2.0081720259	-0.4449230439	 0.1969164104	 0.144133
H	 1.3284561784	 0.658510786	 1.38470405	 0.139552
H	 1.1287749764	-2.1470151557	-0.5751494985	 0.252844
H	-1.7012300462	-2.812295232	-2.9122950873	 0.160936
H	-0.5954154422	-1.8368580295	-3.8413927515	 0.152276
H	-0.5636497769	-3.6126594118	-4.037068595	 0.107874
H	 1.1024492713	-4.5336080917	-2.8760822815	 0.217096
32.402	78.368	104.7692	112.9896	147.9442	180.829	189.9351	211.746	311.4998	388.1514	415.1774	451.7596	538.4916	565.5912	640.4047	648.7818	754.999	848.7318	851.8741	905.4807	1038.439	1049.7405	1072.4653	1089.3201	1131.4145	1143.4598	1169.7508	1207.0302	1296.9897	1372.5309	1398.6681	1433.6034	1436.4791	1462.167	1466.8463	1472.7221	1496.6497	1502.849	1504.0925	1519.0416	1540.4922	1711.3942	1767.4178	2994.0361	3011.8736	3059.2175	3060.6809	3070.085	3120.337	3135.4748	3144.5272	3174.0364	3507.0995	3631.1861
CN(C)C(=O)NC(C)=N	CN(C)C(=O)NC(=N)C	
InChI=1S/C5H11N3O/c1-4(6)7-5(9)8(2)3/h1-3H3,(H2,6,7,9)	InChI=1S/C5H11N3O/c1-4(6)7-5(9)8(2)3/h1-3H3,(H2,6,7,9)
