17
gdb 37853	2.68306	2.59859	2.01505	1.9293	68.33	-0.2277	0.0537	0.2814	764.0451	0.142307	-417.953475	-417.94837	-417.947426	-417.982653	23.401	
N	-0.0263112454	 1.4850855756	 0.0153740997	-0.300011
C	 1.4538809222	 1.4187121039	 0.0002227728	-0.044101
C	 2.0044489479	 0.8540112197	 1.3725521327	-0.076809
N	 0.8061470982	 0.6353572129	 2.2504613678	-0.325768
C	 0.5385465381	-0.5593207722	 1.3812102018	-0.076809
C	-0.0140807918	 0.003393086	 0.0088934473	-0.044101
C	 1.3203035295	 0.0833515979	-0.8060427445	 0.097892
O	 2.2389218806	-0.8665627949	-0.3371846993	-0.23831
C	 2.0617215492	-0.6743425093	 1.0387926268	 0.095427
H	-0.3742785461	 1.8514302376	 0.9025011048	 0.227909
H	 1.9883768281	 2.2866875183	-0.3869171422	 0.072111
H	 2.8455258586	 1.3986948601	 1.8010205323	 0.070484
H	 1.1301816012	 0.304827012	 3.1575628829	 0.222983
H	-0.033827651	-1.3774003457	 1.8180272702	 0.070484
H	-0.9033333246	-0.5013218665	-0.3698379287	 0.072111
H	 1.2827294475	 0.1156764478	-1.8909858919	 0.094683
H	 2.7012207196	-1.3340424411	 1.6242179575	 0.081827
455.2206	463.8364	517.7199	543.735	644.9593	662.1988	715.163	762.8493	784.3482	810.8511	856.1666	870.4336	886.3672	891.4361	934.4551	959.4539	991.2692	994.7891	1035.883	1052.6991	1055.495	1060.4897	1104.0271	1153.109	1155.9452	1179.188	1196.4901	1214.1688	1241.1887	1260.4532	1270.8971	1307.2622	1314.2648	1337.5222	1352.7042	1381.7315	1383.0343	3101.2957	3102.7109	3115.9775	3117.1988	3131.5162	3170.7209	3444.7492	3479.589
N1C2C3NC4C1C2OC34	N1[C@H]2[C@H]3N[C@H]4[C@@H]1[C@@H]2O[C@@H]34	
InChI=1S/C6H8N2O/c7-1-2-6-4(8-2)3(7)5(1)9-6/h1-8H	InChI=1S/C6H8N2O/c7-1-2-6-4(8-2)3(7)5(1)9-6/h1-8H/t1-,2+,3+,4-,5+,6-
