23
gdb 121347	3.1404	0.87274	0.75555	1.5429	81.42	-0.2402	0.076	0.3162	1568.9459	0.205994	-425.426459	-425.416413	-425.415469	-425.461958	36.538	
C	 0.3510693132	 1.5799458915	-0.4013920433	-0.396231
C	 0.0124388516	 0.1514056685	 0.0420659848	-0.028865
C	 0.3558059722	-0.8769025033	-1.0421607279	-0.075241
O	 1.7497060104	-1.1357468388	-0.9024830461	-0.265397
C	 2.1348318838	-0.9094796016	 0.4527399777	-0.072133
C	 0.887546622	-0.390174915	 1.2025816252	-0.006018
C	 1.1820743144	 0.5790924998	 2.3482181287	-0.205642
C	 1.9234428198	-0.0761098026	 3.5086745557	-0.080384
O	 2.0925998852	 0.9037298037	 4.5213537747	-0.42044
H	 1.3961445862	 1.6622191222	-0.7171301469	 0.128397
H	-0.2738997018	 1.8713824973	-1.2517378512	 0.112248
H	 0.1802154029	 2.3058471383	 0.3985462985	 0.118743
H	-1.0485937461	 0.0979356355	 0.308925968	 0.070068
H	-0.2264954947	-1.8026656759	-0.9035216396	 0.081477
H	 0.1812187317	-0.5141969664	-2.0603474112	 0.101175
H	 2.5213188231	-1.8405130059	 0.8877733391	 0.093869
H	 2.9499433887	-0.1716957844	 0.4681227109	 0.095363
H	 0.3579988808	-1.2583187646	 1.6183973568	 0.07316
H	 1.7793669036	 1.4260613692	 1.9925297658	 0.109924
H	 0.2453031818	 0.9948542771	 2.7387267189	 0.105682
H	 1.3433003706	-0.9376820267	 3.879724524	 0.084115
H	 2.8964157796	-0.4637901123	 3.1657607748	 0.090319
H	 2.5789117013	 0.5050508747	 5.2487393222	 0.285812
69.2403	97.9738	113.5435	124.9577	162.0846	237.4408	265.915	285.0006	331.3551	343.4675	410.4142	526.0626	669.4626	714.5872	800.087	810.5793	876.3292	934.426	947.8283	971.5587	991.792	1015.7576	1043.1342	1063.5678	1083.9711	1097.3712	1133.7651	1169.2599	1174.9852	1217.6412	1229.4684	1243.2464	1255.2178	1281.8112	1310.0585	1317.5099	1341.7082	1360.7813	1378.1519	1387.4382	1406.313	1423.3255	1464.7293	1491.6346	1501.4649	1503.7935	1520.9251	1527.3913	1532.3451	2957.6229	2965.2864	2984.2321	2995.9582	3001.8053	3031.39	3034.7421	3038.5985	3050.1626	3070.0109	3081.7865	3103.5532	3114.1568	3830.6015
CC1COCC1CCO	C[C@H]1COC[C@H]1CCO	
InChI=1S/C7H14O2/c1-6-4-9-5-7(6)2-3-8/h6-8H,2-5H2,1H3	InChI=1S/C7H14O2/c1-6-4-9-5-7(6)2-3-8/h6-8H,2-5H2,1H3/t6-,7+/m0/s1
