17
gdb 80445	2.57932	1.58357	1.32133	2.2263	68.93	-0.2197	0.0457	0.2654	1028.9326	0.136009	-455.146126	-455.13772	-455.136775	-455.178515	32.557	
C	-0.0208512943	 1.4933275827	-0.0480018584	-0.470499
C	 0.0189551819	-0.0065903819	 0.0663372884	 0.239492
N	-1.2069151871	-0.7190926863	-0.2414889933	-0.406668
C	-1.2433952251	-1.7254842908	 0.5566436715	 0.458549
N	-2.1702055773	-2.7263058486	 0.5699715371	-0.579829
O	-0.2437955332	-1.8731543108	 1.4638407277	-0.234928
C	 0.6699690083	-0.8229426361	 1.1846804232	-0.028169
C	 1.2709380038	-0.8189500148	-0.2083503413	 0.044212
O	 1.2339208489	-1.9553960977	-1.0060326576	-0.429377
H	 0.9420680434	 1.9338498785	 0.2273259385	 0.112894
H	-0.2506823065	 1.7914872775	-1.0760913097	 0.130285
H	-0.7923316982	 1.9130249508	 0.6058034333	 0.12172
H	-3.0368529159	-2.4975876067	 0.1093552667	 0.271233
H	-2.2620561575	-3.2231275642	 1.4423370145	 0.267465
H	 1.1815267098	-0.4619997531	 2.0680233007	 0.108096
H	 2.1964847006	-0.2539260454	-0.3010479783	 0.09842
H	 0.3948470183	-1.9355999031	-1.4851076931	 0.297106
140.8446	188.0997	211.3794	226.3628	271.3599	310.9148	318.6483	380.697	448.2069	515.9998	569.2016	620.2088	645.1595	706.2269	748.4308	780.599	831.647	891.7719	947.8426	957.8286	989.0226	1050.1038	1111.7571	1115.3788	1144.3243	1158.4815	1246.8632	1269.5506	1316.5478	1371.0561	1414.6882	1429.7286	1442.0421	1480.8028	1498.4866	1612.5701	1719.0943	3034.1077	3101.67	3110.2613	3126.7171	3192.5774	3592.4665	3707.8637	3753.2714
CC12N=C(N)OC1C2O	C[C@]12N=C(N)O[C@H]1[C@H]2O	
InChI=1S/C5H8N2O2/c1-5-2(8)3(5)9-4(6)7-5/h2-3,8H,1H3,(H2,6,7)	InChI=1S/C5H8N2O2/c1-5-2(8)3(5)9-4(6)7-5/h2-3,8H,1H3,(H2,6,7)/t2-,3+,5-/m1/s1
