14
gdb 34831	5.24213	1.10481	1.0215	4.3234	67.32	-0.2793	0.0112	0.2905	1116.4968	0.100018	-436.586458	-436.579282	-436.578338	-436.618204	27.133	
N	-0.1100697756	-1.1348906048	-0.1256374682	-0.313733
C	-0.0503244222	 0.0165856758	-0.0506373885	 0.277446
C	-0.0117169996	 1.4662715103	 0.0099706085	-0.181437
C	 0.1321246163	 2.1207751004	 1.4238364655	-0.052232
O	 1.5198085903	 1.619467892	 1.4876073185	-0.294679
C	 1.395843725	 2.141898213	 0.1118381619	-0.052249
C	 0.6975438607	 3.3692478179	 0.7237728496	 0.508609
O	 0.041878357	 4.4312569248	 0.1093325298	-0.277286
C	 1.0710047493	 4.7135060339	 1.1051251226	-0.294015
H	-0.7286625951	 1.9280153546	-0.6731462728	 0.145456
H	-0.5034271379	 1.9994826106	 2.2985038132	 0.1284
H	 2.2478298607	 2.0454688161	-0.5578644987	 0.128393
H	 0.7010967966	 5.1393095787	 2.0349407283	 0.138663
H	 1.9792799846	 5.1606717668	 0.7079139703	 0.138663
115.7187	140.8913	216.0835	284.8107	363.7582	415.6678	471.565	550.7855	601.3574	720.3335	773.7751	791.3128	849.9149	872.	896.4094	930.9538	1005.6401	1069.3095	1090.9051	1101.3609	1115.8158	1133.3202	1136.027	1162.1456	1167.1263	1198.5294	1256.4243	1361.6381	1471.6512	1569.9941	2364.1609	3096.217	3103.6995	3152.5085	3155.6189	3195.4957
N#CC1C2OC1C21OC1	N#C[C@H]1[C@H]2O[C@@H]1[C@]12OC1	
InChI=1S/C6H5NO2/c7-1-3-4-6(2-8-6)5(3)9-4/h3-5H,2H2	InChI=1S/C6H5NO2/c7-1-3-4-6(2-8-6)5(3)9-4/h3-5H,2H2/t3-,4+,5-,6-
