15
gdb 130052	2.50624	1.484	0.93493	6.0062	74.46	-0.2122	-0.0252	0.1869	1175.2499	0.114253	-450.159236	-450.150975	-450.150031	-450.191869	31.055	
N	 0.0817301472	 1.3978988079	 0.1082103835	-0.606842
C	-0.0461134875	 0.0161680871	 0.0308152842	 0.455888
C	-1.151722741	-0.7870914359	 0.0740859779	-0.401804
C	-0.6286821082	-2.12016482	 0.0343194199	 0.432955
N	-1.3664542506	-3.2847337283	 0.1194982906	-0.585438
N	 0.6853548038	-2.1531552435	-0.0445572893	-0.330966
N	 1.0587793104	-0.8206748926	-0.0187631619	-0.080411
C	 2.3918669163	-0.4361144732	 0.0263998449	 0.175436
O	 3.3322510209	-1.181672048	-0.0265981104	-0.282429
H	 0.6761453739	 1.808560165	-0.6003094776	 0.261419
H	-0.8167576266	 1.8607589788	 0.1154051955	 0.261531
H	-2.1835423122	-0.4773622555	 0.120627486	 0.100716
H	-2.2691500355	-3.2514649476	-0.3304595344	 0.250826
H	-0.8365213055	-4.1052338299	-0.1417275903	 0.260625
H	 2.4813860747	 0.6600227356	 0.1288005415	 0.088494
119.3121	190.0347	207.0417	228.18	251.7312	302.5001	336.1931	430.3791	440.9765	583.4461	610.8263	622.3793	648.5413	709.0082	716.396	732.5008	777.0935	897.6469	1001.3728	1014.0706	1093.5106	1133.7993	1167.08	1218.2863	1341.6672	1407.396	1466.7715	1507.906	1562.058	1626.8347	1653.1136	1677.1574	1830.4298	2976.8234	3256.8973	3546.4718	3561.1684	3639.0972	3665.2608
NC1=CC(N)=NN1C=O	Nc1cc(N)nn1C=O	
InChI=1S/C4H6N4O/c5-3-1-4(6)8(2-9)7-3/h1-2H,6H2,(H2,5,7)	InChI=1S/C4H6N4O/c5-3-1-4(6)8(2-9)7-3/h1-2H,6H2,(H2,5,7)
