25
gdb 101336	3.0262	0.76614	0.71346	1.2717	89.89	-0.2609	0.0785	0.3394	1751.4416	0.227156	-389.482155	-389.470954	-389.47001	-389.518867	40.897	
C	-0.1789613335	 1.5526032374	 0.7315307692	-0.374213
C	-0.138496349	 0.024351266	 0.8534286164	-0.196858
C	-1.4207040819	-0.626879554	 0.3732091704	 0.005489
C	-1.6450486647	-0.9136348977	-1.0935672321	-0.311514
C	-1.5087904616	-2.0570078158	-0.113154788	-0.010548
C	-0.3229442144	-3.0048695915	-0.1546872801	 0.015659
C	-0.081513819	-3.6724329915	 1.2065690878	-0.396351
C	-0.5300866068	-4.0504575455	-1.2534692791	-0.073916
O	 0.6469852133	-4.8418460268	-1.3498842642	-0.426149
H	 0.7503001017	 2.0052084086	 1.0916970513	 0.108697
H	-0.3239126891	 1.8595480905	-0.3095419326	 0.117333
H	-1.0036857926	 1.9736906307	 1.317306312	 0.112069
H	 0.7148287065	-0.3603954178	 0.2838760643	 0.098496
H	 0.0446038801	-0.2511088137	 1.9004819367	 0.096924
H	-2.2999985377	-0.2819632809	 0.9143006014	 0.076207
H	-2.6134120207	-0.705994427	-1.5359809418	 0.104653
H	-0.8073411969	-0.7360189899	-1.7628646817	 0.106436
H	-2.4406139207	-2.5596786758	 0.1430159862	 0.074233
H	 0.578757259	-2.4444934906	-0.4311529561	 0.078597
H	-0.9762155568	-4.215581424	 1.535322482	 0.103604
H	 0.742405018	-4.3868375991	 1.1437703671	 0.130145
H	 0.1555251418	-2.9290576994	 1.973238733	 0.111861
H	-1.4070781162	-4.6727718341	-1.0062485282	 0.077959
H	-0.7449984522	-3.5423287774	-2.20596716	 0.086043
H	 0.4951131934	-5.5284906207	-2.0051514839	 0.285145
54.3171	82.9641	95.0512	125.3566	183.9614	225.7259	228.4641	244.9019	256.2866	276.4142	340.0389	394.5251	441.7824	493.3755	571.3458	759.388	793.456	810.7378	857.6951	886.4547	929.7771	951.7451	965.1768	967.5175	1030.6536	1050.0286	1065.998	1074.0908	1110.4936	1116.7655	1149.3662	1166.4754	1192.7945	1201.2044	1241.5516	1252.2494	1265.149	1294.2635	1309.5407	1343.7126	1357.2889	1399.921	1405.4605	1413.7401	1435.8569	1455.9423	1483.1449	1493.4711	1496.4385	1497.9754	1504.7034	1507.9999	1520.6774	2955.2937	2996.2681	3018.6084	3028.349	3030.3972	3035.1732	3060.422	3096.7055	3098.0778	3103.7195	3106.9606	3118.1679	3122.8279	3128.4426	3202.4564	3834.5331
CCC1CC1C(C)CO	CC[C@H]1C[C@H]1[C@@H](C)CO	
InChI=1S/C8H16O/c1-3-7-4-8(7)6(2)5-9/h6-9H,3-5H2,1-2H3	InChI=1S/C8H16O/c1-3-7-4-8(7)6(2)5-9/h6-9H,3-5H2,1-2H3/t6-,7-,8-/m0/s1
