18
gdb 51124	3.85615	1.1313	1.11463	3.702	76.8	-0.216	0.028	0.244	1157.0599	0.147798	-401.896163	-401.888265	-401.887321	-401.929128	30.729	
O	 0.0539578116	 0.5149962641	 1.4797025296	-0.30861
C	 0.0517076952	 1.3758740786	 0.6308889669	 0.13418
N	 1.1162251175	 1.7352227479	-0.1511295353	-0.388694
C	 2.3787615073	 1.0919804559	-0.1370471222	 0.399609
C	 3.1524451799	 0.8965761926	 1.1289758718	-0.306503
C	 3.766439107	 1.7036609091	 0.0130672087	-0.144645
C	 4.2690910723	 0.8542637408	-1.190228895	-0.052449
C	 4.0789164976	-0.6306254127	-1.0266920767	-0.296838
C	 2.8904692394	 0.237272932	-1.3416237254	-0.10408
H	-0.836902233	 1.9999255328	 0.4009289947	 0.068969
H	 0.9459059414	 2.4357816151	-0.8580451904	 0.244161
H	 2.782047948	 1.4990123873	 1.9512865077	 0.129458
H	 3.5203592043	-0.0732592575	 1.4409329036	 0.121243
H	 4.0287132368	 2.7458585217	 0.144505623	 0.093963
H	 4.9048795395	 1.2697555378	-1.9612184399	 0.090439
H	 4.431810325	-1.216949911	-1.8706349631	 0.114206
H	 4.198644877	-1.1386186364	-0.0769831417	 0.11944
H	 2.2993985434	 0.1128083219	-2.2405682363	 0.086152
42.12	129.3333	197.7918	256.2091	356.1246	408.9352	434.7903	490.2099	550.13	594.6563	705.9585	753.0328	804.2168	811.9002	862.2784	899.5743	911.7494	940.821	971.1663	989.1442	1022.3256	1027.9514	1032.3972	1058.0088	1071.5996	1097.7249	1103.0309	1148.6071	1186.4419	1195.9914	1265.0464	1285.264	1319.2055	1396.9006	1437.41	1480.7825	1508.7332	1518.4514	1818.2827	2916.6302	3128.6801	3147.1586	3183.1355	3188.8714	3197.9243	3209.4591	3224.7758	3595.1
O=CNC12CC1C1CC21	O=CN[C@]12C[C@H]1[C@H]1C[C@@H]21	
InChI=1S/C7H9NO/c9-3-8-7-2-6(7)4-1-5(4)7/h3-6H,1-2H2,(H,8,9)	InChI=1S/C7H9NO/c9-3-8-7-2-6(7)4-1-5(4)7/h3-6H,1-2H2,(H,8,9)/t4-,5+,6-,7-/m0/s1
