20
gdb 6780	7.40837	0.67265	0.62866	3.5344	73.42	-0.2446	-0.0094	0.2352	1784.954	0.173409	-386.155353	-386.144985	-386.14404	-386.192475	34.508	
C	-0.014404335	 1.4055615657	 0.0019543194	-0.22672
O	-0.0126672982	-0.0003221445	-0.0006252394	-0.228605
C	 0.6550104422	-0.5480690104	-1.1149086373	-0.054586
C	 0.5965356376	-2.0660427546	-1.0174386736	-0.188536
C	 1.2986788364	-2.7487441158	-2.1891484248	-0.304291
C	 1.25938463	-4.2719608352	-2.1238956965	 0.377181
C	 1.9432545334	-5.0077926874	-3.2641629277	-0.472729
O	 0.7162687563	-4.8611638341	-1.2185145763	-0.285609
H	 1.0074856675	 1.8175044966	 0.0307694178	 0.100915
H	-0.5219153898	 1.8172915666	-0.8855682148	 0.100917
H	-0.5504713015	 1.7317889656	 0.8966001094	 0.127108
H	 0.1838081853	-0.2015560347	-2.0527960671	 0.07904
H	 1.7042916792	-0.2016154363	-1.1417071192	 0.079039
H	 1.0511923828	-2.3848367877	-0.0746127877	 0.121672
H	-0.4492910742	-2.3847907045	-0.9738157949	 0.121689
H	 0.8584715743	-2.4426041985	-3.1494715691	 0.11823
H	 2.3531375209	-2.4427124289	-2.2537765539	 0.118211
H	 3.0019193698	-4.7299592597	-3.3183482899	 0.136916
H	 1.8539773133	-6.0845673236	-3.1163824756	 0.143264
H	 1.4933599898	-4.7290949586	-4.2237533389	 0.136891
31.3269	56.5212	96.7464	99.0603	121.7077	132.5903	234.7225	240.6737	294.0662	414.6333	478.0822	483.2715	601.5569	736.2831	823.9255	833.3713	938.7299	972.5241	989.8991	1065.2166	1088.3955	1136.4194	1167.1407	1175.1301	1180.4995	1222.4295	1228.2558	1293.1054	1298.3355	1309.4559	1379.5583	1389.0942	1429.9779	1452.3807	1466.0694	1477.9139	1482.5365	1485.9135	1492.5088	1505.4032	1531.9606	1814.5001	2931.6474	2954.7375	2965.5667	3006.2857	3006.8949	3032.8559	3036.9318	3063.4764	3096.7032	3105.8904	3112.7744	3152.1105
COCCCC(C)=O	COCCCC(=O)C	
InChI=1S/C6H12O2/c1-6(7)4-3-5-8-2/h3-5H2,1-2H3	InChI=1S/C6H12O2/c1-6(7)4-3-5-8-2/h3-5H2,1-2H3
