18
gdb 99576	2.33618	1.12014	0.79502	3.9513	72.97	-0.2651	-0.0427	0.2225	1396.1689	0.144625	-439.101105	-439.09069	-439.089746	-439.137872	35.611	
C	-0.1634634115	 1.5029701997	 0.0894017258	-0.425888
C	 0.0155267993	-0.0261997134	 0.0038586526	-0.073319
C	-1.3737595403	-0.6544240077	 0.0332911685	 0.163687
O	-1.9147883889	-1.0413939812	 1.0331990468	-0.238774
C	 0.7889723642	-0.458231342	-1.2674196198	-0.177708
C	 2.2452283745	 0.0762669962	-1.3234808266	-0.074037
O	 2.9210676396	-0.3348287454	-2.4862518061	-0.413554
C	 0.8386104838	-1.9205906179	-1.3830065886	 0.262254
N	 0.932480491	-3.0694926472	-1.4744216036	-0.320721
H	 0.7972031	 2.0177217141	 0.1629515108	 0.138997
H	-0.6911733578	 1.8910563819	-0.789029052	 0.130395
H	-0.747807528	 1.7570261486	 0.9773845991	 0.148641
H	 0.5427025785	-0.3815967916	 0.8951814027	 0.118056
H	-1.8897742519	-0.6895601257	-0.9551588624	 0.084469
H	 0.2665534352	-0.0810471958	-2.1563622342	 0.137343
H	 2.2201469671	 1.1675680201	-1.3569714584	 0.126827
H	 2.7719712925	-0.2243281518	-0.4053261315	 0.11177
H	 3.0407891028	-1.2910221709	-2.4473270934	 0.30156
41.0985	44.9935	103.4887	136.0352	164.0843	211.1775	227.5791	302.6868	329.5792	376.2689	380.5521	393.1067	503.96	565.4815	639.0999	819.0672	885.1278	928.0758	953.5326	1018.137	1043.0371	1087.1406	1109.3857	1128.2922	1157.2718	1202.3876	1247.0393	1303.4537	1326.4037	1362.3042	1391.9979	1403.9738	1425.6473	1428.1597	1494.4094	1504.2098	1506.3941	1841.6883	2349.9625	2856.3039	2996.2595	3034.9866	3041.0251	3068.4634	3107.4304	3115.8632	3131.1186	3795.4276
CC(C=O)C(CO)C#N	C[C@@H](C=O)[C@@H](CO)C#N	
InChI=1S/C6H9NO2/c1-5(3-8)6(2-7)4-9/h3,5-6,9H,4H2,1H3	InChI=1S/C6H9NO2/c1-5(3-8)6(2-7)4-9/h3,5-6,9H,4H2,1H3/t5-,6+/m0/s1
