21
gdb 110905	2.86594	1.45638	1.21097	1.6344	78.12	-0.2457	0.0813	0.327	1115.0662	0.184312	-424.203697	-424.195525	-424.19458	-424.236234	32.499	
C	-0.0125724928	 1.4071035748	-0.0500861769	-0.25445
O	-0.0201277526	-0.010991287	-0.023355957	-0.266366
C	 0.6327054207	-0.6050680382	-1.1326085915	 0.098489
C	 1.0535544654	-2.0433783977	-0.8173878617	-0.046726
C	 1.2879303335	-2.6029163577	-2.2520124906	-0.242279
C	-0.2546233467	-2.4287160255	-2.3602756294	-0.040538
C	-0.301416419	-2.8087088082	-0.8531501022	-0.232577
C	-0.3773974623	-0.8920618117	-2.3231977187	 0.124675
O	-1.6723216809	-0.4033341722	-2.0627336892	-0.451515
H	 1.0157524099	 1.796499812	-0.0540426796	 0.112728
H	-0.544788115	 1.7998749748	-0.9259485122	 0.127548
H	-0.5160602153	 1.7473485292	 0.8581529808	 0.12842
H	 1.4827537118	 0.0183941221	-1.4378583721	 0.064373
H	 1.7762298971	-2.1727322761	-0.0119491992	 0.064225
H	 1.9246569252	-2.0299841303	-2.9350606316	 0.088674
H	 1.597423214	-3.6499147766	-2.2436999857	 0.102022
H	-0.8531203999	-2.9459163234	-3.109742624	 0.065101
H	-0.1706476302	-3.880865809	-0.6919404113	 0.097365
H	-1.1259954282	-2.4368800149	-0.2414515015	 0.097356
H	-0.0457370374	-0.4450947163	-3.2662282103	 0.074071
H	-1.7387025172	-0.3293292582	-1.1010988362	 0.289405
114.9776	116.9835	189.7321	248.0404	310.8418	359.5248	398.8416	459.5172	493.6853	536.3217	574.8796	743.6088	801.9919	822.3271	846.3734	860.2285	889.5819	951.1875	960.105	1014.0206	1026.9816	1029.9005	1068.4661	1087.5456	1099.6581	1108.4197	1135.9727	1142.9212	1182.8932	1211.3929	1220.0559	1226.508	1243.3834	1255.6656	1292.0223	1302.3789	1321.9964	1349.6574	1390.539	1436.8293	1480.036	1489.4343	1491.7462	1512.042	1524.5326	2993.6982	3017.1722	3042.4242	3052.5027	3056.7413	3071.0214	3113.9729	3117.4884	3117.7135	3122.1086	3127.8423	3747.031
COC1C2CC(C2)C1O	CO[C@H]1[C@@H]2C[C@@H](C2)[C@H]1O	
InChI=1S/C7H12O2/c1-9-7-5-2-4(3-5)6(7)8/h4-8H,2-3H2,1H3	InChI=1S/C7H12O2/c1-9-7-5-2-4(3-5)6(7)8/h4-8H,2-3H2,1H3/t4-,5+,6-,7+/m1/s1
