15
gdb 12498	3.79185	1.93363	1.3696	4.3098	57.75	-0.2551	0.0319	0.287	860.1887	0.121638	-436.972073	-436.965282	-436.964338	-437.003294	25.323	
O	 0.0476403402	 0.0029383155	-0.5080131343	-0.365569
C	 0.0442756157	 1.1310133106	-0.0896340693	 0.422832
N	-1.1048340894	 1.8392736514	 0.1937508339	-0.351568
C	-1.2311240291	 3.2912177047	 0.0695768099	-0.173848
C	-0.5262970278	 4.0461385279	 1.1909666735	-0.06779
O	 0.8842969293	 3.9312520232	 1.1170474409	-0.218698
C	 1.355445604	 2.6349535378	 1.2835879458	 0.01733
O	 1.2140030515	 1.8018424058	 0.1337930753	-0.231962
H	-1.9210206657	 1.3046249311	-0.0638230613	 0.258478
H	-0.8484263099	 3.6464446704	-0.8962814424	 0.130981
H	-2.2989750343	 3.5242994707	 0.1129098772	 0.119536
H	-0.7455960206	 5.1144760682	 1.1116543484	 0.118988
H	-0.8886338339	 3.6813409527	 2.1643789709	 0.103267
H	 2.4323821177	 2.7127695604	 1.4355421188	 0.133799
H	 0.8734460823	 2.1443505496	 2.1420853327	 0.104223
88.5976	176.4975	269.3579	316.869	388.4142	428.4005	507.232	581.776	634.2399	711.6619	786.5617	806.0152	877.1804	961.1611	1000.9714	1032.9605	1096.306	1132.4557	1143.0295	1187.2789	1272.5035	1288.2806	1333.9754	1350.206	1401.2659	1410.2158	1456.9553	1465.4623	1482.7338	1489.7895	1504.1476	1847.4329	2993.5367	3000.3302	3023.8741	3094.6078	3098.1166	3132.6106	3619.7798
O=C1NCCOCO1	O=C1NCCOCO1	
InChI=1S/C4H7NO3/c6-4-5-1-2-7-3-8-4/h1-3H2,(H,5,6)	InChI=1S/C4H7NO3/c6-4-5-1-2-7-3-8-4/h1-3H2,(H,5,6)
