19
gdb 37793	2.50236	2.15515	1.65205	1.2825	79.14	-0.2161	0.0232	0.2393	902.2277	0.16351	-385.896745	-385.890266	-385.889322	-385.927212	27.619	
C	-0.0908464735	 1.4404753832	 0.0456768371	-0.252084
C	 1.2353403594	 2.1757243945	 0.0458415687	-0.107599
C	 2.2544300267	 1.1555854356	 0.4320060354	 0.095556
O	 1.6536638417	-0.0844487052	 0.6549318657	-0.259299
C	 0.3170953902	-0.0548911252	 0.1260625037	 0.06852
C	 0.2782601646	-0.7707538262	-1.2252660079	-0.252666
C	 1.0898046363	-0.1161400083	-2.3085751921	-0.081823
C	 1.9283820877	 0.9183290014	-2.1920192506	-0.036205
C	 2.2731275136	 1.7079649498	-0.9873341774	-0.124105
H	-0.6739602349	 1.7376459026	 0.9229763822	 0.105505
H	-0.6967705626	 1.6367962895	-0.8438915981	 0.111652
H	 1.2742542949	 3.2005526397	 0.3966042232	 0.088086
H	 3.0869496833	 1.3389494892	 1.1017101352	 0.098891
H	-0.3104603393	-0.605601862	 0.8342858062	 0.082176
H	 0.6289197368	-1.8016249369	-1.0760323037	 0.114633
H	-0.7699725974	-0.8609100933	-1.5485104446	 0.096983
H	 0.9731260817	-0.5561133253	-3.296954488	 0.083186
H	 2.4364661387	 1.2464044601	-3.0960054906	 0.084476
H	 3.061474112	 2.4362804569	-1.1544666245	 0.084118
165.9072	262.274	319.0956	397.1427	440.147	507.9899	596.0215	678.0813	735.1001	746.5678	773.4216	791.6737	803.7325	863.2846	896.8618	911.3814	925.9293	987.718	993.908	1017.3896	1033.7143	1044.678	1064.2543	1080.0258	1106.9888	1130.9381	1184.3086	1201.5369	1231.918	1250.1224	1290.3516	1309.5411	1347.1301	1358.4612	1375.1526	1401.4546	1426.0815	1438.3772	1466.2959	1494.3983	1721.1434	2995.0377	3024.2745	3045.203	3057.2665	3092.8653	3132.0862	3144.3084	3160.8247	3168.7883	3181.3516
C1C2C3OC1CC=CC23	C1[C@H]2[C@H]3O[C@@H]1CC=C[C@@H]23	
InChI=1S/C8H10O/c1-2-5-4-7-6(3-1)8(7)9-5/h1,3,5-8H,2,4H2	InChI=1S/C8H10O/c1-2-5-4-7-6(3-1)8(7)9-5/h1,3,5-8H,2,4H2/t5-,6+,7-,8+/m1/s1
