20
gdb 110696	2.27391	1.63308	1.25523	1.1911	79.96	-0.2183	0.0083	0.2266	1089.3924	0.171466	-403.116583	-403.108021	-403.107077	-403.149349	33.282	
C	 0.1048625976	 1.8800356939	 0.5205285541	-0.416242
C	-0.0257474007	 0.3683742566	 0.3183548617	 0.014206
C	 0.2250874237	-0.175367517	-1.0762037253	-0.094333
C	 1.0142836564	-1.2486050732	-1.0292209859	-0.088523
C	 1.4486845335	-1.5030572586	 0.3762625823	-0.102095
C	 2.305856113	-0.4542473666	 1.0167792572	-0.03128
C	 3.1630194959	 0.5132457586	 0.2301375513	-0.096203
O	 3.3456970836	 1.7710546856	 0.8712224423	-0.405469
N	 0.8417692475	-0.4433635153	 1.21383771	-0.127597
H	 1.1168211828	 2.2446165575	 0.3400957769	 0.154966
H	-0.5889444077	 2.4038782717	-0.14511917	 0.108051
H	-0.1621736179	 2.1358904571	 1.5501923877	 0.121772
H	-1.0572461134	 0.1044376583	 0.6011847067	 0.092964
H	-0.211926736	 0.260673613	-1.9677701766	 0.099486
H	 1.3213365852	-1.8622204164	-1.8674202653	 0.101224
H	 1.4558437908	-2.5212712891	 0.7599985636	 0.090967
H	 2.7942706934	-0.7588719071	 1.9456984617	 0.084314
H	 4.1364869148	 0.0235366022	 0.0609266559	 0.093623
H	 2.7344076857	 0.7355602598	-0.747013103	 0.117304
H	 3.6025456416	 1.6069594391	 1.7845660247	 0.282865
127.8335	145.73	201.3564	217.3592	229.359	278.7782	307.9589	407.1919	447.5171	557.6298	589.6656	705.885	718.6141	746.7603	800.4656	819.3979	874.3562	892.1131	949.8252	963.506	1022.5941	1032.9536	1057.6136	1076.5101	1094.9561	1119.9897	1122.2094	1146.4581	1152.0478	1223.7429	1284.5413	1312.1884	1341.2561	1353.3835	1356.4738	1375.2982	1405.7306	1418.5471	1436.0978	1492.9221	1502.2863	1514.25	1665.5096	2966.2306	2967.6664	3044.979	3069.4265	3107.2267	3123.6479	3128.4454	3152.0178	3188.7738	3215.855	3811.5938
CC1C=CC2C(CO)N12	C[C@H]1C=C[C@H]2[C@@H](CO)N12	
InChI=1S/C7H11NO/c1-5-2-3-6-7(4-9)8(5)6/h2-3,5-7,9H,4H2,1H3	InChI=1S/C7H11NO/c1-5-2-3-6-7(4-9)8(5)6/h2-3,5-7,9H,4H2,1H3/t5-,6-,7+,8?/m0/s1
