13
gdb 50772	12.69803	0.41786	0.40745	1.7542	108.87	-0.2408	-0.0607	0.1801	2456.9192	0.08542	-382.225308	-382.215871	-382.214927	-382.260974	32.1	
O	 0.0773649546	-0.1579048882	 0.1495160027	-0.22089
C	 0.0463720497	 1.0002546609	-0.1587134503	 0.17119
C	 1.2757803142	 1.919609025	-0.0891563596	-0.453652
C	 1.3135598426	 2.8871203504	-1.1676897857	 0.165553
C	 1.3095833954	 3.6748410441	-2.0900140551	-0.362066
C	 1.309525014	 4.5558865173	-3.1143946005	 0.567983
C	 1.3108333101	 5.3509805684	-4.0375121195	 0.010024
C	 1.3105315564	 6.2330753012	-5.0631407853	 0.176173
C	 1.3104858174	 7.0219391701	-5.9800956361	-0.691839
H	-0.8838246461	 1.5009520172	-0.5009490305	 0.105166
H	 1.2242727339	 2.4389076454	 0.8808401943	 0.167984
H	 2.1717346436	 1.289919423	-0.0653371885	 0.167636
H	 1.310301824	 7.7141346152	-6.7854575857	 0.196738
39.7975	63.627	81.3335	137.8666	200.9678	257.8159	343.1892	409.8329	436.6116	484.077	493.0747	551.8618	563.4193	603.0472	638.6251	652.4348	739.0054	968.0726	1019.313	1038.6585	1205.6266	1262.1487	1334.2425	1412.4562	1433.4467	1842.6077	2155.2785	2297.2009	2339.5285	2914.1746	2997.9335	3075.6713	3502.0727
O=CCC#CC#CC#C	O=CCC#CC#CC#C	
InChI=1S/C8H4O/c1-2-3-4-5-6-7-8-9/h1,8H,7H2	InChI=1S/C8H4O/c1-2-3-4-5-6-7-8-9/h1,8H,7H2
