19
gdb 117397	6.09744	0.60555	0.58098	2.0027	79.93	-0.2557	0.0106	0.2662	1975.1558	0.157235	-456.392198	-456.38164	-456.380696	-456.429748	35.82	
C	 0.6461241821	 1.2982148203	 0.0044347077	-0.371794
C	-0.270791584	 0.088840233	-0.1899793475	-0.148628
N	 0.059008932	-0.6923490304	-1.3711355655	-0.361751
C	 0.7010622379	-1.8799619531	-1.3017409342	 0.53548
O	 1.0177179636	-2.476490876	-0.2998698907	-0.400396
O	 0.937857343	-2.3247875906	-2.5902602816	-0.251856
C	 1.5729023378	-3.5303526546	-2.726121445	 0.119765
N	 1.809171842	-3.9577883183	-3.8814516057	-0.20395
C	 2.4825966388	-5.2378461028	-3.9836025132	-0.317023
H	 1.6855615214	 0.9799718641	 0.1244992826	 0.135577
H	 0.5936840429	 1.9792647336	-0.8517043954	 0.116397
H	 0.3511731151	 1.8583189446	 0.897262882	 0.123339
H	-0.1932411895	-0.5926234742	 0.6596151601	 0.151619
H	-1.3160526252	 0.410958839	-0.2622230735	 0.113278
H	-0.0891849759	-0.3053614042	-2.2893772625	 0.260025
H	 1.813099006	-4.0054621551	-1.7722155073	 0.132844
H	 1.8595768223	-5.9299926955	-4.5607304926	 0.131356
H	 3.4177596166	-5.111743953	-4.5403339504	 0.131172
H	 2.7141246331	-5.7029363168	-3.0127586673	 0.104545
23.0645	51.0783	90.161	114.3874	131.5535	213.356	223.1517	293.5945	322.9647	350.2472	391.7475	440.6829	494.7048	597.2709	722.4567	769.4531	809.6632	906.2866	975.9193	994.9331	1065.5491	1082.0352	1117.9165	1142.545	1162.3501	1175.4217	1218.0375	1239.3317	1325.2294	1370.3583	1395.7651	1413.1424	1448.7431	1482.0684	1483.2506	1492.7437	1502.5797	1502.6106	1548.7951	1781.4121	1836.0737	2981.4596	3037.3941	3040.9946	3066.7884	3084.618	3101.103	3111.623	3118.5922	3129.2949	3643.7842
CCNC(=O)OC=NC	CCNC(=O)OC=NC	
InChI=1S/C5H10N2O2/c1-3-7-5(8)9-4-6-2/h4H,3H2,1-2H3,(H,7,8)	InChI=1S/C5H10N2O2/c1-3-7-5(8)9-4-6-2/h4H,3H2,1-2H3,(H,7,8)
