16
gdb 96888	3.35546	1.13579	0.91963	2.4154	82.54	-0.2414	-0.0323	0.2091	1266.4087	0.12283	-400.726465	-400.71776	-400.716816	-400.760785	31.342	
C	 0.0144142067	 1.4439025223	 0.0067916899	-0.335374
N	 0.0666325594	-0.0073721697	 0.0401876942	-0.330142
C	 0.575901216	-0.6377925531	-0.9260334096	 0.431148
O	 1.1265785271	-0.0632004343	-2.0591281217	-0.25306
C	 1.597406244	-1.0942771811	-2.9432794433	-0.112262
C	 1.2854963357	-2.3849089213	-2.2136435886	-0.096969
C	 0.6990133893	-2.0941351547	-1.0555785624	-0.16584
C	 0.959131488	-0.9990419925	-4.2548415138	 0.334862
C	 0.4487973782	-0.9441410095	-5.3404660205	-0.460562
H	 0.732771536	 1.8486259987	 0.7308625228	 0.126803
H	 0.2289456017	 1.8816807053	-0.9743156688	 0.126447
H	-0.9789381976	 1.7692523193	 0.3335835111	 0.124997
H	 2.6825498887	-0.9583254955	-3.0622566045	 0.131223
H	 1.5168177579	-3.3545299494	-2.6309135908	 0.134833
H	 0.343293267	-2.7694892561	-0.2918893296	 0.134917
H	-0.0074285479	-0.8875990282	-6.2982028646	 0.208978
45.2281	78.6775	124.5249	185.6527	235.1868	272.9169	380.6492	487.0294	502.7089	527.2968	629.9315	679.6327	684.0753	708.472	789.1425	819.8276	879.2479	921.3993	970.108	1016.9215	1034.6752	1059.6026	1116.5853	1127.5482	1148.5601	1203.9168	1298.9145	1330.2025	1362.3108	1437.9093	1490.8154	1497.7529	1664.7823	1783.7687	2241.9655	2996.8026	3015.1307	3072.1873	3092.2392	3237.9369	3263.2014	3500.8984
CN=C1OC(C=C1)C#C	CN=C1O[C@@H](C=C1)C#C	
InChI=1S/C7H7NO/c1-3-6-4-5-7(8-2)9-6/h1,4-6H,2H3	InChI=1S/C7H7NO/c1-3-6-4-5-7(8-2)9-6/h1,4-6H,2H3/t6-/m1/s1
