16
gdb 108401	2.37186	1.38388	1.08748	4.2645	69.47	-0.2617	0.0193	0.281	1129.9659	0.123781	-437.84119	-437.832786	-437.831841	-437.874724	30.507	
O	 0.0863872133	 1.4054202653	-0.147032582	-0.403842
C	 0.0648417818	 0.0038693931	 0.0656447599	-0.18269
C	-1.3291075481	-0.5490453282	 0.0885623937	 0.219106
C	-2.3748130628	-0.3274870054	 1.182377624	-0.138691
O	-2.8927924995	-1.6811334597	 1.0028286929	-0.273772
C	-1.9041579413	-1.9390719531	 0.0273687579	 0.050897
C	-2.0546601431	-1.0294840504	-1.1792702891	-0.287894
C	-3.3251910005	-0.5055284805	-1.5963906142	 0.312501
N	-4.3417633014	-0.0639990133	-1.9275940626	-0.340867
H	-0.3250161595	 1.5849070921	-0.9994654013	 0.291041
H	 0.6671220292	-0.5358937828	-0.6824518644	 0.096442
H	 0.5420665465	-0.1520882883	 1.0392976646	 0.125066
H	-1.9302520109	-0.2197899156	 2.176535466	 0.126401
H	-3.139522697	 0.4362562305	 1.0175897792	 0.141416
H	-1.4692470383	-2.9305937245	-0.0292762007	 0.128159
H	-1.3736531385	-1.268816739	-1.9920778138	 0.136727
74.9753	101.3229	140.6528	196.6399	281.6822	320.2314	365.5733	386.7877	427.3321	550.3928	630.8569	711.3844	788.0073	835.8907	908.0042	933.0179	934.4181	986.161	1031.6549	1039.4697	1060.1455	1070.1977	1098.6597	1153.4113	1180.5923	1248.1994	1265.5379	1297.3284	1346.9048	1376.2985	1417.4748	1457.2782	1496.6792	1509.0347	2353.4289	2979.1842	3051.0899	3070.3206	3112.1831	3152.0201	3184.4475	3808.6327
OCC12COC1C2C#N	OC[C@]12CO[C@H]1[C@H]2C#N	
InChI=1S/C6H7NO2/c7-1-4-5-6(4,2-8)3-9-5/h4-5,8H,2-3H2	InChI=1S/C6H7NO2/c7-1-4-5-6(4,2-8)3-9-5/h4-5,8H,2-3H2/t4-,5+,6-/m1/s1
