19
gdb 105010	2.00456	1.37478	1.24421	2.8593	75.63	-0.2368	0.0104	0.2471	1159.6937	0.157857	-419.184767	-419.174879	-419.173935	-419.219741	36.017	
C	-1.5809158165	-0.8045717674	-0.4662201174	-0.34442
N	-0.2030536658	-0.4942892225	-0.1037833615	-0.335822
C	 0.8087422757	-0.6964712141	-1.102224285	 0.323243
C	 2.1843725076	-1.0245073166	-0.570336856	-0.301492
C	 1.3555095033	-2.0963873204	-1.2313321242	-0.294947
C	 0.7535961769	 0.1148752762	-2.4061649945	-0.08781
O	-0.213267818	-0.3336535402	-3.3403331525	-0.410662
C	 0.5630891254	 1.5478864099	-2.0890423417	 0.255857
N	 0.3778316053	 2.6520238053	-1.8015043179	-0.326524
H	-2.0584803385	-0.0894169668	-1.1607418507	 0.096869
H	-1.6198231969	-1.8002101589	-0.918340456	 0.135353
H	-2.1987091179	-0.8211957589	 0.4371155664	 0.129838
H	-0.1346698889	 0.4368301148	 0.2931020753	 0.235182
H	 3.0509690382	-0.6388955286	-1.0962346604	 0.118683
H	 2.2806781808	-1.0584224924	 0.5077768996	 0.127354
H	 0.9089566979	-2.8486100489	-0.5926062692	 0.126265
H	 1.6407644485	-2.4430304681	-2.21805696	 0.126022
H	 1.7120467952	 0.0142074028	-2.9260806392	 0.132341
H	-1.0872273724	-0.2371125453	-2.9481606948	 0.294671
43.1414	111.2832	131.8098	194.6105	221.0186	241.4411	266.338	284.1585	332.5592	380.7466	407.7521	513.2076	553.7972	618.2537	712.3465	781.4193	790.679	865.4152	934.5293	961.7688	967.9272	986.3259	1054.7862	1075.2683	1087.2003	1105.872	1154.047	1185.4024	1193.7114	1242.9947	1270.8668	1290.7035	1369.7957	1419.6064	1451.85	1459.4231	1480.8977	1489.5454	1503.9123	1532.0032	2350.2183	2926.4929	3061.6003	3063.9837	3109.8708	3141.5189	3146.486	3228.4046	3240.9409	3527.46	3825.7362
CNC1(CC1)C(O)C#N	CNC1(CC1)[C@@H](O)C#N	
InChI=1S/C6H10N2O/c1-8-6(2-3-6)5(9)4-7/h5,8-9H,2-3H2,1H3	InChI=1S/C6H10N2O/c1-8-6(2-3-6)5(9)4-7/h5,8-9H,2-3H2,1H3/t5-/m0/s1
