16
gdb 66875	3.09921	1.97882	1.77174	3.7936	71.63	-0.2071	-0.0552	0.152	834.3456	0.123821	-400.618537	-400.61197	-400.611026	-400.649014	27.243	
C	-0.0432045037	 1.5256719354	 0.0273212163	-0.516154
C	-0.0456231545	 0.0274899271	 0.0289600901	 0.283223
C	-0.2372288122	-0.8323145928	-1.2592971944	-0.072742
N	 0.8213207207	-1.8063715012	-1.3550643055	-0.194211
C	 0.8238140569	-2.2580423647	-0.1595822254	 0.214014
O	 1.7991321058	-1.8048780308	 0.7467387289	-0.282694
C	 0.6439287798	-0.9030090539	 1.129950017	 0.040208
C	-0.3980063529	-1.9562012238	 0.7646699207	-0.131364
C	-1.1945091244	-0.9830434455	-0.0753521627	-0.154111
H	 0.958288523	 1.9155816954	-0.1873414429	 0.137361
H	-0.720013607	 1.9128492793	-0.7415314617	 0.127187
H	-0.369209622	 1.9409884037	 0.9881131508	 0.120882
H	-0.5601541564	-0.3273285253	-2.1629863629	 0.105675
H	 0.7997215918	-0.48993741	 2.1251156293	 0.116799
H	-0.7666454447	-2.7086627539	 1.4528068419	 0.102636
H	-2.26384015	-0.835718899	-0.1204214295	 0.10329
188.0482	210.6744	261.4081	388.24	497.1002	542.0831	582.454	660.0479	668.8243	692.9783	713.2947	753.2219	806.1063	854.3123	884.7006	891.8803	920.5907	948.0515	980.9009	1013.5327	1051.1217	1056.4714	1089.8411	1112.3492	1158.8587	1183.6244	1202.4632	1222.2342	1264.2485	1291.084	1383.5746	1418.3094	1484.1807	1497.1597	1550.6292	3022.1226	3081.4993	3096.4529	3140.7246	3181.1964	3182.3267	3222.4298
CC12C3N=C4OC1C4C23	C[C@@]12[C@H]3[N][C]4O[C@@H]1[C@H]4[C@@H]23	
InChI=1S/C7H7NO/c1-7-3-2-5(7)9-6(2)8-4(3)7/h2-5H,1H3	InChI=1S/C7H7NO/c1-7-3-2-5(7)9-6(2)8-4(3)7/h2-5H,1H3/t2-,3-,4+,5-,7-/m1/s1
