17
gdb 64727	4.05322	1.09565	1.04198	2.3232	71.91	-0.2505	0.0149	0.2654	1166.5911	0.135631	-417.970298	-417.962013	-417.961068	-418.00334	31.326	
O	-0.0858069225	 1.4401207482	-0.0483598998	-0.478054
C	-0.0161731894	 0.0370439028	 0.0119435749	 0.389755
C	 0.9026193575	-0.5190864242	-1.0982978322	-0.392114
C	 2.2593347258	 0.0039994096	-0.9568243148	 0.242636
N	 3.3079646787	 0.464010152	-0.7979678446	-0.303182
C	 0.208043363	-0.6420459724	 1.3984209584	-0.233232
N	-1.0940274069	-1.3932093015	 1.2930557746	-0.125221
C	-2.1309263597	-0.3487138761	 1.2372609638	-0.248491
C	-1.38147796	-0.6357648982	 0.0011774846	-0.065228
H	 0.8044139609	 1.7987734477	 0.0600352676	 0.295102
H	 0.9252204308	-1.6130378439	-1.0675080237	 0.164374
H	 0.5063721547	-0.217359666	-2.0741512289	 0.160566
H	 1.0532296029	-1.3321265715	 1.4381324307	 0.120314
H	 0.2533822518	 0.0434279819	 2.2496370724	 0.115706
H	-3.138145908	-0.7477998443	 1.3029226597	 0.128504
H	-1.969764172	 0.5912000806	 1.7584942382	 0.131105
H	-1.8278699877	-1.1194665648	-0.8622445807	 0.09746
70.7216	114.9734	158.1152	258.7582	340.7867	350.5872	396.3243	421.587	443.3055	474.5499	565.361	703.2189	755.9094	787.5608	846.1002	899.4045	922.3764	952.06	964.4121	997.0101	1052.4575	1072.257	1105.0744	1114.2157	1133.3365	1184.2185	1212.6096	1232.07	1269.5627	1286.0494	1297.2245	1346.6651	1412.596	1456.7115	1488.4697	1506.36	2356.9437	3050.9792	3057.5818	3098.763	3116.3258	3121.0647	3158.6888	3209.3259	3772.6337
OC1(CC#N)CN2CC12	O[C@@]1(CC#N)CN2C[C@@H]12	
InChI=1S/C6H8N2O/c7-2-1-6(9)4-8-3-5(6)8/h5,9H,1,3-4H2	InChI=1S/C6H8N2O/c7-2-1-6(9)4-8-3-5(6)8/h5,9H,1,3-4H2/t5-,6-,8?/m0/s1
