19
gdb 30339	2.92367	1.68362	1.1244	3.9904	81.06	-0.2096	0.0416	0.2511	1087.7468	0.163078	-382.130864	-382.123352	-382.122408	-382.162817	29.453	
C	-0.0588730224	 1.5779831479	-0.0009744933	-0.402194
C	 0.0172196657	 0.0550180215	 0.0246967997	 0.033776
C	 0.7703287857	-0.5695461582	-1.1857023602	-0.220787
C	 1.5026841004	-1.8285328159	-0.6443681159	-0.35199
C	 1.6138331749	-1.5120155084	 0.8155507253	 0.376562
N	 2.2412493068	-2.0052785571	 1.8582255859	-0.365054
C	 1.7974338693	-1.2355248102	 2.9150091478	-0.095425
C	 0.8969346898	-0.2826579826	 2.4984174753	-0.167921
N	 0.8016144103	-0.4686895668	 1.1387192429	 0.015637
H	 0.9440722772	 2.0149445329	-0.0286887303	 0.130602
H	-0.606589374	 1.9099184389	-0.8883784153	 0.125706
H	-0.5812264607	 1.9674571983	 0.8781434745	 0.125332
H	-1.0017008848	-0.3527988685	 0.0854822022	 0.094187
H	 0.0901467946	-0.7907027325	-2.0109253925	 0.109743
H	 1.5064937467	 0.1549762216	-1.5492464012	 0.115077
H	 0.910274043	-2.7383588795	-0.8022723049	 0.123435
H	 2.4718070024	-1.9899994716	-1.1223101201	 0.129325
H	 2.1571218857	-1.4040932356	 3.9193088356	 0.102031
H	 0.3583350094	 0.487404406	 3.0244511045	 0.121961
111.3617	141.3114	234.6119	244.5439	284.0326	437.3547	488.4483	570.2729	632.3611	668.1811	697.2938	717.3519	743.0289	826.5239	845.9888	907.1777	944.9287	964.185	980.4365	1028.6743	1094.5312	1099.1149	1121.0066	1138.6551	1175.0111	1198.2345	1232.6071	1294.341	1303.2552	1312.4138	1341.4957	1386.1747	1408.1758	1413.055	1450.6436	1486.3074	1491.3607	1497.5183	1501.6038	1506.6302	1575.7763	2999.7822	3031.9891	3038.7213	3055.3081	3096.5661	3110.9178	3113.1315	3118.2165	3241.9218	3280.4912
CC1CCC2=NC=CN12	C[C@H]1CCc2nccn12	
InChI=1S/C7H10N2/c1-6-2-3-7-8-4-5-9(6)7/h4-6H,2-3H2,1H3	InChI=1S/C7H10N2/c1-6-2-3-7-8-4-5-9(6)7/h4-6H,2-3H2,1H3/t6-/m0/s1
