15
gdb 28114	5.28113	1.30185	1.05124	4.0337	75.55	-0.194	0.0076	0.2016	1088.1774	0.115187	-416.85498	-416.847768	-416.846824	-416.886879	27.322	
C	-0.0201304617	 1.4665333209	-0.0007969624	-0.501551
C	-0.0015557301	-0.0242025809	-0.0266935649	 0.317103
N	-0.0484230817	-0.769048656	-1.1235413717	-0.388586
C	-0.0055978758	-2.0299903439	-0.6324109723	 0.358884
C	 0.0666418991	-2.1051089024	 0.7357245806	 0.265284
N	 0.0691472573	-0.7824037149	 1.1309180076	-0.439931
C	 0.1031896899	-3.4898513719	 1.0770490889	-0.33963
C	 0.0489650849	-4.1291103478	-0.1323247815	-0.011654
O	-0.0183219819	-3.2597343334	-1.1969282165	-0.199676
H	 0.8864202155	 1.8793455035	 0.4576419934	 0.132756
H	-0.0832961445	 1.8304056744	-1.0267153709	 0.161981
H	-0.879542824	 1.8555466653	 0.5581547775	 0.13255
H	 0.1127880017	-0.4161973978	 2.0660409049	 0.263902
H	 0.1598658062	-3.9691301759	 2.0410838502	 0.113069
H	 0.0494951552	-5.1733493393	-0.3959546529	 0.1355
68.4556	146.3384	267.7206	286.2815	352.3039	449.9941	523.2522	575.1668	592.4895	668.6454	700.6384	762.4873	764.4329	796.0765	821.3467	925.3888	981.2554	1016.1218	1046.1858	1057.8409	1153.9559	1183.5157	1226.8496	1306.309	1391.9257	1404.4138	1444.8622	1480.5465	1488.764	1502.9586	1532.3828	1565.5747	1600.3073	3026.3818	3073.8058	3151.6768	3259.3687	3289.3326	3676.097
CC1=NC2=C(N1)C=CO2	Cc1nc2c([nH]1)cco2	
InChI=1S/C6H6N2O/c1-4-7-5-2-3-9-6(5)8-4/h2-3H,1H3,(H,7,8)	InChI=1S/C6H6N2O/c1-4-7-5-2-3-9-6(5)8-4/h2-3H,1H3,(H,7,8)
