16
gdb 74133	1.98348	1.77675	0.94321	3.4582	78.83	-0.2185	-0.0239	0.1946	1175.1463	0.126696	-434.136994	-434.128951	-434.128007	-434.169795	30.91	
N	 0.0485779207	 1.3707525169	-0.2332852814	-0.564836
C	-0.0319548776	 0.0086468993	-0.0381018969	 0.350327
C	-1.1784868516	-0.6938490566	-0.1255048188	-0.219484
C	-1.2272135823	-2.1379817884	-0.0039282323	 0.394959
N	-2.3368933157	-2.770564004	-0.1014105168	-0.540007
N	 0.0093452166	-2.7720417635	 0.2282535835	-0.405995
C	 1.2446826805	-2.1843434897	 0.3565851107	 0.418082
O	 2.245938879	-2.8340813987	 0.5711929494	-0.364833
C	 1.2860161044	-0.670015793	 0.2107372461	-0.446868
H	 0.814866339	 1.8523212271	 0.2114462939	 0.256336
H	-0.8193171459	 1.8846338262	-0.2039773072	 0.260013
H	-2.1328859554	-0.2138724959	-0.3040978495	 0.098737
H	-2.2061016564	-3.7775084492	 0.0095251288	 0.201999
H	 0.0135132311	-3.7787402731	 0.3266571073	 0.249927
H	 1.987360451	-0.4430669785	-0.6016586895	 0.162132
H	 1.7569982823	-0.2770463289	 1.1215873127	 0.149512
70.517	139.7717	182.0013	316.1332	370.2696	375.4162	464.0624	473.1799	494.8625	538.1609	569.0616	583.8317	622.8699	672.1263	694.7446	839.5282	873.4832	903.7009	939.0082	966.764	982.8432	1109.2138	1154.2033	1210.3388	1249.8546	1301.0621	1341.1857	1401.6394	1417.0353	1440.0661	1446.467	1649.8067	1690.8801	1724.8782	1804.2962	3028.4336	3060.9317	3207.6733	3456.2283	3573.2535	3593.3798	3680.026
NC1=CC(=N)NC(=O)C1	N[C]1C=C([NH])NC(=O)C1	
InChI=1S/C5H7N3O/c6-3-1-4(7)8-5(9)2-3/h1H,2,6H2,(H2,7,8,9)	InChI=1S/C5H7N3O/c6-3-1-4(7)8-5(9)2-3/h1H,2,6H2,(H2,7,8,9)
