19
gdb 87977	3.57068	1.09878	1.01514	1.9483	72.62	-0.2354	0.0741	0.3094	1247.3986	0.157744	-460.145034	-460.13614	-460.135196	-460.17915	33.358	
C	 0.1458803139	 1.5635270878	 0.0652457938	-0.404639
C	 0.1861126694	 0.0539678285	 0.0496389485	 0.218794
O	 0.8096435088	-0.4163822022	-1.1232157182	-0.250424
C	 1.2699657271	-1.7227471886	-0.8086985678	-0.180044
C	 1.5517293366	-1.638832656	 0.6905436093	 0.398864
C	 1.562457468	-2.8418658583	 1.5969583387	-0.399551
C	 2.8404605292	-2.066291417	 1.304382524	 0.023843
O	 3.7972832374	-2.6025343207	 0.4389947898	-0.420305
O	 0.9733239393	-0.433908393	 1.1306991445	-0.300354
H	 1.161288509	 1.9578017253	-0.0175809177	 0.134021
H	-0.4528265702	 1.9283658803	-0.7731774293	 0.128335
H	-0.3027701511	 1.9147111261	 0.9977625709	 0.127884
H	-0.8307311303	-0.376532594	 0.128046652	 0.060254
H	 0.4984489662	-2.4761897303	-1.0280247275	 0.09586
H	 2.1632693911	-1.9384154686	-1.3967528961	 0.140157
H	 1.1258972886	-2.7404799928	 2.5845380044	 0.123108
H	 1.4517116305	-3.8175461219	 1.1318521858	 0.114315
H	 3.2261281587	-1.4361253282	 2.1056622991	 0.099236
H	 4.232701118	-3.3340990063	 0.8893551258	 0.290645
33.2816	139.1111	198.3568	211.437	219.1954	276.0723	322.3825	391.5715	448.3834	457.5887	543.8464	547.1284	705.4339	807.0204	828.575	856.8977	876.668	912.2008	939.4703	991.9923	1021.2264	1062.4495	1084.6399	1098.264	1124.3928	1137.2367	1162.6975	1170.9756	1226.2207	1241.0882	1290.208	1320.4906	1357.483	1389.7764	1395.1585	1415.7545	1438.7587	1483.0669	1486.5553	1498.908	1521.994	2916.9732	2988.7141	3055.362	3107.7166	3120.3009	3121.2174	3134.5693	3141.4903	3219.332	3801.9211
CC1OCC2(CC2O)O1	C[C@H]1OC[C@]2(C[C@H]2O)O1	
InChI=1S/C6H10O3/c1-4-8-3-6(9-4)2-5(6)7/h4-5,7H,2-3H2,1H3	InChI=1S/C6H10O3/c1-4-8-3-6(9-4)2-5(6)7/h4-5,7H,2-3H2,1H3/t4-,5+,6-/m0/s1
