18
gdb 51332	4.50002	1.00144	0.95888	3.8563	75.67	-0.2386	-0.0184	0.2202	1249.3277	0.147735	-401.884153	-401.876423	-401.875479	-401.9176	29.043	
O	-0.7040613297	 0.6892593601	 0.6013219148	-0.242639
C	 0.1301410632	 0.9273489271	-0.234745912	 0.155333
C	 1.3304362998	 1.8258244697	-0.0170710149	-0.31028
C	 1.4098158813	 2.9170424683	-1.0851811307	 0.068064
C	 2.5938732899	 3.9033284334	-1.1743310445	-0.110801
C	 3.8350481623	 2.9858630099	-1.3268340406	-0.249648
C	 3.1938075104	 2.5283736426	-2.6358374216	-0.03679
C	 2.3874409733	 3.7663607708	-2.7361093773	-0.046517
N	 1.6884120662	 2.4756479726	-2.4961061635	-0.157852
H	 0.0654996301	 0.4902165326	-1.2550915396	 0.098138
H	 1.2646846922	 2.2619198998	 0.9848173525	 0.120893
H	 2.2260681552	 1.1938008835	-0.062739539	 0.121571
H	 0.4635890748	 3.4684019413	-1.1190996777	 0.093354
H	 2.6362857842	 4.8127883303	-0.578153779	 0.078593
H	 4.7316218229	 3.5751323442	-1.5353816932	 0.112672
H	 4.0542157466	 2.2593121293	-0.5384387253	 0.09948
H	 3.6100313072	 1.9158777009	-3.4242127637	 0.102965
H	 2.1561805801	 4.4508850535	-3.5410053547	 0.103464
50.6463	60.238	173.2496	209.6182	338.3587	447.9815	497.4403	566.9152	701.6738	719.6652	783.6579	819.7984	834.1591	866.4306	888.5141	919.9233	957.3019	979.4732	988.7828	1011.3554	1050.9166	1064.0315	1096.614	1113.5192	1124.717	1148.0152	1167.2941	1204.668	1224.1585	1233.6212	1261.8811	1288.7393	1299.5604	1344.2978	1401.0486	1425.0349	1453.2589	1505.9758	1830.2027	2899.7604	3032.6164	3048.044	3053.4603	3098.2957	3107.3095	3135.6505	3203.1176	3217.299
O=CCC1C2CC3C2N13	O=CC[C@H]1[C@H]2C[C@@H]3[C@H]2N13	
InChI=1S/C7H9NO/c9-2-1-5-4-3-6-7(4)8(5)6/h2,4-7H,1,3H2	InChI=1S/C7H9NO/c9-2-1-5-4-3-6-7(4)8(5)6/h2,4-7H,1,3H2/t4-,5+,6-,7+,8?/m1/s1
