15
gdb 91293	3.16904	1.4846	1.21989	4.0838	60.2	-0.2787	0.0283	0.3069	998.0291	0.113731	-494.934605	-494.927533	-494.926589	-494.966544	27.04	
O	 0.4895349098	 1.0985101572	-0.6306212791	-0.425725
C	 0.1067871897	-0.1021403	-0.0369906732	 0.138133
C	 0.1045770788	-0.2356240154	 1.5251758679	-0.313026
C	-1.3240922403	-0.8351905493	 1.4511933721	 0.08287
O	-2.339828867	-0.0564102212	 2.0796567163	-0.24393
C	-2.7895895616	 0.8878215347	 1.2161069852	 0.492349
O	-3.563859795	 1.7475052927	 1.4802091411	-0.358843
O	-2.2190507833	 0.7188610542	-0.0193059675	-0.270681
C	-1.4071844692	-0.4573339301	-0.0472035853	 0.029405
H	-0.2170847085	 1.7381384256	-0.4753768764	 0.296806
H	 0.6949702681	-0.8969954888	-0.5045870728	 0.104007
H	 0.8789625527	-0.8710616803	 1.9573180796	 0.121974
H	 0.1119364889	 0.7304962466	 2.0357267665	 0.129737
H	-1.4503511264	-1.8766305563	 1.7410976138	 0.11252
H	-1.7974466068	-1.1466685595	-0.7975965582	 0.104404
83.693	128.4096	234.0592	386.1481	394.4024	417.6939	479.4727	600.016	628.9362	713.8259	745.9983	775.49	821.0583	872.0008	909.4472	937.6966	955.4342	1048.7465	1054.4564	1103.1343	1117.2945	1141.4671	1167.2904	1188.4783	1248.2684	1278.32	1286.8643	1333.0982	1349.3475	1372.5025	1441.6578	1470.1926	1932.5786	3073.3067	3076.7558	3101.3715	3131.189	3143.5889	3778.4906
OC1CC2OC(=O)OC12	O[C@H]1C[C@H]2OC(=O)O[C@@H]12	
InChI=1S/C5H6O4/c6-2-1-3-4(2)9-5(7)8-3/h2-4,6H,1H2	InChI=1S/C5H6O4/c6-2-1-3-4(2)9-5(7)8-3/h2-4,6H,1H2/t2-,3+,4-/m0/s1
