18
gdb 40068	4.5103	1.23918	1.09758	3.4974	77.87	-0.2307	0.0159	0.2465	1122.7359	0.149249	-401.91054	-401.903366	-401.902421	-401.942025	28.924	
C	 0.0584274014	 1.5177641364	-0.0353364878	-0.315781
C	 1.3080865528	 0.6679931013	-0.1213076195	-0.310569
C	-0.0465860943	 0.0260531553	 0.0525340776	 0.366168
C	-0.4769465071	-0.7057336991	 1.3643473733	-0.333106
C	-0.5802986323	-2.1462301785	 0.836065646	-0.141605
C	-1.8142511709	-3.0758174777	 0.629974806	-0.126628
O	-1.7366382779	-2.8629086098	-0.8408098211	-0.274241
C	-0.870848047	-1.8342943438	-0.5911768666	 0.417318
N	-0.6525986899	-0.6928519927	-1.0848333862	-0.346045
H	-0.1107116875	 2.0922328172	 0.870038396	 0.108836
H	-0.3028773376	 1.9818733653	-0.9454821798	 0.128218
H	 1.7813961759	 0.5638926477	-1.0906716174	 0.124476
H	 1.9912573919	 0.6690739323	 0.7217963266	 0.108573
H	 0.2303808933	-0.5749129607	 2.186155107	 0.107817
H	-1.4544707687	-0.3277512186	 1.6861760333	 0.113459
H	 0.3298517849	-2.7301136739	 0.99259695	 0.11121
H	-1.6880716528	-4.1313653597	 0.874072615	 0.129954
H	-2.766352674	-2.689644401	 1.0029210775	 0.131947
103.9981	202.6376	266.6271	298.0021	345.8345	456.4191	488.1551	518.8861	661.3967	732.5474	760.7748	777.3363	811.4502	865.8848	894.5941	917.551	924.7345	943.4027	959.6645	986.0869	1052.2114	1071.0228	1077.4355	1100.3542	1144.0672	1153.3879	1186.8759	1190.5232	1218.1754	1230.7886	1262.2188	1334.0032	1352.3249	1372.5248	1455.3435	1483.5596	1495.7826	1499.1559	1761.5062	3041.0418	3067.4647	3081.8704	3110.9211	3130.0211	3133.8649	3142.8656	3216.8243	3230.5891
C1CC11CC2COC2=N1	C1CC21C[C@H]1CO[C]1[N]2	
InChI=1S/C7H9NO/c1-2-7(1)3-5-4-9-6(5)8-7/h5H,1-4H2	InChI=1S/C7H9NO/c1-2-7(1)3-5-4-9-6(5)8-7/h5H,1-4H2/t5-/m0/s1
