19
gdb 61967	5.35103	0.56536	0.53154	2.537	79.4	-0.2469	-0.025	0.2219	1993.3934	0.154982	-422.999834	-422.989228	-422.988283	-423.036788	37.102	
O	-0.1110970313	 1.3603195849	 0.0121705319	-0.426488
C	-0.0521547148	-0.0641908899	-0.0180354803	 0.105454
C	 0.6375702653	-0.5809733569	-1.2844683741	-0.197899
C	-0.0467995859	-0.079611811	-2.5717285971	-0.35861
C	 0.6427479331	-0.5103916377	-3.7806268509	 0.29001
C	 1.2332059777	-0.8783385647	-4.7608457927	-0.434647
C	 0.6054869309	-0.6173290392	 1.2596790487	-0.302361
C	-0.1388871693	-0.2193555546	 2.5185276884	 0.155202
O	-0.3830137001	-0.9724248921	 3.4264594466	-0.240492
H	 0.7934243128	 1.6944598799	-0.0157548457	 0.281709
H	-1.1051260588	-0.3745257985	-0.0376411785	 0.103265
H	 1.6884845171	-0.2610659649	-1.2817901326	 0.102897
H	 0.6478440577	-1.6762209554	-1.2748897871	 0.118391
H	-1.0848398495	-0.4369154179	-2.5929772659	 0.132339
H	-0.1058096589	 1.014079494	-2.5401242932	 0.142338
H	 1.7426522899	-1.1966558576	-5.636252755	 0.195355
H	 0.6889491961	-1.707735096	 1.2334393829	 0.125938
H	 1.6261336102	-0.2090158229	 1.3291775339	 0.113528
H	-0.4544431622	 0.8453555404	 2.5475181006	 0.094073
47.5618	57.083	92.7045	97.3341	131.4235	191.9091	271.193	319.9115	342.8391	350.398	433.3123	452.5579	530.8731	566.7586	619.3238	640.635	767.819	808.0156	875.2477	955.3852	962.8751	1008.6608	1047.8975	1068.4916	1088.6603	1130.6014	1167.0154	1198.9205	1258.2781	1289.1756	1302.6154	1352.0698	1361.6369	1389.696	1415.4332	1423.4597	1450.9558	1473.8835	1489.1956	1831.3262	2239.9447	2911.6627	2997.3306	3016.4805	3025.3523	3036.9318	3062.3551	3083.152	3098.7386	3507.4333	3786.6293
OC(CCC#C)CC=O	O[C@@H](CCC#C)CC=O	
InChI=1S/C7H10O2/c1-2-3-4-7(9)5-6-8/h1,6-7,9H,3-5H2	InChI=1S/C7H10O2/c1-2-3-4-7(9)5-6-8/h1,6-7,9H,3-5H2/t7-/m0/s1
