20
gdb 60644	2.93243	1.13969	0.86607	5.2234	74.78	-0.2523	0.0187	0.271	1340.8039	0.171869	-440.331075	-440.321764	-440.32082	-440.365424	34.08	
C	-0.1703571576	 1.7463770856	 0.2149253928	-0.407124
C	 0.0470460054	 0.25055124	 0.0024805945	-0.160449
C	 0.7612028341	-0.5270394938	 1.1177267484	 0.008462
C	 0.1711012335	-1.9370020529	 0.9489719728	-0.084922
N	 2.8390449421	-1.3620085018	 2.1194035363	-0.512396
H	 2.6654964544	-0.9525573404	 3.0334014859	 0.228244
H	 3.848100593	-1.421343316	 2.025532524	 0.232687
C	 2.285403825	-0.4960753065	 1.07282109	-0.183959
C	-1.2701596263	-0.5145094691	-0.1501640135	 0.440777
O	-2.2819714284	-0.1372282377	-0.6680440979	-0.34731
O	-1.148280132	-1.7481015502	 0.4036929955	-0.224216
H	 0.7788644237	 2.289965982	 0.2093020543	 0.114952
H	-0.8075708505	 2.1467470051	-0.5773224926	 0.145185
H	-0.6677930687	 1.9368181661	 1.1715677703	 0.123305
H	 0.5898982541	 0.0957249735	-0.9430050633	 0.105489
H	 0.4260479152	-0.1244980819	 2.0846154111	 0.07938
H	 0.0724110223	-2.4916020608	 1.881834834	 0.13081
H	 0.7618107253	-2.5392751507	 0.247976587	 0.114085
H	 2.6204276308	-0.8884388682	 0.1039445436	 0.10614
H	 2.6292215948	 0.5510339177	 1.1246635666	 0.090858
72.5434	103.1007	172.6532	180.9134	196.8056	241.0688	256.5856	314.6125	365.207	476.9107	523.6312	584.2185	665.6108	715.4053	811.9072	834.9169	872.4068	927.3053	983.9927	1019.3504	1053.0258	1056.8525	1081.2962	1096.3977	1123.8216	1154.2597	1181.4713	1200.3566	1232.6127	1289.8208	1308.2054	1322.7995	1361.7997	1368.5568	1402.3452	1411.681	1428.033	1493.8212	1497.4999	1507.448	1518.1485	1660.1848	1875.5247	2952.8621	2991.128	3004.8045	3035.8822	3041.2684	3044.794	3108.8611	3127.4827	3132.5105	3488.9742	3567.9663
CC(C1C[NH2+]C1)C([O-])=O	C[C@H]1[C@@H](COC1=O)CN	
InChI=1S/C6H11NO2/c1-4(6(8)9)5-2-7-3-5/h4-5,7H,2-3H2,1H3,(H,8,9)	InChI=1S/C6H11NO2/c1-4-5(2-7)3-9-6(4)8/h4-5H,2-3,7H2,1H3/t4-,5+/m0/s1
