18
gdb 110652	2.45272	1.39963	1.07979	1.9712	71.32	-0.2128	0.0672	0.2799	1149.7814	0.146434	-438.970164	-438.96167	-438.960725	-439.00332	32.974	
O	 0.0506254244	 1.3894867565	 0.4980925453	-0.42894
C	 0.1535175276	 0.0933648389	-0.0916257594	-0.088312
C	-1.2161688384	-0.5924323717	-0.1343374329	-0.124289
C	-1.8949478053	-1.3745453278	-1.2524121274	-0.162598
C	-0.9859816821	-2.4496958159	-1.910168319	-0.0459
N	 0.374136263	-2.3831717839	-1.3061213039	-0.334867
C	-0.7290995377	-3.0852340818	-0.6061748118	-0.135554
C	-1.6306071615	-2.0220928969	 0.0996686546	 0.370377
O	-2.5697939253	-2.4025116502	 1.0404523559	-0.456746
H	-0.4086276812	 1.9576146689	-0.1280815581	 0.27769
H	 0.5976968756	 0.1432882016	-1.0903710482	 0.105077
H	 0.8477781873	-0.4650066203	 0.5395263579	 0.116025
H	-1.9613369134	 0.0441331971	 0.3446454252	 0.098219
H	-2.8389193083	-1.0648681589	-1.682444487	 0.095895
H	-1.1443959886	-2.8937335414	-2.8838455692	 0.097105
H	 0.9445517629	-3.0944854535	-1.7646380076	 0.229433
H	-0.6722648496	-4.1297275709	-0.3283846379	 0.098543
H	-2.1911047196	-2.2651593897	 1.9163163235	 0.288842
57.7295	180.8202	208.659	228.5421	299.5899	310.2456	337.9293	403.0269	412.278	509.2791	581.4646	673.0359	724.9597	790.8884	827.0048	844.5676	860.2197	909.4709	925.59	957.8424	986.7949	1006.1865	1043.3509	1056.2495	1085.0196	1090.9269	1118.8829	1205.8458	1208.388	1216.5241	1254.4901	1303.758	1310.6162	1327.0212	1348.9272	1380.842	1402.5209	1465.3094	1486.3191	3053.3218	3110.6241	3111.2686	3191.4281	3197.829	3208.9076	3459.4581	3784.8232	3818.3823
OCC1C2C3NC3C12O	OC[C@H]1[C@H]2[C@H]3N[C@H]3[C@@]12O	
InChI=1S/C6H9NO2/c8-1-2-3-4-5(7-4)6(2,3)9/h2-5,7-9H,1H2	InChI=1S/C6H9NO2/c8-1-2-3-4-5(7-4)6(2,3)9/h2-5,7-9H,1H2/t2-,3-,4+,5+,6+/m0/s1
