17
gdb 11836	3.33427	1.92005	1.55591	2.8049	64.05	-0.252	0.0701	0.3221	861.2866	0.142738	-400.954299	-400.946895	-400.945951	-400.985946	28.854	
O	 0.11363878	 1.3316685658	-0.1081074101	-0.447371
C	 0.0994191695	-0.0669727747	 0.0081506225	 0.109325
C	 0.2444703285	-0.5369154578	 1.4878725256	-0.335136
C	-1.2749524248	-0.7166807286	 1.5346358417	 0.302345
C	-2.1811956936	-1.336096931	 2.5188627986	-0.315513
N	-2.2085305584	 0.1253917083	 2.2848297783	-0.367536
C	-1.3768671875	-0.6110108882	 0.0053654336	 0.055325
O	-2.3389512524	 0.2996392091	-0.4580564304	-0.441394
H	-0.7409227008	 1.5605717368	-0.5066595592	 0.28589
H	 0.7883118785	-0.5314455843	-0.7078850754	 0.065275
H	 0.7899617557	-1.4796854614	 1.5910201868	 0.107142
H	 0.6750253949	 0.2099032662	 2.1595454243	 0.113279
H	-3.0708784878	-1.866978358	 2.1906124939	 0.126748
H	-1.7545425722	-1.6976072371	 3.4513159064	 0.120679
H	-1.7338980641	 0.6274379276	 3.0303426584	 0.241288
H	-1.4844377954	-1.5711930379	-0.510346932	 0.081128
H	-2.74858257	 0.6552640252	 0.3514770069	 0.298524
63.5241	228.1154	258.2844	291.3238	327.9048	368.7881	434.5996	500.5343	583.9216	655.8149	677.2668	788.1604	824.0522	852.1532	878.741	906.9749	957.7793	979.2918	997.2677	1036.1326	1097.4334	1127.2968	1144.881	1165.7523	1177.6769	1245.6137	1250.8301	1257.1103	1292.1147	1335.6886	1367.931	1402.6975	1413.5783	1435.989	1465.2378	1511.559	3021.7821	3050.3271	3058.3915	3105.31	3114.3398	3190.6634	3509.1612	3615.5416	3687.1364
OC1CC2(CN2)C1O	O[C@H]1C[C@]2(CN2)[C@H]1O	
InChI=1S/C5H9NO2/c7-3-1-5(2-6-5)4(3)8/h3-4,6-8H,1-2H2	InChI=1S/C5H9NO2/c7-3-1-5(2-6-5)4(3)8/h3-4,6-8H,1-2H2/t3-,4-,5-/m0/s1
