17
gdb 8185	2.82999	2.55652	1.76537	2.1784	62.92	-0.2287	0.0573	0.2861	784.8612	0.143843	-400.956396	-400.949518	-400.948574	-400.986907	27.946	
O	 0.0102348239	 1.3925258396	 0.1065366375	-0.448
C	-0.0067794602	-0.0197739448	 0.0471473501	 0.116609
C	 0.4280227064	-0.6445511183	 1.3998219589	-0.191249
N	-0.7893988039	-1.4148507823	 1.8185013666	-0.126956
C	-1.8628608614	-0.3955432048	 1.4938756959	-0.243255
C	-1.4256085548	-0.6103301553	 0.0197174335	 0.339248
O	-2.1342449268	-0.2176415439	-1.1131418584	-0.494478
C	-1.1477390567	-2.0635620634	 0.4943190496	-0.243256
H	-0.4926217301	 1.7086691408	-0.6535097757	 0.287714
H	 0.5828972418	-0.3795297509	-0.8083372254	 0.068754
H	 1.280962475	-1.3214444605	 1.3163394634	 0.106903
H	 0.6565092412	 0.1326696729	 2.1321398151	 0.122514
H	-2.8501122976	-0.8038367018	 1.7275703161	 0.096149
H	-1.7273092989	 0.5902434032	 1.9425423225	 0.118821
H	-3.0488166278	-0.5049372067	-1.0278423973	 0.286306
H	-0.3463205267	-2.6414023166	 0.0240230896	 0.103084
H	-2.0469105032	-2.676084137	 0.6030625181	 0.101093
180.3503	223.8254	305.4645	374.6868	386.3139	401.8283	465.9788	497.5713	580.4606	629.0526	679.8575	834.8982	849.1549	861.2392	900.9734	963.1274	973.0563	1010.5104	1015.1342	1062.3151	1088.0535	1128.2805	1157.2817	1202.0302	1210.342	1213.2781	1237.4151	1253.3052	1294.8403	1316.958	1355.9498	1392.6259	1421.635	1488.8731	1492.5086	1529.1117	2996.6763	3047.693	3060.0326	3074.3391	3110.7906	3127.9193	3132.5499	3792.0269	3819.3545
OC1CN2CC1(O)C2	O[C@H]1CN2C[C@]1(O)C2	
InChI=1S/C5H9NO2/c7-4-1-6-2-5(4,8)3-6/h4,7-8H,1-3H2	InChI=1S/C5H9NO2/c7-4-1-6-2-5(4,8)3-6/h4,7-8H,1-3H2/t4-/m0/s1
