17
gdb 100368	2.16441	1.19933	1.08172	4.7847	71.93	-0.2731	0.0053	0.2784	1221.3889	0.13123	-458.936736	-458.926483	-458.925539	-458.972496	36.147	
C	 0.0865636416	 1.6130567049	 0.0076677525	-0.416587
C	 0.016633127	 0.0804065202	 0.0318466984	 0.121865
C	 0.7919544621	-0.4973996141	 1.2482054013	-0.090853
O	 0.5739599967	-1.8706369818	 1.4352563099	-0.411254
O	-1.3714601513	-0.3532712847	-0.0002966869	-0.222956
C	-2.1364002238	-0.2863816357	 1.1073146247	 0.18524
O	-3.2838450413	-0.6182189841	 1.0982425705	-0.275994
C	 0.6020288727	-0.4930064444	-1.1846515753	 0.332269
C	 1.133572062	-0.9822550523	-2.1444517578	-0.459547
H	 1.1254428871	 1.9462378408	-0.0614591211	 0.138816
H	-0.4613470419	 1.9966482248	-0.8551095878	 0.15181
H	-0.3533167787	 2.0291848924	 0.9189225093	 0.126882
H	 1.8532592382	-0.2521862741	 1.0924810864	 0.111618
H	 0.4776046565	-0.0020115181	 2.170976821	 0.120527
H	 0.7972987888	-2.321202653	 0.611490469	 0.295317
H	-1.6172190095	 0.1033341996	 1.9978859616	 0.080215
H	 1.5843418138	-1.4012259204	-3.0109257756	 0.212634
39.8287	99.0463	118.7237	134.6692	187.3361	227.1479	251.8836	278.7133	355.8705	386.7376	423.3879	462.5387	481.1474	604.0034	628.3987	656.7796	678.0138	783.5869	896.4893	937.2189	996.7514	1039.6855	1097.3033	1120.1579	1159.7934	1163.377	1198.638	1286.1896	1377.6163	1402.1694	1421.2786	1438.4084	1483.5044	1490.7644	1511.8722	1859.3346	2239.6436	2997.5946	3003.388	3047.985	3089.8141	3123.0184	3141.8163	3497.1418	3784.4835
CC(CO)(OC=O)C#C	C[C@@](CO)(OC=O)C#C	
InChI=1S/C6H8O3/c1-3-6(2,4-7)9-5-8/h1,5,7H,4H2,2H3	InChI=1S/C6H8O3/c1-3-6(2,4-7)9-5-8/h1,5,7H,4H2,2H3/t6-/m1/s1
