19
gdb 92210	2.67187	1.90403	1.54986	2.8637	72.79	-0.2473	0.0546	0.302	927.2967	0.162254	-423.004092	-422.997251	-422.996307	-423.035612	28.392	
O	 0.1493679379	 1.3592713869	-0.2661008259	-0.440622
C	 0.0711687398	-0.0317830263	-0.0347486207	 0.128159
C	 0.7320618599	-0.4998011137	 1.2976690832	-0.25558
C	-0.3925495773	-0.9766496173	 2.2270685212	-0.034421
C	-1.2842025172	 0.1255025682	 2.8950267833	-0.253036
C	-2.3992192912	-0.1542673303	 1.8677951571	 0.121179
O	-2.2187412967	 0.5835130141	 0.6320042048	-0.324977
C	-1.4090318501	-0.485999943	 0.0556988241	 0.073454
C	-1.6010516063	-1.3600798564	 1.3106077564	-0.109072
H	-0.6472109071	 1.731570162	 0.140177488	 0.28701
H	 0.562948351	-0.5177476708	-0.8845415294	 0.078659
H	 1.4137027764	-1.333529211	 1.0941093793	 0.095283
H	 1.3294090397	 0.3108058423	 1.7242669609	 0.111063
H	-0.0602418722	-1.7433780823	 2.9285371429	 0.07221
H	-1.5853172861	-0.1492153342	 3.9102995108	 0.104504
H	-0.8984585705	 1.1486903126	 2.905307004	 0.107342
H	-3.4435079095	-0.1521364476	 2.1853042242	 0.082064
H	-1.8338350817	-0.8138055739	-0.896852907	 0.081631
H	-1.9605689787	-2.3832552193	 1.2315174827	 0.075149
50.3396	278.0736	307.5015	388.261	414.8343	504.3654	526.6544	617.6262	652.8253	725.7542	797.4778	808.1859	832.4625	844.6727	872.0614	929.2439	937.8043	957.0496	978.253	1005.5851	1021.8326	1060.5551	1076.1977	1110.4206	1140.9278	1163.2566	1188.8983	1206.6366	1215.7025	1254.6627	1257.0308	1274.6626	1292.7669	1299.689	1320.7054	1337.525	1350.0459	1367.0984	1450.4627	1464.8164	1482.6075	3032.2595	3048.4802	3051.0924	3072.997	3090.242	3092.616	3097.2726	3110.3977	3142.5143	3717.8962
OC1CC2CC3OC1C23	O[C@H]1C[C@H]2C[C@H]3O[C@@H]1[C@@H]23	
InChI=1S/C7H10O2/c8-4-1-3-2-5-6(3)7(4)9-5/h3-8H,1-2H2	InChI=1S/C7H10O2/c8-4-1-3-2-5-6(3)7(4)9-5/h3-8H,1-2H2/t3-,4-,5+,6-,7-/m0/s1
