21
gdb 115648	2.60671	1.31224	1.04153	1.4778	79.26	-0.237	0.0708	0.3078	1245.9022	0.18189	-424.190054	-424.180961	-424.180017	-424.224379	33.55	
C	-0.4649328697	 1.5051235852	 0.1343289761	-0.238823
O	-0.4500169227	 0.2015030903	 0.6730090744	-0.246399
C	-1.3269556149	-0.6810028624	 0.0328498323	 0.10033
C	-0.9518679861	-1.2960536575	-1.3480841235	-0.272313
C	-1.5246697557	-2.6445955258	-0.8288138189	-0.303974
C	-1.3689678535	-2.1082542991	 0.6117974804	 0.414482
C	-0.2174920083	-2.5820856826	 1.523757009	-0.34195
C	-1.3389933419	-2.857547688	 2.5433121601	-0.077392
O	-2.3510900663	-2.4283276766	 1.6056280408	-0.320111
H	 0.2332983159	 2.1078557151	 0.7201087527	 0.12669
H	-0.1470239842	 1.5187727721	-0.9187478534	 0.10905
H	-1.4666887329	 1.9576139706	 0.1982731354	 0.107568
H	-2.3497475554	-0.2715427264	 0.0094294082	 0.074441
H	-1.4014593133	-0.8629470656	-2.2429201106	 0.100494
H	 0.1342424704	-1.3327739462	-1.469392481	 0.109888
H	-2.5825157916	-2.7663146363	-1.0777064265	 0.115927
H	-0.9907295655	-3.5632288732	-1.0814623763	 0.101058
H	 0.3156458808	-3.4649947366	 1.1662577005	 0.104684
H	 0.492148822	-1.8021878934	 1.7979452679	 0.130678
H	-1.4768163523	-3.9039011704	 2.8399931119	 0.100218
H	-1.325830385	-2.2300132035	 3.4420670905	 0.105455
74.868	91.5657	112.3339	173.1042	192.1298	258.6498	312.0187	351.1398	451.7141	510.7813	543.0878	710.7654	790.1049	794.478	863.255	872.5736	917.0414	935.1644	969.4905	977.2854	1026.7232	1040.2788	1090.6177	1129.7517	1153.2397	1160.0685	1168.9091	1184.1082	1191.1397	1221.1053	1226.3847	1245.9035	1248.0863	1262.9245	1280.2444	1304.263	1357.3183	1392.0222	1475.686	1481.0157	1486.5495	1486.9133	1495.552	1509.3572	1531.2352	2974.7611	2982.2249	3021.5788	3026.5126	3062.5695	3062.9003	3067.5437	3083.5549	3114.1851	3114.5434	3129.4111	3149.6819
COC1CCC11CCO1	CO[C@H]1CC[C@]21CCO2	
InChI=1S/C7H12O2/c1-8-6-2-3-7(6)4-5-9-7/h6H,2-5H2,1H3	InChI=1S/C7H12O2/c1-8-6-2-3-7(6)4-5-9-7/h6H,2-5H2,1H3/t6-,7+/m0/s1
