16
gdb 47159	2.4825	1.9507	1.16919	4.474	72.52	-0.2517	-0.0147	0.237	1010.2407	0.125358	-437.856386	-437.849034	-437.84809	-437.88855	27.827	
N	-0.1403574254	 1.3225882555	-0.0847678348	-0.503019
C	-0.0009445566	 0.0828248731	 0.1020784305	 0.364104
O	 1.2098789283	-0.4950542893	 0.3722059784	-0.261644
C	 1.3350763093	-1.8889515191	 0.7448062143	-0.111679
C	 0.1432946279	-2.4102598326	 1.5125235934	-0.2653
C	-1.0185026325	-1.9422566138	 1.0953606871	 0.270387
C	-2.4455465747	-1.6475256426	 1.4741197793	-0.168081
O	-2.4342924831	-0.5059934076	 0.5677385142	-0.284482
C	-1.1489075665	-0.8975523831	 0.0309296969	-0.00231
H	 0.754376345	 1.8031673312	 0.0316695314	 0.221827
H	 1.5186665916	-2.4725175933	-0.1679480753	 0.128169
H	 2.2440689664	-1.9319108198	 1.3497964775	 0.132835
H	 0.2922843952	-3.0521659614	 2.3732882994	 0.114128
H	-3.1886720213	-2.395871298	 1.1682763079	 0.119411
H	-2.6299313842	-1.3567720653	 2.5143910511	 0.132462
H	-1.2503012796	-1.2696176039	-1.0002533712	 0.113193
82.5106	123.8801	227.4946	259.6221	338.004	468.1374	474.8314	508.1711	583.7915	709.8371	759.575	804.2868	864.8206	892.906	932.6208	937.3104	978.0052	1010.5135	1020.6557	1035.1043	1069.5342	1107.7739	1135.737	1155.0149	1228.695	1251.8555	1270.7687	1305.7709	1333.5164	1348.2656	1410.9385	1500.1318	1504.4499	1766.0911	1795.1594	2984.3936	3009.5493	3013.7296	3066.6532	3097.0847	3195.5634	3463.2388
N=C1OCC=C2COC12	[NH][C]1OC[CH][C]2CO[C@@H]12	
InChI=1S/C6H7NO2/c7-6-5-4(3-9-5)1-2-8-6/h1,5,7H,2-3H2	InChI=1S/C6H7NO2/c7-6-5-4(3-9-5)1-2-8-6/h1,5,7H,2-3H2/t5-/m1/s1
