19
gdb 89812	3.11947	1.35614	1.11549	2.2691	74.78	-0.2546	0.0689	0.3235	1119.9592	0.159985	-422.999266	-422.991403	-422.990459	-423.031462	31.405	
O	-0.0967952228	 1.4685224821	 0.1128890653	-0.435309
C	-0.012655134	 0.0562063625	-0.0044724129	 0.122835
C	 0.7426760284	-0.6304773276	 1.1605637884	-0.378997
C	 0.0559773879	-1.9830135546	 1.3218789837	 0.489729
C	 0.7678786806	-3.2647337853	 1.2444430632	-0.263198
O	 0.3207930499	-2.7444421119	 2.5014350263	-0.28862
C	-1.3585664671	-1.8234527476	 0.839427846	-0.125059
C	-2.1083055553	-0.6130750657	 1.3431105722	-0.291838
C	-1.4056264841	-0.5522669875	 0.0148519102	-0.03876
H	 0.7900181967	 1.8297619792	 0.015478323	 0.281879
H	 0.4662615444	-0.214066484	-0.958789657	 0.067714
H	 1.8174641686	-0.7198114606	 0.9837638867	 0.099173
H	 0.6057223963	-0.0367320585	 2.0704417633	 0.125576
H	 0.2462196953	-4.1562316459	 0.8961493005	 0.110725
H	 1.8481934886	-3.2775318974	 1.0996325029	 0.10853
H	-1.9154106281	-2.7104691752	 0.5606408782	 0.086418
H	-3.1905397905	-0.6707477874	 1.3204782416	 0.114809
H	-1.7134765638	-0.0500520424	 2.1809644201	 0.126264
H	-2.0008039509	-0.485205862	-0.8881042717	 0.08813
98.305	158.5135	254.9659	279.8438	309.8116	367.5606	419.7269	435.8379	509.2629	573.0179	602.537	750.8639	811.7921	833.276	857.6035	876.397	925.69	955.7432	970.223	991.7587	1021.15	1032.4159	1061.8987	1096.5003	1108.7709	1122.1506	1132.3797	1159.7054	1184.4163	1203.815	1244.8472	1255.8796	1268.8844	1320.3899	1354.3496	1382.178	1430.9931	1445.277	1483.523	1503.9967	1533.3568	2972.0499	3054.7083	3070.8965	3102.1284	3141.9981	3155.536	3174.028	3182.4038	3225.5846	3816.5557
OC1CC2(CO2)C2CC12	O[C@H]1C[C@]2(CO2)[C@H]2C[C@@H]12	
InChI=1S/C7H10O2/c8-6-2-7(3-9-7)5-1-4(5)6/h4-6,8H,1-3H2	InChI=1S/C7H10O2/c8-6-2-7(3-9-7)5-1-4(5)6/h4-6,8H,1-3H2/t4-,5+,6+,7+/m1/s1
