19
gdb 47647	2.3186	1.72172	1.14421	3.2906	78.52	-0.2277	-0.0132	0.2144	1091.5723	0.161881	-419.184874	-419.17673	-419.175785	-419.217775	31.434	
N	 0.0108500914	 1.3739155016	 0.2288660971	-0.457239
C	 0.0326928575	 0.1239417929	 0.0356391296	 0.355531
C	-1.2665514108	-0.666855051	-0.0401785227	-0.208679
N	-1.8709914289	-0.6957089925	-1.376513907	-0.279957
C	-1.031103952	-1.2629631174	-2.4460567128	-0.21875
C	-0.3554781176	-2.5532535679	-2.0537900067	-0.048089
C	 0.7915604726	-2.597165889	-1.3722171495	-0.074236
C	 1.6317071069	-1.3807389719	-1.0603687429	-0.131579
O	 1.2157123754	-0.5808055082	 0.0676947439	-0.2599
H	 0.9694508727	 1.7275103799	 0.2856530113	 0.218258
H	-1.0646136301	-1.6647543091	 0.3756961896	 0.098216
H	-1.9766743249	-0.1551717277	 0.6134982039	 0.131116
H	-2.7391949573	-1.2179944084	-1.3150786046	 0.220225
H	-1.6691767516	-1.4006932097	-3.3234760731	 0.107465
H	-0.284911913	-0.5066412173	-2.7169714461	 0.117485
H	-0.9042811914	-3.4762516289	-2.2320818842	 0.092925
H	 1.1702023314	-3.5506539271	-1.0132983683	 0.09785
H	 2.6445646514	-1.6878412845	-0.7925133137	 0.121293
H	 1.7082685084	-0.7257671537	-1.9368007837	 0.118066
59.0466	143.9292	212.7111	242.4449	302.2736	309.1736	430.9137	480.3408	503.5763	540.2094	615.3389	679.3918	716.9013	783.9624	849.6201	901.9237	914.6323	956.6375	980.2082	999.4913	1010.4333	1013.7889	1023.6831	1104.41	1127.9975	1141.6805	1228.4387	1260.2818	1286.6718	1293.0058	1317.9212	1356.364	1386.9713	1407.7201	1421.8423	1482.4456	1488.3706	1500.7163	1512.2296	1704.5293	1737.0351	2995.452	3027.4273	3035.927	3087.9875	3100.3081	3107.4006	3139.5321	3167.8092	3449.5657	3517.0745
N=C1CNCC=CCO1	[NH][C]1CNCC=CCO1	
InChI=1S/C6H10N2O/c7-6-5-8-3-1-2-4-9-6/h1-2,7-8H,3-5H2/b2-1-,7-6?	InChI=1S/C6H10N2O/c7-6-5-8-3-1-2-4-9-6/h1-2,7-8H,3-5H2/b2-1-,7-6?
