21
gdb 95694	2.89552	1.19797	0.94216	4.5163	78.8	-0.2565	0.0177	0.2742	1293.9128	0.183921	-424.279887	-424.271197	-424.270252	-424.313184	33.456	
C	-0.0102169296	 1.6563740829	 0.0333400782	-0.399955
C	-0.0704928033	 0.1246546448	-0.0146050084	 0.032413
C	 0.3657665943	-0.3925134383	-1.3939991303	-0.198938
C	 0.2796838717	-1.906795662	-1.5797812683	-0.088914
O	 1.4000554908	-2.6245702732	-1.046379615	-0.219219
C	 1.6201193504	-2.7393301242	 0.2871571543	 0.405166
O	 2.5643829484	-3.3830781566	 0.658817945	-0.321418
C	 0.677025177	-2.0246501863	 1.2420356331	-0.346762
C	 0.7339274185	-0.4855620212	 1.1434412845	-0.193688
H	 1.0177273955	 2.0127982118	-0.1014177786	 0.119533
H	-0.6226854803	 2.1035877509	-0.75642462	 0.113311
H	-0.3705475923	 2.0380201069	 0.9941277261	 0.114802
H	-1.120154807	-0.1764707709	 0.1263990279	 0.072253
H	-0.2697831366	 0.0716885466	-2.1586945184	 0.102312
H	 1.3949220177	-0.0790679922	-1.6132148834	 0.113896
H	-0.6579533729	-2.3042109566	-1.1699875918	 0.107452
H	 0.3018964478	-2.1539065078	-2.6436699882	 0.124081
H	-0.3531710181	-2.3708551827	 1.0904528323	 0.115494
H	 0.9848457673	-2.3468913991	 2.23777737	 0.131381
H	 1.7825298542	-0.1661902991	 1.0789031816	 0.11199
H	 0.3492355365	-0.0742776336	 2.0834159393	 0.104808
78.492	133.3053	204.3663	230.2081	286.6651	308.973	317.6453	376.8226	408.0875	493.7263	515.022	585.7586	712.6528	732.255	797.9862	873.1521	882.2675	942.3708	952.7313	992.2687	1018.3381	1039.0774	1080.657	1098.5351	1113.0836	1181.6497	1186.0494	1193.4569	1276.7352	1290.1294	1309.6978	1334.5147	1341.3388	1362.96	1390.3916	1399.7939	1417.0982	1420.333	1469.4071	1479.0596	1490.3764	1498.271	1501.7467	1510.7835	1838.8879	2982.4834	3019.5657	3022.3467	3023.7427	3029.7452	3037.0218	3063.041	3067.7078	3094.9177	3101.3878	3101.942	3121.1197
CC1CCOC(=O)CC1	C[C@H]1CCOC(=O)CC1	
InChI=1S/C7H12O2/c1-6-2-3-7(8)9-5-4-6/h6H,2-5H2,1H3	InChI=1S/C7H12O2/c1-6-2-3-7(8)9-5-4-6/h6H,2-5H2,1H3/t6-/m1/s1
