18
gdb 65587	2.86565	1.35738	1.22558	1.9706	75.18	-0.2527	0.0275	0.2802	1081.7174	0.150031	-398.119293	-398.11119	-398.110246	-398.15196	31.472	
N	-0.0903204107	 1.4368575253	 0.1096860104	-0.534537
C	-0.0115448053	-0.021023059	 0.0144628165	 0.124952
C	 0.6512199789	-0.6461246075	 1.2820393637	-0.243399
C	-0.0175969501	-2.0055021714	 1.4403022898	-0.036072
N	-1.3316366597	-1.9224665063	 2.1099821505	-0.327198
C	-1.27024128	-2.0207491	 0.6373560869	-0.03607
C	-1.4290756649	-0.6714438152	-0.0514162781	-0.243401
C	 0.7587195431	-0.4527405212	-1.1789790522	 0.242762
N	 1.3651384413	-0.7468543843	-2.1195492511	-0.349214
H	 0.8450625124	 1.8337523735	 0.1486693612	 0.240946
H	-0.5230219946	 1.8171092953	-0.728266495	 0.240946
H	 1.7357638084	-0.7210775021	 1.1746419407	 0.115696
H	 0.4237542838	-0.0009556366	 2.1348977546	 0.131559
H	 0.5879630239	-2.8946771266	 1.5763114854	 0.096444
H	-1.5693868681	-2.8330352999	 2.4981337923	 0.232885
H	-1.6312405804	-2.9216869097	 0.1538021425	 0.096444
H	-2.1201347173	-0.0319267702	 0.5042897671	 0.131561
H	-1.7829105206	-0.763905074	-1.0808034452	 0.115696
68.4017	165.1602	185.5827	244.1728	338.3019	361.9701	367.5174	433.0642	513.6753	582.5852	643.2975	698.9125	716.8759	786.8322	852.9702	875.0642	901.3312	916.0184	918.9897	955.2065	983.2389	1000.2527	1087.2725	1096.5762	1138.3207	1159.2051	1186.7157	1208.1823	1248.6754	1274.758	1283.2932	1317.7572	1344.4187	1374.8163	1421.1133	1474.4253	1484.79	1661.6016	2334.6334	3064.8069	3067.0222	3118.9533	3119.6327	3167.6756	3177.4189	3483.7877	3489.7196	3560.7987
NC1(CC2NC2C1)C#N	N[C@]1(C[C@H]2N[C@H]2C1)C#N	
InChI=1S/C6H9N3/c7-3-6(8)1-4-5(2-6)9-4/h4-5,9H,1-2,8H2	InChI=1S/C6H9N3/c7-3-6(8)1-4-5(2-6)9-4/h4-5,9H,1-2,8H2/t4-,5+,6+
