17
gdb 35951	3.38355	1.18371	0.91899	5.4587	74.5	-0.2686	-0.0063	0.2623	1222.3081	0.137757	-418.023603	-418.01554	-418.014596	-418.05691	29.714	
N	 0.1492875889	-1.2042035302	 0.2449973071	-0.323656
C	 0.0687287622	-0.0616661173	 0.0978111055	 0.288685
C	-0.0920423524	 1.3981733244	-0.0634862455	-0.109085
C	-0.9020080064	 1.9462855366	 1.1312064805	-0.207314
C	-1.2945993577	 3.4096891293	 0.9453106975	-0.233087
C	-0.1131703392	 4.3626563216	 1.0433626844	-0.064061
O	 0.8196769395	 4.3197522302	-0.0441051023	-0.224057
C	 1.5048987509	 3.1945379139	-0.3597102882	 0.133036
N	 1.2127357589	 1.9670371939	-0.3479138463	-0.255859
H	-0.7094385648	 1.5391311765	-0.9651892899	 0.140149
H	-1.797602127	 1.3261394374	 1.2398280755	 0.127109
H	-0.3144774671	 1.8214187259	 2.0483912831	 0.122694
H	-1.807484482	 3.5543913463	-0.0139960051	 0.114811
H	-2.0049421629	 3.6957249854	 1.7299373335	 0.115821
H	-0.4558991073	 5.3998362343	 1.0532309394	 0.126631
H	 0.4377808679	 4.1767689851	 1.9754309146	 0.116132
H	 2.4881242486	 3.4791024266	-0.7367888836	 0.132052
46.8592	142.5946	157.6121	228.5756	329.5788	345.5555	364.6164	467.1801	506.3088	553.847	582.5229	761.361	773.2945	845.9971	907.2735	920.6439	962.7154	986.59	1028.8061	1068.8783	1092.1083	1120.3163	1167.1158	1208.5411	1260.6564	1295.6899	1324.0799	1341.0673	1377.509	1391.4282	1421.6774	1436.0755	1474.4455	1481.9757	1498.9285	1752.9829	2366.2372	2983.6044	3017.8302	3030.6561	3041.2286	3075.2622	3089.157	3106.4282	3132.5844
N#CC1CCCOC=N1	N#C[C@H]1CCCOC=N1	
InChI=1S/C6H8N2O/c7-4-6-2-1-3-9-5-8-6/h5-6H,1-3H2	InChI=1S/C6H8N2O/c7-4-6-2-1-3-9-5-8-6/h5-6H,1-3H2/t6-/m1/s1
