15
gdb 133055	4.81508	0.97152	0.81527	4.5735	70.62	-0.2468	-0.028	0.2188	1297.7488	0.113178	-461.966619	-461.958813	-461.957869	-461.999972	28.511	
O	 0.3574814205	 0.6585341494	 0.9620058012	-0.411123
C	-0.1250698036	 0.3007705057	-0.319878379	-0.172055
C	-1.4785814328	-0.3531867548	-0.1826144031	 0.23104
C	-2.2435546768	-0.2230016194	 0.9734150846	-0.052644
N	-3.4599630815	-0.7659173899	 1.1259936837	-0.317924
C	-3.9383405504	-1.451349221	 0.1165709872	 0.337455
F	-5.1488978871	-1.9818857848	 0.2817028436	-0.075595
C	-3.2827082289	-1.6641702765	-1.0938927114	-0.261931
C	-2.0250849232	-1.0994999825	-1.230994051	-0.139944
H	 1.1406073043	 1.203893303	 0.8482517994	 0.294636
H	-0.2143744904	 1.1880371937	-0.9688979517	 0.107666
H	 0.5633975136	-0.3939808473	-0.8284237659	 0.101141
H	-1.8556755388	 0.3371035538	 1.8162904311	 0.136275
H	-3.7476334788	-2.2513021183	-1.8757092779	 0.116945
H	-1.4660780661	-1.241004651	-2.1518684505	 0.106059
34.8427	129.5554	205.5254	228.3692	333.8521	378.8519	433.1771	469.67	529.4344	556.6682	649.8575	753.3504	771.2506	849.5632	878.6948	960.355	985.0127	1036.6547	1047.7841	1087.189	1146.7706	1204.6415	1245.1729	1256.8448	1304.8339	1322.3016	1326.4494	1415.3297	1461.7092	1512.9921	1526.1423	1625.3223	1644.9833	2956.4243	2977.489	3169.2302	3205.3992	3214.9584	3842.8676
OCC1=CN=C(F)C=C1	OCc1cnc(F)cc1	
InChI=1S/C6H6FNO/c7-6-2-1-5(4-9)3-8-6/h1-3,9H,4H2	InChI=1S/C6H6FNO/c7-6-2-1-5(4-9)3-8-6/h1-3,9H,4H2
