25
gdb 117665	2.81709	0.8735	0.80465	1.3271	88.79	-0.2607	0.0785	0.3392	1583.267	0.226808	-389.475148	-389.464042	-389.463098	-389.511652	41.343	
C	 0.1770390281	 1.5995763455	 0.2614719205	-0.431002
C	 0.1063644238	 0.0660822722	 0.1438531779	 0.22779
C	 0.8167240768	-0.5679347469	 1.3581026151	-0.405593
C	-1.368682319	-0.4031606196	 0.0570048106	-0.167534
C	-2.2877799062	-0.0306873649	 1.2163749539	-0.102991
O	-3.5612065146	-0.5993618238	 0.9327128114	-0.420742
C	 0.8008642641	-0.4579621738	-1.120501874	 0.0437
C	 0.8143560635	 0.2590740911	-2.4463222758	-0.284584
C	 2.0971844095	 0.0825997343	-1.6676502069	-0.294636
H	 1.2094377346	 1.9596729232	 0.2202470113	 0.113126
H	-0.389217196	 2.0954162645	-0.5330318526	 0.114881
H	-0.2369482508	 1.9350065343	 1.21682286	 0.113214
H	 0.3831343122	-0.236867161	 2.3070005274	 0.106247
H	 0.7535474449	-1.6612523877	 1.3243373366	 0.10821
H	 1.8772491765	-0.2962993737	 1.3649719246	 0.112635
H	-1.8133288388	-0.0065743858	-0.8635809134	 0.1034
H	-1.3903644172	-1.4960506356	-0.0380644356	 0.097469
H	-1.8904249535	-0.4191364069	 2.1666376083	 0.084728
H	-2.3635923341	 1.0627360335	 1.3155250149	 0.084331
H	-4.1574320228	-0.3687686389	 1.6509591614	 0.283289
H	 0.7054822176	-1.5391881186	-1.2032333345	 0.07782
H	 0.6679212201	-0.32501757	-3.3484090066	 0.108304
H	 0.4010407655	 1.2600480492	-2.5013467321	 0.110284
H	 2.5303822957	 0.9672156569	-1.2139389102	 0.110047
H	 2.8332538702	-0.6262156374	-2.0314278221	 0.107604
44.5168	72.1335	95.4155	145.6739	232.7097	236.9199	263.7215	268.0009	292.8612	322.1941	333.2454	369.8526	396.208	480.9387	544.276	711.2061	785.4709	795.6177	833.1607	837.9709	924.8203	936.581	950.515	981.6979	991.0755	1026.2477	1041.234	1056.9759	1069.9928	1078.8624	1112.3844	1149.7402	1183.2494	1198.0346	1211.8036	1236.1572	1242.7411	1262.6252	1288.6088	1330.5993	1352.7736	1392.1109	1401.142	1427.3084	1461.953	1465.4736	1483.4071	1486.7022	1496.2006	1507.0413	1509.9471	1513.827	1530.4437	2976.0308	3001.3547	3025.924	3029.2252	3039.4736	3069.8599	3095.3524	3099.9227	3105.5987	3106.7323	3116.5939	3132.312	3137.1952	3206.757	3221.9185	3828.6967
CC(C)(CCO)C1CC1	CC(C)(CCO)C1CC1	
InChI=1S/C8H16O/c1-8(2,5-6-9)7-3-4-7/h7,9H,3-6H2,1-2H3	InChI=1S/C8H16O/c1-8(2,5-6-9)7-3-4-7/h7,9H,3-6H2,1-2H3
