17
gdb 47681	2.25717	1.71449	1.13157	2.4216	70.	-0.2413	-0.0242	0.2171	1076.0226	0.137737	-455.175528	-455.167495	-455.166551	-455.208682	30.114	
N	-0.2441575679	 1.4108725748	-0.0551021496	-0.479124
C	-0.0548030179	 0.1765590325	 0.1195278682	 0.389657
C	-1.1079226293	-0.859191442	-0.1555359795	-0.299925
C	-1.7701050756	-1.3182526135	 1.1675299206	-0.168396
N	-0.8400606479	-1.4993598419	 2.2765158158	-0.277057
C	 0.3696963395	-2.2151050595	 1.9490013783	-0.301824
C	 1.4361162409	-1.5448878257	 1.0633127455	 0.374408
O	 2.5184589516	-2.022706485	 0.8968126643	-0.286959
O	 1.1829691421	-0.2889015434	 0.5458784049	-0.236655
H	 0.5889469019	 1.9448566331	 0.200354913	 0.231785
H	-1.8541827309	-0.4235233608	-0.8216314089	 0.142616
H	-0.6522443643	-1.7103794541	-0.6740333892	 0.125836
H	-2.5115968317	-0.5767778267	 1.4760628482	 0.129295
H	-2.3057873121	-2.2588917756	 0.9899095257	 0.116661
H	-0.6288306861	-0.6130104883	 2.7189834967	 0.234886
H	 0.9073550448	-2.4804593447	 2.865591555	 0.155261
H	 0.114682493	-3.1682375994	 1.4702584411	 0.149536
66.0449	85.6448	175.0557	265.4717	323.5476	374.3833	411.2786	503.9146	532.9424	553.3347	629.1111	676.5105	723.1262	773.4722	847.7484	873.804	930.0163	951.4988	984.2438	1029.5612	1088.1559	1116.7789	1135.929	1190.2048	1224.4556	1240.7931	1304.1035	1328.2676	1350.0602	1364.5377	1396.3219	1447.5072	1481.1764	1493.2101	1507.1953	1759.4321	1860.0153	3032.0138	3043.7357	3049.6732	3085.6668	3099.3741	3128.935	3470.6113	3550.6548
N=C1CCNCC(=O)O1	[NH][C]1CCNCC(=O)O1	
InChI=1S/C5H8N2O2/c6-4-1-2-7-3-5(8)9-4/h6-7H,1-3H2	InChI=1S/C5H8N2O2/c6-4-1-2-7-3-5(8)9-4/h6-7H,1-3H2
