15
gdb 14258	3.86753	1.78951	1.63377	4.2102	61.05	-0.2419	0.0278	0.2697	820.0654	0.119806	-399.798156	-399.791185	-399.79024	-399.829434	26.406	
O	-0.0960757296	 1.4386863688	-0.0590196062	-0.434094
C	-0.0116889695	 0.0384352308	 0.0420693218	 0.128927
C	 0.2704863864	-0.6026400595	 1.4386956454	-0.282503
C	-1.0999339282	-1.3504437176	 1.3633584022	-0.193109
C	-1.4064812653	-0.6366868945	 0.0026691213	-0.008075
N	-2.4652423649	 0.095684357	 0.6930780777	-0.307514
C	-2.215753252	-0.456468489	 1.9410424304	 0.420101
O	-2.6714448441	-0.2361445402	 3.0292954538	-0.356041
H	 0.7828945336	 1.8100442156	 0.0665099881	 0.290073
H	 0.6482027474	-0.38396488	-0.729004196	 0.072996
H	 1.1383811294	-1.2648694246	 1.4496252781	 0.109527
H	 0.3513281841	 0.1047144661	 2.2671062753	 0.12141
H	-1.1309172485	-2.4248142753	 1.5255819361	 0.098196
H	-1.7165984576	-1.1389898813	-0.913891201	 0.085679
H	-2.8046818212	 1.0266448639	 0.490768353	 0.254429
78.9157	204.6366	240.4538	251.7587	403.9132	450.5744	495.9864	566.1473	647.7361	731.1273	786.038	803.0103	861.9244	901.5406	922.6172	992.6424	1032.6438	1054.3976	1085.1791	1129.4108	1146.9806	1182.2443	1200.4212	1223.003	1230.8478	1277.6384	1324.1582	1347.0162	1360.3801	1418.522	1480.0351	1892.4519	2997.1949	3069.8854	3107.1423	3125.6461	3154.0266	3590.7737	3819.7884
OC1CC2C1NC2=O	O[C@H]1C[C@@H]2[C@H]1NC2=O	
InChI=1S/C5H7NO2/c7-3-1-2-4(3)6-5(2)8/h2-4,7H,1H2,(H,6,8)	InChI=1S/C5H7NO2/c7-3-1-2-4(3)6-5(2)8/h2-4,7H,1H2,(H,6,8)/t2-,3+,4-/m1/s1
