16
gdb 9735	3.97697	1.54013	1.4915	1.5176	66.32	-0.2467	0.0311	0.2778	904.9551	0.12928	-383.701937	-383.693868	-383.692924	-383.734548	29.761	
O	-0.1919682074	 1.3202207752	-0.1297587571	-0.462311
C	-0.0052365065	-0.0893006755	 0.0095629369	 0.168769
C	-1.4105321249	-0.7079415991	-0.1084472955	-0.241098
C	-1.6260006511	-0.6714276066	-1.6227318563	-0.080609
O	-0.3431483328	-0.912182179	-2.2048565517	-0.264303
C	 0.6779110688	-0.6863295525	-1.2473181117	-0.087654
C	 0.7082218054	-0.4065658753	 1.2456533441	 0.256303
C	 1.3252542876	-0.6411479061	 2.25044327	-0.429744
H	 0.6724071889	 1.7403803214	-0.0632821614	 0.285086
H	-1.3922377658	-1.7350958134	 0.2640731729	 0.118352
H	-2.1427113138	-0.1306195344	 0.4576436362	 0.124372
H	-2.316617902	-1.4432909967	-1.9766113606	 0.104192
H	-2.0035270529	 0.3095903467	-1.9390926754	 0.109621
H	 1.4211911316	 0.0144671545	-1.6479346275	 0.098327
H	 1.1852968157	-1.629451173	-1.0035596625	 0.10278
H	 1.8594933692	-0.8514519766	 3.1441595895	 0.197917
57.4496	142.7021	154.3514	211.5835	285.7923	377.6328	394.739	496.759	529.7148	578.1561	631.6255	668.2542	674.2223	791.8266	859.4018	919.8662	951.7313	976.6241	1012.7131	1065.5152	1082.1144	1142.9305	1177.6232	1191.7996	1245.2217	1263.0272	1310.2306	1349.0212	1373.1766	1410.0039	1474.496	1509.0032	1525.6154	2233.2048	3006.1191	3020.2341	3048.2445	3070.1118	3083.5612	3140.3305	3499.817	3810.9084
OC1(CCOC1)C#C	O[C@]1(CCOC1)C#C	
InChI=1S/C6H8O2/c1-2-6(7)3-4-8-5-6/h1,7H,3-5H2	InChI=1S/C6H8O2/c1-2-6(7)3-4-8-5-6/h1,7H,3-5H2/t6-/m0/s1
