19
gdb 110457	2.95349	1.38613	1.12504	2.122	74.76	-0.2368	0.0811	0.3178	1132.0205	0.159106	-422.95731	-422.949167	-422.948223	-422.990124	31.501	
C	-0.3106827548	 1.221235224	-0.0727629663	-0.242739
O	 0.1410998618	-0.1052284787	 0.0933927588	-0.250145
C	 0.7119096412	-0.6481082353	-1.0677670124	 0.170095
C	 1.2493371527	-2.0625498037	-0.9617075136	-0.123738
C	 0.0947698256	-3.0261406838	-1.2306861388	-0.110882
C	 0.8219761873	-2.3625541256	-2.3840983647	-0.120445
C	-0.2137664901	-1.1788762964	-2.2027667346	-0.170041
C	-1.1580600162	-2.1838560312	-1.4790363052	 0.170009
O	-2.1112504384	-2.8003680188	-2.3152850232	-0.451038
H	 0.5063129938	 1.8911121229	-0.3841635214	 0.104232
H	-1.1175375265	 1.293653175	-0.8171327206	 0.11028
H	-0.6940055816	 1.5584627593	 0.8929957682	 0.128546
H	 1.4783356216	 0.0299249769	-1.4751408023	 0.064959
H	 2.1483643254	-2.3922900265	-0.45707335	 0.092034
H	 0.1460340268	-4.059113481	-0.9093638661	 0.090342
H	 1.3923748467	-2.740778526	-3.2186012436	 0.095138
H	-0.6070364854	-0.5310847165	-2.9836932637	 0.071715
H	-1.7088877363	-1.8061887886	-0.6145997505	 0.095858
H	-1.6331789035	-3.206465806	-3.0486096399	 0.275821
73.5653	159.163	180.7846	208.5422	302.9304	315.0764	382.1253	425.7557	544.5101	583.8791	730.4473	782.9197	802.8603	825.1403	841.02	907.0825	920.2316	957.8331	1004.9902	1009.3362	1024.9093	1031.3731	1045.7015	1059.9868	1114.0767	1147.6809	1155.8385	1167.5108	1181.779	1187.3293	1227.4118	1246.8321	1274.9213	1289.8609	1326.6446	1362.1574	1393.0054	1429.9946	1482.1358	1489.5781	1508.0365	2973.1678	2982.9618	3024.1988	3093.9734	3116.7825	3139.2833	3191.6723	3200.0329	3233.7726	3778.8089
COC1C2C3C2C1C3O	CO[C@H]1[C@H]2[C@@H]3[C@H]2[C@H]1[C@H]3O	
InChI=1S/C7H10O2/c1-9-7-4-2-3(4)6(8)5(2)7/h2-8H,1H3	InChI=1S/C7H10O2/c1-9-7-4-2-3(4)6(8)5(2)7/h2-8H,1H3/t2-,3+,4-,5+,6+,7+/m1/s1
