21
gdb 103791	2.77146	0.85707	0.7379	1.5028	89.62	-0.2265	0.0528	0.2792	1646.3508	0.179169	-387.060102	-387.049148	-387.048204	-387.098042	38.925	
C	-0.2379459403	 1.5980370935	 0.1333251062	-0.396654
C	 0.1918104176	 0.1427458166	-0.084714755	-0.225941
C	 0.796420969	-0.4846461864	 1.1542788349	 0.414282
O	 1.9917511129	 0.1114419159	 1.593122958	-0.472411
C	-0.0819752418	-1.0942210688	 2.2128525068	-0.349714
C	 0.8036571412	-1.9889491106	 1.3386750595	-0.261365
C	 0.2293498036	-2.8806258136	 0.373762689	 0.076303
C	-0.2437478221	-3.6403807553	-0.4338955489	 0.082887
C	-0.8119802648	-4.5601756876	-1.4091667596	-0.499443
H	 0.6157346317	 2.2273301495	 0.4085685319	 0.110546
H	-0.6699877381	 2.0203786687	-0.7784444456	 0.117546
H	-0.988279644	 1.6775753749	 0.9277989026	 0.115816
H	-0.6637010427	-0.4599217859	-0.4045424938	 0.108355
H	 0.9324475826	 0.0918121695	-0.8918432932	 0.108014
H	 1.7671475563	 0.9498391023	 2.0113339201	 0.283251
H	 0.2195985519	-0.9789128532	 3.2479032616	 0.113706
H	-1.1514169913	-1.1376995344	 2.0393640764	 0.118943
H	 1.702054629	-2.3483636775	 1.8320031836	 0.117649
H	-0.0279696083	-5.0590680478	-1.989997061	 0.147349
H	-1.4118889068	-5.3396464037	-0.9257187589	 0.145524
H	-1.4623921957	-4.035861196	-2.1183439746	 0.145358
11.4395	75.255	84.4062	105.5442	197.3345	221.9587	253.062	272.1317	293.2449	350.3246	366.898	420.7985	436.4465	511.4692	601.9507	695.2671	726.9187	785.0544	895.2684	902.4755	937.9297	961.8961	1003.9062	1048.4858	1052.6699	1053.5624	1064.3066	1093.2192	1107.5935	1204.5431	1222.5972	1290.2139	1308.1588	1327.8524	1378.2482	1404.3317	1407.9833	1416.6686	1476.0854	1477.698	1479.0382	1480.109	1501.438	1511.0752	2366.1289	3023.4604	3030.1955	3038.9218	3079.9937	3081.8959	3084.0572	3102.4902	3107.4134	3134.7836	3151.6417	3229.9141	3798.3908
CCC1(O)CC1C#CC	CC[C@@]1(O)C[C@H]1C#CC	
InChI=1S/C8H12O/c1-3-5-7-6-8(7,9)4-2/h7,9H,4,6H2,1-2H3	InChI=1S/C8H12O/c1-3-5-7-6-8(7,9)4-2/h7,9H,4,6H2,1-2H3/t7-,8-/m1/s1
