18
gdb 61280	2.18401	1.14929	0.86592	2.0104	73.97	-0.2642	0.0502	0.3144	1372.6976	0.144831	-439.104987	-439.094769	-439.093825	-439.140929	36.723	
C	 0.0177560916	 1.5422552302	 0.0127937382	-0.412075
C	 0.021750152	 0.0181866388	 0.0153518493	 0.142775
C	-1.3929368815	-0.5761027105	-0.0556264885	-0.367967
C	-1.4163550001	-2.030299333	 0.0399144554	 0.30393
C	-1.4267098549	-3.2283294171	 0.1310637499	-0.440463
O	 0.7184934863	-0.4770843387	-1.1455927479	-0.266637
C	 2.0655516046	-0.5926914554	-1.0312507649	 0.500044
N	 2.5866903894	-1.0660563093	-2.2032312	-0.562466
O	 2.7098237372	-0.2898086603	-0.0536459136	-0.402226
H	 1.0430867734	 1.9143547876	 0.0611805412	 0.14712
H	-0.4588752581	 1.9287335156	-0.8938753276	 0.120547
H	-0.527058384	 1.9241084853	 0.8819520967	 0.118372
H	 0.5401546969	-0.3520906846	 0.9030232607	 0.121347
H	-1.9869711769	-0.1420601333	 0.757748567	 0.133656
H	-1.8633451417	-0.2540585543	-0.9932078556	 0.135369
H	-1.4408307269	-4.2868514297	 0.2116680764	 0.195357
H	 1.9667025898	-1.5209754232	-2.8521826824	 0.265302
H	 3.538087643	-1.3890022881	-2.1596327245	 0.268015
44.6339	60.5927	108.7794	149.3075	198.7366	232.345	295.2395	344.7051	370.1733	386.6324	438.4749	480.5318	520.1599	542.3968	617.6983	641.2967	669.6647	784.9917	821.9544	889.1994	917.9671	979.7291	1037.4665	1084.8961	1117.0748	1124.4791	1151.0389	1252.2276	1307.8907	1346.3731	1380.3936	1402.7205	1412.1551	1458.8538	1485.8711	1501.5962	1611.7733	1829.138	2242.4655	3026.916	3041.7039	3062.7234	3091.0098	3114.6287	3137.1205	3507.4151	3610.8403	3739.5205
CC(CC#C)OC(N)=O	C[C@@H](CC#C)OC(=O)N	
InChI=1S/C6H9NO2/c1-3-4-5(2)9-6(7)8/h1,5H,4H2,2H3,(H2,7,8)	InChI=1S/C6H9NO2/c1-3-4-5(2)9-6(7)8/h1,5H,4H2,2H3,(H2,7,8)/t5-/m0/s1
