21
gdb 73212	2.35275	1.68168	1.40003	1.085	82.15	-0.2389	0.0223	0.2612	1048.5731	0.183874	-387.096683	-387.088472	-387.087528	-387.129393	32.976	
O	 0.0202557219	 1.3841940376	-0.4221979745	-0.486368
C	 0.0353440458	 0.0221193966	-0.0234502529	 0.420382
C	 0.3235477433	-0.9925394953	-1.174797824	-0.272588
C	-1.0590185996	-1.6530021	-0.9343815565	-0.225494
C	-1.4199598843	-0.5295731197	 0.0816950256	-0.017098
C	-1.8839671349	-0.9907213016	 1.4673852118	-0.281017
C	-0.7859646381	-1.7240450009	 2.197643472	-0.063072
C	 0.4902253525	-1.3586858226	 2.0755821852	-0.051342
C	 0.8909353516	-0.1664047593	 1.243140395	-0.34314
H	 0.9335984108	 1.6697109935	-0.5391642748	 0.27025
H	 0.403862115	-0.4810843134	-2.1368546084	 0.098868
H	 1.1954977583	-1.6383198938	-1.0370001311	 0.089836
H	-1.7126815795	-1.7309189641	-1.8056486754	 0.095581
H	-0.9850176758	-2.6361377822	-0.4635085846	 0.10095
H	-2.1152068436	 0.2006189653	-0.3388063562	 0.07705
H	-2.2033693623	-0.1200227592	 2.0592776446	 0.112352
H	-2.7717591178	-1.6261706326	 1.3656346422	 0.100551
H	-1.0583406189	-2.5594935065	 2.8366179938	 0.08469
H	 1.2709166411	-1.8887813676	 2.6138264013	 0.083737
H	 1.9521899391	-0.2209840515	 0.9673285738	 0.090225
H	 0.7731676853	 0.7471766374	 1.8436157531	 0.115646
55.6976	139.5053	254.8657	283.4589	301.4608	381.7301	392.0857	434.3319	486.4691	539.7237	613.8434	684.7205	726.7063	774.6514	790.6193	864.6969	883.6227	922.0959	931.4197	964.1005	980.9388	995.0781	1018.5157	1056.5988	1089.88	1099.8733	1120.3622	1150.7436	1202.7215	1225.8427	1236.0042	1240.8304	1246.3024	1279.0334	1286.2614	1316.4739	1334.635	1350.09	1396.5207	1410.6553	1463.3941	1474.3465	1481.0997	1487.6523	1709.8472	2996.8502	2999.9261	3037.6998	3050.094	3051.9404	3065.2521	3080.8453	3104.9968	3124.0519	3152.6619	3176.2022	3791.2585
OC12CCC1CC=CC2	O[C@]12CC[C@H]1CC=CC2	
InChI=1S/C8H12O/c9-8-5-2-1-3-7(8)4-6-8/h1-2,7,9H,3-6H2	InChI=1S/C8H12O/c9-8-5-2-1-3-7(8)4-6-8/h1-2,7,9H,3-6H2/t7-,8-/m1/s1
