17
gdb 45822	2.45985	2.04199	1.19436	3.4381	74.62	-0.2128	0.0097	0.2225	1005.4215	0.139547	-418.043758	-418.036532	-418.035588	-418.075536	28.179	
O	 0.0890129876	 0.0664414802	 0.3039319504	-0.398701
C	 0.0447451461	 1.2380731481	-0.0174843514	 0.42168
N	-1.1639763871	 1.9443362284	-0.1162598368	-0.371852
C	-1.2065397828	 3.3220604642	 0.1254905356	 0.008058
C	-0.1218850944	 4.098242085	 0.0537073115	-0.158486
C	 1.1760681144	 3.4848983005	-0.3586231193	 0.009016
C	 2.4141662634	 3.4455937041	 0.5937156345	-0.255278
C	 2.4217953526	 1.8983899291	 0.4060486595	-0.168217
N	 1.1392526455	 2.0024720333	-0.3084239921	-0.128195
H	-1.9576523813	 1.3861238588	 0.1568026255	 0.256905
H	-2.1886738672	 3.7089835106	 0.3722426292	 0.118672
H	-0.1858985812	 5.1637371018	 0.2337675545	 0.099533
H	 1.4680770593	 3.8287382364	-1.3630330384	 0.092315
H	 3.3012323992	 3.9836382028	 0.2563028326	 0.108838
H	 2.1668662252	 3.7465169358	 1.6137029807	 0.115337
H	 3.2310171458	 1.5238848455	-0.2291367359	 0.117328
H	 2.3652954248	 1.2836760455	 1.3074484497	 0.133047
97.4801	155.4414	206.988	286.5896	415.6908	475.7886	542.2412	544.3453	592.2512	653.5171	720.2539	748.2937	771.7851	813.5083	872.1221	934.596	941.0614	970.7994	1047.7287	1067.1029	1093.8536	1123.4294	1145.5475	1195.2909	1212.5211	1227.0429	1257.3466	1280.4024	1317.4584	1324.4238	1415.9962	1422.6296	1459.9196	1485.9763	1522.1135	1722.1262	1802.9962	2966.7515	3048.5264	3077.1467	3104.9974	3138.7361	3193.6355	3217.9626	3639.7309
O=C1NC=CC2CCN12	O=C1NC=C[C@H]2CCN12	
InChI=1S/C6H8N2O/c9-6-7-3-1-5-2-4-8(5)6/h1,3,5H,2,4H2,(H,7,9)	InChI=1S/C6H8N2O/c9-6-7-3-1-5-2-4-8(5)6/h1,3,5H,2,4H2,(H,7,9)/t5-/m0/s1
