16
gdb 11033	4.17714	1.79311	1.48023	1.422	65.17	-0.2324	0.0066	0.239	855.4875	0.130239	-383.718937	-383.711582	-383.710638	-383.750044	28.789	
O	-0.0850879408	 1.4574097705	-0.0443790031	-0.430771
C	 0.006846623	 0.0322654644	-0.0033342486	 0.059836
C	 0.6661622779	-0.4864573841	 1.2696632453	-0.110736
C	-0.1390079246	-1.29275918	 1.9588733825	-0.14832
C	-1.4753722155	-1.4316878104	 1.2899066282	 0.360666
O	-2.1007702934	-2.6772386978	 1.2483987777	-0.470207
C	-2.2849045672	-0.1562546979	 1.2071113628	-0.3293
C	-1.3900732059	-0.5736330181	 0.0545898713	-0.085689
H	 0.8109405236	 1.809488077	-0.0468103781	 0.280894
H	 0.5429024551	-0.3258010454	-0.8969580188	 0.071553
H	 1.6599549375	-0.1709160122	 1.570804865	 0.091647
H	 0.0910354138	-1.7784154038	 2.9013932134	 0.096422
H	-2.6356598133	-2.7691152657	 2.0437673916	 0.284361
H	-3.350019197	-0.2721243526	 1.0322312406	 0.109293
H	-1.9976087065	 0.6964465088	 1.811176606	 0.124335
H	-1.8692571968	-0.8948642227	-0.8610027658	 0.096017
130.8802	225.2834	248.302	268.2851	319.7823	390.7383	395.9399	508.6488	544.6543	633.34	728.4026	745.9752	794.344	878.8787	913.0402	945.4214	946.82	949.8052	987.792	1046.9446	1057.1429	1070.5274	1091.1054	1127.3063	1223.0754	1233.5456	1255.4014	1325.4157	1340.5028	1353.7228	1405.3784	1419.0585	1475.0846	1676.5684	2965.5036	3129.0854	3173.677	3197.9237	3200.2291	3226.7246	3805.2467	3812.9068
OC1C=CC2(O)CC12	O[C@H]1C=C[C@@]2(O)C[C@@H]12	
InChI=1S/C6H8O2/c7-5-1-2-6(8)3-4(5)6/h1-2,4-5,7-8H,3H2	InChI=1S/C6H8O2/c7-5-1-2-6(8)3-4(5)6/h1-2,4-5,7-8H,3H2/t4-,5-,6+/m0/s1
