23
gdb 91328	2.78828	1.44302	1.16153	1.3189	85.45	-0.2334	0.0821	0.3155	1179.3554	0.20672	-388.294584	-388.286058	-388.285113	-388.326985	34.847	
C	 0.1812674519	 1.5557221661	 0.0619893191	-0.403825
C	 0.042837247	 0.042185997	-0.0034140289	 0.156861
C	 0.6542441922	-0.5770381266	-1.2821804025	-0.26888
C	 1.1130602304	-2.0276620088	-1.0304279926	 0.323163
C	 1.3889708845	-2.7965932076	-2.3094288526	-0.47835
C	 0.1854831153	-2.6516177002	 0.0633537399	-0.290082
C	 1.039806427	-1.8450423706	 1.0790151266	 0.128696
C	 2.2132527765	-1.9666001797	 0.0750349553	-0.258772
O	 0.6281416445	-0.4902758985	 1.1902303059	-0.292282
H	 1.2373201823	 1.8432459174	 0.0559888557	 0.118802
H	-0.3128230553	 2.0232243625	-0.7958236009	 0.110652
H	-0.2741859008	 1.9420243078	 0.9780494653	 0.122861
H	-1.0293750585	-0.2076905029	 0.0080545477	 0.069925
H	-0.0991760191	-0.5419946052	-2.0790136404	 0.091772
H	 1.5118326985	 0.0153445589	-1.6274340352	 0.094372
H	 2.1503838476	-2.2936679268	-2.9175412758	 0.113822
H	 1.7500916192	-3.8076437945	-2.0913388336	 0.108481
H	 0.484485868	-2.8873947309	-2.9226058681	 0.111817
H	-0.8921577843	-2.4747874526	 0.0204504721	 0.095703
H	 0.3687713506	-3.7241538535	 0.1725510517	 0.09449
H	 1.1610907895	-2.2183669534	 2.0977060034	 0.071215
H	 2.7421377761	-2.9196072545	 0.1746386244	 0.089166
H	 2.929112987	-1.1403665635	 0.0508620834	 0.090391
116.1171	213.8673	234.3507	237.7258	265.7056	340.9916	374.2282	424.8682	436.4942	438.9227	490.2446	570.0501	649.788	798.9638	827.3349	847.656	880.3822	885.3853	918.8885	925.2364	971.6336	980.239	999.23	1020.5925	1050.4721	1072.7553	1094.7764	1155.776	1162.2586	1189.5563	1209.2289	1221.713	1247.2017	1261.5966	1281.3239	1284.5836	1347.1324	1370.8532	1390.9449	1391.8632	1408.3553	1413.2474	1469.5306	1481.6584	1485.4499	1492.6667	1495.8442	1499.3924	1506.454	2967.543	3011.1954	3018.8603	3038.1364	3045.2738	3054.6015	3058.2395	3082.6549	3089.8739	3091.6476	3106.7807	3111.1866	3112.0391	3117.9146
CC1CC2(C)CC(C2)O1	C[C@H]1C[C@]2(C)C[C@@H](C2)O1	
InChI=1S/C8H14O/c1-6-3-8(2)4-7(5-8)9-6/h6-7H,3-5H2,1-2H3	InChI=1S/C8H14O/c1-6-3-8(2)4-7(5-8)9-6/h6-7H,3-5H2,1-2H3/t6-,7-,8+/m0/s1
