18
gdb 16450	4.03055	1.88772	1.6845	1.1512	70.46	-0.2327	0.0794	0.3121	837.3803	0.154528	-347.744784	-347.737915	-347.736971	-347.775297	28.159	
O	-0.0655866185	 1.4349938649	 0.0509280968	-0.465007
C	-0.0084675465	 0.0507967073	 0.0499943641	 0.395152
C	-0.2878338601	-0.7591318203	-1.1803312832	-0.359565
C	-1.1761469341	-0.9322618727	 0.0369167471	-0.118106
C	-0.4947443114	-1.7711331509	 1.140413371	-0.003304
C	 0.4866955184	-2.9202145479	 0.7479746762	-0.241035
C	 1.6805492666	-1.9087871757	 0.7789254178	-0.245511
C	 0.6940595931	-0.7654761686	 1.1636255926	-0.084898
H	 0.6292828389	 1.7679588782	-0.5277086083	 0.282858
H	-0.7580419322	-0.1836890229	-1.9723169843	 0.111254
H	 0.3694328873	-1.5468004402	-1.5373873462	 0.108447
H	-2.2408483974	-0.7429293263	-0.032311619	 0.089344
H	-1.111159454	-1.9264317507	 2.0260372849	 0.067535
H	 0.5618671753	-3.6981290331	 1.5114219862	 0.098353
H	 0.2902577916	-3.4071641302	-0.210613529	 0.099671
H	 2.4108620653	-2.1289469644	 1.5613151699	 0.098036
H	 2.2232540272	-1.7734200779	-0.1611247684	 0.094742
H	 0.9092441205	-0.1717081187	 2.0521752717	 0.072035
167.2209	235.1281	267.7978	288.5355	379.1179	443.6916	499.2452	614.0672	678.7164	728.544	795.1536	813.1402	836.8476	876.0561	903.9467	922.2796	950.68	976.8451	986.2952	1005.443	1042.9187	1071.9316	1093.8637	1110.8758	1141.1108	1182.6694	1218.9161	1224.8956	1242.5075	1244.177	1274.398	1298.8808	1300.254	1320.7371	1402.6593	1472.8425	1487.9818	1504.7192	3053.1432	3062.3234	3093.212	3103.0574	3110.027	3115.5433	3120.3964	3178.3514	3198.8738	3789.9439
OC12CC1C1CCC21	O[C@]12C[C@H]1[C@H]1CC[C@@H]21	
InChI=1S/C7H10O/c8-7-3-6(7)4-1-2-5(4)7/h4-6,8H,1-3H2	InChI=1S/C7H10O/c8-7-3-6(7)4-1-2-5(4)7/h4-6,8H,1-3H2/t4-,5+,6-,7-/m0/s1
