21
gdb 114812	2.55823	1.24044	1.09764	0.7834	78.18	-0.2419	0.0619	0.3038	1238.4502	0.181616	-424.193464	-424.184374	-424.18343	-424.227513	34.577	
C	-0.1999703292	 1.71702966	 0.1657239983	-0.381127
C	-0.0968468309	 0.2042926954	 0.3900190847	-0.208885
C	-1.3481253424	-0.5424286213	-0.0569188549	 0.010595
C	-1.6520949216	-0.6870334242	-1.5879527603	-0.260098
C	-1.8040903777	-2.2146846581	-1.4148453016	 0.032867
O	-0.5685183941	-2.9180344709	-1.6710316325	-0.288232
C	-0.1901818781	-2.9027428975	-0.2787174688	-0.142206
C	-1.4379794409	-2.0820375965	 0.1056691199	 0.316096
O	-2.1875412992	-2.468803751	 1.212517083	-0.472672
H	 0.7133984034	 2.2289753346	 0.4837393362	 0.112458
H	-0.3607276373	 1.9507735445	-0.8923091729	 0.1198
H	-1.0367227376	 2.1437436589	 0.729690814	 0.115677
H	 0.7774817773	-0.1799454268	-0.1507396258	 0.09874
H	 0.0814785301	 0.0015076821	 1.4541030885	 0.102177
H	-2.2214881121	-0.1248853598	 0.4557659302	 0.084905
H	-2.5544552334	-0.1680773901	-1.9192829471	 0.102506
H	-0.8254107081	-0.4286465082	-2.2546987094	 0.108557
H	-2.6772615226	-2.7237559206	-1.8308741464	 0.074712
H	-0.1954747262	-3.9162926979	 0.1524274189	 0.085357
H	 0.7972624801	-2.4579214947	-0.1103152643	 0.107285
H	-2.2345619197	-3.4311566978	 1.2359563404	 0.281486
56.1196	97.0719	172.9524	210.0036	248.557	301.7892	314.7204	359.3503	412.5507	439.8919	488.008	638.3576	654.4907	773.3398	788.6617	849.2391	900.2172	923.8641	955.0984	965.5521	996.9552	1010.426	1032.796	1066.3874	1114.1897	1117.029	1137.6902	1151.5309	1166.6175	1180.1837	1220.933	1264.2634	1280.3929	1293.5129	1312.9032	1340.1727	1370.4388	1374.8174	1403.7753	1413.4831	1466.4942	1487.1501	1499.9598	1506.911	1520.5008	2978.1749	3017.6463	3031.4159	3042.4694	3055.1677	3059.0617	3061.0306	3078.567	3099.0023	3103.8907	3119.0466	3795.2734
CCC1CC2OCC12O	CC[C@H]1C[C@H]2OC[C@@]12O	
InChI=1S/C7H12O2/c1-2-5-3-6-7(5,8)4-9-6/h5-6,8H,2-4H2,1H3	InChI=1S/C7H12O2/c1-2-5-3-6-7(5,8)4-9-6/h5-6,8H,2-4H2,1H3/t5-,6+,7+/m0/s1
