17
gdb 34944	3.55395	1.53479	1.33292	1.4007	76.69	-0.2398	0.0474	0.2872	973.4066	0.137352	-384.60899	-384.602272	-384.601328	-384.639908	27.963	
C	-0.0063909502	-1.2032336395	-0.070157973	-0.455395
C	 0.0053665643	-0.0036393098	 0.0182029432	 0.308641
C	 0.0332664722	 1.4451368982	 0.0868315351	-0.15704
C	-0.3583932068	 2.0865956813	 1.4482384695	-0.100549
C	 0.6680445828	 1.4545947926	 2.4222938394	-0.2582
C	 1.6969780752	 2.2841877209	 1.6373454831	-0.067879
C	 0.626742976	 3.3533389314	 1.3416600919	 0.093093
O	 1.0471631831	 3.521856143	-0.0160312545	-0.284117
C	 1.4377997155	 2.1240372383	 0.086072927	 0.05317
H	-0.023097405	-2.2620091686	-0.1488242907	 0.193569
H	-0.5417793918	 1.8710603274	-0.7405224242	 0.111561
H	-1.4169133068	 2.1681986772	 1.6854629375	 0.077956
H	 0.5637346697	 1.841825503	 3.4398315586	 0.10224
H	 0.7453022004	 0.3664310322	 2.441640058	 0.119352
H	 2.7099642932	 2.5103891516	 1.9638271718	 0.080743
H	 0.4196641625	 4.2658552532	 1.8979252518	 0.090291
H	 2.1843603856	 1.8079763675	-0.6397016944	 0.092564
139.818	155.1726	359.9645	413.4932	481.2504	513.7877	542.9537	626.2317	636.9406	694.3108	735.4272	776.0121	826.2283	845.1804	868.6923	889.1453	937.0293	964.3604	985.7569	995.1828	1008.8427	1050.204	1073.8469	1082.2151	1112.6531	1153.045	1173.7576	1205.3396	1218.121	1242.4724	1251.335	1293.2663	1303.1717	1323.5052	1345.1765	1498.3455	2232.2768	3065.7033	3069.2882	3127.9075	3133.4765	3139.869	3144.5721	3151.6978	3503.4773
C#CC1C2CC3C2OC13	C#C[C@H]1[C@H]2C[C@@H]3[C@H]2O[C@H]13	
InChI=1S/C8H8O/c1-2-4-5-3-6-7(4)9-8(5)6/h1,4-8H,3H2	InChI=1S/C8H8O/c1-2-4-5-3-6-7(4)9-8(5)6/h1,4-8H,3H2/t4-,5+,6-,7+,8-/m0/s1
