19
gdb 52494	6.23353	0.4697	0.44806	1.6193	100.1	-0.2274	-0.0015	0.226	2431.3951	0.155969	-385.855466	-385.844402	-385.843458	-385.893634	37.952	
C	 0.1172445741	 1.3248408267	-0.7565175278	-0.518029
C	 0.0594674693	-0.073857466	-0.3715074704	 0.247343
C	 0.0116718155	-1.2396896148	-0.0495141692	-0.205567
C	-0.041757092	-2.5496103159	 0.3134784782	-0.187228
C	-0.0898402025	-3.7156451506	 0.6376629325	 0.256974
C	-0.1578703282	-5.1138425488	 1.0273237855	-0.371344
C	-1.4358399339	-5.8289171626	 0.5463389854	 0.141403
C	-1.5190167605	-5.9293084741	-0.9744427483	-0.404496
O	-1.3857854061	-7.1120101762	 1.1598385882	-0.431465
H	 1.1455906655	 1.6337372776	-0.9762921539	 0.155325
H	-0.4850386151	 1.5154381528	-1.6521616453	 0.154518
H	-0.2608897131	 1.9730915744	 0.0422343964	 0.155005
H	 0.7111017695	-5.6617816105	 0.6393308489	 0.136641
H	-0.1171203479	-5.2035082026	 2.1197405176	 0.142663
H	-2.302552229	-5.2607333553	 0.9195110798	 0.078809
H	-0.6706396128	-6.5015547884	-1.3640802887	 0.123131
H	-2.4430070684	-6.4338384795	-1.2796252147	 0.105862
H	-1.5123557237	-4.9355270201	-1.4308906445	 0.137577
H	-2.1244672908	-7.6303099461	 0.8259181005	 0.282878
23.137	51.328	55.8486	115.952	147.6663	241.9163	258.5012	264.7417	292.723	340.7166	369.3889	392.9477	459.4092	464.7298	575.5092	578.4421	657.7599	837.1949	893.2048	947.9771	975.9315	1048.4485	1048.9555	1076.4248	1098.6421	1127.7828	1223.8064	1265.822	1280.9405	1335.1211	1383.8576	1407.2606	1413.4098	1417.9012	1465.8773	1472.6643	1472.9088	1493.5493	1497.8057	2278.4494	2386.7391	2976.6872	3021.3716	3022.7715	3030.2618	3059.7338	3084.1236	3084.308	3097.82	3121.	3823.2233
CC#CC#CCC(C)O	CC#CC#CC[C@@H](C)O	
InChI=1S/C8H10O/c1-3-4-5-6-7-8(2)9/h8-9H,7H2,1-2H3	InChI=1S/C8H10O/c1-3-4-5-6-7-8(2)9/h8-9H,7H2,1-2H3/t8-/m1/s1
