17
gdb 54875	2.7688	1.56007	1.01034	4.6849	76.89	-0.228	-0.0227	0.2052	1141.3327	0.136648	-418.063007	-418.054874	-418.05393	-418.095871	30.798	
C	-0.0281774829	 1.5087024615	 0.0086363928	-0.471397
C	 0.0855836042	 0.0044009152	 0.0013172081	 0.385844
N	 1.2282662164	-0.5470284721	-0.0104156219	-0.501407
N	-1.1520158072	-0.6983376587	 0.008561295	-0.172394
C	-2.4420896416	-0.1131300053	 0.021404809	 0.007638
C	-3.4125019163	-1.0274089655	 0.0258385985	-0.170494
C	-2.7897804411	-2.392644094	 0.0154728394	-0.388959
C	-1.2880607432	-2.0993689616	 0.0042582089	 0.425985
O	-0.3837521904	-2.9028442966	-0.0064168507	-0.363503
H	 0.9824643962	 1.914320569	 0.0023863514	 0.156753
H	-0.5670582553	 1.8789719195	-0.8704473827	 0.13531
H	-0.5531629937	 1.8714614049	 0.8991771007	 0.1353
H	 1.1448578957	-1.5646454516	-0.0140219833	 0.252891
H	-2.5299889625	 0.9611822713	 0.0261796834	 0.140924
H	-4.4715310534	-0.8217089657	 0.0352319112	 0.118238
H	-3.0333109424	-3.0020938148	 0.8935810968	 0.154634
H	-3.0477953927	-2.9954060754	-0.8631090264	 0.154637
76.7216	115.694	203.3581	250.847	253.1366	366.634	439.0528	469.0305	520.3955	544.1929	601.7037	630.9978	702.2807	706.7756	848.4815	922.256	922.5307	954.338	971.0451	985.3523	1032.6278	1084.2196	1098.9022	1149.0846	1155.994	1215.4803	1245.011	1284.1156	1372.5363	1398.232	1415.3455	1433.8478	1482.3922	1489.7539	1673.0535	1718.3085	1820.9224	3037.3102	3045.4929	3076.7108	3094.4419	3165.417	3251.4619	3279.1703	3476.677
CC(=N)N1C=CCC1=O	C[C]([NH])N1C=CCC1=O	
InChI=1S/C6H8N2O/c1-5(7)8-4-2-3-6(8)9/h2,4,7H,3H2,1H3	InChI=1S/C6H8N2O/c1-5(7)8-4-2-3-6(8)9/h2,4,7H,3H2,1H3
