18
gdb 51910	6.71797	0.61518	0.58083	4.3902	76.84	-0.2616	-0.0231	0.2385	1853.7598	0.146011	-439.087923	-439.078571	-439.077627	-439.123348	32.56	
O	 0.3707604322	 0.277157198	-0.4351741495	-0.25462
C	 0.4767282599	 1.4535927079	-0.2846052935	 0.179651
O	 1.3541843124	 1.967335971	 0.6384330414	-0.199686
C	 1.5614745314	 3.3251917589	 0.684066623	 0.147658
N	 1.2771417975	 4.0942327411	-0.2648579447	-0.244488
C	 1.5214859353	 5.5282067956	-0.1541907648	-0.150568
C	 2.0608727533	 6.0675817279	 1.152985044	 0.003242
C	 3.5432261772	 6.0264523293	 1.4468792754	-0.254661
C	 2.8700803965	 7.3395643135	 1.1426162071	-0.284452
H	-0.0850270578	 2.2358028322	-0.8106196459	 0.128126
H	 2.0201689937	 3.5839009043	 1.6388528466	 0.126307
H	 2.2076044844	 5.7939870768	-0.969660271	 0.116819
H	 0.5740385424	 6.0265087495	-0.3980313451	 0.121916
H	 1.3987527257	 5.9368182458	 2.00556184	 0.091432
H	 3.8645097076	 5.8357273793	 2.4649310478	 0.117257
H	 4.1962885626	 5.6048544815	 0.6895110774	 0.120469
H	 3.0718656358	 7.8031294419	 0.1822786899	 0.117252
H	 2.7251501698	 8.0448536555	 1.952857082	 0.118347
49.6179	83.1209	92.7194	140.6922	176.1575	209.7894	296.8256	339.6581	351.9546	479.3941	560.282	769.7255	776.8199	807.7468	845.044	903.2698	947.1762	976.9181	1009.3198	1028.7562	1046.6293	1061.1391	1084.1758	1091.0057	1145.373	1170.1233	1196.6223	1200.1176	1226.1812	1292.4254	1348.7437	1391.1541	1400.5075	1419.5928	1469.1956	1475.2454	1507.0967	1752.5526	1872.0453	3017.0155	3043.0116	3074.3907	3127.5232	3130.1538	3134.0144	3137.6422	3208.9452	3223.9023
O=COC=NCC1CC1	O=COC=NCC1CC1	
InChI=1S/C6H9NO2/c8-5-9-4-7-3-6-1-2-6/h4-6H,1-3H2	InChI=1S/C6H9NO2/c8-5-9-4-7-3-6-1-2-6/h4-6H,1-3H2
