18
gdb 72760	3.14243	1.41766	1.18118	4.8841	80.48	-0.223	-0.0186	0.2044	1076.1055	0.148946	-401.955843	-401.948114	-401.94717	-401.987776	30.682	
C	-0.2049801689	 1.5775080359	-0.0912668536	-0.44272
C	-0.0833857878	 0.0517333701	-0.0513381389	 0.253672
C	 0.9029261191	-0.4786768638	-1.1602640571	-0.245467
N	 1.9590386571	-0.5030499593	-0.0871089132	-0.377095
C	 0.9735882932	-0.480259366	 0.8769330251	 0.370609
C	 0.5376591946	-0.9773988553	 2.0490903466	-0.392145
C	-0.9419605402	-0.9895122269	 1.9684570529	 0.391966
O	-1.729194703	-1.3345552514	 2.8193390752	-0.345005
C	-1.3447936369	-0.6294018762	 0.4932045946	-0.425064
H	 0.7673772849	 2.0500508949	-0.2583365438	 0.126979
H	-0.8793590727	 1.8826935498	-0.898773336	 0.121277
H	-0.6128026736	 1.9556925304	 0.8510895807	 0.132336
H	 0.6588502951	-1.4805965747	-1.5277716894	 0.118749
H	 1.1282747594	 0.1911335925	-1.9939324681	 0.116907
H	 2.710486741	-1.1812581554	-0.0711535924	 0.24806
H	 1.0873759994	-1.4615811857	 2.8431131416	 0.105537
H	-2.2485403141	-0.0162704855	 0.4645444624	 0.116934
H	-1.5645393268	-1.5753423536	-0.0136370566	 0.124472
104.8831	198.2379	247.5017	255.6247	324.0278	356.7703	401.9547	538.7336	548.8053	595.2082	603.4316	702.8466	742.0544	789.952	831.8062	838.7885	874.1052	919.2409	949.0083	962.5119	990.9326	1082.0167	1111.9996	1128.1584	1165.9732	1181.6838	1218.8727	1240.5688	1260.9351	1270.1712	1345.2003	1352.8063	1409.1483	1464.1172	1492.7407	1496.0305	1507.0162	1694.285	1809.3548	3032.6814	3043.57	3054.5412	3102.7897	3107.2794	3111.9806	3115.8104	3237.7666	3565.7602
CC12CNC1=CC(=O)C2	C[C@@]12CN[C]1[CH]C(=O)C2	
InChI=1S/C7H9NO/c1-7-3-5(9)2-6(7)8-4-7/h2,8H,3-4H2,1H3	InChI=1S/C7H9NO/c1-7-3-5(9)2-6(7)8-4-7/h2,8H,3-4H2,1H3/t7-/m1/s1
