21
gdb 41573	2.81281	1.77615	1.71383	1.564	79.8	-0.2368	0.0778	0.3146	937.8566	0.187174	-387.08764	-387.081032	-387.080088	-387.118364	28.522	
C	-0.0224988885	 1.5850640225	 0.2001303191	-0.249485
C	 1.5345909499	 1.6136787108	 0.1154691012	-0.236999
C	 1.5559276705	 0.0651707061	-0.0322502466	-0.008553
C	-0.0144383018	 0.0478089514	-0.0509740043	 0.002758
C	-0.3261914647	-0.559429802	-1.4455898859	-0.067026
C	 0.1436974774	 0.3742920965	-2.5689874264	-0.079382
O	 1.5815039767	 0.3725049358	-2.4534866719	-0.278871
C	 1.9020262755	-0.5547824789	-1.4045022867	 0.091195
C	 0.8007835923	-1.6213427533	-1.537747597	-0.226461
H	-0.4045327269	 1.8397073286	 1.1918726102	 0.095408
H	-0.558637808	 2.2006536703	-0.5261788042	 0.097885
H	 1.9306059418	 2.1340523288	-0.7576580901	 0.117148
H	 2.0320953258	 1.9940765896	 1.0101628784	 0.092023
H	 2.043311429	-0.4747961167	 0.7837597892	 0.062139
H	-0.5069855611	-0.5392464228	 0.7284208988	 0.065102
H	-1.3492078386	-0.9163271576	-1.5762183493	 0.063019
H	-0.1449338994	-0.0096671771	-3.557184766	 0.093491
H	-0.2270674296	 1.4003223501	-2.4831419377	 0.101852
H	 2.937058448	-0.8712211758	-1.5422401205	 0.068775
H	 0.7874786897	-2.3393626667	-0.7134043609	 0.096749
H	 0.8330462218	-2.1540677497	-2.4919228493	 0.099235
116.3385	276.3105	316.7252	398.5685	454.3887	506.001	576.7695	697.6988	727.3374	758.5926	768.4641	828.7768	855.4834	891.5501	897.9238	928.0528	937.4548	958.5962	964.2214	989.8515	1001.1413	1004.8387	1041.0882	1081.3533	1093.4805	1133.5346	1138.3166	1167.9802	1178.05	1214.198	1231.5538	1255.2844	1261.0052	1268.8859	1282.8692	1286.1683	1317.6958	1324.3527	1328.1946	1350.6188	1386.5916	1474.5826	1488.9945	1495.4492	1534.9986	3006.6909	3057.1117	3059.9954	3061.9489	3069.0154	3070.4981	3078.7245	3100.8509	3104.3098	3109.4687	3116.0744	3135.0118
C1CC2C1C1COC2C1	C1C[C@H]2[C@@H]1[C@H]1CO[C@@H]2C1	
InChI=1S/C8H12O/c1-2-7-6(1)5-3-8(7)9-4-5/h5-8H,1-4H2	InChI=1S/C8H12O/c1-2-7-6(1)5-3-8(7)9-4-5/h5-8H,1-4H2/t5-,6+,7+,8-/m1/s1
