16
gdb 18373	3.29804	2.27762	1.62924	1.8328	59.49	-0.2469	0.0495	0.2964	798.0166	0.131563	-420.846847	-420.839945	-420.839001	-420.877976	26.041	
O	-0.0419805073	 1.4437204048	-0.0097724797	-0.423643
C	-0.0025120306	 0.0380110525	 0.0618099016	 0.107272
C	 0.5113993514	-0.5386139648	 1.3973264387	-0.140379
O	-0.0307079657	-1.8544899405	 1.4646776196	-0.262427
C	-1.3205447363	-1.823480717	 0.8790322962	 0.063649
C	-2.4255167724	-1.1353714743	 1.7078724831	-0.101231
O	-2.3498780793	 0.0553074767	 0.8914352376	-0.285802
C	-1.4075399738	-0.5612137797	-0.0109553253	 0.074712
H	 0.8621024384	 1.7684681634	-0.0599036537	 0.289841
H	 0.5807977089	-0.3967679765	-0.7659799431	 0.073916
H	 1.5994933684	-0.6248917736	 1.4599457002	 0.104599
H	 0.1547066203	 0.0993229588	 2.2188132886	 0.112538
H	-1.5371103645	-2.8118910585	 0.473170801	 0.092673
H	-3.4139930754	-1.6076545197	 1.6460393249	 0.10262
H	-2.17270751	-0.9469676974	 2.7575129073	 0.111241
H	-1.8046762019	-0.6372031641	-1.027119437	 0.080421
106.8235	195.8994	224.0989	240.3002	365.3719	417.0508	533.3076	617.7367	646.1594	806.9755	862.5689	877.5284	907.2819	956.3687	1003.4262	1022.0809	1035.1894	1070.739	1094.5976	1136.4621	1144.6053	1172.1075	1219.4721	1227.6606	1245.0321	1249.9595	1313.4396	1321.6637	1350.2113	1370.3817	1375.1783	1438.4324	1508.5373	1516.8179	2973.826	3008.5346	3017.1741	3069.7906	3071.6223	3094.9476	3113.7567	3826.4085
OC1COC2COC12	O[C@H]1CO[C@H]2CO[C@@H]12	
InChI=1S/C5H8O3/c6-3-1-7-4-2-8-5(3)4/h3-6H,1-2H2	InChI=1S/C5H8O3/c6-3-1-7-4-2-8-5(3)4/h3-6H,1-2H2/t3-,4-,5-/m0/s1
