16
gdb 66652	2.76579	2.19705	1.48999	4.2168	70.27	-0.2371	-0.0135	0.2237	880.7838	0.124912	-400.711785	-400.704925	-400.703981	-400.74286	27.392	
C	-0.0041147101	 1.48572976	 0.0211004037	-0.496986
C	 0.0110006615	-0.0171478661	-0.0031788664	 0.186013
C	-0.8616670038	-0.8930860804	 0.8806270438	-0.138731
C	-0.7471747053	-2.3121921701	 0.2304073981	-0.071984
C	 0.7141455776	-2.3006765588	 0.4299556507	-0.071993
C	 0.6281166034	-0.8813710654	 1.0841162975	-0.138719
N	 0.1563731901	-2.1777901309	-0.9432979685	-0.18278
C	 0.1927140796	-0.7687987536	-1.2905542956	 0.400158
O	 0.3401885486	-0.3369810626	-2.3954858778	-0.316994
H	 0.9369698909	 1.8861644701	-0.3675681775	 0.139022
H	-0.8122749888	 1.8724161137	-0.6069123472	 0.13903
H	-0.1459477537	 1.8681107984	 1.0357505892	 0.120143
H	-1.6556704275	-0.5153441678	 1.5080814344	 0.10554
H	-1.4797142682	-3.1079438641	 0.2292905124	 0.111371
H	 1.4323908831	-3.084994361	 0.6269480755	 0.111369
H	 1.2188462027	-0.4927461615	 1.9007182077	 0.10554
132.4787	171.6464	240.4818	275.5916	466.3466	512.9239	579.6526	650.2217	724.4489	765.1227	775.0155	805.2661	807.7102	842.2726	892.7398	895.3349	895.608	927.4725	950.7288	1007.2011	1013.4881	1047.1803	1066.507	1104.8876	1160.1972	1189.6803	1238.616	1239.0048	1282.9032	1331.1885	1405.3672	1424.5288	1487.1682	1496.9581	1886.609	3043.2288	3110.7833	3116.5845	3200.8118	3213.2589	3221.1255	3231.8281
CC12C3C4C(C13)N4C2=O	C[C@]12[C@H]3[C@@H]4[C@H]([C@@H]13)N4C2=O	
InChI=1S/C7H7NO/c1-7-2-3(7)5-4(2)8(5)6(7)9/h2-5H,1H3	InChI=1S/C7H7NO/c1-7-2-3(7)5-4(2)8(5)6(7)9/h2-5H,1H3/t2-,3+,4-,5+,7+,8?
