21
gdb 92376	2.17819	1.82872	1.49004	1.9965	76.3	-0.2489	0.0681	0.317	1010.4404	0.184986	-424.247091	-424.239056	-424.238112	-424.27902	33.167	
O	-0.0060679072	 1.420345248	-0.1576172646	-0.450647
C	 0.0138689318	 0.0084884757	 0.0089420923	 0.082209
C	 0.6371264835	-0.5148157609	 1.3389789282	-0.258865
C	-0.5098435745	-1.3554069955	 1.9556175769	-0.006817
C	-1.5838184725	-0.3864516415	 2.5034269938	-0.213337
C	-2.1909102363	 0.226477219	 1.2058688971	-0.264675
C	-1.435547991	-0.51682491	 0.0730921638	 0.425527
O	-2.0879954813	-0.5243828189	-1.1730566249	-0.515014
C	-1.2092576841	-1.9066732365	 0.6926664904	-0.263147
H	 0.8941338403	 1.7206802701	-0.3120201796	 0.285643
H	 0.4989432109	-0.4577630762	-0.8601103562	 0.067369
H	 1.5238634528	-1.1269791186	 1.1475933401	 0.091562
H	 0.9368061192	 0.3185233057	 1.9824405785	 0.095064
H	-0.1711113107	-2.0967264375	 2.6814450572	 0.057527
H	-2.3407712072	-0.9326551017	 3.0745714948	 0.09411
H	-1.1551177754	 0.3674266455	 3.1701698797	 0.093134
H	-3.2588034907	 0.0138357858	 1.1096474378	 0.097034
H	-2.0508793408	 1.3067510464	 1.1380097102	 0.111701
H	-2.0396020851	 0.3750874613	-1.5169257352	 0.280141
H	-0.5725149809	-2.5472983567	 0.0748090134	 0.093174
H	-2.1460968107	-2.4308259034	 0.9012573565	 0.098308
109.9175	222.9523	267.1128	277.6098	338.2416	368.089	385.4836	423.5831	466.9901	520.9981	556.8734	606.7208	743.0131	771.7039	819.5195	839.6566	888.3443	928.3331	954.8066	955.3227	984.3394	995.2688	1013.4959	1066.5548	1073.4044	1107.1156	1127.716	1162.3986	1183.9658	1201.5966	1242.0577	1255.0411	1266.1506	1275.7678	1296.3982	1308.1851	1331.6055	1340.8055	1358.4614	1402.3978	1430.5465	1483.1811	1492.3466	1496.3655	1521.6912	2996.0696	3043.8459	3046.3993	3054.5079	3068.9514	3085.2509	3089.1727	3096.7796	3105.7681	3122.9844	3796.0951	3831.7195
OC1CC2CCC1(O)C2	O[C@H]1C[C@H]2CC[C@]1(O)C2	
InChI=1S/C7H12O2/c8-6-3-5-1-2-7(6,9)4-5/h5-6,8-9H,1-4H2	InChI=1S/C7H12O2/c8-6-3-5-1-2-7(6,9)4-5/h5-6,8-9H,1-4H2/t5-,6+,7+/m1/s1
