19
gdb 95871	2.40605	1.33711	1.08466	0.3409	76.65	-0.2445	0.0495	0.294	1180.3241	0.159205	-422.993849	-422.985111	-422.984167	-423.026997	33.69	
O	-0.0771111026	 1.4756601606	 0.1057071773	-0.429772
C	 0.0399344497	 0.0613910802	 0.0447168429	 0.101249
C	 0.723926801	-0.4893424979	 1.3041472863	-0.099567
O	 0.7527777496	-1.9053553352	 1.3094554224	-0.237277
C	-0.5431207582	-2.4658690119	 1.2930511643	-0.075494
C	-1.3405681621	-2.0582403117	 0.0325048407	-0.19625
C	-1.370208523	-0.5129389512	-0.0628662166	-0.219064
C	-0.7925334319	-2.673221473	-1.1749239659	 0.358505
C	-0.3497075904	-3.1810240364	-2.170555556	-0.494772
H	 0.8055340312	 1.8531768906	 0.0359857424	 0.285033
H	 0.6210326921	-0.2514927722	-0.8350815812	 0.088038
H	 1.7668528316	-0.1592998794	 1.3606904791	 0.096824
H	 0.1926579638	-0.1005457673	 2.1898468436	 0.091471
H	-0.412888379	-3.5496197569	 1.3350731519	 0.118232
H	-1.1119702914	-2.1445010426	 2.1823726939	 0.087394
H	-2.3699443233	-2.4173209576	 0.1639809587	 0.106964
H	-1.9677348747	-0.1159625697	 0.7670361222	 0.105503
H	-1.8415664206	-0.1885455687	-0.9940402372	 0.115958
H	 0.042482018	-3.6335714297	-3.0474143288	 0.197027
100.7473	114.7322	199.0867	254.0527	268.5912	329.2258	344.444	385.7298	406.7929	466.7428	525.0469	581.9014	626.3067	635.1039	741.4249	784.3264	888.1442	895.7421	945.5876	964.3437	992.0677	1065.5731	1092.9548	1101.5367	1120.8901	1160.3417	1206.8614	1220.9874	1264.7542	1295.5646	1321.3966	1338.2763	1343.6958	1359.6343	1394.7227	1411.0435	1441.9787	1486.061	1487.2785	1503.1443	2234.2715	2959.5713	2966.0252	3002.3881	3018.9642	3040.2397	3069.3278	3100.6016	3103.9442	3503.7531	3817.0506
OC1COCC(C1)C#C	O[C@H]1COC[C@@H](C1)C#C	
InChI=1S/C7H10O2/c1-2-6-3-7(8)5-9-4-6/h1,6-8H,3-5H2	InChI=1S/C7H10O2/c1-2-6-3-7(8)5-9-4-6/h1,6-8H,3-5H2/t6-,7-/m1/s1
