19
gdb 82863	2.49705	2.04507	1.75047	0.8847	72.37	-0.2433	0.0654	0.3086	884.5091	0.163166	-423.027385	-423.020797	-423.019853	-423.057925	28.117	
O	-0.0208220076	 1.4290696971	 0.1310954955	-0.428914
C	-0.0090186306	 0.0206324461	-0.0077566492	 0.122487
C	-1.4440911368	-0.5423216271	-0.1372884655	-0.090547
C	-2.2820384159	 0.2673105113	-1.1563605359	-0.234174
C	-1.5415860822	-0.4935937863	-2.2843577763	-0.067469
C	-0.1258116395	 0.0855266113	-2.5215428725	-0.215046
C	 0.6297173005	-0.5159425743	-1.3204615299	 0.008924
O	 0.1954070464	-1.8796070479	-1.310332537	-0.256049
C	-1.1977937178	-1.6242916626	-1.2447539083	 0.115411
H	 0.8830240931	 1.7233680082	 0.2802423906	 0.286155
H	 0.4960313405	-0.4546174457	 0.8441324593	 0.072286
H	-1.8913666368	-0.8167606415	 0.8180019792	 0.066047
H	-3.3394682805	-0.0070983028	-1.1053681277	 0.093215
H	-2.1876770255	 1.353949428	-1.1281049632	 0.114475
H	-2.0821567085	-0.7377513122	-3.1990133574	 0.06388
H	 0.3083717845	-0.285735745	-3.4536365056	 0.099737
H	-0.1082182074	 1.177726053	-2.5288582737	 0.106681
H	 1.7196311472	-0.4756028479	-1.3645216021	 0.06492
H	-1.769493043	-2.5497032216	-1.2369402102	 0.077981
190.7628	261.8709	272.2761	404.0083	417.1489	513.2737	559.2632	606.546	630.5691	753.8792	789.3561	816.0933	862.4594	875.4772	898.1208	912.7302	948.7504	981.6387	990.5241	1015.9878	1042.1424	1061.9878	1088.8206	1092.9947	1107.9831	1141.7676	1184.3612	1204.0196	1222.9293	1247.8854	1258.3627	1265.6955	1281.427	1304.3931	1312.2851	1343.921	1352.4665	1365.597	1419.1745	1473.2743	1494.4728	3007.36	3060.7297	3063.4464	3101.688	3103.9604	3106.4046	3118.4042	3124.114	3147.3843	3821.583
OC1C2CC3CC1OC23	O[C@H]1[C@H]2C[C@H]3C[C@@H]1O[C@@H]23	
InChI=1S/C7H10O2/c8-6-4-1-3-2-5(6)9-7(3)4/h3-8H,1-2H2	InChI=1S/C7H10O2/c8-6-4-1-3-2-5(6)9-7(3)4/h3-8H,1-2H2/t3-,4+,5-,6-,7+/m0/s1
