15
gdb 63199	2.64095	1.54104	1.21796	3.791	68.44	-0.2374	-0.0989	0.1385	1029.3487	0.110553	-457.797196	-457.788679	-457.787735	-457.830438	31.256	
C	 0.0460462263	 1.57949156	-0.0576263621	-0.430297
C	-0.0417903674	 0.0459690894	-0.0771888706	 0.224678
O	-1.3882953689	-0.3876155622	-0.171893356	-0.464277
C	 0.7647783238	-0.5709863237	-1.1980866304	-0.068681
C	 1.860182049	-1.2305754596	-0.7888587423	-0.193124
C	 1.9439817811	-1.2604890926	 0.684724235	 0.295663
O	 2.7986432712	-1.7212984541	 1.3986528151	-0.295843
C	 0.6409800452	-0.5627493838	 1.1609183996	 0.261727
O	 0.1904455389	-0.5510500835	 2.2740479133	-0.300479
H	 1.0826623099	 1.9279229357	-0.0191971202	 0.128703
H	-0.430688973	 1.9858363691	-0.9540031308	 0.134423
H	-0.4795327696	 1.9608987556	 0.8235640933	 0.136995
H	-1.7710318912	-0.30280657	 0.7113160808	 0.296792
H	 0.4524573062	-0.4491340618	-2.2302874386	 0.137361
H	 2.5915489085	-1.7149777982	-1.4234489961	 0.13636
52.0809	169.8358	214.9317	231.0378	263.9493	305.3131	334.9001	345.7635	370.6313	535.1829	570.0997	596.1837	688.3608	710.4902	778.3744	846.9924	907.6231	957.2229	994.7333	1013.0274	1078.248	1108.4714	1133.0618	1173.8818	1251.4215	1354.7038	1388.9869	1402.8254	1485.0247	1489.3054	1633.268	1823.7546	1860.1643	3036.7521	3114.3717	3121.6418	3189.2805	3223.9624	3771.2138
CC1(O)C=CC(=O)C1=O	C[C@@]1(O)C=CC(=O)C1=O	
InChI=1S/C6H6O3/c1-6(9)3-2-4(7)5(6)8/h2-3,9H,1H3	InChI=1S/C6H6O3/c1-6(9)3-2-4(7)5(6)8/h2-3,9H,1H3/t6-/m1/s1
