15
gdb 53643	3.31025	0.7275	0.71349	2.2654	71.67	-0.2619	-0.0848	0.1771	1642.8253	0.108615	-457.762595	-457.752473	-457.751529	-457.801311	32.572	
C	-0.272379938	 1.0305303869	-0.3949452228	-0.496658
C	-0.0721510077	-0.3631996173	-0.0301177783	 0.039951
C	 0.0921036212	-1.5175830339	 0.2670267985	 0.110895
C	 0.3020744043	-2.9067488762	 0.6354763013	-0.230254
O	-0.9520961398	-3.6163755228	 0.8289069731	-0.211734
C	-1.5063775627	-4.1286132806	-0.2699983507	 0.34773
O	-1.0651663652	-4.0820462913	-1.3904263057	-0.337061
C	-2.8327053037	-4.8413298991	 0.0261695219	 0.091971
O	-3.3328477483	-4.9321863832	 1.1106945178	-0.208966
H	 0.3638547564	 1.6911885539	 0.2036555223	 0.154448
H	-0.0397313996	 1.2041427045	-1.4508534554	 0.155733
H	-1.3122522431	 1.3311929104	-0.2276244537	 0.157761
H	 0.8844974934	-3.4318257397	-0.1268646501	 0.159542
H	 0.8079220481	-2.9913574877	 1.600231389	 0.150107
H	-3.2724335856	-5.2656680839	-0.8986401271	 0.116534
12.1936	34.2099	48.1738	115.1154	168.722	177.2558	207.0065	302.5761	355.0665	370.6588	496.5956	523.8499	605.042	733.8241	779.8362	838.1151	987.7628	1028.4417	1037.184	1050.6956	1058.6358	1178.2081	1274.5205	1300.4043	1376.6984	1404.6195	1413.9443	1469.9667	1474.3187	1477.3556	1811.05	1843.5609	2377.4534	2945.7608	3031.4648	3063.3682	3094.6689	3095.6404	3112.3967
CC#CCOC(=O)C=O	CC#CCOC(=O)C=O	
InChI=1S/C6H6O3/c1-2-3-4-9-6(8)5-7/h5H,4H2,1H3	InChI=1S/C6H6O3/c1-2-3-4-9-6(8)5-7/h5H,4H2,1H3
