13
gdb 132566	3.12856	1.37685	0.96175	0.7545	64.14	-0.2611	-0.0612	0.1998	1090.3762	0.088095	-502.057447	-502.050039	-502.049095	-502.090026	26.882	
C	-0.0321532778	 1.5116723177	-0.0220361464	-0.486156
C	-0.0033032902	 0.0122763996	-0.0203757198	 0.183578
N	-0.0265801058	-0.6517532912	-1.1775733643	-0.333808
C	 0.0005081962	-1.9668361721	-1.1221234765	 0.30075
F	-0.0231147349	-2.6171423612	-2.2782733177	-0.063675
C	 0.051445844	-2.6857635724	 0.0655686311	-0.149678
N	 0.0751641208	-2.0344785449	 1.230733378	-0.273632
C	 0.0479591693	-0.7269373071	 1.1706165929	 0.294462
F	 0.0715684074	-0.0644623558	 2.3240154836	-0.061151
H	 0.8540344313	 1.9199078208	 0.4751630888	 0.148898
H	-0.0693708635	 1.876080329	-1.0488418467	 0.150134
H	-0.9027664101	 1.8861164267	 0.5266578992	 0.148918
H	 0.0726199734	-3.7699996492	 0.0752141376	 0.14136
64.5523	128.7356	223.4173	270.3628	361.4394	410.9875	489.9447	495.307	533.0542	601.1908	636.4297	720.0793	796.9214	799.3833	920.6631	985.2312	1044.1438	1056.9461	1183.848	1265.8655	1305.8955	1360.2863	1403.8475	1440.7618	1460.1788	1477.1141	1503.7567	1612.024	1626.5384	3043.6427	3097.856	3155.0023	3193.8874
CC1=NC(F)=CN=C1F	Cc1nc(F)cnc1F	
InChI=1S/C5H4F2N2/c1-3-5(7)8-2-4(6)9-3/h2H,1H3	InChI=1S/C5H4F2N2/c1-3-5(7)8-2-4(6)9-3/h2H,1H3
