15
gdb 28041	4.18012	0.96264	0.85605	1.9088	73.19	-0.1989	0.0024	0.2012	1308.0511	0.114576	-413.025627	-413.017383	-413.016439	-413.059406	29.868	
N	-0.0227312849	 1.4002335478	 0.0890094277	-0.593893
C	-0.0510303574	 0.0087554726	 0.0438206825	 0.300616
C	-1.1265694234	-0.8399869702	-0.0718347804	-0.212114
N	-0.5840877665	-2.1193937343	 0.0151512209	 0.025278
C	-1.3064373673	-3.3664708966	-0.0658397981	-0.306377
C	-1.8555168215	-3.6343173997	-1.4051708222	 0.27612
N	-2.2988214727	-3.8492836113	-2.4494082163	-0.291587
C	 0.7582326203	-1.9695502092	 0.1730281992	 0.009523
N	 1.1138981251	-0.7059135444	 0.1981207301	-0.316062
H	 0.9053417717	 1.7503854217	-0.1090070238	 0.252857
H	-0.7095735098	 1.8464256963	-0.502808715	 0.246009
H	-2.1822747983	-0.6783540471	-0.2057763379	 0.128435
H	-0.6273348268	-4.1796090477	 0.2066287317	 0.173998
H	-2.131567402	-3.3779353412	 0.6560502993	 0.173384
H	 1.4208340035	-2.8177385868	 0.2663322924	 0.133813
41.4333	76.8188	214.4111	243.4154	277.3387	334.4323	372.4375	434.3612	480.3266	613.5472	625.2649	665.6841	693.4588	759.1512	794.775	804.2504	924.9767	971.249	1003.8399	1043.5938	1099.4298	1208.6865	1224.2927	1269.4239	1353.0388	1384.5576	1420.1372	1449.4467	1461.4344	1538.1907	1619.1261	1652.8433	2367.6971	3043.8458	3099.7213	3245.3401	3280.4997	3551.3984	3649.076
NC1=CN(CC#N)C=N1	Nc1cn(CC#N)cn1	
InChI=1S/C5H6N4/c6-1-2-9-3-5(7)8-4-9/h3-4H,2,7H2	InChI=1S/C5H6N4/c6-1-2-9-3-5(7)8-4-9/h3-4H,2,7H2
