17
gdb 53911	2.00243	1.49884	1.02721	3.3619	75.41	-0.2403	0.0164	0.2566	1195.1328	0.134035	-417.966491	-417.957059	-417.956115	-418.00126	34.358	
N	 0.827000743	-0.1670661019	-0.3132389289	-0.507716
C	-0.3299590632	 0.2821382176	 0.2276215304	 0.385805
O	-0.4795918054	 1.3549236941	 0.7717036099	-0.36149
C	-1.5128906353	-0.7146137071	 0.0645049324	-0.269275
C	-2.242313202	-0.412195315	-1.164589075	 0.37677
C	-2.8430418022	-0.165310861	-2.174978518	-0.459401
N	-1.0208437077	-2.0990267683	 0.04090335	-0.078679
C	-0.9840814623	-2.7820903341	 1.3360398667	-0.228813
C	-2.0086087119	-3.1379815747	 0.3170534793	-0.210311
H	 1.6512953322	 0.4062343292	-0.2514912786	 0.262154
H	 0.8717286409	-1.1053243988	-0.6767478753	 0.272488
H	-2.1722220471	-0.5199227402	 0.9256419391	 0.112671
H	-3.3740958562	 0.0615693351	-3.0662819263	 0.20232
H	-0.124405151	-3.4237881721	 1.5026684956	 0.123241
H	-1.3167034037	-2.2272067655	 2.2108829058	 0.127988
H	-3.0329155174	-2.8232848329	 0.5029603393	 0.127076
H	-1.9103669406	-4.0443530443	-0.2722757563	 0.125171
52.9709	79.2489	130.7008	160.0265	189.6403	304.6982	341.655	357.2028	405.4289	447.4742	526.5624	568.7029	624.1136	637.5028	662.0142	747.1376	781.5488	885.4116	897.7638	907.5147	986.9019	1033.5666	1060.7604	1101.8318	1116.6974	1123.47	1175.0027	1187.9978	1278.4624	1306.4627	1329.0838	1352.2822	1493.6548	1519.7195	1590.6536	1820.0262	2239.9737	2974.8275	3106.0137	3112.3401	3190.2255	3204.5233	3503.0621	3587.7024	3731.8625
NC(=O)C(C#C)N1CC1	NC(=O)[C@@H](C#C)N1CC1	
InChI=1S/C6H8N2O/c1-2-5(6(7)9)8-3-4-8/h1,5H,3-4H2,(H2,7,9)	InChI=1S/C6H8N2O/c1-2-5(6(7)9)8-3-4-8/h1,5H,3-4H2,(H2,7,9)/t5-/m1/s1
