12
gdb 132216	1.96982	1.83578	0.95022	4.4952	61.37	-0.2281	-0.017	0.2111	1076.6619	0.077536	-518.091809	-518.084638	-518.083694	-518.123791	26.595	
F	 0.0991221893	 0.0654245886	 0.0020065	-0.05145
C	-0.0521419074	 1.3772711432	 0.0112274182	 0.396202
C	-1.2181572662	 2.0255567412	 0.0307229378	-0.323932
C	-1.218520192	 3.4919951986	 0.0386992904	 0.354173
N	-2.3172812393	 4.1422244068	 0.0574279625	-0.53301
N	 0.0513354642	 4.1338506127	 0.0248210592	-0.394441
C	 1.0922807385	 3.4217860066	 0.0066749174	 0.415231
F	 2.2980770075	 3.9645185642	-0.0068384825	-0.060252
N	 1.1536055529	 2.0549258597	-0.0015798375	-0.453002
H	-2.1567221759	 1.4917083971	 0.0406782798	 0.140738
H	-2.1117699643	 5.1427401526	 0.0601134647	 0.220451
H	 2.0323210028	 1.5621667288	-0.016341	 0.289292
115.7208	169.7186	238.736	320.7186	336.7463	366.1969	492.3478	529.6602	600.6773	626.2603	626.5442	685.6533	740.501	863.1051	907.8797	922.5964	1021.9313	1051.1314	1155.219	1195.3163	1248.0486	1347.7695	1402.9923	1508.8069	1685.3359	1721.3982	1775.9891	3252.1903	3472.1103	3653.0013
FC1=CC(=N)N=C(F)N1	F[C@H]1C=C([NH])N=C(F)N1	
InChI=1S/C4H3F2N3/c5-2-1-3(7)9-4(6)8-2/h1H,(H2,7,8,9)	InChI=1S/C4H4F2N3/c5-2-1-3(7)9-4(6)8-2/h1-2,7H,(H,8,9)/t2-/m1/s1
