22
gdb 58952	2.53233	1.35633	1.1007	0.9789	82.68	-0.231	0.0735	0.3045	1222.3427	0.1927	-404.302849	-404.293114	-404.292169	-404.337161	36.907	
C	-0.2643962954	 1.4558507803	 0.1053177196	-0.420364
C	 0.0550521098	-0.0351501791	-0.0359602273	 0.031424
O	 0.8356608833	-0.2924737326	-1.2033061852	-0.441753
C	 0.8452536909	-0.5512344178	 1.1348451288	 0.377515
C	 2.3434791439	-0.2734036951	 1.389292986	-0.304138
C	 2.4872253975	-1.7204761206	 1.9555208431	-0.240951
C	 0.9881887754	-1.9513854096	 1.6889260069	-0.110907
N	 0.1343301764	-0.9672000815	 2.3246196905	-0.132744
C	 0.401311497	-0.4244400138	 3.6475919232	-0.322708
H	 0.656618066	 2.0432778594	 0.1757577429	 0.123733
H	-0.8345927515	 1.816231341	-0.7592541369	 0.102602
H	-0.8676641285	 1.6365996428	 1.0001587089	 0.127886
H	-0.8881511073	-0.6016753425	-0.0690660054	 0.071069
H	 0.4044581342	 0.1401877495	-1.9466446062	 0.280878
H	 2.8831994373	-0.1405721947	 0.4513128346	 0.124346
H	 2.5835889642	 0.5574161888	 2.0597585625	 0.090603
H	 3.116730138	-2.3494462457	 1.3229696764	 0.108761
H	 2.8207397758	-1.8262025227	 2.9924357469	 0.096487
H	 0.536049237	-2.8797034303	 1.3542984664	 0.088908
H	 1.4589041205	-0.2251268327	 3.8678564022	 0.107552
H	-0.1503314189	 0.5140505833	 3.7632685509	 0.119568
H	 0.0260682142	-1.1292096265	 4.3962541311	 0.122233
57.8215	130.6192	166.9363	200.0653	253.1743	265.7185	273.3011	278.1654	315.947	342.2967	489.253	520.0438	548.1592	653.3935	743.4978	768.2657	809.6406	884.2525	917.6604	942.4601	953.0969	993.38	1011.1636	1053.2162	1076.9726	1112.3423	1115.4927	1135.4224	1157.5033	1181.6014	1197.9631	1218.0596	1224.7564	1254.8187	1274.8683	1304.3923	1361.6197	1377.3566	1399.7256	1443.4408	1464.2539	1471.408	1488.0899	1493.3234	1502.7774	1504.7222	1510.8473	2985.637	3008.853	3026.4474	3050.8423	3058.025	3074.256	3093.6756	3101.66	3109.5342	3115.8796	3134.8577	3160.1289	3822.5893
CC(O)C12CCC1N2C	C[C@@H](O)[C@]12CC[C@H]1N2C	
InChI=1S/C7H13NO/c1-5(9)7-4-3-6(7)8(7)2/h5-6,9H,3-4H2,1-2H3	InChI=1S/C7H13NO/c1-5(9)7-4-3-6(7)8(7)2/h5-6,9H,3-4H2,1-2H3/t5-,6-,7-,8?/m1/s1
