16
gdb 125595	3.11812	1.3947	0.97008	5.2197	77.17	-0.219	-0.0394	0.1797	1159.3056	0.126095	-434.12106	-434.112996	-434.112052	-434.153288	31.26	
C	-0.0568306577	 1.4954844333	-0.0354469006	-0.499144
C	-0.0184909068	-0.0064348039	 0.0061251628	 0.311999
N	-0.0083971568	-0.6339434792	-1.1344629599	-0.248042
N	 0.0163212694	-1.9673652287	-1.1158393212	-0.277418
C	 0.0363832979	-2.8227611474	 0.0005183503	 0.431782
O	 0.0614439499	-4.0328326314	-0.1591680565	-0.409084
C	 0.0303714413	-2.0954840294	 1.2433832399	-0.33413
C	-0.0012240362	-0.7274232858	 1.2661539388	 0.302097
N	-0.0712294607	-0.0026246547	 2.4360646345	-0.587617
H	 0.8365909245	 1.940573715	 0.4229861756	 0.126009
H	-0.1015963261	 1.8254480487	-1.0739986842	 0.151646
H	-0.9302888868	 1.889776772	 0.4972173739	 0.138506
H	 0.0214114864	-2.4134198824	-2.0230605515	 0.269137
H	 0.0484568086	-2.683014012	 2.1542807008	 0.104909
H	 0.1544085104	-0.495371501	 3.2862775911	 0.260525
H	 0.2617907825	 0.9474376571	 2.4160205364	 0.258822
115.7434	192.0021	212.0265	306.5832	318.0351	352.5532	390.6099	436.6564	469.0908	505.0878	524.4657	563.132	667.7085	732.6586	734.2382	750.5389	776.5683	874.3346	949.1345	1014.3403	1059.9652	1101.0391	1215.1116	1245.6985	1260.7657	1308.5027	1410.0719	1431.521	1461.8591	1483.5628	1489.0795	1581.2287	1645.0086	1675.5866	1782.624	3014.6947	3067.7734	3144.787	3196.5787	3589.1194	3601.6539	3697.5156
CC1=NNC(=O)C=C1N	Cc1n[nH]c(=O)cc1N	
InChI=1S/C5H7N3O/c1-3-4(6)2-5(9)8-7-3/h2H,1H3,(H3,6,8,9)	InChI=1S/C5H7N3O/c1-3-4(6)2-5(9)8-7-3/h2H,1H3,(H3,6,8,9)
