15
gdb 125764	2.43545	1.65936	0.99303	0.4308	71.79	-0.2292	-0.0352	0.194	1121.6907	0.111795	-453.977536	-453.968887	-453.967943	-454.01096	30.952	
C	-0.0265799505	 1.4897026044	-0.0030167976	-0.501071
C	-0.0109238531	-0.00506214	 0.0270496284	 0.326471
N	-0.0367251227	-0.6665221568	-1.0986721005	-0.223832
O	-0.0120314586	-2.0609804101	-0.7252588807	-0.229991
C	 0.0269768041	-2.1389604341	 0.5966001424	 0.497832
N	 0.0569344319	-3.324956558	 1.2032845549	-0.590341
C	 0.0307217107	-0.8672201344	 1.1683993503	-0.080386
C	 0.0684774305	-0.636342104	 2.581118891	 0.044474
O	 0.1011687142	-1.5397850735	 3.4127549279	-0.341411
H	 0.8687694886	 1.8975110116	 0.4769806749	 0.144004
H	-0.0636082102	 1.8410097794	-1.0355234145	 0.155873
H	-0.8964425147	 1.8803065127	 0.5346319145	 0.143877
H	 0.0469592543	-4.183565986	 0.6821176751	 0.278998
H	 0.0838006314	-3.2980790575	 2.2151562911	 0.297843
H	 0.066963844	 0.4228637363	 2.9092559929	 0.077659
81.7437	140.9495	181.7675	188.4792	219.9279	268.3257	295.6051	366.5498	420.3801	521.493	607.0918	629.2139	649.4174	770.2333	777.6655	795.2614	857.8396	1021.8677	1029.773	1054.1881	1066.5861	1109.7034	1317.5794	1386.6265	1416.1182	1425.8613	1474.3893	1480.4534	1509.2368	1527.4981	1606.2619	1666.8563	1733.5007	2921.4936	3045.1688	3103.1422	3144.1268	3534.4363	3725.5182
CC1=NOC(N)=C1C=O	Cc1noc(N)c1C=O	
InChI=1S/C5H6N2O2/c1-3-4(2-8)5(6)9-7-3/h2H,6H2,1H3	InChI=1S/C5H6N2O2/c1-3-4(2-8)5(6)9-7-3/h2H,6H2,1H3
