21
gdb 107006	2.66661	1.21743	1.10761	0.8433	79.11	-0.2426	0.0733	0.3159	1229.5672	0.181193	-424.192006	-424.182241	-424.181296	-424.226356	36.537	
C	-0.1263460218	 1.5871678022	-0.0274949086	-0.408797
C	 0.0359501522	 0.0766955066	-0.1402609684	-0.01507
C	 0.7888343926	-0.5112402928	-1.3409255311	-0.110352
C	 2.2407143766	-0.12242787	-1.3165762901	-0.351621
C	 1.7788234426	-1.2297242687	-0.411136609	 0.389736
C	 2.3270470243	-2.6188601142	-0.4735908726	-0.214803
O	 1.3119507048	-3.5282693952	-0.0556867491	-0.42233
C	 1.0755343749	-0.6434417377	 0.8075016914	 0.017152
O	 1.9242937838	 0.1567524212	 1.6092332082	-0.433809
H	 0.8350764113	 2.1041235422	-0.07903861	 0.124898
H	-0.7628258296	 1.9711210394	-0.8320308856	 0.112589
H	-0.5973182422	 1.8617056155	 0.9238665579	 0.101063
H	-0.9397516798	-0.4082278892	-0.0331825402	 0.071239
H	 0.3232848739	-0.9060679292	-2.2363563221	 0.084363
H	 2.8162748174	-0.4490787959	-2.1776327976	 0.106099
H	 2.5709633873	 0.8209971482	-0.8947194287	 0.122707
H	 2.6584621777	-2.838835857	-1.5015598649	 0.082661
H	 3.2120080496	-2.6969388346	 0.1786056248	 0.095323
H	 1.7215251404	-4.3867916318	 0.0852568453	 0.285901
H	 0.5965056785	-1.4299561249	 1.4008915939	 0.080918
H	 1.4221697555	 0.4536812657	 2.3746238563	 0.282134
77.8595	120.9998	169.6198	178.3664	211.9957	222.4942	258.7785	285.8379	298.8068	420.6975	477.904	517.0217	592.8647	665.5323	711.3817	786.9072	834.5	861.3768	959.0758	966.3217	973.608	1012.5955	1028.4244	1051.8683	1061.6446	1083.2079	1107.8298	1135.6635	1151.758	1179.7963	1217.9265	1235.6254	1256.6	1289.4949	1291.4168	1340.9509	1365.0079	1379.6019	1412.3305	1433.08	1465.7921	1490.8549	1495.9398	1505.1324	1509.8895	2960.7946	2989.2414	3028.9732	3038.6192	3055.8041	3087.3797	3118.1563	3126.3464	3179.2503	3207.3896	3818.1685	3830.1084
CC1C2CC2(CO)C1O	C[C@H]1[C@H]2C[C@@]2(CO)[C@H]1O	
InChI=1S/C7H12O2/c1-4-5-2-7(5,3-8)6(4)9/h4-6,8-9H,2-3H2,1H3	InChI=1S/C7H12O2/c1-4-5-2-7(5,3-8)6(4)9/h4-6,8-9H,2-3H2,1H3/t4-,5+,6-,7-/m0/s1
