19
gdb 94223	3.35372	1.06987	0.96977	2.7804	75.28	-0.2545	0.0213	0.2758	1265.2189	0.158562	-419.201131	-419.191651	-419.190707	-419.235519	34.798	
C	-0.1850221753	 1.4703888016	-0.1152451207	-0.41411
C	 0.0449927437	-0.025154767	 0.0058904701	 0.11282
O	 1.1464527894	-0.4894237203	-0.8128782383	-0.290504
C	 1.9745723065	-0.7358185859	 0.3394984528	-0.125417
C	 0.7573942038	-0.5491235624	 1.2906496241	 0.238563
N	 0.8012976755	 0.3458249851	 2.423995596	-0.571417
C	 0.1526209518	-1.8955244798	 1.7332414419	-0.366674
C	 0.9810863934	-2.5670409622	 2.7335428585	 0.255088
N	 1.6608703805	-3.0600251878	 3.5280398924	-0.311276
H	 0.731319803	 2.037601198	 0.0764355367	 0.115032
H	-0.5162418431	 1.7093863446	-1.1299616089	 0.132652
H	-0.9539669436	 1.7992929746	 0.5901997814	 0.132541
H	-0.8785959291	-0.563501923	-0.247186836	 0.078053
H	 2.4525455561	-1.7217446643	 0.3096833	 0.113331
H	 2.7498550803	 0.0327805777	 0.4659663938	 0.094738
H	 1.2991392856	-0.0804574804	 3.2009549787	 0.247425
H	 1.2925697859	 1.202527503	 2.1932463552	 0.235552
H	-0.8425853491	-1.722289774	 2.1564679732	 0.160247
H	 0.0418095248	-2.5520209374	 0.864576599	 0.163354
66.2083	99.2652	124.2596	208.3629	229.1491	271.8226	293.1822	335.5343	390.9665	405.0866	430.3091	472.6389	563.1603	702.1557	809.2349	838.9443	874.0347	901.277	905.5121	955.7255	1010.3452	1025.5837	1042.7819	1087.246	1115.0423	1131.011	1156.7192	1215.419	1262.9109	1287.3519	1314.4273	1342.1425	1371.7429	1397.1813	1405.9461	1457.6945	1482.8244	1495.4552	1523.5537	1664.747	2357.1649	3000.102	3009.3641	3039.8343	3053.5286	3061.4439	3101.5143	3111.697	3120.5851	3498.5738	3580.0164
CC1OCC1(N)CC#N	C[C@H]1OC[C@]1(N)CC#N	
InChI=1S/C6H10N2O/c1-5-6(8,2-3-7)4-9-5/h5H,2,4,8H2,1H3	InChI=1S/C6H10N2O/c1-5-6(8,2-3-7)4-9-5/h5H,2,4,8H2,1H3/t5-,6-/m1/s1
