18
gdb 31278	2.04093	1.7003	0.96451	1.1552	76.36	-0.1705	0.0546	0.2252	1218.4915	0.146941	-439.087076	-439.077641	-439.076697	-439.122065	33.612	
C	 0.0589115258	 0.5014257325	 0.6296039038	-0.250912
O	-0.2559811316	 0.4913077644	-0.7637417755	-0.271362
C	 0.4638560916	-0.3840653126	-1.5063570204	 0.25777
C	 0.7155402544	-1.7373434091	-1.3923660569	 0.227256
O	 0.2497286185	-2.4926501641	-0.3511793125	-0.275666
C	 0.6634973272	-3.8424187391	-0.3441541441	-0.2426
C	 1.499800837	-2.1220751509	-2.5198407929	-0.277572
C	 1.6887611018	-0.9951385247	-3.2895578585	-0.093048
N	 1.0655854653	 0.0524596885	-2.6617367122	-0.295092
H	-0.1227152872	-0.4785257963	 1.0803186455	 0.145974
H	 1.1069642939	 0.783888354	 0.7914353866	 0.112148
H	-0.5955435538	 1.2468331817	 1.0861145762	 0.125575
H	 0.3007401326	-4.3808996482	-1.2305432727	 0.118218
H	 1.7580485902	-3.9308390393	-0.3030584921	 0.115994
H	 0.2322996512	-4.2969482742	 0.5500298212	 0.127006
H	 1.8727754239	-3.1078607696	-2.7450016022	 0.096441
H	 2.2050675792	-0.8595860314	-4.2248764847	 0.116846
H	 1.0127071798	 1.0024150985	-2.9844834186	 0.263023
46.691	67.7769	155.9079	163.9257	205.3646	230.5555	297.899	335.6683	404.507	427.2524	524.7133	617.8546	629.5884	639.6897	697.0116	735.6999	784.2847	906.8993	1026.8779	1065.094	1103.2371	1122.8804	1180.1997	1181.5661	1189.7123	1211.7382	1239.9203	1268.9901	1336.2949	1425.6295	1464.0586	1471.4326	1483.2732	1485.0587	1509.0409	1511.1112	1513.0476	1535.7525	1663.2764	2993.4775	3016.5841	3046.9429	3096.0579	3125.2803	3134.0158	3258.6154	3279.8373	3689.1988
COC1=C(OC)C=CN1	COc1c(OC)cc[nH]1	
InChI=1S/C6H9NO2/c1-8-5-3-4-7-6(5)9-2/h3-4,7H,1-2H3	InChI=1S/C6H9NO2/c1-8-5-3-4-7-6(5)9-2/h3-4,7H,1-2H3
