17
gdb 104273	2.30312	1.33341	1.10013	3.398	68.83	-0.2535	0.0118	0.2652	1149.5162	0.135534	-455.121943	-455.112903	-455.111959	-455.155736	33.242	
O	-0.0907652564	 1.4618768697	-0.1206517191	-0.439758
C	-0.0211708238	 0.0468588019	-0.2810637111	-0.147721
C	-1.4226470389	-0.4643090987	 0.027438795	 0.400173
O	-1.8477977808	-0.0143802173	 1.2779913664	-0.479462
C	-2.4226395954	-0.3333921556	-1.1614785161	-0.22617
N	-2.1191579497	-1.7409650349	-1.5236484459	-0.315404
C	-1.5993290317	-2.0040315744	-0.1643787152	-0.177519
C	-0.4247285758	-2.8728948405	-0.0892342092	 0.302741
N	 0.5157821094	-3.5411537286	-0.0171454617	-0.338457
H	 0.8032217175	 1.8141475236	-0.0989693639	 0.301439
H	 0.2729742024	-0.2378058762	-1.2992924995	 0.123376
H	 0.6904679577	-0.3987612334	 0.4272202367	 0.117993
H	-1.4706676118	 0.8704917479	 1.3823411601	 0.293325
H	-3.436770463	-0.1651507982	-0.779158355	 0.107251
H	-2.193859327	 0.3947810058	-1.9443855624	 0.118574
H	-2.9107583777	-2.3136015058	-1.7937704493	 0.233519
H	-2.3465973551	-2.3543939954	 0.5605704402	 0.126102
96.197	114.0594	128.8506	194.041	255.4543	265.6321	329.241	368.0719	407.2204	452.4658	492.2323	550.5151	594.4296	660.9877	740.4806	871.8061	911.8361	948.2135	1000.0008	1015.9866	1049.6237	1065.3537	1087.0256	1125.2657	1156.824	1188.183	1219.7848	1262.5041	1277.2215	1332.1106	1355.5909	1385.7655	1412.5106	1455.7202	1510.8764	1518.8298	2353.7253	3009.0721	3017.4341	3027.9292	3057.6057	3093.1265	3540.0635	3748.6937	3844.0154
OCC1(O)CNC1C#N	OC[C@@]1(O)CN[C@H]1C#N	
InChI=1S/C5H8N2O2/c6-1-4-5(9,3-8)2-7-4/h4,7-9H,2-3H2	InChI=1S/C5H8N2O2/c6-1-4-5(9,3-8)2-7-4/h4,7-9H,2-3H2/t4-,5-/m0/s1
