23
gdb 117818	2.27366	0.96954	0.84924	2.9716	82.75	-0.2484	-0.0233	0.2251	1538.8357	0.201431	-425.445215	-425.433612	-425.432667	-425.482508	41.065	
C	-2.2335349198	 1.6087601753	 1.2981051875	-0.381751
C	-2.2659735545	 0.0768998362	 1.2898159151	-0.2043
C	-1.3841803633	-0.5156282497	 0.1834180223	-0.188844
C	-1.3256153078	-2.0665377588	 0.1417861168	 0.25217
O	-0.853693638	-2.5948970908	 1.3810431512	-0.473902
C	-2.6599539546	-2.6976392392	-0.2956578926	-0.220928
C	-2.6506761265	-4.2296817846	-0.2955548735	-0.39357
C	-0.2163735109	-2.4103752711	-0.8528935411	 0.156338
O	-0.3537541484	-2.4078897298	-2.0482490881	-0.267495
H	-2.8623820427	 2.0136810625	 2.0968592911	 0.115003
H	-1.2153257854	 1.981981313	 1.4518565277	 0.120071
H	-2.5955804405	 2.0164248191	 0.3481816618	 0.120455
H	-1.9231034815	-0.290080433	 2.2660430478	 0.093464
H	-3.3027181152	-0.2599149447	 1.172557459	 0.105451
H	-1.7204617033	-0.1623869817	-0.7984519235	 0.11379
H	-0.3611354321	-0.1397779187	 0.3185198127	 0.100862
H	-1.5241073004	-2.4322952288	 2.0518023072	 0.285713
H	-3.4562219286	-2.3338234604	 0.3649588432	 0.089958
H	-2.8857269769	-2.3251069262	-1.3000405513	 0.121565
H	-3.6401429806	-4.620670236	-0.5494325124	 0.112043
H	-1.9406783607	-4.6202141485	-1.0306774358	 0.131945
H	-2.3678518094	-4.6219662434	 0.6849299057	 0.11957
H	 0.7588316811	-2.6307553808	-0.3649019008	 0.092391
54.8076	71.7752	87.6584	107.4452	165.5721	203.2805	229.0383	250.9874	259.5655	278.6247	300.4128	321.1291	365.8088	433.7327	536.8795	653.1777	732.976	752.2172	791.8623	867.8226	882.3195	959.1727	974.6009	985.5125	1046.5981	1051.4538	1061.8402	1107.3727	1130.8534	1158.1244	1208.2422	1268.9802	1293.209	1312.936	1337.937	1359.8086	1364.2676	1397.7896	1410.1333	1411.3787	1415.4743	1472.4119	1477.7175	1492.1664	1497.1556	1500.0772	1508.5439	1509.7489	1835.1427	2894.8968	3014.1454	3019.896	3032.9216	3033.3482	3045.5578	3052.7444	3074.0992	3083.1121	3102.8965	3105.7741	3113.5013	3122.6041	3826.5424
CCCC(O)(CC)C=O	CCC[C@@](O)(CC)C=O	
InChI=1S/C7H14O2/c1-3-5-7(9,4-2)6-8/h6,9H,3-5H2,1-2H3	InChI=1S/C7H14O2/c1-3-5-7(9,4-2)6-8/h6,9H,3-5H2,1-2H3/t7-/m0/s1
