18
gdb 84046	3.61188	1.1931	0.99353	1.0794	87.94	-0.2205	-0.0268	0.1937	1215.2856	0.147279	-364.765212	-364.75698	-364.756035	-364.797724	32.212	
C	-0.2483281253	 1.5865294588	 0.0777718149	-0.393113
C	 0.0297343209	 0.083588339	-0.0082590749	 0.007698
C	 0.7004273622	-0.3874033089	-1.2807945812	-0.219261
C	 1.767670094	-1.1557947995	-1.0095531304	 0.21939
C	 2.6218128991	-1.8146403281	-1.9233149313	 0.197742
C	 3.3701762968	-2.400402946	-2.6641991891	-0.417426
C	 1.9659730477	-1.2157070604	 0.4793775993	-0.150686
C	 2.272042055	 0.0974420216	 1.1122801801	-0.242414
N	 0.8935841028	-0.4132299187	 1.0962842755	-0.106134
H	 0.6640671711	 2.1758489356	-0.0490563982	 0.119302
H	-0.954974041	 1.8867324368	-0.7019151715	 0.119317
H	-0.6863217319	 1.8308960858	 1.0494352817	 0.131788
H	-0.9365336299	-0.4325544877	 0.1003629026	 0.097421
H	 0.3535077628	-0.1268847995	-2.2734697618	 0.106128
H	 4.0227997866	-2.9099672413	-3.3289202252	 0.193882
H	 2.2468993137	-2.1553475012	 0.945736072	 0.101837
H	 2.7136429351	 0.1398595266	 2.1040310484	 0.118135
H	 2.5546513604	 0.907516477	 0.4450670291	 0.116393
109.355	138.7791	198.3028	229.7604	266.9506	375.731	405.2135	488.8616	515.358	567.6222	591.5453	639.1992	645.9843	710.9963	735.5577	824.681	862.1958	874.5596	898.6354	956.3269	1035.6678	1042.7196	1081.0282	1106.742	1109.4993	1133.6835	1156.5681	1190.7756	1253.0701	1274.6953	1324.8562	1347.8851	1359.7128	1404.6492	1488.2565	1496.8919	1497.3788	1658.7552	2224.215	2978.2015	3043.4406	3105.8202	3114.4356	3122.4545	3154.2306	3195.2799	3208.7285	3502.695
CC1C=C(C#C)C2CN12	C[C@H]1C=C(C#C)[C@H]2CN12	
InChI=1S/C8H9N/c1-3-7-4-6(2)9-5-8(7)9/h1,4,6,8H,5H2,2H3	InChI=1S/C8H9N/c1-3-7-4-6(2)9-5-8(7)9/h1,4,6,8H,5H2,2H3/t6-,8+,9?/m0/s1
