18
gdb 126755	3.14359	1.14725	0.91044	1.2182	76.66	-0.219	0.0086	0.2276	1319.1344	0.147644	-435.28836	-435.279002	-435.278058	-435.323686	33.101	
C	-0.0453274614	 1.506726491	-0.0817261759	-0.377628
C	-0.0831100408	-0.0198756283	 0.0028917648	-0.124622
N	-1.4357925753	-0.546994916	 0.0225028342	 0.131734
N	-2.0470553638	-0.9021415435	 1.144180179	-0.287167
C	-3.2863421136	-1.2363920651	 0.7691824688	 0.234983
C	-4.3285839716	-1.7226458238	 1.7190776231	-0.497004
C	-3.3558541843	-1.0438572908	-0.6237954737	 0.305094
O	-4.4275592652	-1.2702459378	-1.409994861	-0.426152
N	-2.1905208626	-0.605591518	-1.0828280728	-0.340299
H	 0.9919591626	 1.8544834684	-0.1031888217	 0.120751
H	-0.5457531625	 1.8529215324	-0.9896768939	 0.139513
H	-0.5428035364	 1.9539964896	 0.7833409294	 0.134824
H	 0.4308806138	-0.4677674797	-0.8522439273	 0.129891
H	 0.3900536169	-0.3769525936	 0.919489552	 0.138352
H	-5.2090335177	-1.0709433246	 1.7153435008	 0.135248
H	-4.6725484444	-2.7288662353	 1.4559837882	 0.135548
H	-3.9230844208	-1.7500971559	 2.7324479743	 0.140646
H	-4.1752873828	-1.053747809	-2.3157947082	 0.306287
31.7975	74.7453	94.8488	209.1826	239.9587	249.9404	308.0812	322.3086	374.6076	420.0569	528.8338	625.5902	659.2874	668.3521	741.2419	796.1845	817.0723	963.0277	1017.8425	1030.7111	1068.1459	1098.8007	1116.1016	1199.159	1264.3317	1300.0055	1361.6367	1387.6052	1404.3612	1405.8571	1413.6475	1434.3006	1474.4855	1480.3263	1488.764	1493.2698	1506.0297	1579.8887	1601.9113	3036.4814	3045.8002	3069.1265	3086.6032	3118.3868	3120.7135	3133.9084	3141.0841	3803.8476
CCN1N=C(C)C(O)=N1	CCn1nc(C)c(O)n1	
InChI=1S/C5H9N3O/c1-3-8-6-4(2)5(9)7-8/h3H2,1-2H3,(H,7,9)	InChI=1S/C5H9N3O/c1-3-8-6-4(2)5(9)7-8/h3H2,1-2H3,(H,7,9)
