15
gdb 126357	5.59559	0.90659	0.82893	1.8871	76.72	-0.2673	-0.0437	0.2235	1374.4839	0.111646	-416.785464	-416.777036	-416.776092	-416.819632	30.037	
C	-0.5022578139	 1.3487045461	-0.1677465115	-0.384588
C	 0.1687686163	-0.0097722203	 0.1025790491	-0.310019
C	 0.8439135383	-0.5668230997	-1.1029540699	 0.406662
N	 2.1118627547	-0.7498829047	-1.3130911098	-0.343377
C	 2.1229164979	-1.2681015648	-2.5946542311	 0.184028
N	 0.9336683808	-1.3959053195	-3.1421408083	-0.173977
O	 0.0784419407	-0.9282941658	-2.1475191075	-0.188149
C	 3.308625646	-1.6371231207	-3.2783077629	 0.277538
C	 4.3181257779	-1.9473179428	-3.850903797	-0.366202
H	 0.2346591884	 2.0925221865	-0.4832662262	 0.137654
H	-1.2590666351	 1.2627257036	-0.9516287805	 0.142653
H	-0.9885458472	 1.7129039894	 0.740822904	 0.128498
H	 0.9274985994	 0.0787250319	 0.8829842167	 0.145635
H	-0.5812085948	-0.7307940848	 0.4468046126	 0.1382
H	 5.2105067407	-2.2220295342	-4.3577268976	 0.205444
28.2815	115.2816	142.5603	192.5198	216.4532	333.3345	375.619	468.9536	547.7604	566.2058	642.487	678.4518	699.5402	734.2841	776.8101	804.2794	949.6796	970.6513	1013.2383	1041.8766	1079.6727	1105.2513	1253.7103	1314.2803	1345.157	1363.1976	1412.3915	1474.7478	1497.8485	1503.6448	1511.0227	1618.1698	2254.6375	3048.8514	3052.5226	3111.7208	3125.589	3134.3768	3501.7975
CCC1=NC(=NO1)C#C	CCc1nc(no1)C#C	
InChI=1S/C6H6N2O/c1-3-5-7-6(4-2)9-8-5/h1H,4H2,2H3	InChI=1S/C6H6N2O/c1-3-5-7-6(4-2)9-8-5/h1H,4H2,2H3
