16
gdb 132773	2.31088	1.79553	1.01383	1.7859	76.86	-0.1939	0.0191	0.213	1095.6193	0.126292	-442.100089	-442.092286	-442.091341	-442.131904	31.125	
N	-0.0945767002	 1.4042211269	 0.1133332462	-0.604424
C	-0.010646285	 0.0056413112	 0.0279131099	 0.263477
C	-1.2178449067	-0.7147959932	-0.0342801656	 0.107109
N	-2.4443077883	-0.0246245092	-0.0812255994	-0.61433
C	-1.1483942483	-2.102801336	-0.0932690613	 0.25479
F	-2.3170311456	-2.7739603801	-0.1561959334	-0.101304
C	 0.0471460709	-2.8025209508	-0.0804153949	-0.268063
C	 1.2316258236	-2.0761154764	 0.0064441914	-0.1076
C	 1.2027776085	-0.6850620412	 0.0559227954	-0.20357
H	 0.7855425937	 1.868735566	-0.0654031092	 0.244098
H	-0.8216052653	 1.7825688372	-0.4841407014	 0.252024
H	-2.5075018571	 0.6834221312	 0.6429343097	 0.250918
H	-3.2302219166	-0.6582621011	-0.0129277442	 0.250433
H	 0.0310649142	-3.884231801	-0.1272034649	 0.101585
H	 2.182653477	-2.5961909086	 0.0223663729	 0.095015
H	 2.1295647954	-0.1216707449	 0.1075332191	 0.079842
161.2403	217.3295	252.0144	296.3442	305.8149	315.1306	453.0237	492.4789	506.7669	542.0689	565.6673	584.3776	702.1005	719.6484	733.0364	774.0014	823.1457	859.401	860.0697	916.2918	978.0437	1074.4837	1131.353	1171.7542	1222.6379	1272.0387	1290.3849	1347.8189	1383.6923	1515.4817	1537.9725	1618.9599	1638.9518	1652.5517	1673.4286	3167.2354	3192.898	3213.1768	3510.9081	3518.1001	3618.7925	3625.3403
NC1=C(N)C(F)=CC=C1	Nc1c(N)c(F)ccc1	
InChI=1S/C6H7FN2/c7-4-2-1-3-5(8)6(4)9/h1-3H,8-9H2	InChI=1S/C6H7FN2/c7-4-2-1-3-5(8)6(4)9/h1-3H,8-9H2
