17
gdb 14708	10.11198	0.61788	0.61479	4.2606	71.44	-0.2408	-0.0204	0.2204	1800.4974	0.138585	-401.00215	-400.992554	-400.99161	-401.039057	31.372	
C	-0.0713657543	 1.4736451609	 0.0447383428	-0.385083
C	 0.0482255481	-0.0380552329	 0.0200823623	-0.056938
O	 0.6438373235	-0.41050991	-1.2301845165	-0.200401
C	 0.8595887473	-1.7210939302	-1.4138578119	 0.138535
N	 1.3576649429	-2.1466836864	-2.4907151818	-0.226012
C	 1.5556204656	-3.5719525009	-2.6146148283	-0.23722
C	 0.8769783148	-4.1013508107	-3.8725846733	 0.156368
O	 0.5190556407	-5.2410345682	-4.0124047306	-0.238237
H	 0.9135610001	 1.9389801503	-0.0468851599	 0.137987
H	-0.695893861	 1.8233232679	-0.7814781291	 0.138833
H	-0.524514575	 1.7973785308	 0.9860894686	 0.123971
H	 0.6755508103	-0.3959229649	 0.8473262696	 0.111873
H	-0.9383218917	-0.511293811	 0.1123266288	 0.113341
H	 0.5746806499	-2.3595274404	-0.5625628653	 0.080871
H	 2.6306406144	-3.775410047	-2.7447221573	 0.136657
H	 1.2153111773	-4.1704616107	-1.7546251613	 0.110725
H	 0.7517947971	-3.3362608167	-4.6696183468	 0.094729
17.8108	41.6946	80.1775	126.0207	142.3292	228.2278	253.4205	318.7452	357.4774	447.6917	502.5493	630.0292	742.2462	816.5234	921.6257	992.4693	1039.4074	1059.5714	1080.1296	1108.9179	1154.5695	1182.0193	1229.2409	1262.1332	1303.1148	1326.2841	1391.4545	1404.1379	1414.2032	1438.4747	1459.58	1483.7977	1498.5127	1522.0662	1772.9767	1838.3618	2902.8249	2972.0923	2990.8965	3009.9397	3012.8275	3047.3013	3050.6311	3126.3469	3131.0374
CCOC=NCC=O	CCOC=NCC=O	
InChI=1S/C5H9NO2/c1-2-8-5-6-3-4-7/h4-5H,2-3H2,1H3	InChI=1S/C5H9NO2/c1-2-8-5-6-3-4-7/h4-5H,2-3H2,1H3
