17
gdb 51540	4.62643	0.75749	0.72476	3.593	71.47	-0.2666	-0.0371	0.2294	1529.0668	0.133964	-458.981812	-458.972875	-458.971931	-459.017229	30.908	
O	-1.0724953293	 0.7525917432	-0.1308897533	-0.271668
C	-0.4886494299	 1.7684119427	 0.0941131309	 0.161667
O	 0.8558109325	 1.8632934696	 0.0406461351	-0.188721
C	 1.4646079284	 3.1146516358	 0.3263682334	 0.157821
C	 2.5750447269	 3.0978021972	 1.3980640131	-0.26446
C	 3.4281308283	 4.0059602869	 0.4736587429	-0.106895
C	 2.4881356579	 3.6008787006	-0.7224578703	-0.274102
C	 3.3135008008	 5.4796654371	 0.7692597205	 0.146999
O	 2.5452700227	 5.9630017799	 1.5633854941	-0.242204
H	-0.9743978214	 2.7261103302	 0.365316913	 0.083127
H	 0.700192776	 3.8681289058	 0.5423237447	 0.108606
H	 2.3240320614	 3.4988865201	 2.3802414043	 0.13059
H	 3.0058682416	 2.0989489653	 1.4911907343	 0.124674
H	 4.4802119104	 3.7446351614	 0.3348769134	 0.097677
H	 2.9024561794	 2.757525693	-1.2783314457	 0.134794
H	 2.1755784066	 4.3791572108	-1.4226829405	 0.117779
H	 3.9828269078	 6.1266108304	 0.1577336302	 0.084316
46.8925	49.1827	92.0661	149.2018	218.9328	261.355	302.7309	389.5351	424.5965	554.6891	645.8511	764.2759	807.1198	829.4899	884.2734	945.0546	959.4532	1013.8717	1036.476	1044.8132	1083.1884	1113.0997	1131.3407	1169.7305	1190.7355	1231.5914	1252.2134	1276.0874	1284.9803	1356.3981	1386.29	1420.0023	1442.9355	1462.2379	1490.7106	1820.2362	1869.0572	2876.8781	2949.0892	3058.4343	3069.4609	3078.5075	3087.0622	3132.748	3150.4862
O=COC1CC(C1)C=O	O=CO[C@H]1C[C@@H](C1)C=O	
InChI=1S/C6H8O3/c7-3-5-1-6(2-5)9-4-8/h3-6H,1-2H2	InChI=1S/C6H8O3/c7-3-5-1-6(2-5)9-4-8/h3-6H,1-2H2/t5-,6-
