19
gdb 113332	2.12678	1.25786	1.03524	4.0414	77.82	-0.2323	0.0257	0.258	1271.4698	0.157766	-419.178669	-419.168774	-419.16783	-419.213554	35.443	
C	 0.0161844264	 1.1218050751	 0.3071947394	-0.329033
N	-0.2487557823	-0.1865826923	-0.2855908224	-0.345192
C	 0.6659083805	-0.5760925866	-1.3182851431	 0.132563
C	 2.1191768787	-0.9718082864	-0.9793280249	-0.363607
C	 1.1359596331	-2.0344240739	-1.3289287236	 0.072208
O	 0.691577673	-2.8551672804	-0.3057739233	-0.240405
C	-0.4858761894	-3.5789403926	-0.6523625985	-0.252946
C	 0.440479051	 0.0529153623	-2.5981921227	 0.279604
N	 0.2822227833	 0.550620429	-3.6308124849	-0.350085
H	 1.0297129359	 1.2254289661	 0.7287604256	 0.102217
H	-0.1134470475	 1.8989990183	-0.4523906436	 0.144463
H	-0.7119761471	 1.3052837395	 1.1015233985	 0.125308
H	-0.258406356	-0.9142295231	 0.4206109829	 0.236295
H	 2.9109088948	-0.7479567739	-1.6846134812	 0.139435
H	 2.3825332075	-0.8756875642	 0.0682279247	 0.13635
H	 1.2158550325	-2.5156856045	-2.3030774645	 0.115189
H	-0.7336398444	-4.2055450871	 0.206356743	 0.137191
H	-1.3218796866	-2.9023950295	-0.8686911206	 0.136505
H	-0.3094822035	-4.219472026	-1.5270489509	 0.123938
88.2632	106.129	119.8725	162.5574	183.9648	215.0277	222.4312	275.8559	346.2079	385.9986	485.9851	503.964	579.3488	633.139	675.4069	768.0104	810.2422	874.3519	925.3227	1005.9687	1037.6213	1059.8664	1097.8733	1119.9487	1154.4284	1162.9499	1180.8484	1184.9254	1240.9566	1263.1657	1314.6695	1403.2317	1458.2166	1461.3496	1483.1586	1488.2743	1490.9918	1497.0469	1508.8949	1520.1597	2346.702	2969.2157	3005.7057	3069.2576	3075.1343	3113.842	3118.6372	3134.836	3142.0927	3238.2192	3541.1435
CNC1(CC1OC)C#N	CN[C@]1(C[C@H]1OC)C#N	
InChI=1S/C6H10N2O/c1-8-6(4-7)3-5(6)9-2/h5,8H,3H2,1-2H3	InChI=1S/C6H10N2O/c1-8-6(4-7)3-5(6)9-2/h5,8H,3H2,1-2H3/t5-,6-/m1/s1
