16
gdb 78841	2.86341	1.57839	1.219	1.4199	67.48	-0.2474	-0.0349	0.2125	1006.8209	0.123537	-437.805971	-437.798386	-437.797442	-437.838327	28.692	
O	-0.1042584644	 1.1882814346	 0.3245959627	-0.44292
C	-0.1797231063	-0.2008716038	 0.0892666713	 0.115393
C	-1.5947774387	-0.5226828398	-0.3844705719	-0.048212
C	-1.215374655	-0.3422373696	-1.8021168851	-0.035044
C	 0.2718593554	-0.6095927388	-1.3466616327	-0.14277
C	-0.1192427644	-2.0904759297	-1.417764514	-0.041678
C	 0.38844001	-3.1021057813	-0.4168418131	 0.141529
O	 1.4485804774	-3.0205366234	 0.151598034	-0.248044
N	-1.574431399	-1.7079725002	-1.315054603	-0.178674
H	 0.811918041	 1.4023801871	 0.5279507194	 0.288747
H	 0.2428337958	-0.771312992	 0.9244741148	 0.087187
H	-2.532224962	-0.3171925451	 0.1141800441	 0.108431
H	-1.6844121269	 0.1417116753	-2.6472199055	 0.107571
H	 1.1917158125	-0.2128016284	-1.7699812383	 0.083318
H	 0.0237497963	-2.5188839893	-2.419490767	 0.112846
H	-0.3001186416	-3.9620610956	-0.2521291056	 0.092321
77.1285	143.5335	206.7018	249.5077	297.8762	342.2877	439.4541	532.5299	637.7941	719.5256	787.8751	803.0366	834.8894	854.661	894.523	926.7815	968.2883	1002.799	1009.9176	1022.6916	1052.3424	1086.5299	1117.9857	1144.0186	1161.1529	1197.5403	1215.8403	1228.7836	1246.0051	1317.5958	1338.4857	1361.0916	1406.1765	1441.2605	1822.8616	2878.7796	3019.2168	3042.0446	3146.2879	3209.5565	3223.495	3817.4596
OC1C2C3C1C(C=O)N23	O[C@H]1[C@H]2[C@H]3[C@@H]1[C@@H](C=O)N23	
InChI=1S/C6H7NO2/c8-1-2-3-4-5(6(3)9)7(2)4/h1-6,9H	InChI=1S/C6H7NO2/c8-1-2-3-4-5(6(3)9)7(2)4/h1-6,9H/t2-,3+,4-,5-,6-,7?/m1/s1
