16
gdb 19868	3.75277	2.32499	2.05069	2.1536	62.38	-0.2333	0.0751	0.3084	722.4744	0.132631	-383.697972	-383.691973	-383.691029	-383.727986	23.922	
C	 0.2074205406	 1.2238652152	 0.3744789235	-0.07003
C	 1.4836352526	 1.8859566526	-0.2047066523	-0.243181
C	 2.1782563825	 0.7489634182	-0.9662550601	-0.089801
C	 3.075810638	-0.2315278083	-0.1852297596	 0.01153
O	 2.3766718744	-0.5959328486	 1.0084160822	-0.238717
C	 2.0452512396	-1.2883231963	-0.2024882729	-0.00478
C	 1.095669399	-0.3814409352	-1.0288472009	 0.087544
O	-0.088973713	 0.0883703517	-0.4500708484	-0.261114
H	 0.3734605421	 0.9050249389	 1.4076446579	 0.117548
H	-0.6666102351	 1.8819495946	 0.3411670075	 0.098333
H	 1.2184926601	 2.6888075409	-0.898428083	 0.105933
H	 2.1041299918	 2.313736906	 0.5865200637	 0.111714
H	 2.5910916006	 1.0409443805	-1.9325596311	 0.081492
H	 4.1568228798	-0.3060852125	-0.1692998038	 0.105174
H	 2.1321489385	-2.3689557539	-0.1885936502	 0.103626
H	 0.8796320986	-0.7935789437	-2.0184687025	 0.08473
142.7777	221.8267	266.9613	444.8647	592.0682	639.653	697.8618	759.5489	798.1685	834.0543	874.7297	895.6784	900.9594	910.3981	958.5355	967.2644	1004.0002	1043.4448	1067.1827	1095.987	1128.0605	1158.4585	1221.1815	1222.061	1234.0896	1252.5138	1270.1429	1296.2078	1326.3556	1350.9989	1382.4853	1400.4022	1481.1926	1519.4029	3045.2569	3059.3007	3074.7967	3086.6579	3106.0668	3115.2322	3177.5471	3194.0253
C1CC2C3OC3C2O1	C1C[C@H]2[C@H]3O[C@H]3[C@H]2O1	
InChI=1S/C6H8O2/c1-2-7-4-3(1)5-6(4)8-5/h3-6H,1-2H2	InChI=1S/C6H8O2/c1-2-7-4-3(1)5-6(4)8-5/h3-6H,1-2H2/t3-,4+,5-,6+/m1/s1
