16
gdb 106905	2.88981	1.28736	1.07309	2.3282	65.27	-0.2441	-0.0236	0.2205	1124.3636	0.122596	-474.983041	-474.974146	-474.973202	-475.017118	31.945	
O	 0.1707481203	 1.4145706391	 0.0662951272	-0.402713
C	 0.039331102	 0.0056721695	-0.0150514707	-0.172426
C	-1.4018001151	-0.4196142607	 0.0206992743	 0.292422
C	-2.0881782289	-0.9607642246	 1.2033707969	-0.286456
N	-1.7923203528	-1.913600669	 0.0812891484	-0.217438
C	-2.8260387649	-1.626027122	-0.9010592862	 0.370877
O	-3.6291959088	-2.355535793	-1.3904817385	-0.296679
C	-2.4121223924	-0.1439705574	-1.0886153501	-0.077622
O	-3.3537620199	 0.8601853066	-0.8132587601	-0.425712
H	-0.254184092	 1.7088236048	 0.8790176839	 0.28973
H	 0.49051537	-0.2801030152	-0.9709780332	 0.123297
H	 0.5953743093	-0.5147763008	 0.7794515521	 0.103394
H	-1.4914416106	-1.1795243866	 2.0834638156	 0.139797
H	-3.1226594565	-0.6976332048	 1.40222293	 0.150483
H	-1.9143792925	-0.0011219638	-2.0592062746	 0.108159
H	-4.0313132175	 0.8292764278	-1.4978836951	 0.300887
58.8721	90.3701	162.5556	194.8433	233.2832	284.5461	303.7549	363.6788	382.3912	504.5966	516.2177	647.3655	702.3547	757.5046	800.7199	861.3509	926.3812	969.7122	1004.076	1041.3952	1072.3736	1116.9762	1139.964	1146.8081	1177.8123	1184.7973	1280.0714	1312.0369	1351.4574	1396.3239	1422.783	1439.1484	1500.38	1511.856	1920.3401	2992.7604	3003.9893	3076.0665	3124.5338	3215.5287	3810.5425	3810.9778
OCC12CN1C(=O)C2O	OC[C@]12CN1C(=O)[C@H]2O	
InChI=1S/C5H7NO3/c7-2-5-1-6(5)4(9)3(5)8/h3,7-8H,1-2H2	InChI=1S/C5H7NO3/c7-2-5-1-6(5)4(9)3(5)8/h3,7-8H,1-2H2/t3-,5+,6?/m1/s1
