23
gdb 106682	2.61414	1.25111	1.06466	0.7591	87.02	-0.2374	0.093	0.3304	1291.3805	0.203793	-388.262601	-388.252573	-388.251629	-388.297151	37.752	
C	 0.2737477973	 1.3247768692	 0.2272761373	-0.255949
O	-0.1444010651	 0.0025844944	-0.0653782467	-0.285413
C	 0.4673616186	-0.5367897768	-1.1779118838	 0.421234
C	 1.8840114366	-1.049382952	-1.1432320906	-0.398492
C	 0.7447196738	-2.0059753026	-1.4494173699	 0.257921
C	 0.4802443477	-3.2266531382	-0.6149739608	-0.498991
C	 0.3400293297	-1.8064540456	-2.9295939743	-0.011725
C	-0.8636650417	-2.6103923413	-3.4053532013	-0.413754
C	 0.0225252928	-0.2993773748	-2.6235100931	-0.320326
H	 1.3569179317	 1.3724825456	 0.4072667576	 0.110224
H	 0.0247729902	 2.020296986	-0.5868065563	 0.110899
H	-0.2556976198	 1.6356216317	 1.1308968144	 0.124637
H	 2.6094798731	-0.7762034758	-1.9080262801	 0.095487
H	 2.2959645745	-1.1529694263	-0.1436313935	 0.10867
H	 0.6217436643	-3.004633754	 0.4473112877	 0.124546
H	-0.544748024	-3.5905280887	-0.7416298476	 0.118558
H	 1.1599066796	-4.0464624853	-0.8775738187	 0.115378
H	 1.1762461798	-1.947235678	-3.6258088358	 0.060784
H	-1.7154864349	-2.490079368	-2.7265120561	 0.118316
H	-1.1809517891	-2.2764795662	-4.3992235574	 0.113387
H	-0.6349699469	-3.6798079874	-3.4694229439	 0.114053
H	-1.0500497248	-0.0982614197	-2.6958603154	 0.102863
H	 0.5687397367	 0.4575674838	-3.1965552217	 0.087694
81.0099	114.0057	145.1532	184.5232	188.0362	228.7962	258.6685	280.9006	369.0955	388.85	442.4205	456.9697	512.3171	584.4793	720.0034	737.2628	813.0471	852.6513	922.0944	932.0084	955.4314	975.0595	1024.1955	1041.2123	1057.2122	1086.3026	1104.7996	1120.9395	1179.3558	1183.6207	1195.2122	1207.5075	1234.9884	1251.9273	1262.3019	1324.8314	1362.656	1391.7893	1408.3174	1419.3536	1473.8067	1480.4539	1483.9887	1488.0089	1492.2701	1499.9924	1502.5519	1506.33	1515.8347	2990.9843	3018.8159	3022.8806	3025.723	3038.3207	3044.4605	3082.8888	3090.9685	3091.6112	3094.3	3099.2542	3102.5843	3118.3959	3190.9262
COC12CC1(C)C(C)C2	CO[C@@]12C[C@]1(C)[C@@H](C)C2	
InChI=1S/C8H14O/c1-6-4-8(9-3)5-7(6,8)2/h6H,4-5H2,1-3H3	InChI=1S/C8H14O/c1-6-4-8(9-3)5-7(6,8)2/h6H,4-5H2,1-3H3/t6-,7+,8-/m0/s1
