15
gdb 129043	2.67034	1.69894	1.04599	5.2646	83.66	-0.2241	-0.0607	0.1634	1069.9704	0.115956	-412.963587	-412.956165	-412.955221	-412.99696	27.943	
N	-0.0705975688	 1.1504525617	 0.8845993915	-0.458973
C	 0.0013375203	 0.0835366214	 0.1773496379	 0.23659
C	 1.2537482544	-0.4271675194	-0.3615114796	-0.178736
C	 1.5152627119	-1.4442741883	-1.207388712	 0.035122
N	 0.6687345863	-2.3114887844	-1.8429728265	-0.24675
N	-0.6660404838	-2.4181589189	-1.8306964243	-0.199965
C	-1.4480833756	-1.7092962074	-1.0927927378	-0.033151
C	-1.2951168585	-0.653899039	-0.0669602791	 0.228704
N	-2.3033160688	-0.3180259529	 0.6466237391	-0.431755
H	 0.8601448131	 1.5644991921	 0.9847883851	 0.213488
H	 2.1334668963	 0.1136899605	-0.0248265739	 0.099045
H	 2.5493065709	-1.6416899536	-1.473608712	 0.125284
H	 1.0852280689	-2.977044753	-2.4729283188	 0.275659
H	-2.4935806257	-1.9806968828	-1.2429915266	 0.114799
H	-3.1231736811	-0.874019006	 0.386156047	 0.220639
18.7529	100.6536	339.0152	367.6397	388.0928	401.201	454.4763	500.9301	535.8286	645.6309	658.6197	736.4539	796.7663	813.065	883.5989	897.9773	926.8874	958.7549	967.733	995.8909	1029.4735	1143.6767	1202.7113	1327.6952	1345.5997	1401.424	1441.3961	1453.6211	1533.2378	1648.3921	1654.4487	1665.9453	1700.1511	3120.1719	3162.6692	3184.2108	3420.5014	3428.3852	3646.9154
N=C1C=CNN=CC1=N	[NH]C1=C[CH]N[N]C=C1[NH]	
InChI=1S/C5H6N4/c6-4-1-2-8-9-3-5(4)7/h1-3,6-8H	InChI=1S/C5H6N4/c6-4-1-2-8-9-3-5(4)7/h1-3,6-8H
