13
gdb 25404	2.80992	1.56365	1.00461	3.5929	70.59	-0.2558	-0.0967	0.1591	1069.5539	0.090107	-452.784877	-452.777565	-452.77662	-452.817144	26.378	
N	 0.1922758219	 1.4326727474	-0.1758568995	-0.525658
C	 0.0839099968	 0.1763515093	-0.2269309282	 0.345581
O	 1.1848251673	-0.6202404715	-0.6236135455	-0.212129
C	 1.0739441566	-1.9535953788	-0.6790666148	 0.153926
N	 0.0404173416	-2.6587579302	-0.4047487421	-0.28289
C	-1.0740274858	-1.9432304618	-0.009300239	-0.035949
C	-1.1095890498	-0.5904539008	 0.0931004342	 0.049651
C	-2.3487692732	 0.1056359896	 0.5261145103	 0.100284
O	-3.3701271191	-0.4807118148	 0.8046619416	-0.268685
H	 1.1235821186	 1.7469750347	-0.4447356804	 0.236489
H	 2.004827127	-2.4123456684	-1.0000336506	 0.158709
H	-1.9613851761	-2.5207036661	 0.2281358292	 0.15839
H	-2.2684502457	 1.2062969615	 0.5754053148	 0.122279
97.2846	125.8937	206.2131	230.422	351.6208	367.5274	492.7501	553.236	559.8932	640.4526	755.951	815.1577	848.8204	868.002	959.6796	968.1069	1007.1862	1056.1501	1089.8728	1154.3693	1218.8197	1284.1506	1373.2398	1411.1672	1437.6118	1580.6348	1653.4602	1765.1141	1791.3532	2982.9821	3193.0963	3202.2954	3510.0351
N=C1OC=NC=C1C=O	[NH]C1=C(CN=CO1)C=O	
InChI=1S/C5H4N2O2/c6-5-4(2-8)1-7-3-9-5/h1-3,6H	InChI=1S/C5H5N2O2/c6-5-4(2-8)1-7-3-9-5/h2-3,6H,1H2
