24
gdb 101345	3.19591	0.79025	0.73063	1.5863	86.96	-0.2217	0.0738	0.2954	1690.4197	0.215238	-405.516073	-405.50503	-405.504086	-405.55259	39.993	
C	 0.6824372398	 1.6987217576	 0.0028126451	-0.374874
C	 0.737886738	 0.1968458976	-0.2700259298	-0.117198
N	 0.9351306282	-0.5293613136	 0.9806027847	-0.089448
C	-0.255304189	-0.9450267819	 1.7141914298	-0.270184
C	 0.6345100491	-1.9593275089	 1.0757929048	 0.014264
C	 0.1670713887	-2.8179866065	-0.0883500253	 0.007594
C	 1.3498547939	-3.3035268319	-0.939062948	-0.399804
C	-0.6467488944	-3.99871068	 0.4499830162	-0.078581
O	-1.1426440492	-4.7404506199	-0.6556704969	-0.424034
H	 1.5937175182	 2.0301928974	 0.5081569739	 0.125799
H	 0.5757950928	 2.2579134027	-0.9319449406	 0.109212
H	-0.168789304	 1.9473451443	 0.645222116	 0.116764
H	-0.175167548	-0.108861838	-0.8075548487	 0.08467
H	 1.586642877	-0.028713147	-0.9264869986	 0.104087
H	-0.2462589782	-0.7810146652	 2.7889592602	 0.109741
H	-1.2237044001	-0.7776524941	 1.24037125	 0.102001
H	 1.3407875355	-2.4794557196	 1.7256770435	 0.083031
H	-0.5117734192	-2.2383232884	-0.7240827755	 0.082833
H	 1.0018071132	-3.9691052844	-1.7316895339	 0.133516
H	 1.8832078012	-2.4644567583	-1.394815047	 0.115241
H	 2.0677063705	-3.8570177515	-0.3214524337	 0.108457
H	-0.0046282925	-4.6247800342	 1.0923180046	 0.082605
H	-1.4704035826	-3.6214606361	 1.075310317	 0.087327
H	-1.5996464991	-5.5158020902	-0.3179266378	 0.286979
58.7375	78.7542	97.1263	130.6058	190.7297	222.0078	231.438	244.2343	259.3345	294.5365	344.0847	398.678	445.7864	502.1018	583.519	732.2953	811.5795	820.1039	883.421	925.304	931.3425	970.2901	976.9127	1043.6789	1063.9525	1075.5792	1103.3698	1115.1357	1138.9705	1147.6107	1166.4371	1188.9361	1200.1346	1241.9779	1266.5211	1299.3897	1310.6045	1339.0577	1355.003	1383.5489	1401.8189	1408.6293	1427.6362	1456.5658	1487.1459	1488.3268	1493.7114	1503.8079	1504.9091	1517.1034	1521.0724	2957.4076	2958.6322	2996.5984	3032.2165	3037.9319	3046.329	3050.5282	3075.5286	3082.3554	3101.1242	3106.7434	3119.569	3132.5224	3163.874	3833.6884
CCN1CC1C(C)CO	CCN1C[C@H]1[C@@H](C)CO	
InChI=1S/C7H15NO/c1-3-8-4-7(8)6(2)5-9/h6-7,9H,3-5H2,1-2H3	InChI=1S/C7H15NO/c1-3-8-4-7(8)6(2)5-9/h6-7,9H,3-5H2,1-2H3/t6-,7-,8?/m0/s1
