13
gdb 24708	3.92499	1.74115	1.21563	1.0939	67.08	-0.2303	-0.0423	0.188	923.9941	0.092796	-452.794478	-452.788347	-452.787403	-452.825352	23.162	
C	 0.051163309	 1.383103232	-0.1287006856	 0.015729
O	 1.3718251955	 1.8403149795	 0.1936958224	-0.256799
C	 2.0301363217	 0.7604167311	 0.6877542933	 0.364355
N	 3.2588948807	 0.7411741779	 1.100962373	-0.333767
C	 3.6497349426	-0.4885513623	 1.5443541246	-0.042305
C	 2.8137428992	-1.5857983624	 1.546319709	-0.042305
N	 1.5236252867	-1.5363882676	 1.1050341129	-0.333766
C	 1.1782082831	-0.3577515907	 0.6897503973	 0.364355
O	-0.0385441432	-0.0108095819	 0.1970089077	-0.256799
H	-0.6811063532	 1.9420784426	 0.463555968	 0.140152
H	-0.1278589511	 1.5175802207	-1.2007624778	 0.140143
H	 4.6700404438	-0.5657211243	 1.9030612208	 0.120503
H	 3.1595856052	-2.5482080546	 1.9066108344	 0.120503
91.5295	206.4561	317.2964	450.5945	484.3327	563.1729	603.825	653.9096	729.7907	814.3194	818.2884	855.1723	891.1019	954.9208	964.154	1049.464	1109.6213	1138.5266	1176.4702	1204.0035	1240.6807	1265.399	1396.9694	1448.2122	1461.7603	1479.786	1548.9971	1635.4093	1664.4542	3035.9167	3087.5369	3186.1915	3204.6179
C1OC2=NC=CN=C2O1	C1Oc2nccnc2O1	
InChI=1S/C5H4N2O2/c1-2-7-5-4(6-1)8-3-9-5/h1-2H,3H2	InChI=1S/C5H4N2O2/c1-2-7-5-4(6-1)8-3-9-5/h1-2H,3H2
