21
gdb 50625	3.08527	1.08269	0.85934	2.6568	84.6	-0.2407	-0.0207	0.22	1359.6635	0.183508	-387.114136	-387.105257	-387.104313	-387.148511	33.22	
O	-0.0250425712	-0.0840693731	 0.0320414578	-0.250964
C	 0.0154558802	 1.1189102928	 0.0058707773	 0.14829
C	 1.281004938	 1.9545705855	-0.0025283768	-0.055762
C	 1.3284044489	 2.7534476039	-1.3226251459	-0.200953
C	 2.6442285117	 3.5108123757	-1.5807778264	-0.259015
C	 2.8700825965	 4.7315595773	-0.7203665084	-0.049298
C	 2.8584875452	 4.7628353755	 0.6116688035	-0.049285
C	 2.6171919085	 3.5837234654	 1.5243651416	-0.259013
C	 1.3057318871	 2.8145838915	 1.2791533376	-0.200987
H	-0.9255042566	 1.721187337	-0.0149796208	 0.06767
H	 2.1201757108	 1.2480781292	 0.0212970376	 0.088671
H	 1.1745410623	 2.0492107116	-2.1497497433	 0.10659
H	 0.4908273788	 3.4619477378	-1.3535612942	 0.101736
H	 3.4823701316	 2.8086441392	-1.4587940621	 0.112512
H	 2.6613254203	 3.8109485541	-2.6334365833	 0.102572
H	 3.0711067523	 5.6588738227	-1.2519821166	 0.086942
H	 3.0506126653	 5.7141606439	 1.1025928715	 0.08694
H	 3.4570335731	 2.8769366919	 1.4500591993	 0.112507
H	 2.6161109187	 3.9329376556	 2.5619145578	 0.102566
H	 0.4680774549	 3.5234628575	 1.2621383891	 0.101742
H	 1.1371089838	 2.1499780151	 2.1356818646	 0.106539
49.0439	63.6187	183.9087	194.5451	268.8807	280.7755	323.8877	387.3818	472.8622	483.4193	546.6566	665.6858	725.7298	775.0557	839.4126	883.949	902.4242	909.1861	983.0504	995.5264	1007.8054	1038.0736	1066.0393	1086.1053	1103.6915	1132.6442	1165.2549	1211.4253	1264.2131	1277.2174	1280.6539	1305.7609	1332.7843	1366.7334	1367.5648	1378.1746	1404.4602	1424.4628	1429.1146	1479.3866	1481.5721	1485.9086	1493.3531	1728.3734	1833.9781	2835.7696	2999.5861	3001.8913	3017.5502	3019.3504	3034.2738	3059.0391	3065.549	3067.4416	3068.8299	3138.6346	3163.0363
O=CC1CCC=CCC1	O=C[C@H]1CCC=CCC1	
InChI=1S/C8H12O/c9-7-8-5-3-1-2-4-6-8/h1-2,7-8H,3-6H2	InChI=1S/C8H12O/c9-7-8-5-3-1-2-4-6-8/h1-2,7-8H,3-6H2
