13
gdb 130589	3.50004	1.67932	1.13483	1.5366	71.87	-0.2309	-0.0942	0.1367	967.504	0.093021	-415.63643	-415.63016	-415.629216	-415.667149	24.312	
O	 0.0140421678	-0.0362258475	 0.0043950197	-0.312332
C	-0.0062538019	 1.1702260131	 0.0102397565	 0.286346
C	-1.2149700538	 2.083459412	 0.0311801088	-0.198344
C	-0.8218201578	 3.3711970227	 0.0316615726	-0.212437
C	 0.658704242	 3.4316686133	 0.0114062387	 0.193151
C	 1.1363921236	 2.1376050795	-0.0011534134	 0.265858
N	 2.4796165151	 2.2103045403	-0.0194081512	-0.333072
N	 2.917735163	 3.4844956859	-0.0196690873	-0.20987
C	 1.8035331855	 4.2394918698	-0.0007764479	-0.146779
H	-2.2238182524	 1.6968017863	 0.0433775356	 0.125764
H	-1.4736291894	 4.2355463577	 0.0446635083	 0.127509
H	 3.1539959617	 1.4620690737	-0.0321593528	 0.289705
H	 1.9010964565	 5.3146616633	 0.0027882623	 0.124502
148.9347	206.4133	287.0974	376.601	533.6676	583.745	606.6038	655.3418	682.7388	688.8597	716.2085	747.7934	840.8017	886.0249	957.809	975.2606	1045.2528	1070.1718	1108.1153	1143.3626	1226.6666	1308.4785	1318.3324	1370.4472	1472.6065	1521.8178	1556.2512	1602.9379	1816.7502	3215.4394	3248.4778	3253.7139	3658.7112
O=C1C=CC2=C1NN=C2	O=C1C=Cc2c1[nH]nc2	
InChI=1S/C6H4N2O/c9-5-2-1-4-3-7-8-6(4)5/h1-3H,(H,7,8)	InChI=1S/C6H4N2O/c9-5-2-1-4-3-7-8-6(4)5/h1-3H,(H,7,8)
