16
gdb 29645	2.3972	1.68861	1.00243	3.5483	69.85	-0.1713	0.0487	0.22	1127.1771	0.123835	-471.214416	-471.205089	-471.204145	-471.248555	33.405	
C	 0.062590688	 1.433237636	-0.000162447	-0.338347
N	-0.0225872068	-0.0083667241	 0.016101959	-0.121175
C	-0.1259528536	-0.7766789353	-1.1203365139	 0.460762
N	-0.2081477343	-0.3408411805	-2.3112628747	-0.617214
O	-0.1110723678	-2.0971007475	-0.7119665033	-0.247357
C	-0.0114028507	-2.1072410272	 0.6766768055	 0.266337
O	-0.0600678915	-3.2942541943	 1.3084092555	-0.424148
C	 0.0593585966	-0.8535497532	 1.1393134982	 0.161229
N	 0.2662009849	-0.3333103911	 2.4218142875	-0.612165
H	 0.5918604268	 1.7639405512	 0.895817557	 0.143576
H	 0.6110509835	 1.7404712335	-0.8931959387	 0.163131
H	-0.9282540984	 1.9034255474	-0.030729453	 0.128914
H	-0.2617430149	-1.1104170379	-2.972457964	 0.220669
H	 0.6799818773	-3.8453717898	 1.0199744513	 0.307766
H	-0.5592283583	 0.1324395427	 2.7903551203	 0.251532
H	 0.5192380392	-1.0763841501	 3.0624742002	 0.25649
79.7723	97.3942	152.8055	189.4496	238.4493	265.8087	280.7081	322.6755	326.9853	365.6967	571.6578	602.0328	645.0507	650.4316	705.458	729.2537	735.5262	826.6828	939.3389	1021.3667	1037.3236	1148.546	1158.713	1211.2825	1237.411	1278.5889	1335.6552	1413.3651	1428.5954	1473.6895	1496.7318	1520.7166	1649.5673	1759.6485	1836.191	3023.0394	3099.8153	3145.7294	3483.2874	3545.1196	3594.0884	3733.7207
CN1C(=N)OC(O)=C1N	CN1[C@@H]([NH])OC(=C1N)O	
InChI=1S/C4H7N3O2/c1-7-2(5)3(8)9-4(7)6/h6,8H,5H2,1H3	InChI=1S/C4H8N3O2/c1-7-2(5)3(8)9-4(7)6/h4,6,8H,5H2,1H3/t4-/m1/s1
