17
gdb 37868	3.18199	2.21163	1.76251	2.2774	74.94	-0.2234	0.0012	0.2246	810.9234	0.138831	-384.602849	-384.597204	-384.59626	-384.632355	25.375	
C	-0.0623044127	 1.5578598088	-0.0594527027	-0.245573
C	 1.4349404034	 1.7956666958	 0.0487283305	-0.063414
C	 2.2115848148	 0.9902033468	-1.0017859222	-0.005456
O	 3.3007123783	 0.6655219715	-0.0058163373	-0.389461
C	 2.033696572	 0.4654736011	 0.6914038169	 0.433442
C	 1.3994359718	-0.1092954621	 1.9060844533	-0.240916
C	 0.1492395996	-0.3994424951	 1.4883029509	-0.068459
C	-0.0422619326	-0.0185250411	 0.0066234632	-0.138686
C	 1.3922605505	-0.2359219835	-0.510761941	-0.03124
H	-0.6283107691	 2.0060895977	 0.7617182167	 0.104133
H	-0.4880455389	 1.9100977164	-1.0043054722	 0.104843
H	 1.8381195155	 2.7490708475	 0.3827899147	 0.081351
H	 2.5566751998	 1.267916054	-1.9978558002	 0.090179
H	 1.7836303084	-0.1471831276	 2.9161333414	 0.116537
H	-0.6681510899	-0.7130475991	 2.127263086	 0.101902
H	-0.8785040544	-0.506667175	-0.4937772781	 0.065952
H	 1.7472869736	-1.2400566461	-0.7358885699	 0.084867
342.2491	366.5996	440.1718	461.4149	558.2962	616.8797	693.7991	711.1829	728.7584	735.7441	799.0847	839.054	852.7233	886.187	910.3704	927.9003	932.7449	976.0196	985.31	999.4384	1020.0958	1046.271	1085.4823	1112.1236	1136.7236	1177.6645	1192.4374	1199.5288	1214.4015	1239.2848	1261.2736	1288.9722	1312.106	1347.2189	1373.0798	1490.8937	1579.2142	3051.7985	3098.6641	3109.299	3114.028	3142.4654	3152.0199	3198.4243	3232.2022
C1C2C3OC22C=CC1C32	C1[C@@H]2[C@H]3O[C@]42C=C[C@@H]1[C@@H]34	
InChI=1S/C8H8O/c1-2-8-5-3-4(1)6(8)7(5)9-8/h1-2,4-7H,3H2	InChI=1S/C8H8O/c1-2-8-5-3-4(1)6(8)7(5)9-8/h1-2,4-7H,3H2/t4-,5+,6-,7+,8-/m0/s1
