25
gdb 117660	2.47646	1.01164	0.88254	1.5442	85.55	-0.2481	0.0702	0.3183	1500.6563	0.224562	-426.630743	-426.618796	-426.617852	-426.667885	43.821	
C	 0.1626634359	 1.5458070751	-0.1211455829	-0.378932
C	-0.0171770535	 0.0390330214	-0.0141235756	-0.044678
O	 0.6893082047	-0.5534597861	-1.0874919368	-0.295373
C	 0.7058191156	-1.9829364872	-1.1884320301	 0.369403
C	 1.4609203877	-2.6186410859	-0.0107230483	-0.441626
C	-0.7131919665	-2.5598035391	-1.2952849395	-0.435528
C	 1.4430350528	-2.2275767163	-2.5399313434	 0.120158
C	 2.8273274495	-1.5896794649	-2.6239837488	-0.426465
O	 1.4928624045	-3.6182947986	-2.8509967894	-0.436462
H	 1.2217828363	 1.8116339673	-0.0574051183	 0.122239
H	-0.2235197357	 1.9100232964	-1.0774739066	 0.124498
H	-0.3731711175	 2.0532297553	 0.6868765275	 0.111704
H	 0.3632155707	-0.3166247776	 0.9552803694	 0.085877
H	-1.086290206	-0.2159014056	-0.057604331	 0.09014
H	 0.8918900558	-2.5382537397	 0.9194482383	 0.117453
H	 1.6188631276	-3.6852899718	-0.1970070081	 0.111588
H	 2.431267251	-2.1389640904	 0.1429978751	 0.119083
H	-1.2914717276	-2.0026698235	-2.0393034614	 0.115171
H	-0.6574745387	-3.6027060817	-1.6138827715	 0.136467
H	-1.2461016476	-2.5196777759	-0.341010937	 0.106196
H	 0.8066080103	-1.7830867914	-3.3141042132	 0.08876
H	 3.5236584544	-2.0551385127	-1.9152922907	 0.102409
H	 3.2343382516	-1.7214424134	-3.6304942445	 0.117916
H	 2.7749441486	-0.5244862977	-2.3942322925	 0.140009
H	 2.2745171063	-3.9861659261	-2.4266716405	 0.27999
36.6605	81.0878	100.8237	142.1376	216.6078	243.5184	250.241	256.2939	274.7045	284.3933	303.407	332.2019	346.8541	372.5195	421.2358	463.0884	510.3969	598.0004	726.8607	822.9379	823.1384	905.9893	917.717	940.7449	981.7299	993.4876	1046.0128	1084.6101	1094.285	1115.2112	1143.2908	1185.3208	1193.0273	1213.3839	1275.8843	1298.6084	1300.6338	1366.3749	1388.0525	1394.3779	1398.1123	1407.6994	1413.9566	1424.2623	1480.8936	1483.2307	1491.6819	1495.431	1499.1321	1499.5422	1508.641	1511.6881	1531.7977	2983.0116	3012.6061	3030.2584	3040.7608	3042.7819	3044.2539	3047.2431	3100.8338	3108.4169	3111.9272	3117.0755	3119.9306	3122.7063	3136.1033	3145.8491	3815.5883
CCOC(C)(C)C(C)O	CCOC(C)(C)[C@@H](C)O	
InChI=1S/C7H16O2/c1-5-9-7(3,4)6(2)8/h6,8H,5H2,1-4H3	InChI=1S/C7H16O2/c1-5-9-7(3,4)6(2)8/h6,8H,5H2,1-4H3/t6-/m1/s1
