15
gdb 123811	5.51979	1.03132	0.92377	2.4681	67.22	-0.2617	-0.0062	0.2556	1230.1442	0.113154	-453.92018	-453.912753	-453.911808	-453.953335	26.955	
C	-0.3945699949	 1.0684060122	-0.1582760669	-0.279691
C	 1.0693313015	 1.0532455705	 0.2371982752	-0.290139
C	 0.3471988972	-0.2247493864	-0.0168353589	 0.128834
O	 0.1062246697	-1.0131468276	 1.1439761624	-0.255517
C	-0.8842169439	-1.8806244216	 1.0935202317	 0.534151
N	-1.2606789292	-2.6535742119	 2.0707133028	-0.367128
C	-2.2876939462	-3.3353155197	 1.4751034445	 0.058228
N	-2.5474390423	-3.0299805385	 0.2331098149	-0.133032
O	-1.581434402	-2.0246091009	-0.0377301217	-0.213571
H	-1.112373676	 1.3116901581	 0.6164516754	 0.137229
H	-0.674179753	 1.3860045652	-1.1560388238	 0.132754
H	 1.8174271773	 1.3659972154	-0.4816110528	 0.129824
H	 1.3039279096	 1.280606782	 1.2705158756	 0.141509
H	 0.5723314307	-0.8221367899	-0.8930648822	 0.127819
H	-2.8673187885	-4.0904021467	 1.9873609037	 0.148731
49.631	70.1427	154.1525	286.9739	355.6548	390.87	507.8009	640.0387	715.1221	762.7145	769.671	828.8202	852.7775	889.4147	940.8074	969.4245	975.8899	997.3865	1044.8038	1064.1986	1080.9044	1120.686	1171.5711	1191.2767	1219.0946	1238.4554	1284.2689	1355.022	1385.552	1455.9717	1496.0589	1555.1661	1648.8926	3146.0671	3148.6834	3176.9006	3230.3054	3243.4936	3254.0898
C1CC1OC1=NC=NO1	C1CC1Oc1ncno1	
InChI=1S/C5H6N2O2/c1-2-4(1)8-5-6-3-7-9-5/h3-4H,1-2H2	InChI=1S/C5H6N2O2/c1-2-4(1)8-5-6-3-7-9-5/h3-4H,1-2H2
