20
gdb 110915	2.32727	1.42704	1.09909	2.7959	79.6	-0.2377	-0.0251	0.2125	1189.9987	0.169422	-403.106798	-403.097735	-403.096791	-403.141386	33.189	
C	 0.520301551	 1.589929498	 0.3574547045	-0.379142
C	 0.0335531121	 0.1463921346	 0.2550363511	-0.113277
N	 0.7052589975	-0.5234566615	-0.8533763856	-0.06533
C	 1.9577919431	-1.2263575211	-0.7335322005	-0.042896
C	 2.0726626182	-2.0519877448	 0.5674171266	-0.292114
C	 0.7761139084	-2.8234913093	 0.1369515587	-0.105438
C	-0.3969893186	-2.9344886415	 1.0754418389	 0.141614
O	-1.5353697739	-2.6583209251	 0.7924615838	-0.246583
C	 0.6765423772	-1.9368371988	-1.1214393143	-0.060039
H	 1.592780672	 1.6273166951	 0.5767089518	 0.114791
H	 0.351356489	 2.1201772428	-0.5838179095	 0.126868
H	-0.0063666197	 2.1186420765	 1.1577368318	 0.112756
H	 0.1777911316	-0.3557039101	 1.2236552887	 0.082435
H	-1.0403324956	 0.1129711294	 0.0479051671	 0.122953
H	 2.795927438	-0.9217010225	-1.3508092484	 0.096953
H	 2.9541071146	-2.6946955362	 0.5859163042	 0.112693
H	 2.0308182783	-1.4901752178	 1.5053571842	 0.109727
H	 1.0519376057	-3.8517279876	-0.1323921874	 0.111606
H	-0.1385607865	-3.3301598052	 2.0870094011	 0.073644
H	 0.3279638076	-2.2741862247	-2.0910621268	 0.098781
52.3513	77.0112	121.0104	161.0865	217.8912	253.485	307.4997	371.4539	461.8713	516.9352	686.0159	708.9603	729.4017	805.5667	825.4456	851.1817	886.352	921.1249	963.2776	978.1344	1020.2948	1041.7148	1044.5843	1066.1348	1094.5235	1120.3565	1146.6752	1176.2593	1201.2378	1244.9398	1260.001	1284.5925	1305.4208	1326.7389	1378.1348	1396.9317	1414.4387	1418.438	1476.3634	1489.0601	1498.1481	1511.7493	1822.861	2845.1031	2989.2068	3028.318	3037.8064	3059.5	3078.105	3107.7116	3120.4547	3120.9753	3166.5601	3178.3651
CCN1C2CC(C=O)C12	CCN1[C@H]2C[C@@H](C=O)[C@@H]12	
InChI=1S/C7H11NO/c1-2-8-6-3-5(4-9)7(6)8/h4-7H,2-3H2,1H3	InChI=1S/C7H11NO/c1-2-8-6-3-5(4-9)7(6)8/h4-7H,2-3H2,1H3/t5-,6-,7+,8?/m0/s1
