17
gdb 40088	4.16851	1.26306	1.0794	2.0237	76.14	-0.2359	-0.014	0.2219	1111.1398	0.136035	-421.763552	-421.756251	-421.755307	-421.795371	28.435	
C	-0.0731704481	 1.4668833279	-0.1277968306	-0.262074
O	 1.1623551889	 0.7760347295	 0.111861625	-0.266368
C	-0.0267935416	 0.011713137	-0.0184713676	 0.337923
C	-0.4822182426	-0.9775063207	 1.089103186	-0.34456
C	-0.2005191546	-2.1451665589	 0.0656953581	 0.085758
O	-1.1637195727	-3.1141031111	-0.2940998221	-0.281255
C	-1.4918710255	-2.9012637081	-1.68088135	-0.107775
C	-1.0374834306	-1.4816393499	-1.992630126	-0.234198
C	-0.2323725831	-1.0994484928	-1.0080424902	 0.166513
H	-0.4483458232	 2.0569459607	 0.7075513374	 0.119492
H	-0.1644143735	 1.9339471712	-1.1074997803	 0.118727
H	 0.1109326932	-0.965427465	 2.0060970141	 0.11935
H	-1.5475673546	-0.8875588611	 1.3110169118	 0.121022
H	 0.7715313909	-2.6154091225	 0.2665089954	 0.090502
H	-1.0060367345	-3.6669461824	-2.3071512957	 0.1092
H	-2.5764228129	-3.0119265071	-1.8078213424	 0.116303
H	-1.4521607855	-0.8920713167	-2.8003660527	 0.11144
109.3079	140.7127	246.5065	279.96	339.5762	390.9069	466.045	515.8588	709.1716	725.4656	781.9507	800.1882	845.1444	851.0995	904.8485	922.1829	954.3111	968.9698	1014.3841	1020.6771	1081.3008	1098.7103	1120.7068	1134.0224	1146.3325	1162.4556	1193.6673	1201.0497	1234.463	1286.8814	1342.9767	1374.0436	1431.2057	1456.0097	1513.8289	1531.5482	1719.5298	2972.7586	3011.9708	3036.3853	3070.0034	3081.2284	3140.1101	3168.3161	3215.5081
C1OC11CC2OCC=C12	C1O[C@]21C[C@H]1OC[CH][C]21	
InChI=1S/C7H8O2/c1-2-8-6-3-7(4-9-7)5(1)6/h1,6H,2-4H2	InChI=1S/C7H8O2/c1-2-8-6-3-7(4-9-7)5(1)6/h1,6H,2-4H2/t6-,7+/m1/s1
