13
gdb 24833	2.7387	1.74281	1.11352	4.1279	69.97	-0.2627	-0.0762	0.1865	1001.2729	0.090724	-452.7663	-452.759129	-452.758185	-452.798738	26.134	
N	-0.0360626587	 1.3040878909	-0.5784247842	-0.467233
C	 0.0063133031	 0.1667911348	-0.0008181323	 0.171709
C	-1.237776716	-0.5131889368	 0.3400465232	-0.132439
C	-1.451294647	-1.6579848828	 0.9958985687	 0.044622
O	-0.5817602739	-2.4508415819	 1.6926689043	-0.18983
C	 0.7207741877	-2.1485620079	 1.9075521151	 0.147936
N	 1.5260222327	-1.3838206438	 1.3097844751	-0.282201
C	 1.3363314572	-0.5515350825	 0.203195597	 0.314476
O	 2.2479926117	-0.3366876544	-0.5580087608	-0.295301
H	 0.9168178024	 1.5787095436	-0.8381796268	 0.245127
H	-2.1231779536	-0.0414519747	-0.0732097542	 0.137598
H	-2.445572471	-2.077492901	 1.0854438904	 0.148757
H	 1.0662852754	-2.7421776135	 2.7520124344	 0.156778
50.9138	109.5497	307.8859	319.587	336.8792	394.3953	487.3139	518.7977	611.7078	668.9643	766.9546	801.526	857.0601	866.5319	937.1486	963.6314	976.0664	988.3203	1025.914	1159.2334	1198.2977	1315.9942	1380.5177	1432.8359	1452.4095	1664.8009	1690.869	1733.3585	1795.8255	3163.285	3192.4009	3223.8299	3430.336
N=C1C=COC=NC1=O	[NH]C1=C[CH]OC=NC1=O	
InChI=1S/C5H4N2O2/c6-4-1-2-9-3-7-5(4)8/h1-3,6H	InChI=1S/C5H4N2O2/c6-4-1-2-9-3-7-5(4)8/h1-3,6H
