15
gdb 43001	2.36483	1.68652	1.29727	3.4712	69.67	-0.2655	-0.0525	0.213	990.4147	0.113957	-416.813482	-416.806088	-416.805144	-416.845693	27.712	
O	-0.0831273202	 0.2926715147	-0.960701036	-0.298145
C	-0.068926747	 1.3002355003	-0.3136845595	 0.424275
C	-1.2313968414	 2.0574190975	 0.231715231	-0.142854
C	-1.1130865095	 2.4332272492	 1.6806148419	-0.254566
N	-0.8081556139	 3.4082287053	 0.6491974053	-0.087466
C	 0.6411018804	 3.5416662423	 0.3705367368	-0.180102
C	 1.2188699123	 2.1396101736	 0.0250253384	-0.293074
C	 1.9963312556	 1.5179187844	 1.0870589605	 0.287296
N	 2.5970345805	 1.039602901	 1.9521783456	-0.327236
H	-2.1994859203	 1.927001044	-0.2375132403	 0.129661
H	-2.0332159638	 2.61371806	 2.2274021987	 0.14491
H	-0.3067108316	 2.0015543852	 2.2684761259	 0.156738
H	 0.7472460159	 4.1974486972	-0.4969898523	 0.135076
H	 1.1393682033	 4.0111421722	 1.2206455432	 0.143532
H	 1.8302030198	 2.168395163	-0.8803029092	 0.161955
78.7104	142.7621	185.362	269.509	382.0327	407.0658	484.6462	516.8089	583.9468	682.3271	691.3628	767.0718	806.3026	875.4685	881.5551	954.6473	981.5719	1028.8768	1045.9104	1094.0848	1112.631	1153.5776	1170.9638	1188.3543	1241.7327	1272.4985	1310.5575	1324.5155	1364.0091	1494.6318	1513.1327	1860.0788	2348.9195	3071.9827	3090.8879	3116.1852	3127.7565	3190.4451	3208.4654
O=C1C2CN2CC1C#N	O=C1[C@H]2CN2C[C@H]1C#N	
InChI=1S/C6H6N2O/c7-1-4-2-8-3-5(8)6(4)9/h4-5H,2-3H2	InChI=1S/C6H6N2O/c7-1-4-2-8-3-5(8)6(4)9/h4-5H,2-3H2/t4-,5-,8?/m1/s1
