24
gdb 8237	4.31983	0.97422	0.94229	0.0731	85.73	-0.2827	0.0804	0.3631	1399.2642	0.223181	-314.273065	-314.263569	-314.262625	-314.307621	35.512	
C	-0.1914873646	 1.5031867064	-0.1297253668	-0.381451
C	 0.0585077835	-0.0075026804	-0.0174599362	 0.048338
C	 0.8030257761	-0.5227012615	-1.2569369851	-0.387657
C	 0.8234244449	-0.3836564482	 1.2665423119	-0.201548
C	 0.0756931272	-0.1273746818	 2.5690380217	 0.055509
C	-1.1959562062	-0.9661573285	 2.8955875241	-0.214757
C	-0.7320981472	-1.024671232	 4.3754695639	-0.211273
C	 0.6954364819	-0.6415926402	 3.9008403847	-0.235214
H	 0.7568325718	 2.0540653524	-0.1561350411	 0.10925
H	-0.737738937	 1.7426352252	-1.0482792045	 0.107948
H	-0.7766762546	 1.8881949776	 0.7105459638	 0.112666
H	-0.9192859229	-0.5095903862	 0.0181192834	 0.073964
H	 1.7960881569	-0.0635084398	-1.3354221771	 0.109843
H	 0.9427974591	-1.6082357711	-1.2168399793	 0.107467
H	 0.2565359113	-0.2877538515	-2.1765668234	 0.106531
H	 1.0806923151	-1.4514454702	 1.2213660262	 0.081336
H	 1.7811792096	 0.1579862837	 1.2831259246	 0.085731
H	-0.1561993475	 0.9387268879	 2.6719122342	 0.068935
H	-2.1737974779	-0.5269827373	 2.6817016309	 0.091308
H	-1.1490063515	-1.9525671399	 2.4208245618	 0.094532
H	-1.1867120719	-0.2294864238	 4.9736196485	 0.099333
H	-0.8542170385	-1.9699058593	 4.909771738	 0.093267
H	 1.3142317675	-1.5294014185	 3.730508839	 0.094724
H	 1.2669544949	 0.0665073271	 4.5066141467	 0.091218
50.1955	84.3898	123.3694	173.1823	219.7107	243.8366	306.1427	333.8349	399.4722	428.5837	447.1549	638.7575	763.7745	787.3267	819.223	863.5963	899.0917	924.4769	935.0825	950.4565	956.2715	965.1528	981.2824	1015.6249	1064.2345	1117.5693	1151.6989	1185.098	1192.2549	1203.9823	1232.9569	1256.071	1261.3858	1271.8122	1278.5239	1299.6121	1318.4146	1358.3557	1372.8372	1393.6366	1399.4696	1420.7507	1476.6165	1480.6643	1487.0336	1488.1069	1494.6026	1503.8206	1509.9564	1512.1537	2990.5546	2998.5346	3020.6146	3024.5248	3026.8097	3040.0912	3041.6097	3048.0198	3055.9198	3084.7886	3091.3322	3091.6684	3095.1412	3095.6472	3104.527	3113.6441
CC(C)CC1CCC1	CC(C)CC1CCC1	
InChI=1S/C8H16/c1-7(2)6-8-4-3-5-8/h7-8H,3-6H2,1-2H3	InChI=1S/C8H16/c1-7(2)6-8-4-3-5-8/h7-8H,3-6H2,1-2H3
