20
gdb 84151	2.45557	1.53745	1.07012	2.5556	80.94	-0.2346	0.025	0.2595	1172.9748	0.172676	-403.143609	-403.135272	-403.134328	-403.176306	32.857	
C	-0.3586773102	 1.5326587964	 0.0119893956	-0.473351
C	-0.0537303993	 0.0592451477	-0.0210656146	 0.320483
C	-0.2900270268	-0.6906102607	-1.0993544882	-0.185411
C	-0.0061888215	-2.1623115485	-1.2433984845	 0.087507
O	 0.6859689914	-2.4248000979	-2.4645472152	-0.441062
C	 0.7666817293	-2.7404210865	-0.0744878864	-0.068284
N	 2.1031164047	-2.1342023709	 0.0987911434	-0.34705
C	 1.0639067683	-1.9165980383	 1.1228822647	-0.029423
C	 0.5225584412	-0.5111028894	 1.252787521	-0.307197
H	 0.5526531519	 2.1185966359	 0.1885245199	 0.124569
H	-0.8075000834	 1.8734046067	-0.9244423924	 0.122571
H	-1.0484266132	 1.7779631436	 0.8303139711	 0.119548
H	-0.7078912964	-0.2324389762	-1.9932314228	 0.083885
H	-0.9548074979	-2.7068790733	-1.3412740178	 0.086868
H	 1.5680124102	-2.0523601161	-2.3334958472	 0.285313
H	 0.687358528	-3.8178976929	 0.0453146032	 0.085822
H	 2.7643335486	-2.8362620185	 0.4184570783	 0.232617
H	 1.1906922997	-2.4458438805	 2.0651915928	 0.083142
H	 1.3182057453	 0.1510589315	 1.6228076915	 0.109867
H	-0.2531307599	-0.5006902521	 2.0329794575	 0.109587
93.7844	149.0312	202.0668	230.3274	311.7829	355.7982	405.234	446.3542	462.9659	478.2695	497.7814	647.4015	730.7634	780.6825	829.5295	855.7826	899.0011	905.2652	938.3796	985.4464	991.0775	1032.3159	1046.8472	1067.8796	1089.6552	1137.8437	1156.0668	1187.9344	1198.0246	1243.5894	1263.9979	1280.734	1328.0791	1359.8699	1393.1111	1398.2721	1412.833	1437.2572	1463.1448	1467.5697	1479.9209	1491.4391	1743.0085	2997.5451	3014.1316	3019.9774	3024.0857	3059.2709	3114.2829	3122.049	3140.7061	3151.8644	3510.1863	3765.8071
CC1=CC(O)C2NC2C1	CC1=C[C@@H](O)[C@H]2N[C@H]2C1	
InChI=1S/C7H11NO/c1-4-2-5-7(8-5)6(9)3-4/h3,5-9H,2H2,1H3	InChI=1S/C7H11NO/c1-4-2-5-7(8-5)6(9)3-4/h3,5-9H,2H2,1H3/t5-,6+,7-/m0/s1
