19
gdb 30795	2.84641	1.18197	0.87793	1.7334	81.17	-0.2056	0.0168	0.2224	1345.9621	0.15803	-423.066604	-423.056911	-423.055967	-423.10147	34.743	
C	 0.1291897711	 1.4708233902	 0.0683769233	-0.49138
C	-0.0392008053	-0.0046290026	-0.0003691882	 0.353308
C	-1.1159317575	-0.8192031483	-0.1663781897	-0.36531
C	-0.6325583235	-2.1725009272	-0.1455786617	 0.198228
C	-1.4408698568	-3.427991667	-0.274799851	-0.515174
C	 0.7170363596	-2.0765637464	 0.0329895682	 0.194714
C	 1.8160055397	-3.0846385809	 0.1346246033	-0.173091
O	 1.772445135	-4.0709078289	-0.8932498797	-0.406941
O	 1.0891265236	-0.75895692	 0.1171051318	-0.212718
H	 0.7907963389	 1.8391444552	-0.7241845346	 0.13612
H	-0.8410658936	 1.9600712156	-0.0418912419	 0.134829
H	 0.5630442119	 1.782459641	 1.0255026037	 0.137559
H	-2.1399367636	-0.5000526439	-0.2927265008	 0.102343
H	-2.1194480696	-3.3762318866	-1.13368809	 0.123308
H	-0.7901166872	-4.2941717649	-0.4105731742	 0.145678
H	-2.0627697989	-3.5989329335	 0.6122116897	 0.126355
H	 2.7745564836	-2.5451150696	 0.1472310845	 0.10871
H	 1.752761588	-3.653639579	 1.0693439301	 0.122421
H	 1.6963183948	-3.6035216332	-1.7321254527	 0.281039
55.9081	121.265	140.6396	149.4704	188.9819	225.4959	254.132	303.8849	342.8508	393.3811	458.1278	584.1954	637.8134	644.7001	725.6105	774.8385	806.3479	947.0483	991.4197	1000.4218	1018.3509	1058.4049	1064.0542	1065.9857	1146.861	1177.3031	1199.3746	1257.7267	1281.8028	1361.9158	1405.4921	1414.3709	1421.7444	1437.2979	1472.9574	1489.7339	1495.9423	1498.583	1503.4081	1602.1145	1672.3091	3000.335	3027.0949	3029.1088	3055.1006	3075.1617	3078.3482	3129.0214	3131.0235	3242.5247	3807.2331
CC1=CC(C)=C(CO)O1	Cc1cc(C)c(CO)o1	
InChI=1S/C7H10O2/c1-5-3-6(2)9-7(5)4-8/h3,8H,4H2,1-2H3	InChI=1S/C7H10O2/c1-5-3-6(2)9-7(5)4-8/h3,8H,4H2,1-2H3
