21
gdb 33123	3.0992	1.00218	0.80567	1.8602	86.34	-0.1746	0.0573	0.2319	1478.5178	0.18359	-383.308908	-383.299101	-383.298157	-383.343717	36.607	
C	-0.0952211823	 1.5820332774	-0.0019091795	-0.377629
C	-0.0824972476	 0.052147563	-0.0410352517	-0.152881
C	 0.7832484436	-0.5129128186	-1.1843111873	-0.326074
C	 0.7832144871	-2.0116894199	-1.258308428	 0.244248
C	 1.8122145136	-2.8609447686	-0.9097401567	-0.175374
N	 1.3944065806	-4.1494916346	-1.0891563476	-0.244623
C	 0.0986584189	-4.1547938728	-1.5654405234	-0.157617
C	-0.3064975865	-2.8427686606	-1.6756514734	 0.151561
N	-1.5836291095	-2.3669903029	-2.0488751292	-0.607603
H	 0.9158322015	 1.9856045117	 0.1276747277	 0.108518
H	-0.4975784357	 2.0005482012	-0.9318711497	 0.107199
H	-0.7103358762	 1.9564146276	 0.8226023131	 0.108356
H	 0.2927961058	-0.3439461704	 0.9103499931	 0.09413
H	-1.1041311116	-0.3300731316	-0.147910968	 0.115158
H	 0.429699854	-0.083665479	-2.1349533703	 0.082769
H	 1.8138000519	-0.1543373252	-1.0674556534	 0.092075
H	 2.8057774551	-2.6384251406	-0.5531393457	 0.108728
H	 1.9479675853	-4.9686541369	-0.9186509881	 0.256548
H	-0.4197374985	-5.0764454404	-1.7750642772	 0.101109
H	-2.1171412441	-3.0659374887	-2.5513991404	 0.234249
H	-1.5205302054	-1.5399712999	-2.6317162045	 0.237154
67.8926	91.4791	113.3425	187.4831	238.9538	259.8056	271.5766	304.6713	344.9214	412.6268	434.8718	620.2459	626.282	654.368	698.3592	736.812	745.6461	769.4074	811.0956	871.3535	895.5514	908.7165	1040.1529	1067.8203	1076.4021	1107.3415	1110.622	1149.8469	1225.6941	1246.9365	1287.4007	1307.4177	1327.0159	1352.4068	1386.5866	1410.0496	1434.9248	1480.1087	1483.0164	1494.4524	1499.0629	1511.6193	1567.4165	1631.7435	1658.0841	2980.0659	3024.1438	3033.342	3037.4963	3067.21	3093.2297	3097.6818	3253.3631	3259.4764	3514.1132	3602.7376	3702.0554
CCCC1=CNC=C1N	CCCc1c[nH]cc1N	
InChI=1S/C7H12N2/c1-2-3-6-4-9-5-7(6)8/h4-5,9H,2-3,8H2,1H3	InChI=1S/C7H12N2/c1-2-3-6-4-9-5-7(6)8/h4-5,9H,2-3,8H2,1H3
