20
gdb 62042	4.03535	0.68381	0.63662	4.9934	80.98	-0.2476	0.0256	0.2732	1769.2324	0.170907	-399.299019	-399.289155	-399.288211	-399.334925	35.213	
C	 0.0829226092	 1.4989075788	-0.1961028538	-0.396816
C	-0.0178192082	-0.0238842787	 0.044168357	-0.095582
N	 0.806345176	-0.5654348823	 1.1206139386	-0.291039
C	 2.2456286925	-0.5472805044	 0.8798254072	-0.165482
C	 2.9743078866	-1.1857494983	 2.0365744892	 0.020664
C	 4.3777788398	-0.8160301995	 2.332274372	-0.246999
N	 3.2959786945	-0.3936427035	 3.2400936351	-0.314937
C	-1.4231484879	-0.3925067913	 0.2946736161	 0.278765
N	-2.5319953451	-0.6477719658	 0.4938706564	-0.316957
H	 1.1112357064	 1.775349752	-0.4420561034	 0.128463
H	-0.5619150288	 1.8053288801	-1.0243719417	 0.141663
H	-0.2249792129	 2.0482931831	 0.6984960972	 0.132994
H	 0.2846800459	-0.5410515694	-0.8764210791	 0.132216
H	 0.5814143583	-0.1144125534	 2.0018074379	 0.230859
H	 2.4359384432	-1.1205408239	-0.0380563837	 0.114929
H	 2.6645939426	 0.4631894399	 0.7135494158	 0.07676
H	 2.6410847571	-2.1948920212	 2.2666917131	 0.108689
H	 5.0589137875	-1.5556558159	 2.7423254459	 0.125844
H	 4.8515748441	-0.0661670077	 1.7031858145	 0.111189
H	 3.0850425092	 0.5887867214	 3.0729866155	 0.224778
46.9554	64.0018	97.352	154.7873	194.2066	219.4254	256.341	317.8035	369.5758	410.7045	454.3104	564.423	591.194	725.9502	787.3702	828.4956	846.5625	914.4411	937.772	951.1482	999.5393	1044.169	1069.1705	1092.8643	1125.0393	1131.1177	1157.9856	1171.2603	1213.3426	1258.1622	1273.921	1304.4287	1324.479	1327.6953	1377.4034	1403.5609	1439.9259	1486.1222	1490.5116	1501.3013	1506.2308	1512.9511	2362.7423	2919.0817	3025.2865	3026.8636	3045.7019	3108.3374	3122.8394	3127.251	3143.2824	3194.4087	3476.7676	3522.8005
CC(NCC1CN1)C#N	C[C@@H](NC[C@H]1CN1)C#N	
InChI=1S/C6H11N3/c1-5(2-7)8-3-6-4-9-6/h5-6,8-9H,3-4H2,1H3	InChI=1S/C6H11N3/c1-5(2-7)8-3-6-4-9-6/h5-6,8-9H,3-4H2,1H3/t5-,6+/m1/s1
