18
gdb 46213	3.00452	1.55263	1.22617	3.4697	76.82	-0.2346	0.0344	0.269	1045.6369	0.148795	-401.936696	-401.928725	-401.927781	-401.969801	29.972	
O	 0.0539136096	-0.0215639586	 0.0246625103	-0.384674
C	 0.0608909834	 1.1826542488	 0.0317305053	 0.402324
N	-0.9432462714	 2.1275946517	 0.057365325	-0.349059
C	-0.05791996	 3.2985550634	 0.047090235	-0.252541
C	 1.1089043566	 2.2915578561	 0.0176096024	 0.202493
C	 2.4084920203	 2.4180424886	 0.7575626707	-0.133387
C	 3.1500804877	 1.0725753001	 0.7529493092	-0.229454
C	 3.1190316822	 1.0822392401	-0.8130044331	-0.229455
C	 2.3781582436	 2.4274787953	-0.7716277366	-0.133414
H	-1.9475065876	 2.0431009586	 0.077415009	 0.250506
H	-0.1598990519	 3.9290282629	-0.8429183223	 0.11415
H	-0.1242371975	 3.9178351747	 0.9482607458	 0.114149
H	 2.5682651771	 3.2377110516	 1.4492298704	 0.087477
H	 4.1651328132	 1.1532394128	 1.1472366133	 0.101896
H	 2.6370102659	 0.2433675595	 1.2443551516	 0.124811
H	 4.1176799001	 1.1680419153	-1.2461801758	 0.1019
H	 2.5867160781	 0.2590191483	-1.2938947022	 0.124801
H	 2.5106213007	 3.2556337512	-1.4589422579	 0.087477
46.458	143.183	149.607	190.7595	298.9656	366.1731	428.9474	458.7641	657.9915	685.2502	772.6338	794.8101	805.6786	845.2871	854.2462	911.8471	967.7034	973.5311	985.0486	987.6633	1014.636	1063.6971	1080.9551	1113.1665	1152.082	1153.5775	1190.7818	1219.7912	1225.7043	1249.2543	1263.6635	1287.9915	1303.4505	1381.9746	1442.6138	1476.3112	1498.0488	1526.9683	1876.4035	3030.1422	3068.1489	3074.3338	3074.6489	3116.1443	3132.3233	3166.2009	3177.509	3628.5562
O=C1NCC11C2CCC12	O=C1NC[C@]21[C@H]1CC[C@@H]21	
InChI=1S/C7H9NO/c9-6-7(3-8-6)4-1-2-5(4)7/h4-5H,1-3H2,(H,8,9)	InChI=1S/C7H9NO/c9-6-7(3-8-6)4-1-2-5(4)7/h4-5H,1-3H2,(H,8,9)/t4-,5+,7-
