18
gdb 16414	3.50539	2.21091	1.80341	1.6386	71.54	-0.2337	0.0055	0.2392	809.5833	0.155768	-347.791951	-347.7853	-347.784356	-347.822325	27.05	
C	-0.0638686491	 1.5515517773	 0.0308714395	-0.399856
C	 0.0126485757	 0.0170389118	 0.0101904859	-0.020361
C	 0.7466671655	-0.4908076648	-1.2199137037	-0.070337
C	 1.8571135222	-1.2118332905	-1.0649598579	-0.064325
C	 2.2810704149	-1.4752660327	 0.3654630302	 0.046653
C	 1.0701021799	-2.0271893338	 1.1570371419	-0.251964
C	 0.7459191984	-0.5214869505	 1.2561759312	 0.087201
O	 2.1668337168	-0.2248661084	 1.118436136	-0.295624
H	 0.9416142748	 1.9710240191	 0.1249499372	 0.138448
H	-0.5137084201	 1.9392522345	-0.8886954106	 0.110157
H	-0.6668947303	 1.9030026806	 0.8752034165	 0.108999
H	-1.0118535478	-0.3845957048	 0.0091630716	 0.077332
H	 0.3547257408	-0.2268173837	-2.1986872516	 0.091157
H	 2.4301445716	-1.6096684486	-1.8957290373	 0.09073
H	 3.2649166397	-1.9352727679	 0.4739585865	 0.07486
H	 0.3745788451	-2.6906507261	 0.6399274473	 0.099797
H	 1.3590584531	-2.4371047843	 2.1264028918	 0.10638
H	 0.3303425889	-0.1260243271	 2.1881894853	 0.070752
155.4716	227.6351	267.8347	373.0317	392.1005	457.9901	538.0563	602.3367	720.1302	729.1927	778.8366	856.2922	885.7942	907.9204	919.4285	950.7651	964.1496	977.8262	1018.8437	1034.3687	1076.89	1094.3834	1121.1727	1138.3469	1166.6846	1209.2519	1250.232	1297.5336	1303.3762	1320.2962	1342.3827	1361.291	1389.8669	1408.4938	1486.1816	1492.8565	1506.1174	1692.4649	2993.2785	3032.3746	3059.9554	3073.5625	3097.0718	3098.5895	3120.1543	3136.7556	3157.0123	3189.537
CC1C=CC2CC1O2	C[C@H]1C=C[C@@H]2C[C@H]1O2	
InChI=1S/C7H10O/c1-5-2-3-6-4-7(5)8-6/h2-3,5-7H,4H2,1H3	InChI=1S/C7H10O/c1-5-2-3-6-4-7(5)8-6/h2-3,5-7H,4H2,1H3/t5-,6+,7+/m0/s1
