18
gdb 19706	5.42651	1.72527	1.58055	1.5932	71.06	-0.2334	0.1003	0.3336	860.7888	0.155877	-347.760463	-347.754107	-347.753163	-347.790568	25.998	
C	-0.171183986	 1.5768511918	-0.0046719192	-0.424834
C	 0.0115521508	 0.0665676039	 0.0215313894	 0.022549
C	 1.2284282262	-0.5960101323	-0.675706659	-0.101091
C	 2.1573470302	-0.1807656601	 0.5198478584	-0.060168
C	 3.1300352061	-1.3334821454	 0.7343278713	-0.108621
O	 2.2666096193	-2.4635658738	 0.5203228023	-0.28555
C	 1.0301751727	-1.8412005637	 0.2384524061	 0.154947
C	 0.797107552	-0.6162711058	 1.1715784366	-0.101125
H	 0.7524445806	 2.1183111052	 0.2181001553	 0.114745
H	-0.5196576221	 1.9070949321	-0.9895264311	 0.116413
H	-0.9230103315	 1.8881068197	 0.7290159664	 0.116405
H	-0.9419066397	-0.4271153043	-0.2065021997	 0.062591
H	 1.4874845844	-0.592125616	-1.7359941723	 0.067552
H	 2.5304268325	 0.8369114264	 0.6181143375	 0.072836
H	 3.9551754155	-1.3479363855	 0.0109986046	 0.100892
H	 3.5496324331	-1.3669826394	 1.7477810851	 0.100891
H	 0.2524284795	-2.5800639033	 0.0487493571	 0.084012
H	 0.5598943064	-0.6357288095	 2.2367934815	 0.067558
209.0009	240.5826	248.4862	305.8441	457.2684	495.7134	666.2108	734.1612	748.43	790.096	816.7212	890.8359	909.8407	963.7525	965.5291	976.8584	980.9481	1019.9355	1037.6708	1075.1768	1085.8074	1120.7005	1128.4755	1136.6431	1154.6305	1166.0024	1212.8275	1218.0777	1256.378	1270.4341	1283.0684	1320.2153	1382.3457	1414.5488	1426.4905	1496.8666	1502.7118	1521.9891	3015.1336	3018.7916	3033.5322	3052.1979	3090.0902	3095.2194	3097.6301	3111.376	3135.1903	3141.4601
CC1C2C3COC2C13	C[C@H]1[C@H]2[C@@H]3CO[C@H]2[C@H]13	
InChI=1S/C7H10O/c1-3-5-4-2-8-7(5)6(3)4/h3-7H,2H2,1H3	InChI=1S/C7H10O/c1-3-5-4-2-8-7(5)6(3)4/h3-7H,2H2,1H3/t3-,4-,5-,6+,7+
