14
gdb 10797	4.96959	1.58476	1.24703	1.0247	58.02	-0.247	-0.0351	0.2119	900.8022	0.109304	-415.920465	-415.91347	-415.912525	-415.952118	25.687	
O	-0.0105234079	 0.1494113318	-0.7676049065	-0.291994
C	-0.0152715719	 1.1634754067	-0.1197293032	 0.404402
C	-1.2918781019	 1.7616518459	 0.4637368387	-0.268278
N	-1.123401164	 3.1774424377	 0.7485936355	-0.342968
C	-0.0269031448	 3.6367584776	 1.4596324897	 0.41343
O	-0.0317130418	 4.6607356595	 2.1134067186	-0.396573
N	 1.0756602103	 2.8057918231	 1.3468792203	-0.342968
C	 1.2548691077	 1.9527714303	 0.1831687205	-0.268273
H	-2.1005310661	 1.6148812108	-0.2562149467	 0.148147
H	-1.5402373638	 1.1700203305	 1.3613118012	 0.140774
H	-1.9582184854	 3.7047396689	 0.9567743451	 0.257682
H	 1.9060263132	 3.2221064433	 1.7411859498	 0.257678
H	 2.0673697177	 1.2431478554	 0.3566018762	 0.148153
H	 1.5036816287	 2.5196663087	-0.7301035793	 0.140788
62.5217	167.5676	184.4841	382.8788	421.3652	434.7209	512.0911	552.615	584.682	640.6522	730.7256	775.8457	786.7053	856.8369	979.3927	1033.8632	1063.9109	1148.91	1209.6669	1228.1875	1248.662	1289.5161	1345.7059	1412.5938	1445.6999	1450.0534	1477.333	1502.3207	1822.3591	1843.9656	2966.91	2967.2546	3101.0567	3102.2192	3621.9141	3623.7606
O=C1CNC(=O)NC1	O=C1CNC(=O)NC1	
InChI=1S/C4H6N2O2/c7-3-1-5-4(8)6-2-3/h1-2H2,(H2,5,6,8)	InChI=1S/C4H6N2O2/c7-3-1-5-4(8)6-2-3/h1-2H2,(H2,5,6,8)
