20
gdb 101864	4.20057	0.62164	0.57689	2.5023	77.	-0.2707	0.0282	0.2989	1893.1252	0.168743	-440.291845	-440.281195	-440.280251	-440.329166	36.795	
C	 0.096780476	 1.5133255527	-0.1086120291	-0.400696
C	 0.1034437525	-0.0104910375	 0.0099494418	 0.114056
C	 0.6777174192	-0.4905508617	 1.3449469804	-0.06248
O	-0.0836541661	-0.0269493766	 2.4427427212	-0.418635
O	-1.2167412562	-0.5655421778	-0.0258316753	-0.278566
C	-1.8705973978	-0.5247518012	-1.2703849529	-0.05809
C	-3.134004226	-1.3850959911	-1.1285003276	-0.338715
C	-3.916675861	-1.4162460801	-2.3596731905	 0.247779
N	-4.5217437071	-1.4292747337	-3.3437547117	-0.299369
H	 1.1242317924	 1.8904832871	-0.1008286147	 0.122671
H	-0.3701540284	 1.8497419995	-1.0380612939	 0.118077
H	-0.4361321665	 1.9506703892	 0.738891705	 0.138069
H	 0.6975105903	-0.4498178546	-0.8082393045	 0.070719
H	 0.7319432509	-1.589746647	 1.3295043712	 0.091732
H	 1.6930810136	-0.1022153722	 1.473209059	 0.110316
H	-0.9917714147	-0.3012121351	 2.27002986	 0.289314
H	-2.1510160634	 0.4981716995	-1.5569211119	 0.118459
H	-1.2276831175	-0.9299821904	-2.0665292127	 0.11219
H	-2.8501334355	-2.4052514592	-0.8504671618	 0.161657
H	-3.7522386147	-0.9885802997	-0.3161687519	 0.161511
34.7831	57.2768	81.5919	119.0862	138.396	211.627	215.5324	289.9086	318.731	381.4365	399.7807	429.4731	464.9571	543.5438	669.2599	795.2846	818.9593	910.883	921.6334	967.8696	1008.6196	1057.389	1087.4448	1097.3657	1123.9918	1140.1602	1164.6039	1225.8532	1243.4706	1302.363	1304.3155	1344.0699	1363.9227	1386.4914	1412.7013	1427.7078	1435.3819	1471.0597	1489.1317	1495.3792	1500.5007	1528.052	2366.9971	2970.6214	2989.5148	2993.6756	3029.8181	3048.3978	3056.2817	3083.2618	3100.0199	3114.2718	3136.0706	3800.521
CC(CO)OCCC#N	C[C@@H](CO)OCCC#N	
InChI=1S/C6H11NO2/c1-6(5-8)9-4-2-3-7/h6,8H,2,4-5H2,1H3	InChI=1S/C6H11NO2/c1-6(5-8)9-4-2-3-7/h6,8H,2,4-5H2,1H3/t6-/m0/s1
