21
gdb 41459	3.15327	1.59074	1.25381	0.4552	89.22	-0.2158	0.0244	0.2402	1071.9715	0.184888	-349.928076	-349.920613	-349.919668	-349.959803	30.684	
C	 0.0491267772	 1.5663633331	 0.3449416838	-0.214444
C	 1.4991198631	 1.6043621551	-0.222203067	-0.297197
C	 1.356856467	 0.1417593708	-0.7531904049	 0.335176
C	 1.885455664	-0.2805533793	-2.1305127032	-0.344277
C	 3.0465476754	-1.2757627832	-1.7899221053	-0.2425
C	 2.6662752384	-1.8004024138	-0.4066478689	-0.244952
C	 1.7937839419	-0.9676127033	 0.1518113905	 0.291751
C	 0.5856749472	-0.8827837415	 1.0633214366	-0.349372
C	-0.0649626611	 0.0689311089	-0.0090942863	-0.089585
H	-0.0762488116	 1.8188933893	 1.4020611945	 0.093503
H	-0.6368218617	 2.1880042737	-0.2370574135	 0.09911
H	 1.6377786668	 2.3391742933	-1.019782023	 0.099718
H	 2.2955687541	 1.7512257638	 0.5135255223	 0.097775
H	 1.1095569119	-0.8138513312	-2.6916894504	 0.102845
H	 2.213833276	 0.5617518618	-2.7475075278	 0.090069
H	 3.1192876817	-2.0848727579	-2.5250416075	 0.099198
H	 4.0240486126	-0.7729224369	-1.7905651371	 0.102668
H	 3.0083341097	-2.7543440002	-0.0210917694	 0.08722
H	 0.0771080753	-1.8327765989	 1.2483502088	 0.112106
H	 0.7439043481	-0.3880543727	 2.0276046405	 0.105924
H	-0.9778912159	-0.299905291	-0.4791873427	 0.065264
95.1975	165.7141	241.1025	279.9059	353.0903	437.982	464.2424	629.1826	644.9959	688.687	743.7631	800.9178	803.7619	809.2486	856.9919	874.9911	894.1723	909.7976	948.792	960.6155	990.1819	1002.9108	1053.2345	1065.7154	1076.9109	1115.4622	1138.0574	1177.975	1194.0142	1206.9452	1222.3572	1229.2093	1242.214	1263.8733	1281.2673	1292.06	1294.4566	1319.4539	1340.2449	1469.7564	1476.3552	1478.7554	1495.8991	1497.117	1728.0344	3005.6219	3034.9432	3041.8626	3045.3994	3052.3999	3059.4583	3083.8147	3086.5216	3089.6625	3100.3447	3109.0349	3191.8371
C1CC23CCC=C2CC13	C1C[C@@]23CC[CH][C]2C[C@@H]13	
InChI=1S/C9H12/c1-2-7-6-8-3-5-9(7,8)4-1/h2,8H,1,3-6H2	InChI=1S/C9H12/c1-2-7-6-8-3-5-9(7,8)4-1/h2,8H,1,3-6H2/t8-,9+/m1/s1
