18
gdb 52721	3.03614	0.68509	0.5783	4.8432	83.49	-0.2587	0.0031	0.2617	1891.2894	0.143825	-401.922343	-401.911442	-401.910498	-401.961236	36.108	
C	-0.0049929024	 1.4643453552	-0.0427617754	-0.500551
C	 0.0071394043	 0.0093454772	-0.0400240483	 0.123348
C	 0.030381328	-1.1936068612	-0.0454509695	 0.045582
C	 0.0223453719	-2.6522346699	-0.0326329999	-0.044203
C	-1.4067819435	-3.2114187495	-0.0972780989	-0.396848
O	 0.8169599159	-3.0977588355	-1.144300068	-0.247801
C	 1.2677671039	-4.4236890706	-1.0217020515	-0.189487
C	 2.2177887624	-4.702695304	-2.1031668125	 0.270462
N	 2.9673374462	-4.9573255933	-2.9434142751	-0.293668
H	 0.5529901772	 1.8562143085	-0.8999506598	 0.158867
H	-1.026485422	 1.8548331642	-0.103768316	 0.151501
H	 0.4547710358	 1.8679333066	 0.8657898245	 0.152026
H	 0.502267648	-3.0031247237	 0.8969357631	 0.096919
H	-1.8840447341	-2.9007993403	-1.0296315749	 0.142404
H	-1.409518087	-4.3040794898	-0.0422558034	 0.116626
H	-1.9935127487	-2.8295175198	 0.7421811287	 0.134481
H	 1.7778606348	-4.5908735197	-0.0584154851	 0.138885
H	 0.4505712894	-5.1583830945	-1.0879040578	 0.141458
20.6282	32.6097	61.0649	90.1059	140.7123	167.7843	238.4987	281.3213	311.0445	350.7273	378.8151	395.6605	465.9468	535.1864	602.1189	754.6384	878.9832	953.1522	1014.8379	1032.9644	1050.8248	1053.0574	1070.1368	1105.7836	1125.6944	1193.7927	1251.9405	1343.4153	1357.2663	1400.6265	1413.736	1424.2482	1475.7325	1477.4589	1487.5196	1490.2033	1500.661	2373.8528	2378.5195	2954.0501	2972.013	3003.5634	3030.4019	3047.3521	3092.5168	3094.4743	3119.1502	3137.0706
CC#CC(C)OCC#N	CC#C[C@@H](C)OCC#N	
InChI=1S/C7H9NO/c1-3-4-7(2)9-6-5-8/h7H,6H2,1-2H3	InChI=1S/C7H9NO/c1-3-4-7(2)9-6-5-8/h7H,6H2,1-2H3/t7-/m1/s1
