17
gdb 31988	5.44402	0.89351	0.80975	2.3622	72.39	-0.1937	0.0538	0.2475	1422.456	0.135727	-455.15995	-455.150721	-455.149777	-455.194946	32.059	
C	 0.2539542998	 1.1232539604	 0.454753041	-0.248133
O	-0.2544711658	 0.3132195376	-0.608382053	-0.272513
C	-1.298841395	-0.4763026458	-0.2740403901	 0.349764
C	-1.3973563731	-1.7281266197	 0.2524511294	-0.211057
N	-2.7325962844	-2.1062739221	 0.3566818988	-0.36347
C	-3.406780291	-1.0901047798	-0.1057867215	 0.494483
N	-2.612504983	-0.055553281	-0.4975183061	-0.406302
O	-4.7348446741	-0.9656887815	-0.2301844706	-0.273134
C	-5.4795377423	-2.1085119412	 0.1942030964	-0.23434
H	 1.1041167097	 1.6736038648	 0.0468954115	 0.133263
H	-0.5029119276	 1.8335680178	 0.8110896303	 0.116195
H	 0.5837717022	 0.5027041367	 1.2954292627	 0.128661
H	-0.5982674979	-2.3838225206	 0.5594787148	 0.109392
H	-2.9040937015	 0.7958527909	-0.9467307298	 0.269242
H	-5.2004831253	-2.991095916	-0.3887530165	 0.140194
H	-5.298090296	-2.3179638935	 1.2524374033	 0.139538
H	-6.5275911548	-1.8567829369	 0.0288461895	 0.128217
40.4951	82.3698	143.3713	149.0235	170.3403	221.5158	290.3898	367.584	443.0815	450.9034	531.2999	639.7353	689.8888	728.3307	739.6895	819.5393	970.2486	1020.7592	1050.5402	1079.3246	1167.3068	1173.2205	1184.0713	1198.4687	1217.4705	1234.0098	1283.8094	1367.9123	1458.6789	1471.1157	1477.0598	1485.9635	1494.1129	1502.3603	1508.3057	1618.3174	1642.8392	3012.3074	3042.1847	3080.7545	3112.5832	3133.3989	3151.4232	3259.0641	3672.2237
COC1=CN=C(N1)OC	COc1cnc([nH]1)OC	
InChI=1S/C5H8N2O2/c1-8-4-3-6-5(7-4)9-2/h3H,1-2H3,(H,6,7)	InChI=1S/C5H8N2O2/c1-8-4-3-6-5(7-4)9-2/h3H,1-2H3,(H,6,7)
