17
gdb 25913	4.16851	1.0804	0.86746	3.0187	78.45	-0.2151	-0.0072	0.2078	1305.5005	0.137083	-418.088835	-418.080275	-418.079331	-418.122242	32.033	
C	 0.0538893143	 1.5195048982	 0.0027958388	-0.496348
C	 0.0010306044	 0.0223605924	 0.0178413072	 0.23888
C	-0.0453774621	-0.8055050135	-1.0694953061	-0.148016
N	-0.0768366666	-2.1210026614	-0.6286527696	-0.090343
C	-0.0584176459	-2.1208345899	 0.7601867078	-0.082338
C	-0.0131760376	-0.8228845721	 1.1802753079	-0.257592
C	-0.1124265189	-3.2188817966	-1.5136432166	 0.478769
N	 0.0935133114	-4.4369030723	-0.9106270121	-0.564506
O	-0.3378909884	-3.0792504269	-2.6940984845	-0.367376
H	 0.9600576262	 1.8969025915	 0.490957428	 0.1261
H	 0.0432315815	 1.9039963066	-1.0207302482	 0.125526
H	-0.800107108	 1.95846162	 0.5317403467	 0.12738
H	-0.0533463131	-0.6052421864	-2.1273241928	 0.147992
H	-0.1444823386	-3.0364497726	 1.320711603	 0.127454
H	-0.002210521	-0.4950931597	 2.2095693101	 0.101127
H	 0.6686551283	-4.4853675663	-0.0854180524	 0.263043
H	 0.2052116543	-5.1941980009	-1.566406137	 0.270248
79.3423	109.885	136.9456	187.5557	277.6342	336.1164	412.6618	430.8108	524.0144	541.6989	613.7524	628.6509	635.5292	696.9196	708.8556	772.9953	809.2902	834.1737	971.3546	985.8485	1013.5077	1064.6815	1099.3097	1110.595	1134.8576	1264.3205	1298.0949	1349.7409	1386.922	1418.3467	1437.2073	1483.1888	1498.8686	1525.419	1618.902	1632.022	1821.4248	3026.1691	3074.5321	3110.7159	3238.3453	3277.1996	3288.7882	3593.6377	3711.6707
CC1=CN(C=C1)C(N)=O	Cc1cn(cc1)C(=O)N	
InChI=1S/C6H8N2O/c1-5-2-3-8(4-5)6(7)9/h2-4H,1H3,(H2,7,9)	InChI=1S/C6H8N2O/c1-5-2-3-8(4-5)6(7)9/h2-4H,1H3,(H2,7,9)
