19
gdb 94086	4.45077	0.93849	0.82147	2.4253	73.47	-0.2551	-0.0363	0.2189	1387.8083	0.158604	-460.177472	-460.168677	-460.167733	-460.211527	32.281	
C	-0.0096448036	 1.4933957492	 0.0098993518	-0.410554
C	 0.0484455888	-0.0171489373	 0.0015151149	 0.218968
O	 0.7131210801	-0.4313535597	-1.1706838229	-0.243127
C	 0.8112976409	-1.8395180862	-1.2603997942	-0.104544
C	 1.531371742	-2.4222863179	-0.0248831748	-0.096635
C	 0.8347883648	-1.852498486	 1.2297916664	-0.104615
O	 0.7349395767	-0.4434657878	 1.156649165	-0.243141
C	 1.469438617	-3.931527017	-0.0329513675	 0.145803
O	 2.4259965747	-4.6624228361	-0.051396764	-0.240175
H	 1.0057582449	 1.8965373852	 0.0024041356	 0.139158
H	-0.5422505095	 1.85018545	-0.8742445356	 0.129089
H	-0.5254358291	 1.8409447544	 0.9075884791	 0.129086
H	-0.9660637497	-0.4646140795	 0.0086858785	 0.053922
H	-0.1945580846	-2.2864672644	-1.3495830629	 0.092331
H	 1.3637909283	-2.0581535565	-2.177312327	 0.128495
H	 2.5803868602	-2.1158008344	-0.0334858484	 0.111031
H	-0.169225527	-2.3005371998	 1.333214136	 0.092319
H	 1.4042708162	-2.0804221972	 2.1339778482	 0.128384
H	 0.4337054388	-4.3484835691	-0.0207460082	 0.074205
51.5213	85.6714	200.0261	233.4649	255.7865	261.9405	334.68	345.9013	393.0836	503.0226	549.357	573.0951	669.1925	839.1292	877.4439	904.2012	906.1737	961.8014	1048.7872	1062.1651	1085.6165	1119.3551	1125.0923	1131.7522	1177.2726	1190.98	1253.7317	1264.3871	1317.0761	1346.2802	1376.191	1390.6738	1413.2023	1419.2382	1430.4593	1435.926	1481.6451	1486.4614	1496.8956	1501.4521	1830.778	2841.6032	2900.4591	2950.4289	2959.0324	3060.4024	3087.4257	3098.3802	3103.6313	3142.8161	3144.0059
CC1OCC(CO1)C=O	C[C@H]1OC[C@@H](CO1)C=O	
InChI=1S/C6H10O3/c1-5-8-3-6(2-7)4-9-5/h2,5-6H,3-4H2,1H3	InChI=1S/C6H10O3/c1-5-8-3-6(2-7)4-9-5/h2,5-6H,3-4H2,1H3/t5-,6-
