19
gdb 56659	2.96047	1.17209	1.00167	5.4973	76.36	-0.2607	0.0221	0.2828	1240.7052	0.157395	-419.188423	-419.178737	-419.177793	-419.222828	35.506	
C	 0.1244021078	 1.9615843255	 0.6383265822	-0.324989
N	-0.2815192451	 0.5649780294	 0.5611343852	-0.145256
C	 0.395187069	-0.3289904387	-0.3809260101	-0.27835
C	 0.5660851021	-0.5048802638	 1.0885518721	 0.286704
C	 1.8963096611	-0.2425981328	 1.7570044404	-0.48682
C	-0.3006260927	-1.5779199005	 1.7911075385	-0.042576
O	-1.6210813676	-1.5665258372	 1.320563578	-0.430922
C	 0.2870293966	-2.9145114077	 1.5817418155	 0.287234
N	 0.787337007	-3.9447753369	 1.4315344581	-0.326957
H	 1.1876628379	 2.1292721604	 0.4186490061	 0.113213
H	-0.4654249436	 2.534513004	-0.0830958628	 0.13827
H	-0.0901200724	 2.3496209493	 1.6385165541	 0.133494
H	-0.2506458664	-0.9937239607	-0.9471407552	 0.139807
H	 1.2464707233	 0.0711387326	-0.9289578	 0.118633
H	 2.5055204275	 0.4679015702	 1.1953379363	 0.129913
H	 1.7596725347	 0.1477264689	 2.771876537	 0.129428
H	 2.4627312585	-1.176141064	 1.8319709708	 0.155878
H	-0.2653384207	-1.3790176028	 2.8768159009	 0.108752
H	-1.7454463069	-0.6445591052	 1.0207189529	 0.294545
64.1544	121.9287	171.0768	178.7962	203.0894	238.5183	275.0027	293.8063	361.966	422.765	456.9776	474.2222	565.9966	611.6282	651.9777	727.2053	791.7531	887.2969	933.6783	950.9928	987.72	1059.4562	1095.8939	1128.1445	1132.2663	1153.3979	1181.1246	1219.0614	1251.9033	1293.5182	1349.5202	1396.6852	1418.5647	1445.0474	1457.0476	1485.0193	1488.5645	1498.6976	1508.0784	1511.9608	2362.3881	2948.6861	3004.6124	3039.2421	3082.8959	3101.3128	3102.8345	3113.2224	3132.2991	3194.6867	3561.6503
CN1CC1(C)C(O)C#N	CN1C[C@]1(C)[C@@H](O)C#N	
InChI=1S/C6H10N2O/c1-6(4-8(6)2)5(9)3-7/h5,9H,4H2,1-2H3	InChI=1S/C6H10N2O/c1-6(4-8(6)2)5(9)3-7/h5,9H,4H2,1-2H3/t5-,6+,8?/m0/s1
