14
gdb 27343	3.3784	1.42088	1.00021	4.0015	69.34	-0.2027	-0.0066	0.1961	1083.8779	0.103708	-470.063883	-470.056607	-470.055663	-470.095414	28.605	
O	-0.0735667801	 1.3068921118	 0.0099848118	-0.410979
C	 0.0268237552	-0.0330681616	 0.0025920985	 0.503402
N	 1.1843530017	-0.611095203	-0.0068632455	-0.440664
C	 1.2231632413	-1.9970159798	-0.0141528595	 0.275422
N	 2.2798446195	-2.7300835666	-0.0237738907	-0.591762
C	-0.0522584391	-2.7351590617	-0.0107213387	 0.329449
O	 0.0457749822	-4.0724040811	-0.018091454	-0.431997
C	-1.2155035105	-2.0595577137	-0.0007294457	-0.135053
N	-1.1663902099	-0.6609180741	 0.0061185526	-0.352536
H	 0.8353512847	 1.6377461712	 0.0065517724	 0.315489
H	 3.1263146782	-2.1643815069	-0.0256245438	 0.21879
H	 1.0173049851	-4.2209818705	-0.024351899	 0.305187
H	-2.1933904368	-2.5169005727	 0.0024491934	 0.13795
H	-2.0094835315	-0.1113223412	 0.0136301881	 0.277302
126.3389	205.386	325.6731	341.8578	368.4062	405.9271	464.7948	483.6165	522.6594	535.2097	617.1118	683.3469	734.4048	769.7575	788.4728	810.5569	817.8325	846.2413	987.5255	1097.577	1179.7794	1235.5469	1257.0727	1305.2655	1377.7317	1388.5048	1485.7416	1598.7148	1659.3334	1674.7968	1740.599	3248.198	3486.3092	3510.2112	3660.351	3781.6255
OC1=NC(=N)C(O)=CN1	O[C@H]1N=C([NH])C(=CN1)O	
InChI=1S/C4H5N3O2/c5-3-2(8)1-6-4(9)7-3/h1,8H,(H3,5,6,7,9)	InChI=1S/C4H6N3O2/c5-3-2(8)1-6-4(9)7-3/h1,4-6,8-9H/t4-/m1/s1
