15
gdb 66750	2.76879	1.95456	1.52312	1.9226	67.35	-0.2218	-0.0148	0.2069	872.2032	0.112532	-420.558078	-420.551369	-420.550425	-420.589027	27.166	
O	-0.1548523191	 1.4289656496	 0.0162206832	-0.472015
C	-0.0426868567	 0.0641829469	 0.0067752491	 0.420997
C	-1.2629504203	-0.9023508908	 0.0504158879	-0.163304
C	-0.3556014953	-1.8602143183	 0.7844348948	-0.062119
C	-0.4153664013	-1.8544534377	-0.7586973198	-0.062119
C	 0.6871753403	-0.8332902246	-1.1006869779	-0.272486
C	 1.8078046352	-1.0632426813	-0.0691190753	 0.426838
O	 3.0001027352	-1.1471973725	-0.1156022225	-0.324328
C	 0.7703790747	-0.8413019183	 1.0477242506	-0.272507
H	 0.7251782489	 1.8233552036	-0.0158401056	 0.294324
H	-2.3307476379	-0.7436389822	 0.0923668296	 0.104917
H	-0.6143432332	-2.7276591212	 1.3755536011	 0.1023
H	-0.7193094957	-2.7175437756	-1.3344769632	 0.1023
H	 0.8608069775	-0.5374155309	-2.1323700241	 0.088603
H	 1.0233644777	-0.5530796467	 2.065068442	 0.088597
113.9135	208.4535	330.328	339.6406	386.7518	560.5084	567.7883	614.02	697.9476	725.0405	766.9264	797.5494	807.8295	829.2484	887.6109	924.2704	937.8697	979.8859	989.4005	995.986	1035.7512	1071.9781	1074.3409	1103.9655	1105.9538	1184.8466	1188.5561	1211.98	1263.2276	1296.4887	1351.4154	1412.7451	1887.7691	3155.2901	3156.8621	3207.1636	3210.7812	3227.6573	3787.9482
OC12C3C4C3C1C(=O)C24	O[C@@]12[C@@H]3[C@H]4[C@@H]3[C@@H]1C(=O)[C@@H]24	
InChI=1S/C7H6O2/c8-6-4-1-2-3(1)7(4,9)5(2)6/h1-5,9H	InChI=1S/C7H6O2/c8-6-4-1-2-3(1)7(4,9)5(2)6/h1-5,9H/t1-,2+,3-,4+,5-,7-
