19
gdb 79968	1.86478	1.82398	1.58457	0.9493	75.57	-0.2217	0.0051	0.2268	1012.1966	0.158428	-423.012161	-423.003525	-423.002581	-423.044589	34.159	
C	-0.2405123706	 1.5772491402	 0.0015738511	-0.413745
C	 0.0364214732	 0.0661612577	-0.0445368416	-0.081985
C	 0.9216667531	-0.4063177256	-1.1819171049	-0.110905
C	 1.8860654806	-1.2362199401	-0.7656674203	-0.100891
C	 1.8849042026	-1.3876968667	 0.7174005667	-0.198763
C	 2.1629603585	-0.0981420642	 1.4839107663	 0.048368
O	 2.8108421368	 1.0009455385	 0.9206384784	-0.422505
C	 0.7382380918	-0.4975137505	 1.1999610105	 0.320012
O	-0.0679448181	-0.9312128723	 2.2557586074	-0.469547
H	 0.6838300199	 2.1456095298	 0.1263302398	 0.136719
H	-0.7401492777	 1.9133358118	-0.9128832556	 0.111397
H	-0.900957069	 1.8169935701	 0.8420759009	 0.10927
H	-0.9323555954	-0.4510212918	-0.1216823992	 0.096536
H	 0.7440318678	-0.1163756396	-2.2121409822	 0.099217
H	 2.6105835605	-1.727804996	-1.4054327799	 0.103292
H	 2.1239024457	-2.3349307511	 1.187343289	 0.098196
H	 2.4725677845	-0.2408899957	 2.5153051215	 0.108438
H	 2.7933991355	 0.8814635726	-0.0385978354	 0.282383
H	-0.2419599495	-0.1755897071	 2.8278656874	 0.284513
151.7541	178.6117	225.6692	242.5329	263.013	304.1839	316.4932	360.9529	373.1946	483.7304	572.6263	588.9661	612.2835	721.9857	752.2763	784.9679	822.0343	885.5369	920.156	951.4581	968.0168	1024.3007	1041.4902	1059.3446	1091.5782	1106.8765	1129.7852	1150.2217	1182.2455	1245.1058	1295.6782	1301.7556	1321.4076	1331.2741	1376.1139	1379.2817	1408.0803	1454.4787	1498.0352	1507.8197	1653.1525	2987.732	3035.1706	3094.4032	3130.6683	3157.1103	3176.0477	3182.0887	3204.6199	3740.9868	3794.5004
CC1C=CC2C(O)C12O	C[C@H]1C=C[C@H]2[C@@H](O)[C@@]12O	
InChI=1S/C7H10O2/c1-4-2-3-5-6(8)7(4,5)9/h2-6,8-9H,1H3	InChI=1S/C7H10O2/c1-4-2-3-5-6(8)7(4,5)9/h2-6,8-9H,1H3/t4-,5-,6+,7+/m0/s1
