15
gdb 26711	2.28991	1.64088	0.96413	0.1922	65.29	-0.1716	0.0462	0.2178	1139.3517	0.111971	-491.085681	-491.07635	-491.075406	-491.119321	34.063	
N	 0.0694439517	 1.4392726844	-0.0258342415	-0.627724
C	 0.0148014624	 0.0329556333	-0.0033539212	 0.081711
C	-1.0627130224	-0.7910886284	-0.0357151128	 0.281628
O	-2.3854916342	-0.5247134906	 0.0421830561	-0.429927
O	-0.6763381217	-2.1065916077	-0.0786811185	-0.204035
C	 0.6952398165	-2.0973997278	-0.0690365157	 0.2819
O	 1.3345507906	-3.2827321265	-0.1831906126	-0.429971
C	 1.1742832416	-0.8289022286	-0.0182444523	 0.081443
N	 2.5032411351	-0.3751414955	 0.0783401528	-0.627729
H	 0.6702628396	 1.7931412631	 0.7122365775	 0.247264
H	-0.8538405823	 1.8403326964	 0.0915643451	 0.245203
H	-2.821889787	-0.8016390532	-0.7736501324	 0.303894
H	 1.1625645604	-3.8219453941	 0.5993553346	 0.303899
H	 3.1575514593	-1.1381278996	-0.0513769539	 0.2452
H	 2.6974475605	 0.3371943248	-0.618677565	 0.247244
95.8431	161.2999	200.9791	212.7659	249.8332	258.7973	292.813	294.6504	341.545	363.8483	375.1946	555.9939	598.6122	624.2445	663.0496	674.2853	750.0542	826.4	858.0993	922.4088	1046.9859	1158.4355	1187.3742	1237.6033	1280.2929	1288.9234	1309.303	1373.5079	1497.1831	1636.8064	1645.7653	1716.3086	1765.2436	3500.2516	3501.0531	3595.4222	3596.2962	3746.0247	3746.2184
NC1=C(O)OC(O)=C1N	Nc1c(O)oc(O)c1N	
InChI=1S/C4H6N2O3/c5-1-2(6)4(8)9-3(1)7/h7-8H,5-6H2	InChI=1S/C4H6N2O3/c5-1-2(6)4(8)9-3(1)7/h7-8H,5-6H2
