23
gdb 42132	1.86744	1.7937	1.07683	1.2339	87.3	-0.2365	0.0109	0.2475	1212.848	0.208284	-388.286243	-388.277607	-388.276663	-388.319168	34.301	
C	 0.0683654884	 1.5684834254	-0.1875876751	-0.178497
C	 1.5177746424	 2.0566795048	-0.0354668729	-0.194455
C	 2.1608935853	 1.8998894773	 1.3478179915	-0.063166
O	 1.3550157944	 2.4446106852	 2.3808892108	-0.249831
C	 0.9165334465	 1.5574982487	 3.4078887138	-0.126755
C	-0.5148681922	 1.0882953862	 3.240260702	-0.059263
C	-0.9387448762	 0.1726937884	 2.3666217921	-0.026087
C	-0.0957342008	-0.5521651433	 1.3558070836	-0.245177
C	-0.197013071	 0.058337498	-0.0667487954	-0.187957
H	-0.5541125887	 2.1035787564	 0.5366100049	 0.115779
H	-0.2766090535	 1.8840966469	-1.1797913466	 0.088809
H	 2.1689053793	 1.5522499343	-0.7634759919	 0.087337
H	 1.537113967	 3.122121672	-0.2957071217	 0.102113
H	 2.3934172411	 0.847933986	 1.55451023	 0.090238
H	 3.1217006188	 2.435506299	 1.3496125969	 0.092387
H	 1.6009188532	 0.7002158735	 3.4777388594	 0.098489
H	 1.0034626596	 2.1113161483	 4.3492101569	 0.102668
H	-1.2487283261	 1.5684500104	 3.8835230048	 0.086834
H	-2.0055997203	-0.0463749371	 2.330736243	 0.085694
H	 0.9482380152	-0.5751519777	 1.6791050373	 0.098352
H	-0.4196322794	-1.5987376239	 1.2950544244	 0.096802
H	-1.2103861125	-0.1327839713	-0.4424138282	 0.095426
H	 0.4801549395	-0.4961218276	-0.7299693197	 0.090257
102.7156	165.0757	193.5302	206.2354	266.4598	306.9735	355.2428	389.3274	462.8513	505.7628	536.8624	617.3218	735.1775	756.7352	803.6609	813.717	867.5374	873.7371	948.8546	966.4686	979.7697	1009.4044	1035.482	1043.8048	1070.1657	1108.0682	1116.9419	1153.234	1189.3449	1215.8477	1264.123	1285.9528	1291.5465	1305.3552	1321.3689	1344.0091	1377.6228	1389.5905	1395.8044	1398.7834	1420.613	1429.9838	1473.0893	1482.6254	1487.2606	1490.9237	1494.466	1519.4922	1716.4913	2989.5059	3001.7096	3010.6996	3013.6223	3029.1217	3030.1689	3036.0241	3048.2066	3058.5235	3059.6928	3086.0835	3094.3437	3126.1035	3157.0102
C1CCOCC=CCC1	C1CCOCC=CCC1	
InChI=1S/C8H14O/c1-2-4-6-8-9-7-5-3-1/h3,5H,1-2,4,6-8H2/b5-3-	InChI=1S/C8H14O/c1-2-4-6-8-9-7-5-3-1/h3,5H,1-2,4,6-8H2/b5-3-
