19
gdb 114978	2.62008	1.31693	0.91664	4.7169	78.43	-0.2609	-0.0441	0.2168	1282.5912	0.159659	-423.083287	-423.074699	-423.073755	-423.11676	32.164	
C	 0.0313280019	 1.560775296	 0.0385872124	-0.391718
C	-0.0496860063	 0.0346344307	-0.0475116658	-0.18719
C	 0.7380517503	-0.5499661042	-1.2144088609	 0.136716
C	 0.74624302	-2.0770246124	-1.2511961732	-0.285206
C	 1.3218070823	-2.55331354	-2.553374322	-0.068952
C	 1.2825269958	-1.7740827355	-3.6359798609	-0.182052
C	 0.5765705472	-0.4722379018	-3.6299268117	 0.410786
O	 0.3056461919	 0.1400919184	-4.6306786635	-0.338146
O	 0.1630892481	-0.00364699	-2.4219899492	-0.252456
H	 1.0647667507	 1.8941291966	 0.18455508	 0.113822
H	-0.3438037052	 2.019787164	-0.8789810672	 0.147249
H	-0.5613789732	 1.9347342319	 0.8782786148	 0.114671
H	 0.3333404617	-0.4178076808	 0.8757189159	 0.098856
H	-1.0948497782	-0.2830557408	-0.1460307064	 0.109736
H	 1.7806061362	-0.2011677822	-1.1643886624	 0.087835
H	 1.3333922308	-2.4545089067	-0.4066339834	 0.120424
H	-0.2720851159	-2.4721343621	-1.1217180324	 0.128844
H	 1.7558965777	-3.5484873665	-2.6003265182	 0.114792
H	 1.6742457044	-2.0765201546	-4.5995539258	 0.121988
92.2542	117.699	138.8065	185.4127	246.4047	323.8917	363.4663	425.5664	482.7509	491.8296	555.2313	668.5581	701.2084	781.4847	841.0955	873.3023	923.0175	934.4976	968.971	1010.603	1017.2207	1048.6914	1085.5061	1120.3553	1146.6084	1176.8715	1220.2119	1257.7305	1298.1316	1309.5566	1365.8471	1394.2778	1400.262	1410.6376	1413.0148	1462.7547	1476.354	1498.0151	1510.0669	1694.6183	1824.8229	2991.5113	3009.8657	3028.5458	3040.1414	3063.9475	3071.5383	3106.1107	3131.9827	3165.7997	3214.9987
CCC1CC=CC(=O)O1	CC[C@H]1CC=CC(=O)O1	
InChI=1S/C7H10O2/c1-2-6-4-3-5-7(8)9-6/h3,5-6H,2,4H2,1H3	InChI=1S/C7H10O2/c1-2-6-4-3-5-7(8)9-6/h3,5-6H,2,4H2,1H3/t6-/m0/s1
