23
gdb 118266	2.2708	0.74723	0.58987	4.2721	87.94	-0.2424	0.0247	0.2671	1927.1502	0.204149	-384.483461	-384.472242	-384.471298	-384.521123	39.475	
C	 0.0290007204	 1.6118937348	 0.0277201742	-0.38093
C	-0.028336267	 0.0829763194	-0.0132618763	-0.166077
C	 0.7019899829	-0.5091534773	-1.2232910306	-0.17466
C	 0.7149253542	-2.0445223233	-1.2658953964	 0.054002
C	 1.2538655486	-2.5588587251	-2.6118819969	-0.407158
N	 1.4492010408	-2.5455957205	-0.0945826748	-0.286664
C	 1.3219192951	-3.9750457878	 0.1507875302	-0.270854
C	 2.0049109372	-4.3524697763	 1.393103683	 0.260045
N	 2.5626379155	-4.6577642936	 2.3573255508	-0.299719
H	 1.0636028135	 1.9683003098	 0.0862825938	 0.113262
H	-0.4210430607	 2.0540068079	-0.8685363247	 0.110551
H	-0.5065090076	 2.0059662622	 0.8969463905	 0.113617
H	 0.4045113929	-0.3363203913	 0.9003998811	 0.117567
H	-1.0769315376	-0.2435331568	-0.0335464466	 0.089337
H	 0.2434868155	-0.14052645	-2.1497727853	 0.09378
H	 1.7419317775	-0.1494295816	-1.2403365701	 0.088409
H	-0.3199463506	-2.3979847376	-1.1484530359	 0.081427
H	 1.26132072	-3.6521109605	-2.6622620983	 0.114727
H	 0.6385976834	-2.1977420552	-3.4422241919	 0.121441
H	 2.2789812671	-2.2064696791	-2.7780029015	 0.114611
H	 2.4309739086	-2.2944027048	-0.1662809409	 0.225249
H	 0.2572041292	-4.2171310307	 0.2590208458	 0.155378
H	 1.7090661312	-4.6292436627	-0.6499547193	 0.132659
46.1884	63.4855	78.3983	105.3707	141.8713	182.1471	236.8209	246.9654	270.6698	313.2604	372.734	388.4645	456.2456	507.9332	553.7404	736.7521	751.5845	856.2977	868.0621	899.3394	945.3182	959.3359	988.4707	1026.99	1037.6248	1060.0075	1122.4964	1132.3134	1179.4935	1184.7947	1240.4191	1274.3892	1294.3372	1324.72	1347.7636	1355.2188	1394.1213	1401.5461	1410.5652	1413.7816	1473.8269	1486.6058	1490.9219	1494.3692	1498.5256	1500.3155	1507.0463	1514.1514	2367.4634	2949.5762	2994.7617	3005.4018	3020.37	3027.6655	3028.9953	3045.2632	3048.5618	3075.7573	3096.3486	3098.7333	3102.5859	3104.237	3509.3728
CCCC(C)NCC#N	CCC[C@@H](C)NCC#N	
InChI=1S/C7H14N2/c1-3-4-7(2)9-6-5-8/h7,9H,3-4,6H2,1-2H3	InChI=1S/C7H14N2/c1-3-4-7(2)9-6-5-8/h7,9H,3-4,6H2,1-2H3/t7-/m1/s1
