17
gdb 6191	3.71105	1.65412	1.53546	4.8916	64.15	-0.2585	0.0564	0.3149	904.8072	0.14247	-401.067372	-401.059529	-401.058585	-401.099254	29.588	
C	-0.087440579	 1.5872088762	-0.0100822549	-0.42992
C	 0.0507456353	 0.0713276671	-0.0397303569	 0.378688
C	-1.3011909518	-0.6368979105	 0.061549214	-0.417081
C	 0.8787281012	-0.4427749833	-1.24857027	-0.218017
N	 1.6538419432	-1.488231093	-0.6146922028	-0.364412
C	 1.7657450301	-1.276631008	 0.7444830034	 0.461589
O	 2.5088126247	-1.8158986708	 1.5162307702	-0.393352
O	 0.8510310757	-0.3290118835	 1.1036925238	-0.270424
H	 0.8966734909	 2.063026974	 0.0034933113	 0.128671
H	-0.6319770639	 1.9364120859	-0.8933966531	 0.120936
H	-0.6370324833	 1.9057103957	 0.8797997328	 0.134202
H	-1.9610050385	-0.3247167326	-0.7542539093	 0.116894
H	-1.1718538375	-1.7216037298	 0.0077982129	 0.133749
H	-1.7831257616	-0.3929278076	 1.0117927392	 0.133602
H	 0.2330521128	-0.8305680341	-2.042294869	 0.117759
H	 1.5084936743	 0.3531130007	-1.6706957205	 0.106533
H	 2.4258635275	-1.9424721265	-1.0743286012	 0.260581
97.4555	167.2773	217.9887	256.9619	308.9517	334.5621	357.8338	464.7788	497.4386	538.9913	598.0158	720.3663	772.1551	811.7614	912.9328	932.3908	955.1493	979.6928	1006.5396	1043.666	1092.5586	1172.2439	1189.676	1221.6033	1275.9743	1309.496	1358.5758	1402.992	1416.7977	1440.4219	1476.5941	1484.6905	1495.8212	1505.6041	1533.026	1890.0916	2999.8053	3039.5154	3044.8464	3072.2683	3112.8864	3117.7425	3124.8079	3127.6863	3656.4197
CC1(C)CNC(=O)O1	CC1(C)CNC(=O)O1	
InChI=1S/C5H9NO2/c1-5(2)3-6-4(7)8-5/h3H2,1-2H3,(H,6,7)	InChI=1S/C5H9NO2/c1-5(2)3-6-4(7)8-5/h3H2,1-2H3,(H,6,7)
