14
gdb 26020	5.14982	1.05642	0.87686	1.1261	64.41	-0.2127	0.0289	0.2415	1226.235	0.102809	-470.080883	-470.073038	-470.072094	-470.114016	28.756	
N	-0.0191012786	 1.2646875156	 0.3509659046	-0.563172
C	-0.4413629204	 0.0982754709	-0.2128892039	 0.488323
O	-0.9637359314	-0.0097585215	-1.2956926283	-0.381381
O	-0.2028015414	-0.9197104013	 0.6627788996	-0.26639
C	-0.576611365	-2.2001405291	 0.3515415411	 0.351664
C	-1.2182560323	-2.721846834	-0.7435833037	-0.204358
N	-1.3059576741	-4.0715107308	-0.4558613328	-0.237115
C	-0.7304115274	-4.2774915491	 0.7561252217	 0.011691
N	-0.2761816846	-3.1560801795	 1.2736599907	-0.310182
H	 0.0347732479	 2.0646764364	-0.2544271172	 0.271555
H	 0.568895892	 1.2332270542	 1.165878578	 0.27241
H	-1.5952432267	-2.2819438	-1.6451837154	 0.163989
H	-1.724180539	-4.7688308779	-1.0480845013	 0.269348
H	-0.667436019	-5.2524566739	 1.214127377	 0.133617
53.8597	84.6786	185.8117	294.4064	343.0388	384.4837	398.3158	517.0834	518.714	629.3164	659.1761	702.7513	740.6633	768.2005	772.9848	809.4042	947.0033	956.5821	1044.9529	1092.2839	1116.9731	1146.7812	1234.4983	1302.7722	1355.321	1381.8717	1470.5994	1525.0698	1594.4351	1611.3415	1839.9303	3260.6522	3339.8123	3620.9711	3669.2141	3753.7677
NC(=O)OC1=CNC=N1	NC(=O)Oc1c[nH]cn1	
InChI=1S/C4H5N3O2/c5-4(8)9-3-1-6-2-7-3/h1-2H,(H2,5,8)(H,6,7)	InChI=1S/C4H5N3O2/c5-4(8)9-3-1-6-2-7-3/h1-2H,(H2,5,8)(H,6,7)
