22
gdb 118819	3.07009	0.83953	0.79486	3.748	84.81	-0.2482	0.005	0.2532	1581.3076	0.192102	-404.357606	-404.347232	-404.346288	-404.393376	37.421	
C	-0.1019161546	 1.6270312145	-0.0520329485	-0.381074
C	 0.1943664222	 0.1274815926	 0.0337936229	-0.170403
C	 0.4320716132	-0.5073738884	-1.3431613172	-0.231745
C	 0.8244391938	-1.9759263821	-1.2892957381	 0.296957
C	-0.2249199591	-2.9393160274	-0.7653691597	-0.465186
C	 1.8134807933	-2.4987309946	-2.3000925217	-0.289728
N	 2.2258993216	-2.2213106546	-0.9426742314	-0.08617
C	 2.7182251084	-3.1771362312	-0.0751241457	 0.134277
O	 3.4650355291	-4.0753488267	-0.3817283593	-0.292211
H	 0.7282526652	 2.1680938566	-0.5191962613	 0.118383
H	-1.0001506671	 1.8212497066	-0.6488196059	 0.114864
H	-0.2631043227	 2.0574279029	 0.9409806747	 0.115013
H	 1.0840226967	-0.0391680368	 0.65381216	 0.107403
H	-0.6370799791	-0.3769039781	 0.5408759455	 0.097951
H	-0.4705115506	-0.4069772118	-1.9609190752	 0.098048
H	 1.2282878392	 0.0443224227	-1.8559658953	 0.103412
H	-1.1278095376	-2.8824230222	-1.382377939	 0.128866
H	 0.1385680202	-3.9705808796	-0.7876566822	 0.135224
H	-0.5136356197	-2.7045684519	 0.2636706646	 0.131579
H	 1.7567658771	-3.5455002113	-2.5886435222	 0.132414
H	 2.2050703735	-1.830831644	-3.0630186283	 0.121754
H	 2.404606567	-2.9823524253	 0.968891893	 0.080373
62.253	85.3833	113.2434	129.5078	205.8637	225.8752	247.597	262.6398	302.2395	337.6886	402.4698	455.8527	483.0947	616.3061	746.6416	762.9435	854.7979	878.9207	891.7507	939.5685	954.6303	1001.5394	1038.4267	1048.1585	1068.2808	1094.896	1127.615	1135.504	1149.3341	1234.1993	1255.239	1303.7141	1316.1906	1342.7594	1387.9105	1411.652	1413.9758	1415.0781	1428.5977	1472.7076	1489.1917	1492.8761	1500.1564	1503.9695	1510.1277	1515.9	1795.0081	2944.9459	3017.5682	3027.1853	3031.5387	3038.6732	3051.9694	3073.2575	3098.8789	3103.9198	3105.2404	3106.8642	3115.8355	3194.6664
CCCC1(C)CN1C=O	CCC[C@@]1(C)CN1C=O	
InChI=1S/C7H13NO/c1-3-4-7(2)5-8(7)6-9/h6H,3-5H2,1-2H3	InChI=1S/C7H13NO/c1-3-4-7(2)5-8(7)6-9/h6H,3-5H2,1-2H3/t7-,8?/m0/s1
