14
gdb 125368	3.32896	1.80509	1.179	7.0451	68.9	-0.2336	-0.0098	0.2238	965.2718	0.103408	-429.042918	-429.035904	-429.03496	-429.074296	26.296	
C	-0.0191737202	 1.5130683826	 0.0910706697	-0.491416
C	-0.0095371004	 0.0315257556	-0.0230476698	 0.279036
C	-0.0337099048	-0.8061304574	-1.0984298455	-0.158615
N	-0.0084493047	-2.1339904353	-0.6645444614	-0.407224
C	 0.0316446057	-2.1181886109	 0.6952980677	 0.534681
N	 0.0700886465	-2.9112989947	 1.7512441952	-0.359877
N	 0.0927457088	-2.041035024	 2.7994781924	-0.102223
N	 0.0711849175	-0.7894119081	 2.4401306584	-0.179984
N	 0.0311770127	-0.8228988199	 1.080058762	-0.009544
H	 0.8789781395	 1.8771647728	 0.6014030929	 0.155702
H	-0.0605050071	 1.9667794778	-0.9013941739	 0.138638
H	-0.8836109342	 1.8600919449	 0.6671545007	 0.155892
H	-0.0672608982	-0.5624938393	-2.1471933106	 0.155683
H	-0.0183835512	-2.9543414041	-1.2428718078	 0.289249
146.1619	184.2424	234.8303	242.5981	315.0263	414.902	519.5378	610.4356	622.1119	690.492	709.0887	748.3458	779.0602	835.5355	1000.8752	1013.0194	1069.7215	1089.8085	1102.0066	1157.5494	1168.6444	1275.0507	1303.4128	1344.9838	1405.0031	1426.472	1471.811	1473.3685	1494.591	1636.9497	1655.9	3038.7667	3092.7599	3133.131	3279.4721	3705.3507
CC1=CNC2=NN=NN12	Cc1c[nH]c2nnnn12	
InChI=1S/C4H5N5/c1-3-2-5-4-6-7-8-9(3)4/h2H,1H3,(H,5,6,8)	InChI=1S/C4H5N5/c1-3-2-5-4-6-7-8-9(3)4/h2H,1H3,(H,5,6,8)
