17
gdb 98045	5.79098	0.5177	0.49316	2.8692	82.08	-0.2619	-0.0565	0.2053	2178.9512	0.13141	-421.827734	-421.817185	-421.816241	-421.866281	34.675	
C	 0.1242871466	 1.515664354	 0.20738472	-0.385186
C	-0.054861053	 0.0018270149	 0.1334685413	-0.279858
C	-1.4814376855	-0.4196630655	-0.1787384286	 0.218719
O	-2.3858698115	 0.3700579514	-0.3493354163	-0.289036
C	-1.7025689831	-1.8537432618	-0.2618521088	-0.008721
C	-1.8697659085	-3.0471452772	-0.3353435054	 0.137532
C	-2.1499581904	-4.4700675878	-0.4042947933	-0.427598
C	-3.5662099208	-4.8158619952	 0.0769068331	 0.170805
O	-3.8221059304	-5.8112932047	 0.6944694405	-0.222424
H	 1.163915471	 1.7670161311	 0.4340453174	 0.112141
H	-0.1486646038	 1.9883124956	-0.7394121722	 0.134231
H	-0.5141392553	 1.9473197511	 0.982204482	 0.134846
H	 0.5961069981	-0.4465403037	-0.6294718678	 0.130667
H	 0.2345711229	-0.4867679508	 1.0738773978	 0.131741
H	-2.0847089149	-4.8047299064	-1.4512402096	 0.169424
H	-1.4328597932	-5.0681013058	 0.1669680838	 0.163446
H	-4.3417458384	-4.0748845793	-0.2097373338	 0.109271
19.0165	46.9811	63.7185	73.7364	134.1944	165.5255	203.1853	265.4352	355.3305	380.9937	454.3136	517.1828	565.9415	597.4372	716.0303	761.0847	806.6676	952.2673	1013.4561	1028.0431	1039.231	1088.4814	1090.5152	1191.0778	1206.2263	1271.7593	1283.4987	1369.6538	1412.4864	1413.7696	1433.5357	1447.9917	1491.7153	1497.712	1764.4868	1843.6932	2331.0523	2918.3966	3005.7221	3021.7714	3048.7834	3052.528	3084.4041	3124.6827	3128.7121
CCC(=O)C#CCC=O	CCC(=O)C#CCC=O	
InChI=1S/C7H8O2/c1-2-7(9)5-3-4-6-8/h6H,2,4H2,1H3	InChI=1S/C7H8O2/c1-2-7(9)5-3-4-6-8/h6H,2,4H2,1H3
