12
gdb 35151	2.52585	1.34373	1.01949	1.2752	71.63	-0.2952	-0.0466	0.2486	1115.6535	0.075989	-394.473927	-394.465577	-394.464632	-394.507177	29.681	
C	-0.0968094718	-1.2124114147	 0.0115665242	-0.371798
C	-0.0581436942	-0.0135147685	 0.0290528524	 0.307623
C	-0.0054179797	 1.4224662209	 0.0193496005	-0.018601
N	 0.5212508507	 2.0902667767	 1.2294958316	-0.313922
C	 1.3253561171	 2.1691816476	 0.013100984	-0.234406
C	 2.5694392159	 1.440125662	-0.0069703095	 0.35757
N	 3.574015914	 0.8723066161	-0.0576868934	-0.310764
C	-1.0756905949	 2.0872037698	-0.6998611085	 0.243528
N	-1.9279928284	 2.6410570775	-1.2500557433	-0.318423
H	-0.1254985209	-2.2750062905	 0.0043137351	 0.222425
H	 0.034201917	 2.9694048572	 1.3924854144	 0.272291
H	 1.3394440952	 3.0973315758	-0.5519982676	 0.164478
95.8701	113.2298	134.1203	206.4239	237.4062	278.7957	429.5376	480.463	489.6724	577.0176	589.9547	627.5894	657.5536	674.676	694.3832	788.1017	915.8873	973.3254	1012.895	1069.5002	1191.38	1224.874	1327.7527	1418.8619	2256.6685	2358.4271	2370.7516	3156.2653	3496.8837	3506.9866
C#CC1(NC1C#N)C#N	C#C[C@]1(N[C@H]1C#N)C#N	
InChI=1S/C6H3N3/c1-2-6(4-8)5(3-7)9-6/h1,5,9H	InChI=1S/C6H3N3/c1-2-6(4-8)5(3-7)9-6/h1,5,9H/t5-,6-/m0/s1
