16
gdb 26579	2.36351	1.83799	1.0472	2.83	74.9	-0.2501	-0.0553	0.1948	1096.7171	0.123694	-437.961849	-437.953266	-437.952322	-437.995854	30.489	
C	 0.1045976889	 1.5274735162	-0.2404408654	-0.470637
C	-0.0339841902	 0.0389662256	-0.1110140587	 0.231446
C	-1.2041177977	-0.6349030195	 0.0826903658	 0.044621
C	-2.5795508716	-0.0399301334	 0.2054760127	-0.483642
C	-1.1734259109	-2.0871487743	 0.188845509	 0.398472
O	-2.1056866894	-2.8235444769	 0.3583357521	-0.331452
O	 0.1048369135	-2.6717016356	 0.0770912536	-0.194751
C	 1.1763323844	-1.8941787711	-0.1124648916	 0.129541
N	 1.1890295445	-0.6223196187	-0.2102176052	-0.325811
H	 0.7845119966	 1.8964746261	 0.5349007014	 0.150078
H	 0.572478387	 1.765242566	-1.2017707763	 0.150074
H	-0.8405860915	 2.0622864368	-0.1654376231	 0.130567
H	-2.5774595988	 1.0461534535	 0.1219205302	 0.124121
H	-3.2399639093	-0.4487287461	-0.566440422	 0.149176
H	-3.0279637472	-0.3158583234	 1.1656491439	 0.14914
H	 2.0889764316	-2.4795836852	-0.1795400963	 0.149057
63.161	78.7312	111.4451	163.524	282.0214	317.4769	346.9811	476.1726	497.6776	520.3503	542.548	636.692	670.3369	790.5725	862.8795	880.4336	960.3581	988.2652	1018.0812	1047.5948	1069.1869	1135.0034	1155.3192	1259.8509	1340.8947	1408.9122	1419.2115	1420.5432	1468.72	1475.0245	1475.3057	1483.682	1621.0313	1679.4155	1841.5043	3044.5852	3047.2389	3093.7821	3096.9263	3149.7759	3167.5946	3186.7483	63.1604	78.7282	111.4451	163.5241	282.0214	317.477	346.9811	476.1721	497.6778	520.3504	542.548	636.692	670.3368	790.5721	862.8795	880.4336	960.3578	988.2654	1018.0812	1047.5952	1069.1871	1135.0035	1155.3194	1259.8508	1340.895	1408.9123	1419.2115	1420.5433	1468.7205	1475.0249	1475.3062	1483.6823	1621.0313	1679.4156	1841.5046	3044.5852	3047.2389	3093.7821	3096.9263	3149.7759	3167.5946	3186.7482
CC1=C(C)C(=O)OC=N1	Cc1c(C)c(=O)ocn1	
InChI=1S/C6H7NO2/c1-4-5(2)7-3-9-6(4)8/h3H,1-2H3	InChI=1S/C6H7NO2/c1-4-5(2)7-3-9-6(4)8/h3H,1-2H3
