20
gdb 40340	3.41659	1.38216	1.29433	1.1108	83.46	-0.2252	0.088	0.3133	1076.1213	0.172499	-365.924014	-365.91662	-365.915676	-365.95596	29.962	
C	-0.0578310973	 1.4081722071	-0.2379970426	-0.235356
C	 1.2926144405	 0.7858695423	-0.1313319678	-0.235356
N	 0.0851237568	-0.0166373112	 0.0569372299	-0.184705
C	-0.220410985	-0.4567822429	 1.3571707643	 0.4108
C	-0.0402734933	-1.8123692077	 1.988524504	-0.123987
C	 0.6294896724	-1.2223372501	 3.2261051528	-0.222234
C	-0.0773284554	 0.1116948082	 2.8634901503	-0.131402
C	-1.5865731275	-0.2008844127	 3.0511057731	-0.222235
C	-1.4431201759	-1.1657612173	 1.8777504363	-0.123984
H	-0.3660827409	 2.0674281825	 0.5705488566	 0.116496
H	-0.4796358226	 1.6455992017	-1.210302068	 0.1177
H	 1.8687072857	 0.5634535656	-1.0248176758	 0.117701
H	 1.8840653335	 1.0305333612	 0.7482758429	 0.116496
H	 0.1743203959	-2.7435826091	 1.4806598691	 0.086193
H	 0.3986857034	-1.6519789407	 4.2082972973	 0.08603
H	 1.714130817	-1.1602306056	 3.0995879773	 0.09528
H	 0.3377972059	 1.0666702971	 3.1807232325	 0.065062
H	-1.8908885233	-0.5966379799	 4.0274944507	 0.086029
H	-2.2185626165	 0.6524700563	 2.7890253309	 0.095279
H	-2.2192816335	-1.6403126247	 1.2916534163	 0.086193
83.0857	157.3596	161.2019	366.3358	395.6377	412.6559	512.3049	539.8452	716.0922	726.8691	782.3073	812.6671	832.9077	876.7765	916.4094	931.943	938.2334	949.6147	969.59	988.715	1009.8031	1020.7175	1044.6372	1068.0679	1087.9984	1113.6114	1117.7177	1119.4269	1126.5353	1167.6995	1175.6651	1187.0052	1206.8145	1216.6613	1249.3561	1271.217	1312.9769	1319.9353	1472.0341	1487.9104	1489.7013	1508.7587	1513.4419	3024.5774	3031.655	3089.3363	3091.8499	3101.4246	3105.1148	3128.3178	3183.4684	3198.1763	3198.431	3207.6143
C1CN1C12C3CC1CC23	C1CN1[C@@]12[C@H]3C[C@@H]1C[C@@H]23	
InChI=1S/C8H11N/c1-2-9(1)8-5-3-6(8)7(8)4-5/h5-7H,1-4H2	InChI=1S/C8H11N/c1-2-9(1)8-5-3-6(8)7(8)4-5/h5-7H,1-4H2/t5-,6+,7-,8-
