18
gdb 46882	2.93847	1.47981	1.10948	4.666	79.73	-0.2354	-0.0516	0.1838	1094.8113	0.150424	-401.952571	-401.945066	-401.944122	-401.984847	29.43	
O	-0.1343419218	 1.3493114594	-1.7581394108	-0.326888
C	-0.0180947731	 1.5459410575	-0.5615048019	 0.355142
C	-1.2390367029	 1.5246431164	 0.3418959814	-0.310425
C	-1.4071459693	 2.7345116405	 1.2742605975	-0.236089
C	-0.5056248683	 2.7415981912	 2.4913862099	-0.025251
N	-0.0171864039	 1.4531997953	 2.9805071014	-0.327911
C	 0.9573497109	 2.4400442476	 2.440545418	-0.06467
C	 1.7353440269	 2.1288043848	 1.2195649611	-0.020197
C	 1.3408749978	 1.7690763488	-0.0106970686	-0.159345
H	-2.1039258873	 1.438254187	-0.3193722549	 0.115521
H	-1.1867469625	 0.621198131	 0.9594746233	 0.145377
H	-1.2706448437	 3.6730891565	 0.7225118047	 0.113519
H	-2.4447604885	 2.7389982247	 1.6296309644	 0.113252
H	-0.7858746484	 3.4845792358	 3.2377399215	 0.088948
H	 0.0357649657	 1.4399880954	 3.9952681242	 0.237821
H	 1.5549499397	 2.9556202967	 3.1889257767	 0.089706
H	 2.8087843916	 2.2489505392	 1.357679679	 0.104482
H	 2.104781377	 1.622612172	-0.7698002669	 0.107007
55.818	199.2579	229.434	291.6241	346.9112	402.3489	457.7354	497.3603	592.3684	663.6735	684.8357	753.6579	790.9161	812.3675	850.3386	903.7997	930.1652	940.7151	970.2465	1033.8655	1048.2558	1052.0989	1116.6365	1159.6498	1193.9906	1209.2691	1223.2114	1253.9502	1290.8521	1303.0102	1362.1103	1383.3245	1414.1459	1434.2812	1457.3233	1473.8584	1487.6532	1696.2325	1752.1073	3026.7903	3051.5456	3064.805	3105.7177	3115.982	3122.8766	3141.0171	3172.337	3507.9121
O=C1CCC2NC2C=C1	O=C1CC[C@H]2N[C@H]2C=C1	
InChI=1S/C7H9NO/c9-5-1-3-6-7(8-6)4-2-5/h1,3,6-8H,2,4H2	InChI=1S/C7H9NO/c9-5-1-3-6-7(8-6)4-2-5/h1,3,6-8H,2,4H2/t6-,7+/m0/s1
