23
gdb 92498	2.36054	1.55924	1.36867	1.2522	84.37	-0.2358	0.0763	0.3121	1120.0639	0.206161	-388.303736	-388.29486	-388.293916	-388.336819	35.26	
C	 0.7147294936	 1.3725123364	-0.1523926959	-0.397614
C	 0.0189412636	 0.0187491799	 0.0125604974	 0.123461
C	 0.1850170263	-0.9421626282	-1.1899668008	-0.257308
C	 1.2967747609	-1.9067650414	-0.7647746289	-0.062903
C	 2.7740520578	-1.4371985666	-0.9173699341	-0.232263
C	 2.8924186931	-1.2786100766	 0.625341441	-0.269678
C	 1.4043937289	-1.7328494731	 0.7856638473	 0.428738
C	 1.1520130462	-2.9245559074	 1.6890942661	-0.45267
O	 0.5065661313	-0.692755131	 1.1544126705	-0.31083
H	 1.7714925614	 1.2646106076	-0.4136507799	 0.119193
H	 0.2285172933	 1.9532500104	-0.9440730285	 0.10908
H	 0.6499965734	 1.9421302893	 0.7790856445	 0.12171
H	-1.0435465839	 0.2090742875	 0.2074965805	 0.076575
H	-0.7455459017	-1.4930993255	-1.3567301807	 0.101941
H	 0.4190050045	-0.405694155	-2.1145636781	 0.099902
H	 1.1141405399	-2.9252657047	-1.1136368341	 0.064547
H	 3.4377255739	-2.1931472478	-1.3433277467	 0.098366
H	 2.9012599821	-0.517865994	-1.4950136528	 0.096558
H	 3.615861565	-1.9514013019	 1.0934656117	 0.093838
H	 3.0751423137	-0.2664406684	 0.9906636251	 0.103744
H	 1.3166013804	-2.6498517867	 2.7363133786	 0.12305
H	 0.119216432	-3.2725530777	 1.5871497191	 0.114645
H	 1.8261313146	-3.7508813952	 1.4426016786	 0.107916
91.2587	118.2279	220.4479	230.6577	244.3883	311.6973	352.9561	366.5891	389.78	446.5351	599.1799	629.1109	709.7096	745.0207	779.1715	816.3987	856.2483	887.7299	897.8406	919.3235	956.0042	961.3102	981.7583	1029.7476	1065.9246	1087.0774	1118.1081	1152.4234	1157.7363	1178.811	1188.1386	1224.6615	1236.685	1244.496	1272.7957	1294.8952	1320.7766	1339.9233	1355.3171	1392.5027	1403.3139	1405.6725	1469.1606	1481.9336	1482.7667	1491.3265	1492.2594	1494.61	1499.3205	3022.1396	3031.9504	3035.2195	3050.2292	3057.9771	3064.5212	3079.916	3092.871	3104.1614	3105.2127	3105.3994	3107.9543	3118.2916	3126.5081
CC1CC2CCC2(C)O1	C[C@H]1C[C@H]2CC[C@@]2(C)O1	
InChI=1S/C8H14O/c1-6-5-7-3-4-8(7,2)9-6/h6-7H,3-5H2,1-2H3	InChI=1S/C8H14O/c1-6-5-7-3-4-8(7,2)9-6/h6-7H,3-5H2,1-2H3/t6-,7+,8+/m0/s1
