22
gdb 111325	2.42148	1.40801	1.06559	1.531	86.59	-0.2227	0.0816	0.3044	1241.8488	0.194406	-367.153569	-367.144737	-367.143793	-367.186992	34.528	
C	 0.0886777274	 1.5977599371	 0.0687245088	-0.38393
C	-0.0705029471	 0.0768293646	-0.025482371	-0.187026
C	 0.6529151361	-0.5224262015	-1.2255252662	-0.076452
C	 2.1965442534	-0.5683713131	-1.1954225047	-0.048765
N	 2.5853636187	-1.4458280081	-0.0620663292	-0.337478
C	 2.2005361535	-2.0459256877	-1.3686925143	-0.162279
C	 0.6880276312	-2.070916857	-1.3971763856	 0.403066
C	-0.22657809	-3.1107291419	-0.8285161303	-0.316682
C	-0.16480543	-2.8821996302	-2.3243887469	-0.342638
H	 1.14286567	 1.8789502307	 0.1670758988	 0.116866
H	-0.3058802636	 2.0982151853	-0.8232808495	 0.107703
H	-0.4421427206	 1.9998721659	 0.9372367713	 0.110679
H	 0.3143142777	-0.3981257782	 0.8826728875	 0.11946
H	-1.1374365306	-0.176058739	-0.0869516428	 0.08627
H	 0.3121497361	-0.0512543384	-2.1556267015	 0.068244
H	 2.8847648937	 0.1731003964	-1.5821986298	 0.088745
H	 3.6050841364	-1.442227271	-0.0270382373	 0.224336
H	 2.886642457	-2.683739933	-1.9138886732	 0.089072
H	 0.214822327	-4.0158607852	-0.4244954027	 0.111922
H	-1.1136281534	-2.7751898441	-0.3009450374	 0.11222
H	-1.007260523	-2.3931321334	-2.8041591631	 0.108667
H	 0.3173577799	-3.6366773682	-2.9386944308	 0.108003
84.598	127.707	155.744	207.4386	243.7797	274.1292	281.0429	421.1831	487.6172	548.5225	602.7236	740.8983	770.9567	788.8196	824.5363	835.6757	872.6517	892.651	921.9305	944.4038	953.2079	960.3986	991.3581	1028.4332	1052.5625	1059.2635	1074.6716	1093.332	1113.9846	1124.0924	1159.8256	1185.0718	1196.5779	1231.8746	1275.1204	1291.6031	1302.2397	1346.1996	1357.0417	1385.3222	1409.9654	1414.1052	1464.832	1487.0549	1500.324	1505.2953	1507.0108	3019.4523	3027.1111	3031.634	3074.5003	3098.0194	3101.0253	3117.4138	3128.2155	3175.2668	3190.5453	3195.9345	3214.092	3463.2797
CCC1C2NC2C11CC1	CC[C@H]1[C@H]2N[C@H]2C21CC2	
InChI=1S/C8H13N/c1-2-5-6-7(9-6)8(5)3-4-8/h5-7,9H,2-4H2,1H3	InChI=1S/C8H13N/c1-2-5-6-7(9-6)8(5)3-4-8/h5-7,9H,2-4H2,1H3/t5-,6+,7+/m0/s1
