17
gdb 23287	4.10307	1.08598	1.03366	1.8193	72.54	-0.2381	0.0056	0.2437	1171.4871	0.137485	-455.069406	-455.061855	-455.060911	-455.101314	30.171	
O	-0.1837073945	 1.3139356372	 0.0449499903	-0.392887
N	 0.0014684216	-0.0822801415	-0.0087810362	-0.280894
C	-1.1140221777	-0.686235764	-0.0144701805	 0.465465
C	-2.5507928429	-0.1776418601	 0.0278529066	-0.325482
C	-3.2250455139	-1.568417422	-0.0001343192	-0.060093
N	-2.4098410884	-2.4120782735	 0.942712221	-0.353218
C	-1.3013848621	-2.1776698974	-0.0564147189	-0.145027
C	-2.4461112653	-2.3123020061	-1.1299740066	 0.205018
O	-2.8601049467	-3.6144587072	-1.399896836	-0.453932
H	 0.7233052612	 1.6382059249	 0.0531511806	 0.307049
H	-2.76862744	 0.3853829369	 0.9411845376	 0.126426
H	-2.7911437445	 0.4649213922	-0.8254408382	 0.130692
H	-4.3104067463	-1.62567301	 0.0841645286	 0.081593
H	-2.240873849	-1.9785435989	 1.8509242102	 0.219849
H	-0.4283532585	-2.8266795506	-0.0361128775	 0.089242
H	-2.308489276	-1.7972585763	-2.0822357029	 0.094839
H	-2.9692060171	-4.0398298635	-0.5377582287	 0.29136
100.0109	198.1942	262.5095	312.1166	340.9476	401.5864	438.9857	462.8263	544.4102	575.6843	609.9456	684.8071	800.0779	822.2508	856.4637	901.0526	927.6953	948.3065	974.6335	982.3288	1011.5581	1063.8926	1095.8887	1119.2336	1164.1321	1191.0379	1209.8368	1230.3523	1239.7797	1268.6257	1301.6441	1321.6014	1336.2568	1406.0303	1450.4333	1473.3493	1778.9249	3050.9286	3090.9114	3108.42	3120.5861	3150.6036	3450.867	3751.9137	3817.3561
ON=C1CC2NC1C2O	ON=C1C[C@@H]2N[C@H]1[C@H]2O	
InChI=1S/C5H8N2O2/c8-5-3-1-2(7-9)4(5)6-3/h3-6,8-9H,1H2	InChI=1S/C5H8N2O2/c8-5-3-1-2(7-9)4(5)6-3/h3-6,8-9H,1H2/t3-,4+,5-/m0/s1
