15
gdb 28310	5.14367	1.29145	1.03898	3.1035	76.09	-0.1858	-0.0248	0.161	1078.0418	0.115661	-416.856663	-416.849883	-416.848938	-416.88766	26.922	
O	 0.0777448488	 1.318923881	-0.0485751974	-0.437357
C	 0.0650691291	-0.0321988774	-0.0643840559	 0.336865
C	 0.0161253239	-0.8329066677	-1.1890983581	-0.255902
N	 0.0235424134	-2.1145051948	-0.6725833833	 0.000206
C	-0.0049039643	-3.4967950782	-1.1089521362	-0.240274
C	 0.0379998314	-4.232714665	 0.2192486894	-0.10519
C	 0.0838662218	-3.3547725589	 1.2375828922	-0.186031
C	 0.0750845715	-2.0128816839	 0.6840442736	 0.382894
N	 0.1017506859	-0.7548556458	 1.0951926171	-0.450919
H	 0.1147668827	 1.5726795594	 0.8816834524	 0.300379
H	-0.0209090912	-0.6053822633	-2.2389944189	 0.130286
H	-0.9146052879	-3.7228308825	-1.6787520258	 0.141903
H	 0.8558436332	-3.7384320907	-1.7445962123	 0.141916
H	 0.0306528472	-5.3109951941	 0.2822207616	 0.116343
H	 0.1212459146	-3.5780235182	 2.2936176016	 0.124882
126.45	253.4657	319.2617	319.4894	375.136	437.635	531.6039	572.8988	645.2624	662.5972	716.6991	751.5537	773.6337	805.9989	900.7167	940.3971	943.4118	982.3017	1020.0562	1091.0365	1151.2227	1174.9503	1185.1128	1235.8386	1277.5556	1339.4125	1368.1855	1434.1919	1449.4071	1486.2706	1561.9746	1608.7952	1637.5414	3030.8929	3062.868	3238.0591	3258.8855	3295.6712	3803.0163
OC1=CN2CC=CC2=N1	Oc1cn2CC=Cc2n1	
InChI=1S/C6H6N2O/c9-6-4-8-3-1-2-5(8)7-6/h1-2,4,9H,3H2	InChI=1S/C6H6N2O/c9-6-4-8-3-1-2-5(8)7-6/h1-2,4,9H,3H2
