19
gdb 32989	4.58291	0.90326	0.81039	1.5322	84.73	-0.2439	-0.0353	0.2086	1467.3689	0.161304	-382.13763	-382.129146	-382.128201	-382.171999	30.905	
C	-0.0335105929	 1.5430409619	 0.037781682	-0.380896
C	 0.0100545328	 0.0143743286	-0.0114352666	-0.161891
C	 0.7263742709	-0.5190196221	-1.2679323116	-0.253667
C	 0.7543687247	-2.0233346093	-1.2903910826	 0.340818
N	 1.7943324981	-2.6264109184	-0.6960784891	-0.275518
C	 1.7901411869	-3.9595675438	-0.6925190698	 0.007853
C	 0.7693273035	-4.7058250687	-1.2685483334	-0.133398
C	-0.2615617759	-3.9804698817	-1.8532270894	 0.007849
N	-0.281227546	-2.6475363204	-1.8702782575	-0.275516
H	 0.9760359267	 1.9686277524	 0.040451112	 0.115935
H	-0.5633428459	 1.9527642436	-0.8292311734	 0.115942
H	-0.5460048312	 1.8951346168	 0.9385175228	 0.112393
H	 0.5217466111	-0.3742189923	 0.8772441919	 0.108108
H	-1.0090684034	-0.3899315493	 0.0111992645	 0.108108
H	 0.2065441195	-0.1628612306	-2.1624811258	 0.111642
H	 1.7552792069	-0.1471244436	-1.2862098479	 0.111645
H	 2.6373454621	-4.4447151631	-0.2115683912	 0.115794
H	 0.7775521307	-5.7889714907	-1.2635699343	 0.109002
H	-1.1025824786	-4.4827807994	-2.3273585909	 0.115796
35.5458	90.3008	97.8219	236.7572	247.7489	311.0911	370.4072	411.0331	521.0722	640.5327	644.7577	752.5368	807.464	831.0948	871.3534	883.2507	907.1627	1006.6594	1008.8807	1010.0148	1045.8098	1069.1012	1096.4779	1108.6731	1139.1437	1232.0319	1259.1517	1283.3055	1307.1373	1335.4401	1336.5438	1382.2206	1410.6965	1456.9846	1467.9418	1479.688	1493.317	1497.369	1508.1309	1599.4862	1620.1273	3028.8982	3030.1147	3053.8648	3062.1597	3096.3319	3102.0282	3110.8481	3147.6365	3149.332	3208.9702
CCCC1=NC=CC=N1	CCCc1ncccn1	
InChI=1S/C7H10N2/c1-2-4-7-8-5-3-6-9-7/h3,5-6H,2,4H2,1H3	InChI=1S/C7H10N2/c1-2-4-7-8-5-3-6-9-7/h3,5-6H,2,4H2,1H3
