19
gdb 112857	2.99725	1.16384	0.94981	2.2196	70.27	-0.2517	0.0712	0.323	1250.0549	0.159397	-460.144316	-460.135645	-460.134701	-460.177899	32.748	
O	-0.0804078338	 1.4227916185	-0.048873049	-0.422011
C	 0.0074772285	 0.0055806134	-0.0591712648	-0.089954
C	-1.4077427036	-0.5492847707	 0.0333471643	-0.008028
C	-2.3199203537	-0.1590721557	-1.1540867682	-0.258214
C	-3.3316037776	-1.3221021317	-1.3337847351	 0.125079
O	-3.7744339742	-1.5080128188	-2.6649641446	-0.439748
C	-2.6090592833	-2.524890197	-0.751556442	-0.002704
O	-1.2690620498	-2.6509453968	-1.2662520211	-0.273597
C	-1.4624319838	-2.0691128536	 0.0355436576	 0.018916
H	 0.8019892864	 1.7814263707	-0.1800124051	 0.288367
H	 0.4778498085	-0.3638027062	-0.9836320602	 0.099669
H	 0.6083287919	-0.3621675603	 0.7891468302	 0.083148
H	-1.8482859027	-0.197509672	 0.9760423341	 0.086203
H	-2.813278957	 0.8019980723	-1.0076194203	 0.116958
H	-1.72122275	-0.0790447393	-2.0667716401	 0.105058
H	-4.2419515234	-1.1410408684	-0.7497556368	 0.09148
H	-2.9994678474	-1.7578808653	-3.1822151168	 0.285577
H	-3.1302069066	-3.4617045484	-0.5728962531	 0.099107
H	-1.0508322983	-2.6447106407	 0.8615743412	 0.094694
83.5104	106.1773	145.9091	202.5593	263.9216	317.8447	375.0059	401.9735	435.8234	479.5006	561.6819	641.5846	681.9386	823.0426	845.9855	878.085	898.4608	938.5715	968.1627	1020.373	1055.881	1078.0305	1087.769	1098.1016	1108.5225	1127.3566	1182.9994	1235.6275	1249.6738	1258.2893	1270.7514	1304.1145	1320.8843	1330.4163	1337.3628	1370.0301	1432.6499	1437.9985	1458.4226	1484.6423	1523.6722	2961.1971	2997.5206	3026.9233	3044.0776	3064.6969	3131.1165	3139.0989	3156.7577	3790.906	3831.4406
OCC1CC(O)C2OC12	OC[C@H]1C[C@@H](O)[C@H]2O[C@@H]12	
InChI=1S/C6H10O3/c7-2-3-1-4(8)6-5(3)9-6/h3-8H,1-2H2	InChI=1S/C6H10O3/c7-2-3-1-4(8)6-5(3)9-6/h3-8H,1-2H2/t3-,4-,5+,6-/m1/s1
