21
gdb 88625	3.7033	1.00447	0.946	1.9421	83.14	-0.2467	0.0848	0.3315	1351.8863	0.182584	-387.039275	-387.030629	-387.029685	-387.073627	32.961	
C	-0.1350052812	 1.4643311963	-0.1337344993	-0.419451
C	-0.0733887502	-0.0235080982	 0.1007071859	 0.070521
O	 1.2002942548	-0.6650380035	-0.0253141835	-0.271172
C	 0.5599393551	-0.6743579699	 1.2626402555	 0.04362
C	 1.250464599	 0.0576063708	 2.3645518183	-0.02771
C	 0.7823344123	 0.0919221774	 3.7990722992	-0.075579
C	 0.1883618122	-1.2521293981	 4.2465402461	-0.231324
C	 1.5321345086	-1.9555041185	 3.8634353318	-0.232852
C	 2.099727958	-0.598219963	 3.4274211191	-0.069994
H	 0.6793863113	 1.9931302253	 0.3649287739	 0.126875
H	-0.0695971196	 1.6792450788	-1.2055936945	 0.128337
H	-1.0866797157	 1.8667739569	 0.2303258935	 0.121198
H	-0.8843286425	-0.578868221	-0.3779678019	 0.081901
H	 0.1643946861	-1.6531927732	 1.5336196187	 0.087295
H	 1.6736559487	 1.0061529364	 2.047315703	 0.0896
H	 0.6249756133	 1.0363531616	 4.3071562543	 0.083177
H	 0.0065371966	-1.2859849624	 5.322794724	 0.104288
H	-0.7216959009	-1.5843404742	 3.7372794427	 0.097573
H	 2.0432974311	-2.3584828749	 4.7400613042	 0.104323
H	 1.4940867822	-2.7394112753	 3.1007177121	 0.10354
H	 3.1164013707	-0.2658814813	 3.6010690769	 0.085833
23.8119	131.053	163.4548	179.564	224.1375	298.7052	396.2697	439.3312	496.2322	547.3808	738.7579	765.4896	784.7368	791.4143	794.5054	861.0729	924.7423	951.5944	959.1585	963.8486	988.4441	1009.0888	1028.4625	1058.1757	1074.9845	1094.3473	1114.2199	1141.1224	1159.4284	1173.2143	1222.4925	1225.694	1244.0338	1262.8086	1302.0564	1306.2671	1326.3685	1372.6223	1409.0955	1437.2924	1478.7085	1485.3181	1492.163	1506.9653	1521.2012	3038.4945	3048.7584	3056.0603	3068.7166	3096.996	3098.4144	3107.3431	3116.7458	3132.5042	3157.1049	3170.1247	3183.8438
CC1OC1C1C2CCC12	C[C@H]1O[C@H]1[C@H]1[C@H]2CC[C@@H]12	
InChI=1S/C8H12O/c1-4-8(9-4)7-5-2-3-6(5)7/h4-8H,2-3H2,1H3	InChI=1S/C8H12O/c1-4-8(9-4)7-5-2-3-6(5)7/h4-8H,2-3H2,1H3/t4-,5-,6+,7-,8-/m1/s1
