17
gdb 24353	3.49921	1.58815	1.1298	1.5569	75.02	-0.1809	0.05	0.231	1039.5246	0.140039	-418.027752	-418.020599	-418.019654	-418.059064	28.867	
C	-0.0280238828	 1.448005264	 0.0515703457	-0.182111
C	 1.4123104883	 1.9795888523	 0.0163368033	-0.0837
O	 2.159134761	 1.5423591562	 1.1511988401	-0.288416
C	 1.9925569184	 0.2058289301	 1.3818192257	 0.29015
C	 2.7813509662	-0.6098101181	 2.1588901278	-0.210792
N	 2.2198112558	-1.8664592369	 2.1005956338	-0.244717
C	 1.0894475336	-1.8577479268	 1.3205155067	-0.182775
C	 0.9242013071	-0.5720309269	 0.8499894733	 0.172587
N	-0.0988652722	-0.0159281932	 0.0416278019	-0.410749
H	-0.5097004762	 1.8162726765	 0.9662120186	 0.120465
H	-0.5900373822	 1.8416914265	-0.8004535873	 0.102167
H	 1.9105164228	 1.6445214525	-0.906847374	 0.091071
H	 1.4302684289	 3.0726200552	 0.0457478845	 0.107943
H	 3.6695250343	-0.4037047015	 2.7308518872	 0.118512
H	 2.5787941922	-2.6726626549	 2.5773477495	 0.26028
H	 0.5073157792	-2.74939538	 1.1571338048	 0.114024
H	-0.0689145544	-0.3743259951	-0.9060737813	 0.226061
113.5114	228.8742	297.5008	337.5062	402.955	422.5914	467.1688	529.466	608.018	615.4069	656.2752	697.8233	704.4675	723.971	778.6685	880.2955	908.6815	957.2259	1035.7907	1066.2547	1080.1574	1130.7341	1149.4661	1204.1402	1249.3612	1278.2703	1282.697	1354.9373	1380.7367	1395.4314	1423.9124	1458.0191	1473.3786	1481.2875	1495.7551	1579.2249	1648.0615	2984.2131	3030.2335	3091.4689	3092.1043	3268.5003	3279.08	3519.8546	3706.4419
C1COC2=CNC=C2N1	C1COc2c[nH]cc2N1	
InChI=1S/C6H8N2O/c1-2-9-6-4-7-3-5(6)8-1/h3-4,7-8H,1-2H2	InChI=1S/C6H8N2O/c1-2-9-6-4-7-3-5(6)8-1/h3-4,7-8H,1-2H2
