21
gdb 114462	3.13394	1.31051	1.17003	1.6959	81.03	-0.2408	0.0654	0.3062	1164.1284	0.183309	-387.031073	-387.022984	-387.02204	-387.063823	32.067	
C	-0.9979359695	 1.0437535031	-0.4532951637	-0.384717
C	 0.3677490748	 0.5765070001	 0.0640974775	-0.210085
C	 1.1085554691	-0.240879868	-0.9795492331	 0.140454
O	 2.4843668929	-0.5950529826	-0.632322871	-0.327317
C	 2.3047210167	-1.943983891	-1.1413071769	 0.107788
C	 2.082122084	-3.0563549412	-0.0931331804	-0.064574
C	 1.3840102334	-2.5010916194	 1.1057897137	-0.286788
C	 0.5705157771	-2.7495151032	-0.1403190943	-0.076019
C	 0.791564314	-1.7242536437	-1.2818038302	-0.095527
H	-0.89437863	 1.6603856842	-1.3528845899	 0.11641
H	-1.6394526355	 0.1925521242	-0.7063967145	 0.119254
H	-1.5205030224	 1.6392585115	 0.3006309628	 0.117019
H	 0.9897903609	 1.4437399843	 0.3184526413	 0.107249
H	 0.2357057283	-0.0006097885	 0.9826308041	 0.10651
H	 1.1236512253	 0.3293045426	-1.9227748053	 0.06831
H	 2.9694608784	-2.1733939881	-1.9773338682	 0.074944
H	 2.5939692544	-4.0110743678	-0.0860293501	 0.083562
H	 1.1991507798	-3.2201341206	 1.8979613265	 0.10953
H	 1.6323060748	-1.5059340321	 1.45040885	 0.132089
H	-0.2554181883	-3.45034328	-0.1238512291	 0.087658
H	 0.2578639021	-1.9612471237	-2.2012188393	 0.074248
68.8196	155.0002	165.3246	243.0085	274.2523	343.5411	420.0842	506.9711	582.8588	649.5869	737.7094	743.1384	775.9141	824.1522	869.9431	887.0147	915.1268	930.8066	945.2707	972.5041	992.5863	996.2654	1035.7787	1039.2551	1068.105	1083.1747	1096.4214	1111.0746	1168.7477	1177.9561	1194.3492	1220.7958	1264.0511	1282.6922	1297.532	1310.1863	1324.3896	1345.162	1362.9502	1407.9327	1423.2065	1485.5774	1486.5659	1500.8777	1507.2833	2962.9401	3032.6904	3038.2548	3079.4403	3086.8419	3106.7929	3111.6453	3118.7829	3139.1165	3176.2483	3186.7369	3230.073
CCC1OC2C3CC3C12	CC[C@H]1O[C@H]2[C@H]3C[C@H]3[C@@H]12	
InChI=1S/C8H12O/c1-2-6-7-4-3-5(4)8(7)9-6/h4-8H,2-3H2,1H3	InChI=1S/C8H12O/c1-2-6-7-4-3-5(4)8(7)9-6/h4-8H,2-3H2,1H3/t4-,5+,6-,7+,8+/m1/s1
