21
gdb 116082	3.11746	1.03173	0.82255	3.04	79.25	-0.231	-0.0194	0.2117	1428.897	0.182442	-424.254268	-424.245073	-424.244129	-424.288668	34.159	
C	-0.0888655314	 1.5684466784	 0.1235432626	-0.395644
C	 0.0086367997	 0.0445882206	-0.0097407153	-0.181703
C	 0.750748593	-0.4443184503	-1.2634308161	 0.005318
C	 2.2437941708	-0.095387055	-1.2529652672	-0.079291
O	 2.8840219241	-0.520191103	-2.4443905999	-0.243735
C	 2.8929407123	-1.9259831367	-2.5997912685	-0.175219
C	 1.4962526239	-2.5444344785	-2.5251020407	 0.367147
O	 1.1632641429	-3.4532123671	-3.2476880872	-0.299318
C	 0.5985912721	-1.9688925019	-1.441119909	-0.325368
H	 0.8933658944	 2.0368008189	 0.2397137895	 0.121616
H	-0.5659854361	 2.0117283989	-0.7573811654	 0.120526
H	-0.6861126225	 1.8440652378	 0.9979117008	 0.118435
H	 0.4958160293	-0.3756590701	 0.8813131774	 0.09608
H	-1.0036774418	-0.378331016	-0.0243709118	 0.101955
H	 0.3158141453	 0.0487775816	-2.1437238766	 0.089205
H	 2.4002899345	 0.9847449807	-1.2038569587	 0.114042
H	 2.7309955537	-0.5493906734	-0.3705304708	 0.083232
H	 3.3326577709	-2.1502921532	-3.5734240003	 0.134525
H	 3.5159631543	-2.4036055246	-1.8196027672	 0.104064
H	 0.8962420638	-2.4629783864	-0.5022595156	 0.121041
H	-0.4339928332	-2.2658488706	-1.64471928	 0.123094
65.1681	98.274	115.9232	192.1313	226.5611	287.0498	336.5021	388.7058	422.7418	424.2494	503.0705	504.7137	647.3059	768.8482	811.2792	821.271	901.6014	929.5	950.6839	961.8344	1022.4026	1046.9635	1111.622	1132.6509	1140.7267	1157.269	1184.462	1251.3187	1258.9559	1281.0264	1290.4063	1322.6248	1340.25	1358.0986	1367.4543	1388.76	1411.1483	1416.8576	1454.4839	1467.1525	1487.4476	1495.407	1501.4764	1508.3319	1824.3239	2930.6049	2942.8948	2992.2912	3008.8588	3021.6313	3036.3214	3048.4449	3093.5063	3097.7264	3103.314	3109.5151	3118.6963
CCC1COCC(=O)C1	CC[C@H]1COCC(=O)C1	
InChI=1S/C7H12O2/c1-2-6-3-7(8)5-9-4-6/h6H,2-5H2,1H3	InChI=1S/C7H12O2/c1-2-6-3-7(8)5-9-4-6/h6H,2-5H2,1H3/t6-/m1/s1
