20
gdb 63240	2.24189	1.72053	1.25799	2.744	82.28	-0.2509	0.0132	0.2642	1093.2283	0.170742	-403.171404	-403.162315	-403.161371	-403.205586	34.288	
C	-0.040736339	 1.5303578613	 0.0541908861	-0.403658
C	 0.0018981808	-0.0201928045	 0.008196718	 0.124943
C	-1.4374691263	-0.569983561	-0.024078896	-0.405194
C	 0.739342074	-0.4585885006	-1.232480638	-0.058086
C	 1.9567279305	-0.9836129591	-1.2155700609	-0.118219
C	 2.719154665	-1.1844653464	 0.0508926136	-0.119277
O	 2.0661290233	-0.6976683112	 1.2237505164	-0.270862
C	 0.7150119588	-0.4973635697	 1.27077043	 0.365312
N	 0.0945763409	-0.583250427	 2.3711646921	-0.506287
H	 0.9673433743	 1.9482758284	 0.1282767195	 0.120159
H	-0.504538647	 1.9222969541	-0.8572453646	 0.111235
H	-0.6231169352	 1.8645712828	 0.916645384	 0.136462
H	-1.9644609656	-0.1820880006	-0.9025517708	 0.102415
H	-1.439947119	-1.662432213	-0.0775331042	 0.116611
H	-1.9771502436	-0.2737151413	 0.8762313771	 0.145981
H	 0.2133746168	-0.3129465268	-2.1731691511	 0.095004
H	 2.4581696348	-1.2940889443	-2.1279499822	 0.100323
H	 2.9395605877	-2.252637622	 0.2023515466	 0.120935
H	 3.6872675392	-0.6692829276	 0.006334223	 0.12592
H	 0.7373358996	-0.8719798314	 3.1112576315	 0.216283
36.0856	86.7659	210.9238	243.6883	250.2911	262.8555	314.6696	339.1624	466.4803	483.293	501.33	536.2585	656.1179	703.0429	739.5603	830.8399	894.4289	915.6368	926.6761	947.8698	970.9476	1002.271	1019.4222	1032.0923	1035.2854	1141.4969	1160.1356	1196.2279	1217.2289	1254.9544	1268.5216	1327.6519	1389.3053	1400.0485	1424.6709	1434.4243	1477.9578	1485.5979	1496.1518	1503.774	1509.3687	1736.2173	1746.841	2986.4069	3034.315	3035.4274	3039.8143	3105.5789	3108.1846	3124.591	3145.3992	3149.4543	3175.9934	3465.3076
CC1(C)C=CCOC1=N	CC1(C)C=CCO[C]1[NH]	
InChI=1S/C7H11NO/c1-7(2)4-3-5-9-6(7)8/h3-4,8H,5H2,1-2H3	InChI=1S/C7H11NO/c1-7(2)4-3-5-9-6(7)8/h3-4,8H,5H2,1-2H3
