16
gdb 34661	3.67948	1.2152	0.95729	1.2547	75.94	-0.2502	-0.035	0.2152	1185.9966	0.124415	-437.846703	-437.838676	-437.837732	-437.879517	29.994	
C	 0.043412769	-1.2190054224	-0.2559233069	-0.356561
C	-0.0064102166	-0.0303429871	-0.0838040995	 0.290648
C	-0.0400279132	 1.3905001792	 0.1212598721	 0.185788
N	-1.1436035801	 2.0107824132	 0.0751271777	-0.291724
C	-1.2405802331	 3.4593784351	 0.1085992475	-0.16112
C	-0.4825964587	 4.1886471355	 1.2158253073	-0.098363
O	 0.9262506715	 4.1168464146	 1.0535343286	-0.21224
C	 1.4468667504	 2.8621028623	 1.3172094788	 0.006643
O	 1.227454532	 1.8912856474	 0.2955889243	-0.257605
H	 0.0754261743	-2.2695527539	-0.4100155266	 0.20454
H	-0.8929140524	 3.8536092057	-0.8572784766	 0.130537
H	-2.3017873979	 3.7175283089	 0.1967180094	 0.112463
H	-0.7373064379	 5.2520493396	 1.1894886119	 0.117862
H	-0.7689187095	 3.7853435822	 2.1998224278	 0.102541
H	 2.5312999737	 2.9656256816	 1.3667016385	 0.129927
H	 1.0460518486	 2.4625885983	 2.2628709955	 0.096664
73.8585	143.3964	173.7308	219.7963	332.6784	359.1044	417.541	429.7117	532.6302	595.6028	640.7055	644.1269	664.3576	733.7217	782.8955	873.4752	906.5163	996.3349	1025.496	1073.9435	1102.6552	1132.525	1185.9638	1225.7326	1260.183	1314.4265	1346.0169	1375.9834	1402.4486	1453.6526	1473.5458	1484.9873	1502.8322	1725.7098	2238.2824	2974.571	2989.2964	3012.2394	3065.6844	3092.5587	3131.785	3501.3081
C#CC1=NCCOCO1	C#CC1=NCCOCO1	
InChI=1S/C6H7NO2/c1-2-6-7-3-4-8-5-9-6/h1H,3-5H2	InChI=1S/C6H7NO2/c1-2-6-7-3-4-8-5-9-6/h1H,3-5H2
