18
gdb 85154	2.05412	1.71691	1.00574	2.0786	74.75	-0.2578	-0.0286	0.2292	1183.3897	0.145888	-439.156086	-439.146669	-439.145725	-439.190961	33.335	
C	-0.1133745932	 1.551067988	 0.1157605437	-0.406225
C	 0.0321860517	 0.0434428291	-0.0018728612	 0.057647
C	 0.7916602193	-0.5165847293	-1.243176482	-0.404529
C	 1.815371296	-1.0854508929	-0.2481529941	 0.433079
O	 2.820281298	-1.7367090063	-0.2995473554	-0.349805
N	 1.1037306785	-0.5496967757	 0.8348937744	-0.142926
C	 1.2071634422	-0.6087178643	 2.2220096518	 0.382726
C	 2.4333903221	-1.3147664299	 2.7503074248	-0.479915
O	 0.3468436678	-0.1073483404	 2.9133375453	-0.336037
H	 0.8403177813	 2.0523702433	-0.0799671415	 0.118878
H	-0.8486605474	 1.9143985739	-0.6091047885	 0.124235
H	-0.4486902393	 1.8206327542	 1.1195017861	 0.156848
H	-0.9241595085	-0.4544050393	 0.1820879257	 0.106381
H	 0.2682219692	-1.2768372736	-1.8255056328	 0.141524
H	 1.2019440163	 0.2398383509	-1.9157537413	 0.139631
H	 2.5226488274	-2.3162696275	 2.3216115385	 0.160251
H	 3.3370767712	-0.771912178	 2.4567049182	 0.155527
H	 2.3648463675	-1.3637189721	 3.8367679383	 0.142709
59.3765	103.0895	110.7546	121.7233	170.3286	245.2706	290.7675	382.7923	411.7096	436.4081	538.0101	597.3834	616.6066	668.8412	720.3622	840.9133	908.4447	933.6446	1022.3719	1042.8637	1058.2942	1064.9637	1107.6591	1142.3406	1173.9573	1196.8892	1231.3224	1315.1961	1358.7169	1380.649	1402.9214	1410.0571	1453.4099	1456.1674	1473.388	1486.5215	1504.4119	1788.6933	1882.228	3040.1427	3056.6181	3069.6945	3084.4476	3110.5877	3122.087	3135.5609	3141.7502	3167.1076
CC1CC(=O)N1C(C)=O	C[C@H]1CC(=O)N1C(=O)C	
InChI=1S/C6H9NO2/c1-4-3-6(9)7(4)5(2)8/h4H,3H2,1-2H3	InChI=1S/C6H9NO2/c1-4-3-6(9)7(4)5(2)8/h4H,3H2,1-2H3/t4-/m0/s1
