14
gdb 48083	3.16658	1.25994	0.94935	2.8094	65.92	-0.2571	-0.1058	0.1514	1176.663	0.099777	-473.838754	-473.830401	-473.829457	-473.873274	27.954	
O	-0.862221163	 1.2820696528	 0.488117934	-0.201554
C	 0.0616407726	 1.0929627919	-0.2519598746	 0.090751
C	 1.3073781812	 1.98642769	-0.3436036718	 0.220786
O	 2.3489196908	 1.4778758539	-0.6824761187	-0.261253
C	 1.1929308226	 3.4351501925	 0.0109122464	 0.342981
N	 0.1089682259	 4.0961325125	-0.061625375	-0.283554
C	 0.46419921	 5.4879938563	 0.2562981884	-0.191354
C	 1.9838967017	 5.446519379	 0.5657843719	-0.114806
O	 2.3445243239	 4.059384418	 0.3426494893	-0.245895
H	 0.1695068104	 0.1871815602	-0.8856921018	 0.112134
H	 0.2195210862	 6.1300576984	-0.5960154775	 0.132657
H	-0.1360644651	 5.8315809649	 1.1044424726	 0.136511
H	 2.588124455	 6.0642783314	-0.1026023205	 0.131606
H	 2.2264901977	 5.6964421482	 1.6016935774	 0.130992
45.2932	94.437	106.6113	134.6228	173.7922	253.4186	401.776	524.1776	551.4318	594.3201	751.2274	759.1882	825.6277	911.6821	970.9769	982.6931	997.8547	1022.6888	1113.959	1117.9625	1211.79	1246.1968	1287.094	1352.6925	1379.3631	1405.9891	1493.0595	1525.5401	1696.7999	1793.55	1834.5731	2920.2387	3050.7948	3066.3249	3081.9366	3117.3223
O=CC(=O)C1=NCCO1	O=CC(=O)C1=NCCO1	
InChI=1S/C5H5NO3/c7-3-4(8)5-6-1-2-9-5/h3H,1-2H2	InChI=1S/C5H5NO3/c7-3-4(8)5-6-1-2-9-5/h3H,1-2H2
