19
gdb 70364	2.82393	1.71532	1.37053	2.9442	73.83	-0.239	0.0826	0.3217	1000.0657	0.160112	-423.007131	-422.999573	-422.998629	-423.0389	29.974	
C	-0.2247875787	 1.4475123135	 0.1352259476	-0.493708
C	 0.1438358595	-0.0030062385	-0.0201882663	 0.400691
O	-0.3801542313	-0.9004607419	 0.9758325913	-0.28744
C	 1.0419544607	-0.7523156323	 0.8840074167	-0.011294
C	 1.7325721399	-1.8853807943	 0.1493711784	-0.268727
C	 1.0971745605	-1.9004671662	-1.2542579499	 0.126969
O	-0.0305519403	-2.7882182657	-1.4021646643	-0.290036
C	-0.9216813703	-1.6916086109	-1.6956153689	-0.076654
C	 0.1836502011	-0.6532822864	-1.3987007823	-0.158466
H	 0.4473508741	 2.0854582046	-0.4485851858	 0.121547
H	-1.2467581557	 1.6286476352	-0.2161119819	 0.129067
H	-0.1702461712	 1.747435155	 1.1846264842	 0.131498
H	 1.5129767059	-0.2918076196	 1.7509638401	 0.089055
H	 2.8094417699	-1.6888230474	 0.0894156468	 0.100013
H	 1.5911363318	-2.8504992926	 0.6454166765	 0.129174
H	 1.8367146623	-2.0763054871	-2.0446973349	 0.074052
H	-1.2587774011	-1.7125580249	-2.7393689059	 0.093398
H	-1.7858390594	-1.6767804028	-1.0246830252	 0.116389
H	 0.4118174124	 0.0626390523	-2.1898192363	 0.074473
124.8082	183.9444	210.7225	262.5864	295.3984	380.2877	428.4844	503.4079	582.7498	687.948	713.8727	790.635	816.0293	866.9512	875.1062	902.1367	958.565	987.6102	993.9593	1021.1531	1033.1454	1050.2366	1070.7336	1097.7736	1121.5502	1170.6278	1198.6554	1212.3505	1228.3864	1253.2968	1300.8452	1319.2984	1343.2163	1358.5688	1366.6364	1410.9252	1452.116	1462.5333	1485.045	1495.8277	1513.3843	3018.5747	3025.449	3033.6935	3046.1136	3083.471	3094.7563	3096.2722	3101.1626	3122.8657	3127.3885
CC12OC1CC1OCC21	C[C@]12O[C@H]1C[C@H]1OC[C@@H]21	
InChI=1S/C7H10O2/c1-7-4-3-8-5(4)2-6(7)9-7/h4-6H,2-3H2,1H3	InChI=1S/C7H10O2/c1-7-4-3-8-5(4)2-6(7)9-7/h4-6H,2-3H2,1H3/t4-,5-,6+,7-/m1/s1
