17
gdb 67775	2.84261	2.11543	1.58599	1.3351	75.55	-0.2158	-0.0226	0.1932	869.7136	0.136959	-384.638177	-384.631472	-384.630528	-384.668586	28.712	
O	-0.0534348973	 1.4400770684	 0.075016616	-0.490398
C	-0.0023112358	 0.055901878	 0.0197408186	 0.400565
C	 0.8988954757	-0.7025883563	 1.0037500446	-0.185369
C	 0.6497362773	-1.98234994	 0.7299960697	-0.098612
C	-0.3795633958	-1.9085398667	-0.3964674179	-0.067234
C	-1.3623440336	-0.7456470415	 0.0433924193	-0.092982
C	-2.053600596	-0.3488176578	-1.2587783049	-0.09825
C	-1.0684243088	-0.3651385863	-2.1593279429	-0.099748
C	 0.1575439094	-0.7665254542	-1.3489107081	-0.134801
H	 0.8469820227	 1.7809959058	 0.0658065066	 0.281306
H	 1.5506183236	-0.2505042567	 1.7397420549	 0.099759
H	 1.0539131191	-2.8799114683	 1.1773203978	 0.105059
H	-0.7862685588	-2.8221636949	-0.8282988038	 0.066309
H	-1.9354532851	-0.823930978	 0.9683828955	 0.060868
H	-3.0988478166	-0.1019450675	-1.3787491954	 0.100681
H	-1.092631186	-0.1310402511	-3.2143227316	 0.09879
H	 1.1316917662	-0.864577733	-1.8315886083	 0.054056
224.8	273.1013	279.6227	382.2509	426.3582	445.5074	590.8535	598.3552	640.0781	652.7729	696.1832	739.2592	776.2155	864.3104	902.8767	913.0331	917.057	924.9673	934.7804	953.6177	960.1039	992.1545	1027.3412	1077.4387	1091.6321	1131.8206	1178.0308	1182.4659	1220.7408	1231.1592	1258.2381	1292.9247	1316.8187	1325.2664	1356.9175	1634.1276	1646.5339	3101.8935	3110.6571	3129.5672	3207.2379	3217.0816	3236.2346	3244.1811	3811.5845
OC12C=CC3C1C=CC23	O[C@@]12C=C[C@H]3[C@@H]1C=C[C@@H]23	
InChI=1S/C8H8O/c9-8-4-3-5-6(8)1-2-7(5)8/h1-7,9H	InChI=1S/C8H8O/c9-8-4-3-5-6(8)1-2-7(5)8/h1-7,9H/t5-,6-,7+,8-
