21
gdb 76856	2.34406	1.72219	1.49408	1.2801	80.91	-0.2267	0.0615	0.2882	1023.0576	0.183287	-387.027597	-387.019342	-387.018398	-387.059843	33.201	
C	-0.3621710807	 1.5904952882	 0.0053777842	-0.417887
C	 0.0025338854	 0.1118488104	 0.0314440805	-0.024577
C	 1.0069079746	-0.4886836528	-1.0349110933	 0.058614
O	 1.7394241072	 0.3956245887	-1.8580532893	-0.412957
C	 1.8287863417	-1.1451403686	 0.1172996087	-0.035732
C	 3.0361083183	-0.4284858772	 0.7621439154	-0.050352
C	 2.8987361464	 1.0624240398	 0.792703992	-0.289584
C	 2.0939031708	 0.2535712767	 1.7752938037	-0.069317
C	 0.8840250991	-0.494615841	 1.1684036104	-0.039629
H	 0.5064765463	 2.2435182385	 0.0980512062	 0.13076
H	-0.8817399546	 1.8511493297	-0.924747009	 0.100682
H	-1.0410796297	 1.8270757262	 0.832002201	 0.115014
H	-0.9265289276	-0.4679369951	-0.0250652758	 0.067153
H	 0.5126308127	-1.2498536614	-1.654766533	 0.063818
H	 1.1459481443	 0.7253372432	-2.540114901	 0.284128
H	 1.9363635003	-2.2282360701	 0.0579594155	 0.062891
H	 3.9887889653	-0.9136784936	 0.9382337363	 0.080639
H	 3.742947986	 1.5731377786	 1.248046454	 0.103316
H	 2.4626786284	 1.5884315624	-0.0442626362	 0.13284
H	 2.234605639	 0.3891248813	 2.8415524891	 0.078393
H	 0.3660934268	-1.118981434	 1.8976332607	 0.061788
142.6527	164.8415	195.7592	227.8738	255.4248	281.9024	355.8134	485.7041	536.1037	606.775	643.3847	733.7658	738.7964	749.7785	811.6669	848.2703	898.9952	905.9158	919.1825	963.2311	998.2249	1024.1341	1028.4318	1052.2514	1065.8616	1097.3433	1105.8804	1125.4531	1163.1027	1172.22	1184.8552	1201.052	1214.4676	1249.5976	1287.0523	1301.8076	1321.8268	1328.05	1352.7656	1375.2372	1408.6405	1430.2925	1490.8849	1496.4902	1507.3252	2985.7758	3024.3905	3032.8435	3083.864	3092.866	3106.8844	3133.5265	3138.7333	3166.5624	3179.0309	3241.4505	3818.5677
CC1C(O)C2C3CC3C12	C[C@H]1[C@@H](O)[C@H]2[C@H]3C[C@H]3[C@@H]12	
InChI=1S/C8H12O/c1-3-6-4-2-5(4)7(6)8(3)9/h3-9H,2H2,1H3	InChI=1S/C8H12O/c1-3-6-4-2-5(4)7(6)8(3)9/h3-9H,2H2,1H3/t3-,4-,5+,6-,7+,8-/m1/s1
