12
gdb 21065	5.85347	1.6947	1.32523	5.3236	61.89	-0.2392	-0.0802	0.159	851.6899	0.083936	-410.797815	-410.790998	-410.790053	-410.829531	23.8	
C	-0.0264404033	 1.4658220881	 0.0098414128	-0.305997
N	-0.0134253926	 0.0080265057	 0.0011360767	 0.121616
N	-1.200016684	-0.6120882351	 0.0053045332	-0.173101
C	-1.1547247426	-1.9069812962	-0.0022862744	-0.055267
C	 0.09684425	-2.6595924026	-0.0145613253	 0.374395
O	 0.1655102447	-3.868316297	-0.0217781305	-0.329284
N	 1.2751863716	-1.8560914366	-0.0175716477	-0.236446
N	 1.187721833	-0.5878267778	-0.0098738622	-0.051416
H	 1.0092324397	 1.8003718694	 0.0032840158	 0.174636
H	-0.5511584989	 1.8346230581	-0.8743873617	 0.161398
H	-0.5364292165	 1.8243090478	 0.9068681209	 0.161367
H	-2.102376961	-2.4370228037	 0.0008913324	 0.158098
57.5037	103.4126	224.7051	345.9133	430.1999	470.3824	489.8604	526.4405	659.8672	780.829	792.33	813.1736	948.7179	981.4513	1008.5752	1153.0297	1197.816	1279.799	1326.8587	1359.2469	1442.8217	1478.5834	1481.9626	1504.145	1619.1557	1798.5877	3062.9101	3134.2086	3184.6331	3186.4672
CN1N=CC(=O)N=N1	Cn1ncc(=O)nn1	
InChI=1S/C3H4N4O/c1-7-4-2-3(8)5-6-7/h2H,1H3	InChI=1S/C3H4N4O/c1-7-4-2-3(8)5-6-7/h2H,1H3
