16
gdb 123805	5.35441	1.01226	0.90436	2.3782	72.15	-0.2286	0.0076	0.2361	1267.7671	0.12435	-437.853532	-437.845869	-437.844925	-437.886981	28.319	
C	-0.3920964015	 1.0508822842	-0.1951855438	-0.277455
C	 1.0670441356	 1.0660497099	 0.2189763508	-0.292234
C	 0.3645362123	-0.2286732954	-0.0104198179	 0.132686
O	 0.1224024813	-0.9916306905	 1.1614866752	-0.27442
C	-0.8706415162	-1.875308926	 1.1215034937	 0.540738
C	-1.3403950616	-2.7039998299	 2.0997769545	-0.404026
C	-2.3789537254	-3.398472132	 1.4347164608	 0.058034
N	-2.5326072931	-3.0373313711	 0.1832342051	-0.164212
O	-1.5466556781	-2.0428051953	-0.0190984686	-0.217452
H	-1.1237324981	 1.303155906	 0.5634648636	 0.132637
H	-0.6617801604	 1.3411119295	-1.204020514	 0.129136
H	 1.8191048382	 1.3725331395	-0.4985888644	 0.125669
H	 1.2856477747	 1.3240480837	 1.2486928573	 0.134071
H	 0.6078421752	-0.8389032244	-0.8733026527	 0.122715
H	-0.9941543171	-2.7929798392	 3.1138391314	 0.121581
H	-3.0332114057	-4.1629459089	 1.8315996689	 0.132532
48.8752	56.9991	151.2477	279.1222	352.6345	379.8237	488.445	632.6353	700.9568	710.9975	756.6755	764.7321	828.1199	842.4855	891.9419	924.3475	927.6634	968.7796	994.8169	1034.5391	1057.0324	1063.4221	1077.5033	1121.4717	1173.6001	1190.7344	1226.8672	1238.3336	1321.1114	1382.5161	1385.6931	1455.5509	1495.5395	1539.8431	1651.5952	3144.5515	3147.0102	3171.3607	3228.3398	3237.1072	3241.7282	3296.4837
C1CC1OC1=CC=NO1	C1CC1Oc1ccno1	
InChI=1S/C6H7NO2/c1-2-5(1)8-6-3-4-7-9-6/h3-5H,1-2H2	InChI=1S/C6H7NO2/c1-2-5(1)8-6-3-4-7-9-6/h3-5H,1-2H2
