19
gdb 74446	2.77733	1.53318	1.25768	1.375	76.14	-0.2183	0.0585	0.2769	1074.1119	0.160564	-419.233128	-419.224877	-419.223933	-419.265814	32.414	
C	-0.0519870324	 1.500426495	 0.0386875461	-0.453202
C	 0.0368539997	-0.0154247228	-0.0034983491	 0.314249
C	-1.2657238178	-0.8127162866	 0.3245122116	-0.259726
C	-0.4862711674	-1.6517406454	 1.3842629279	-0.243491
C	 0.7727519425	-0.7858352713	 1.1474486474	 0.04443
O	 1.8595575339	-1.4688278783	 0.4991979607	-0.26392
C	 1.659707687	-1.2503529752	-0.8352348266	 0.451451
N	 2.5209966556	-1.9500274686	-1.6361082284	-0.579538
N	 0.7126313378	-0.4845377373	-1.2171846126	-0.381685
H	 0.9430359249	 1.949669867	-0.0441502397	 0.113667
H	-0.6562549854	 1.8655484907	-0.7979160003	 0.126561
H	-0.5125480134	 1.8445878799	 0.9710575464	 0.103785
H	-2.0611741759	-0.1955199706	 0.7513073837	 0.094986
H	-1.6668310478	-1.3696085972	-0.5239489741	 0.107673
H	-0.8842269225	-1.6097933451	 2.4007871964	 0.102502
H	-0.3274694783	-2.6987720332	 1.1171644493	 0.113476
H	 1.1745748893	-0.2385982696	 2.0022123816	 0.079989
H	 3.4041227102	-2.1870685047	-1.2112081186	 0.261732
H	 2.5831438599	-1.5975489965	-2.5783860018	 0.267058
67.601	151.2248	217.0088	260.2705	302.9699	357.4615	404.3545	434.0845	466.6174	550.5682	596.6891	673.4234	685.762	740.1526	759.6698	816.155	893.6728	901.8947	937.1057	949.0327	953.698	983.3715	1046.9652	1128.6318	1144.5884	1167.1731	1179.9593	1206.8598	1226.4845	1248.961	1271.7912	1314.9444	1336.1749	1403.7333	1418.3207	1466.0449	1483.5382	1485.7999	1491.3298	1616.0144	1743.1899	3029.0023	3059.9167	3068.7531	3092.9025	3100.0561	3106.163	3114.5377	3131.4108	3589.6368	3703.5778
CC12CCC1OC(N)=N2	C[C@]12CC[C@H]1OC(=N2)N	
InChI=1S/C6H10N2O/c1-6-3-2-4(6)9-5(7)8-6/h4H,2-3H2,1H3,(H2,7,8)	InChI=1S/C6H10N2O/c1-6-3-2-4(6)9-5(7)8-6/h4H,2-3H2,1H3,(H2,7,8)/t4-,6+/m1/s1
