20
gdb 113983	3.11075	0.75902	0.65476	4.5296	80.76	-0.2529	0.038	0.2908	1704.8196	0.169713	-403.139701	-403.129819	-403.128874	-403.17551	35.02	
C	 0.1430360299	 0.9938942622	-0.3422401211	-0.239067
O	-0.382170798	-0.1218713319	 0.3534715949	-0.232721
C	 0.4903244587	-0.6223204126	 1.3143678229	 0.117339
C	 0.219750354	-2.0101187405	 1.7958329082	-0.330244
C	 1.4574314863	-1.7327980807	 0.9544950214	-0.05309
C	 1.5313416688	-2.2638559749	-0.4595659422	-0.211296
C	 1.8521162087	-3.7744220243	-0.4905177889	-0.331836
C	 1.9451662884	-4.3003619547	-1.8504702552	 0.255804
N	 2.0167067021	-4.6961956535	-2.9339213811	-0.306536
H	 1.0590179031	 0.7397025024	-0.8933800039	 0.112317
H	-0.6222802619	 1.3188146343	-1.050364793	 0.133042
H	 0.369165703	 1.8234093366	 0.3442238092	 0.110756
H	 0.8292543567	 0.1207391214	 2.0381079234	 0.087248
H	 0.3293454941	-2.2322139631	 2.8510265905	 0.117993
H	-0.6005919886	-2.5246729191	 1.3053897632	 0.127589
H	 2.4042270904	-1.7234365766	 1.4899668794	 0.087565
H	 0.5803336644	-2.0841659467	-0.9687402924	 0.134245
H	 2.3007349323	-1.728714065	-1.0276220591	 0.117743
H	 2.7999923861	-3.9724767833	 0.0235510937	 0.148692
H	 1.0801529217	-4.3322996599	 0.0510255298	 0.154458
67.5499	73.1276	94.1456	130.2567	173.2417	218.5169	235.1086	301.1258	381.123	408.6256	479.2587	523.4862	616.5181	767.3745	780.5082	819.004	864.8488	930.2969	953.1075	1011.7388	1034.9218	1048.4752	1072.5647	1107.3632	1131.5645	1145.2802	1162.8389	1184.4317	1218.4984	1236.6884	1259.5352	1283.2932	1316.7903	1361.2901	1395.5227	1416.4612	1467.9235	1474.6066	1485.9479	1492.3487	1499.2848	1510.6265	2361.2736	2987.8073	3039.0203	3041.7373	3048.0802	3078.6494	3086.0594	3102.8854	3124.1074	3132.6351	3134.6821	3223.1233
COC1CC1CCC#N	CO[C@H]1C[C@H]1CCC#N	
InChI=1S/C7H11NO/c1-9-7-5-6(7)3-2-4-8/h6-7H,2-3,5H2,1H3	InChI=1S/C7H11NO/c1-9-7-5-6(7)3-2-4-8/h6-7H,2-3,5H2,1H3/t6-,7+/m1/s1
