15
gdb 5539	3.3477	1.91704	1.30908	1.9312	63.59	-0.1939	0.035	0.229	914.1808	0.120732	-396.005218	-395.997497	-395.996552	-396.037757	28.094	
C	 0.2562222964	 0.9582276256	 0.5914154223	-0.325572
N	-0.3817896719	 0.4559117663	-0.6333414788	-0.398156
C	 0.3566982186	-0.4998138661	-1.3474996599	 0.172184
C	 0.7675467509	-1.7920134371	-1.1116524304	 0.301853
O	 0.5063371594	-2.5225071349	-0.0006137403	-0.445656
N	 1.4892831757	-2.2953903999	-2.1509960154	-0.340302
C	 1.5370705882	-1.3188221517	-3.0421111391	 0.005364
N	 0.8761208961	-0.2219768762	-2.6108539795	-0.262606
H	 0.4922190933	 0.1696354079	 1.3197499125	 0.12525
H	 1.1869441423	 1.4695195115	 0.3286255262	 0.124472
H	-0.4088217897	 1.6871104973	 1.0648100264	 0.114989
H	-1.3112269729	 0.1113194192	-0.4208689581	 0.235271
H	 0.9281655368	-3.3792011221	-0.1383922865	 0.29838
H	 2.0344096908	-1.3670979935	-3.998608352	 0.129467
H	 0.7441714261	 0.6510786137	-3.0939131474	 0.265064
43.0003	151.7249	183.8594	275.0577	306.4681	362.8695	422.1298	477.293	529.7888	649.648	653.3318	719.2783	742.6926	781.0265	803.9797	952.8242	1040.2079	1103.2835	1126.4912	1148.9252	1176.1828	1230.9809	1299.0368	1353.5781	1399.8664	1451.4877	1470.9506	1485.8325	1496.3676	1514.4366	1520.5825	1682.9963	3002.7482	3076.9648	3110.7451	3255.4436	3524.1805	3664.8421	3803.9947
CNC1=C(O)N=CN1	CNc1c(O)nc[nH]1	
InChI=1S/C4H7N3O/c1-5-3-4(8)7-2-6-3/h2,5,8H,1H3,(H,6,7)	InChI=1S/C4H7N3O/c1-5-3-4(8)7-2-6-3/h2,5,8H,1H3,(H,6,7)
