18
gdb 62761	3.66935	1.24086	1.19983	4.8385	71.63	-0.2452	0.0499	0.2951	1103.9515	0.147627	-439.124838	-439.116399	-439.115455	-439.15757	32.114	
C	-0.0712687472	 1.5561313879	-0.0411882813	-0.471648
C	 0.0115378185	 0.0453908638	-0.0382577732	 0.239045
C	-1.1807187496	-0.6603231308	 0.5818734636	-0.44955
C	 0.6716974979	-0.7221619065	-1.1879936146	-0.087139
N	 1.6258950201	-0.0478692396	-2.0093139536	-0.362348
C	 2.6747483765	 0.4740296251	-1.2809435811	 0.463096
O	 3.5651767984	 1.1811494133	-1.6573669521	-0.389302
O	 2.535765371	 0.0525144328	 0.0243491615	-0.237762
C	 1.3309118724	-0.6698984176	 0.1677095076	 0.044156
H	 0.7893454959	 2.0309058991	-0.5155085136	 0.146474
H	-0.9712405686	 1.8868595395	-0.5716744126	 0.11878
H	-0.1305079356	 1.9361356366	 0.9843601587	 0.128826
H	-2.1019925966	-0.4129013302	 0.0427749141	 0.123698
H	-1.0657119194	-1.7492001104	 0.5598167964	 0.117855
H	-1.3110944538	-0.3611953888	 1.6277233786	 0.126819
H	 0.2135579678	-1.6163090765	-1.5972109435	 0.109149
H	 1.415006854	 0.3601457241	-2.9044685511	 0.265214
H	 1.4262182383	-1.5119128319	 0.8425916861	 0.114636
112.6886	143.3534	179.8975	213.6914	280.8997	284.7627	336.0697	419.6358	482.978	505.0493	529.3431	700.9112	737.1783	765.5094	777.3768	839.5414	868.5641	916.6936	977.9067	985.2049	1025.8708	1055.8466	1082.0779	1120.9936	1142.7535	1156.3144	1208.5572	1237.4498	1322.9309	1364.0275	1384.8208	1414.3401	1419.6948	1440.7695	1481.3117	1491.4031	1501.1651	1511.6625	1894.9487	3025.6119	3036.2181	3091.2009	3093.6547	3096.6045	3132.6793	3159.8232	3185.3825	3665.4181
CC1(C)C2NC(=O)OC12	CC1(C)[C@H]2NC(=O)O[C@@H]12	
InChI=1S/C6H9NO2/c1-6(2)3-4(6)9-5(8)7-3/h3-4H,1-2H3,(H,7,8)	InChI=1S/C6H9NO2/c1-6(2)3-4(6)9-5(8)7-3/h3-4H,1-2H3,(H,7,8)/t3-,4+/m0/s1
