17
gdb 94790	2.75262	1.52248	1.16092	1.9825	68.81	-0.2432	-0.0444	0.1988	1076.8047	0.134693	-458.95626	-458.947914	-458.94697	-458.989561	30.717	
C	 0.4129086921	 1.4233871849	-0.1987243203	-0.4032
C	-0.1016886378	 0.0229072264	 0.1466200658	 0.01208
O	 0.0517976723	-0.907190748	-0.928071167	-0.270201
C	 1.2643069549	-1.6450119807	-0.7666971311	-0.190947
C	 1.4672199284	-1.7373651181	 0.7321363519	 0.311859
C	 1.7208595686	-2.9560373563	 1.5183075573	-0.226776
O	 2.7515250781	-2.002314615	 1.2808164941	-0.255602
C	 0.6713839376	-0.5870853138	 1.315145332	 0.312559
O	 0.6708849527	-0.2271679239	 2.462336897	-0.31313
H	 1.480063855	 1.406631762	-0.4414716727	 0.126397
H	-0.1314668243	 1.8167037739	-1.0607598891	 0.133093
H	 0.2656054824	 2.0915447229	 0.6545153693	 0.141773
H	-1.1687514629	 0.0677176457	 0.3904646452	 0.116251
H	 1.1341125101	-2.6108683451	-1.260366313	 0.123957
H	 2.1202685237	-1.1297395127	-1.2285304919	 0.115779
H	 1.3618870834	-3.0032366144	 2.5448110012	 0.139924
H	 1.8226230058	-3.904975668	 0.9934931911	 0.126184
55.8896	126.6887	211.8077	224.4206	254.6593	265.7933	349.7918	388.4193	468.8201	561.9465	644.8745	686.4197	756.024	856.6903	866.918	879.2314	951.1211	970.1147	1030.471	1065.9352	1094.727	1114.3035	1131.7843	1134.7705	1174.823	1223.4751	1232.1552	1299.5925	1339.1026	1363.9601	1396.0835	1428.2889	1486.6066	1494.6137	1512.4333	1516.0947	1857.6385	2992.6804	3043.35	3054.2368	3085.8923	3096.9001	3118.8208	3130.7204	3184.233
CC1OCC2(CO2)C1=O	C[C@H]1OC[C@]2(CO2)C1=O	
InChI=1S/C6H8O3/c1-4-5(7)6(2-8-4)3-9-6/h4H,2-3H2,1H3	InChI=1S/C6H8O3/c1-4-5(7)6(2-8-4)3-9-6/h4H,2-3H2,1H3/t4-,6+/m1/s1
