15
gdb 52353	6.66622	0.51385	0.49676	6.4494	81.88	-0.2715	-0.042	0.2295	2058.2058	0.112114	-416.822192	-416.812738	-416.811794	-416.858075	31.85	
O	 0.5536017664	 1.0293381475	-1.5229816933	-0.317105
C	 0.2542074778	 1.5822426593	-0.4854757444	 0.14783
N	 1.0825268512	 1.6898985117	 0.5881594851	-0.268252
C	 2.4142436546	 1.1137127808	 0.5834697728	-0.159869
C	 3.395908654	 1.9227236827	-0.3029118303	-0.366303
C	 4.7390167508	 1.3760036424	-0.2718345719	 0.060774
C	 5.8488104134	 0.90070501	-0.2182080361	 0.073847
C	 7.1053091188	 0.3703689719	-0.1610874476	 0.20859
N	 8.1747872052	-0.0805378902	-0.1088401663	-0.336629
H	-0.7306911076	 2.0554966837	-0.307165468	 0.08763
H	 0.7620984396	 2.1899362441	 1.4012393377	 0.257424
H	 2.7795137675	 1.0740247433	 1.6117530102	 0.128818
H	 2.3574436052	 0.0914261512	 0.2002077773	 0.155878
H	 3.0111543312	 1.9134967511	-1.3285470527	 0.183341
H	 3.4165627818	 2.9680462105	 0.0289999077	 0.144027
42.4096	68.4476	79.4501	157.5075	184.1587	221.9724	269.4472	372.9263	376.2529	467.3516	499.3251	577.2698	580.8307	722.0777	743.3622	827.0963	977.4372	1008.1566	1036.1324	1079.7308	1173.4251	1203.2666	1242.446	1297.9106	1335.0117	1398.0913	1425.7578	1466.4281	1478.0127	1521.9387	1799.7805	2266.1787	2401.5411	2950.8554	3034.8001	3071.3358	3081.9238	3127.1372	3645.3061
O=CNCCC#CC#N	O=CNCCC#CC#N	
InChI=1S/C6H6N2O/c7-4-2-1-3-5-8-6-9/h6H,3,5H2,(H,8,9)	InChI=1S/C6H6N2O/c7-4-2-1-3-5-8-6-9/h6H,3,5H2,(H,8,9)
