17
gdb 34639	3.06233	1.36582	1.00855	5.152	80.68	-0.2562	-0.042	0.2142	1151.4966	0.138868	-380.876671	-380.869098	-380.868153	-380.90895	29.04	
N	 0.0966117151	-1.1517145803	-0.1943288628	-0.338081
C	 0.0204236996	-0.0004682934	-0.0890830932	 0.209379
C	-0.0271368194	 1.422849703	 0.0247596138	 0.217814
C	-1.1956903604	 2.0827985525	 0.0430116653	-0.127485
C	-1.2801472472	 3.5802350072	 0.1528390694	-0.263539
C	-0.0892960274	 4.1995859795	 0.9116340319	-0.217578
C	 1.2458703855	 3.5775851981	 0.5165217327	-0.036204
N	 1.7640294791	 2.5369564919	 1.4274853911	-0.324155
C	 1.2727604612	 2.1572780735	 0.0865324164	-0.155403
H	-2.1232468943	 1.5237483918	-0.0361252181	 0.119332
H	-1.3437643305	 3.9977497229	-0.8634256601	 0.12802
H	-2.2197626084	 3.8589175701	 0.6411625856	 0.119726
H	-0.0682836943	 5.2804265045	 0.7423290351	 0.103626
H	-0.2297945655	 4.0418650578	 1.9849597378	 0.128591
H	 1.972016088	 4.2411165022	 0.0543598493	 0.093061
H	 2.7815760893	 2.5391106907	 1.4265711542	 0.236471
H	 2.0098002097	 1.8481483482	-0.6503412685	 0.106425
89.3382	144.6312	183.0209	250.9692	380.7114	413.1854	455.5763	513.566	568.0358	615.3922	662.0984	775.9319	791.1169	868.9901	889.3668	912.3731	929.023	935.3927	992.0162	1036.9111	1073.4051	1109.7966	1150.7612	1174.5807	1208.7005	1223.4817	1249.943	1279.4834	1329.4013	1350.2727	1379.4227	1409.9899	1457.7841	1470.4221	1483.232	1687.2026	2335.0434	3000.8336	3051.5652	3069.4436	3098.1599	3135.791	3145.1267	3179.389	3495.1924
N#CC1=CCCC2NC12	N#CC1=CCC[C@H]2N[C@@H]12	
InChI=1S/C7H8N2/c8-4-5-2-1-3-6-7(5)9-6/h2,6-7,9H,1,3H2	InChI=1S/C7H8N2/c8-4-5-2-1-3-6-7(5)9-6/h2,6-7,9H,1,3H2/t6-,7+/m1/s1
