15
gdb 44704	3.36458	1.35408	1.12764	4.8218	65.27	-0.2567	-0.0517	0.205	1052.2423	0.112812	-457.810413	-457.803162	-457.802217	-457.843091	27.124	
O	 0.1199489547	 0.0883146656	-0.6884956535	-0.265678
C	 0.0522431151	 1.1667028455	-0.1849451672	 0.398374
C	-1.085867599	 2.001615368	 0.4320121214	-0.374425
C	-0.1032762103	 3.2101056023	 0.5434712821	-0.049848
C	 0.3323915861	 3.6313709417	 1.9404657413	-0.377741
C	 1.5417561402	 2.7533783698	 2.2664036168	 0.421048
O	 2.1143684059	 2.6375672	 3.3062825878	-0.314964
O	 1.9377464304	 2.0732957503	 1.142596466	-0.216571
C	 1.0789268611	 2.3162566583	 0.0326039218	-0.020871
H	-1.9459955908	 2.1349753658	-0.2292634277	 0.145313
H	-1.448008546	 1.6094045276	 1.3882237633	 0.143887
H	-0.360788778	 4.0434422084	-0.108244969	 0.099053
H	 0.658034797	 4.6755124675	 1.9828042256	 0.149577
H	-0.4294401106	 3.499891302	 2.7121518664	 0.147992
H	 1.6768141142	 2.6235537171	-0.8285014951	 0.114854
48.0692	92.5119	216.7342	334.8879	420.8828	472.4299	517.0486	547.0488	605.1213	661.4213	744.2768	778.0813	821.9254	866.629	876.6641	938.5748	1008.8257	1047.6483	1071.2357	1089.6991	1108.5141	1150.7607	1177.5534	1198.9599	1236.4881	1260.0464	1289.9953	1329.9331	1342.0476	1434.3866	1463.5615	1891.0371	1907.8896	3056.9598	3066.8386	3090.3296	3110.8987	3114.6672	3128.2497
O=C1CC2CC(=O)OC12	O=C1C[C@H]2CC(=O)O[C@@H]12	
InChI=1S/C6H6O3/c7-4-1-3-2-5(8)9-6(3)4/h3,6H,1-2H2	InChI=1S/C6H6O3/c7-4-1-3-2-5(8)9-6(3)4/h3,6H,1-2H2/t3-,6+/m0/s1
