21
gdb 108069	2.60252	1.64402	1.19136	1.0992	82.99	-0.2241	0.0965	0.3206	1119.1371	0.181881	-387.034005	-387.025302	-387.024358	-387.06705	33.723	
C	 0.1819701613	 1.2230325232	-0.1879930606	-0.254022
O	-0.190373565	-0.0744818167	 0.2434567667	-0.288377
C	 0.5511639656	-0.5596247454	 1.2941791177	 0.40371
C	 0.6798621535	 0.0093753883	 2.7055737424	-0.301485
C	 1.8303682158	-1.0265692403	 2.87273972	-0.066839
C	 1.1090145136	-2.3997882967	 2.820194076	-0.28036
C	 0.8137893222	-2.0720500897	 1.3557244333	 0.282027
C	 0.3126144361	-2.9991396911	 0.2899295993	-0.502129
C	 1.9768689844	-1.0863968776	 1.2986912946	-0.217443
H	 1.2435032092	 1.2627916791	-0.4683658745	 0.109769
H	-0.4320024207	 1.4549111521	-1.0611382966	 0.126374
H	-0.0040743297	 1.9792085668	 0.586616377	 0.113707
H	 1.0644562983	 1.0336740245	 2.6965898066	 0.09437
H	-0.1732454094	-0.0618171151	 3.3907089705	 0.088218
H	 2.6380282433	-0.8369152578	 3.5755501112	 0.070876
H	 1.8120263176	-3.2352366971	 2.8990891955	 0.093631
H	 0.2706280379	-2.5592099956	 3.5100612269	 0.083207
H	-0.6956972136	-3.3598439482	 0.5257723289	 0.118712
H	 0.2599312353	-2.4897498227	-0.6761145077	 0.127712
H	 0.9642520224	-3.8738744134	 0.1855162407	 0.111298
H	 2.808784302	-0.9891134068	 0.6163306316	 0.087045
90.5106	156.8606	171.8426	190.8729	223.6746	284.7847	366.0646	408.2899	432.6501	513.9474	588.4096	670.2251	722.2607	765.9979	809.3273	865.2666	881.3172	899.8971	945.279	979.0971	989.9527	1032.4531	1058.0282	1072.5046	1099.1168	1110.9949	1138.8268	1167.0348	1178.1662	1179.5352	1205.0497	1224.9131	1253.2887	1263.1396	1276.1393	1358.2234	1403.6665	1420.8029	1479.3014	1486.7947	1489.1467	1495.5681	1496.3448	1506.5572	1513.7358	2996.5971	3017.9685	3025.4717	3030.2551	3051.9894	3080.0521	3081.5679	3089.3384	3113.3104	3121.1713	3141.7794	3221.0696
COC12CC3CC1(C)C23	CO[C@@]12C[C@H]3C[C@]1(C)[C@@H]23	
InChI=1S/C8H12O/c1-7-3-5-4-8(7,9-2)6(5)7/h5-6H,3-4H2,1-2H3	InChI=1S/C8H12O/c1-7-3-5-4-8(7,9-2)6(5)7/h5-6H,3-4H2,1-2H3/t5-,6+,7-,8-/m1/s1
