23
gdb 56807	2.22468	1.23414	0.92234	0.756	91.67	-0.2522	0.0557	0.3078	1384.1718	0.20299	-351.116398	-351.105517	-351.104573	-351.152125	40.265	
C	 2.5128970092	 0.6333463374	 0.8680140629	-0.392093
C	 1.4650391662	-0.4717412122	 0.6146413005	-0.182263
C	 0.1444272066	-0.0520187823	 1.0902768446	 0.339101
C	-0.936589507	 0.3149232494	 1.4684106051	-0.474089
C	 1.4085895047	-0.8441283823	-0.8654302453	-0.004116
C	 2.3552150216	-1.8453547891	-1.5014764156	-0.044248
C	 3.4373819369	-2.5817293877	-0.7386666658	-0.408599
C	 0.8794051219	-2.1708355583	-1.3658918795	-0.029211
C	 0.3489592113	-3.248880324	-0.4426472985	-0.409474
H	 3.5045685696	 0.2910668665	 0.5588048516	 0.118471
H	 2.2660393419	 1.5336673012	 0.2972881357	 0.124312
H	 2.5487461004	 0.9030816507	 1.9268848966	 0.121607
H	 1.7616449665	-1.3500470906	 1.199320409	 0.099058
H	-1.8926134441	 0.6280154193	 1.8077977778	 0.190932
H	 1.1580359051	 0.0159908606	-1.4822475963	 0.084233
H	 2.668238552	-1.5799661492	-2.5088551582	 0.080336
H	 3.1394656424	-2.8514346529	 0.2772722618	 0.116177
H	 3.7064451306	-3.5112994677	-1.2526981265	 0.116482
H	 4.3467339614	-1.9748391918	-0.662598444	 0.117751
H	 0.3138525165	-2.1035754704	-2.2923663603	 0.079988
H	 0.9298873044	-3.3488314298	 0.477273265	 0.113628
H	-0.6842275808	-3.0336276301	-0.151140524	 0.128451
H	 0.3603043229	-4.2246658466	-0.9408977565	 0.113565
55.3298	100.5933	150.0093	162.3781	179.5976	191.6796	223.6321	242.5653	274.1284	293.2365	445.7217	476.3722	491.9294	534.7619	591.1514	623.6293	627.9391	762.6582	773.6917	814.8208	878.6039	947.4602	952.108	988.8443	1030.1281	1048.2143	1079.3708	1108.4728	1120.9172	1136.1927	1161.8318	1188.6827	1191.7327	1273.1254	1286.2257	1320.645	1379.545	1390.6042	1406.8895	1419.3918	1425.3652	1452.7729	1488.4477	1491.7827	1493.2014	1497.9953	1503.7114	1514.0417	2231.3964	3030.9564	3034.9674	3040.0082	3041.6577	3083.8384	3093.22	3106.302	3114.1556	3117.3997	3121.075	3124.3075	3124.8378	3141.0408	3505.1491
CC(C#C)C1C(C)C1C	C[C@@H](C#C)[C@H]1[C@@H](C)[C@H]1C	
InChI=1S/C9H14/c1-5-6(2)9-7(3)8(9)4/h1,6-9H,2-4H3	InChI=1S/C9H14/c1-5-6(2)9-7(3)8(9)4/h1,6-9H,2-4H3/t6-,7-,8+,9-/m0/s1
