12
gdb 21570	4.02993	1.91051	1.29673	7.2811	61.24	-0.2439	-0.0663	0.1776	851.1007	0.084428	-414.668603	-414.661952	-414.661008	-414.699289	25.125	
N	 0.036699275	 1.3796951616	-0.1133431107	-0.585526
C	-0.0168001399	 0.0165719246	-0.0400639126	 0.35677
C	-1.1605656487	-0.7215353502	-0.0175372702	-0.359729
C	-1.1096141571	-2.1578770323	 0.0065462241	 0.452834
O	-2.0312384849	-2.928102586	 0.0258025613	-0.343097
O	 0.1869261703	-2.7310152237	 0.0151251095	-0.264065
N	 1.3394621166	-1.9945294249	-0.003691098	-0.043664
C	 1.2335219164	-0.71327478	-0.0319372391	-0.002158
H	 0.8913637601	 1.8442291849	 0.1452767799	 0.26867
H	-0.8056526982	 1.9022365769	 0.0652098659	 0.270804
H	-2.1472888698	-0.2743460148	-0.0186889056	 0.118072
H	 2.1824925501	-0.1837755961	-0.0528521244	 0.131088
150.8347	182.7958	329.5744	357.1416	400.979	459.4881	478.4093	509.6191	574.387	697.6438	723.6599	728.9268	860.4777	865.0207	894.9243	972.8951	1007.3824	1087.6835	1196.1916	1292.384	1354.4515	1445.1264	1608.8355	1653.5046	1695.2436	1847.7498	3168.6805	3205.5246	3599.1974	3711.047
NC1=CC(=O)ON=C1	Nc1cc(=O)onc1	
InChI=1S/C4H4N2O2/c5-3-1-4(7)8-6-2-3/h1-2H,5H2	InChI=1S/C4H4N2O2/c5-3-1-4(7)8-6-2-3/h1-2H,5H2
