13
gdb 21926	5.35925	1.58018	1.2297	4.3854	61.35	-0.2346	-0.0691	0.1656	905.8256	0.096616	-394.779471	-394.772554	-394.77161	-394.811245	24.275	
O	-0.0040005169	 1.4268014583	 0.0071045494	-0.413622
C	 0.0081225316	 0.0159243165	 0.0022633779	-0.159231
C	-1.4088935293	-0.4932601004	 0.0123991061	 0.301608
C	-2.5241578384	 0.352046604	 0.0237245305	-0.011958
N	-3.7648837305	-0.1274911415	 0.0324076614	-0.174199
N	-3.9394428452	-1.4477672168	 0.0302024218	-0.185574
C	-2.8505050702	-2.215642399	 0.0193931483	 0.0971
N	-1.5782634049	-1.8112889064	 0.0101893373	-0.291069
H	 0.9039052615	 1.7413864122	 0.0008636204	 0.301307
H	 0.5107242743	-0.3961308893	-0.8869917952	 0.125577
H	 0.525551736	-0.4021282991	 0.880124026	 0.125585
H	-2.4161522654	 1.4293890863	 0.0258399004	 0.148977
H	-3.0316853725	-3.286980955	 0.0178279555	 0.135499
55.6192	166.1251	217.2897	218.7965	369.8357	447.9505	479.5646	590.3552	687.9485	802.2088	849.0144	925.9467	1002.9371	1032.0487	1040.6133	1076.3709	1108.3524	1154.2688	1207.4009	1242.8995	1253.6432	1320.1728	1334.8039	1451.6565	1481.7344	1497.0524	1566.9791	1595.409	2978.4351	3004.9132	3179.7306	3221.0565	3848.5727
OCC1=CN=NC=N1	OCc1cnncn1	
InChI=1S/C4H5N3O/c8-2-4-1-6-7-3-5-4/h1,3,8H,2H2	InChI=1S/C4H5N3O/c8-2-4-1-6-7-3-5-4/h1,3,8H,2H2
