17
gdb 37851	2.66739	2.58908	2.01333	0.7997	68.2	-0.2468	0.0577	0.3045	768.5953	0.14071	-421.796169	-421.791003	-421.790059	-421.825391	23.565	
C	-0.0274588341	 1.5492318896	 0.0656569207	-0.225316
C	 1.5174944628	 1.4435506927	-0.0003681665	-0.100723
C	 2.0170991469	 0.8437463667	 1.3630374897	 0.044256
O	 0.8874638007	 0.5909327717	 2.2341036108	-0.283637
C	 0.5609682568	-0.526511652	 1.3718598007	 0.044256
C	-0.0161595452	 0.0003416346	 0.0089228109	-0.100723
C	 1.320326419	 0.1113688616	-0.8062042456	 0.100169
O	 2.237491398	-0.8603900387	-0.3582570256	-0.237105
C	 2.0766671677	-0.6806509913	 1.0142245615	 0.061404
H	-0.4625033465	 2.0172178922	 0.9475428033	 0.119865
H	-0.4423871033	 1.9842927164	-0.8463142674	 0.097532
H	 2.1296379728	 2.2550485922	-0.3926012225	 0.068249
H	 2.8267487742	 1.3794940926	 1.8575310117	 0.082306
H	-0.0197403032	-1.2991270016	 1.8747763373	 0.082306
H	-0.8658157602	-0.5637530731	-0.37445274	 0.068249
H	 1.2798566565	 0.1473790434	-1.892968741	 0.084897
H	 2.705709647	-1.3453394672	 1.6006547321	 0.094015
422.7412	442.3815	523.0706	525.3138	638.5676	647.2339	713.5938	766.3376	791.844	830.8408	855.3643	867.4673	881.9103	890.8902	946.3953	956.2414	966.1556	991.5445	1030.412	1047.7182	1051.6842	1093.2983	1111.8837	1128.238	1146.2791	1192.0365	1201.5315	1238.9639	1239.5144	1250.7754	1277.567	1281.1558	1301.366	1312.8991	1338.2865	1377.8102	1480.2603	3077.3	3110.3361	3112.0965	3123.8756	3125.6923	3144.6885	3147.3034	3163.7905
C1C2C3OC4C1C2OC34	C1[C@H]2[C@H]3O[C@H]4[C@@H]1[C@@H]2O[C@@H]34	
InChI=1S/C7H8O2/c1-2-4-3(1)6-7(8-4)5(2)9-6/h2-7H,1H2	InChI=1S/C7H8O2/c1-2-4-3(1)6-7(8-4)5(2)9-6/h2-7H,1H2/t2-,3+,4-,5-,6+,7+
