14
gdb 131568	7.19751	0.63641	0.6065	5.5346	79.23	-0.2455	-0.0382	0.2073	1740.3046	0.101643	-432.826641	-432.818246	-432.817301	-432.861735	28.786	
O	 0.3493503458	 0.6991397397	 1.0013009389	-0.406367
C	-0.0578959307	 0.1862175755	-0.2594251827	-0.226477
C	-1.4092991931	-0.3472754437	-0.1569968702	 0.179145
C	-2.5292970036	-0.7910117924	-0.0968041017	 0.0177
C	-3.8322296708	-1.3123414119	-0.0191201926	 0.245678
C	-5.0574679657	-0.8885338707	-0.5054101938	-0.217864
N	-6.0123598244	-1.7807396994	-0.1417262727	-0.170957
N	-5.4610834999	-2.741977127	 0.5480774539	-0.105968
N	-4.1513187431	-2.4719016618	 0.6255141211	-0.280747
H	 1.2406769628	 1.0479198604	 0.8961775092	 0.2944
H	-0.0480524118	 0.9672453398	-1.0369385425	 0.12788
H	 0.6159413066	-0.6150562553	-0.6047118806	 0.124455
H	-5.2831738762	-0.0079132927	-1.0835003321	 0.131747
H	-3.5358424358	-3.0929795307	 1.127615666	 0.287376
20.9586	79.5144	98.3925	204.0491	221.4687	306.1687	398.757	478.8239	515.8951	588.8543	613.584	707.2334	725.3008	859.8237	939.2923	995.9802	1022.5733	1059.2945	1083.6003	1096.345	1151.8835	1228.1257	1245.9803	1252.7156	1344.0023	1360.5041	1406.7886	1457.9897	1498.2407	1595.7101	2358.0564	2965.0621	2985.8018	3280.8026	3651.665	3816.9335
OCC#CC1=CN=NN1	OCC#Cc1cnn[nH]1	
InChI=1S/C5H5N3O/c9-3-1-2-5-4-6-8-7-5/h4,9H,3H2,(H,6,7,8)	InChI=1S/C5H5N3O/c9-3-1-2-5-4-6-8-7-5/h4,9H,3H2,(H,6,7,8)
