19
gdb 26360	2.5497	1.46007	1.0112	1.5598	78.91	-0.1915	0.0364	0.2278	1198.7038	0.160022	-419.209581	-419.200568	-419.199624	-419.243005	34.248	
C	-0.0502552177	 1.5467762635	 0.5236706412	-0.327101
N	-0.1187636173	 0.2045455931	-0.0293920191	-0.168465
C	 0.939683196	-0.6646997352	 0.4881295912	-0.346717
C	-1.402736458	-0.369916141	-0.0063801974	 0.211494
C	-2.524602308	 0.0227902454	 0.6656766637	-0.096029
O	-3.5770071991	-0.7792481212	 0.3549218881	-0.160468
C	-3.1192115953	-1.7124896648	-0.5325371889	-0.077539
C	-1.8004519255	-1.5109408515	-0.7998992397	 0.133947
N	-0.9257961701	-2.2380651783	-1.6235325069	-0.616299
H	 0.940907143	 1.9681802275	 0.3295533006	 0.118066
H	-0.8002973048	 2.1810891588	 0.0435598125	 0.127062
H	-0.2189454672	 1.5739299515	 1.6157276736	 0.100353
H	 0.8881563589	-0.7784896489	 1.5847129326	 0.102377
H	 0.8602645113	-1.6553316786	 0.0367094326	 0.149413
H	 1.9152611521	-0.2382643173	 0.2324125514	 0.112424
H	-2.7311057783	 0.8303992956	 1.3465103354	 0.126282
H	-3.8413613594	-2.4321346454	-0.8799270498	 0.119416
H	-1.4141824556	-2.8200038437	-2.2924766528	 0.242439
H	-0.297404735	-1.6154159096	-2.120168458	 0.249346
71.3356	161.7863	185.4259	254.0947	269.535	278.8086	301.1058	328.3446	379.0443	448.6453	521.5342	596.2233	597.9016	656.3108	708.5951	718.6123	745.1984	821.3833	882.4545	959.3937	1072.2959	1075.4571	1109.4413	1123.5003	1176.6084	1184.6031	1200.5187	1235.0248	1276.1839	1306.2936	1362.6834	1438.0166	1443.0632	1470.1686	1482.2575	1498.797	1503.5892	1517.7461	1601.9599	1636.5487	1681.9918	2939.9162	2958.9139	3064.3798	3067.0845	3114.4135	3132.1581	3274.9065	3285.3499	3512.8696	3608.9704
CN(C)C1=COC=C1N	CN(C)c1cocc1N	
InChI=1S/C6H10N2O/c1-8(2)6-4-9-3-5(6)7/h3-4H,7H2,1-2H3	InChI=1S/C6H10N2O/c1-8(2)6-4-9-3-5(6)7/h3-4H,7H2,1-2H3
