15
gdb 27800	2.01375	1.95442	0.99791	3.3156	72.65	-0.2292	-0.0331	0.1961	1123.4024	0.11479	-450.200989	-450.193172	-450.192228	-450.233536	29.234	
C	-0.0199652299	 1.4770206688	 0.0252318993	-0.454457
C	 0.0008580045	-0.0216929306	-0.0185496795	 0.335837
N	-0.0194977385	-0.6133025487	-1.1777051154	-0.332491
C	-0.0000738287	-1.9990207768	-1.2216568676	 0.403908
N	-0.0147592332	-2.7444470993	-2.2533207319	-0.56249
N	 0.0410307425	-2.6437912552	 0.0392576036	-0.34607
C	 0.059008693	-1.931875675	 1.1731030656	 0.515249
O	 0.0977647556	-2.6574579643	 2.2900767955	-0.394895
N	 0.0410054844	-0.6325452131	 1.2201746161	-0.421056
H	 0.8680922138	 1.8446681547	 0.5499952877	 0.142426
H	-0.0535688944	 1.8879344397	-0.9829793217	 0.14216
H	-0.8880505289	 1.8190128174	 0.5984445004	 0.142369
H	-0.0442237095	-2.1508220092	-3.0807167612	 0.227099
H	 0.0563034824	-3.6538448785	 0.0523372993	 0.283175
H	 0.1067334569	-2.0225103998	 3.0214885099	 0.319237
110.4319	126.674	185.0044	212.9225	305.5384	359.5965	531.5201	546.7904	556.8451	564.8476	602.9236	649.515	657.2674	746.699	786.6625	863.8026	940.5417	983.8538	1006.5818	1061.7822	1103.7722	1124.1191	1213.2423	1291.4477	1326.0539	1380.627	1421.3357	1462.5029	1474.0407	1552.1991	1602.525	1686.4272	1741.5787	3046.1428	3102.3365	3165.6881	3513.114	3616.8201	3763.017
CC1=NC(=N)NC(O)=N1	C[C@H]1N=C([NH])NC(=N1)O	
InChI=1S/C4H6N4O/c1-2-6-3(5)8-4(9)7-2/h1H3,(H3,5,6,7,8,9)	InChI=1S/C4H7N4O/c1-2-6-3(5)8-4(9)7-2/h2,5H,1H3,(H2,6,7,8,9)/t2-/m0/s1
