15
gdb 43542	2.63992	1.43487	1.05483	2.1401	71.71	-0.2674	-0.0531	0.2143	1100.1227	0.112378	-416.799867	-416.791824	-416.79088	-416.832986	29.303	
O	 0.0522288289	 0.2423943389	-1.0526158163	-0.303104
C	-0.0012007039	 1.2122556668	-0.3532520725	 0.348463
C	-1.1232693457	 1.9384425111	 0.4180832594	-0.369605
C	-0.1204807002	 3.1262783829	 0.6627177157	-0.250126
C	 0.0702986514	 3.5487016416	 2.038842244	 0.282893
N	 0.2392408227	 3.8683611405	 3.137020716	-0.326364
C	 1.0066780903	 2.2605985001	 0.040912539	 0.236512
C	 2.3946051485	 1.9917094603	 0.511471375	-0.282886
N	 2.1497168934	 2.7345733002	-0.7219103728	-0.35091
H	-2.0144510444	 2.1822428104	-0.1630250015	 0.152163
H	-1.4202082743	 1.4143783567	 1.3296961494	 0.161357
H	-0.3472169341	 3.9938789264	 0.0383912524	 0.145037
H	 2.7778455242	 2.5831074482	 1.3380468642	 0.156802
H	 2.7462439749	 0.9648643124	 0.4565062018	 0.142949
H	 2.2761563783	 2.1372338833	-1.5383118136	 0.25682
65.2322	117.6575	196.113	203.8343	228.3751	334.5723	428.923	495.4983	523.9521	608.5945	617.3153	701.4552	790.0956	824.6824	922.2245	946.8622	962.2466	990.5182	1032.4509	1056.6811	1078.7241	1100.8177	1135.0712	1192.9261	1213.055	1254.1238	1281.1143	1338.7437	1387.76	1439.2918	1500.0909	1889.0331	2357.8827	3080.4996	3089.2128	3113.1027	3141.1075	3209.5226	3479.0294
O=C1CC(C#N)C11CN1	O=C1C[C@@H](C#N)[C@]21CN2	
InChI=1S/C6H6N2O/c7-2-4-1-5(9)6(4)3-8-6/h4,8H,1,3H2	InChI=1S/C6H6N2O/c7-2-4-1-5(9)6(4)3-8-6/h4,8H,1,3H2/t4-,6-/m0/s1
