20
gdb 105635	2.01963	1.3856	1.19638	4.3908	79.22	-0.2723	0.0082	0.2805	1205.1055	0.169472	-403.152374	-403.142558	-403.141613	-403.18751	35.397	
C	-0.109134595	 1.5854248084	-0.3265952648	-0.401393
C	-0.0618508674	 0.0768360953	-0.0664421172	-0.22649
C	-1.4556856743	-0.5368183052	 0.089542268	 0.263971
O	-2.2421488508	-0.3904237913	-1.1168005298	-0.307342
C	-2.3588735835	-1.8212698913	-1.2900510301	-0.082412
C	-1.609682029	-2.1000040124	 0.0298843166	-0.092078
C	-0.3718501727	-2.9819399606	-0.0108525488	-0.420623
C	-2.1570238995	 0.0576732382	 1.2424509639	 0.270066
N	-2.699465812	 0.4988827058	 2.1630278989	-0.348152
H	 0.8981659775	 1.9763965229	-0.4935581666	 0.11759
H	-0.7128890917	 1.8003210853	-1.212264919	 0.141856
H	-0.5445676737	 2.1215214081	 0.5218130878	 0.142438
H	 0.428500948	-0.4289903853	-0.9036861027	 0.107775
H	 0.5223534193	-0.1427783141	 0.8351123578	 0.114314
H	-3.404965398	-2.1416894821	-1.3328554119	 0.117722
H	-1.8412416586	-2.1588092328	-2.1967674892	 0.106881
H	-2.2839776601	-2.4474735209	 0.8149757481	 0.108751
H	 0.3154015293	-2.6955863396	-0.8119167443	 0.126223
H	 0.1746336134	-2.9496132674	 0.9368616006	 0.132289
H	-0.6658422312	-4.022334641	-0.1850129772	 0.128614
40.2237	103.0386	152.1786	167.8431	183.3088	226.8039	241.6119	289.4811	353.3663	408.713	459.1209	543.5303	571.7517	635.3733	748.5222	792.055	895.8236	920.1917	948.4709	959.0687	996.8907	1018.9845	1049.9227	1109.3358	1134.0384	1152.5957	1169.0788	1173.833	1212.3898	1279.9903	1310.901	1343.9004	1362.8501	1387.4629	1412.5706	1416.9557	1471.0405	1496.4234	1498.1589	1500.4593	1509.8033	1527.5016	2348.2454	3021.3477	3036.9309	3042.1272	3047.8128	3070.9487	3086.0018	3090.26	3104.1603	3117.8907	3120.3307	3128.0141
CCC1(OCC1C)C#N	CC[C@]1(OC[C@H]1C)C#N	
InChI=1S/C7H11NO/c1-3-7(5-8)6(2)4-9-7/h6H,3-4H2,1-2H3	InChI=1S/C7H11NO/c1-3-7(5-8)6(2)4-9-7/h6H,3-4H2,1-2H3/t6-,7+/m1/s1
