16
gdb 55789	4.66499	0.96583	0.81549	4.2953	68.7	-0.2316	0.0209	0.2525	1358.7509	0.12594	-471.258382	-471.249736	-471.248792	-471.293093	30.552	
N	-0.2180637933	 1.392835183	-0.0857307905	-0.568935
C	 0.1779998417	 0.0612127009	-0.0483224508	 0.458789
O	 1.327486909	-0.297015032	-0.0335002422	-0.332308
N	-0.9303135896	-0.7946221338	 0.0286177227	-0.456199
C	-0.9055423937	-2.1729926389	 0.0410835497	 0.531509
N	 0.0286545674	-2.9645533833	-0.2813880789	-0.314366
C	-0.5007118719	-4.3156643155	-0.065511504	-0.180462
C	-1.9854691019	-4.1070010483	 0.3431527124	-0.111329
O	-2.1131562372	-2.6725932155	 0.4498714277	-0.278671
H	 0.5501996596	 2.0129829033	-0.293645672	 0.267122
H	-1.0720082985	 1.6198808062	-0.5733331457	 0.251946
H	-1.8183967905	-0.3981754795	 0.2926018399	 0.262125
H	-0.4043040924	-4.9122352769	-0.9785464655	 0.1153
H	 0.075173395	-4.8248096772	 0.7158875077	 0.117181
H	-2.6961715995	-4.4599498339	-0.4104592253	 0.117102
H	-2.245300354	-4.5455311687	 1.3097542846	 0.121194
45.6831	76.4829	78.2392	149.7636	261.8667	363.8406	381.0928	406.0527	496.2468	559.449	624.4091	706.0189	745.7754	767.041	817.4127	838.9132	927.805	958.6844	977.5751	1047.7089	1061.6009	1122.6016	1123.5795	1220.3897	1238.2556	1248.6439	1306.3072	1351.2451	1381.9483	1508.6495	1525.2186	1554.8028	1627.9073	1762.5954	1858.3551	3034.3687	3051.559	3066.0759	3105.1514	3573.0554	3641.1506	3687.6804
NC(=O)NC1=NCCO1	NC(=O)NC1=NCCO1	
InChI=1S/C4H7N3O2/c5-3(8)7-4-6-1-2-9-4/h1-2H2,(H3,5,6,7,8)	InChI=1S/C4H7N3O2/c5-3(8)7-4-6-1-2-9-4/h1-2H2,(H3,5,6,7,8)
