25
gdb 110056	2.04469	1.37894	1.05234	1.546	87.45	-0.2414	0.0695	0.3109	1320.7937	0.229255	-389.507168	-389.497059	-389.496115	-389.541753	38.574	
C	-0.6296824762	 1.5691526733	 0.5394294008	-0.391645
C	-0.2922655185	 0.1253408028	 0.1469574449	-0.199415
C	 0.7819516699	-0.5096868749	 1.0357340224	 0.026618
C	 1.0474740565	-2.0375119997	 0.8318506099	-0.03356
C	 0.6642400415	-2.6291753525	-0.5296999863	-0.407767
C	 2.5684975932	-2.1599805596	 1.1181068658	-0.089036
O	 3.0251945181	-0.8926064603	 1.5711894973	-0.260861
C	 2.2008244257	 0.109578939	 0.9778856315	 0.10372
C	 2.713778302	 0.5042702264	-0.4110310194	-0.41062
H	 0.2364174057	 2.2321169655	 0.4430617624	 0.12007
H	-1.4258341922	 1.9733909476	-0.0934602588	 0.112061
H	-0.9706004583	 1.6242268055	 1.5793479753	 0.115554
H	-1.2063725622	-0.4778650124	 0.2133280988	 0.095681
H	 0.0128881347	 0.0916384866	-0.9049415112	 0.100002
H	 0.454885164	-0.3880552114	 2.075901209	 0.074598
H	 0.4880899183	-2.5863252144	 1.5963280587	 0.075815
H	 1.1856202105	-2.1345356856	-1.3557185378	 0.119417
H	 0.9284665834	-3.6917298336	-0.5672412792	 0.112976
H	-0.4104638276	-2.5532928946	-0.7190259981	 0.115667
H	 2.8036920435	-2.8906607568	 1.8980649727	 0.102252
H	 3.1049030976	-2.4639611014	 0.2051615907	 0.083882
H	 2.2739554749	 0.9826117112	 1.6354163194	 0.077474
H	 2.6596052077	-0.3234922156	-1.1244102112	 0.118009
H	 2.1408421986	 1.3403758829	-0.8235238657	 0.116109
H	 3.7600469293	 0.8134875623	-0.3340937718	 0.123001
77.9377	122.8328	164.2743	179.8153	213.6765	235.4267	262.0094	282.149	298.8795	387.2065	411.0599	452.4564	488.0978	658.4068	693.3425	737.9937	805.0579	843.8401	881.6818	923.193	949.6772	951.0991	1009.287	1044.7195	1048.9244	1070.0961	1074.8497	1105.7477	1130.3479	1167.4752	1177.4801	1179.1716	1251.9143	1279.4489	1285.6476	1314.4843	1334.025	1355.7374	1370.7733	1383.6073	1391.6725	1398.988	1409.3656	1414.4129	1415.8171	1481.2479	1491.8163	1496.2061	1499.8303	1501.74	1504.9184	1510.9421	1525.5465	2972.3305	3012.5093	3025.2344	3031.6154	3034.4508	3041.189	3042.8335	3047.8999	3064.0494	3073.3379	3096.2376	3099.3612	3102.7109	3109.3193	3113.8196	3117.9583
CCC1C(C)COC1C	CC[C@H]1[C@@H](C)CO[C@H]1C	
InChI=1S/C8H16O/c1-4-8-6(2)5-9-7(8)3/h6-8H,4-5H2,1-3H3	InChI=1S/C8H16O/c1-4-8-6(2)5-9-7(8)3/h6-8H,4-5H2,1-3H3/t6-,7-,8-/m0/s1
