20
gdb 40372	3.90177	1.25104	1.14115	1.8431	81.96	-0.2022	0.0789	0.2811	1146.086	0.171907	-365.910754	-365.903098	-365.902154	-365.94291	31.268	
C	-0.062562185	 1.5311980868	-0.0401806041	-0.273752
C	 1.2908187302	 0.869455597	-0.0743417792	-0.258599
C	 0.0422105921	 0.0273078576	 0.0582073545	-0.13752
C	-0.2561518242	-0.6672762561	 1.3301087218	 0.358774
N	-1.6215639129	-0.7027713824	 1.924646976	-0.384185
C	-0.4707073283	-0.1765071641	 2.7074398944	-0.131449
C	 0.3295090328	-1.3747421947	 3.2948409214	-0.056228
C	-0.240707846	-2.7059795966	 2.8814768075	-0.290333
C	 0.5412170193	-1.8972239147	 1.8807191619	-0.105705
H	-0.3280640784	 2.0845440487	 0.8545737722	 0.112018
H	-0.4561410991	 1.9538935398	-0.9575994972	 0.115094
H	 1.8293718305	 0.8429265509	-1.0149533261	 0.112752
H	 1.9198333321	 0.9715480023	 0.8028695945	 0.117205
H	-0.247321635	-0.5266678933	-0.8327014481	 0.091118
H	-2.1133222108	 0.1094370478	 1.5509513974	 0.225292
H	-0.4832591768	 0.8310515444	 3.1045827833	 0.08942
H	 1.0605429325	-1.2640340645	 4.0848175551	 0.085718
H	 0.2955902858	-3.562508504	 3.278968807	 0.103258
H	-1.3091501168	-2.8364357255	 2.7697613023	 0.140716
H	 1.4602761179	-2.2416377994	 1.4247092554	 0.086404
81.4082	142.7811	172.1639	299.477	396.7921	433.6203	485.9436	549.9883	611.8108	718.5581	754.3843	783.0998	811.6341	829.9423	850.7907	879.9513	896.4037	921.9273	927.4499	935.7344	969.0821	990.4445	1025.3437	1044.1132	1056.6012	1057.8026	1081.2591	1096.3307	1106.1082	1136.0659	1150.1168	1184.5077	1196.6979	1210.0058	1220.2631	1284.0176	1296.9579	1334.0612	1383.693	1459.7311	1466.9933	1473.6369	1502.9842	3120.9888	3132.3061	3137.2562	3138.3034	3183.8531	3192.5243	3201.974	3212.2796	3228.1161	3234.5531	3465.7178
C1CC1C12NC1C1CC21	C1CC1[C@]12N[C@H]1[C@H]1C[C@@H]21	
InChI=1S/C8H11N/c1-2-4(1)8-6-3-5(6)7(8)9-8/h4-7,9H,1-3H2	InChI=1S/C8H11N/c1-2-4(1)8-6-3-5(6)7(8)9-8/h4-7,9H,1-3H2/t5-,6+,7-,8+/m0/s1
