17
gdb 49698	2.57249	1.22544	0.98751	3.054	76.24	-0.2539	-0.0481	0.2059	1211.4046	0.134698	-421.816768	-421.808425	-421.807481	-421.850205	30.536	
O	-0.0184952111	-0.0356600536	-0.2013360065	-0.256657
C	-0.0106417908	 1.1155896963	 0.159545899	 0.153413
C	 1.2136022099	 1.961319522	 0.1401092133	-0.165627
C	 1.2434401124	 3.4314805367	-0.1659685361	-0.116289
C	 0.024594229	 4.1962504409	 0.370351297	-0.236003
C	 0.3414921286	 3.6836937825	 1.8125572393	-0.309976
C	 1.5646527734	 2.9409064648	 1.2655466892	 0.241917
C	 2.8875687098	 2.8946176969	 1.9053238627	 0.066224
O	 3.1180839248	 3.3299548622	 3.0081565904	-0.262555
H	-0.9372883381	 1.603832948	 0.5245956473	 0.08367
H	 2.0763585972	 1.4179704672	-0.2374224519	 0.118858
H	 1.9467968834	 3.803839269	-0.9014396926	 0.115285
H	 0.1535757782	 5.2760623094	 0.2817822519	 0.123974
H	-0.9436360652	 3.9294398643	-0.0605161601	 0.116202
H	 0.6460772989	 4.4836000206	 2.4883761587	 0.138926
H	-0.4174790995	 3.0782765682	 2.3126912067	 0.115209
H	 3.6885164492	 2.4379442347	 1.2796485919	 0.073428
70.1437	120.4339	177.1795	203.3968	242.0549	265.0362	380.3409	431.1767	448.2601	543.4366	687.2467	736.0247	793.3001	815.4203	893.4421	938.5498	948.6602	988.221	1020.9946	1040.8606	1070.6429	1074.665	1118.0956	1130.4573	1209.2245	1218.2799	1239.511	1251.3418	1314.1829	1320.8479	1392.7079	1430.6591	1465.5046	1486.7143	1507.2464	1801.5942	1814.1747	2867.6243	2918.7686	3070.4966	3079.5539	3119.4089	3139.252	3153.6616	3186.9832
O=CC1C2CCC12C=O	O=C[C@H]1[C@H]2CC[C@@]12C=O	
InChI=1S/C7H8O2/c8-3-6-5-1-2-7(5,6)4-9/h3-6H,1-2H2	InChI=1S/C7H8O2/c8-3-6-5-1-2-7(5,6)4-9/h3-6H,1-2H2/t5-,6+,7+/m1/s1
