20
gdb 52716	4.4476	0.67749	0.61728	2.5862	85.72	-0.2306	0.0393	0.2699	1844.577	0.168303	-403.083651	-403.073063	-403.072119	-403.12116	36.774	
C	-0.015327259	 1.4447573177	 0.2284051784	-0.499306
C	-0.0512915391	-0.0038772911	 0.0896383608	 0.070922
C	-0.080174649	-1.2048348931	-0.0024380399	 0.04901
C	-0.1383106349	-2.6577096935	-0.1759855032	-0.059952
O	-1.4550594427	-3.0979814458	-0.5115850742	-0.415594
C	 0.9022798467	-3.1303209138	-1.2087427839	-0.143756
N	 1.010559649	-4.5789708186	-1.1986848972	-0.059501
C	 0.1161012318	-5.3129266473	-2.0852556078	-0.198927
C	 1.5663881157	-5.1996080765	-2.3978567956	-0.2324
H	 0.2011842016	 1.9345801503	-0.7272541527	 0.148394
H	-0.9735190779	 1.8316614376	 0.5920956686	 0.152281
H	 0.7573082574	 1.7524309106	 0.9415057015	 0.153173
H	 0.0927109132	-3.1594532696	 0.7709697568	 0.124068
H	-1.7999792273	-2.4830302023	-1.1681969891	 0.280767
H	 0.6263610116	-2.723504404	-2.2001528126	 0.074766
H	 1.8777076488	-2.7083400146	-0.9416486253	 0.11172
H	-0.2954350648	-6.2333453586	-1.6821903606	 0.117506
H	-0.5750968151	-4.7383280318	-2.6972242009	 0.105056
H	 1.8488027453	-4.5494220182	-3.2248837624	 0.106147
H	 2.2407257486	-6.0339757674	-2.2270251207	 0.115625
23.4043	56.3722	76.0004	103.5971	153.7375	207.6607	268.2037	290.6299	327.5019	355.1122	369.9991	444.6643	541.6415	556.86	757.2275	796.5924	847.2717	891.1276	913.9476	1022.7517	1026.5912	1052.0921	1054.9083	1065.8437	1086.2533	1114.2649	1119.3057	1159.5693	1173.0488	1180.8288	1244.6167	1276.9653	1319.4356	1332.6512	1384.7689	1413.7647	1422.9144	1476.9628	1478.0363	1478.5979	1492.7764	1521.7057	2366.1153	2924.1239	3028.6506	3048.7173	3064.0494	3089.9105	3091.0766	3092.805	3109.0702	3177.512	3196.3734	3807.9434
CC#CC(O)CN1CC1	CC#C[C@@H](O)CN1CC1	
InChI=1S/C7H11NO/c1-2-3-7(9)6-8-4-5-8/h7,9H,4-6H2,1H3	InChI=1S/C7H11NO/c1-2-3-7(9)6-8-4-5-8/h7,9H,4-6H2,1H3/t7-/m1/s1
