21
gdb 116891	5.60824	0.48912	0.46565	2.6118	86.99	-0.2521	0.0319	0.284	2414.2597	0.178746	-424.181279	-424.169727	-424.168782	-424.220441	39.123	
C	-0.0143929794	 1.5486568913	 0.1375004454	-0.386084
C	-0.0569809773	 0.0203650755	 0.1702409118	-0.170955
C	-1.4805675604	-0.5321841367	-0.0487643963	-0.054562
O	-2.0422362673	-0.0794852323	-1.2808067763	-0.415622
C	-1.5045771887	-1.993086564	 0.0562730921	 0.11684
C	-1.5006595707	-3.1964264735	 0.1083101739	 0.028959
C	-1.4807056262	-4.650971115	 0.1783228089	-0.203288
O	-2.7660148096	-5.1450911253	 0.4993692016	-0.225505
C	-2.7867204658	-6.5513485812	 0.57858271	-0.218968
H	 1.0109670296	 1.9146300849	 0.2438404753	 0.109688
H	-0.4213353603	 1.9240618925	-0.8046059201	 0.132535
H	-0.6088850373	 1.9770626855	 0.9522096764	 0.115065
H	 0.5970291291	-0.3988269558	-0.6052557627	 0.094926
H	 0.3162270118	-0.3583535086	 1.1287551741	 0.106678
H	-2.1379694865	-0.1097178512	 0.7223656969	 0.116685
H	-1.6396749604	-0.5982450018	-1.9860844655	 0.282422
H	-1.1392144709	-5.0657656361	-0.7868033555	 0.113463
H	-0.7435403567	-4.9760685289	 0.9339451629	 0.115551
H	-3.8084559992	-6.8452277191	 0.8281960545	 0.132737
H	-2.5040970164	-7.0205647786	-0.3775778816	 0.104617
H	-2.1062838873	-6.9286378116	 1.3589283043	 0.104817
14.2253	60.3791	64.6125	96.8709	138.202	170.5931	223.4846	230.6697	266.214	290.3177	320.2964	340.2331	424.6775	504.0008	525.8062	587.2019	767.4151	820.5241	900.731	975.968	980.1422	1027.3036	1058.7125	1092.8695	1112.1941	1143.0153	1175.7469	1182.5667	1220.1979	1250.4758	1255.6101	1290.7346	1325.7555	1372.3718	1404.6182	1409.2415	1420.7812	1477.3436	1479.156	1484.5737	1493.9986	1494.9078	1509.0366	1515.317	2363.3073	2941.6303	2958.3595	2967.8955	3010.2791	3021.4589	3032.71	3038.3433	3068.9663	3103.8001	3122.0094	3126.6214	3806.0178
CCC(O)C#CCOC	CC[C@@H](O)C#CCOC	
InChI=1S/C7H12O2/c1-3-7(8)5-4-6-9-2/h7-8H,3,6H2,1-2H3	InChI=1S/C7H12O2/c1-3-7(8)5-4-6-9-2/h7-8H,3,6H2,1-2H3/t7-/m1/s1
