19
gdb 87511	3.51856	1.37647	1.29521	1.7498	79.82	-0.2277	0.0137	0.2414	1065.3399	0.159483	-385.838738	-385.831148	-385.830204	-385.870482	30.662	
C	 0.0187542972	 1.5240740565	-0.127682106	-0.414663
C	-0.0038373809	 0.02934981	 0.0555184243	-0.073957
O	 1.2741915913	-0.6556785904	-0.0506943972	-0.312782
C	 0.6204022396	-0.6560215517	 1.1835855676	 0.533052
C	 1.1512450573	-0.1428836395	 2.5544668242	-0.183933
C	-0.1503166773	-0.8123559453	 3.120862119	-0.211849
C	 0.1742001071	-1.8866843085	 2.0235224271	-0.18485
C	 1.5452059311	-2.3711298482	 2.513113338	-0.078783
C	 2.1774102816	-1.2437403222	 2.8555461921	-0.0771
H	 0.8410565157	 1.9741595789	 0.4337906556	 0.127463
H	 0.1440542302	 1.7804498019	-1.1848850594	 0.130251
H	-0.923425031	 1.9661746002	 0.2147964938	 0.121382
H	-0.8091938124	-0.4914055287	-0.4664532691	 0.091537
H	 1.410523904	 0.8972330529	 2.7447427762	 0.067123
H	-0.106608396	-1.1518543856	 4.15706933	 0.100069
H	-1.0626631941	-0.2409825955	 2.9226680377	 0.095624
H	-0.5577649973	-2.6114585469	 1.670549696	 0.067081
H	 1.8924520189	-3.3939754557	 2.5254627917	 0.102422
H	 3.1816493251	-1.0941699322	 3.2243880083	 0.101913
141.7007	153.8567	193.9915	244.2013	366.5984	432.9407	464.4612	542.9734	571.4484	609.731	718.0826	774.804	806.599	827.1999	834.2207	895.1881	915.6839	927.5329	945.0712	975.445	993.2579	1016.0014	1042.4212	1068.3371	1104.9105	1118.6272	1130.3067	1136.8317	1186.938	1209.7211	1217.5777	1241.4529	1246.6621	1320.3434	1346.8102	1407.982	1472.5342	1484.1851	1492.0797	1530.8674	1622.0779	3035.8249	3052.5892	3087.1197	3098.6373	3126.2669	3131.2952	3131.5287	3133.4085	3225.2041	3251.5207
CC1OC11C2CC1C=C2	C[C@H]1O[C@]21[C@H]1C[C@@H]2C=C1	
InChI=1S/C8H10O/c1-5-8(9-5)6-2-3-7(8)4-6/h2-3,5-7H,4H2,1H3	InChI=1S/C8H10O/c1-5-8(9-5)6-2-3-7(8)4-6/h2-3,5-7H,4H2,1H3/t5-,6-,7+,8-/m1/s1
