15
gdb 78800	2.20834	1.9189	1.6638	1.9376	65.73	-0.2546	0.0148	0.2694	895.237	0.112135	-453.872734	-453.865121	-453.864177	-453.904505	29.522	
O	-0.1448825385	 1.4856065147	-0.0698219456	-0.434823
C	-0.0182756099	 0.0923123628	-0.0673935101	 0.099346
C	-1.3144960598	-0.708288263	-0.1040918565	-0.070138
C	-0.7295960011	-1.753276995	-0.9536301716	-0.143475
N	-1.7939514956	-0.8393326346	-1.5322319499	-0.201495
C	-0.7390041247	-0.2235756087	-2.3252152001	 0.373275
N	-0.6957495722	 0.2123990823	-3.5006815529	-0.576851
C	 0.3561457385	-0.6330022324	-1.3862184839	 0.255269
O	 1.6649435358	-0.7187172909	-1.7706400985	-0.472784
H	 0.7329661503	 1.8711604704	-0.1613264703	 0.29581
H	 0.6167280755	-0.2744883684	 0.751692526	 0.090282
H	-2.0812746288	-0.779983602	 0.6547428604	 0.117865
H	-0.7903740595	-2.82998883	-1.0008383504	 0.126704
H	-1.6274723157	 0.2475334995	-3.9194695548	 0.234806
H	 1.6836975556	-0.7154440049	-2.7372483618	 0.306208
127.6334	201.44	209.2014	241.529	284.0746	389.2627	419.2934	467.3996	599.6958	664.9458	674.7577	702.8847	784.3817	822.3928	840.7051	866.3656	899.2179	926.7149	970.5745	975.7796	1004.5686	1059.1498	1118.6495	1143.0804	1169.6461	1221.6541	1252.6766	1290.1102	1323.9172	1380.4069	1410.931	1440.5381	1821.9298	3012.9987	3217.1648	3242.3034	3464.2257	3762.413	3816.9893
OC1C2C3N2C(=N)C13O	O[C@H]1[C@@H]2[C@H]3N2[C]([NH])[C@@]13O	
InChI=1S/C5H6N2O2/c6-4-5(9)2-1(3(5)8)7(2)4/h1-3,6,8-9H	InChI=1S/C5H6N2O2/c6-4-5(9)2-1(3(5)8)7(2)4/h1-3,6,8-9H/t1-,2+,3-,5-,7?/m0/s1
