17
gdb 41282	2.92579	2.10596	1.84214	0.5854	70.48	-0.2268	0.0597	0.2865	825.8353	0.137324	-421.733031	-421.726888	-421.725944	-421.763126	26.44	
C	 0.0431894413	 1.5113279348	-0.210550256	-0.328382
C	 1.587696026	 1.5838344627	 0.1246555371	-0.348593
C	 1.5358690158	 0.1338952171	 0.6434699557	 0.359494
O	 1.67763647	-0.3555079134	 1.9719050034	-0.319333
C	 0.930383559	-1.5124355837	 1.4692333322	 0.021938
C	-0.4998326179	-0.9111994712	 1.2653450098	-0.293361
C	 0.0400583511	 0.0258766549	 0.1870171056	 0.342643
O	 0.434018578	-0.9116739632	-0.877039476	-0.335026
C	 1.5206142769	-1.2375996442	-0.0098058558	-0.001719
H	-0.5668897205	 2.1352044048	 0.4470310013	 0.118893
H	-0.23606474	 1.7052594383	-1.2474586139	 0.123115
H	 2.2520970701	 1.7499306112	-0.7255022908	 0.123128
H	 1.8392785241	 2.299107087	 0.9100403449	 0.129507
H	 1.0886518707	-2.4200544663	 2.0486701769	 0.088845
H	-1.247752617	-1.6155613716	 0.8971173406	 0.112977
H	-0.8363547756	-0.4233967044	 2.1815397431	 0.11586
H	 2.3209658682	-1.8508058529	-0.427984788	 0.090012
182.8045	291.223	381.6081	470.9914	502.1998	544.7346	637.0651	687.191	697.8575	727.101	759.2946	827.126	854.1255	862.2266	879.3744	903.4982	912.4755	939.6647	997.8892	1016.9242	1054.3263	1057.0767	1124.0901	1149.6216	1175.3945	1188.0154	1207.7213	1225.3276	1246.4029	1255.5902	1277.3541	1295.1727	1317.8602	1351.1465	1451.3138	1461.6385	1467.5951	3071.6298	3078.3085	3082.6653	3103.5529	3125.1293	3140.5931	3146.3547	3149.0745
C1CC23OC4CC12OC34	C1C[C@@]23O[C@H]4C[C@@]12O[C@@H]34	
InChI=1S/C7H8O2/c1-2-7-5-4(8-7)3-6(1,7)9-5/h4-5H,1-3H2	InChI=1S/C7H8O2/c1-2-7-5-4(8-7)3-6(1,7)9-5/h4-5H,1-3H2/t4-,5+,6-,7-/m0/s1
