17
gdb 45087	2.83945	1.72565	1.28139	2.8311	71.29	-0.242	-0.0275	0.2145	984.2724	0.13754	-421.822295	-421.815261	-421.814317	-421.853746	28.108	
O	-0.1815484046	 1.1781279912	-1.6892871673	-0.314252
C	-0.061015151	 1.5141814399	-0.5338209513	 0.395491
C	-1.2186386583	 1.6006192693	 0.4530210855	-0.346642
C	-1.2632920053	 2.9442025252	 1.1920109155	-0.040465
C	-0.7705388048	 3.0901689299	 2.6085525267	-0.296514
C	 0.041016505	 3.6596128904	 1.4682020824	-0.043665
C	 1.3113612404	 2.9809386332	 1.0485414391	 0.032904
O	 1.4710399002	 1.6205641529	 1.4223167782	-0.242333
C	 1.2783021169	 1.9028631317	 0.0250020533	-0.069578
H	-2.1405236447	 1.4261061649	-0.1044617623	 0.126229
H	-1.0991409026	 0.7776454125	 1.1673080141	 0.137838
H	-2.093988379	 3.5805114619	 0.9061763267	 0.099991
H	-1.2840402647	 3.7819076971	 3.2665263482	 0.116409
H	-0.3725612421	 2.2047030011	 3.0913341483	 0.134927
H	 0.060590825	 4.7381917393	 1.3502753449	 0.092181
H	 2.2238903715	 3.5724176278	 1.1219528153	 0.107095
H	 2.1326756979	 1.7212832914	-0.6224867672	 0.110387
97.7827	193.5979	246.8572	359.6499	436.8257	455.1526	460.613	546.3506	605.4134	691.1811	748.5746	802.3957	841.4071	871.5098	882.0561	908.9034	933.1807	970.2123	1028.8133	1047.4178	1073.582	1094.0565	1116.7485	1125.7228	1135.6019	1213.2101	1218.7594	1255.3432	1266.9073	1301.6178	1354.2117	1372.1638	1408.3887	1430.0601	1454.841	1488.2447	1812.5209	3045.3735	3111.244	3118.3256	3139.3319	3153.5749	3157.8792	3166.5995	3230.7201
O=C1CC2CC2C2OC12	O=C1C[C@H]2C[C@H]2[C@H]2O[C@@H]12	
InChI=1S/C7H8O2/c8-5-2-3-1-4(3)6-7(5)9-6/h3-4,6-7H,1-2H2	InChI=1S/C7H8O2/c8-5-2-3-1-4(3)6-7(5)9-6/h3-4,6-7H,1-2H2/t3-,4-,6-,7+/m1/s1
