18
gdb 74109	2.42541	1.63004	1.08268	5.5226	81.58	-0.2155	-0.0176	0.1979	1115.8854	0.149969	-401.985458	-401.977642	-401.976698	-402.017535	31.225	
N	 0.103883347	 1.3363849444	-0.2648240398	-0.558981
C	 0.0046497397	-0.0221053421	-0.0792259155	 0.384736
C	-1.1792603922	-0.6812902489	-0.092151251	-0.320321
C	-1.3028243779	-2.1274118878	 0.0531704837	 0.403449
O	-2.3751577205	-2.6768673948	 0.2563172726	-0.380055
C	-0.0437935136	-2.932197675	-0.0702178774	-0.136068
C	 0.7693051566	-2.7952088624	-1.3496298078	-0.292282
C	 1.2920178459	-2.2187823348	-0.069685012	-0.037725
C	 1.325751117	-0.7190231361	 0.1465016866	-0.335087
H	 0.9260378136	 1.798825549	 0.0902973199	 0.25514
H	-0.7430333521	 1.8779173819	-0.1833594998	 0.259402
H	-2.1139232901	-0.1333175444	-0.1718906501	 0.079398
H	-0.1158590951	-3.9203180964	 0.3689433208	 0.100201
H	 1.2386292359	-3.6917383867	-1.7385993949	 0.118666
H	 0.3903067945	-2.115658478	-2.1054787311	 0.125067
H	 2.1174868374	-2.7494039601	 0.3941852867	 0.091255
H	 2.0840167391	-0.2610249253	-0.5028614307	 0.118743
H	 1.6410641847	-0.5032294525	 1.1778610399	 0.124462
104.8259	162.7837	241.8474	330.4845	339.5279	396.7341	457.2073	471.1714	478.9902	517.7045	556.0083	635.6703	735.3297	773.8424	819.182	856.685	875.8195	901.0065	921.5555	1006.1248	1009.8227	1049.0351	1073.4244	1105.8767	1125.6806	1129.4937	1215.7024	1245.5135	1256.7111	1290.1155	1351.9613	1366.066	1402.4955	1428.6739	1473.188	1489.2609	1645.3638	1680.4438	1743.4243	3001.6448	3033.295	3134.9233	3153.201	3167.9636	3183.2741	3223.8481	3577.6741	3688.0677
NC1=CC(=O)C2CC2C1	NC1=CC(=O)[C@H]2C[C@H]2C1	
InChI=1S/C7H9NO/c8-5-1-4-2-6(4)7(9)3-5/h3-4,6H,1-2,8H2	InChI=1S/C7H9NO/c8-5-1-4-2-6(4)7(9)3-5/h3-4,6H,1-2,8H2/t4-,6+/m1/s1
