15
gdb 75226	3.84918	1.24243	1.11098	4.031	71.74	-0.246	0.0001	0.246	1080.5037	0.114833	-412.993109	-412.98555	-412.984606	-413.024986	29.06	
N	 0.0427209633	 1.3202317812	-0.1132038944	-0.567544
C	-0.0395490051	-0.0376028607	-0.0400531464	 0.406965
N	-1.1096063799	-0.734360139	-0.0922208162	-0.294505
C	-0.732178285	-2.1413153355	-0.0175660295	-0.233087
C	 0.8124845118	-2.1409622141	-0.0130013497	 0.152313
C	 1.4962467033	-1.4919514631	-1.1668522059	-0.274008
N	 1.2324915331	-0.7154914327	 0.0645781887	-0.178818
C	 1.5139475772	-3.0967016119	 0.8034457393	 0.228761
N	 2.0454152709	-3.9003495776	 1.4423554995	-0.332932
H	 0.8690319268	 1.7345783949	 0.2867861621	 0.270804
H	-0.8199134326	 1.8190788142	 0.0392981855	 0.270852
H	-1.112420807	-2.5969347024	 0.9040088444	 0.13288
H	-1.1442552208	-2.712453849	-0.8571229444	 0.124767
H	 2.5443343004	-1.7013915732	-1.3511307362	 0.147082
H	 0.8911388335	-1.2689032111	-2.0413709267	 0.146471
115.4796	158.021	228.1129	293.7177	363.1812	379.3503	442.7208	495.4196	534.4175	560.0204	592.3358	686.0447	731.3929	792.087	837.5272	862.5566	929.7417	976.165	1002.5985	1033.2754	1131.528	1136.3356	1178.3209	1199.9837	1225.5227	1293.96	1362.0228	1397.2764	1492.6076	1506.6316	1616.4753	1743.3698	2359.5649	3035.1849	3066.878	3119.9318	3220.7817	3593.7257	3711.4749
NC1=NCC2(CN12)C#N	NC1=NC[C@]2(CN12)C#N	
InChI=1S/C5H6N4/c6-1-5-2-8-4(7)9(5)3-5/h2-3H2,(H2,7,8)	InChI=1S/C5H6N4/c6-1-5-2-8-4(7)9(5)3-5/h2-3H2,(H2,7,8)/t5-,9?/m0/s1
