12
gdb 127965	3.96665	1.24218	0.95489	4.0685	65.23	-0.3	-0.1217	0.1784	1134.3032	0.074264	-505.909063	-505.900914	-505.89997	-505.943131	27.737	
C	-0.2072702276	 1.4519646308	 0.0186276524	-0.338007
N	 0.1798097734	 0.0597468226	 0.0895456925	-0.251791
C	 0.7041010587	-0.5351378179	-0.8778029433	 0.500945
O	 0.9924631674	-1.8660648319	-0.7613475679	-0.23956
C	 1.7796952669	-2.5372541563	-1.661695969	 0.510298
O	 2.0677515585	-3.6722915424	-1.4779156953	-0.315899
O	 2.1868438173	-1.8420488219	-2.7357163816	-0.278444
N	 1.6449319849	-0.4447435668	-3.0054428844	 0.060951
N	 0.9945764977	 0.076128521	-2.1319788675	-0.105306
H	 0.3526332531	 2.0005868733	 0.7833481083	 0.155565
H	-0.0457903096	 1.920846171	-0.9569093727	 0.146096
H	-1.2649541407	 1.5239606786	 0.2916416984	 0.155152
29.9999	98.0723	155.8412	221.5549	252.7223	279.539	369.3818	426.8214	517.711	608.2454	671.2145	738.0407	756.6574	775.1696	922.4816	959.15	1051.0699	1131.4821	1155.3265	1168.4872	1259.5053	1436.5532	1484.1901	1492.6424	1695.2871	1785.2416	1916.2367	3030.5024	3097.419	3111.5592
CN=C1OC(=O)ON=N1	C[N]C1=N[N]OC(=O)O1	
InChI=1S/C3H3N3O3/c1-4-2-5-6-9-3(7)8-2/h1H3	InChI=1S/C3H3N3O3/c1-4-2-5-6-9-3(7)8-2/h1H3
