13
gdb 129921	3.37352	1.84101	1.19269	7.232	65.64	-0.2108	-0.0058	0.205	929.994	0.092054	-445.085426	-445.078306	-445.077362	-445.116874	26.56	
N	 0.1227769999	 1.4037509975	 0.1645084954	-0.604295
C	-0.0112526862	 0.0299179598	 0.0391090019	 0.30086
C	-1.0857539039	-0.8131747207	-0.0095429624	-0.152295
N	-0.6174587623	-2.1432386872	-0.0223404986	-0.409799
C	 0.7359868092	-2.1024980515	-0.0014618644	 0.543997
N	 1.8133993149	-2.8720111399	-0.0224134135	-0.362636
N	 2.8434657417	-1.9842958178	 0.0127090199	-0.099502
N	 2.4641193254	-0.7391159551	 0.0526769656	-0.18815
N	 1.1011758278	-0.801218177	 0.0465901884	 0.004864
H	 0.9656854937	 1.755642568	-0.272717851	 0.276043
H	-0.6879821086	 1.9177678788	-0.1508313312	 0.260844
H	-2.1378424935	-0.5883972114	-0.0205003828	 0.142919
H	-1.1808354479	-2.9710913636	-0.0815027272	 0.287152
156.1106	173.1314	217.7008	259.6716	268.2513	432.5565	541.1444	601.5155	643.4601	660.6453	695.5564	710.9058	719.5599	768.4856	840.1871	1013.6253	1067.5167	1087.7246	1109.9725	1170.7648	1219.9892	1289.4287	1305.0611	1346.1631	1468.8799	1474.5567	1631.8851	1644.7624	1694.6139	3289.0334	3544.8116	3646.3028	3712.9176
NC1=CNC2=NN=NN12	Nc1c[nH]c2nnnn12	
InChI=1S/C3H4N6/c4-2-1-5-3-6-7-8-9(2)3/h1H,4H2,(H,5,6,8)	InChI=1S/C3H4N6/c4-2-1-5-3-6-7-8-9(2)3/h1H,4H2,(H,5,6,8)
