15
gdb 19490	3.44088	2.00313	1.84379	4.1195	69.34	-0.2472	-0.0003	0.247	783.2311	0.120975	-325.540069	-325.533613	-325.532669	-325.570637	25.003	
N	-0.0256702443	-1.1648899431	-0.0588829672	-0.351615
C	 0.0129767372	-0.0089407308	-0.0221799003	 0.306632
C	 0.0314441504	 1.4249634345	 0.0329401308	-0.192711
C	 0.5159790941	 2.166871884	 1.2725030349	-0.063022
C	 1.3233412675	 1.3947257157	 2.3160755677	-0.282621
C	 2.5702034609	 0.9811326677	 1.5633325419	-0.057963
C	 2.5855284796	 1.453428367	 0.3151037671	-0.07697
C	 1.3439687905	 2.2211719604	 0.009531298	-0.087011
H	-0.805096798	 1.8880353091	-0.4813139404	 0.131957
H	-0.0924220579	 3.0054992815	 1.5877863042	 0.103262
H	 1.5608847702	 2.0340258672	 3.1757117923	 0.116707
H	 0.7781067811	 0.528347123	 2.7105191107	 0.13573
H	 3.32724029	 0.3424066865	 2.0021907982	 0.108099
H	 3.3625706994	 1.2825475938	-0.4193634395	 0.106684
H	 1.3689433193	 3.0864267335	-0.6431330484	 0.102843
127.7485	143.6302	293.2937	359.1983	441.0081	578.5368	610.2128	718.5524	745.3481	764.3886	776.3238	807.9581	914.7346	938.1299	943.0442	959.5327	991.7338	1018.2613	1037.5055	1053.672	1108.2857	1136.823	1185.6124	1192.8533	1299.2691	1307.4655	1352.3273	1372.796	1397.4306	1472.5521	1667.8007	2350.6531	3026.7588	3058.074	3159.0735	3175.1379	3190.2844	3201.0222	3224.8715
N#CC1C2CC=CC12	N#C[C@H]1[C@H]2CC=C[C@@H]12	
InChI=1S/C7H7N/c8-4-7-5-2-1-3-6(5)7/h1-2,5-7H,3H2	InChI=1S/C7H7N/c8-4-7-5-2-1-3-6(5)7/h1-2,5-7H,3H2/t5-,6+,7-/m1/s1
