17
gdb 26968	3.05496	1.35594	1.01362	0.57	76.27	-0.1754	0.0586	0.234	1159.6287	0.137113	-418.001369	-417.993293	-417.992349	-418.03422	31.103	
O	 0.2604933982	 1.2894562686	 0.0310472984	-0.442562
C	 0.1039704624	-0.0519488858	 0.0067372728	 0.33008
C	-0.1182144025	-0.8968155154	-1.0543666246	 0.153407
C	-0.2057226103	-2.2224843487	-0.5121699022	-0.241169
C	-0.0345106061	-2.1216001452	 0.8447206217	-0.09173
N	 0.1557373803	-0.7837564382	 1.1539841195	-0.304702
N	-0.2134507386	-0.3710480307	-2.3692857281	-0.206408
C	 0.3178771115	-1.1614884586	-3.4844658628	-0.221824
C	-1.1494125881	-0.9936605239	-3.3111226178	-0.221811
H	 0.1824608223	 1.5638002544	-0.894541407	 0.304249
H	-0.3747551632	-3.1405549948	-1.0543672049	 0.089452
H	-0.0292054896	-2.8704219405	 1.6185832769	 0.11571
H	 0.3081390041	-0.3979753424	 2.0688303402	 0.266089
H	 0.8476763185	-0.5982968472	-4.2480274634	 0.114705
H	 0.7474714446	-2.131618445	-3.2485089645	 0.120905
H	-1.7181874253	-1.8496002311	-2.9572281685	 0.120904
H	-1.7015343681	-0.3067264455	-3.9468759556	 0.114706
61.8126	151.5929	167.9494	271.9926	287.4701	413.2926	441.8168	473.4258	518.4878	562.707	623.965	636.2079	718.8055	724.5308	798.8859	815.235	853.7973	891.1467	938.6661	1031.515	1069.1854	1082.5422	1111.8815	1119.4421	1162.078	1168.4158	1177.9434	1221.035	1240.1371	1320.0551	1400.9027	1411.4599	1487.988	1513.7881	1525.8923	1571.4243	1664.8183	3103.5612	3107.2726	3185.0132	3200.7042	3240.6366	3279.1646	3691.1138	3746.0518
OC1=C(C=CN1)N1CC1	Oc1c(cc[nH]1)N1CC1	
InChI=1S/C6H8N2O/c9-6-5(1-2-7-6)8-3-4-8/h1-2,7,9H,3-4H2	InChI=1S/C6H8N2O/c9-6-5(1-2-7-6)8-3-4-8/h1-2,7,9H,3-4H2
