21
gdb 74045	2.65241	1.51448	1.02638	1.8041	85.74	-0.2249	0.0214	0.2463	1199.8444	0.184421	-387.111658	-387.103334	-387.10239	-387.144539	31.969	
C	-0.0476972536	 1.4793211118	-0.0416547219	-0.496682
C	-0.0317428123	-0.0152770216	 0.0217664229	 0.134044
C	-1.0671240197	-0.8539719388	 0.0345625166	 0.252604
C	-2.5452770159	-0.7961238206	-0.1988160954	-0.17851
O	-2.9062452976	-2.1277018236	-0.6006434077	-0.271183
C	-1.7241747816	-2.889455897	-0.8762078064	-0.092141
C	-0.6578809157	-2.3074640757	 0.057947733	-0.064038
C	 0.8318620496	-2.2457994895	-0.3297069276	-0.244894
C	 1.2673169532	-0.8099546772	 0.0801172475	-0.291547
H	 0.569191573	 1.8462711204	-0.8717757239	 0.124578
H	-1.060545783	 1.8720923701	-0.1679393017	 0.122385
H	 0.3691798703	 1.9213138468	 0.8729147008	 0.128583
H	-3.1280748151	-0.5496922877	 0.6989967724	 0.109779
H	-2.8156642231	-0.0703307796	-0.980351045	 0.103584
H	-1.9722393781	-3.9400400012	-0.7011583303	 0.103653
H	-1.417706027	-2.7713332071	-1.9289140303	 0.08359
H	-0.7931041353	-2.7368021098	 1.0617617636	 0.077989
H	 1.4384901985	-3.0260824556	 0.1373166849	 0.095728
H	 0.9316707435	-2.3565590451	-1.4158344775	 0.101633
H	 2.0354723016	-0.3969294608	-0.5851786948	 0.098372
H	 1.6992852085	-0.7916925282	 1.0917884707	 0.102474
105.5171	160.8857	166.6755	186.4643	222.5708	275.1704	394.8672	458.9492	555.5808	586.5326	595.834	655.3285	776.8663	852.8883	913.7259	921.0804	942.1736	957.0211	982.1992	994.8105	1034.1207	1060.0994	1076.4146	1104.3486	1114.444	1166.5386	1184.9359	1200.8848	1220.1876	1229.5545	1256.9909	1297.2985	1299.1192	1325.6388	1347.0946	1363.8649	1390.8565	1413.833	1478.9353	1483.6777	1488.9149	1498.4866	1507.2689	1520.3487	1773.7945	2964.012	2988.3475	2992.0857	2997.2514	3014.7903	3019.2874	3035.2766	3049.9729	3059.7565	3084.8008	3096.9746	3106.2305
CC1=C2COCC2CC1	CC1=C2COC[C@H]2CC1	
InChI=1S/C8H12O/c1-6-2-3-7-4-9-5-8(6)7/h7H,2-5H2,1H3	InChI=1S/C8H12O/c1-6-2-3-7-4-9-5-8(6)7/h7H,2-5H2,1H3/t7-/m1/s1
