16
gdb 78617	2.90849	1.6094	1.24438	3.8406	68.83	-0.2438	0.0011	0.2449	1003.7449	0.123124	-437.842165	-437.834259	-437.833315	-437.874305	30.19	
C	 0.0698919126	 1.4733034892	-0.02078362	-0.510167
C	 0.0973311311	-0.0203438681	-0.0301047938	 0.337192
C	 0.4567924659	-0.9950504128	-1.0683213615	-0.082728
C	 0.4738884438	-2.1054712377	 0.0456615034	-0.26839
C	 0.6245390442	-0.9383695545	 1.0824419943	 0.073881
O	 1.952328072	-0.5679376282	 1.3585550732	-0.436633
C	-1.0311999704	-2.0879445843	-0.1542970525	 0.431926
O	-1.9404334501	-2.8461506374	-0.0359058244	-0.315881
N	-1.020362669	-0.75349234	-0.7525779441	-0.25116
H	 1.0551834326	 1.8589311787	 0.2554081854	 0.144705
H	-0.2016713655	 1.860246376	-1.0056947601	 0.139554
H	-0.6627528622	 1.8414092296	 0.7046389151	 0.133541
H	 0.8278294428	-0.9417299558	-2.0808561268	 0.126398
H	 1.0679097371	-3.0127756153	 0.1133154669	 0.09921
H	 0.028391959	-1.0286289734	 2.0020779056	 0.084985
H	 2.3014632361	-1.1621226458	 2.0302168191	 0.293567
131.7837	179.6245	200.989	225.5623	271.1592	317.0154	338.7537	500.7844	520.1904	581.9184	667.5557	737.8231	787.786	798.4357	838.3626	877.6568	931.4727	941.0928	1004.9204	1020.6461	1046.8095	1080.2001	1099.0137	1151.4646	1162.9825	1179.4075	1209.8037	1239.0627	1315.4458	1391.2442	1422.9313	1461.3915	1483.3934	1491.5152	1919.6733	3001.8553	3045.2953	3113.9841	3132.5534	3163.3558	3236.5878	3823.8875
CC12C3C(C1O)C(=O)N23	C[C@@]12[C@H]3[C@@H]([C@H]1O)C(=O)N23	
InChI=1S/C6H7NO2/c1-6-3-2(4(6)8)5(9)7(3)6/h2-4,8H,1H3	InChI=1S/C6H7NO2/c1-6-3-2(4(6)8)5(9)7(3)6/h2-4,8H,1H3/t2-,3+,4+,6+,7?/m0/s1
