20
gdb 87796	2.68565	1.48874	1.24465	1.1427	79.24	-0.2226	0.0691	0.2917	1092.3898	0.170271	-403.079627	-403.071022	-403.070078	-403.11239	33.772	
C	-0.1774537876	 1.5317140256	-0.0789847024	-0.429587
C	 0.0489546098	 0.0372899249	-0.0878391267	 0.025451
C	 0.7371610902	-0.7318480467	-1.1451643261	-0.05204
C	 1.9105055818	 0.0294470697	-1.7688309988	-0.333442
C	 2.4233116524	 0.1737726707	-0.337862663	 0.381779
C	 3.8451219988	 0.0476444161	 0.1257472404	-0.410101
C	 3.0782488546	 1.3417489519	 0.3144944593	 0.028946
O	 3.3310906166	 2.4397628055	-0.5150398928	-0.422793
N	 1.3305703284	-0.6340285077	 0.264047358	-0.200586
H	 0.6120688422	 2.0931802867	-0.5805899586	 0.151369
H	-1.1258132006	 1.7601080394	-0.5776746593	 0.117221
H	-0.248765212	 1.9010399316	 0.949960195	 0.120811
H	-0.7645478365	-0.5157672852	 0.3797510008	 0.091089
H	 0.3489665023	-1.6727227025	-1.5229913429	 0.091402
H	 2.549360743	-0.6067562625	-2.3848170717	 0.110807
H	 1.6767473656	 0.9428631225	-2.3221773677	 0.114979
H	 4.0385100321	-0.5589453795	 1.004539214	 0.121336
H	 4.6141012401	 0.026139385	-0.6403515094	 0.112535
H	 2.7636060118	 1.5849130814	 1.3296187274	 0.091174
H	 4.162984557	 2.8396819932	-0.2401386255	 0.289649
111.6721	138.7386	190.1893	236.7234	280.0301	294.2961	323.5889	412.3974	444.3233	489.2519	567.4582	606.9078	710.0236	780.1937	811.9836	834.2299	890.9151	910.205	931.3678	968.5286	990.843	1006.6255	1026.6949	1070.2579	1083.8334	1093.3562	1112.887	1148.3469	1167.3515	1178.8475	1205.8393	1244.6125	1267.004	1291.6304	1331.4695	1360.8958	1416.2409	1419.874	1439.492	1486.8049	1495.5068	1501.4425	1506.6668	3036.8882	3062.0923	3091.4208	3099.8333	3112.9679	3115.432	3123.3612	3142.5589	3157.1136	3217.6786	3801.3548
CC1C2CC3(CC3O)N12	C[C@H]1[C@H]2C[C@]3(C[C@H]3O)N12	
InChI=1S/C7H11NO/c1-4-5-2-7(8(4)5)3-6(7)9/h4-6,9H,2-3H2,1H3	InChI=1S/C7H11NO/c1-4-5-2-7(8(4)5)3-6(7)9/h4-6,9H,2-3H2,1H3/t4-,5+,6+,7+,8?/m0/s1
