21
gdb 64399	2.23386	1.60352	1.26289	3.0386	77.82	-0.236	-0.0262	0.2098	1110.3083	0.181092	-424.244358	-424.234921	-424.233977	-424.278379	35.183	
C	-0.4854960136	 1.5779734949	 0.1365342205	-0.458213
C	 0.0072837733	 0.1285451787	 0.0554883899	 0.273665
C	-1.1718650182	-0.8108192584	-0.2519444057	-0.4302
C	 1.1484134292	-0.0637825781	-0.973513549	-0.26958
C	 1.9282048974	-1.2835384799	-0.4462645103	-0.075535
O	 1.504746577	-1.4900850023	 0.9088566581	-0.2541
C	 0.7360383549	-0.3906021847	 1.3353943898	-0.004645
C	 1.5985410614	 0.6851829535	 1.9869349456	 0.140733
O	 2.7796922769	 0.8124964494	 1.7926404679	-0.249188
H	 0.3334287583	 2.2843246651	 0.3044141045	 0.12642
H	-0.9769757847	 1.8619924876	-0.7998724842	 0.121492
H	-1.2182847316	 1.7081284222	 0.940823336	 0.11685
H	-1.6055041748	-0.5750427973	-1.2297057625	 0.113605
H	-0.8547386286	-1.8570363771	-0.2609201881	 0.133598
H	-1.9629610276	-0.7051209999	 0.4982758749	 0.113568
H	 0.7646590279	-0.2168019943	-1.9856090469	 0.102954
H	 1.7913373196	 0.8207027675	-0.9903997269	 0.116279
H	 1.7051799208	-2.1987116863	-1.0063088137	 0.101519
H	 3.0098097418	-1.1172289956	-0.4698648282	 0.117288
H	 0.0175433853	-0.7444327356	 2.0872973927	 0.089223
H	 1.0468169755	 1.3729427306	 2.6698879657	 0.074267
87.6243	104.2631	125.745	227.0169	229.9833	276.4517	293.935	305.3968	336.0525	375.2792	433.1231	564.2121	669.885	739.1637	792.2209	836.7814	879.4331	905.073	943.8521	959.7272	980.2	991.4137	999.5174	1038.6927	1059.6694	1142.8612	1190.3401	1197.1521	1218.854	1242.8654	1257.632	1302.9986	1327.391	1357.626	1393.2121	1400.3311	1417.8485	1423.392	1482.0051	1487.1354	1497.4109	1506.1224	1509.5839	1527.5504	1832.4873	2854.5413	3022.1341	3027.702	3032.3091	3034.5285	3058.9277	3073.542	3091.9939	3096.9665	3102.1039	3108.3597	3117.5176
CC1(C)CCOC1C=O	CC1(C)CCO[C@H]1C=O	
InChI=1S/C7H12O2/c1-7(2)3-4-9-6(7)5-8/h5-6H,3-4H2,1-2H3	InChI=1S/C7H12O2/c1-7(2)3-4-9-6(7)5-8/h5-6H,3-4H2,1-2H3/t6-/m0/s1
