16
gdb 9099	6.54135	0.78962	0.7433	1.7895	63.64	-0.2542	-0.0501	0.204	1435.6314	0.127094	-420.892555	-420.883599	-420.882655	-420.927421	30.357	
O	 0.0284830916	 1.4557382043	-0.1009771225	-0.430635
C	 0.0058009323	 0.0603251458	 0.0155353443	 0.05007
C	 0.6273043894	-0.6158125599	-1.2226835555	-0.223625
C	-0.102958525	-0.2067259909	-2.5115290198	-0.271474
C	 0.6172904613	-0.6982626062	-3.7452615634	 0.156113
O	 0.1267706581	-1.3810825218	-4.6064387955	-0.235285
C	 0.7357106044	-0.3751351231	 1.2706794622	 0.136716
O	 1.2635617321	 0.4237442873	 2.0055826	-0.255961
H	 0.5370777854	 1.7747183114	 0.6617897718	 0.29771
H	-1.0358071892	-0.297363396	 0.1145263355	 0.099658
H	 1.6827465893	-0.3217718859	-1.2843543051	 0.117034
H	 0.5961879758	-1.7054384043	-1.0994512441	 0.113605
H	-1.130586876	-0.5814915601	-2.5296833444	 0.121379
H	-0.1310573691	 0.8902313486	-2.5485722063	 0.148713
H	 1.6834550687	-0.3741037147	-3.809655474	 0.072626
H	 0.7647144809	-1.4650082846	 1.4734509269	 0.103357
53.4125	66.5917	92.4567	136.5069	187.1771	289.9139	321.7429	360.1455	423.9198	500.5305	525.5725	740.6624	774.0419	838.0449	851.9662	972.2635	981.5131	1019.6084	1078.836	1126.5462	1163.5386	1208.8587	1243.6783	1281.4825	1311.3417	1346.4538	1374.435	1403.0655	1429.9854	1438.6769	1463.6709	1483.3764	1814.7365	1837.6484	2849.6205	2929.3996	2947.7675	3023.2538	3035.9457	3067.9454	3104.7232	3686.9141
OC(CCC=O)C=O	O[C@@H](CCC=O)C=O	
InChI=1S/C5H8O3/c6-3-1-2-5(8)4-7/h3-5,8H,1-2H2	InChI=1S/C5H8O3/c6-3-1-2-5(8)4-7/h3-5,8H,1-2H2/t5-/m0/s1
