17
gdb 7324	4.58844	1.05248	0.8697	1.1662	65.63	-0.2392	-0.0607	0.1785	1306.3647	0.140129	-401.060421	-401.051064	-401.05012	-401.095378	32.522	
C	-0.0429485732	 1.5641976302	 0.0109612874	-0.386164
C	 0.0046415383	 0.0345131147	 0.0024592594	-0.172201
C	-1.3880947283	-0.5929830881	 0.0123110573	-0.274362
C	-1.3791107001	-2.0998459212	 0.0042403067	 0.284416
O	-0.3766914767	-2.7800664755	-0.0090023483	-0.311689
C	-2.7724884965	-2.7786542072	 0.0140822793	 0.328255
N	-2.6810127724	-4.1263337799	 0.0058384761	-0.5176
O	-3.8009431014	-2.1293472534	 0.027736179	-0.351325
H	 0.9649068204	 1.9899895418	 0.0036900861	 0.115696
H	-0.5746363587	 1.9511875312	-0.8654334304	 0.116318
H	-0.5579619598	 1.9418886854	 0.9012597789	 0.116321
H	 0.5521334879	-0.3211031217	-0.8775187808	 0.110624
H	 0.5686252684	-0.3302870166	 0.8681492937	 0.110623
H	-1.9770195306	-0.2735011692	 0.8831102147	 0.141969
H	-1.9933171711	-0.2643847205	-0.8438013754	 0.141949
H	-1.7668680312	-4.5491326315	-0.0057128698	 0.278537
H	-3.514367935	-4.6890514184	 0.0106451662	 0.268634
53.5159	62.5328	99.3383	128.805	242.1467	280.9228	309.2755	320.2778	387.6805	416.577	526.5704	610.3468	628.2074	697.3537	768.2726	807.3775	886.0504	907.6512	1048.5494	1054.2557	1098.2868	1098.9857	1141.5727	1238.2133	1311.4724	1315.6653	1367.3672	1404.7355	1415.6883	1431.2589	1487.9788	1499.8718	1508.4429	1586.2049	1794.3272	1808.3218	3027.8371	3030.7816	3044.9127	3047.2957	3074.1288	3100.3721	3105.4161	3596.3072	3738.283
CCCC(=O)C(N)=O	CCCC(=O)C(=O)N	
InChI=1S/C5H9NO2/c1-2-3-4(7)5(6)8/h2-3H2,1H3,(H2,6,8)	InChI=1S/C5H9NO2/c1-2-3-4(7)5(6)8/h2-3H2,1H3,(H2,6,8)
