15
gdb 80352	2.26928	1.54047	1.34878	1.3196	66.88	-0.2324	0.0049	0.2372	1014.0743	0.109588	-457.660573	-457.652081	-457.651137	-457.69337	32.196	
O	 0.1853988401	 1.3213042077	-0.0249003788	-0.427741
C	-0.01590784	-0.050619379	-0.0244854485	 0.045161
C	-0.4663261561	-0.8151206766	 1.1816988654	-0.033273
O	-1.361686279	 0.0177841534	 1.9373247046	-0.306548
C	-2.361657636	-0.0278632471	 0.8639484371	-0.130485
C	-2.9083184336	 1.2626814916	 0.4898956532	 0.311361
C	-3.3886039479	 2.3198863654	 0.1782773293	-0.428297
C	-1.3618950097	-0.7534628568	-0.0524320885	 0.247558
O	-1.7265216512	-1.7405357337	-0.9369474743	-0.447195
H	-0.2533035737	 1.6683632462	 0.7637331843	 0.300262
H	 0.72281687	-0.5705257504	-0.630082679	 0.117519
H	 0.0493268635	-1.6111568918	 1.7053568213	 0.117916
H	-3.1634794263	-0.7145829551	 1.1610884215	 0.126891
H	-3.8016398581	 3.2574936182	-0.1026913577	 0.207295
H	-1.707186782	-1.3744644919	-1.8285684399	 0.299575
108.7411	127.7647	193.9888	248.2007	277.7369	325.0315	336.6773	401.5354	447.2476	507.6196	574.0997	617.4529	637.4386	682.2486	690.4139	801.6442	831.2891	926.9475	932.2756	988.0974	1007.4928	1021.5491	1102.2971	1126.5255	1190.2408	1217.9304	1259.3839	1285.7633	1336.8252	1349.6231	1396.383	1485.7918	2232.7087	3038.3063	3152.5073	3189.0482	3500.1464	3762.0246	3792.6655
OC1C2OC(C#C)C12O	O[C@H]1[C@H]2O[C@@H](C#C)[C@@]12O	
InChI=1S/C6H6O3/c1-2-3-6(8)4(7)5(6)9-3/h1,3-5,7-8H	InChI=1S/C6H6O3/c1-2-3-6(8)4(7)5(6)9-3/h1,3-5,7-8H/t3-,4-,5+,6+/m0/s1
