15
gdb 61736	2.83276	0.71082	0.58588	2.2942	75.06	-0.281	-0.078	0.203	1778.2267	0.108483	-457.756833	-457.746806	-457.745861	-457.794303	32.515	
C	-0.1710735557	 1.7018396201	 0.2693775764	-0.39229
C	-0.0598673974	 0.2062300807	-0.0304640968	-0.090763
O	 0.56190853	 0.0772988699	-1.3265486367	-0.175861
C	 0.2533077009	-1.0177719966	-2.0567717991	 0.177374
O	 0.7413540227	-1.2324191985	-3.122746504	-0.260854
C	 0.7089113413	-0.5083933025	 0.9849370438	 0.19859
C	 1.3284836956	-1.0929310665	 1.8405804567	-0.03084
C	 2.0948298293	-1.8017608319	 2.837690317	 0.025391
O	 1.7819475641	-1.8811340883	 4.0021591843	-0.220831
H	 0.8218445958	 2.1554404423	 0.2932719135	 0.153229
H	-0.7634249739	 2.1842800742	-0.5112331009	 0.141739
H	-0.6542719848	 1.8544987544	 1.2369714434	 0.144814
H	-1.0668954164	-0.2319848153	-0.0753852411	 0.130368
H	-0.4959131572	-1.6687094863	-1.5659925543	 0.087686
H	 3.0142854858	-2.2795304958	 2.4450551678	 0.112249
29.3273	44.2026	86.1989	122.1612	139.4773	209.7536	232.7565	250.3929	289.3265	413.8138	467.9697	549.8416	626.9618	659.9651	803.9295	934.7484	1005.9904	1020.5418	1041.3841	1088.41	1105.2375	1152.089	1202.5555	1323.9197	1353.5929	1407.0405	1419.7647	1437.6692	1482.4955	1494.0822	1771.3123	1874.2648	2328.7034	2933.5286	2953.1686	3011.9693	3059.6695	3143.362	3146.9482
CC(OC=O)C#CC=O	C[C@@H](OC=O)C#CC=O	
InChI=1S/C6H6O3/c1-6(9-5-8)3-2-4-7/h4-6H,1H3	InChI=1S/C6H6O3/c1-6(9-5-8)3-2-4-7/h4-6H,1H3/t6-/m1/s1
