15
gdb 18512	6.35348	1.15016	1.08826	2.4332	62.79	-0.2573	0.0024	0.2597	1063.8294	0.118788	-399.766061	-399.758911	-399.757966	-399.798443	25.619	
O	-0.0690577764	-0.0178230983	-0.1246662064	-0.270572
C	-0.0087505924	 1.1725423626	-0.1738840829	 0.167046
O	 1.1128984287	 1.8602391375	 0.1214246807	-0.192377
C	 1.0840316924	 3.2841085201	 0.042334819	 0.115973
C	 1.5850535182	 4.0621783688	 1.2817355941	-0.202804
N	 2.614768591	 4.794599071	 0.4603947116	-0.122764
C	 3.5102742125	 3.7441431305	-0.0457764048	-0.234664
C	 2.2168881821	 3.9284422447	-0.7340356263	-0.055389
H	-0.8515040656	 1.8315769887	-0.4625650954	 0.07951
H	 0.0959028892	 3.6156616884	-0.2913774754	 0.100242
H	 0.8523850883	 4.7574364513	 1.6945801346	 0.122216
H	 2.0086796447	 3.450819845	 2.0836497029	 0.125058
H	 4.3876415444	 4.1401347814	-0.5468139097	 0.130928
H	 3.6848781591	 2.8549503575	 0.5551768111	 0.132742
H	 2.1374214937	 4.3326408607	-1.7373849331	 0.104854
47.4371	117.7337	153.608	302.8078	358.389	402.4455	498.9685	641.9247	754.4934	761.2734	791.2866	903.4107	958.5442	992.4081	1003.3347	1043.1406	1055.5178	1065.7782	1107.2338	1116.6818	1134.2509	1187.3626	1202.4527	1223.9537	1267.3606	1292.3999	1374.5178	1386.3027	1442.7827	1486.1236	1507.5894	1869.8584	2942.1683	3060.0251	3063.547	3114.4436	3128.679	3172.9164	3208.7796
O=COC1CN2CC12	O=CO[C@H]1CN2C[C@@H]12	
InChI=1S/C5H7NO2/c7-3-8-5-2-6-1-4(5)6/h3-5H,1-2H2	InChI=1S/C5H7NO2/c7-3-8-5-2-6-1-4(5)6/h3-5H,1-2H2/t4-,5-,6?/m0/s1
