18
gdb 53824	3.90549	0.94157	0.80331	2.9526	74.58	-0.2492	-0.054	0.1952	1441.0724	0.145094	-439.086877	-439.077384	-439.076439	-439.12245	33.711	
C	 0.0047869525	 1.3541914402	-0.0331388375	-0.469016
C	-0.0301201572	-0.1018196857	-0.4335530099	 0.338008
O	 0.9255054296	-0.7009786662	-0.8614418904	-0.281014
C	-1.3725798998	-0.8093386692	-0.2626042179	 0.30212
N	-2.3617877284	-0.1769475595	 0.2197496467	-0.515928
O	-1.2981556445	-2.0934072289	-0.6794868626	-0.221384
C	-2.4772394741	-2.8574114313	-0.6189398704	 0.112132
C	-2.2795991867	-4.3290212987	-0.4770522128	-0.290223
C	-2.8401941124	-3.5280784633	 0.679976815	-0.286988
H	 1.0097772624	 1.7440173913	-0.1972159993	 0.135099
H	-0.7266722829	 1.9245304805	-0.6129786126	 0.153064
H	-0.2842592148	 1.4666481841	 1.0156218418	 0.154141
H	-3.1927059123	-0.7627086676	 0.3062309127	 0.231168
H	-3.2681097621	-2.4847792619	-1.2656088026	 0.111341
H	-2.9401943832	-4.9880101361	-1.0280391941	 0.125211
H	-1.2544351106	-4.6701853633	-0.3943247735	 0.142383
H	-2.1821480352	-3.3493715486	 1.522402854	 0.135948
H	-3.8895529203	-3.6314548858	 0.9329004933	 0.12394
42.3236	77.5343	87.3387	129.4074	145.9439	269.4881	326.1161	395.2113	400.0241	458.8205	530.0672	599.6198	696.65	757.4562	788.5917	830.6488	839.2598	898.3348	947.9951	988.3974	998.0525	1048.5168	1061.1129	1077.8748	1100.9596	1130.6593	1178.7989	1194.2333	1195.0312	1239.7211	1351.3766	1385.4622	1407.4115	1454.7056	1455.2603	1463.1662	1495.9111	1708.4803	1817.6389	3055.3723	3120.2305	3133.6564	3141.3088	3148.3067	3160.6594	3227.186	3241.8155	3486.9175
CC(=O)C(=N)OC1CC1	CC(=O)[C]([NH])OC1CC1	
InChI=1S/C6H9NO2/c1-4(8)6(7)9-5-2-3-5/h5,7H,2-3H2,1H3	InChI=1S/C6H9NO2/c1-4(8)6(7)9-5-2-3-5/h5,7H,2-3H2,1H3
