19
gdb 74773	3.1506	1.3394	1.30953	1.9463	80.38	-0.2063	-0.0044	0.2018	1103.1605	0.159146	-385.877122	-385.869055	-385.868111	-385.909379	31.733	
C	-0.0254347511	 1.4879669514	 0.0282047816	-0.507116
C	-0.0496915612	 0.0020449062	-0.0420991583	 0.371959
C	-0.0462986835	-0.8405292951	-1.0732452891	-0.220188
C	 0.0239836773	-2.2505053899	-0.4403415698	-0.089255
O	-0.7653985004	-2.0413740256	 0.7407520786	-0.231249
C	 0.0148576531	-0.9292629721	 1.2057798399	-0.089257
C	 1.4230690985	-1.5695582884	 1.228322948	-0.220189
C	 1.4406492445	-2.4039693223	 0.1907040336	 0.371958
C	 2.5170666267	-3.2566854232	-0.3817417722	-0.507116
H	 0.8843907562	 1.8421954761	 0.5321772918	 0.127075
H	-0.0570077797	 1.9408787007	-0.9665015451	 0.127641
H	-0.8725645505	 1.8765436648	 0.6077002415	 0.129924
H	-0.0241780996	-0.6248332059	-2.1322250595	 0.101571
H	-0.349046629	-3.0879007361	-1.0299590004	 0.074016
H	-0.3733321681	-0.5297849402	 2.1426667989	 0.074016
H	 2.2187305653	-1.3148017865	 1.9142341721	 0.101571
H	 3.4358721237	-3.1992279917	 0.2082257291	 0.127641
H	 2.2102923387	-4.3090636435	-0.4348931649	 0.129923
H	 2.755621079	-2.9502438487	-1.4095721058	 0.127075
121.6286	176.8919	182.0509	205.5202	285.8854	295.6984	445.5143	503.5389	570.732	594.2476	598.6235	713.9147	765.7686	775.4281	789.7507	876.7711	883.56	887.8896	903.3254	982.4158	990.6106	1011.2108	1044.9499	1061.6756	1063.9202	1148.5234	1189.0008	1214.567	1225.8151	1248.131	1273.9394	1290.751	1323.3389	1412.6304	1412.834	1477.6875	1477.6986	1485.6751	1486.0024	1691.0217	1715.914	3009.6838	3010.381	3055.3762	3055.6178	3108.2102	3108.2556	3121.1567	3124.5021	3229.0749	3229.9217
CC1=CC2OC1C=C2C	CC1=C[C@@H]2O[C@H]1C=C2C	
InChI=1S/C8H10O/c1-5-3-8-6(2)4-7(5)9-8/h3-4,7-8H,1-2H3	InChI=1S/C8H10O/c1-5-3-8-6(2)4-7(5)9-8/h3-4,7-8H,1-2H3/t7-,8-/m0/s1
