16
gdb 67983	3.18217	1.72912	1.29167	3.2391	68.29	-0.2442	-0.0053	0.2389	957.6543	0.125552	-437.859743	-437.852923	-437.851979	-437.890727	27.41	
C	 0.0290776801	 1.4855115112	-0.0931591382	-0.499194
C	 0.0281653447	-0.0090213086	 0.0166165129	 0.476947
O	 0.4347118396	-0.648224258	-1.2047858738	-0.287298
C	 0.3719341783	-1.9906730255	-0.91267837	 0.447427
O	 0.6397157588	-2.8590476474	-1.6858689318	-0.337869
C	-0.0893904187	-2.0070716453	 0.5258297357	-0.223804
C	 0.6224548432	-0.7959345347	 1.2263100333	-0.091734
N	-0.6054372959	-0.4291644451	 2.0212823583	-0.340553
C	-1.1254423282	-0.8360209636	 0.6654416223	-0.091714
H	 1.0299906438	 1.8506255519	-0.3404132612	 0.136277
H	-0.6560909856	 1.8119911924	-0.8807051761	 0.136272
H	-0.2859116319	 1.916044097	 0.8589730002	 0.154908
H	-0.2296059714	-2.9595484324	 1.0308006801	 0.099512
H	 1.6316119384	-0.7584810931	 1.638892673	 0.100095
H	-0.8038151424	-1.1747149496	 2.692798757	 0.220631
H	-2.1868179628	-0.8460488492	 0.4136339583	 0.100095
166.7335	224.6398	270.9753	277.8458	387.3941	443.318	543.5529	630.6349	648.787	694.8806	734.8844	800.9129	845.2809	871.1306	904.7385	907.6663	943.3842	954.1295	1020.8782	1051.0733	1099.9638	1123.811	1146.6043	1151.3634	1159.3465	1200.7386	1250.2736	1275.1565	1292.1201	1294.3524	1368.4039	1415.8104	1487.2884	1492.2676	1909.6921	3051.6853	3110.9722	3113.6809	3118.0501	3147.5301	3163.6176	3415.1969
CC12OC(=O)C3C1NC23	C[C@@]12OC(=O)[C@H]3[C@@H]1N[C@@H]23	
InChI=1S/C6H7NO2/c1-6-3-2(4(6)7-3)5(8)9-6/h2-4,7H,1H3	InChI=1S/C6H7NO2/c1-6-3-2(4(6)7-3)5(8)9-6/h2-4,7H,1H3/t2-,3-,4+,6+
