20
gdb 23003	2.69904	1.10797	0.9838	1.9008	77.99	-0.2412	0.0058	0.247	1298.0989	0.168631	-440.231192	-440.22123	-440.220286	-440.266977	35.738	
C	-0.5808753489	 1.3651893055	 0.0476388261	-0.4082
C	-0.0512411588	-0.0553755037	 0.0179548599	 0.156292
O	 1.0139336074	-0.2164478066	-0.9439073445	-0.290749
C	 1.9642453901	-0.5970788383	 0.0734701869	-0.09119
C	 0.8913210423	-0.5380478599	 1.1768300672	-0.155597
C	 1.0907417526	 0.3556034481	 2.3645822228	 0.355845
C	 0.0216527949	 0.4046863457	 3.4250605896	-0.476448
N	 2.1723515171	 1.0356461039	 2.4211706288	-0.169799
O	 2.2279463123	 1.8230460052	 3.5813400981	-0.39867
H	 0.2087184934	 2.0735117978	 0.3130715723	 0.132912
H	-0.9645134816	 1.6308327382	-0.9423308185	 0.127736
H	-1.4005285502	 1.463958547	 0.7680633236	 0.112223
H	-0.8683038027	-0.7592460034	-0.191201924	 0.073253
H	 2.389380675	-1.589942081	-0.1137072151	 0.096423
H	 2.7712563404	 0.1327622429	 0.1795753449	 0.12226
H	 0.5938006203	-1.5285179365	 1.5353664985	 0.088468
H	 0.4313738166	 0.0939798088	 4.3918889071	 0.149007
H	-0.3405929315	 1.4288924307	 3.557064274	 0.150736
H	-0.8206310175	-0.2424978695	 3.1723169521	 0.118509
H	 3.0815773989	 2.259104645	 3.4892024702	 0.30699
45.6114	58.0939	104.8433	131.1919	217.5687	250.6323	289.5174	300.8905	379.6296	405.9489	415.4061	483.7582	547.8715	658.2164	750.6654	772.7692	887.1836	899.4129	948.2627	991.7991	1008.7593	1026.5035	1032.7914	1071.8455	1101.3194	1111.0187	1142.687	1169.6851	1224.6518	1242.54	1285.4488	1351.7981	1373.9384	1382.6204	1400.523	1404.4976	1411.7946	1475.8979	1482.4477	1488.6973	1493.6459	1529.5262	1723.1003	3003.0468	3029.8837	3035.5274	3043.0578	3055.4499	3095.7535	3102.0576	3105.5701	3121.6954	3132.7861	3820.8094
CC1OCC1C(C)=NO	C[C@H]1OC[C@H]1C(=NO)C	
InChI=1S/C6H11NO2/c1-4(7-8)6-3-9-5(6)2/h5-6,8H,3H2,1-2H3	InChI=1S/C6H11NO2/c1-4(7-8)6-3-9-5(6)2/h5-6,8H,3H2,1-2H3/t5-,6+/m1/s1
