17
gdb 18627	3.06121	2.05865	1.72444	2.9615	68.46	-0.2282	-0.022	0.2062	834.812	0.142772	-363.860368	-363.853024	-363.85208	-363.892041	27.659	
C	-0.0953042699	 1.4595286247	 0.0389534953	-0.324951
N	 0.0496031846	 0.014060138	-0.0699098518	-0.081539
C	 0.5547084043	-0.6595993005	-1.240202495	-0.029065
C	 1.3381984033	 0.1349858708	-2.2875445727	-0.247288
C	 2.5580023684	 0.7351420894	-1.5542587743	-0.338262
C	 2.6013284056	 0.0772290566	-0.1669663154	 0.410949
O	 3.533486567	 0.1192549127	 0.5973685529	-0.323412
C	 1.327943202	-0.6926784975	 0.0540940375	-0.152482
H	 0.5892428131	 2.0651214441	-0.5695129094	 0.109241
H	-1.1179124927	 1.717338293	-0.2544804543	 0.131023
H	 0.0359537719	 1.7443734298	 1.086583782	 0.139097
H	-0.0268017779	-1.5163761646	-1.5719708632	 0.099475
H	 1.6596284105	-0.5481116273	-3.079112393	 0.116359
H	 0.7123008286	 0.8969445793	-2.7634735829	 0.113182
H	 3.5021625831	 0.5225198221	-2.0631398045	 0.136221
H	 2.5111859458	 1.8235778391	-1.4387929311	 0.135193
H	 1.3508881123	-1.5223732096	 0.75425751	 0.10626
90.6583	123.7589	202.2138	251.4169	359.0531	444.9936	452.8336	574.3062	609.4153	688.0007	723.1676	786.4155	817.557	859.4544	932.8617	966.1904	1021.6902	1033.6357	1088.556	1099.6041	1152.9048	1161.4335	1175.7562	1196.9368	1242.5081	1265.0292	1284.0581	1323.7442	1332.0915	1395.1469	1451.1017	1455.9488	1486.0771	1498.7337	1504.9698	1827.2903	3012.6851	3047.5879	3054.3812	3078.066	3084.0715	3103.5782	3112.6181	3136.7452	3160.3279
CN1C2CCC(=O)C12	CN1[C@H]2CCC(=O)[C@@H]12	
InChI=1S/C6H9NO/c1-7-4-2-3-5(8)6(4)7/h4,6H,2-3H2,1H3	InChI=1S/C6H9NO/c1-7-4-2-3-5(8)6(4)7/h4,6H,2-3H2,1H3/t4-,6-,7?/m0/s1
