19
gdb 40672	4.20356	1.04728	0.94944	1.9547	75.44	-0.2511	0.0722	0.3233	1275.0422	0.158659	-422.964819	-422.956505	-422.95556	-422.998279	31.13	
C	-0.3810463847	 0.9850662404	-0.4138726117	-0.269909
C	 0.8944124191	 1.2449379752	 0.3467285158	-0.262473
C	 0.4681493833	-0.1720257288	 0.044904039	-0.02265
C	 0.0135893793	-1.0602079335	 1.1590875064	-0.065245
O	-0.9991739862	-0.5360311121	 2.0434383584	-0.276574
C	-1.3289845177	-1.6383584476	 1.2241077614	 0.360226
C	-2.4704227393	-1.679967144	 0.2144083928	-0.150865
O	-2.8371373555	-2.9997127945	 0.679721058	-0.277086
C	-1.8460391468	-2.9796810951	 1.7319532918	-0.154247
H	-1.3098153575	 1.157721227	 0.1172718669	 0.129701
H	-0.4099589391	 1.2086191351	-1.4741889209	 0.112083
H	 1.7474478662	 1.6487946412	-0.1865440814	 0.113881
H	 0.7974967309	 1.5833990679	 1.3724070119	 0.12731
H	 1.0403871986	-0.6974891547	-0.7153495292	 0.092629
H	 0.8117046331	-1.5903017633	 1.6839022411	 0.095089
H	-3.2603003831	-0.9391798298	 0.3932808829	 0.112166
H	-2.1939053003	-1.6743316599	-0.8460077181	 0.112517
H	-1.1602502425	-3.8335094422	 1.6736409032	 0.108898
H	-2.296180868	-2.9369051414	 2.7321930117	 0.114549
76.1568	101.0153	137.251	162.6977	273.6205	308.2165	377.351	467.2263	588.9828	599.3597	766.016	797.7747	831.4407	844.9581	878.3586	913.086	921.505	953.105	1002.75	1020.2026	1036.0724	1064.6417	1082.4841	1095.2344	1120.9007	1129.44	1137.9746	1142.6753	1166.9225	1192.5838	1205.6779	1226.0267	1297.8895	1323.8718	1372.5511	1398.8662	1459.8794	1497.9408	1501.4372	1518.7956	1529.4738	3009.6066	3021.2007	3061.1507	3067.5184	3082.9475	3137.531	3139.7364	3145.0991	3220.7526	3235.4114
C1CC1C1OC11COC1	C1CC1[C@H]1OC21COC2	
InChI=1S/C7H10O2/c1-2-5(1)6-7(9-6)3-8-4-7/h5-6H,1-4H2	InChI=1S/C7H10O2/c1-2-5(1)6-7(9-6)3-8-4-7/h5-6H,1-4H2/t6-/m1/s1
