19
gdb 99953	2.1293	1.41554	1.05004	2.6486	78.84	-0.2602	-0.0591	0.2011	1226.0849	0.153831	-422.994952	-422.984126	-422.983182	-423.032152	38.395	
C	-0.2573210887	 1.3495520701	 0.0312599426	-0.250486
O	-0.2014779263	-0.0429268259	-0.1875074964	-0.281328
C	 0.6544417286	-0.5147782023	-1.2184130818	 0.270674
C	 0.2247681485	-0.0186162108	-2.6106251907	-0.425176
C	 2.1349718069	-0.1972424544	-0.9440037564	-0.42544
C	 0.5002265447	-2.0522681477	-1.2085581763	 0.172848
O	 1.125471167	-2.7430696819	-1.9845454485	-0.314717
C	-0.4121042998	-2.6418678433	-0.2490711696	 0.345322
C	-1.1486153779	-3.210421677	 0.5146679018	-0.437723
H	 0.7139607803	 1.7689683066	 0.3268769052	 0.111006
H	-0.6234281984	 1.8998752986	-0.8461505589	 0.110895
H	-0.962412913	 1.5013641004	 0.8520204962	 0.132748
H	 0.4410441602	 1.0458602785	-2.7343400895	 0.116533
H	 0.770354122	-0.5720679056	-3.3777720622	 0.145299
H	-0.847577951	-0.1777205837	-2.757727645	 0.127752
H	 2.4016941257	-0.4783989788	 0.0790744971	 0.127599
H	 2.7616177304	-0.7615369406	-1.6377274225	 0.145544
H	 2.3422788418	 0.8675312398	-1.0800352224	 0.116289
H	-1.802004851	-3.701637962	 1.1939012172	 0.21236
10.4717	72.0406	133.0749	182.1419	201.4476	222.6252	249.7926	264.9031	299.0428	330.3053	342.2047	408.9317	426.1043	482.4364	621.7619	632.8628	691.8867	716.8802	765.2058	819.8015	926.455	944.8867	1010.8842	1100.2288	1115.0665	1172.5958	1181.8169	1199.3776	1230.7731	1284.4646	1382.3991	1401.0631	1473.9093	1478.6495	1482.0557	1500.0826	1501.2894	1508.6362	1515.9065	1759.9898	2210.2969	2997.6212	3043.0287	3049.1844	3052.2705	3114.9716	3118.4218	3121.5061	3135.9835	3140.3137	3495.9805
COC(C)(C)C(=O)C#C	COC(C)(C)C(=O)C#C	
InChI=1S/C7H10O2/c1-5-6(8)7(2,3)9-4/h1H,2-4H3	InChI=1S/C7H10O2/c1-5-6(8)7(2,3)9-4/h1H,2-4H3
