14
gdb 131104	3.40682	1.22255	0.92822	1.8213	68.55	-0.2689	-0.0167	0.2522	1177.4128	0.099671	-436.629026	-436.620884	-436.61994	-436.662701	29.625	
O	 0.2730008508	 1.5374835541	-0.0758452344	-0.406277
C	 0.1789022364	 0.1163125484	-0.0137575864	-0.186981
C	 0.6124430625	-0.5235420855	-1.2564802691	 0.336838
C	 0.9742728036	-0.9966200781	-2.2989884454	-0.440314
C	 0.9042322769	-0.4060877119	 1.2101652447	 0.365445
N	 1.5698739618	-1.5351860969	 1.2034820624	-0.189736
O	 2.0645452455	-1.684896372	 2.4944740541	-0.166533
C	 1.6810771088	-0.6318332772	 3.2318499704	 0.080723
C	 0.9401828126	 0.2250320922	 2.4880121488	-0.324664
H	 1.1706624509	 1.7539829208	-0.3542995465	 0.291537
H	-0.8929914856	-0.0751730194	 0.1273101012	 0.14312
H	 1.2942022891	-1.4322845734	-3.2134155189	 0.205816
H	 2.0132600934	-0.6319617071	 4.258534695	 0.15557
H	 0.4931267933	 1.1606255759	 2.7757209241	 0.135456
33.3647	121.3193	170.6025	211.0755	288.1508	340.9446	411.7361	467.3433	573.7005	615.3409	639.2708	661.6788	680.0222	797.7115	825.2729	876.341	914.1247	936.5356	943.2454	1020.1042	1068.447	1073.9906	1154.669	1256.5848	1263.7125	1325.1797	1415.0687	1445.6304	1478.0296	1604.4214	2244.2374	3028.0022	3264.367	3298.0675	3503.4316	3798.8261
OC(C#C)C1=NOC=C1	O[C@@H](C#C)c1nocc1	
InChI=1S/C6H5NO2/c1-2-6(8)5-3-4-9-7-5/h1,3-4,6,8H	InChI=1S/C6H5NO2/c1-2-6(8)5-3-4-9-7-5/h1,3-4,6,8H/t6-/m0/s1
