19
gdb 101419	3.00888	1.07833	0.84854	3.6792	72.08	-0.2665	0.0083	0.2748	1361.8915	0.157565	-460.180404	-460.17086	-460.169916	-460.215473	33.675	
C	 0.0897091232	 1.3923751485	-0.2441263371	-0.240534
O	 0.0083431109	 0.02589874	 0.0984076013	-0.252775
C	-1.2994543239	-0.5251352752	 0.044950138	 0.125857
C	-1.8180193898	-0.7217057128	-1.3808561849	-0.420959
C	-1.2042082415	-1.8542229763	 0.7876820324	-0.195966
C	-0.9532236725	-1.8188497505	 2.3029914797	-0.100536
O	-2.2539094556	-2.4593234485	 2.5408818799	-0.23965
C	-2.5334784843	-2.4959358274	 1.2004281822	 0.449584
O	-3.5216628064	-2.8943147528	 0.6706963667	-0.327134
H	 1.1176756713	 1.7083131245	-0.0510826424	 0.131652
H	-0.1383386036	 1.5765914944	-1.3029840202	 0.11414
H	-0.5903758479	 2.0046384857	 0.3683629746	 0.106993
H	-1.9916758365	 0.1382874591	 0.5935737049	 0.072743
H	-1.9717313644	 0.2345559452	-1.8875724905	 0.119045
H	-1.102033014	-1.3106151991	-1.9630865389	 0.124889
H	-2.7728594139	-1.2546532001	-1.3593184266	 0.154348
H	-0.5521466236	-2.5401381588	 0.2403167024	 0.119149
H	-0.1417715553	-2.4414788643	 2.6820119117	 0.129111
H	-0.9230702023	-0.8259652716	 2.7552216969	 0.130043
65.4429	87.8227	121.3371	133.5955	196.6358	239.1236	266.8192	284.3161	364.6681	415.4032	482.3075	559.2505	686.535	759.254	841.5628	878.7406	931.2403	955.1963	986.2213	1048.1978	1085.1411	1115.5574	1126.6556	1144.6338	1150.6239	1181.2162	1199.8492	1203.8189	1234.8942	1290.5225	1346.491	1373.1605	1399.3574	1406.9947	1476.9674	1484.6287	1494.3153	1505.1038	1513.0779	1518.7862	1927.0582	2945.501	2982.188	3036.4405	3044.3977	3081.1464	3086.8095	3115.6513	3118.4967	3125.9236	3144.1605
COC(C)C1COC1=O	CO[C@@H](C)[C@H]1COC1=O	
InChI=1S/C6H10O3/c1-4(8-2)5-3-9-6(5)7/h4-5H,3H2,1-2H3	InChI=1S/C6H10O3/c1-4(8-2)5-3-9-6(5)7/h4-5H,3H2,1-2H3/t4-,5+/m0/s1
