15
gdb 6313	4.31589	1.15869	0.94772	4.5702	62.97	-0.2503	0.0075	0.2578	1145.6969	0.11953	-396.022958	-396.01442	-396.013476	-396.056583	30.411	
N	-0.9630948905	 1.4580645507	-0.5978871863	-0.502495
C	-0.2172975549	 0.2837409715	-0.1174202959	-0.156044
C	-1.1734546398	-0.8425156555	 0.33067611	-0.280541
C	-1.9889021901	-0.5797103428	 1.607536608	 0.367788
N	-2.3659689981	 0.7092942883	 1.809796429	-0.510601
O	-2.2699269776	-1.4932361697	 2.3579002889	-0.355911
C	 0.7296720219	-0.2269989018	-1.1294794511	 0.269336
N	 1.4518404502	-0.5983041962	-1.952446325	-0.311126
H	-0.3228482375	 2.2144103205	-0.8208100389	 0.255313
H	-1.4517975421	 1.2256289171	-1.4588490412	 0.25146
H	 0.3721699452	 0.6060521772	 0.7486956632	 0.149465
H	-1.8702056067	-1.0653286233	-0.4873757977	 0.136953
H	-0.6069984828	-1.7562384884	 0.5165013224	 0.156948
H	-2.171185932	 1.4145316497	 1.1106320592	 0.271172
H	-2.945284135	 0.9100488927	 2.6084946854	 0.258283
49.915	93.5215	141.9827	255.3937	260.1148	300.7164	347.2432	430.9076	435.1119	507.021	584.7	595.5069	620.9966	749.9952	847.4657	869.2038	922.2145	972.1759	999.2804	1108.6172	1144.047	1160.4037	1278.0701	1295.8147	1351.0102	1366.9868	1394.0636	1461.0486	1611.942	1658.3605	1803.9833	2348.3102	3040.3134	3057.7315	3129.9577	3491.5031	3514.9299	3572.1254	3694.8192
NC(CC(N)=O)C#N	N[C@@H](CC(=O)N)C#N	
InChI=1S/C4H7N3O/c5-2-3(6)1-4(7)8/h3H,1,6H2,(H2,7,8)	InChI=1S/C4H7N3O/c5-2-3(6)1-4(7)8/h3H,1,6H2,(H2,7,8)/t3-/m0/s1
