19
gdb 93739	2.94313	1.25865	1.12025	2.3404	71.62	-0.2462	-0.0323	0.2139	1171.5931	0.156425	-460.182267	-460.172796	-460.171852	-460.217302	34.053	
C	 0.1569652996	 1.383305195	-0.3582848566	-0.396916
C	-0.0805509626	-0.0325659019	 0.1409064996	 0.217145
O	 0.1039890848	-1.0087989673	-0.8696501582	-0.26673
C	 1.3811240703	-1.5948784651	-0.6702200475	-0.143386
C	 1.5560680792	-1.5198551599	 0.8474767827	 0.274595
C	 2.9989189439	-1.4039433254	 1.3340639057	-0.446536
O	 0.8386788122	-0.3344946838	 1.1913510047	-0.313307
C	 0.8922085798	-2.713653815	 1.5476463594	 0.126958
O	 0.9194216611	-3.843716684	 1.1380484707	-0.249336
H	 1.1689110693	 1.4813678069	-0.7612166059	 0.120068
H	-0.564276589	 1.6266142404	-1.1431859796	 0.127551
H	 0.037118894	 2.0946773329	 0.463693996	 0.127793
H	-1.1090553481	-0.1475657063	 0.5110250401	 0.088906
H	 1.3569967313	-2.6231577895	-1.0351961022	 0.140577
H	 2.1742844331	-1.0348759376	-1.1864271778	 0.093597
H	 3.4650192782	-0.5154558328	 0.9001939463	 0.131427
H	 3.0347116996	-1.3118376346	 2.4235940459	 0.134923
H	 3.5683316476	-2.2915351032	 1.0436950568	 0.140271
H	 0.3876333858	-2.4346454588	 2.5000801097	 0.092399
38.26	69.6879	127.5367	220.9527	230.5145	253.209	296.4082	303.6595	335.652	423.4288	467.4716	569.1053	622.3	738.2946	830.824	839.2745	879.1363	926.5779	961.887	971.1401	1026.2901	1045.0768	1087.0133	1130.2444	1153.554	1169.9197	1201.9897	1234.2054	1282.8395	1337.791	1378.5281	1389.5598	1396.0882	1404.5093	1416.0085	1481.3914	1483.8417	1486.212	1496.3323	1514.5656	1834.5764	2886.8402	2997.9105	3006.9847	3043.7608	3046.7433	3118.7068	3121.5273	3126.4277	3128.4041	3129.5932
CC1OCC(C)(O1)C=O	C[C@H]1OC[C@@](C)(O1)C=O	
InChI=1S/C6H10O3/c1-5-8-4-6(2,3-7)9-5/h3,5H,4H2,1-2H3	InChI=1S/C6H10O3/c1-5-8-4-6(2,3-7)9-5/h3,5H,4H2,1-2H3/t5-,6-/m0/s1
