20
gdb 39659	4.07915	1.06005	1.00217	2.8433	78.99	-0.2404	0.0794	0.3198	1253.4193	0.171953	-403.068722	-403.060723	-403.059779	-403.102577	30.197	
C	 0.3346003131	 1.7158990118	 0.2037790774	-0.245655
C	 1.8413700529	 1.3371851467	 0.0467199862	-0.245667
C	 1.4343177678	-0.1479519673	-0.0298085866	-0.040664
C	-0.0244578951	 0.2187076649	 0.1222997316	-0.040657
N	 0.4714189687	-0.4280432889	-1.0761396362	-0.083514
C	 0.4971697736	 0.2122211262	-2.3727084451	-0.000894
C	 1.258956003	-0.5769906162	-3.4593377278	-0.078167
O	 0.071256013	-0.697094639	-4.2687134037	-0.272896
C	-0.7396640432	-0.0748522013	-3.2511894844	-0.078171
H	 0.1183459018	 2.1356704198	 1.1882180278	 0.108651
H	-0.1083764667	 2.3685609183	-0.5544652623	 0.102686
H	 2.3813622215	 1.7425522302	-0.8142211198	 0.102686
H	 2.4155538962	 1.5585339815	 0.9485982572	 0.108661
H	 1.991000685	-0.9809754589	 0.3859283019	 0.094199
H	-0.8136179923	-0.2759527502	 0.6783451907	 0.094201
H	 0.7664923882	 1.2743313946	-2.3485369596	 0.073716
H	 2.0609237925	-0.0440069893	-3.9837532507	 0.096187
H	 1.6270429128	-1.5505787931	-3.1131625169	 0.104558
H	-1.4454298416	-0.7786242711	-2.7931506351	 0.104554
H	-1.2834802211	 0.7962663813	-3.6354398046	 0.096185
41.1253	58.4702	172.1228	194.2717	307.5429	356.6102	486.8311	505.8982	705.008	778.7002	780.8173	823.9643	833.7402	885.2981	887.7036	944.5722	949.473	953.7083	978.6572	1019.7195	1031.2503	1044.6165	1061.9188	1099.6499	1104.612	1130.1079	1139.5665	1162.6928	1177.0068	1217.5392	1221.7814	1247.8222	1264.3583	1277.6258	1293.8446	1307.7663	1358.8936	1386.6706	1403.9477	1479.0725	1500.3582	1501.3071	1528.6137	3010.8411	3019.8623	3030.7785	3054.5533	3061.2796	3063.4134	3069.3197	3104.4925	3121.8144	3162.6287	3174.2621
C1CC2C1N2C1COC1	C1C[C@H]2[C@@H]1N2C1COC1	
InChI=1S/C7H11NO/c1-2-7-6(1)8(7)5-3-9-4-5/h5-7H,1-4H2	InChI=1S/C7H11NO/c1-2-7-6(1)8(7)5-3-9-4-5/h5-7H,1-4H2/t6-,7+,8?
