21
gdb 78535	2.27677	1.53592	1.21976	1.0832	82.84	-0.2013	0.0812	0.2824	1152.8506	0.180588	-387.013302	-387.004071	-387.003127	-387.046562	36.197	
C	-0.2024553285	 1.5909875286	 0.1947863982	-0.438955
C	 0.1066056494	 0.1090995074	-0.0187419276	-0.081501
C	 0.5985255374	-0.652787123	-1.2487042023	-0.207866
C	 1.8381571301	-0.0950760376	-2.0145176119	 0.365099
C	 2.2273692374	-0.6693981345	-3.3455507733	-0.488334
C	 2.3609133283	 1.2105068723	-1.4826477296	-0.363689
C	 2.6247704259	-0.0612258608	-0.7108975935	-0.179029
C	 1.3965948524	-0.6639829974	 0.0351049855	 0.359908
O	 1.5793987785	-1.7516978665	 0.8757996789	-0.454436
H	-0.4318762736	 2.1065610211	-0.7423731987	 0.129484
H	-1.0809459368	 1.6926429155	 0.8397524505	 0.110241
H	 0.616669649	 2.1247513531	 0.6845565519	 0.126547
H	-0.6480750828	-0.5270258142	 0.4442805501	 0.095479
H	-0.0002187337	-1.4508108303	-1.6713864676	 0.089977
H	 1.545210201	-0.3372725816	-4.138764873	 0.116399
H	 3.2393065051	-0.3594859162	-3.6263603595	 0.114523
H	 2.2050602506	-1.7654152306	-3.3290448972	 0.120167
H	 3.2368675429	 1.5734360551	-2.0163468134	 0.1061
H	 1.727230482	 2.006104342	-1.1191128418	 0.110122
H	 3.6240848718	-0.4372589183	-0.5287733395	 0.087887
H	 1.7804150237	-1.4170529241	 1.7576657838	 0.281877
88.6099	181.4976	207.6515	215.363	247.2862	269.8856	304.372	317.5175	370.371	412.3295	503.739	568.4968	573.7663	660.5432	726.4418	802.5751	819.4183	852.2498	911.4246	936.8271	947.1332	962.6674	988.2968	1020.673	1063.2066	1072.8015	1090.5603	1104.0447	1108.7171	1135.7979	1166.5827	1210.4571	1250.8766	1283.2079	1310.9619	1352.7901	1383.8059	1413.0303	1419.9732	1474.9877	1483.638	1495.0157	1502.1398	1503.7064	1514.1545	3014.4765	3036.9415	3070.5836	3091.5012	3095.0915	3108.072	3112.8488	3125.3901	3181.7257	3186.9033	3239.8244	3775.8562
CC1C2C3(C)CC3C12O	C[C@H]1[C@H]2[C@@]3(C)C[C@H]3[C@@]12O	
InChI=1S/C8H12O/c1-4-6-7(2)3-5(7)8(4,6)9/h4-6,9H,3H2,1-2H3	InChI=1S/C8H12O/c1-4-6-7(2)3-5(7)8(4,6)9/h4-6,9H,3H2,1-2H3/t4-,5+,6-,7-,8-/m0/s1
