20
gdb 8460	3.69168	1.85673	1.62428	1.3411	74.88	-0.2325	0.093	0.3255	905.0254	0.177633	-349.000218	-348.992704	-348.991759	-349.031312	30.358	
C	-0.0912604267	 1.4956267598	-0.0637466265	-0.412728
C	 0.0872908383	-0.009029252	 0.0594195774	 0.163629
O	 0.96834867	-0.5203792398	-0.9732050371	-0.332467
C	 1.9573797585	-1.2512233659	-0.2133964681	 0.454989
C	 2.9578778536	-1.8930997023	-1.1322232436	-0.48986
C	 1.0904517463	-2.00659478	 0.8333501531	-0.270711
C	 0.8186968515	-0.5443525853	 1.3040752702	-0.078657
C	 2.3056080883	-0.258020612	 0.9289392822	-0.271057
H	 0.8463180004	 2.0331162265	 0.1010861163	 0.117517
H	-0.4532826825	 1.7476173784	-1.0650052829	 0.12633
H	-0.8288528637	 1.8518479866	 0.6637727614	 0.109942
H	-0.8938397416	-0.4937381463	-0.0467094518	 0.067865
H	 3.4670942356	-1.1338800081	-1.734108079	 0.126298
H	 3.7088875731	-2.4439437336	-0.5589205902	 0.114692
H	 2.4605908258	-2.5892273744	-1.8148405235	 0.126328
H	 0.2493561284	-2.5930482518	 0.4533566916	 0.093989
H	 1.6799802121	-2.5846386776	 1.5475694998	 0.094906
H	 0.3959818369	-0.3054471624	 2.2794260151	 0.067387
H	 3.0050466129	-0.6713844853	 1.6581452786	 0.095779
H	 2.6006160125	 0.7533257157	 0.6415823569	 0.095829
183.9448	205.1191	212.6901	245.9895	308.9557	355.2875	491.3886	497.9083	526.2303	620.0312	661.989	804.8414	825.7323	857.2511	871.3326	877.7597	913.8776	960.3992	971.8444	1024.5386	1030.9428	1037.584	1076.3808	1119.3968	1123.761	1147.2616	1187.2325	1199.9032	1217.9104	1238.1638	1295.2432	1327.0458	1337.9912	1395.5801	1409.618	1419.6748	1474.0732	1480.725	1489.861	1493.2394	1496.2684	1516.428	2994.2463	3038.1491	3039.7717	3059.4912	3071.3421	3106.5995	3109.4305	3117.0018	3119.6301	3122.7352	3127.5259	3134.4686
CC1OC2(C)CC1C2	C[C@H]1O[C@]2(C)C[C@H]1C2	
InChI=1S/C7H12O/c1-5-6-3-7(2,4-6)8-5/h5-6H,3-4H2,1-2H3	InChI=1S/C7H12O/c1-5-6-3-7(2,4-6)8-5/h5-6H,3-4H2,1-2H3/t5-,6-,7+/m1/s1
