25
gdb 108858	2.54725	1.0979	0.85599	0.3	96.18	-0.2245	0.0321	0.2566	1504.0975	0.228629	-352.389461	-352.379155	-352.378211	-352.424609	38.985	
C	-0.2915401236	 1.4879928764	-0.057335415	-0.373546
C	 0.0995826231	 0.0039392023	 0.0682593072	-0.294267
C	 0.7713394562	-0.5415900714	-1.1593873773	 0.337377
C	 2.0416971321	-0.9405831048	-1.2549528249	-0.191878
C	 2.4320021882	-1.3733320441	-2.6501507995	-0.007398
C	 3.2843319697	-2.6456493078	-2.7121353019	-0.394503
C	 1.0503367444	-1.5036744016	-3.3390532021	-0.227629
C	 0.068393085	-0.6380859728	-2.5103195399	-0.066698
C	-1.3553951683	-1.2056454958	-2.4658549908	-0.403469
H	 0.5910444069	 2.1090875629	-0.2400510082	 0.11899
H	-0.9900390068	 1.6515839654	-0.884267497	 0.119436
H	-0.7731306635	 1.842316264	 0.8593532349	 0.11155
H	 0.7653037871	-0.1238420007	 0.9292135147	 0.098244
H	-0.805054986	-0.579240053	 0.2878100387	 0.102593
H	 2.7535147737	-0.9266140006	-0.4339267508	 0.076088
H	 3.0081586685	-0.563622477	-3.1265727435	 0.071921
H	 2.7659516927	-3.485603716	-2.2363829063	 0.112028
H	 3.5004090847	-2.9261244046	-3.7488560234	 0.109648
H	 4.2422707973	-2.5087936988	-2.1985730136	 0.108734
H	 1.0708278975	-1.2296078121	-4.3980834616	 0.089026
H	 0.7273823558	-2.5514793176	-3.28354959	 0.09228
H	 0.010541201	 0.3714322074	-2.9471852456	 0.074055
H	-1.3655218047	-2.1990567967	-2.0029420884	 0.113336
H	-2.0356234637	-0.5630146602	-1.89734405	 0.112603
H	-1.7643488974	-1.304335973	-3.4770648959	 0.111479
71.0616	88.3894	123.2223	195.7552	214.8545	234.2177	243.0291	266.4858	298.8488	384.5431	415.9088	483.3645	542.3534	590.7757	634.9169	760.3196	795.6943	858.5404	873.0794	893.3716	915.3469	939.3988	963.7975	1007.2002	1044.4143	1060.0955	1070.0782	1083.0346	1122.5149	1125.9043	1166.5035	1193.4553	1236.3456	1262.1531	1289.3128	1306.7612	1317.8538	1341.1464	1349.0231	1353.7005	1378.9018	1404.2843	1407.633	1408.7111	1480.2801	1488.2252	1494.8852	1497.486	1499.2552	1499.5188	1500.3459	1508.6109	1711.9471	2964.8642	2971.1594	3013.7785	3021.8955	3025.1724	3028.2142	3035.0875	3058.9173	3082.0416	3093.2727	3094.2812	3095.8734	3097.1486	3105.154	3107.9965	3164.7957
CCC1=CC(C)CC1C	CCC1=C[C@@H](C)C[C@H]1C	
InChI=1S/C9H16/c1-4-9-6-7(2)5-8(9)3/h6-8H,4-5H2,1-3H3	InChI=1S/C9H16/c1-4-9-6-7(2)5-8(9)3/h6-8H,4-5H2,1-3H3/t7-,8+/m0/s1
