18
gdb 25766	4.11791	1.01719	0.82407	4.2253	85.25	-0.2176	-0.033	0.1847	1389.8137	0.147194	-402.021248	-402.012032	-402.011088	-402.055748	33.232	
C	-0.0501057579	 1.530780676	-0.0002356243	-0.513247
C	 0.0673311674	 0.0099325354	 0.0283641349	 0.31436
O	 1.1553247556	-0.536402898	 0.059551107	-0.32404
C	-1.1720063096	-0.7646744826	 0.0172663761	 0.239926
C	-1.341816966	-2.1413600167	 0.0380333645	-0.306255
C	-2.7275979897	-2.4230116082	 0.0157063838	 0.282195
C	-3.3840203999	-3.7714612258	 0.0264962948	-0.500244
C	-3.3735345222	-1.1966956945	-0.0185255247	-0.160746
N	-2.436577669	-0.207591382	-0.0172743848	-0.329438
H	 0.9517154755	 1.9605314793	 0.0095254924	 0.147303
H	-0.5759984696	 1.8689931114	-0.9009083375	 0.131045
H	-0.6061505464	 1.899403733	 0.8698941419	 0.131318
H	-0.5288884898	-2.8505936669	 0.0665989583	 0.119482
H	-3.1180902559	-4.3428983689	 0.9228405576	 0.131076
H	-4.4739423751	-3.681469479	 0.0036177693	 0.118961
H	-3.0836656952	-4.3737358382	-0.838227984	 0.131075
H	-4.4280299932	-0.9672905905	-0.0432573118	 0.124156
H	-2.6353916189	 0.7771609861	-0.0393325335	 0.263073
71.7267	83.5941	123.1421	151.6417	158.7651	290.7598	307.6621	381.5587	478.5366	500.816	565.2506	597.8537	636.3307	686.3583	687.8619	769.3171	867.1268	919.7162	986.7588	992.0968	1004.1534	1037.5954	1065.2073	1090.4194	1144.2734	1219.3769	1272.4679	1347.9015	1370.1261	1409.0258	1420.4554	1458.4177	1475.8192	1480.3745	1483.9805	1502.2638	1515.4247	1618.3363	1758.4823	3027.343	3029.7851	3081.1407	3087.9704	3106.4966	3153.6539	3250.2587	3257.6903	3685.55
CC(=O)C1=CC(C)=CN1	CC(=O)c1cc(C)c[nH]1	
InChI=1S/C7H9NO/c1-5-3-7(6(2)9)8-4-5/h3-4,8H,1-2H3	InChI=1S/C7H9NO/c1-5-3-7(6(2)9)8-4-5/h3-4,8H,1-2H3
