18
gdb 46142	4.01484	0.98837	0.85089	2.5429	76.35	-0.2527	-0.0292	0.2235	1315.7277	0.149259	-402.006068	-401.99785	-401.996905	-402.039209	30.864	
O	 0.0034147652	-0.081932461	 0.0125862818	-0.296865
C	-0.0135787523	 1.125071567	-0.006702335	 0.399441
C	-1.3087551784	 1.9290628352	 0.0042030669	-0.315846
C	-1.326627355	 3.0200693277	-1.0818193303	-0.21039
C	-0.065567712	 3.9094111749	-0.9960034765	-0.142461
C	 1.2168838895	 3.0553363433	-1.1162147946	-0.210387
C	 1.2586384377	 1.9646525219	-0.0305239567	-0.315844
C	-0.0939461123	 4.9569016237	-2.0185327708	 0.261619
N	-0.116176311	 5.7748571818	-2.8346913099	-0.316712
H	-2.1489878232	 1.240508757	-0.1077296371	 0.130587
H	-1.396123595	 2.402558315	 0.9928299817	 0.12252
H	-1.3636516745	 2.5571395349	-2.074603064	 0.130785
H	-2.2265794167	 3.6338492797	-0.9854734458	 0.127523
H	-0.0593332925	 4.4127341793	-0.0189475972	 0.124612
H	 1.2398759218	 2.5932400893	-2.1098103502	 0.130785
H	 2.1017530675	 3.6938618758	-1.0440002423	 0.127525
H	 1.3595518048	 2.4407565414	 0.9555565522	 0.12252
H	 2.1142989264	 1.2996090132	-0.1653959621	 0.130589
68.4721	147.422	162.9504	185.5329	302.1708	372.325	415.8818	446.5862	478.1965	534.864	565.068	678.9339	744.8372	761.4141	836.8225	914.591	933.4046	948.7833	1013.8475	1047.2759	1063.6416	1106.9789	1116.5744	1174.0835	1220.3058	1259.3185	1273.9248	1305.758	1317.8569	1343.6797	1349.6979	1362.0868	1394.6808	1460.7241	1470.5061	1490.2684	1504.9758	1825.1959	2358.9147	3011.6416	3013.2721	3018.4754	3046.0875	3050.3771	3094.3583	3097.0856	3112.9255	3114.2781
O=C1CCC(CC1)C#N	O=C1CCC(CC1)C#N	
InChI=1S/C7H9NO/c8-5-6-1-3-7(9)4-2-6/h6H,1-4H2	InChI=1S/C7H9NO/c8-5-6-1-3-7(9)4-2-6/h6H,1-4H2
