19
gdb 120390	3.10018	0.87846	0.75688	2.9413	71.88	-0.2715	0.0092	0.2807	1512.5652	0.157953	-460.190008	-460.180338	-460.179394	-460.22533	34.242	
C	-0.262023599	 1.572286732	 0.1699489275	-0.412396
C	-0.068971267	 0.0661470178	 0.0450833627	-0.215341
C	 0.4817542092	-0.5791391375	-1.2546583958	 0.119382
C	 0.9561578575	 0.295424542	-2.3971674773	-0.2196
C	 1.6910821615	-0.5058712287	-3.4788376576	-0.069165
O	 2.0892621843	 0.3018843372	-4.57298106	-0.41659
O	 1.6161219191	-1.1331864829	-0.4883121929	-0.26154
C	 1.1924845072	-0.5352907645	 0.6717606596	 0.453111
O	 1.7254736669	-0.5512639994	 1.7343416496	-0.324817
H	 0.6159478146	 2.1297359404	-0.1660708737	 0.130951
H	-1.124990214	 1.9074709721	-0.4129961316	 0.12819
H	-0.4391195218	 1.8331407065	 1.2170510588	 0.144122
H	-0.9579590032	-0.4580409875	 0.4095873559	 0.11749
H	-0.1279701566	-1.4096629718	-1.6248282178	 0.096992
H	 0.0925795081	 0.7963172603	-2.8509286995	 0.116653
H	 1.6199791191	 1.0785327899	-2.0104810511	 0.099267
H	 2.5431584855	-1.0365204794	-3.0311762838	 0.115505
H	 1.0199468659	-1.2644549319	-3.8974553871	 0.113277
H	 2.7999548927	 0.8774776956	-4.2734871561	 0.284507
63.7093	95.3068	116.8012	126.1709	194.5731	208.3116	270.3281	293.8228	352.7968	404.341	515.5955	544.1695	682.7813	739.8409	800.1002	816.9867	874.802	882.0407	1001.2447	1044.514	1060.4975	1070.3685	1076.6827	1115.863	1145.1639	1162.8001	1196.4299	1229.9501	1268.2067	1317.9731	1330.6227	1354.0675	1389.4782	1412.125	1419.0372	1422.2063	1471.16	1496.2513	1498.8463	1512.6911	1934.4437	3009.1485	3029.0876	3047.5924	3054.7598	3061.1396	3070.2923	3086.7246	3117.6092	3124.2136	3819.6726
CC1C(CCO)OC1=O	C[C@H]1[C@@H](CCO)OC1=O	
InChI=1S/C6H10O3/c1-4-5(2-3-7)9-6(4)8/h4-5,7H,2-3H2,1H3	InChI=1S/C6H10O3/c1-4-5(2-3-7)9-6(4)8/h4-5,7H,2-3H2,1H3/t4-,5+/m0/s1
