15
gdb 43966	3.1527	1.68741	1.52257	4.3623	68.91	-0.2527	-0.0116	0.2411	898.7748	0.113964	-420.61513	-420.608594	-420.60765	-420.645911	26.257	
O	-0.1580411669	 0.0680974606	-0.0156593715	-0.322972
C	-0.011011513	 1.2420728578	 0.0589404082	 0.416834
O	-1.0080606514	 2.207500509	 0.2245265796	-0.289034
C	-0.0235403318	 3.2610643672	 0.0013344922	 0.367923
C	 0.9758306586	 3.2721465366	 1.0915043215	-0.354252
C	 1.1129332951	 2.2540055075	-0.0558516546	-0.01541
C	 1.8921878404	 2.6080670986	-1.2736105583	-0.170688
C	 1.3114036993	 3.6325801952	-1.9155336625	-0.05532
C	 0.0158174672	 4.1070037995	-1.2548700297	-0.355881
H	 1.7233923279	 4.0581377063	 1.0801110268	 0.140704
H	 0.6772334928	 2.9231888825	 2.0738819671	 0.143462
H	 2.802370717	 2.1098373785	-1.5834898451	 0.116571
H	 1.7052303638	 4.1074503151	-2.808736498	 0.108639
H	-0.8590225551	 3.9034104333	-1.883792827	 0.142066
H	 0.0164081262	 5.1831032622	-1.0504966087	 0.127358
133.1948	209.4354	316.9046	395.9522	412.2767	491.4961	611.4995	647.8097	685.9772	694.7873	763.4776	820.6747	852.5402	868.28	907.9519	921.5339	944.8519	949.1771	979.6735	1012.942	1065.2424	1104.4373	1133.8835	1145.7245	1241.3125	1259.5829	1312.3041	1362.7486	1373.9278	1466.5715	1476.3848	1638.2132	1939.7309	3041.045	3075.3403	3135.3925	3183.6831	3216.9453	3231.3018
O=C1OC23CC12C=CC3	O=C1O[C@@]23C[C@@]12C=CC3	
InChI=1S/C7H6O2/c8-5-6-2-1-3-7(6,4-6)9-5/h1-2H,3-4H2	InChI=1S/C7H6O2/c8-5-6-2-1-3-7(6,4-6)9-5/h1-2H,3-4H2/t6-,7-/m0/s1
