19
gdb 108187	3.20207	1.45072	1.34731	2.4376	74.84	-0.244	0.007	0.2511	1026.2371	0.161276	-423.020893	-423.01345	-423.012506	-423.052524	30.41	
O	-0.0057321727	 1.3920341627	 0.0412141843	-0.425679
C	 0.0234841933	-0.0240339004	 0.029158694	-0.158465
C	-1.3693079115	-0.595503914	-0.0929640468	 0.380662
C	-1.6187536163	-2.1090712682	-0.0066315727	-0.272469
C	-3.1569051211	-1.9066480764	-0.0571160596	-0.106301
C	-3.299275153	-0.9352733373	 1.1563069801	-0.072079
O	-2.1243898844	-0.1215793991	 1.0812496896	-0.328166
C	-3.277885903	-1.024082099	-1.2892430153	-0.092316
C	-2.2063140067	-0.2241373989	-1.3095791466	-0.109073
H	-0.6502918114	 1.6358899773	 0.7163578097	 0.294783
H	 0.6270508373	-0.3233157283	-0.8340294501	 0.10854
H	 0.5006196191	-0.4270563996	 0.9361042872	 0.090426
H	-1.2387902881	-2.664719179	-0.8650145795	 0.106331
H	-1.2532044694	-2.5446441157	 0.9281573061	 0.099153
H	-3.7923714186	-2.7901761924	-0.0081417332	 0.071325
H	-4.198826811	-0.3126304913	 1.0933848997	 0.099547
H	-3.3061199889	-1.4782737481	 2.1097272305	 0.099928
H	-4.1438417473	-0.9880091287	-1.9385055718	 0.100241
H	-1.9964030864	 0.6137568764	-1.9604201458	 0.113611
111.2744	168.5998	264.5414	329.4387	380.0206	429.4931	452.1277	499.9079	523.1373	666.8158	678.0395	746.6448	796.9253	816.8538	847.9618	866.1843	922.0507	940.2353	952.6632	974.4854	1016.7631	1034.4979	1062.9187	1067.8937	1095.5634	1120.4074	1162.7802	1182.7721	1206.4724	1237.7025	1265.4659	1284.6511	1299.2276	1353.094	1369.6597	1384.7904	1444.7225	1487.7795	1496.1118	1522.6941	1635.3973	2985.2731	3017.7235	3060.675	3063.6577	3076.9685	3124.324	3133.0663	3203.3014	3234.4195	3793.9063
OCC12CC(CO1)C=C2	OC[C@@]12C[C@@H](CO1)C=C2	
InChI=1S/C7H10O2/c8-5-7-2-1-6(3-7)4-9-7/h1-2,6,8H,3-5H2	InChI=1S/C7H10O2/c8-5-7-2-1-6(3-7)4-9-7/h1-2,6,8H,3-5H2/t6-,7+/m0/s1
