16
gdb 31913	3.60441	1.02881	0.81276	2.7821	86.05	-0.194	0.0022	0.1962	1355.3444	0.12427	-400.752293	-400.743637	-400.742693	-400.785897	32.217	
O	 0.4559620773	-0.3020073248	 1.0330996047	-0.424159
C	-0.154627081	 0.2682844484	-0.1221301152	-0.212224
C	-1.5540424746	-0.2438879762	-0.203702469	 0.318955
C	-2.7124281601	 0.3109740176	-0.7141635956	-0.230793
C	-3.7380650961	-0.6551606233	-0.589367122	-0.252574
C	-3.186288522	-1.7817436601	 0.0049168735	 0.17042
N	-1.848653139	-1.5080884235	 0.2155189294	-0.341654
C	-3.7657394705	-3.0083220809	 0.3805498693	 0.261228
C	-4.2506078182	-4.0635688079	 0.7053803122	-0.456784
H	 1.4021214947	-0.1372108788	 0.9834446034	 0.293663
H	-0.1727900541	 1.3670519088	-0.077698181	 0.110232
H	 0.4122093378	-0.0104268376	-1.026301492	 0.106061
H	-2.8036085955	 1.3009784181	-1.1346459566	 0.096252
H	-4.7698240428	-0.5555074792	-0.8872442623	 0.102401
H	-1.199199312	-2.0964676095	 0.7102233799	 0.272041
H	-4.6866880739	-4.988576771	 0.9895189215	 0.186934
66.8944	120.3514	139.1295	204.7774	259.6221	296.7529	441.1838	455.4792	500.0673	537.5103	558.53	572.1447	641.1834	673.9214	682.9328	723.1706	789.654	841.5989	993.4008	1007.6089	1031.3165	1054.8351	1072.8274	1179.6775	1229.8054	1238.4714	1263.864	1311.1111	1409.7334	1431.4605	1476.1014	1510.7643	1518.7796	1610.4566	2223.3961	2955.0036	3006.651	3243.6152	3263.8456	3504.5487	3674.6019	3831.6445
OCC1=CC=C(N1)C#C	OCc1ccc([nH]1)C#C	
InChI=1S/C7H7NO/c1-2-6-3-4-7(5-9)8-6/h1,3-4,8-9H,5H2	InChI=1S/C7H7NO/c1-2-6-3-4-7(5-9)8-6/h1,3-4,8-9H,5H2
