18
gdb 93047	2.49851	1.9193	1.2754	1.6368	72.45	-0.2507	0.0195	0.2702	1005.5697	0.149384	-439.081788	-439.074154	-439.07321	-439.114059	29.065	
C	 0.1105688239	 1.5658511687	-0.0533369364	-0.404521
C	 0.0780648505	 0.0478422901	 0.0110788611	 0.104728
O	 0.6643520189	-0.4398497669	-1.2146970419	-0.236759
C	 1.1453343961	-1.7011381066	-1.2218341853	 0.130799
N	 1.4191769034	-2.4718099212	-0.2551835702	-0.269686
C	 1.3065684721	-1.9589110986	 1.091817213	-0.0482
C	 2.6298535842	-1.3353190886	 1.6034711998	-0.072542
O	 2.0954043062	 0.000150956	 1.4667199619	-0.292691
C	 0.7672955255	-0.5156863211	 1.2398688155	 0.093345
H	 1.1439589182	 1.9157070676	-0.0038594215	 0.150541
H	-0.343381227	 1.9152033098	-0.9837744871	 0.12826
H	-0.4437564067	 1.9912196573	 0.7886659988	 0.120413
H	-0.9599593921	-0.3159405627	 0.0303012841	 0.090297
H	 1.3024812796	-2.0315621938	-2.2475434101	 0.125019
H	 0.8601754201	-2.7182192458	 1.7364984865	 0.088405
H	 2.8716798831	-1.5693454766	 2.6478780767	 0.101446
H	 3.5037740549	-1.5045796882	 0.9678981466	 0.117034
H	 0.1240341291	-0.3538956792	 2.1168904685	 0.074112
106.2115	110.2737	217.6661	236.9877	304.6014	364.8474	438.7695	514.39	560.6437	660.8019	752.2829	820.7108	847.445	858.4594	918.4401	949.5895	971.6764	993.3109	1005.7253	1053.2193	1066.0719	1105.4788	1136.5695	1166.3048	1179.5352	1198.9866	1242.8672	1265.1046	1329.0103	1347.8917	1358.7341	1380.9088	1385.212	1407.1678	1419.1586	1485.1076	1498.9374	1516.1639	1723.4012	2992.5498	3007.6069	3021.0861	3051.6142	3085.574	3094.4832	3124.9033	3142.4993	3153.1132
CC1OC=NC2COC12	C[C@H]1OC=N[C@H]2CO[C@@H]12	
InChI=1S/C6H9NO2/c1-4-6-5(2-8-6)7-3-9-4/h3-6H,2H2,1H3	InChI=1S/C6H9NO2/c1-4-6-5(2-8-6)7-3-9-4/h3-6H,2H2,1H3/t4-,5+,6+/m1/s1
