19
gdb 9373	5.10646	0.77498	0.69809	3.6905	72.57	-0.2747	0.0377	0.3124	1567.7099	0.164095	-365.080055	-365.070245	-365.069301	-365.11544	33.848	
C	 0.110258529	 1.5844126524	-0.0042610824	-0.390908
C	-0.0133156955	 0.0481369017	-0.0339072994	-0.142401
C	-1.4751559652	-0.4603326797	 0.007936341	-0.18713
C	-2.2013549954	-0.1243019716	 1.313172923	-0.182681
C	-3.5969719981	-0.7343443303	 1.3717645232	-0.077157
O	-4.1838532337	-0.347176605	 2.6034593836	-0.420236
C	 0.6606987795	-0.4865258587	-1.2229818076	 0.264813
N	 1.1802878285	-0.9051575182	-2.1668968824	-0.324137
H	 1.1569631539	 1.8908994927	-0.0698511392	 0.138796
H	-0.4289488059	 2.0310893013	-0.844775813	 0.135834
H	-0.3041734419	 1.9817339851	 0.9248305267	 0.132744
H	 0.5152152354	-0.3606317586	 0.8376778777	 0.127317
H	-2.0171671857	-0.0401998168	-0.8483268943	 0.115597
H	-1.4653370484	-1.546943257	-0.1359397342	 0.118303
H	-1.6264661023	-0.4920589261	 2.1723752953	 0.109448
H	-2.3010155631	 0.9587470518	 1.441035469	 0.115692
H	-4.1932069576	-0.3801162767	 0.5147036932	 0.088616
H	-3.5275082689	-1.8312550848	 1.2875273254	 0.089203
H	-5.0650879047	-0.7288643316	 2.6517359443	 0.288285
54.6927	80.4178	104.7497	138.7062	188.6327	217.6545	262.0508	275.6554	306.6796	381.8714	446.3458	558.417	589.4178	757.8599	814.0097	866.7787	921.3653	1001.6852	1009.1539	1051.7189	1068.4519	1096.4897	1124.5408	1180.2545	1220.6379	1235.2681	1289.368	1304.0315	1319.615	1341.57	1345.6783	1393.0107	1414.0742	1465.0516	1483.9734	1497.4175	1499.6333	1503.3507	1529.0435	2355.7282	2960.0796	2986.1549	3022.1864	3029.1032	3038.2961	3051.8074	3064.5785	3090.1793	3125.7584	3135.1497	3831.118
CC(CCCO)C#N	C[C@@H](CCCO)C#N	
InChI=1S/C6H11NO/c1-6(5-7)3-2-4-8/h6,8H,2-4H2,1H3	InChI=1S/C6H11NO/c1-6(5-7)3-2-4-8/h6,8H,2-4H2,1H3/t6-/m0/s1
