21
gdb 95845	2.27458	1.41389	1.115	1.2324	83.9	-0.2516	0.0405	0.2921	1209.9414	0.182513	-387.074985	-387.066005	-387.065061	-387.108252	35.062	
C	 0.0177623561	 1.5455965457	 0.0536676007	-0.400448
C	 0.0246826531	 0.0294472469	-0.0672671991	 0.144929
C	 0.7727775906	-0.4787177174	-1.3046286118	-0.190389
C	 0.8674115196	-2.0109961317	-1.2939085746	-0.220713
C	 1.4599050501	-2.4915929026	 0.0358017516	-0.20742
C	 0.6857258135	-1.8857854107	 1.2243056119	-0.053471
O	 0.6369915241	-0.4663807295	 1.1291974885	-0.265009
C	-0.65357878	-2.4792927545	 1.3689361977	 0.351163
C	-1.7432268712	-2.9730930341	 1.4909641458	-0.498923
H	 1.0411389411	 1.9297416946	 0.1114267579	 0.120235
H	-0.4742798716	 1.9966167124	-0.8134883107	 0.111937
H	-0.5152716409	 1.8540843294	 0.9568521422	 0.123773
H	-1.0134615359	-0.3379511582	-0.1071302692	 0.076024
H	 0.2635837481	-0.1271021736	-2.2092576904	 0.092329
H	 1.7805465916	-0.0423888148	-1.3077882773	 0.095762
H	-0.1334993107	-2.4418718827	-1.4212236067	 0.10966
H	 1.4756446318	-2.3674639844	-2.1316823799	 0.094992
H	 1.4503166777	-3.5835741554	 0.1083930904	 0.105162
H	 2.501286596	-2.1598320519	 0.1217781463	 0.101699
H	 1.2406541057	-2.0781587503	 2.1497312083	 0.109926
H	-2.7054946487	-3.4067591272	 1.6097033286	 0.198782
107.1179	114.5109	189.6772	216.9222	261.6627	302.6729	316.2631	398.0644	419.2348	475.1639	513.6205	587.5514	626.355	669.1888	687.5929	781.7455	831.9289	862.8651	870.3481	926.8809	950.7059	984.1857	997.4942	1058.	1093.9195	1103.2576	1135.8423	1160.3552	1214.1962	1226.3076	1284.7889	1308.6571	1344.5257	1364.8125	1369.7231	1383.5336	1387.2456	1401.6198	1409.8525	1470.3755	1478.6344	1484.9278	1494.1694	1500.4192	2226.394	2977.3389	3019.9015	3030.7991	3033.8455	3040.7035	3046.5692	3067.9463	3076.7607	3089.9756	3113.1767	3121.2702	3502.1382
CC1CCCC(O1)C#C	C[C@H]1CCC[C@@H](O1)C#C	
InChI=1S/C8H12O/c1-3-8-6-4-5-7(2)9-8/h1,7-8H,4-6H2,2H3	InChI=1S/C8H12O/c1-3-8-6-4-5-7(2)9-8/h1,7-8H,4-6H2,2H3/t7-,8-/m0/s1
