18
gdb 95102	2.55393	1.56129	1.18314	2.3109	79.23	-0.2369	0.0281	0.265	1087.6138	0.14724	-401.89714	-401.888755	-401.887811	-401.92981	32.418	
C	 0.1684448077	 1.579303728	-0.0699865111	-0.409109
C	 0.0663943502	 0.065869357	 0.0019159818	 0.079047
O	 0.7465148804	-0.4942596574	-1.1208831361	-0.274531
C	 1.2758861191	-1.7698588797	-0.7877478939	-0.079138
C	 1.5226406724	-1.7305029992	 0.7058649908	-0.12902
N	 2.2207905399	-0.5076685834	 1.1281991025	-0.366559
C	 0.7342886831	-0.5763002539	 1.2226303809	 0.175259
C	 0.0826495522	-0.5608090482	 2.4938407823	 0.178009
C	-0.4766133732	-0.5090188368	 3.5580706978	-0.380105
H	 1.21601287	 1.8818221551	-0.0034033091	 0.139914
H	-0.2451376953	 1.9399692824	-1.0153694135	 0.124663
H	-0.3919084321	 2.0363950492	 0.7512013788	 0.119859
H	-0.9908437306	-0.2471954846	 0.0043651936	 0.071326
H	 0.5670399447	-2.5809150414	-1.0210839364	 0.09435
H	 2.1857345817	-1.9156263141	-1.3787405491	 0.117454
H	 1.630639046	-2.6479873619	 1.273807134	 0.106724
H	 2.6039168186	-0.6483728255	 2.0608822615	 0.239742
H	-0.968124925	-0.4724039058	 4.4986994553	 0.192116
111.904	143.1433	173.7688	228.7844	251.4488	329.6133	386.9258	475.2701	517.3572	527.0775	586.4029	600.7565	658.3765	667.0248	759.0178	842.9999	863.8151	890.358	920.5122	996.5723	1044.4911	1058.6242	1093.4897	1095.4033	1114.4573	1145.3067	1169.585	1236.4054	1277.1828	1283.3874	1344.5417	1382.9518	1386.263	1406.1475	1429.5996	1485.0855	1498.5549	1506.8546	2235.1808	2966.6418	2977.4308	3048.3161	3075.1107	3121.1611	3137.0219	3180.0894	3498.3773	3501.9571
CC1OCC2NC12C#C	C[C@H]1OC[C@H]2N[C@@]12C#C	
InChI=1S/C7H9NO/c1-3-7-5(2)9-4-6(7)8-7/h1,5-6,8H,4H2,2H3	InChI=1S/C7H9NO/c1-3-7-5(2)9-4-6(7)8-7/h1,5-6,8H,4H2,2H3/t5-,6-,7+/m1/s1
