15
gdb 42790	2.47369	1.72292	1.42236	3.1664	66.18	-0.2487	-0.0544	0.1943	942.9677	0.112649	-457.770165	-457.762874	-457.761929	-457.802339	27.42	
O	-0.0612951523	 0.0200994046	-0.0210798288	-0.291662
C	-0.0597117562	 1.2116030422	-0.0191104051	 0.409034
C	-1.1090068241	 2.3397187718	 0.122494961	 0.011279
C	 0.0154183149	 3.1327030423	 0.8435701996	-0.283119
C	 1.0536734358	 2.2976045408	 0.0148571817	-0.251107
C	 1.1008461564	 2.9088541841	-1.3791817377	 0.383143
O	 2.1041340837	 3.0555969934	-2.0252136256	-0.305503
C	-0.274467345	 3.3542131809	-1.9031845229	-0.180315
O	-1.3953461457	 2.8744141788	-1.1640241594	-0.273135
H	-2.0646155154	 2.1499943212	 0.6102298575	 0.111379
H	 0.016304782	 4.214660641	 0.6993556056	 0.128016
H	 0.0663698898	 2.8963429172	 1.9078781587	 0.135403
H	 2.0473048093	 2.0597313192	 0.3901172498	 0.114363
H	-0.2808110191	 4.4532986764	-1.925756208	 0.139301
H	-0.3720025739	 3.0067659061	-2.9365546463	 0.152922
78.691	121.733	175.4698	356.9714	421.0386	426.1707	473.8168	513.5224	562.5867	636.2339	724.7531	795.9022	830.0947	883.1964	920.5994	969.8293	999.6147	1011.3102	1058.2512	1075.4509	1122.7738	1148.407	1185.7964	1216.7011	1235.9938	1252.0513	1265.8276	1329.9254	1367.8813	1474.0449	1489.1935	1830.1549	1904.9082	3010.1782	3079.4297	3082.7915	3130.0883	3140.9569	3145.0082
O=C1C2CC1C(=O)CO2	O=C1[C@H]2C[C@@H]1C(=O)CO2	
InChI=1S/C6H6O3/c7-4-2-9-5-1-3(4)6(5)8/h3,5H,1-2H2	InChI=1S/C6H6O3/c7-4-2-9-5-1-3(4)6(5)8/h3,5H,1-2H2/t3-,5-/m1/s1
