21
gdb 66348	2.24047	1.44447	1.34329	1.1711	83.77	-0.2512	0.0433	0.2946	1131.3242	0.182347	-387.074442	-387.065513	-387.064568	-387.107317	35.427	
C	 0.0096761368	 1.5097548049	 0.0598702005	-0.419905
C	-0.0333670267	-0.0205635797	-0.0135295094	 0.171695
C	 0.6813303312	-0.5404227779	-1.2840500588	-0.209262
C	 0.8679224384	-2.0617103505	-1.2446966183	-0.217372
C	 1.5544034793	-2.4722835215	 0.064866061	-0.195138
C	 0.7965958891	-1.8869113411	 1.2561064001	-0.072829
O	 0.6624417476	-0.4728347174	 1.1544785844	-0.273357
C	-1.4368640047	-0.4785437102	 0.0084763171	 0.372567
C	-2.5837862665	-0.8400967376	 0.0237460536	-0.527399
H	 1.0514205237	 1.8410617457	 0.0794524317	 0.120998
H	-0.4920885608	 1.9494871404	-0.8058304791	 0.121548
H	-0.4864614144	 1.8553975897	 0.9692789192	 0.131933
H	 0.1168742083	-0.2341158128	-2.1705649013	 0.101533
H	 1.6603156525	-0.0476470239	-1.3271317458	 0.098277
H	-0.1120555824	-2.5496412698	-1.3145795905	 0.109709
H	 1.4507860797	-2.3917312889	-2.1109239614	 0.094092
H	 1.6026302202	-3.5630546469	 0.1599754619	 0.093073
H	 2.5854153419	-2.0969163084	 0.0782548442	 0.099729
H	-0.1970723571	-2.3529880103	 1.3391113075	 0.098909
H	 1.3298173194	-2.0597154986	 2.1953602039	 0.103659
H	-3.5975380456	-1.1566010454	 0.0424128097	 0.19754
119.7332	151.2874	193.7287	228.9535	267.5896	301.9629	332.0345	398.812	426.6941	456.3055	535.7275	580.2661	614.5269	628.3235	664.1916	681.6825	821.6283	853.947	869.3455	894.1685	920.5557	981.5077	987.6243	1061.4027	1072.2844	1103.0724	1123.6358	1182.4147	1201.8265	1230.7696	1243.4876	1299.0095	1314.2666	1362.3085	1375.1527	1381.7104	1401.9787	1412.6968	1469.1964	1478.2692	1482.7906	1490.0833	1494.1043	1505.1384	2223.5828	2995.6005	3026.3442	3031.0484	3032.6538	3049.9876	3069.9213	3077.2629	3085.2794	3087.4679	3129.0989	3136.4322	3500.1535
CC1(CCCCO1)C#C	C[C@]1(CCCCO1)C#C	
InChI=1S/C8H12O/c1-3-8(2)6-4-5-7-9-8/h1H,4-7H2,2H3	InChI=1S/C8H12O/c1-3-8(2)6-4-5-7-9-8/h1H,4-7H2,2H3/t8-/m1/s1
