17
gdb 124687	3.96709	0.92808	0.90644	3.5358	70.9	-0.2699	-0.0358	0.2341	1320.2301	0.134729	-455.122132	-455.113145	-455.112201	-455.156653	31.83	
C	 0.0140554406	 1.5775633622	-0.0440308929	-0.396725
C	 0.0036122536	 0.0393068907	 0.0216085632	-0.103296
C	 0.7240643821	-0.4772563631	 1.2787431037	-0.077362
O	 2.0752952931	-0.0625051647	 1.1871619215	-0.419424
C	-1.3846199794	-0.5081731117	-0.0411879753	 0.427175
C	-2.0389037944	-1.303764744	-0.9324531376	-0.228914
N	-3.3191819459	-1.4731679732	-0.4635218917	-0.107543
N	-3.485433192	-0.8581131854	 0.6168137629	-0.012995
O	-2.2386911891	-0.2052555324	 0.9385402956	-0.229097
H	 1.0422140404	 1.9361754042	 0.0273836723	 0.143465
H	-0.4216141876	 1.9328600097	-0.98175697	 0.123216
H	-0.563659161	 2.0020510175	 0.7824633292	 0.133355
H	 0.5456692609	-0.3577742433	-0.844063009	 0.107608
H	 0.2307857342	-0.0688840963	 2.1732997335	 0.109094
H	 0.642572576	-1.5741224189	 1.3231148141	 0.097902
H	 2.5242257023	-0.3082773877	 2.0010208419	 0.293722
H	-1.6988848036	-1.7539930835	-1.8489959715	 0.139818
48.8154	101.4875	118.5682	192.1421	230.1575	234.1015	288.6108	368.2879	383.1855	467.0737	622.1643	698.7414	731.9727	749.9094	824.8485	875.6689	937.2038	987.5962	1009.6809	1054.3439	1083.2714	1103.0401	1123.1844	1160.9949	1233.2559	1247.3771	1271.2363	1313.9692	1349.665	1385.3127	1401.6439	1457.3527	1462.0586	1495.4086	1502.4634	1524.3637	1605.0228	2980.1208	3015.9568	3049.3361	3055.9796	3120.3313	3144.3919	3291.4563	3837.4342
CC(CO)C1=CN=NO1	C[C@@H](CO)c1cnno1	
InChI=1S/C5H8N2O2/c1-4(3-8)5-2-6-7-9-5/h2,4,8H,3H2,1H3	InChI=1S/C5H8N2O2/c1-4(3-8)5-2-6-7-9-5/h2,4,8H,3H2,1H3/t4-/m0/s1
