22
gdb 56812	2.21993	1.24838	0.9302	4.1319	86.4	-0.2772	0.0378	0.3151	1353.075	0.192847	-367.22596	-367.21546	-367.214516	-367.261514	38.126	
C	-1.9999135471	 0.6200753612	 1.7744471989	-0.396031
C	-1.2485488802	-0.475089324	 0.9896360907	-0.162569
C	-0.9951380436	-0.031902505	-0.3892984416	 0.280285
N	-0.7887150142	 0.3248976099	-1.4693759283	-0.331717
C	 0.0646145567	-0.8557788145	 1.6663323168	-0.011563
C	 0.1444472032	-1.9179986604	 2.747665017	-0.045499
C	-1.0526486717	-2.6992691277	 3.2489950994	-0.412267
C	 0.7847146252	-2.1605111811	 1.3950921255	-0.030123
C	 0.2784375681	-3.1926292992	 0.407675278	-0.416201
H	-1.3869808145	 1.5216451548	 1.8610283172	 0.136157
H	-2.9361989051	 0.889686293	 1.279299777	 0.133691
H	-2.2254478975	 0.2589427203	 2.7809949565	 0.129629
H	-1.8997295493	-1.3520309255	 0.9175618088	 0.1198
H	 0.7056543532	 0.0104769809	 1.8107044107	 0.094229
H	 0.8454731452	-1.6795475677	 3.5440538265	 0.088281
H	-1.7619903106	-2.9566165049	 2.4588260034	 0.11718
H	-0.7296967527	-3.6401975632	 3.7075524563	 0.123692
H	-1.6000872455	-2.1344094494	 4.0118346928	 0.120735
H	 1.8681129794	-2.0711248423	 1.3835799119	 0.089223
H	-0.8068705142	-3.3173673044	 0.4338988414	 0.113605
H	 0.5498704456	-2.914532692	-0.6158179952	 0.139269
H	 0.7208652099	-4.172677829	 0.6161779462	 0.120195
52.5718	101.7628	155.011	167.2016	185.2698	197.104	223.0785	245.7719	271.4645	304.8541	452.4692	485.0709	508.9469	548.3241	606.3124	762.5366	774.597	814.9278	872.2828	948.4292	952.9531	987.6858	1031.1109	1048.3608	1080.732	1109.0242	1120.2405	1135.6225	1162.0669	1188.4782	1193.0063	1274.0083	1283.7431	1320.8439	1380.0983	1391.7812	1411.6627	1420.6578	1427.1616	1453.0995	1489.1177	1493.0099	1494.2885	1498.8874	1503.4677	1515.4861	2353.248	3034.0339	3039.0884	3048.408	3061.697	3089.113	3097.3869	3106.7189	3116.5951	3124.8526	3128.3466	3129.9786	3130.3427	3145.87
CC(C#N)C1C(C)C1C	C[C@@H](C#N)[C@H]1[C@@H](C)[C@H]1C	
InChI=1S/C8H13N/c1-5(4-9)8-6(2)7(8)3/h5-8H,1-3H3	InChI=1S/C8H13N/c1-5(4-9)8-6(2)7(8)3/h5-8H,1-3H3/t5-,6-,7+,8-/m0/s1
