17
gdb 36161	4.23918	1.1401	1.11215	3.354	74.96	-0.25	0.0238	0.2738	1116.1523	0.137341	-380.816278	-380.808905	-380.807961	-380.848601	28.462	
N	-0.0164572458	-1.165854582	 0.0076178593	-0.306596
C	-0.0467819334	-0.0108166681	 0.0182086874	 0.267259
C	-0.0495859507	 1.4529244048	 0.0304896829	-0.474738
C	 1.357063499	 2.0202308563	 0.0001452186	 0.298185
C	 2.3525484889	 1.8046452847	 1.1753254431	-0.280189
C	 3.0081497263	 3.1005799329	 0.7041601297	-0.031096
C	 1.7830931037	 3.5468265465	 0.0023599787	-0.119679
N	 2.9763479943	 3.1688566989	-0.801651886	-0.140964
C	 2.2861490455	 1.9056839366	-1.2222308478	-0.18099
H	-0.6241644555	 1.8081527655	-0.8335916378	 0.155012
H	-0.582656888	 1.7924222073	 0.9266627714	 0.154994
H	 1.8717983799	 1.9476311431	 2.1471095778	 0.110286
H	 2.933162471	 0.8768475787	 1.1788877137	 0.114452
H	 3.7725686697	 3.69193704	 1.1896239793	 0.106925
H	 1.2566928355	 4.4891596878	-0.0760886532	 0.102627
H	 2.9248855775	 1.0196283635	-1.3061180114	 0.113005
H	 1.7789559321	 2.0925729334	-2.1729482755	 0.111508
60.8592	107.4421	279.4988	284.5372	392.6966	445.7202	451.916	458.7153	688.6333	722.8955	752.219	798.525	849.0324	892.9491	908.4704	936.3773	963.1639	970.5671	984.666	995.3228	1019.3962	1082.8621	1111.3062	1144.2525	1154.3096	1166.6833	1206.9974	1244.2172	1269.4223	1278.2113	1310.2773	1345.0853	1351.7763	1463.4678	1493.7021	1517.4433	2362.2684	3033.9502	3040.8777	3051.3028	3070.7428	3101.9511	3107.8409	3197.5857	3215.7625
N#CCC12CC3C1N3C2	N#CC[C@]12C[C@@H]3[C@H]1N3C2	
InChI=1S/C7H8N2/c8-2-1-7-3-5-6(7)9(5)4-7/h5-6H,1,3-4H2	InChI=1S/C7H8N2/c8-2-1-7-3-5-6(7)9(5)4-7/h5-6H,1,3-4H2/t5-,6-,7-,9?/m1/s1
