18
gdb 55763	4.18644	0.97004	0.92067	3.4479	73.22	-0.2299	0.023	0.2529	1317.9248	0.146067	-439.068036	-439.058949	-439.058005	-439.10402	32.514	
C	 0.2087920638	 1.5156057446	-0.0844439238	-0.498466
C	 0.4586061048	 0.0153399052	-0.0154425477	 0.380265
O	 1.1714591504	-0.5022952316	 0.8181275034	-0.347221
N	-0.1752469366	-0.7024622938	-1.0093968824	-0.429673
C	-0.1041508997	-2.1071050577	-1.1276089243	 0.329257
C	 1.2005704736	-2.8609001342	-1.2276344328	-0.291729
C	 0.1856252162	-3.008796422	-2.3160644759	 0.017826
O	-0.8303127045	-3.9406469328	-1.941802851	-0.281964
C	-1.2293263327	-3.0997844132	-0.825299077	-0.125162
H	 0.718577325	 1.9464931453	-0.9529249873	 0.143397
H	-0.8577361588	 1.7456787966	-0.175910107	 0.129481
H	 0.6029942867	 1.9761842108	 0.8206074395	 0.153701
H	-0.8122386486	-0.2083229716	-1.6153768392	 0.243962
H	 2.0501971669	-2.2286954541	-1.461284753	 0.127606
H	 1.4074329123	-3.6903140947	-0.5580588494	 0.123431
H	 0.3434208336	-2.8167689046	-3.3711884243	 0.109238
H	-1.1999749288	-3.6275830681	 0.1346029643	 0.115745
H	-2.2312036838	-2.6860728143	-0.994751872	 0.100306
18.9681	44.4568	91.7823	134.302	277.4844	328.9373	370.858	389.2362	456.6008	470.4633	572.5221	618.9643	740.4324	768.1141	850.0651	912.3244	925.5938	957.306	988.1624	991.9742	999.9634	1036.095	1049.9991	1071.776	1088.5373	1112.1132	1151.2898	1218.8303	1254.4854	1289.2176	1311.0807	1385.9973	1412.9785	1467.8553	1481.6904	1485.4503	1515.408	1522.0886	1801.8006	3019.2969	3042.0935	3074.8577	3104.0702	3128.7964	3163.819	3181.7672	3225.0659	3610.9154
CC(=O)NC12CC1OC2	CC(=O)N[C@]12C[C@H]1OC2	
InChI=1S/C6H9NO2/c1-4(8)7-6-2-5(6)9-3-6/h5H,2-3H2,1H3,(H,7,8)	InChI=1S/C6H9NO2/c1-4(8)7-6-2-5(6)9-3-6/h5H,2-3H2,1H3,(H,7,8)/t5-,6+/m1/s1
