18
gdb 84264	3.25859	1.4595	1.08141	3.0367	81.2	-0.2011	-0.004	0.1972	1121.6855	0.148944	-401.961143	-401.953167	-401.952223	-401.993666	30.197	
C	 0.2230454877	 1.4077405153	-0.0479115644	-0.348882
N	-0.0007727588	-0.0191747738	-0.0076232903	-0.072627
C	-0.0737140557	-0.87277111	-1.1253515955	-0.108732
C	-0.4970899667	-2.0890593372	-0.7556297198	 0.103238
C	 0.001506409	-3.5090393216	-0.9199449428	-0.286181
C	 0.464027955	-3.3666552899	 0.5750603055	-0.228388
C	-0.5195900427	-2.1450112691	 0.7524303264	-0.177984
C	-0.1473544538	-0.7292085205	 1.1892408948	 0.391356
O	-0.0941552608	-0.2409275485	 2.2968066185	-0.385808
H	 1.1552682732	 1.6512042567	-0.5709297137	 0.126651
H	-0.6034936867	 1.9268806235	-0.546328742	 0.131485
H	 0.2917457226	 1.7521499404	 0.9855937927	 0.167098
H	 0.3263985274	-0.5316297119	-2.0717878292	 0.118437
H	-0.7948117851	-4.2522744536	-1.0273490851	 0.112855
H	 0.7702986008	-3.6967146772	-1.6725234522	 0.108723
H	 0.2805705494	-4.2159182989	 1.2362350016	 0.11449
H	 1.5092149346	-3.0612540316	 0.6459497558	 0.123139
H	-1.4467905394	-2.448556692	 1.2451050594	 0.111129
118.8453	130.6601	150.5602	254.492	263.2614	298.6617	376.1036	505.1544	586.1358	637.598	696.3281	718.8059	792.3907	816.6546	844.4827	874.4792	919.7085	961.72	1010.95	1037.1534	1069.7103	1105.7869	1115.6936	1155.2344	1168.7955	1202.8541	1232.759	1252.669	1267.0359	1291.0291	1313.4206	1391.7059	1449.7492	1475.8629	1494.5298	1494.8362	1510.209	1684.1315	1807.6672	3021.9195	3050.5507	3072.2019	3074.8722	3081.2684	3107.3296	3139.6731	3141.8162	3211.2211
CN1C=C2CCC2C1=O	CN1[CH][C]2CC[C@H]2C1=O	
InChI=1S/C7H9NO/c1-8-4-5-2-3-6(5)7(8)9/h4,6H,2-3H2,1H3	InChI=1S/C7H9NO/c1-8-4-5-2-3-6(5)7(8)9/h4,6H,2-3H2,1H3/t6-/m1/s1
