23
gdb 115101	2.62881	1.21883	0.99343	1.4179	86.51	-0.2442	0.022	0.2662	1317.2989	0.206769	-388.313831	-388.304469	-388.303524	-388.34772	36.259	
C	 0.1037035893	 1.54507873	-0.0430655623	-0.394458
C	 0.0085743125	 0.0175727182	 0.0219003666	-0.184601
C	-1.42291363	-0.5383266739	 0.0043795994	 0.030192
C	-2.2085861067	-0.1376589223	-1.2605253628	-0.267241
C	-3.4715016143	-0.9384766311	-1.4509618896	-0.061392
C	-3.7717823718	-2.0299924048	-0.7454238046	-0.066922
C	-2.8590261915	-2.6006206603	 0.3122465468	-0.288283
C	-1.4269976835	-2.0734686502	 0.1546256049	 0.112038
O	-0.7653248061	-2.7097163689	-0.9391837611	-0.446245
H	 1.1444515245	 1.8744765265	 0.036671463	 0.111843
H	-0.2918643396	 1.9402086392	-0.984016753	 0.115903
H	-0.455609551	 2.0145934752	 0.7746977573	 0.109941
H	 0.56438032	-0.4312924558	-0.8095019274	 0.109624
H	 0.5022636733	-0.331674108	 0.9384063604	 0.088158
H	-1.9622058704	-0.136357958	 0.8751959078	 0.066721
H	-2.4605638704	 0.9288150447	-1.226011512	 0.109855
H	-1.5650061693	-0.2486874568	-2.1471536445	 0.107072
H	-4.1613204135	-0.5856011378	-2.2146631597	 0.085236
H	-4.7088751509	-2.5501876057	-0.9289086285	 0.086513
H	-3.2421350117	-2.3589777229	 1.3138792317	 0.108522
H	-2.8404870631	-3.6954690931	 0.2511932718	 0.108348
H	-0.8359489869	-2.3499141389	 1.035192171	 0.076009
H	-1.370442669	-2.6885306154	-1.6893392352	 0.283165
88.4316	119.2434	143.4466	184.4815	231.9908	298.5423	330.8521	362.9539	400.0844	409.0441	449.2486	574.8033	621.8246	683.6515	739.6235	794.4522	857.2502	900.9157	912.818	930.0393	937.3596	991.5913	1009.9143	1019.9521	1044.901	1063.8265	1085.6204	1132.7908	1139.0945	1195.6352	1200.0244	1232.0596	1261.9898	1291.2409	1323.0008	1332.9127	1340.642	1367.8833	1384.0188	1396.9353	1410.8619	1419.1502	1431.6721	1468.9902	1477.2317	1490.2611	1502.1111	1507.8339	1718.4834	2986.8634	2997.8049	3008.4434	3018.531	3029.314	3045.7361	3048.1995	3052.1774	3064.3542	3096.2593	3103.3533	3139.4509	3163.8284	3795.2569
CCC1CC=CCC1O	CC[C@H]1CC=CC[C@H]1O	
InChI=1S/C8H14O/c1-2-7-5-3-4-6-8(7)9/h3-4,7-9H,2,5-6H2,1H3	InChI=1S/C8H14O/c1-2-7-5-3-4-6-8(7)9/h3-4,7-9H,2,5-6H2,1H3/t7-,8+/m0/s1
