19
gdb 35897	2.75573	1.49893	1.19334	1.6022	80.22	-0.2461	0.051	0.2972	1089.0734	0.160505	-385.843309	-385.835342	-385.834397	-385.87576	31.537	
C	-0.1894202665	-1.2417631068	-0.3205558824	-0.492595
C	-0.0893348951	-0.0567688523	-0.1432042814	 0.354134
C	 0.0185154938	 1.3830186116	 0.084237376	-0.2021
C	-0.6768914426	 1.8149698806	 1.4024711217	-0.082908
O	 0.1620896796	 1.6754694152	 2.5289632227	-0.23746
C	 1.2043752038	 2.6368830441	 2.5190046986	-0.103745
C	 2.07767687	 2.5141558416	 1.2873052857	-0.036904
C	 2.5354644262	 1.150266957	 0.8519287984	-0.281751
C	 1.478983275	 1.8714801654	 0.0521930151	-0.035449
H	-0.2750170208	-2.2876810065	-0.4817595963	 0.194286
H	-0.5199547552	 1.8886248122	-0.7278574498	 0.104502
H	-0.9956862769	 2.8655178789	 1.3026700454	 0.085334
H	-1.5600668099	 1.1991798899	 1.5856383506	 0.118469
H	 0.7729338022	 3.6515590337	 2.5731045836	 0.086943
H	 1.7832522764	 2.4673664996	 3.432833738	 0.110384
H	 2.7542889687	 3.349717472	 1.1317775048	 0.084768
H	 3.5226053998	 1.0458993853	 0.4159905786	 0.108242
H	 2.2059728092	 0.3014384785	 1.4414973577	 0.134236
H	 1.7924813523	 2.2661411001	-0.9081463271	 0.091615
75.1951	140.296	209.4519	280.5257	346.8375	370.9191	436.1211	453.2429	553.0954	619.8004	629.5171	638.5848	728.4554	773.6682	789.4826	832.3809	869.424	918.7395	948.5797	988.3817	1047.0384	1069.8996	1075.1029	1093.3291	1110.5636	1126.529	1139.4474	1161.6599	1228.0033	1263.6267	1278.0439	1322.6733	1349.809	1360.1225	1386.3142	1410.5979	1424.215	1484.7778	1493.7245	1503.2714	2232.4916	2955.0691	2968.9883	3019.7337	3069.2668	3105.5339	3135.2414	3145.4717	3161.451	3223.951	3505.0853
C#CC1COCC2CC12	C#C[C@H]1COC[C@H]2C[C@@H]12	
InChI=1S/C8H10O/c1-2-6-4-9-5-7-3-8(6)7/h1,6-8H,3-5H2	InChI=1S/C8H10O/c1-2-6-4-9-5-7-3-8(6)7/h1,6-8H,3-5H2/t6-,7+,8-/m0/s1
