17
gdb 48267	2.41267	1.11587	0.8081	2.5575	73.27	-0.254	-0.0564	0.1976	1373.6348	0.134781	-417.995007	-417.985779	-417.984835	-418.030384	32.026	
O	-0.341616411	 0.5156421837	-0.6558406099	-0.221969
C	 0.2042279377	 1.0220813591	 0.283449767	 0.156
C	 1.3365290653	 2.0605270155	 0.1418642124	-0.237441
C	 1.4194557938	 2.6661578486	-1.2771560317	-0.236689
C	 2.7378310388	 3.3486402801	-1.5592088841	 0.016584
C	 2.7959571831	 4.5317232003	-2.4521035827	-0.246611
N	 3.0518772292	 4.6768466682	-1.0099982416	-0.307768
C	 1.1951497563	 3.0722528888	 1.1892179139	 0.273215
N	 1.0337612644	 3.8692225272	 2.0108088149	-0.313396
H	-0.0501991696	 0.7578739576	 1.3303951193	 0.120052
H	 2.2622903574	 1.5011587104	 0.3531134599	 0.159674
H	 1.2582620849	 1.8456674049	-1.9830225776	 0.141723
H	 0.5883211814	 3.3666839181	-1.413221244	 0.119481
H	 3.5961042068	 2.6768732468	-1.5514873703	 0.095378
H	 3.6599303963	 4.6916467217	-3.090516987	 0.1244
H	 1.8590869464	 4.9048572903	-2.858977626	 0.115609
H	 2.2391828388	 5.0709100587	-0.5415896025	 0.241758
50.8417	78.2643	83.7843	155.5117	174.541	221.7996	276.2587	385.6687	423.4071	516.8564	569.3701	626.8638	769.9917	820.5388	822.8642	880.8315	941.4436	960.0476	1010.4937	1023.1778	1066.872	1093.044	1128.9616	1153.0278	1176.6887	1236.4582	1251.7407	1266.5781	1299.8585	1329.7655	1340.7741	1416.7265	1432.5791	1478.1341	1514.6227	1842.3751	2355.1196	2928.2983	2995.7851	3051.1991	3095.3123	3108.0756	3111.8014	3193.2551	3502.4702
O=CC(CC1CN1)C#N	O=C[C@@H](C[C@H]1CN1)C#N	
InChI=1S/C6H8N2O/c7-2-5(4-9)1-6-3-8-6/h4-6,8H,1,3H2	InChI=1S/C6H8N2O/c7-2-5(4-9)1-6-3-8-6/h4-6,8H,1,3H2/t5-,6-/m0/s1
