20
gdb 102078	2.3482	1.17733	0.97828	5.566	77.55	-0.2424	-0.015	0.2274	1309.1525	0.168197	-440.322159	-440.311875	-440.310931	-440.357739	36.337	
C	-0.1206135387	 1.5945796221	-0.1231431172	-0.374354
C	 0.2074627395	 0.1075186534	 0.0366850133	-0.170056
N	 0.7852875212	-0.5096822882	-1.1511268406	-0.034575
C	 2.0871689447	-0.9014440981	-1.1888117864	 0.143021
O	 2.6140459638	-1.4335834305	-2.1474371122	-0.343561
C	-0.0245261992	-0.7122973199	-2.3555194632	-0.074845
C	 0.2751010629	 0.2658090392	-3.4947327402	-0.396163
C	 0.0768653068	-2.1722773127	-2.8185567794	 0.18299
O	-0.1379506338	-2.5259688197	-3.9457351567	-0.253503
H	 0.7757391829	 2.1660449888	-0.381275638	 0.131283
H	-0.8675224559	 1.760404385	-0.9049161652	 0.131077
H	-0.5258979938	 1.9902033968	 0.8133372023	 0.125063
H	 0.9242819789	-0.02694567	 0.8531810774	 0.122075
H	-0.6969133999	-0.4458987024	 0.3208804367	 0.116843
H	 2.6256033621	-0.6917462983	-0.2450273923	 0.086906
H	-1.0709986376	-0.5953884251	-2.0385968012	 0.109908
H	-0.3252012231	-0.0050513771	-4.3657086497	 0.143308
H	 0.043351577	 1.2930459131	-3.2037189054	 0.111351
H	 1.3286777299	 0.1986821912	-3.7719648654	 0.157325
H	 0.2875079221	-2.8938758676	-2.0000966667	 0.085907
62.8404	79.9636	116.2779	165.6134	196.5964	236.2999	241.6819	252.1198	293.0672	336.2533	379.165	456.2873	499.3849	582.8622	665.3058	788.0093	813.1655	875.8827	921.7863	965.8975	1027.7252	1082.6793	1084.7288	1114.5426	1130.1025	1142.4444	1221.0266	1282.6531	1306.6253	1338.4392	1391.1327	1394.075	1409.9826	1412.595	1423.4616	1459.8884	1483.3643	1487.2284	1491.625	1505.5349	1508.6242	1771.6081	1839.1794	2901.9172	2949.3578	3011.7655	3022.2221	3042.4381	3061.5069	3075.6966	3115.5068	3122.2152	3139.1364	3150.2644
CCN(C=O)C(C)C=O	CCN(C=O)[C@@H](C)C=O	
InChI=1S/C6H11NO2/c1-3-7(5-9)6(2)4-8/h4-6H,3H2,1-2H3	InChI=1S/C6H11NO2/c1-3-7(5-9)6(2)4-8/h4-6H,3H2,1-2H3/t6-/m0/s1
