18
gdb 128203	3.437	0.96512	0.78497	4.325	76.3	-0.2018	0.0323	0.2341	1446.4611	0.148841	-435.272391	-435.263043	-435.262098	-435.307419	33.536	
C	-0.2482572781	 1.3848548903	-0.050710719	-0.323889
N	-0.0149860875	-0.0516884902	-0.0274627563	-0.395214
C	 0.6583481771	-0.5630971469	 1.07197182	 0.451055
C	 1.044500037	 0.0053936216	 2.2721140386	-0.372822
C	 1.6261808015	-1.0625740714	 3.0037534806	 0.306779
C	 2.2327141968	-1.0073628977	 4.3726119141	-0.16064
O	 3.2250539748	 0.0078880386	 4.4960358142	-0.418049
N	 1.6212090918	-2.198519057	 2.3169559375	-0.294912
N	 1.0182308238	-1.8736868848	 1.1416240846	-0.285264
H	 0.6753599736	 1.9811955315	-0.0003686588	 0.119892
H	-0.7841645345	 1.6417452179	-0.9670703578	 0.127274
H	-0.8784214717	 1.6626201029	 0.7992326846	 0.144549
H	 0.3323134421	-0.4059164146	-0.9086470671	 0.236735
H	 0.9440064049	 1.0331689336	 2.5762410572	 0.10401
H	 1.4738062208	-0.7529191346	 5.1208880629	 0.112772
H	 2.6257536217	-2.0032273377	 4.6204585399	 0.103826
H	 3.8758568041	-0.1494965476	 3.803986412	 0.280488
H	 0.8320261018	-2.5972337538	 0.4689007127	 0.26341
38.989	91.3066	122.6207	180.2863	196.3402	275.9	315.0428	364.5343	409.1975	419.3085	498.7574	548.3482	658.4315	698.6129	719.277	761.0614	798.0211	972.4511	998.9172	1024.6356	1056.1003	1088.9504	1147.9942	1154.274	1163.2424	1199.1208	1205.449	1299.5986	1360.0106	1419.1199	1436.5839	1453.7735	1459.776	1486.483	1499.1385	1501.5139	1517.7167	1551.4724	1631.9561	2989.9278	3010.9474	3065.864	3081.7208	3126.7552	3279.3427	3568.2942	3675.7978	3810.84
CNC1=CC(CO)=NN1	CNc1cc(CO)n[nH]1	
InChI=1S/C5H9N3O/c1-6-5-2-4(3-9)7-8-5/h2,9H,3H2,1H3,(H2,6,7,8)	InChI=1S/C5H9N3O/c1-6-5-2-4(3-9)7-8-5/h2,9H,3H2,1H3,(H2,6,7,8)
