21
gdb 38258	3.00514	1.69452	1.37107	1.4033	82.24	-0.242	0.0917	0.3337	1015.1519	0.186228	-387.04722	-387.040358	-387.039413	-387.077991	29.548	
C	-0.0402597374	 1.6039084563	 0.1073906796	-0.260375
C	 1.4575952601	 1.2195340619	-0.0161864766	-0.107366
C	 1.1692241216	 0.0752868418	 1.0182843866	-0.308933
C	-0.0192134878	 0.0366381148	 0.0163213039	 0.336254
C	-1.1890172724	-0.8628307315	-0.283368068	-0.35144
C	-1.6598618137	-0.4820290435	-1.7106095537	-0.209053
C	-0.495682023	-0.3585605998	-2.7149075927	-0.070605
O	 0.5032004065	 0.5896612758	-2.3306576182	-0.274225
C	 1.0421585579	 0.189533991	-1.0948890874	 0.151808
H	-0.3577172196	 2.0216976387	 1.0667650534	 0.082437
H	-0.471683743	 2.1422653121	-0.7352910989	 0.106918
H	 2.3182576506	 1.8888209457	-0.0247811174	 0.072881
H	 1.8489024908	-0.7826430451	 1.0131601867	 0.089799
H	 0.9480879926	 0.4037344162	 2.0363457606	 0.095
H	-0.8646639106	-1.9119809192	-0.2644424948	 0.097464
H	-2.0096180543	-0.7642225797	 0.4360923213	 0.097502
H	-2.3668378934	-1.2265629779	-2.093578616	 0.09605
H	-2.1933430855	 0.474613373	-1.6738933366	 0.11046
H	-0.0266924026	-1.347906167	-2.8563526805	 0.085283
H	-0.8682080551	-0.025637107	-3.6875165554	 0.106581
H	 1.7253942483	-0.6631628767	-1.2314288959	 0.053559
182.9276	245.0951	333.8615	361.2273	391.0523	438.6357	503.0833	547.5402	630.2712	647.5173	784.3557	822.7022	839.763	875.435	889.4156	909.4095	926.6537	959.95	972.3076	1004.3886	1033.5352	1046.7894	1055.9335	1082.4008	1097.5549	1123.8251	1144.4898	1162.1743	1180.1454	1210.4933	1229.986	1234.2722	1239.3584	1271.5871	1300.3877	1315.4717	1363.4751	1378.4162	1388.6539	1418.8756	1477.4452	1486.6206	1491.284	1499.2718	1533.659	2956.5108	2982.0989	3017.7479	3036.2757	3047.5083	3062.3587	3063.5416	3080.8397	3089.9724	3110.0695	3116.7098	3149.2805
C1C2CC11CCCOC21	C1[C@H]2C[C@]31CCCO[C@@H]23	
InChI=1S/C8H12O/c1-2-8-4-6(5-8)7(8)9-3-1/h6-7H,1-5H2	InChI=1S/C8H12O/c1-2-8-4-6(5-8)7(8)9-3-1/h6-7H,1-5H2/t6-,7-,8+/m0/s1
