18
gdb 65020	2.54759	1.23743	1.07253	5.9775	73.82	-0.2483	-0.0344	0.214	1201.2502	0.145257	-439.11137	-439.102056	-439.101112	-439.145623	33.65	
C	-0.2995257795	 1.352587209	 0.5555730397	-0.434679
C	-0.0103148001	-0.040843421	 0.0295314388	 0.283268
C	 1.3357359682	-0.3279921834	-0.5933606573	-0.298509
C	 0.9926124781	-0.9078641259	 0.7539249109	-0.298484
N	-1.1639640013	-0.7107065792	-0.5525620375	-0.129541
C	-1.4495613067	-0.4776342198	-1.9076331282	 0.156678
O	-2.3849606675	-0.9043017148	-2.5242612484	-0.265492
C	-2.0131857267	-1.4291561278	 0.3046261442	 0.156685
O	-3.0282538918	-1.9894817603	-0.0001921998	-0.26549
H	 0.6022940187	 1.8031672356	 0.9792531876	 0.125698
H	-0.661895031	 2.0062140715	-0.245089149	 0.131721
H	-1.0652633265	 1.3247972335	 1.3381794103	 0.131721
H	 1.3750107229	-1.0119050927	-1.4329808126	 0.133662
H	 2.0443060776	 0.4907649576	-0.645514676	 0.12749
H	 1.4628139662	-0.4919575026	 1.6377133753	 0.127489
H	 0.805599277	-1.9741175461	 0.8026187335	 0.133658
H	-0.6699832624	 0.1699752446	-2.3538858359	 0.092062
H	-1.6097610752	-1.4174901781	 1.3358373445	 0.092061
60.8013	120.2055	165.3583	204.3187	222.6887	235.8536	277.7417	316.3792	318.5307	441.6462	506.671	529.0996	538.5561	786.019	824.329	879.9936	942.7661	949.3956	956.7965	1025.8494	1046.5569	1050.9002	1075.1504	1094.9846	1111.7198	1126.8025	1193.3756	1293.9281	1308.9698	1337.2412	1421.7119	1432.4197	1462.9475	1463.0452	1486.9348	1493.8727	1504.7901	1795.6209	1875.4899	2939.369	2946.8784	3033.033	3098.4614	3115.5439	3141.667	3145.062	3224.0718	3236.9001
CC1(CC1)N(C=O)C=O	CC1(CC1)N(C=O)C=O	
InChI=1S/C6H9NO2/c1-6(2-3-6)7(4-8)5-9/h4-5H,2-3H2,1H3	InChI=1S/C6H9NO2/c1-6(2-3-6)7(4-8)5-9/h4-5H,2-3H2,1H3
