22
gdb 40435	3.29751	1.28457	1.17889	1.1051	85.33	-0.2129	0.0854	0.2983	1167.0032	0.196435	-367.181595	-367.173609	-367.172665	-367.21389	32.479	
C	-0.7311536199	-0.5724283923	-1.1640336331	-0.23127
C	-1.0004335681	 0.8340077992	-0.7546885698	-0.227342
N	-0.0727569624	-0.0039566733	 0.0026868714	-0.14199
C	-0.470405277	-0.4217184477	 1.3224622306	 0.379106
C	-0.4133981149	-1.8729254414	 1.6987947789	-0.333332
C	-1.7498059609	-1.151024645	 1.7218546978	-0.083132
C	-2.2273479199	-0.5877647366	 3.0511863871	-0.214915
C	-0.989954178	 0.1320780026	 3.6418334989	-0.227743
C	-0.1617983077	 0.5875417421	 2.4220943848	-0.25522
H	-1.5348579388	-1.2910870212	-1.0177709959	 0.112626
H	-0.0810187336	-0.7890699625	-2.0072155842	 0.115088
H	-0.5566519105	 1.6646459548	-1.2960054604	 0.114566
H	-1.9756997497	 1.037372644	-0.3159707221	 0.110359
H	-0.264200891	-2.5718638547	 0.8820073254	 0.109989
H	 0.0585601631	-2.1781986827	 2.6279914454	 0.106741
H	-2.4929198891	-1.4510986893	 0.9906818442	 0.077264
H	-3.0383647299	 0.1283308066	 2.8695186384	 0.095344
H	-2.6214896242	-1.3521509979	 3.7306924279	 0.094305
H	-1.2646421986	 0.9644699836	 4.2948610079	 0.09638
H	-0.4078297398	-0.5642592761	 4.2535607267	 0.10465
H	 0.9089210352	 0.6593189334	 2.6382563639	 0.100978
H	-0.4885183241	 1.5771437644	 2.0785505762	 0.097547
94.5547	153.0979	219.1762	248.0235	276.2096	386.1298	448.2326	496.7883	514.6391	623.0749	659.4061	792.3378	813.7174	824.0669	870.2252	881.3155	896.1171	907.449	952.5264	959.7546	972.5843	1000.882	1036.582	1046.3111	1069.8737	1085.5325	1110.9502	1119.3442	1120.4067	1168.8498	1173.3648	1184.7708	1195.5028	1230.6519	1256.8915	1285.3001	1317.9563	1327.6346	1346.41	1347.9424	1405.9267	1484.4028	1490.0209	1492.4554	1495.98	1518.3642	1520.0066	3024.5353	3029.8199	3049.7413	3063.6737	3077.5648	3096.9378	3099.6861	3102.1539	3121.7359	3164.0956	3177.2084	3191.8031	3204.2843
C1CN1C12CC1CCC2	C1CN1[C@]12C[C@H]1CCC2	
InChI=1S/C8H13N/c1-2-7-6-8(7,3-1)9-4-5-9/h7H,1-6H2	InChI=1S/C8H13N/c1-2-7-6-8(7,3-1)9-4-5-9/h7H,1-6H2/t7-,8-/m1/s1
