19
gdb 5249	6.34993	1.0126	0.9323	1.7983	78.26	-0.1986	0.0515	0.2502	1288.2265	0.166915	-327.972005	-327.963744	-327.9628	-328.005394	30.605	
C	 0.0205898289	 1.59145802	-0.0349638613	-0.378419
C	 0.0938966269	 0.0628761721	-0.0524294784	-0.146273
C	 0.6297299901	-0.5286747229	 1.2649515722	-0.307344
C	 0.7178603414	-2.0276950665	 1.2609724338	 0.288942
C	-0.0963158854	-2.8990961068	 1.9509469538	-0.186091
N	 0.2971747525	-4.1818558616	 1.6580832796	-0.231471
C	 1.3572547657	-4.1513805578	 0.7891957218	-0.075238
C	 1.6402659605	-2.8328286731	 0.5239029102	-0.238851
H	 1.0090305103	 2.0343024189	 0.1330211569	 0.111148
H	-0.36330614	 1.9850179568	-0.9815624559	 0.108296
H	-0.6384161853	 1.9480068463	 0.7650329463	 0.110345
H	-0.8994240417	-0.3580413617	-0.2510712429	 0.094971
H	 0.732851152	-0.2688226024	-0.8801400835	 0.096988
H	 1.619339366	-0.0957660982	 1.4667475112	 0.09611
H	-0.0161616444	-0.2034367711	 2.090459793	 0.090038
H	-0.9168754439	-2.7081134352	 2.6247470317	 0.109463
H	-0.1192991592	-5.014571475	 2.0344456794	 0.258562
H	 1.8176125819	-5.0621003564	 0.4409915574	 0.113505
H	 2.4260935237	-2.4748202553	-0.1247612953	 0.08532
48.3155	87.7724	119.0373	240.0736	305.7758	320.8967	370.3005	457.5982	639.286	649.5502	682.2026	722.1122	743.3342	772.2003	828.5664	871.2272	893.9544	905.9035	974.1057	1043.0366	1082.7976	1084.6681	1094.2282	1111.4338	1162.8122	1243.682	1283.6482	1289.7238	1320.9503	1325.6497	1384.4578	1409.7744	1415.7788	1466.0979	1480.3274	1492.437	1498.101	1509.9944	1522.3064	1610.6473	3005.7322	3025.4231	3027.8395	3039.3239	3063.0265	3093.3909	3098.5346	3237.2533	3254.4807	3267.1809	3690.2144
CCCC1=CNC=C1	CCCc1c[nH]cc1	
InChI=1S/C7H11N/c1-2-3-7-4-5-8-6-7/h4-6,8H,2-3H2,1H3	InChI=1S/C7H11N/c1-2-3-7-4-5-8-6-7/h4-6,8H,2-3H2,1H3
