19
gdb 96533	2.42155	1.63071	1.17589	2.8173	70.65	-0.2673	-0.0169	0.2504	1085.7921	0.160446	-460.197818	-460.189525	-460.18858	-460.230714	31.932	
O	-0.5916643139	 1.4344872527	-0.610835231	-0.439225
C	 0.0265335962	 0.3392822034	 0.0183304386	 0.031216
C	-1.0238760887	-0.620176408	 0.6433962059	-0.206691
C	-1.5359857379	-1.7496042296	-0.2809424058	-0.218069
C	-0.6236001178	-2.9956206122	-0.3476427959	-0.187933
C	 0.7242765129	-2.7728343586	-1.0348408323	-0.10061
O	 1.3484215256	-1.5884038982	-0.4834481219	-0.244416
C	 0.8340475973	-0.443726654	-0.9982123076	 0.397968
O	 0.9119921341	-0.1290512615	-2.1580757897	-0.340824
H	-0.2737436391	 1.4309553677	-1.5255093876	 0.294563
H	 0.6997869271	 0.690130696	 0.8150752091	 0.10262
H	-0.610568322	-1.0612541888	 1.5562444051	 0.102985
H	-1.8592663946	 0.0197299282	 0.9403863443	 0.121971
H	-2.512793559	-2.0777193486	 0.0889719471	 0.104588
H	-1.7167180466	-1.3492525712	-1.2874469733	 0.114973
H	-0.4448241511	-3.3519177601	 0.6743343963	 0.109608
H	-1.1419490548	-3.8046685035	-0.8769499385	 0.104401
H	 1.4167742826	-3.5949714229	-0.8451019166	 0.121537
H	 0.6202549497	-2.6443197509	-2.1171499161	 0.131339
71.7047	131.1343	226.9577	259.4773	299.2589	341.7625	364.2828	421.6349	476.8757	484.7143	519.0703	650.014	742.5062	794.5784	824.0827	861.8322	883.8226	934.5993	968.8621	1003.0033	1040.5546	1072.3018	1096.7465	1149.6085	1188.4476	1205.3083	1226.6496	1258.3133	1289.3603	1315.051	1333.8731	1369.7554	1380.5303	1388.1028	1399.1132	1441.7581	1469.155	1481.3193	1492.8368	1506.9597	1814.043	2991.173	3026.2304	3027.4857	3050.3012	3054.843	3071.1999	3076.0234	3102.3317	3123.1645	3724.8712
OC1CCCCOC1=O	O[C@H]1CCCCOC1=O	
InChI=1S/C6H10O3/c7-5-3-1-2-4-9-6(5)8/h5,7H,1-4H2	InChI=1S/C6H10O3/c7-5-3-1-2-4-9-6(5)8/h5,7H,1-4H2/t5-/m0/s1
