25
gdb 110009	1.9273	1.49155	0.97747	0.2981	94.61	-0.2222	0.0352	0.2573	1359.1169	0.228929	-352.385604	-352.375565	-352.374621	-352.419924	38.787	
C	-1.7485205083	-0.0204873091	 0.7524997654	-0.383489
C	-0.2859132128	 0.2622222108	 0.3916321258	-0.199242
C	 0.7171545945	-0.3366221715	 1.3892460584	-0.060493
C	 0.8025067574	-1.8962736754	 1.4601043321	 0.007671
C	 0.6234940991	-2.5909191994	 0.1028609945	-0.393518
C	 2.237175826	-2.1502892781	 2.0002247615	-0.265047
C	 2.9912960229	-0.9260545327	 1.545218677	-0.172486
C	 2.1757574533	 0.071054788	 1.1964311657	 0.335604
C	 2.581563564	 1.4458300257	 0.7636600542	-0.502268
H	-1.98796231	 0.3726767308	 1.7471643597	 0.111795
H	-2.430995077	 0.4484522863	 0.0366856559	 0.109441
H	-1.9670295539	-1.0931379231	 0.7642784021	 0.118996
H	-0.0734683271	-0.0977352327	-0.6219366653	 0.098046
H	-0.1391027125	 1.3487434597	 0.3602822986	 0.092041
H	 0.4116788863	 0.0261741872	 2.3866950523	 0.069224
H	 0.0497801091	-2.2888877002	 2.1514371759	 0.062156
H	 1.3694543225	-2.2426435912	-0.6196998167	 0.118505
H	 0.7511987193	-3.6725910716	 0.2159891327	 0.107857
H	-0.3672966056	-2.4219802586	-0.3280046756	 0.112556
H	 2.247129015	-2.2259572199	 3.0978643682	 0.096146
H	 2.6609902736	-3.0891032141	 1.6237950045	 0.092305
H	 4.0749237825	-0.862770556	 1.5546368733	 0.078361
H	 3.6698060495	 1.5536581446	 0.7547146445	 0.118834
H	 2.2109065756	 1.6844933517	-0.2406995095	 0.125723
H	 2.1722352065	 2.2129574085	 1.4346242348	 0.121281
86.9029	130.0848	181.5065	194.7759	209.4616	245.5243	261.7931	284.0742	306.5537	375.6875	406.8954	468.7543	521.775	611.3491	707.6728	743.4529	804.9486	843.7764	847.5112	898.3307	932.9575	957.8201	984.6749	1019.8335	1038.034	1042.878	1049.5988	1074.3395	1099.2568	1131.9283	1151.0808	1200.3274	1221.685	1262.7477	1275.4659	1284.2194	1313.9217	1347.0849	1349.9398	1369.3824	1386.8867	1406.0257	1411.5828	1413.8861	1478.2236	1487.7288	1489.005	1493.0184	1496.2682	1502.1494	1506.5101	1513.4195	1718.7321	2938.729	2993.227	3013.9742	3029.112	3030.848	3034.0851	3044.182	3048.7349	3060.5719	3061.1921	3096.1245	3098.4601	3103.3088	3106.1245	3110.1966	3178.0265
CCC1C(C)CC=C1C	CC[C@H]1[C@@H](C)CC=C1C	
InChI=1S/C9H16/c1-4-9-7(2)5-6-8(9)3/h5,8-9H,4,6H2,1-3H3	InChI=1S/C9H16/c1-4-9-7(2)5-6-8(9)3/h5,8-9H,4,6H2,1-3H3/t8-,9+/m0/s1
