16
gdb 26583	2.40286	1.85415	1.05445	1.3439	77.22	-0.1996	-0.0251	0.1744	1080.79	0.12651	-434.149561	-434.141487	-434.140543	-434.182002	30.752	
C	 0.0536950989	 1.5195088108	 0.0150090034	-0.500751
C	 0.0191834692	 0.0167790869	 0.0041677866	 0.233884
C	-1.1749496788	-0.663358248	 0.0464861992	 0.140565
N	-2.423662037	-0.0772212443	 0.1443208846	-0.586657
C	-1.1878514875	-2.1196548334	 0.032059739	 0.4019
O	-2.1964990489	-2.8136335626	 0.0449822515	-0.412536
N	 0.0904189755	-2.6681378557	-0.0078260444	-0.348085
C	 1.2321332256	-1.9202086983	-0.0454528228	 0.069886
N	 1.2346858144	-0.6296670445	-0.043655237	-0.31624
H	 1.0825639454	 1.8638057018	 0.1262338508	 0.144418
H	-0.346528244	 1.942410219	-0.9168956787	 0.125089
H	-0.5504796268	 1.9223921728	 0.8366810466	 0.135316
H	-2.5426187865	 0.8180799401	-0.3035526793	 0.251138
H	-3.1674509712	-0.737967991	-0.0425221582	 0.265692
H	 0.1322381837	-3.6785427604	-0.0225163551	 0.265979
H	 2.1650490581	-2.4747786531	-0.0770898959	 0.130402
107.3988	138.4259	203.6955	280.7629	298.2252	333.1438	380.9261	507.8281	533.0411	535.9248	556.306	608.2054	633.0038	709.2241	729.4119	798.0224	886.649	890.5339	943.5384	1016.7651	1055.32	1131.0103	1213.0482	1237.6952	1283.997	1375.9899	1413.0754	1437.7127	1462.1934	1484.3199	1493.2673	1588.1031	1627.0477	1656.2196	1767.3943	3012.1742	3064.53	3144.0149	3178.7623	3547.6794	3598.051	3668.787
CC1=C(N)C(=O)NC=N1	Cc1c(N)c(=O)[nH]cn1	
InChI=1S/C5H7N3O/c1-3-4(6)5(9)8-2-7-3/h2H,6H2,1H3,(H,7,8,9)	InChI=1S/C5H7N3O/c1-3-4(6)5(9)8-2-7-3/h2H,6H2,1H3,(H,7,8,9)
