19
gdb 64154	3.64586	1.0394	0.98575	2.5098	79.77	-0.2307	-0.0669	0.1638	1281.8083	0.158737	-419.241418	-419.232325	-419.23138	-419.275068	33.94	
C	-0.2863134282	 1.5616881841	 0.0673494992	-0.420673
C	-0.031378131	 0.0561990549	-0.0120331737	 0.294807
C	-1.3406157597	-0.7087863006	-0.2690646054	-0.406588
C	 1.0558479263	-0.3151214226	-1.0795239574	-0.220076
N	 1.8206842859	-1.339182143	-0.3668749032	-0.341034
C	 1.534100463	-1.1721370551	 0.9683877317	 0.258214
C	 2.3688610597	-1.8374412245	 2.0009131977	 0.108934
O	 3.3638206084	-2.4672018782	 1.7310048449	-0.264031
N	 0.5311454731	-0.432616869	 1.2749814966	-0.307201
H	 0.6344624484	 2.099646377	 0.3110696507	 0.116137
H	-0.6648825429	 1.9410884407	-0.8882054191	 0.112207
H	-1.0243147467	 1.7839158208	 0.8430751897	 0.127697
H	-1.815691767	-0.3580119686	-1.1916424682	 0.11115
H	-1.1505557639	-1.7819446279	-0.3654722049	 0.124438
H	-2.0357975081	-0.5577264855	 0.5609269964	 0.127923
H	 0.6185263933	-0.7068171141	-2.0024916723	 0.11253
H	 1.6810142682	 0.5525148459	-1.3345998008	 0.101003
H	 2.7660994841	-1.576537344	-0.6273503272	 0.25595
H	 2.0077663271	-1.6854797204	 3.0356340751	 0.108613
74.0999	141.9474	186.4418	213.5183	223.3826	260.732	308.1606	339.7517	373.0551	459.1851	506.8726	529.0096	642.9722	651.3722	746.8645	814.7111	876.207	929.3343	958.9453	982.1304	1005.4142	1030.4985	1041.4591	1061.1558	1176.8233	1194.2692	1227.9702	1260.33	1289.421	1340.9004	1384.0878	1395.698	1413.6204	1477.2523	1483.0219	1485.6629	1495.0628	1506.4036	1528.2522	1673.6703	1802.5045	2966.0338	2998.0803	3032.7683	3037.2275	3076.0718	3104.0928	3107.7308	3118.0409	3122.6407	3622.7624
CC1(C)CNC(C=O)=N1	CC1(C)CN[C](C=O)[N]1	
InChI=1S/C6H10N2O/c1-6(2)4-7-5(3-9)8-6/h3H,4H2,1-2H3,(H,7,8)	InChI=1S/C6H10N2O/c1-6(2)4-7-5(3-9)8-6/h3H,4H2,1-2H3,(H,7,8)
