18
gdb 31339	3.98866	1.21548	0.95185	3.3276	82.1	-0.1701	0.0453	0.2154	1237.5012	0.150178	-398.120657	-398.112399	-398.111455	-398.154148	30.237	
C	 0.1391937538	 1.4446182967	 0.0562682741	-0.312376
N	-0.2091990678	 0.040583258	-0.1151460421	-0.387285
C	 0.4669583254	-0.6751015196	-1.1021661043	 0.168206
C	 0.5794295956	-2.0366183953	-1.3017745583	 0.241671
C	 0.4064811661	-3.5380063933	-1.1137754807	-0.390429
C	 1.2281776743	-3.6655479126	-2.4531195442	-0.167247
N	 1.2981117289	-2.1873255375	-2.4609704578	 0.001893
C	 1.6048507533	-0.9668005815	-2.9488007629	-0.047658
N	 1.1181468726	-0.0363132711	-2.1331296896	-0.328856
H	 1.1949126305	 1.6114635951	 0.3201284441	 0.105948
H	-0.0532255611	 1.9804971778	-0.8750167819	 0.148557
H	-0.4936591509	 1.8678345691	 0.8410315061	 0.107086
H	-0.2489972957	-0.4613444931	 0.7602176959	 0.227202
H	 0.8966227542	-3.9830441536	-0.2429053942	 0.119294
H	-0.6158152467	-3.9213852568	-1.1771416959	 0.123851
H	 2.204394827	-4.1487413759	-2.3677182266	 0.130316
H	 0.6802829606	-4.079424023	-3.3028784374	 0.132256
H	 2.1649515699	-0.7816627034	-3.8512012042	 0.127571
54.304	104.6611	166.2549	201.1161	206.535	327.3626	364.5348	531.8349	564.7914	632.2118	699.3146	712.7062	754.214	761.9992	807.4058	856.8236	908.576	1046.1981	1052.9952	1084.7672	1093.7667	1137.3366	1154.4863	1184.1981	1193.4135	1203.4538	1236.319	1283.7208	1356.0651	1374.6346	1425.2099	1449.2656	1457.8238	1481.0699	1485.832	1495.4291	1516.2236	1519.9317	1646.1984	2985.0841	3051.3982	3065.9287	3084.73	3091.6124	3122.8672	3134.0162	3264.1888	3587.7784
CNC1=C2CCN2C=N1	CNc1c2CCn2cn1	
InChI=1S/C6H9N3/c1-7-6-5-2-3-9(5)4-8-6/h4,7H,2-3H2,1H3	InChI=1S/C6H9N3/c1-7-6-5-2-3-9(5)4-8-6/h4,7H,2-3H2,1H3
