16
gdb 54616	4.03215	1.04469	0.83839	3.9986	77.7	-0.2577	-0.084	0.1737	1312.3237	0.123709	-437.929179	-437.920766	-437.919822	-437.962926	30.279	
C	-0.0133494364	 1.4909508729	-0.0304781132	-0.496051
C	-0.0144452171	-0.0237900734	 0.0246989166	 0.305029
O	-0.0251813992	-0.6332472061	 1.0728525886	-0.291854
C	-0.0016679	-0.7496349083	-1.2765099733	 0.196244
C	-0.0004888614	-2.0808022022	-1.4260671846	-0.259183
C	 0.0135700505	-2.4083734085	-2.8540112174	 0.437191
N	 0.0184449143	-3.5652999899	-3.3674241378	-0.540467
O	 0.0210477418	-1.2249227838	-3.5579435628	-0.253408
C	 0.0122688453	-0.1219876274	-2.6491100261	-0.190148
H	 0.8738206699	 1.8554802072	-0.561616345	 0.143777
H	-0.888239796	 1.8562665435	-0.5810594234	 0.14372
H	-0.0242697092	 1.8940574912	 0.9821518527	 0.151862
H	-0.0084803756	-2.8236553872	-0.6430167839	 0.157561
H	 0.028678129	-3.5084232337	-4.387076775	 0.228566
H	-0.8722321529	 0.4975925534	-2.848133577	 0.133578
H	 0.9009124471	 0.4971154524	-2.8303747983	 0.133583
53.9267	135.3994	146.234	163.9233	204.3145	336.4389	380.401	424.8683	497.898	603.112	610.4787	688.4871	699.9779	873.5953	876.9436	898.9535	948.5579	973.8425	1015.6764	1028.6947	1051.4822	1055.1456	1099.8662	1204.2097	1237.5566	1255.13	1339.7609	1380.9628	1390.976	1461.2621	1474.8854	1502.4604	1663.6477	1750.9291	1784.8357	3013.1354	3032.7386	3043.0571	3091.4133	3158.5757	3267.4467	3480.9733
CC(=O)C1=CC(=N)OC1	CC(=O)[C]1C=C([NH])OC1	
InChI=1S/C6H7NO2/c1-4(8)5-2-6(7)9-3-5/h2,7H,3H2,1H3	InChI=1S/C6H7NO2/c1-4(8)5-2-6(7)9-3-5/h2,7H,3H2,1H3
