15
gdb 67539	2.49965	1.87148	1.54573	5.1875	64.66	-0.2335	0.0127	0.2463	897.8899	0.112941	-453.894732	-453.887409	-453.886465	-453.926193	28.791	
N	-0.0136498563	 1.4897416624	 0.106422867	-0.606651
C	 0.0321107753	 0.077963961	-0.0470027525	 0.154464
C	 1.2038501214	-0.6448627488	 0.6868737671	 0.002093
O	 0.9655599704	-2.0525277903	 0.6585140885	-0.22173
C	 1.5464989031	-1.4477400877	-0.4967831374	-0.008374
C	 0.3872935029	-0.8003669271	-1.3261711537	-0.10339
N	-0.9343285642	-1.3975691381	-1.2076050789	-0.311523
C	-1.2989410103	-0.7372975853	-0.0383181622	 0.388702
O	-2.2743296387	-0.7994193981	 0.6534854143	-0.344326
H	 0.8792188802	 1.9290959593	-0.0922714993	 0.236539
H	-0.7190809257	 1.9156736284	-0.4843993185	 0.246166
H	 1.8027999483	-0.245992685	 1.4985392512	 0.114289
H	 2.4964928545	-1.8367978627	-0.8452292309	 0.11307
H	 0.6481049355	-0.3649317285	-2.2907784668	 0.088987
H	-1.2427739364	-2.3170959995	-1.4925350279	 0.251685
134.2699	195.1121	258.3592	272.2703	319.2039	375.4312	479.3654	522.3536	608.3109	695.9841	707.3321	738.1271	770.2718	811.436	836.8035	862.1795	883.2626	951.7643	966.7866	1006.4347	1036.9421	1053.5663	1074.6724	1179.1205	1199.9563	1242.2618	1295.008	1305.1365	1337.5864	1347.1699	1387.752	1655.0611	1899.0984	3115.6437	3173.5488	3188.5047	3504.5925	3591.4796	3593.2795
NC12C3OC3C1NC2=O	N[C@]12[C@H]3O[C@H]3[C@H]1NC2=O	
InChI=1S/C5H6N2O2/c6-5-2(7-4(5)8)1-3(5)9-1/h1-3H,6H2,(H,7,8)	InChI=1S/C5H6N2O2/c6-5-2(7-4(5)8)1-3(5)9-1/h1-3H,6H2,(H,7,8)/t1-,2+,3-,5-/m0/s1
