20
gdb 107831	3.19114	1.45982	1.25805	0.6065	77.18	-0.2305	0.0688	0.2992	1062.0486	0.173092	-403.116634	-403.108825	-403.107881	-403.148801	31.059	
O	-0.0555483061	 1.4060997765	 0.1604414698	-0.42958
C	-0.0224450321	-0.0042624326	-0.0149125878	-0.172731
C	-1.4489584222	-0.4984863414	-0.00918265	 0.356634
C	-2.1990788893	-0.4902848649	 1.3536194539	-0.285581
C	-2.5114130735	-1.9510448367	 1.0709166031	-0.042516
C	-2.974399263	-2.1626783562	-0.3246714486	-0.016377
C	-3.5278365238	-0.9883579644	-1.1235224278	-0.255741
C	-2.339228054	 0.0057970074	-1.1440417815	-0.241502
N	-1.5195821393	-2.0292950037	-0.0725495655	-0.191855
H	 0.8501922467	 1.7273424584	 0.1831518314	 0.290467
H	 0.4493300584	-0.2865316638	-0.9697864475	 0.091414
H	 0.5389410682	-0.5006571528	 0.7909001668	 0.090972
H	-1.5109323426	-0.3736005642	 2.1936256841	 0.108092
H	-3.0332921	 0.2072569446	 1.4795024254	 0.096721
H	-2.5712451873	-2.7394320278	 1.8160469994	 0.085915
H	-3.2819582599	-3.1707533941	-0.5858242577	 0.088827
H	-3.8170620418	-1.2998887698	-2.1307701564	 0.105346
H	-4.4183674621	-0.5612249218	-0.6508539684	 0.106484
H	-2.6365338817	 1.0467881347	-0.9991754689	 0.114748
H	-1.7975235045	-0.0602060975	-2.0941812537	 0.100262
91.4024	168.1745	205.7626	254.0765	329.2564	360.4415	405.2878	443.1611	603.8188	673.9458	711.1676	764.8113	786.9957	823.6186	845.8622	907.4219	923.0066	964.5542	982.8115	994.3072	1017.3981	1044.5348	1060.8107	1074.798	1094.1258	1140.2278	1170.1902	1179.3561	1191.9593	1206.8609	1240.8012	1266.3631	1274.1764	1292.393	1321.2166	1348.3136	1360.6251	1404.8674	1463.3487	1483.322	1494.9128	1510.5841	1521.6674	2972.1617	3008.2917	3044.5939	3047.7467	3051.0901	3089.5081	3108.5534	3112.5881	3144.0151	3161.8984	3835.205
OCC12CC3C(CC1)N23	OC[C@@]12C[C@H]3[C@@H](CC1)N23	
InChI=1S/C7H11NO/c9-4-7-2-1-5-6(3-7)8(5)7/h5-6,9H,1-4H2	InChI=1S/C7H11NO/c9-4-7-2-1-5-6(3-7)8(5)7/h5-6,9H,1-4H2/t5-,6+,7+,8?/m1/s1
