17
gdb 87066	2.47849	1.35136	1.08577	1.2705	74.94	-0.2443	0.0405	0.2848	1155.7168	0.132824	-421.743401	-421.734213	-421.733269	-421.777509	33.879	
O	 0.0368497161	 1.3601372936	 0.1128204679	-0.412292
C	-0.0111131716	-0.0245565038	 0.0496518759	 0.085268
C	-0.387433004	-0.7423012379	 1.2999678481	-0.339486
C	-1.3695498437	-0.7388034684	 0.1228954179	 0.065601
C	-2.5342711614	 0.095746865	 0.2023654697	 0.236781
C	-3.5039641408	 0.806989806	 0.2409867088	-0.432733
C	-1.4986931049	-2.0194037088	-0.6548740114	 0.048014
C	-2.7791606637	-2.6925133873	-0.8986309213	-0.200957
O	-2.1230413693	-1.9524698571	-1.934271624	-0.236608
H	-0.4943090201	 1.7157731	-0.6090360291	 0.296414
H	 0.7249103716	-0.4886634229	-0.6074111915	 0.099343
H	 0.100325626	-1.6813109904	 1.5385710319	 0.121997
H	-0.6533675618	-0.1240499928	 2.1481250915	 0.142218
H	-4.3633838534	 1.4289221607	 0.2873792464	 0.195415
H	-0.5959826455	-2.6331144288	-0.6309702941	 0.088118
H	-2.8021702888	-3.772564418	-1.0370736293	 0.114898
H	-3.6937903045	-2.2421046592	-0.5196487374	 0.128007
63.9381	113.8273	144.9896	166.5854	226.7934	232.3582	358.1108	380.4166	394.3187	484.7414	565.3767	587.7601	635.5604	661.9436	674.9796	820.5872	849.9831	873.9102	903.2751	947.4187	1003.5019	1028.9114	1059.1555	1090.1114	1107.358	1161.705	1171.3746	1183.8036	1238.2188	1284.8878	1322.392	1341.3566	1414.8401	1435.3456	1476.1779	1522.1733	2233.1016	3085.0465	3091.6865	3099.3485	3143.4117	3183.5102	3242.6426	3501.8882	3794.2667
OC1CC1(C#C)C1CO1	O[C@H]1C[C@]1(C#C)[C@H]1CO1	
InChI=1S/C7H8O2/c1-2-7(3-5(7)8)6-4-9-6/h1,5-6,8H,3-4H2	InChI=1S/C7H8O2/c1-2-7(3-5(7)8)6-4-9-6/h1,5-6,8H,3-4H2/t5-,6+,7-/m0/s1
