18
gdb 47564	2.53767	1.73808	1.19078	2.6609	71.7	-0.2286	-0.0115	0.2172	1043.1977	0.149521	-439.082914	-439.075202	-439.074258	-439.115312	29.964	
O	 0.0601096596	-0.038193122	-0.245084489	-0.299128
C	-0.0048149219	 1.1382378677	-0.0359649303	 0.392679
C	-1.2783813592	 1.9615602482	 0.1095916509	-0.250808
N	-1.5218502174	 2.8155359752	-1.0563396417	-0.28106
C	-0.4934429704	 3.8092911446	-1.3700566523	-0.185375
C	 0.7924133529	 3.2857155545	-2.0195299953	-0.060946
C	 2.141361635	 3.6623723049	-1.4282839529	-0.327507
C	 1.6101836121	 2.278308777	-1.2587595205	 0.105886
O	 1.1241340471	 1.9452071819	 0.0276577952	-0.255713
H	-2.1266287866	 1.2851649304	 0.2372637327	 0.127303
H	-1.1945314723	 2.5988280759	 0.99672418	 0.128124
H	-1.7260262696	 2.2424886377	-1.8686493043	 0.225862
H	-0.942602963	 4.553678151	-2.0372153438	 0.111421
H	-0.2530592461	 4.328980297	-0.4372029601	 0.115871
H	 0.7447986339	 3.1564691317	-3.0975232004	 0.091872
H	 2.9894022638	 3.8091286436	-2.0878537653	 0.120991
H	 2.1316225376	 4.2995057872	-0.5504273128	 0.128694
H	 2.0771736643	 1.4477769432	-1.7805318902	 0.111834
69.9967	144.8603	237.8286	285.6492	303.761	374.081	424.7701	470.5346	610.239	621.0427	712.2265	724.4044	807.5697	820.0427	835.4605	891.5429	914.2927	954.7077	997.7725	1045.717	1050.5264	1075.9753	1113.1897	1131.1761	1140.5073	1156.2653	1188.5218	1222.3821	1248.6778	1337.7542	1351.0309	1357.1355	1383.4825	1399.4394	1460.5276	1471.2373	1485.6184	1500.9598	1850.0438	3038.2267	3046.8531	3084.6229	3115.7857	3135.6027	3140.0044	3151.0646	3224.8055	3524.1251
O=C1CNCC2CC2O1	O=C1CNC[C@H]2C[C@H]2O1	
InChI=1S/C6H9NO2/c8-6-3-7-2-4-1-5(4)9-6/h4-5,7H,1-3H2	InChI=1S/C6H9NO2/c8-6-3-7-2-4-1-5(4)9-6/h4-5,7H,1-3H2/t4-,5-/m1/s1
