16
gdb 110434	2.77355	1.60627	1.22788	2.9673	68.71	-0.2506	-0.0169	0.2337	1025.1055	0.12398	-437.826251	-437.81862	-437.817676	-437.858948	28.25	
C	 0.2168667651	 1.2431936602	-0.2168393332	-0.246204
O	-0.1487507936	-0.0965061367	 0.0589123291	-0.246353
C	 0.5525931801	-0.6585774585	 1.1220104612	 0.157635
C	 0.2358555886	-2.0983670662	 1.4733686262	-0.087817
C	 1.0204890688	-3.0206388183	 0.5902434137	-0.186689
N	 1.6493615764	-2.3982442442	 1.8390499011	-0.154243
C	 1.9998726837	-1.1800973803	 0.9101713107	-0.209413
C	 1.8863176377	-2.1518994988	-0.2676237326	 0.491107
O	 2.4453909107	-2.2783654274	-1.3163707898	-0.329444
H	 1.2650486377	 1.3220800314	-0.5379508808	 0.121712
H	-0.42661816	 1.5907147783	-1.0270654096	 0.139206
H	 0.0685749139	 1.8889429223	 0.6617088607	 0.111114
H	 0.5001579566	-0.0283677716	 2.0223401468	 0.089544
H	-0.592923107	-2.474603365	 2.0624484175	 0.114118
H	 0.8056976568	-4.078982253	 0.5192011233	 0.126893
H	 2.8922822944	-0.5878759722	 1.0923626056	 0.108835
63.8859	132.2316	178.8068	190.9398	307.5097	421.5561	439.8169	557.2622	627.6613	716.6561	753.9907	763.9888	827.5838	830.1093	936.0418	947.1358	1000.5819	1035.7667	1042.3855	1057.5351	1089.1828	1133.4008	1162.9147	1167.6242	1169.3482	1184.7876	1233.7465	1277.0893	1314.9433	1355.8507	1392.3023	1482.8332	1492.1684	1505.5745	1902.1834	2985.5144	3001.0965	3040.5777	3130.3204	3169.4348	3183.5878	3215.0087
COC1C2C3N2C1C3=O	CO[C@H]1[C@H]2[C@@H]3N2[C@H]1C3=O	
InChI=1S/C6H7NO2/c1-9-6-3-2-5(8)4(6)7(2)3/h2-4,6H,1H3	InChI=1S/C6H7NO2/c1-9-6-3-2-5(8)4(6)7(2)3/h2-4,6H,1H3/t2-,3+,4-,6-,7?/m0/s1
