23
gdb 105236	2.05035	1.35357	1.09773	0.6252	81.85	-0.2372	0.0725	0.3097	1282.1722	0.202452	-425.404649	-425.393633	-425.392689	-425.440423	40.387	
C	 0.7714369149	 1.0596838133	 0.5500505419	-0.258802
O	-0.0808613815	 0.2089550744	-0.2037316379	-0.310328
C	 0.5212056738	-0.4650769699	-1.280961079	 0.414791
C	 1.7713799236	-1.2735472888	-1.0422757147	-0.373391
C	 0.4464632537	-1.9729805	-1.2696266771	-0.038688
C	-0.2361678047	-2.710553577	-0.1401353826	-0.405825
C	 0.3201115019	 0.2539643603	-2.6088882821	 0.087389
C	-1.1558366341	 0.3074392387	-3.0073100953	-0.41304
O	 0.8884677271	 1.5638849184	-2.5861030691	-0.438944
H	 1.4514954346	 0.4889090665	 1.1967469303	 0.107692
H	 1.371491914	 1.7114394277	-0.0933397775	 0.124267
H	 0.1207985458	 1.667216801	 1.1851719186	 0.120594
H	 2.5277639786	-1.2926274551	-1.820017669	 0.114569
H	 2.1699233619	-1.3005804428	-0.0336515361	 0.112913
H	 0.3208038476	-2.4314969172	-2.2483727524	 0.079711
H	-0.1501193439	-2.1543981614	 0.7963121602	 0.124341
H	-1.3039718945	-2.8439563718	-0.3446825758	 0.117247
H	 0.2045149652	-3.7027990503	 0.0044413242	 0.112897
H	 0.8869136839	-0.2876658896	-3.3758293049	 0.080141
H	-1.2764854194	 0.8725058106	-3.9355342836	 0.117485
H	-1.5624464777	-0.6976363889	-3.1533368476	 0.119008
H	-1.7401128208	 0.7916474698	-2.2171960669	 0.123642
H	 0.2757943799	 2.1246273619	-2.0982260234	 0.282333
58.8577	101.531	145.9856	159.3167	182.2248	195.2569	242.8113	266.5109	274.7939	322.6367	330.7714	361.8543	432.9251	467.9627	545.2822	594.3062	710.3116	810.9837	880.8732	894.8835	935.0182	951.995	982.7504	1030.9888	1046.757	1071.6366	1087.958	1104.9666	1119.576	1142.8009	1181.2619	1188.5379	1221.144	1239.726	1291.8345	1300.2939	1359.9539	1397.8702	1405.2092	1417.7067	1425.3814	1473.6073	1482.3773	1489.3411	1491.1009	1495.8942	1500.7609	1504.0352	1518.9093	3005.6845	3034.2981	3036.9973	3039.5268	3073.7122	3091.6941	3109.2791	3115.3762	3115.4095	3120.3635	3128.9565	3131.9944	3213.759	3809.6073
COC1(CC1C)C(C)O	CO[C@]1(C[C@H]1C)[C@@H](C)O	
InChI=1S/C7H14O2/c1-5-4-7(5,9-3)6(2)8/h5-6,8H,4H2,1-3H3	InChI=1S/C7H14O2/c1-5-4-7(5,9-3)6(2)8/h5-6,8H,4H2,1-3H3/t5-,6-,7+/m1/s1
