20
gdb 56032	3.7301	0.90435	0.85533	3.3822	74.85	-0.2445	0.0302	0.2748	1416.3628	0.171645	-440.327237	-440.31775	-440.316806	-440.363687	33.827	
N	-0.2088063662	 1.2894465502	-0.3638214916	-0.523431
C	 0.0895012017	-0.0327661139	-0.1889289417	 0.40894
O	 1.2346431883	-0.4277965211	-0.0737833796	-0.35867
C	-1.1280393625	-0.954684298	-0.1210645589	-0.330018
C	-0.7537929547	-2.4244527835	 0.0944087882	 0.033575
C	-2.0071881391	-3.3195624666	 0.3068645507	-0.275074
C	-2.1394579928	-4.0971140579	-1.0289026099	-0.065178
O	-1.2579590885	-3.4656640211	-1.9461430019	-0.246638
C	-0.14130459	-3.0416534034	-1.1767064827	-0.093384
H	 0.5544807258	 1.9323796717	-0.4977621093	 0.259811
H	-1.1403756389	 1.6004841925	-0.5771242679	 0.256756
H	-1.7805516778	-0.5999685161	 0.687153925	 0.116056
H	-1.7076730358	-0.8535807635	-1.0484997057	 0.127247
H	-0.0562674609	-2.4902166405	 0.9312351743	 0.091133
H	-1.8757988843	-4.0024082705	 1.1498985736	 0.103642
H	-2.8971206709	-2.7181757936	 0.512585823	 0.098999
H	-1.853311989	-5.1519180157	-0.8902749721	 0.088544
H	-3.1451911895	-4.0717447737	-1.4568520746	 0.103879
H	 0.4429476324	-2.3387096209	-1.7714805711	 0.119739
H	 0.5019580726	-3.8988650845	-0.9182452578	 0.084072
22.4253	38.7344	91.4633	163.7892	191.9804	218.4319	313.8081	354.0029	450.4299	500.8817	606.505	635.6734	688.5475	726.8474	806.6217	860.4589	871.8984	922.0092	938.7984	959.6808	981.6313	1021.1296	1073.4479	1099.8925	1109.2265	1152.0573	1198.1164	1217.3655	1233.5018	1259.2044	1272.2156	1293.4816	1312.6156	1352.5107	1371.9359	1397.1361	1404.5974	1461.2619	1495.8249	1509.9574	1526.1626	1616.9922	1791.5473	2969.1445	2976.2506	3019.7969	3054.817	3058.1078	3082.9072	3097.1511	3107.8369	3127.6596	3599.8863	3734.979
NC(=O)CC1CCOC1	NC(=O)C[C@H]1CCOC1	
InChI=1S/C6H11NO2/c7-6(8)3-5-1-2-9-4-5/h5H,1-4H2,(H2,7,8)	InChI=1S/C6H11NO2/c7-6(8)3-5-1-2-9-4-5/h5H,1-4H2,(H2,7,8)/t5-/m1/s1
