20
gdb 64954	2.82541	1.34001	1.05805	2.5643	80.51	-0.2425	0.0016	0.2441	1204.7788	0.169986	-403.138725	-403.129531	-403.128587	-403.173062	34.204	
C	-0.0744168844	 1.3429253057	 1.2113314397	-0.45056
C	-0.1251616362	 0.3220713415	 0.0920236619	 0.232073
C	 1.1034533571	 0.1396614814	-0.7847903781	-0.307576
C	 0.7577288308	-0.9196476514	 0.2118791257	-0.278093
C	-1.4948699424	 0.1139757912	-0.4753396745	 0.333128
O	-2.4898166742	 0.5432144121	 0.069709881	-0.339698
N	-1.5653192321	-0.6982158533	-1.6327358845	-0.12315
C	-1.446402114	-0.0958836541	-2.9652789211	-0.231443
C	-2.753363302	-0.6048981205	-2.4605177248	-0.219156
H	 0.9374121188	 1.4127818821	 1.6214738834	 0.104406
H	-0.3675546628	 2.3354293053	 0.854730642	 0.122102
H	-0.7604739072	 1.0698182239	 2.0168752624	 0.136831
H	 0.9681663879	-0.0871466429	-1.834292995	 0.125662
H	 1.9388375549	 0.7975328302	-0.5706747196	 0.116673
H	 1.3508117913	-1.0020505927	 1.1163037218	 0.117906
H	 0.3532184735	-1.851569035	-0.1627713886	 0.13449
H	-1.3177786811	 0.9824914762	-3.0181828749	 0.133559
H	-0.8711886931	-0.6642560185	-3.6911640027	 0.125461
H	-3.1386622382	-1.5519052269	-2.8258802013	 0.123674
H	-3.4991715666	 0.1208320756	-2.1508577829	 0.143712
51.6432	79.8139	181.7087	185.3826	204.7605	289.5981	313.7771	330.5076	366.9774	467.327	526.9298	674.372	768.9936	789.2525	815.102	836.6999	853.1752	915.8114	939.9684	959.6692	965.2517	1042.3348	1050.6025	1067.9825	1085.1924	1116.2544	1122.0834	1126.6232	1133.6324	1175.4668	1181.0304	1197.6564	1313.6931	1318.8211	1370.7452	1419.5009	1460.1453	1484.1394	1491.5327	1494.2348	1500.1044	1516.8309	1767.6364	3041.1741	3105.1665	3106.3752	3122.389	3123.1218	3140.6142	3145.1191	3191.2742	3216.0446	3228.8672	3242.2447
CC1(CC1)C(=O)N1CC1	CC1(CC1)C(=O)N1CC1	
InChI=1S/C7H11NO/c1-7(2-3-7)6(9)8-4-5-8/h2-5H2,1H3	InChI=1S/C7H11NO/c1-7(2-3-7)6(9)8-4-5-8/h2-5H2,1H3
