19
gdb 69456	3.80827	1.08023	0.95076	3.3863	76.27	-0.2445	-0.0222	0.2223	1266.7572	0.158353	-423.041492	-423.032858	-423.031914	-423.075082	32.245	
C	 0.0716317521	 1.4801495256	-0.159590778	-0.48509
C	-0.0668434551	 0.0006713144	 0.067801535	 0.419578
C	-1.3203790436	-0.7434959872	-0.3639264621	-0.279732
C	-1.1691842906	-2.153324058	 0.2511140609	-0.250699
C	-0.2900603855	-1.9673664592	 1.5225913205	-0.089727
C	 0.5619641659	-3.1846441503	 1.806150557	 0.151912
O	 0.5174693088	-3.8389925196	 2.8162670686	-0.252088
C	 0.5436485945	-0.736314752	 1.1851736032	-0.045687
O	 1.1257158836	-0.7871694698	-0.1265836841	-0.297058
H	 1.0159526741	 1.8471296168	 0.2495167931	 0.133262
H	 0.0536487855	 1.7089125154	-1.2307238926	 0.131121
H	-0.7525447687	 2.0249548172	 0.3127773429	 0.124526
H	-2.1969690482	-0.224238865	 0.0420782588	 0.10718
H	-1.4331301	-0.7747021507	-1.4523275089	 0.112023
H	-2.1268385932	-2.620524678	 0.4885583426	 0.114766
H	-0.6502119328	-2.8080600107	-0.4542676979	 0.122521
H	-0.8970355591	-1.7639188166	 2.4112991843	 0.092675
H	 1.2601708444	-3.4437014757	 0.977920939	 0.089477
H	 1.1512893078	-0.2580613767	 1.9498537776	 0.101039
69.1238	96.0714	181.1493	197.7699	240.6335	336.3431	350.2543	382.6466	431.0899	498.902	579.9934	692.3547	701.4251	843.9057	850.2329	892.8913	915.7073	937.0722	990.1428	1006.6649	1020.4725	1030.161	1078.6998	1110.3923	1138.8665	1188.1213	1218.377	1240.6115	1274.3691	1297.	1304.5152	1338.2362	1353.7901	1410.0386	1421.6684	1448.7514	1478.2942	1486.3176	1493.5251	1499.3328	1829.6235	2878.5691	3034.5296	3039.4507	3061.3383	3066.9521	3084.4917	3098.8521	3119.6084	3125.3154	3144.119
CC12CCC(C=O)C1O2	C[C@]12CC[C@@H](C=O)[C@H]1O2	
InChI=1S/C7H10O2/c1-7-3-2-5(4-8)6(7)9-7/h4-6H,2-3H2,1H3	InChI=1S/C7H10O2/c1-7-3-2-5(4-8)6(7)9-7/h4-6H,2-3H2,1H3/t5-,6+,7-/m0/s1
