17
gdb 87695	2.72632	1.2339	1.02733	1.9785	70.68	-0.2361	-0.0501	0.186	1203.6977	0.13274	-458.94132	-458.932114	-458.93117	-458.976313	32.955	
C	 0.1049375739	 1.4763956771	-0.3662803077	-0.418187
C	 0.1423555208	-0.0079716451	-0.1246523469	-0.005482
O	 1.4264298036	-0.6245747201	-0.0088515302	-0.278177
C	 0.6162089846	-0.5817936452	 1.1518835666	 0.309163
C	 0.9632834661	 0.0908247763	 2.4933342413	-0.353872
C	 0.3425574477	-1.1142737565	 3.2571717756	 0.005337
O	-0.8127987161	-0.7614522314	 3.9845674194	-0.425401
C	 0.0588790072	-1.7925418189	 1.8829656165	 0.302908
O	-0.4521546905	-2.8252640848	 1.5588614539	-0.301869
H	 0.8462677676	 1.9929506606	 0.2480518074	 0.132983
H	 0.3165121275	 1.6952966593	-1.418013238	 0.137972
H	-0.8880161976	 1.8749227714	-0.1330407337	 0.131984
H	-0.576189897	-0.6067541273	-0.6864524988	 0.113684
H	 2.0343424052	 0.21843942	 2.6589181601	 0.126481
H	 0.4433850828	 1.030550216	 2.6883755869	 0.129507
H	 1.0660491176	-1.6742173134	 3.8676655091	 0.095591
H	-1.2987706234	-1.5726612578	 4.1725102087	 0.297376
23.5721	122.0773	166.5901	179.2686	188.3454	260.8823	297.1216	326.6344	386.5232	457.6805	532.2505	550.3994	728.0811	750.6147	796.9333	856.0998	865.1084	943.5935	960.73	1038.1764	1053.4845	1084.3152	1127.8651	1136.9891	1157.244	1183.9142	1210.4372	1240.7134	1302.9551	1340.0381	1392.6816	1409.9616	1454.7299	1468.3619	1483.664	1501.9198	1887.3628	2996.5919	3039.7693	3081.8586	3103.3776	3104.9221	3131.4115	3140.2031	3800.6817
CC1OC11CC(O)C1=O	C[C@H]1O[C@]21C[C@@H](O)C2=O	
InChI=1S/C6H8O3/c1-3-6(9-3)2-4(7)5(6)8/h3-4,7H,2H2,1H3	InChI=1S/C6H8O3/c1-3-6(9-3)2-4(7)5(6)8/h3-4,7H,2H2,1H3/t3-,4-,6+/m1/s1
