17
gdb 124657	4.38475	0.96443	0.86791	3.5982	70.94	-0.2638	-0.0363	0.2275	1345.9423	0.134632	-455.107633	-455.099049	-455.098105	-455.141472	31.16	
C	-0.1003651129	 1.5453314161	 0.1015810238	-0.396319
C	 0.0219404064	 0.0340280206	-0.010463753	 0.135541
C	 0.7530347565	-0.6047498008	 1.1648691615	-0.400197
O	-1.3478783762	-0.4639153761	-0.0776137895	-0.281073
C	-1.5400690249	-1.6615746378	-0.6146936435	 0.408789
N	-0.6162007087	-2.4556029624	-1.0935968808	-0.185464
O	-1.3007835061	-3.5617267824	-1.5520736646	-0.167283
N	-2.6437561302	-3.4385978016	-1.347786055	-0.052855
C	-2.8159652727	-2.2847224897	-0.7736823388	-0.114005
H	 0.894356571	 1.9987334945	 0.1317362221	 0.125905
H	-0.6435504355	 1.9563775945	-0.7530887784	 0.129144
H	-0.6330987289	 1.8213708122	 1.0168021955	 0.129738
H	 0.5138974359	-0.2412161449	-0.9495688447	 0.11688
H	 0.8034272145	-1.6896108645	 1.0523297496	 0.148576
H	 1.7764118323	-0.220663808	 1.2157844269	 0.124714
H	 0.247370113	-0.3652512747	 2.1054640927	 0.124575
H	-3.7924872135	-1.923058805	-0.4946459038	 0.153333
70.1049	76.9292	154.1766	214.6106	250.7452	312.6002	323.2022	394.7955	447.6302	489.3314	621.729	726.7796	744.8403	845.3694	879.1027	906.6367	919.1687	937.9332	946.4543	951.3528	1026.7931	1075.5111	1138.6242	1162.4836	1204.5096	1218.6479	1365.5362	1375.1058	1403.821	1418.5811	1443.409	1480.9603	1486.4459	1495.7381	1510.1599	1516.3003	1630.0164	3044.1155	3047.7567	3057.4854	3114.4305	3123.5375	3127.4157	3138.0175	3277.7006
CC(C)OC1=NON=C1	CC(C)Oc1nonc1	
InChI=1S/C5H8N2O2/c1-4(2)8-5-3-6-9-7-5/h3-4H,1-2H3	InChI=1S/C5H8N2O2/c1-4(2)8-5-3-6-9-7-5/h3-4H,1-2H3
