21
gdb 95305	2.64935	1.6932	1.46725	1.5207	76.16	-0.2476	0.0775	0.3251	1010.7981	0.185711	-424.251454	-424.243842	-424.242898	-424.283136	30.849	
C	-0.1937506889	 1.5449047384	 0.0765214245	-0.399893
C	 0.0216664272	 0.0302339524	-0.0375014635	 0.015478
C	 0.7859317419	-0.3698313214	-1.3264509745	-0.225201
C	 2.3130058939	-0.2060176962	-1.1838570139	-0.221856
C	 2.7539149281	-0.7100658762	 0.1925140071	 0.204329
O	 2.3355054024	-2.059133391	 0.393283582	-0.276888
C	 1.1032888149	-2.0078846733	 1.1157476175	-0.104699
C	 0.7866011055	-0.503181537	 1.1886252705	 0.062203
O	 2.1114558172	 0.0460224619	 1.1992575761	-0.256597
H	 0.7609952016	 2.0746103135	 0.1335980198	 0.131668
H	-0.7479096417	 1.9257426218	-0.7871284279	 0.109794
H	-0.7645142021	 1.7955797916	 0.9774715421	 0.109516
H	-0.9628206611	-0.4564132716	-0.0550436392	 0.069319
H	 0.5752036791	-1.419399605	-1.5555107307	 0.110278
H	 0.4159793183	 0.2124327088	-2.1767137318	 0.09373
H	 2.831773937	-0.7640619319	-1.9700540202	 0.102876
H	 2.6179147211	 0.8428932179	-1.2709405542	 0.104031
H	 3.8351702074	-0.6468411055	 0.3475106521	 0.08444
H	 0.3351810581	-2.5843313441	 0.5882623562	 0.103376
H	 1.2454466506	-2.4363843832	 2.1153944591	 0.103649
H	 0.2990584796	-0.21417499	 2.1231351187	 0.080449
153.4723	183.642	211.1787	253.0719	345.3095	371.2817	410.7483	454.1882	567.8455	660.0999	749.8145	764.5566	804.1635	840.3498	886.6317	901.9354	919.0133	971.2738	980.8378	990.7478	1014.9817	1044.214	1051.1407	1066.3331	1119.465	1133.3528	1162.4804	1204.461	1215.1909	1233.3239	1289.3443	1319.7561	1330.0639	1341.9296	1357.9381	1364.2783	1382.4326	1393.1969	1400.7763	1412.0505	1475.6506	1490.2504	1499.9801	1505.8453	1525.4267	3012.2565	3022.2116	3034.5299	3039.8731	3046.99	3066.1297	3071.7366	3076.8078	3084.7585	3091.4352	3097.9274	3118.9457
CC1CCC2OCC1O2	C[C@H]1CC[C@@H]2OC[C@H]1O2	
InChI=1S/C7H12O2/c1-5-2-3-7-8-4-6(5)9-7/h5-7H,2-4H2,1H3	InChI=1S/C7H12O2/c1-5-2-3-7-8-4-6(5)9-7/h5-7H,2-4H2,1H3/t5-,6+,7+/m0/s1
