17
gdb 48894	3.71303	1.42163	1.36252	4.1497	72.46	-0.2499	-0.0312	0.2188	982.8048	0.13677	-421.787744	-421.78091	-421.779966	-421.819126	27.311	
O	 0.0398707196	-0.0516870592	-0.2303248325	-0.240545
C	 0.0711015337	 1.1378682218	-0.056197685	 0.043888
C	 1.3029579306	 1.9773145737	-0.0456566477	 0.333057
C	 1.6805905216	 2.7847129396	 1.2261234861	-0.256145
C	 2.7157283002	 3.651335526	 0.4822958696	-0.089115
C	 1.8110512409	 4.4448492563	-0.4954846006	-0.253901
C	 1.5926423835	 3.081383655	-1.1658839934	-0.126494
C	 2.996921625	 2.6225231686	-0.7211937161	 0.117052
O	 2.5581573331	 1.3164831491	-0.3410133124	-0.305793
H	-0.8569548543	 1.733655496	 0.1131614583	 0.074539
H	 0.8668722229	 3.372510835	 1.6588814693	 0.104504
H	 2.0968443204	 2.1102534142	 1.9761878154	 0.12287
H	 3.5086235489	 4.1255996866	 1.0566486766	 0.078317
H	 0.9603052089	 4.9897219522	-0.0768354106	 0.101862
H	 2.3790848792	 5.1042102414	-1.1582157342	 0.110176
H	 1.1802541563	 2.9162552194	-2.1594048237	 0.091461
H	 3.9163210193	 2.6668580242	-1.3017707693	 0.094268
88.7212	169.9208	266.002	359.1363	450.3671	465.4282	544.263	675.7907	685.0511	763.048	782.9071	834.3485	859.2817	879.794	917.3352	945.8184	957.7487	997.0268	1002.3182	1022.4835	1027.2601	1056.3001	1102.6226	1112.9065	1146.5768	1179.7143	1201.7128	1220.0052	1251.3179	1271.5161	1280.4341	1305.6939	1329.5638	1424.1271	1478.3727	1503.3454	1833.8835	2854.2877	3053.5178	3069.2528	3107.1767	3130.7805	3136.6735	3141.3077	3149.8153
O=CC12CC3CC1C3O2	O=C[C@]12C[C@@H]3C[C@H]1[C@@H]3O2	
InChI=1S/C7H8O2/c8-3-7-2-4-1-5(7)6(4)9-7/h3-6H,1-2H2	InChI=1S/C7H8O2/c8-3-7-2-4-1-5(7)6(4)9-7/h3-6H,1-2H2/t4-,5-,6+,7+/m0/s1
