18
gdb 78340	2.84069	1.40763	1.07844	3.5619	79.26	-0.228	-0.0162	0.2117	1158.1185	0.14637	-401.895596	-401.887337	-401.886393	-401.928274	31.62	
C	-0.1624564606	 1.3216404006	-0.0315500924	-0.317832
N	 0.0855941708	-0.1150037224	 0.1015535562	-0.106898
C	 1.5251596953	-0.4582868582	-0.1349519389	-0.185027
C	 0.9176495258	-0.4720485277	 1.2482006386	-0.169966
C	 0.9633915659	-1.9912425359	 1.2892440672	 0.25525
C	 1.4120053134	-2.8989010504	 2.4070454832	-0.330197
C	 0.0113046972	-2.9952032523	 1.8698074689	-0.307192
C	 1.6108229518	-1.9780948674	-0.0888880888	 0.387502
O	 2.1183848561	-2.8178824019	-0.7754989919	-0.327266
H	 0.6620897643	 1.9566920326	 0.3324318113	 0.102045
H	-0.3399370348	 1.5563554731	-1.0848641186	 0.134316
H	-1.0659673687	 1.5706923416	 0.5332745127	 0.130788
H	 2.1850293659	 0.2578407249	-0.6081278305	 0.111608
H	 1.109643486	 0.2226398461	 2.0567690943	 0.108106
H	 2.1211449032	-3.6769399803	 2.1444183802	 0.136843
H	 1.5611452697	-2.4543983796	 3.3854845661	 0.12134
H	-0.8024730462	-2.616735546	 2.4788791363	 0.122774
H	-0.2415460553	-3.8474004068	 1.2479393862	 0.133805
115.8411	153.468	191.2566	206.7238	251.4125	262.5657	361.8941	427.5977	487.4104	638.9582	666.787	758.2869	788.9018	801.5947	818.1992	850.8627	890.7497	944.6758	958.7931	966.571	997.0213	1048.6083	1066.488	1081.2348	1110.1944	1114.3992	1139.884	1192.9371	1206.2649	1244.3629	1256.5123	1316.5558	1395.1852	1450.2661	1458.7891	1492.0783	1495.7567	1497.6959	1885.7422	2966.9376	3075.615	3113.616	3130.1784	3133.5396	3191.9555	3204.5334	3212.896	3227.2867
CN1C2C1C1(CC1)C2=O	CN1[C@H]2[C@@H]1C1(CC1)C2=O	
InChI=1S/C7H9NO/c1-8-4-5(8)7(2-3-7)6(4)9/h4-5H,2-3H2,1H3	InChI=1S/C7H9NO/c1-8-4-5(8)7(2-3-7)6(4)9/h4-5H,2-3H2,1H3/t4-,5+,8?/m0/s1
