16
gdb 49184	3.93924	1.35322	1.19146	4.2516	76.42	-0.2452	-0.0634	0.1817	1032.2308	0.12583	-400.712045	-400.705327	-400.704383	-400.743294	26.577	
O	-0.0306973266	-0.0125544928	 0.1488270636	-0.272838
C	 0.0165684031	 1.196635132	 0.0920055395	 0.061563
C	 1.2500725868	 1.9699013498	-0.0404735774	 0.252135
C	 1.347988797	 3.3163232888	-0.0452748643	-0.172927
C	 2.7976594996	 3.6966271428	-0.0429335404	-0.124987
C	 3.3493126048	 3.1818567263	 1.3449597806	-0.14243
N	 3.7273582597	 1.8636716684	 0.773850963	-0.150479
C	 3.5427484758	 2.439279408	-0.5935655606	-0.04187
C	 2.6088821334	 1.3796156597	-0.1564973295	-0.140552
H	-0.909767839	 1.8128887472	 0.1252805937	 0.068796
H	 0.5332539234	 4.0136052164	 0.1159186241	 0.119961
H	 3.0636618703	 4.7020585904	-0.3606229008	 0.086689
H	 4.2715653063	 3.6981327129	 1.6194950393	 0.125084
H	 2.6577694037	 3.162553572	 2.193240361	 0.109303
H	 4.2906071063	 2.3785704798	-1.3772498749	 0.102405
H	 2.7432103255	 0.3400981881	-0.4223241668	 0.120147
106.1971	180.0097	236.3437	377.2952	443.5616	499.6397	568.459	666.7213	715.6632	744.1132	794.6727	811.0151	855.5922	873.7774	891.2319	918.2961	955.7596	996.8074	1013.5533	1039.5062	1063.8384	1076.9954	1166.2142	1169.1185	1193.8773	1222.436	1247.7733	1269.7866	1288.0788	1345.4502	1382.4455	1420.9407	1494.7504	1641.3741	1783.8699	2879.4665	3050.2598	3118.3971	3142.4528	3166.9834	3199.141	3221.0027
O=CC1=CC2CN3C2C13	O=CC1=C[C@H]2CN3[C@H]2[C@H]13	
InChI=1S/C7H7NO/c9-3-5-1-4-2-8-6(4)7(5)8/h1,3-4,6-7H,2H2	InChI=1S/C7H7NO/c9-3-5-1-4-2-8-6(4)7(5)8/h1,3-4,6-7H,2H2/t4-,6+,7-,8?/m0/s1
