18
gdb 47222	2.40771	1.80392	1.23746	3.226	79.5	-0.241	-0.0097	0.2312	1037.607	0.150217	-401.939461	-401.93192	-401.930976	-401.971576	29.744	
N	-0.0687523202	 1.2912761915	 0.3376400747	-0.510616
C	-0.0304504164	 0.0556899614	 0.0416658115	 0.374933
O	 1.1789890176	-0.5591396086	-0.0880214884	-0.257403
C	 1.3701278425	-1.9652156838	-0.305619068	-0.145625
C	 0.7901596931	-2.4999939569	-1.5883153985	-0.107174
C	-0.4875814639	-2.3904700824	-1.9549891349	-0.028719
C	-1.5832985214	-1.7536137618	-1.1899159859	-0.078546
C	-1.7508761057	-1.9940738685	 0.2964776919	-0.317818
C	-1.3359118473	-0.6272973679	-0.1875708685	-0.067009
H	 0.883044734	 1.6429772323	 0.4627723173	 0.214918
H	 2.4572234389	-2.0697025595	-0.3223424265	 0.12499
H	 1.0163786954	-2.5228960385	 0.5700539281	 0.120542
H	 1.4859770077	-3.0020822089	-2.2534763613	 0.099919
H	-0.7799942156	-2.8006919836	-2.9184822064	 0.097518
H	-2.5058390598	-1.6451899635	-1.7498581676	 0.099923
H	-2.7591580323	-2.0853202276	 0.6840045076	 0.126507
H	-1.0326978671	-2.6339646697	 0.7904787396	 0.128286
H	-2.1158751195	 0.1226488662	-0.1508697249	 0.125375
69.8612	180.8824	235.2731	294.5064	322.5099	381.1007	440.5106	558.2201	630.2331	665.4778	683.8556	762.6259	772.944	805.5976	847.6605	901.1267	917.4459	946.9453	969.1711	998.1226	1014.063	1046.5918	1065.25	1086.4824	1139.9802	1151.6308	1165.9818	1228.7908	1265.2131	1278.3782	1334.7133	1384.1092	1403.8219	1433.3087	1437.8199	1483.5156	1517.7803	1713.5213	1724.153	3027.6143	3099.4528	3148.8976	3153.2789	3165.874	3180.059	3195.7695	3246.2134	3461.3392
N=C1OCC=CC2CC12	[NH][C]1OCC=C[C@H]2C[C@@H]12	
InChI=1S/C7H9NO/c8-7-6-4-5(6)2-1-3-9-7/h1-2,5-6,8H,3-4H2	InChI=1S/C7H9NO/c8-7-6-4-5(6)2-1-3-9-7/h1-2,5-6,8H,3-4H2/t5-,6+/m0/s1
