21
gdb 99868	1.79704	1.41343	1.18819	1.8953	80.32	-0.2526	0.0269	0.2795	1234.5596	0.177975	-424.193698	-424.182551	-424.181607	-424.22927	41.37	
C	 0.1704678101	 1.5885950827	 0.1887411375	-0.407947
C	-0.0289840683	 0.0857115143	-0.0290760588	-0.17822
C	 0.6589109433	-0.4732246278	-1.2954697773	 0.16073
O	 2.0294786024	-0.0732451195	-1.2288536566	-0.461583
C	 0.5492283448	-1.942600978	-1.2984968459	 0.280735
C	 0.4572642473	-3.1421929085	-1.3391959317	-0.463291
C	-0.0063698889	 0.0742108484	-2.6006725328	 0.110097
C	 0.7545286985	-0.3079506163	-3.8708392385	-0.437226
O	-1.3681580234	-0.3197317488	-2.6646274265	-0.433165
H	 1.2319482679	 1.8461339681	 0.1961819272	 0.137298
H	-0.3228177406	 2.1878576505	-0.5822096682	 0.121821
H	-0.2597711014	 1.8818786081	 1.1511172639	 0.111335
H	 0.3754727584	-0.4633254415	 0.826976246	 0.106469
H	-1.0930693988	-0.1540503066	-0.1003490083	 0.118846
H	 2.5304695391	-0.6188572652	-1.8433130035	 0.286637
H	 0.3873321684	-4.2024549758	-1.3498668423	 0.202888
H	-0.0233581114	 1.1642142502	-2.5143675759	 0.098113
H	 0.2135659232	 0.0692033992	-4.7422946671	 0.129193
H	 1.7582318945	 0.1270839354	-3.8798204805	 0.117433
H	 0.8423151558	-1.3962714304	-3.9664524831	 0.118647
H	-1.3847435408	-1.2850631482	-2.6871962576	 0.281188
68.7337	101.04	138.5806	154.4675	199.7311	229.5513	249.5804	272.071	289.4743	343.7509	351.3457	388.2874	438.9468	451.2156	487.915	568.0134	627.5952	631.0495	669.1474	681.0806	785.3561	891.5776	944.8139	962.9391	996.6215	1053.0505	1073.9574	1103.5588	1124.8977	1163.5197	1190.1681	1288.4929	1313.2776	1328.0368	1359.3009	1388.0314	1399.7766	1408.6667	1422.7757	1474.1053	1494.9534	1498.8301	1502.0792	1507.7697	2216.8551	3035.2001	3045.9068	3056.4697	3076.2128	3102.0356	3108.9688	3111.2404	3123.3552	3134.3414	3496.0832	3770.5394	3826.7626
CCC(O)(C#C)C(C)O	CC[C@@](O)(C#C)[C@@H](C)O	
InChI=1S/C7H12O2/c1-4-7(9,5-2)6(3)8/h1,6,8-9H,5H2,2-3H3	InChI=1S/C7H12O2/c1-4-7(9,5-2)6(3)8/h1,6,8-9H,5H2,2-3H3/t6-,7+/m1/s1
