21
gdb 113660	3.40493	0.83019	0.75806	3.286	81.33	-0.263	-0.0244	0.2386	1592.1105	0.180833	-424.23883	-424.228829	-424.227885	-424.274436	36.36	
C	-0.0352409694	 1.5300158759	-0.1354127369	-0.375283
C	-0.0189174257	 0.0713514367	 0.3386904368	-0.211272
C	-1.3702602286	-0.5902657692	 0.1642747835	 0.021322
C	-1.7854773942	-1.2190208797	-1.1213433061	-0.284518
C	-1.5529905693	-2.1160749832	 0.0866485993	-0.150354
C	-0.3875268969	-3.0261119007	 0.0897321987	 0.362466
O	 0.6242207206	-2.8507229921	-0.5683939943	-0.35536
C	-0.4724227377	-4.2628415615	 0.9769744776	-0.13484
O	 0.6896735323	-5.0283727267	 0.894455952	-0.422204
H	 0.9431737764	 1.9980823158	 0.0082987462	 0.116112
H	-0.2868511363	 1.5959999489	-1.1989648091	 0.120143
H	-0.7726350353	 2.1228823889	 0.4173627156	 0.11173
H	 0.7388393744	-0.4934376662	-0.2099271724	 0.135568
H	 0.2673806528	 0.0342099972	 1.3976067154	 0.09747
H	-2.1697678778	-0.1122408531	 0.7267652453	 0.094705
H	-2.8060921257	-1.1108581596	-1.4702892095	 0.120007
H	-1.0330913237	-1.3029989045	-1.8987254632	 0.140301
H	-2.4285184913	-2.5055003877	 0.5965869571	 0.092252
H	-0.6653930722	-3.9297881959	 2.0111948073	 0.11509
H	-1.3613897487	-4.8413275617	 0.6713028852	 0.113687
H	 1.2532318763	-4.5508707717	 0.2629045316	 0.292978
48.1173	85.836	114.37	141.7855	196.9266	230.5331	248.318	310.6367	374.7634	396.6787	443.1194	471.8915	591.5539	687.6665	763.8933	800.8252	819.4169	860.4601	903.2924	932.1851	992.2749	1021.8966	1029.578	1071.0742	1088.2284	1107.6611	1124.7183	1143.195	1156.9563	1203.9186	1239.6216	1243.4107	1299.4659	1306.1718	1346.7813	1409.1997	1413.9774	1427.914	1455.7113	1480.4644	1493.6211	1495.7868	1499.9373	1510.4112	1765.7479	2962.6955	2977.7182	3028.3743	3032.2157	3088.6706	3108.4769	3109.2734	3130.5854	3135.1869	3159.5964	3228.0149	3665.6238
CCC1CC1C(=O)CO	CC[C@H]1C[C@H]1C(=O)CO	
InChI=1S/C7H12O2/c1-2-5-3-6(5)7(9)4-8/h5-6,8H,2-4H2,1H3	InChI=1S/C7H12O2/c1-2-5-3-6(5)7(9)4-8/h5-6,8H,2-4H2,1H3/t5-,6+/m0/s1
