12
gdb 21610	4.0914	2.05636	1.38786	6.1701	62.41	-0.241	-0.0624	0.1785	812.8657	0.086034	-406.999579	-406.992956	-406.992012	-407.030435	24.855	
N	 0.033538427	 1.3590800646	 0.1523338375	-0.569063
C	-0.0578654611	-0.0006128132	 0.0150410057	 0.484461
N	-1.1839932003	-0.6135325523	 0.1366740826	-0.320564
C	-1.1416831979	-1.9949876613	 0.0434696232	 0.392358
N	-2.1833025934	-2.6928998808	-0.1677258758	-0.491948
N	 0.1327006495	-2.6645601364	 0.2360721851	-0.194443
N	 1.1980346812	-2.0381502835	 0.1101924355	-0.044805
N	 1.1212882772	-0.6811144527	-0.2087938298	-0.302919
H	 0.7627146618	 1.836757813	-0.3551987486	 0.264001
H	-0.8657088677	 1.8188732667	 0.1267186764	 0.279778
H	-1.9190120227	-3.6795190811	-0.156167242	 0.228896
H	 2.0128315964	-0.228907603	-0.0702205599	 0.274248
89.8065	192.8369	346.8495	355.0102	424.222	507.7563	548.0879	568.2122	586.0626	591.9231	721.8342	745.0528	791.1057	896.7664	935.9728	952.8246	1034.0203	1079.024	1201.6673	1329.4108	1361.3745	1461.7858	1618.983	1639.9949	1700.2354	1731.4774	3477.1266	3572.2215	3618.5228	3684.4797
NC1=NC(=N)N=NN1	NC1=N[C@H]([NH])N=NN1	
InChI=1S/C2H4N6/c3-1-5-2(4)7-8-6-1/h(H4,3,4,5,6,7)	InChI=1S/C2H5N6/c3-1-5-2(4)7-8-6-1/h1,3H,(H3,4,5,6,7)/t1-/m0/s1
