17
gdb 72011	2.53627	1.98573	1.46483	3.4007	71.66	-0.2258	-0.0169	0.2089	929.3084	0.13639	-421.796564	-421.789453	-421.788509	-421.827866	28.549	
C	 0.0083982289	 1.561155953	-0.0490395792	-0.510046
C	 0.0058294657	 0.0566641615	-0.0712487669	 0.307993
C	 0.4559576292	-0.837837896	-1.2431189429	-0.298239
C	-0.2710977108	-1.9301113989	-0.4364160657	 0.085519
O	 0.5809642603	-2.0717887339	 0.7209964026	-0.270209
C	 0.4082119102	-0.7472633704	 1.2463535689	-0.102652
C	-1.1012041225	-0.7556000504	 1.568845263	 0.467852
O	-1.7852932366	-0.5123414748	 2.5186275175	-0.326291
C	-1.3143668921	-0.8655097701	 0.0704200738	-0.252349
H	 1.0337020893	 1.9478345359	-0.0646450063	 0.129608
H	-0.5182090558	 1.9725159516	-0.9159510848	 0.126771
H	-0.4795725055	 1.9455031944	 0.8535415122	 0.13806
H	-0.0728610016	-0.5698462973	-2.1614237834	 0.108428
H	 1.5224397696	-0.9829751498	-1.4336737972	 0.108069
H	-0.5539985947	-2.9035881657	-0.8307137956	 0.094595
H	 1.2008994435	-0.4627167695	 1.9340190596	 0.096831
H	-2.2489936673	-0.7006077796	-0.4580554856	 0.096061
117.6444	212.4594	250.7923	295.9905	355.9642	484.9047	512.1523	552.5448	610.0347	631.9979	732.126	768.7398	830.5586	845.8224	899.4801	917.8772	936.7608	961.9092	1003.0785	1025.3489	1061.7762	1063.3139	1101.767	1119.4318	1160.4112	1188.3836	1210.5643	1231.9439	1235.887	1254.3344	1302.9868	1333.2208	1416.7969	1484.589	1488.5936	1494.0622	1894.177	3028.074	3058.8637	3093.3164	3100.7392	3121.7031	3148.8148	3159.3092	3169.2356
CC12CC3OC1C(=O)C23	C[C@@]12C[C@H]3O[C@@H]1C(=O)[C@@H]23	
InChI=1S/C7H8O2/c1-7-2-3-4(7)5(8)6(7)9-3/h3-4,6H,2H2,1H3	InChI=1S/C7H8O2/c1-7-2-3-4(7)5(8)6(7)9-3/h3-4,6H,2H2,1H3/t3-,4+,6-,7+/m1/s1
