18
gdb 45731	2.83448	1.62962	1.23564	3.1489	78.89	-0.2276	-0.0064	0.2212	1040.2194	0.149963	-398.145998	-398.138182	-398.137238	-398.178417	30.193	
N	-0.0269840174	 1.2878405188	 0.0126942199	-0.553538
C	 0.0352186335	 0.0182522098	 0.0046210404	 0.315839
N	 1.1337513658	-0.8403393124	-0.0067289522	-0.358007
C	 0.6664701259	-2.1500925747	-0.0121514657	 0.041209
N	-0.6015381084	-2.2865647734	-0.005997838	-0.290084
C	-1.1571506047	-0.9262391965	 0.0053806356	 0.281493
C	-2.257407323	-0.7268681826	 1.0942376086	-0.2439
C	-3.3431260259	-0.9784804357	 0.0171561029	-0.215799
C	-2.269367167	-0.7136146723	-1.0687013304	-0.243906
H	 0.8967784321	 1.722759165	 0.0102641428	 0.206121
H	 2.0991809198	-0.5573627461	-0.0103576746	 0.25577
H	 1.3761153958	-2.9713544768	-0.0210753097	 0.132468
H	-2.2057777407	-1.4084507805	 1.9449004195	 0.105193
H	-2.244740222	 0.3091184818	 1.4413091497	 0.124682
H	-3.6780662564	-2.0178796333	 0.0126424127	 0.114849
H	-4.2169738961	-0.3239753036	 0.0259966421	 0.097733
H	-2.2604693289	 0.3265491249	-1.4031674652	 0.124684
H	-2.2271963324	-1.3847067023	-1.9281809686	 0.105193
91.8666	110.7738	198.9578	260.1719	287.2883	394.1428	405.5708	542.9402	608.8114	664.4332	676.4389	717.4444	793.6362	847.8105	847.8123	875.9168	914.0141	930.6323	946.2425	967.3622	1038.16	1061.475	1077.9661	1083.1464	1155.8407	1180.474	1210.5259	1255.3259	1262.7675	1273.7695	1278.165	1326.8354	1352.3057	1410.9976	1461.0446	1475.423	1498.1496	1675.8086	1755.1936	3068.1167	3068.7127	3073.9736	3115.8253	3133.6931	3140.6611	3190.8487	3458.2838	3660.4664
N=C1NC=NC11CCC1	[NH][C]1NC=NC21CCC2	
InChI=1S/C6H9N3/c7-5-6(2-1-3-6)9-4-8-5/h4H,1-3H2,(H2,7,8,9)	InChI=1S/C6H9N3/c7-5-6(2-1-3-6)9-4-8-5/h4H,1-3H2,(H2,7,8,9)
