18
gdb 39199	2.71179	2.21196	1.91878	0.2287	74.32	-0.2042	0.0076	0.2118	825.4912	0.151844	-401.907673	-401.901714	-401.90077	-401.937516	26.098	
C	 0.0019896871	 1.4677119577	 0.129376173	-0.21055
C	 1.5347101524	 1.3986905174	 0.0028661578	 0.096516
O	 2.1264471918	 1.1137545087	 1.2636268822	-0.268893
C	 1.2762906474	 0.3195218192	 2.096970037	-0.085791
C	 0.4994170397	-0.7038335756	 1.2356331848	-0.071996
C	 1.5165002755	-1.676173188	 0.662127119	-0.063035
C	 2.0084787795	-1.1776146238	-0.4690826674	-0.071388
C	 1.2506104476	 0.0697560132	-0.7979145657	-0.046902
N	-0.0390815461	-0.034132921	-0.0004045999	-0.133618
H	-0.4402930729	 1.899926165	 1.0287227837	 0.108883
H	-0.4757728713	 1.9090722394	-0.749341867	 0.109413
H	 2.1155019185	 2.2072660404	-0.4488801561	 0.074991
H	 1.9258353597	-0.1789005417	 2.8226759943	 0.108668
H	 0.584386156	 0.9625184133	 2.6592296225	 0.094693
H	-0.3048273997	-1.168953575	 1.8153547234	 0.076426
H	 1.8457447996	-2.5652263048	 1.1855788286	 0.10233
H	 2.8090864788	-1.5854958154	-1.0720931968	 0.104768
H	 1.0587603566	 0.2483948409	-1.8608669634	 0.075485
272.8178	298.7057	407.2825	441.6709	469.3714	554.7329	624.484	691.8064	754.034	774.0829	807.533	827.4493	849.9168	870.6504	936.246	950.2905	951.6451	971.1771	985.9083	1006.871	1038.8437	1052.5327	1101.5059	1130.5292	1132.4316	1182.6041	1217.0387	1231.4132	1235.6599	1275.6421	1295.2203	1301.9033	1330.8155	1342.1488	1369.0812	1398.9074	1492.4356	1527.8901	1673.1846	2997.3628	3048.3118	3053.6983	3063.9042	3078.2472	3079.8936	3121.2029	3203.2128	3229.3084
C1C2OCC3C=CC2N13	C1[C@H]2OC[C@@H]3C=C[C@H]2N13	
InChI=1S/C7H9NO/c1-2-6-7-3-8(6)5(1)4-9-7/h1-2,5-7H,3-4H2	InChI=1S/C7H9NO/c1-2-6-7-3-8(6)5(1)4-9-7/h1-2,5-7H,3-4H2/t5-,6+,7+/m0/s1
