19
gdb 107695	3.14267	1.37724	1.14605	2.2478	75.64	-0.2352	0.0762	0.3113	1124.6935	0.157836	-422.940409	-422.931998	-422.931054	-422.97324	32.601	
C	 0.1853755034	 1.3209731373	-0.170163308	-0.524776
C	 0.0509065342	-0.1555294677	 0.0133750926	 0.465276
O	 0.5858474369	-1.0476407083	-1.0221527884	-0.406883
C	 0.0147060207	-1.9494062472	-0.014647717	 0.456384
C	 0.1638531138	-3.4140259547	-0.2841039658	-0.204883
O	 1.5300782217	-3.7637709873	-0.4119775065	-0.416016
C	 0.475153927	-1.0816968546	 1.2007032871	-0.169593
C	-0.9441675467	-1.0667137632	 1.8070634994	-0.285907
C	-1.2163725785	-1.0409427055	 0.2873147791	-0.19418
H	 1.240193936	 1.6036299716	-0.2413063458	 0.135904
H	-0.3215286909	 1.642328584	-1.0851197395	 0.135883
H	-0.2590548497	 1.8516920913	 0.677657429	 0.130386
H	-0.246185395	-3.9954035226	 0.5487320421	 0.116404
H	-0.4082310298	-3.6728971309	-1.189682692	 0.099021
H	 1.9217835207	-3.1094992582	-1.0031276063	 0.295332
H	 1.4502026986	-1.1130203279	 1.6864519149	 0.085756
H	-1.2561752201	-1.9654546844	 2.3455241162	 0.102233
H	-1.2270916091	-0.1723186152	 2.3687432114	 0.099215
H	-2.1587036632	-1.0158563865	-0.2611076424	 0.080442
90.8889	133.1735	203.1172	227.8422	255.8713	288.0627	374.285	425.0176	500.7465	546.4339	621.2241	678.2084	733.8476	755.2702	784.9469	856.5103	870.4751	919.6742	952.8511	995.5683	1036.4217	1040.9374	1073.1373	1084.6825	1110.7743	1117.7978	1136.4937	1164.0266	1166.0469	1231.4018	1242.7202	1259.5465	1279.9405	1367.9546	1394.4817	1423.9936	1454.7974	1473.5626	1490.7526	1492.4482	1514.7005	2978.1694	3038.8298	3054.3252	3074.0444	3109.0022	3112.4743	3113.9939	3114.5156	3125.1233	3791.059
CC12OC3(CO)C1CC23	C[C@@]12O[C@@]3(CO)[C@@H]1C[C@@H]23	
InChI=1S/C7H10O2/c1-6-4-2-5(6)7(4,3-8)9-6/h4-5,8H,2-3H2,1H3	InChI=1S/C7H10O2/c1-6-4-2-5(6)7(4,3-8)9-6/h4-5,8H,2-3H2,1H3/t4-,5+,6-,7+
