21
gdb 56315	6.60227	0.45505	0.4361	3.5023	81.47	-0.247	-0.0207	0.2263	2427.0421	0.178141	-424.265536	-424.254323	-424.253379	-424.30482	37.397	
C	-0.0409490811	 1.554089184	 0.0762446727	-0.473048
C	 0.0982097088	 0.0414778459	 0.0712265237	 0.377538
O	 1.1777901171	-0.5015278207	 0.123563803	-0.288218
C	-1.2006586094	-0.7546029819	-0.003299413	-0.307205
C	-0.9917530526	-2.2671331799	-0.0634652875	-0.166214
C	-2.3088262613	-3.0481517263	-0.1056092189	-0.202774
C	-2.0930670281	-4.5698915308	-0.1865268621	-0.272901
C	-3.3977483053	-5.3273765432	-0.1064938401	 0.159605
O	-3.802629083	-6.104029384	-0.9322638933	-0.236474
H	 0.9411480346	 2.0164617683	 0.1808052805	 0.144157
H	-0.5079725741	 1.8939610368	-0.8552858728	 0.139728
H	-0.6933699662	 1.8794627982	 0.8940967544	 0.136506
H	-1.8136376995	-0.4768297235	 0.8668233091	 0.119438
H	-1.7709618731	-0.3986643565	-0.8732239266	 0.119216
H	-0.3841531707	-2.5111422836	-0.9420729352	 0.115782
H	-0.3976271359	-2.581852311	 0.8017758687	 0.114686
H	-2.9060656645	-2.8124922618	 0.7861777388	 0.099947
H	-2.9065077471	-2.7237715037	-0.9674711518	 0.109755
H	-1.5769005332	-4.8548670152	-1.1079036595	 0.123491
H	-1.4725174076	-4.888140983	 0.6642335998	 0.119669
H	-3.9973203678	-5.1037079684	 0.8088080502	 0.067316
25.9683	42.0849	59.0158	94.558	99.9107	120.3677	139.265	221.3383	266.4053	375.4645	435.5814	478.425	523.8471	596.0812	722.1917	762.2673	813.9274	836.5727	910.9038	935.1262	985.7744	1008.7279	1038.0402	1065.3409	1111.0416	1139.9317	1176.1035	1176.7337	1249.5205	1263.4514	1314.1164	1322.2704	1328.6669	1375.9023	1385.4124	1399.2798	1430.9887	1450.8144	1464.2491	1465.7596	1477.4695	1483.7384	1503.9439	1812.2079	1837.5919	2842.6361	3006.7245	3009.1649	3013.2053	3034.5562	3037.2113	3043.4471	3046.6921	3085.4146	3097.1446	3100.0376	3152.4363
CC(=O)CCCCC=O	CC(=O)CCCCC=O	
InChI=1S/C7H12O2/c1-7(9)5-3-2-4-6-8/h6H,2-5H2,1H3	InChI=1S/C7H12O2/c1-7(9)5-3-2-4-6-8/h6H,2-5H2,1H3
