24
gdb 100774	2.79436	0.8962	0.83773	1.1214	85.91	-0.2336	0.073	0.3066	1532.8442	0.215435	-405.515088	-405.504262	-405.503318	-405.551006	39.896	
C	 0.0084593535	 1.4956736113	 0.157591374	-0.414306
C	-0.0244587967	-0.0138959222	-0.1196420828	 0.021337
C	-1.4434628262	-0.5870844743	 0.014956088	-0.079703
O	-1.9615081512	-0.4804432439	 1.333358394	-0.425159
C	 0.6201529038	-0.3987534475	-1.4716847135	 0.044434
C	-0.0135461757	 0.2700891956	-2.6951018395	-0.401149
N	 2.0448439823	-0.0511871871	-1.4338343848	-0.057752
C	 2.9394670983	-1.0179695729	-0.8090293467	-0.223847
C	 2.931388608	-0.8326217658	-2.2865119888	-0.226357
H	 1.0093099593	 1.8957402874	-0.0197612321	 0.138869
H	-0.6933860789	 2.0425004747	-0.4829386232	 0.109051
H	-0.2557086362	 1.7065523404	 1.1992210571	 0.103779
H	 0.5742921698	-0.5090930637	 0.6565899065	 0.081572
H	-2.1212760741	-0.1083319261	-0.7096244366	 0.085067
H	-1.4352058188	-1.6598678029	-0.2089886609	 0.103509
H	-2.1093236376	 0.4519732869	 1.5165999126	 0.283546
H	 0.503844715	-1.4948140751	-1.5853262444	 0.048883
H	 0.1001563385	 1.3563809493	-2.6510903878	 0.127591
H	 0.473297988	-0.0785923536	-3.6110166445	 0.114975
H	-1.0781961761	 0.0328744673	-2.7738038428	 0.11572
H	 3.7395986228	-0.6054155929	-0.2010821522	 0.115667
H	 2.5069584055	-1.9415331959	-0.4259053376	 0.110376
H	 2.4934227508	-1.634522928	-2.8799762111	 0.108325
H	 3.7252467457	-0.2820158109	-2.7833114429	 0.115572
66.376	82.2805	113.3722	153.7681	211.8352	225.9144	244.2419	257.8944	300.2667	303.7477	340.6987	383.0298	435.0047	506.2429	612.5725	748.6088	813.6235	834.2794	896.6898	910.8396	920.539	962.1427	1012.0501	1015.1925	1035.2573	1064.6919	1092.4412	1113.6723	1119.0525	1133.7921	1148.2899	1156.6586	1183.1846	1204.1218	1245.949	1300.0877	1316.9563	1341.801	1371.1184	1382.8474	1396.5812	1406.0782	1411.9369	1427.5821	1488.6523	1490.4694	1493.0939	1499.7254	1508.4313	1513.8241	1518.4198	2894.606	2975.2789	3019.6691	3030.3468	3044.8903	3063.0441	3088.4734	3089.963	3093.4042	3110.2292	3123.7348	3125.4777	3172.753	3187.0767	3830.0997
CC(CO)C(C)N1CC1	C[C@@H](CO)[C@@H](C)N1CC1	
InChI=1S/C7H15NO/c1-6(5-9)7(2)8-3-4-8/h6-7,9H,3-5H2,1-2H3	InChI=1S/C7H15NO/c1-6(5-9)7(2)8-3-4-8/h6-7,9H,3-5H2,1-2H3/t6-,7+/m0/s1
