20
gdb 86592	3.16243	1.17557	1.03118	1.595	79.88	-0.2134	-0.0234	0.19	1248.1674	0.169894	-403.124248	-403.115153	-403.114209	-403.158558	33.558	
C	 0.5712220875	 1.4604607798	 0.8623709997	-0.404968
C	 0.1756814034	 0.1369706855	 0.2231033507	-0.083194
C	 0.6230028282	-0.209618789	-1.2318142797	-0.269895
C	 0.9885974667	-1.6613807622	-0.7916017262	-0.052517
N	 2.1509185865	-2.2815139159	-1.3820031492	-0.093527
C	 3.4728548008	-1.9988150488	-0.8228206677	-0.232108
C	 2.8357769315	-3.3311588461	-0.6272834271	-0.219255
C	 0.9374153718	-1.125571483	 0.6646626066	 0.368153
O	 1.4632906229	-1.4501182104	 1.6940266586	-0.320177
H	 1.6441204897	 1.6456789964	 0.7471961579	 0.120782
H	 0.0321721889	 2.2973791628	 0.4076682806	 0.120802
H	 0.3488719495	 1.4517001919	 1.9335480816	 0.134748
H	-0.9012614811	-0.0395071497	 0.3396736919	 0.102047
H	-0.1235468106	-0.1143770834	-2.0203534818	 0.111083
H	 1.5220440949	 0.3443403842	-1.5157593239	 0.116735
H	 0.1299806926	-2.3276612416	-0.9483475444	 0.106508
H	 4.2624570249	-1.869282282	-1.5575094453	 0.114963
H	 3.5490323317	-1.3611679268	 0.053888838	 0.126945
H	 2.4802735306	-3.5530152538	 0.3749167588	 0.138373
H	 3.1585637597	-4.1884196379	-1.2119485692	 0.114503
55.0341	92.4109	150.4897	176.3473	205.8483	232.4186	324.2957	335.8784	450.8769	504.3076	582.7083	677.6931	745.4248	789.5674	837.3364	860.146	896.0831	921.5139	947.3423	965.7977	1023.2714	1047.6891	1088.6789	1096.222	1123.259	1131.1702	1142.0044	1154.285	1178.7928	1193.8607	1225.0532	1246.48	1256.1891	1328.9182	1334.6799	1366.9208	1407.1645	1485.6968	1487.5432	1493.8844	1495.3176	1513.8657	1862.2805	3023.2588	3032.4679	3036.7342	3071.7845	3105.599	3108.7387	3111.967	3112.4308	3137.6991	3192.5899	3206.9043
CC1CC(N2CC2)C1=O	C[C@H]1C[C@@H](N2CC2)C1=O	
InChI=1S/C7H11NO/c1-5-4-6(7(5)9)8-2-3-8/h5-6H,2-4H2,1H3	InChI=1S/C7H11NO/c1-5-4-6(7(5)9)8-2-3-8/h5-6H,2-4H2,1H3/t5-,6+/m0/s1
