19
gdb 85304	2.4134	1.79912	1.28778	4.5512	75.09	-0.2561	0.0188	0.2749	1034.7661	0.161228	-423.065364	-423.057777	-423.056833	-423.097274	30.115	
C	-0.3835376421	 1.5331500698	 0.1102841807	-0.402022
C	 0.0971021393	 0.0924098232	 0.0005237393	 0.137385
O	 0.953898073	 0.0012943432	-1.169182724	-0.255998
C	 2.193805434	-0.5562629506	-1.0858129299	 0.426686
O	 2.8735874231	-0.6442918757	-2.0702834309	-0.339339
C	 2.5998667449	-1.0140745646	 0.2989938867	-0.137704
C	 1.4220574411	-1.8193057333	 0.922459583	-0.248047
C	 0.8043528473	-0.4343444206	 1.2483507648	-0.027668
C	 2.2539994716	 0.1182528205	 1.3096992382	-0.242477
H	 0.4399034073	 2.2099174404	 0.3558474625	 0.127095
H	-0.8196561398	 1.8566745162	-0.8379669524	 0.137595
H	-1.1469291935	 1.6178186008	 0.8901112416	 0.118746
H	-0.7622235146	-0.5563515915	-0.2155312335	 0.093311
H	 3.6016601837	-1.4379663607	 0.2646234538	 0.093864
H	 0.8597024303	-2.4978003034	 0.2749046753	 0.111153
H	 1.7409033994	-2.3498648819	 1.8224284813	 0.108952
H	 0.1555375112	-0.3326473025	 2.1211611706	 0.07512
H	 2.7162256317	-0.0676457483	 2.281665462	 0.110055
H	 2.4401653121	 1.1518856191	 1.0092537608	 0.113293
111.9706	164.8765	226.4893	268.7635	343.6685	394.0647	440.4324	484.5872	520.0528	624.1871	734.9525	750.8084	817.523	837.136	903.9172	906.0146	928.3538	959.3072	983.1705	1027.9448	1039.372	1058.157	1070.7258	1111.9248	1135.9703	1153.6073	1172.523	1226.5761	1248.6879	1265.3963	1281.4345	1329.1599	1339.1083	1376.0242	1392.7011	1411.3409	1480.9309	1489.2194	1496.526	1514.2208	1854.3044	3016.4558	3044.7651	3058.0253	3066.6235	3087.0937	3116.7729	3117.0927	3122.8296	3128.458	3136.7413
CC1OC(=O)C2CC1C2	C[C@H]1OC(=O)[C@@H]2C[C@H]1C2	
InChI=1S/C7H10O2/c1-4-5-2-6(3-5)7(8)9-4/h4-6H,2-3H2,1H3	InChI=1S/C7H10O2/c1-4-5-2-6(3-5)7(8)9-4/h4-6H,2-3H2,1H3/t4-,5-,6+/m1/s1
