17
gdb 79123	4.41996	1.33371	1.16626	1.9285	74.24	-0.2298	0.0108	0.2406	1059.1055	0.13737	-417.942373	-417.935418	-417.934474	-417.973537	28.007	
C	 0.0506394649	 1.4770610449	-0.2421769995	-0.327635
N	 0.0317801144	 0.0384651387	 0.0063841675	-0.11801
C	-1.0625041713	-0.4865398031	 0.8900146812	-0.052681
C	-0.1583091851	-1.7131411871	 1.1843054385	 0.098841
O	-0.3992802384	-2.2062743315	 2.4976705009	-0.260138
C	-0.5623224459	-1.0442656785	 3.230568206	 0.430593
N	-0.7994888787	-0.9614204476	 4.4640367399	-0.552647
C	-0.3907656375	 0.0451434498	 2.2186545892	-0.161846
C	 0.742959314	-0.4506449389	 1.2347515941	-0.052681
H	 1.0249130428	 1.7469670165	-0.6617236592	 0.126588
H	-0.7102043338	 1.7124711023	-0.9930274863	 0.126588
H	-0.1302423339	 2.1114173924	 0.6390940593	 0.104054
H	-2.1170131061	-0.461523402	 0.6119498903	 0.096141
H	-0.0044810608	-2.5079722222	 0.4614338386	 0.114558
H	-0.8610522153	-1.8915368047	 4.8833040529	 0.226657
H	-0.4759892442	 1.0709086975	 2.5581839947	 0.105475
H	 1.8239599765	-0.3831710266	 1.3644427623	 0.096141
161.6558	203.1664	218.7651	264.5519	428.12	466.2612	511.8006	633.563	651.1859	704.8104	768.6685	805.9714	836.0208	870.6933	901.6784	912.6872	926.3786	955.7343	1005.2938	1026.0788	1067.8011	1118.097	1136.0122	1136.1949	1151.8737	1164.3827	1171.2227	1211.323	1213.4922	1225.3565	1286.6027	1310.8397	1370.3716	1450.7199	1494.0174	1497.7498	1803.6639	2985.3217	3070.8557	3104.1706	3110.1294	3113.2008	3187.3265	3198.0593	3466.5615
CN1C2C3OC(=N)C2C13	CN1[C@H]2[C@@H]3O[C]([NH])[C@H]2[C@H]13	
InChI=1S/C6H8N2O/c1-8-3-2-4(8)5(3)9-6(2)7/h2-5,7H,1H3	InChI=1S/C6H8N2O/c1-8-3-2-4(8)5(3)9-6(2)7/h2-5,7H,1H3/t2-,3-,4+,5+
