19
gdb 44464	3.89653	1.3514	1.22187	2.5489	79.7	-0.2401	-0.0168	0.2233	1056.911	0.161235	-385.855544	-385.848669	-385.847724	-385.886788	28.888	
O	 0.0444836528	 0.0278794931	 0.2169653467	-0.297185
C	-0.0174815439	 1.214834127	 0.0553918904	 0.403163
C	-1.3439109037	 2.0217619634	-0.1501641674	-0.397479
C	-0.8524613895	 3.3957790854	-0.5932634371	 0.02153
C	-0.8495168527	 4.7813072793	 0.1342958809	-0.07991
C	-0.1653709029	 4.1021052663	 1.3437351549	-0.25532
C	 0.5454989556	 3.5201798895	 0.074138892	 0.339638
C	 0.5964087261	 4.9777743978	-0.4631290762	-0.303451
C	 1.2186293421	 2.1765853811	 0.0187085939	-0.470721
H	-1.9689970989	 1.5067192064	-0.8833194754	 0.126018
H	-1.8907973401	 2.002550996	 0.7978964787	 0.136281
H	-0.83580487	 3.4752306093	-1.6857314345	 0.069074
H	-1.642322006	 5.5305871873	 0.1586463894	 0.073716
H	 0.4489370492	 4.7433200105	 1.9814771255	 0.091765
H	-0.7679930851	 3.4235245179	 1.950061015	 0.094879
H	 0.6660985363	 5.0967299441	-1.5479980691	 0.094528
H	 1.2409383123	 5.6875913639	 0.0624216007	 0.09404
H	 1.9029293894	 1.934535713	 0.835532993	 0.128735
H	 1.7484892088	 2.0035094487	-0.9266574214	 0.130701
76.5784	281.44	334.5142	371.0343	466.1134	476.5759	500.8081	568.9974	630.8232	700.0771	705.3726	764.5106	802.2988	811.8328	878.8668	909.3977	938.7448	949.1743	992.0729	1006.1366	1044.6702	1068.2465	1088.0952	1101.8914	1119.7574	1136.8247	1150.121	1181.8563	1200.7332	1209.1534	1221.1377	1231.5034	1251.9946	1260.452	1328.9191	1400.1802	1448.7769	1452.4846	1503.9993	1545.2856	1851.2973	3037.9253	3041.1723	3049.627	3058.8989	3066.6966	3099.5165	3104.9765	3110.5568	3116.748	3125.0567
O=C1CC2C3CC2(C3)C1	O=C1C[C@H]2[C@H]3C[C@@]2(C3)C1	
InChI=1S/C8H10O/c9-6-1-7-5-2-8(7,3-5)4-6/h5,7H,1-4H2	InChI=1S/C8H10O/c9-6-1-7-5-2-8(7,3-5)4-6/h5,7H,1-4H2/t5-,7-,8+/m0/s1
