17
gdb 99399	7.46818	0.53224	0.5066	1.5265	67.35	-0.2678	-0.0401	0.2277	2044.153	0.132273	-496.133025	-496.122779	-496.121835	-496.170665	33.687	
O	 0.2538854646	 1.2704480992	 0.0813299919	-0.417362
C	 0.0508253541	-0.1108504995	 0.0049046053	-0.143499
C	-1.4310528135	-0.4351878108	-0.0360992143	 0.410881
O	-2.2883763634	 0.4159939278	-0.0157370172	-0.366217
O	-1.664439108	-1.7517840634	-0.0968113964	-0.235896
C	-3.0505771209	-2.1431612398	-0.1487612214	-0.076489
C	-3.0878861909	-3.6653410043	-0.2135503142	-0.289461
C	-4.4968929671	-4.1992776717	-0.0494955232	 0.153831
O	-5.0301417803	-4.9631241161	-0.8092615685	-0.22403
H	-0.6294352635	 1.6677715518	 0.0732771233	 0.298381
H	 0.520065497	-0.5390769868	-0.893865291	 0.128105
H	 0.4934989251	-0.6303534136	 0.8679317011	 0.127287
H	-3.5626273018	-1.7604567873	 0.7405022022	 0.132934
H	-3.5192569887	-1.6852084103	-1.0246443155	 0.143275
H	-2.6688305228	-4.0391542046	-1.1503865323	 0.138565
H	-2.4870675581	-4.0599245631	 0.6178744357	 0.138259
H	-5.0242072818	-3.8344964372	 0.8628695643	 0.081437
33.4361	57.5486	61.9329	81.425	118.0566	169.6284	254.6174	287.2917	346.8257	351.3143	497.1805	518.5553	582.1047	713.9278	778.3226	861.9516	935.8966	987.4658	1033.5018	1040.7658	1110.4831	1130.3534	1136.0651	1229.7285	1243.6391	1255.5648	1278.9674	1304.9411	1318.6483	1414.7574	1432.4493	1467.1299	1467.9468	1497.5584	1515.1694	1808.45	1842.2271	2861.7034	2996.0491	3016.9333	3026.0223	3051.7615	3096.8209	3122.5362	3723.6481
OCC(=O)OCCC=O	OCC(=O)OCCC=O	
InChI=1S/C5H8O4/c6-2-1-3-9-5(8)4-7/h2,7H,1,3-4H2	InChI=1S/C5H8O4/c6-2-1-3-9-5(8)4-7/h2,7H,1,3-4H2
