15
gdb 35308	5.61388	1.00387	0.93732	1.9135	80.74	-0.2357	-0.0027	0.233	1222.9651	0.109622	-383.370401	-383.362159	-383.361215	-383.403118	31.553	
C	-0.0677831363	-1.2108568811	-0.089674836	-0.432197
C	-0.0030452568	-0.0151552375	 0.0124466789	 0.32948
C	 0.0744963236	 1.4314681696	 0.1158685367	-0.08092
O	-0.0876697901	 1.9402637162	 1.47819093	-0.323153
C	 1.130768548	 2.6977829225	 1.3613569198	 0.329981
C	 2.2950575064	 1.7623875594	 1.1741290781	-0.339731
C	 1.4390519902	 2.1160875674	-0.0140906501	-0.186863
C	 1.1841506711	 4.0154435927	 1.8866498101	 0.192447
C	 1.2336582493	 5.128356155	 2.3404711261	-0.397119
H	-0.1264780475	-2.2680102825	-0.1760279967	 0.204637
H	-0.6760061654	 1.9025307579	-0.5297700437	 0.120387
H	 3.2725489066	 2.2322849207	 1.1811247116	 0.133197
H	 2.2404272144	 0.773095451	 1.6183357123	 0.135602
H	 1.812392077	 2.5994141794	-0.9056171025	 0.119973
H	 1.2732726094	 6.1108847092	 2.7415693053	 0.194278
85.3317	110.5543	180.3488	208.0417	326.1479	402.4575	456.7793	481.9364	548.462	570.2584	583.3078	631.4573	643.0068	674.9754	691.9367	737.0043	843.7192	893.8992	929.4363	956.8066	979.8099	1007.0289	1054.3181	1060.1399	1086.2808	1150.5199	1266.6433	1273.1187	1343.775	1383.5245	1472.2526	2236.7578	2237.4993	3037.9287	3126.7195	3216.4738	3226.7044	3501.2949	3501.6435
C#CC1OC2(CC12)C#C	C#C[C@H]1O[C@]2(C[C@@H]12)C#C	
InChI=1S/C8H6O/c1-3-7-6-5-8(6,4-2)9-7/h1-2,6-7H,5H2	InChI=1S/C8H6O/c1-3-7-6-5-8(6,4-2)9-7/h1-2,6-7H,5H2/t6-,7+,8-/m0/s1
