19
gdb 45853	2.50597	1.73075	1.15638	2.6138	80.72	-0.2359	-0.012	0.2239	1084.3728	0.160094	-385.915921	-385.907884	-385.906939	-385.949207	31.179	
O	-0.0659139316	 0.3236795622	 0.9982577909	-0.337171
C	-0.0297243008	 1.3006721866	 0.2796206738	 0.328712
C	-1.3132461079	 1.8526106763	-0.3419768762	-0.370592
C	-1.222018216	 3.2774861345	-0.8151280929	-0.063039
C	-0.0680397482	 3.8392975273	-1.1663617829	-0.057799
C	 1.2355537858	 3.0859460772	-1.1040337071	-0.368125
C	 1.2459257774	 2.0358215758	-0.0008065287	 0.253511
C	 2.0707450872	 2.3037729542	 1.2628694968	-0.276355
C	 2.5253370136	 1.2747881265	 0.2835428775	-0.29731
H	-1.5673713083	 1.1874327318	-1.1828992488	 0.140639
H	-2.1157840045	 1.7062590801	 0.3879805578	 0.135636
H	-2.1514318157	 3.8359342986	-0.8856233668	 0.093827
H	-0.0446521227	 4.860490557	-1.5358778348	 0.091596
H	 1.4234249386	 2.6068101852	-2.0778334725	 0.117122
H	 2.0719619869	 3.7782552563	-0.9566505345	 0.106586
H	 2.5909030403	 3.2545198015	 1.3096122491	 0.115789
H	 1.6485970201	 1.9552509376	 2.1981796193	 0.135155
H	 2.4059849373	 0.2341443665	 0.5613999554	 0.138857
H	 3.3758330187	 1.5015748851	-0.3506213053	 0.112962
39.2107	78.7086	255.4259	282.0088	330.7402	387.4914	408.4309	474.5089	529.9744	597.2082	642.1361	692.0528	784.4069	798.0044	826.7486	910.3997	915.1669	953.9732	968.5695	988.8228	997.4272	1021.3764	1025.3108	1063.7521	1095.4201	1122.9586	1183.042	1194.1581	1205.2407	1229.2908	1288.9461	1321.7076	1332.4876	1383.068	1407.7616	1442.1712	1449.6504	1478.8914	1486.432	1727.7389	1783.7621	2983.1356	2990.8609	3053.648	3076.8553	3134.4551	3136.2736	3154.5169	3177.7579	3223.6977	3237.4558
O=C1CC=CCC11CC1	O=C1CC=CCC21CC2	
InChI=1S/C8H10O/c9-7-3-1-2-4-8(7)5-6-8/h1-2H,3-6H2	InChI=1S/C8H10O/c9-7-3-1-2-4-8(7)5-6-8/h1-2H,3-6H2
