19
gdb 85628	3.28588	1.0721	0.84824	4.4078	86.2	-0.2218	-0.0443	0.1775	1361.773	0.159031	-382.091353	-382.082222	-382.081278	-382.125261	33.46	
C	-0.0392198443	 1.5405240891	 0.0338132772	-0.388293
C	 0.0137810822	 0.0115639813	-0.0673224049	 0.021219
C	 0.8303964705	-0.498353654	-1.2227283974	-0.180641
C	 1.6618626777	-1.4673517328	-0.8278611502	 0.19323
C	 1.4843067752	-1.7408577246	 0.6499291977	-0.257155
N	 0.679765457	-0.6033323479	 1.0914691848	-0.080394
C	-0.1612049037	-0.8634590773	 2.2408196044	-0.327808
C	 2.5652508122	-2.1960201996	-1.644543186	 0.206333
N	 3.3114288365	-2.807248454	-2.2861470888	-0.333862
H	 0.970770327	 1.9509100101	 0.1138471559	 0.128602
H	-0.531743484	 1.9705597702	-0.8444999154	 0.115839
H	-0.6064193385	 1.8488669609	 0.9170960611	 0.122747
H	-1.0265814599	-0.3591403135	-0.1840540409	 0.074661
H	 0.7284808129	-0.1243189864	-2.2333356011	 0.127774
H	 0.9777150608	-2.7149519541	 0.7942595787	 0.103958
H	 2.4384868537	-1.7958912163	 1.1900110571	 0.126027
H	 0.4523293157	-1.2005921506	 3.0823505783	 0.126318
H	-0.6679772827	 0.0549005076	 2.5516283743	 0.124619
H	-0.9332633881	-1.633915738	 2.0526839154	 0.096829
90.0713	109.8631	145.1856	208.4374	217.6737	261.9765	273.0125	349.0759	394.3814	470.1841	523.4612	567.3731	578.706	648.0623	779.2228	890.397	901.8694	929.8624	1003.7954	1036.3716	1045.2353	1100.3486	1114.0659	1149.3003	1177.6444	1199.8964	1212.8566	1266.6475	1281.7163	1344.1244	1363.6689	1381.2438	1403.1792	1460.9901	1487.5425	1490.5897	1496.3743	1502.622	1521.2044	1686.2888	2340.5364	2870.4903	2912.4183	2927.5189	3025.1104	3038.7738	3063.9623	3105.5098	3108.4683	3124.8442	3224.4678
CC1C=C(CN1C)C#N	C[C@H]1C=C(CN1C)C#N	
InChI=1S/C7H10N2/c1-6-3-7(4-8)5-9(6)2/h3,6H,5H2,1-2H3	InChI=1S/C7H10N2/c1-6-3-7(4-8)5-9(6)2/h3,6H,5H2,1-2H3/t6-/m0/s1
