18
gdb 10541	2.994	1.43281	1.10306	4.6583	73.24	-0.2361	0.0311	0.2672	1128.6584	0.153206	-343.975549	-343.966781	-343.965837	-344.009155	31.834	
C	-0.0303718612	 1.560028821	-0.0693125716	-0.394404
C	-0.2406620176	 0.0590211999	-0.2353799721	-0.121374
N	 0.8755242241	-0.5384379514	-0.9708061753	-0.349339
C	 0.7899691464	-1.9590494972	-1.1654575068	 0.198686
C	-0.2293817369	-2.5949663436	-2.1178119689	-0.292669
C	 1.2274918685	-2.5541779611	-2.4849407838	-0.311786
C	 1.1022497837	-2.7211166051	 0.0276841216	 0.282996
N	 1.3281278991	-3.3333504806	 0.9826160647	-0.35157
H	 0.909606981	 1.7632348681	 0.4508841826	 0.134802
H	 0.0040180589	 2.0654777214	-1.0418518765	 0.110756
H	-0.8505003304	 2.0021548453	 0.503328249	 0.122125
H	-0.2809568021	-0.4219441271	 0.7488786308	 0.128869
H	-1.214145572	-0.135468804	-0.7191927899	 0.083438
H	 1.0143768089	-0.0711842703	-1.8592910928	 0.221108
H	-0.6684981692	-3.5478675563	-1.8467528593	 0.139917
H	-0.9018490309	-1.904873321	-2.6151676008	 0.126005
H	 1.5524047843	-1.8506832269	-3.2447154236	 0.127303
H	 1.7962457554	-3.4756656713	-2.4582775373	 0.145136
73.6144	84.267	157.4463	191.7098	224.4959	252.0429	338.9045	380.8162	428.7809	575.9853	597.9238	653.6395	715.123	779.9595	818.4056	872.8296	911.6164	943.8271	950.73	1005.8789	1055.2067	1082.5429	1093.0487	1147.3738	1167.4503	1192.2327	1272.2903	1292.1765	1334.4417	1387.2927	1415.0223	1459.5972	1481.7463	1490.1802	1498.4163	1500.5324	1524.6048	2352.279	2945.3965	3032.9263	3055.3544	3101.6994	3125.0808	3138.0355	3142.4518	3224.3509	3238.7215	3541.2715
CCNC1(CC1)C#N	CCNC1(CC1)C#N	
InChI=1S/C6H10N2/c1-2-8-6(5-7)3-4-6/h8H,2-4H2,1H3	InChI=1S/C6H10N2/c1-2-8-6(5-7)3-4-6/h8H,2-4H2,1H3
