23
gdb 111869	2.6006	1.22852	1.13427	1.3389	84.96	-0.2222	0.0769	0.2991	1256.7545	0.20751	-388.281568	-388.272615	-388.271671	-388.315535	34.411	
C	 0.0827844444	 0.9675390051	-1.3859602022	-0.375487
C	-0.1533718848	 0.3990522166	 0.0187682838	-0.196083
C	-1.4312433085	-0.4069401046	 0.1147894481	-0.045926
C	-1.5144285375	-1.8975188172	-0.2087535401	-0.086202
C	-0.2922468779	-2.7581991615	-0.5093777032	-0.23368
C	 0.1217658117	-3.5194716041	 0.7579365204	-0.210032
C	 0.3793148947	-2.5373365927	 1.8943973253	-0.050547
O	-0.7224884009	-1.6824677855	 2.1968714598	-0.266329
C	-1.6801605776	-1.4117654549	 1.2114900946	 0.079838
H	 0.9968018625	 1.5688012613	-1.423901946	 0.108994
H	 0.1740740404	 0.1666994397	-2.1275042665	 0.116598
H	-0.7504924244	 1.6076380309	-1.6962310971	 0.113063
H	 0.7084509121	-0.204343691	 0.3192247558	 0.099435
H	-0.202037033	 1.2209121591	 0.7443798681	 0.10195
H	-2.3132741584	 0.1576891432	-0.1831078213	 0.075728
H	-2.4259346935	-2.2192047965	-0.7032315867	 0.083341
H	-0.524167413	-3.4581421138	-1.3172400225	 0.099201
H	 0.5526108713	-2.1539526209	-0.8613948957	 0.102852
H	-0.6725037966	-4.2190291588	 1.0454478693	 0.103855
H	 1.0317748691	-4.1064180726	 0.5907897443	 0.095347
H	 0.6076275408	-3.0664051564	 2.8260554578	 0.102947
H	 1.2605019679	-1.9237310129	 1.6452959225	 0.091099
H	-2.672961579	-1.4393930326	 1.6526707815	 0.090037
74.9144	82.6217	128.3405	193.9962	252.1322	280.017	323.8796	443.4625	466.8603	522.231	577.9265	682.3986	735.4712	762.2039	793.5873	803.8302	876.529	889.0624	927.7437	970.1514	991.1052	1010.9459	1040.0283	1072.2813	1074.315	1098.3356	1125.8214	1140.1629	1161.2017	1191.4142	1220.8405	1238.203	1271.5975	1291.785	1298.8699	1333.1284	1348.5671	1369.366	1381.7179	1391.1228	1410.4018	1421.4449	1446.7995	1478.805	1483.2149	1497.6097	1498.9855	1507.8768	1521.6408	2969.0704	3029.1818	3030.121	3030.9946	3033.4754	3059.0532	3074.7675	3075.7295	3082.5071	3099.6674	3101.921	3114.7819	3131.8388	3148.1609
CCC1C2CCCOC12	CC[C@H]1[C@H]2CCCO[C@@H]12	
InChI=1S/C8H14O/c1-2-6-7-4-3-5-9-8(6)7/h6-8H,2-5H2,1H3	InChI=1S/C8H14O/c1-2-6-7-4-3-5-9-8(6)7/h6-8H,2-5H2,1H3/t6-,7+,8-/m0/s1
