18
gdb 84360	2.6688	1.49774	1.19248	4.0396	74.97	-0.2172	-0.0186	0.1986	1098.7731	0.14603	-439.126061	-439.116663	-439.115719	-439.159968	34.422	
C	 0.0495566382	 1.4438585296	 0.0049552257	-0.353863
N	-0.0015837928	-0.0002428451	-0.0330895497	-0.090869
C	 0.0237601148	-0.7993321343	-1.190998159	-0.03719
C	 0.0296646151	-2.104993087	-0.9084584344	-0.225923
C	-0.0024708013	-2.2818681793	 0.59351842	 0.243961
C	-1.256429468	-2.9793666782	 1.1178375908	-0.410674
O	 1.1009810182	-3.0136682307	 1.113663042	-0.45047
C	 0.0157058012	-0.8014307266	 1.094709464	 0.355817
O	 0.0435491921	-0.4148834222	 2.2402799046	-0.37778
H	 0.9585317671	 1.8269668423	-0.4734896838	 0.13038
H	-0.8215304884	 1.8865351275	-0.490616808	 0.132785
H	 0.0498771964	 1.7366139204	 1.0564778919	 0.170201
H	 0.0289648074	-0.3084046865	-2.155240541	 0.130159
H	 0.0369771472	-2.9183191965	-1.618263381	 0.111702
H	-1.2594072441	-4.022846627	 0.7917053845	 0.123226
H	-1.2519698917	-2.9441147325	 2.2104541804	 0.146761
H	-2.1611367601	-2.4890033051	 0.7492674753	 0.121244
H	 1.9092653786	-2.6234897188	 0.7632910375	 0.280533
80.2897	124.7013	140.3587	219.1944	238.2507	279.1938	283.5501	294.8151	306.2922	359.11	534.1726	577.6566	583.0307	696.4258	718.5701	753.4322	775.9036	911.1348	943.7183	959.1599	971.556	1043.5275	1090.3061	1116.1009	1155.0496	1182.688	1212.0324	1294.0774	1329.9014	1359.4211	1396.6762	1413.5731	1457.6694	1480.1361	1489.8566	1494.7755	1512.5706	1669.0559	1824.4658	3023.3152	3046.7821	3077.7468	3127.4703	3131.2582	3143.1479	3220.51	3252.5159	3804.7838
CN1C=CC(C)(O)C1=O	CN1C=C[C@@](C)(O)C1=O	
InChI=1S/C6H9NO2/c1-6(9)3-4-7(2)5(6)8/h3-4,9H,1-2H3	InChI=1S/C6H9NO2/c1-6(9)3-4-7(2)5(6)8/h3-4,9H,1-2H3/t6-/m1/s1
