17
gdb 31847	5.06105	1.04589	0.87623	1.2858	80.77	-0.2318	-0.0393	0.1925	1314.5203	0.136601	-418.064662	-418.056213	-418.055269	-418.098093	30.462	
C	 0.0247581462	 1.399434901	 0.0915632089	-0.23406
O	-0.0220002651	-0.013010068	-0.1090763898	-0.261779
C	-1.2321671457	-0.5955074355	-0.0575720741	 0.417807
C	-1.2909339858	-1.9894098742	-0.2541587987	-0.091438
N	-2.4381804578	-2.6404839291	-0.2197446973	-0.285499
C	-3.5600374753	-1.9276398014	 0.0106526665	 0.30604
C	-4.8641270364	-2.6750357835	 0.0487005598	-0.470585
C	-3.4780964718	-0.5543547594	 0.2016159854	-0.07184
N	-2.3192884902	 0.1197493251	 0.1692549862	-0.341221
H	 1.0781316825	 1.6704781511	 0.0123328237	 0.131201
H	-0.5613112889	 1.9244389553	-0.6683799886	 0.136056
H	-0.3645120476	 1.6699306243	 1.0774237062	 0.136057
H	-0.3798434844	-2.5519580904	-0.4388822591	 0.120736
H	-5.7038000938	-2.0023139302	 0.2413679644	 0.12088
H	-5.0431158636	-3.1894882101	-0.9010545771	 0.139481
H	-4.8480350103	-3.4417714491	 0.8301013741	 0.13948
H	-4.372731982	 0.0347931442	 0.3883567797	 0.108684
82.9607	99.9717	144.6654	186.6347	216.4146	344.0232	355.1664	432.1654	441.9179	558.4242	581.6716	653.6145	760.5206	790.845	879.4563	920.2705	958.6673	1004.004	1038.3228	1060.6705	1063.6183	1178.5935	1200.6628	1234.7615	1280.2046	1313.7939	1344.0264	1387.7547	1414.128	1468.9736	1475.837	1480.1276	1490.9523	1499.0933	1521.4541	1585.4317	1630.5431	3038.5172	3041.1441	3097.3787	3111.0618	3121.4212	3149.3883	3155.1189	3166.7143
COC1=CN=C(C)C=N1	COc1cnc(C)cn1	
InChI=1S/C6H8N2O/c1-5-3-8-6(9-2)4-7-5/h3-4H,1-2H3	InChI=1S/C6H8N2O/c1-5-3-8-6(9-2)4-7-5/h3-4H,1-2H3
