16
gdb 124108	3.36127	0.99055	0.77245	3.8348	86.85	-0.2301	-0.0324	0.1977	1451.5801	0.122991	-400.733979	-400.724796	-400.723852	-400.770118	31.35	
C	-0.110591887	 1.4617025728	-0.0201960667	-0.511563
C	-0.0264522078	 0.0112164132	-0.016041835	 0.234419
C	 0.0348782676	-1.1940139193	-0.0125479085	-0.106142
C	 0.1233961322	-2.5973063346	-0.0086838871	 0.236416
C	 1.1982395446	-3.4486564324	-0.010280265	 0.045905
C	 2.6517847855	-3.1044778571	-0.016720976	-0.52163
C	 0.5810850396	-4.7285776498	-0.0041586056	-0.049291
N	-0.7278253584	-4.6610992895	 0.0006845263	-0.132152
O	-1.0320474907	-3.3120801727	-0.0021045117	-0.218278
H	 0.8874575749	 1.912455925	-0.0291548307	 0.157542
H	-0.6498581412	 1.8234143354	-0.9025982833	 0.16041
H	-0.6366155369	 1.8292959252	 0.8677568967	 0.160385
H	 3.1629836874	-3.5032579532	 0.8664178434	 0.137621
H	 3.1578286135	-3.5148634215	-0.8974747376	 0.137561
H	 2.7886056992	-2.0204396604	-0.0241599703	 0.139728
H	 1.0556149677	-5.7006299012	-0.0031567789	 0.129068
16.5425	83.4083	87.8413	109.0572	249.0654	252.8312	297.7682	350.7582	465.3325	479.7223	544.37	645.3025	675.9578	729.2329	904.9134	937.27	957.1719	998.6561	1011.6359	1048.1964	1052.3125	1067.0539	1161.0085	1211.3768	1281.1506	1400.7092	1411.4824	1428.6335	1471.4419	1474.1212	1486.2129	1488.774	1507.1414	1650.095	2356.8396	3029.4576	3033.7308	3085.5142	3091.1519	3096.3242	3122.0454	3235.2768
CC#CC1=C(C)C=NO1	CC#Cc1c(C)cno1	
InChI=1S/C7H7NO/c1-3-4-7-6(2)5-8-9-7/h5H,1-2H3	InChI=1S/C7H7NO/c1-3-4-7-6(2)5-8-9-7/h5H,1-2H3
