23
gdb 35958	2.8436	1.12811	0.87128	0.9047	91.37	-0.2548	0.0599	0.3147	1391.3846	0.207536	-351.141565	-351.13243	-351.131486	-351.175205	35.836	
C	 0.0978194595	-1.2778483342	 0.0993213071	-0.441753
C	 0.0340360554	-0.078372405	 0.0383535313	 0.301295
C	-0.0224730173	 1.3825608108	-0.0093385904	-0.16832
C	-0.8037729205	 1.9301787803	 1.2167220114	-0.19175
C	-1.5170129228	 3.279782227	 1.0149376366	-0.20405
C	-0.7571737435	 4.3668600584	 0.2280641195	-0.181551
C	 0.7640725693	 4.4253179575	 0.4483967416	-0.183875
C	 1.5481419536	 3.4370831351	-0.4311649629	-0.204106
C	 1.4204496017	 1.9482192049	-0.0842438517	-0.179451
H	 0.1457484431	-2.337548168	 0.1419406921	 0.188439
H	-0.5593590361	 1.6647913651	-0.92688948	 0.098999
H	-1.5524345956	 1.1920000714	 1.5188996711	 0.107378
H	-0.0981235506	 1.9977872999	 2.0533056443	 0.102113
H	-2.4779508454	 3.1056442545	 0.5153069487	 0.09789
H	-1.7679753265	 3.665779193	 2.0106067271	 0.097105
H	-0.9374045366	 4.2354621903	-0.8468966032	 0.093321
H	-1.2020349681	 5.3360990155	 0.4807263543	 0.090396
H	 1.1130658096	 5.4361917763	 0.2069034911	 0.092472
H	 1.0058225601	 4.2692675127	 1.5084133801	 0.092056
H	 1.2388839382	 3.5905699399	-1.4746659927	 0.093947
H	 2.6142691916	 3.692485035	-0.3947101459	 0.092405
H	 1.9020069171	 1.749024423	 0.8817404591	 0.102562
H	 1.9808288037	 1.3705639367	-0.8271069585	 0.104479
86.7192	129.0019	158.1802	175.0558	278.7596	287.3483	333.6664	377.8053	477.0297	503.6742	522.7319	531.2183	622.9607	627.151	737.2428	771.5422	833.3542	850.3304	865.3075	890.7074	960.6496	1004.6122	1018.1439	1027.9691	1043.0587	1064.6241	1119.5464	1136.4821	1187.6326	1219.6662	1227.2881	1270.0324	1291.1914	1307.4507	1319.7943	1331.1058	1362.2583	1376.4108	1384.3351	1387.7604	1401.393	1405.1915	1480.8558	1483.1926	1487.4404	1491.5175	1501.5228	1509.2328	2231.4593	2996.1844	3006.998	3014.685	3016.4102	3022.4594	3025.2257	3035.9698	3047.3462	3053.4396	3058.2518	3065.6588	3073.0323	3084.8095	3505.5955
C#CC1CCCCCC1	C#CC1CCCCCC1	
InChI=1S/C9H14/c1-2-9-7-5-3-4-6-8-9/h1,9H,3-8H2	InChI=1S/C9H14/c1-2-9-7-5-3-4-6-8-9/h1,9H,3-8H2
