20
gdb 73567	2.34516	1.97631	1.50107	1.0433	77.06	-0.2302	0.0712	0.3014	976.4408	0.172529	-403.106912	-403.099357	-403.098413	-403.138469	30.762	
C	 0.0658778879	 1.4847145044	-0.0295962239	-0.455059
C	-0.0461220826	-0.0273231216	 0.0011934907	 0.337385
C	-1.4890465635	-0.5649496712	 0.0406380579	-0.307519
C	-1.5571294258	-1.2288643541	 1.4333410901	-0.073502
O	-0.2352690899	-1.6845394945	 1.7281223755	-0.266636
C	 0.6711171431	-0.7560038105	 1.1620463766	 0.049704
C	 1.6498554956	-1.3132580032	 0.1276036764	-0.047411
C	 0.9360980513	-2.0730394472	-0.9087642302	-0.250678
N	 0.9364109902	-0.6035777149	-1.0214675075	-0.179035
H	 1.110261166	 1.7987650794	 0.0577195275	 0.122648
H	-0.3217196982	 1.8758390084	-0.9756892915	 0.126654
H	-0.5026864738	 1.9346812198	 0.7916756508	 0.11093
H	-2.2311891343	 0.2299276388	-0.0701153462	 0.103341
H	-1.6672219585	-1.2949382065	-0.7528104372	 0.117228
H	-1.8903996814	-0.5017273897	 2.1907112016	 0.094127
H	-2.2228798278	-2.0951064759	 1.4797228343	 0.111176
H	 1.1245886267	-0.1155497885	 1.9278515828	 0.071078
H	 2.7304091042	-1.2950793759	 0.2174670261	 0.093033
H	 1.5348485983	-2.5412097508	-1.6839140078	 0.121693
H	 0.0314541525	-2.6133221364	-0.648023226	 0.120843
143.0299	187.2429	247.2019	270.706	298.7995	372.8987	446.4794	523.8633	594.8462	634.3945	664.1934	760.6399	790.623	823.9159	872.1221	917.8787	932.4546	945.2993	975.413	992.9763	1007.6276	1020.6496	1059.3263	1094.4051	1108.9572	1129.0188	1173.5848	1180.3107	1207.2872	1225.8068	1235.3857	1254.2749	1287.971	1319.9785	1346.2665	1359.1907	1393.8241	1412.1189	1481.6607	1488.0658	1495.194	1508.7097	1520.2848	2977.9898	3030.5331	3035.1557	3066.7369	3087.0912	3103.2208	3109.4368	3113.0512	3123.6395	3171.7801	3207.8071
CC12CCOC1C1CN21	C[C@]12CCO[C@H]1[C@H]1CN21	
InChI=1S/C7H11NO/c1-7-2-3-9-6(7)5-4-8(5)7/h5-6H,2-4H2,1H3	InChI=1S/C7H11NO/c1-7-2-3-9-6(7)5-4-8(5)7/h5-6H,2-4H2,1H3/t5-,6+,7+,8?/m1/s1
