16
gdb 54510	3.30604	1.4859	1.17079	3.66	69.79	-0.223	0.0152	0.2382	1028.2334	0.125892	-434.101599	-434.093651	-434.092707	-434.134005	30.477	
N	 0.0267329835	 1.0253508834	-0.7117810406	-0.544028
C	-0.0493207316	 0.0568176486	 0.2343537369	 0.337285
O	 0.804650795	-0.1516365991	 1.080722818	-0.39051
C	-1.2969237561	-0.771573087	 0.1455073475	 0.248313
C	-1.8351549326	-1.3762393187	 1.4311664375	-0.320545
C	-1.2956319844	-2.3038065327	 0.3942764824	-0.05557
N	-2.255716284	-2.7645760128	-0.5755336375	-0.286611
C	-2.6896532997	-1.6711885905	-1.2901900635	 0.033564
N	-2.216474149	-0.5282113932	-0.9369973656	-0.328156
H	 0.8095398143	 1.656387475	-0.7042854655	 0.257386
H	-0.7420483824	 1.154862723	-1.349708865	 0.272723
H	-1.1982908373	-1.209134192	 2.2915297835	 0.147287
H	-2.9066670236	-1.3422844921	 1.5964555683	 0.118078
H	-0.4021064939	-2.8929842697	 0.5579333837	 0.123175
H	-2.1884883651	-3.677858974	-0.9942503019	 0.255649
H	-3.4161848931	-1.8022311082	-2.0853122481	 0.131958
74.6	169.449	210.4298	267.0216	304.8519	350.2418	416.2592	447.5175	492.7249	601.9879	627.0794	654.619	719.6658	756.7123	828.5789	868.8464	911.0771	940.0191	961.8101	996.4239	1056.0843	1072.7004	1083.7465	1097.9202	1144.6368	1224.4551	1234.7832	1323.5099	1363.089	1408.5224	1431.7287	1463.1939	1592.7743	1638.7005	1785.6566	3135.0515	3195.2373	3198.8493	3240.6154	3589.646	3643.7026	3735.7841
NC(=O)C12CC1NC=N2	NC(=O)[C@]12C[C@H]1NC=N2	
InChI=1S/C5H7N3O/c6-4(9)5-1-3(5)7-2-8-5/h2-3H,1H2,(H2,6,9)(H,7,8)	InChI=1S/C5H7N3O/c6-4(9)5-1-3(5)7-2-8-5/h2-3H,1H2,(H2,6,9)(H,7,8)/t3-,5+/m1/s1
