17
gdb 76961	2.1227	1.6847	1.27192	3.8272	70.91	-0.2486	-0.0517	0.1969	1051.6528	0.134179	-455.165643	-455.156288	-455.155344	-455.200149	33.592	
C	 0.2638548822	 1.4343296323	 0.3276900812	-0.420299
C	-0.0176044761	-0.0067958227	-0.0211360506	 0.013371
C	 0.6318534257	-0.7201763283	-1.2218556471	-0.154443
C	 1.5393749399	 0.0494675115	-2.1113694071	 0.138372
O	 2.5568243739	 0.6048472493	-1.7662692628	-0.266339
N	 0.95219306	-1.0418465001	 0.1551856661	-0.108135
C	 2.1652619289	-0.8810424034	 0.8584701871	 0.4343
N	 3.2238305571	-1.5725524784	 0.3190730012	-0.531388
O	 2.2021435893	-0.3113090968	 1.9276013433	-0.378162
H	 1.2455374797	 1.7555017494	-0.0231144946	 0.156012
H	-0.5039927089	 2.0793198673	-0.1105370117	 0.116477
H	 0.2442646701	 1.55040371	 1.4138029053	 0.159689
H	-1.0388350144	-0.3308517928	 0.1785530096	 0.112229
H	 0.0307275901	-1.4628065577	-1.7453812946	 0.111524
H	 1.1976509175	 0.080579824	-3.169382928	 0.095108
H	 3.2599910419	-1.6755460754	-0.6822482025	 0.256512
H	 4.1060998833	-1.3391714381	 0.748756205	 0.265174
41.2208	129.0128	149.7115	170.164	201.0071	230.8931	281.5518	366.6938	401.8692	456.683	477.5967	544.0138	582.398	698.1939	774.4233	805.7054	822.177	856.6998	933.6695	995.3732	1050.4132	1079.88	1092.853	1119.5176	1158.7197	1176.1278	1291.7402	1374.0185	1394.8743	1414.6487	1420.9181	1443.6514	1486.9041	1495.8785	1628.7321	1798.5017	1806.5443	2892.587	3052.4516	3106.1378	3119.0464	3126.5707	3151.3335	3591.3655	3705.436
CC1C(C=O)N1C(N)=O	C[C@H]1[C@@H](C=O)N1C(=O)N	
InChI=1S/C5H8N2O2/c1-3-4(2-8)7(3)5(6)9/h2-4H,1H3,(H2,6,9)	InChI=1S/C5H8N2O2/c1-3-4(2-8)7(3)5(6)9/h2-4H,1H3,(H2,6,9)/t3-,4+,7?/m0/s1
