19
gdb 52266	4.08384	0.83678	0.76631	4.0716	77.72	-0.2499	0.0081	0.258	1488.4301	0.159473	-423.060486	-423.051743	-423.050799	-423.095496	31.381	
O	 0.0036312053	 0.2772052641	-0.5947150067	-0.275798
C	 0.1740935202	 1.458657056	-0.5621038712	 0.169555
O	 0.9731500821	 2.0564954023	 0.3395701317	-0.1803
C	 1.0812364806	 3.4861025279	 0.3219078711	-0.089248
C	 2.5498608183	 3.9080769166	 0.319277127	 0.003472
C	 3.2659805798	 3.4954950076	-0.9970094372	-0.265448
C	 3.2847919314	 4.7712446444	-1.8040665035	-0.056564
C	 2.9494550723	 5.8324823015	-1.0732700663	-0.055572
C	 2.6420665624	 5.4616127759	 0.3583824192	-0.277471
H	-0.2963795629	 2.1783171881	-1.2613804403	 0.076749
H	 0.564918058	 3.8914891074	-0.5591542323	 0.114143
H	 0.5770660453	 3.8626952325	 1.2185244873	 0.119287
H	 3.0265436665	 3.4544427837	 1.1917578756	 0.089814
H	 4.2865603788	 3.1395486884	-0.8036957209	 0.113325
H	 2.7559690707	 2.6685672857	-1.5041725303	 0.110038
H	 3.5726922213	 4.7954055321	-2.8492497373	 0.095556
H	 2.9235090348	 6.85718833	-1.4267790739	 0.095047
H	 1.7179733045	 5.9236613675	 0.7299773134	 0.100659
H	 3.4391887106	 5.8006996483	 1.0330940746	 0.112754
39.1088	61.8993	107.988	149.7817	229.8848	327.9305	365.1373	392.3284	434.6601	657.5226	702.4261	730.2688	785.0663	844.5487	903.8053	918.1862	949.2715	974.6561	980.4448	1006.8344	1046.4151	1052.5284	1085.2673	1094.4624	1132.7369	1158.6719	1179.9478	1239.7586	1252.3527	1303.5168	1310.2357	1329.9577	1359.0125	1385.7634	1400.0258	1435.2583	1485.6242	1493.875	1505.808	1689.1882	1865.3064	2940.0501	3011.5262	3016.1553	3021.3715	3038.2376	3058.2713	3067.6903	3086.1505	3184.1617	3209.4249
O=COCC1CC=CC1	O=COC[C@H]1CC=CC1	
InChI=1S/C7H10O2/c8-6-9-5-7-3-1-2-4-7/h1-2,6-7H,3-5H2	InChI=1S/C7H10O2/c8-6-9-5-7-3-1-2-4-7/h1-2,6-7H,3-5H2
