21
gdb 68080	2.57815	1.64835	1.22799	1.1188	78.07	-0.2378	0.0763	0.3141	1085.4354	0.182774	-424.224087	-424.215726	-424.214781	-424.256114	34.238	
C	-0.0970589072	 1.5135596724	-0.0166096586	-0.45686
C	 0.0567069398	 0.0104739132	-0.0081239158	 0.4209
C	 1.1583844321	-0.6749527553	-0.8745640667	-0.318205
C	 1.1370982295	-1.7905953026	 0.1959965695	 0.41344
O	 2.3540030302	-2.4666449627	 0.3819626366	-0.487164
C	 0.6858755496	-0.7103248236	 1.2205300029	-0.310612
C	-0.0562484718	-2.7238860423	-0.0689479295	-0.296249
C	-1.2137215231	-1.9081586383	-0.6872425407	-0.073223
O	-1.2363360119	-0.5529076309	-0.2548645859	-0.312649
H	 0.8513543843	 1.9990054126	 0.2299546051	 0.111152
H	-0.4241443986	 1.8611499093	-1.0015259724	 0.121165
H	-0.8482187317	 1.8214955812	 0.7174603194	 0.124845
H	 0.9417595123	-0.9256689472	-1.915507043	 0.097502
H	 2.092990483	-0.1121379714	-0.8197237483	 0.107143
H	 2.2269741621	-3.1363478737	 1.0631878103	 0.273486
H	 1.5467267675	-0.1666134152	 1.6188930862	 0.096748
H	 0.0035821235	-1.000150096	 2.0241865072	 0.086677
H	 0.242448689	-3.5160326267	-0.7641493265	 0.104675
H	-0.3611342122	-3.2006350152	 0.8716497705	 0.093367
H	-1.1264266665	-1.9410154836	-1.782661158	 0.097453
H	-2.1884037298	-2.332086794	-0.4289847422	 0.106408
208.6673	211.9265	222.3685	253.3999	266.6178	302.2084	385.0793	425.0583	443.2302	474.3197	482.6196	556.825	637.0732	702.5016	813.6638	830.2205	859.6978	905.9502	930.5503	942.435	965.8054	998.9938	1005.2064	1034.9314	1078.588	1115.6428	1136.1321	1167.4665	1198.0075	1208.1458	1229.3693	1245.574	1264.5794	1285.5502	1326.0884	1340.2847	1385.4367	1411.4718	1414.2667	1466.1578	1480.1824	1490.3088	1493.9562	1502.1892	1530.6076	2996.3117	3019.3606	3038.4942	3051.942	3068.7839	3072.1279	3083.0726	3109.3336	3115.8751	3119.2138	3126.2689	3798.5129
CC12CC(O)(C1)CCO2	C[C@@]12C[C@@](O)(C1)CCO2	
InChI=1S/C7H12O2/c1-6-4-7(8,5-6)2-3-9-6/h8H,2-5H2,1H3	InChI=1S/C7H12O2/c1-6-4-7(8,5-6)2-3-9-6/h8H,2-5H2,1H3/t6-,7-
