19
gdb 28322	4.67629	1.19622	0.97595	2.5029	84.66	-0.1659	0.0622	0.2281	1227.847	0.162456	-382.107708	-382.099724	-382.09878	-382.140108	30.831	
C	-0.08531275	 1.4828649629	 0.0074722128	-0.494018
C	 0.0008347353	-0.0136563882	 0.0058982147	 0.313852
C	-0.0873720838	-0.8293911869	-1.0994661676	-0.252737
N	-0.0253915531	-2.1365438564	-0.6508672523	-0.006311
C	 0.1624559325	-3.4547260732	-1.2216795211	-0.174939
C	-0.0428584923	-4.3345569383	 0.0356656651	-0.174285
N	 0.3996088014	-3.4597335206	 1.1435543735	-0.404914
C	 0.1607385505	-2.1449549991	 0.7018353634	 0.405244
C	 0.169924191	-0.8524421439	 1.1647862242	-0.449269
H	 0.8017454434	 1.9400658902	 0.4624247504	 0.119119
H	-0.1722608172	 1.8733895615	-1.0109276926	 0.113546
H	-0.9531968472	 1.8425169795	 0.5740738416	 0.118332
H	-0.2307536351	-0.5942813676	-2.1416050082	 0.10566
H	-0.562123239	-3.6775632403	-2.0094095655	 0.120246
H	 1.1739953629	-3.5710995154	-1.6340838439	 0.119139
H	-1.1055018498	-4.6030262485	 0.1244767521	 0.106331
H	 0.5462780315	-5.2541235596	 0.0006875828	 0.115075
H	-0.0297686334	-3.6854090604	 2.0313124825	 0.23886
H	 0.2804575123	-0.5257008757	 2.1868933979	 0.081069
116.6947	120.613	197.5427	229.5362	261.5229	309.3587	473.4164	525.6148	606.2783	621.9328	637.0671	674.5595	725.5199	733.0637	791.6536	841.9573	906.9078	953.1344	980.0257	1010.218	1051.999	1060.0937	1123.2205	1129.9507	1159.868	1200.1091	1220.9725	1252.7475	1313.6942	1324.7546	1374.5319	1388.9826	1413.1033	1423.0312	1481.0095	1481.1487	1502.0943	1518.2586	1528.2174	1575.2566	1625.9524	2995.3239	3010.1097	3017.8436	3063.0376	3085.7469	3095.7339	3100.0121	3248.6264	3261.2876	3566.6633
CC1=CN2CCNC2=C1	Cc1cn2CCNc2c1	
InChI=1S/C7H10N2/c1-6-4-7-8-2-3-9(7)5-6/h4-5,8H,2-3H2,1H3	InChI=1S/C7H10N2/c1-6-4-7-8-2-3-9(7)5-6/h4-5,8H,2-3H2,1H3
