23
gdb 121825	3.36516	0.70326	0.6806	3.0786	83.78	-0.2479	-0.0194	0.2285	1779.3459	0.201445	-425.430809	-425.41925	-425.418305	-425.468579	40.21	
C	 0.1552824448	 1.3784257858	-0.0087893898	-0.228895
O	 0.0590924902	-0.0251473191	 0.0041720231	-0.228522
C	-1.2756337881	-0.4847717246	 0.0182520255	-0.07145
C	-1.230701043	-2.0098172299	 0.0550034796	-0.222417
C	-2.6051129333	-2.7283350554	 0.0710767203	 0.145334
C	-3.4238315136	-2.4035126546	 1.3263515477	-0.411778
C	-3.4132032749	-2.4278832225	-1.2125530531	-0.425462
C	-2.286776225	-4.2208927604	 0.031306947	 0.151797
O	-2.6356816136	-5.0351236012	 0.8451642067	-0.25254
H	 1.2176916478	 1.6337273867	-0.0175520595	 0.128533
H	-0.3220558177	 1.8142685377	-0.9012673247	 0.102692
H	-0.3111218069	 1.8293578101	 0.8818081681	 0.103938
H	-1.8058855866	-0.0839363302	 0.8975794459	 0.090877
H	-1.8099729181	-0.1226814877	-0.8754937123	 0.086911
H	-0.6511755031	-2.3466782411	-0.813737918	 0.10698
H	-0.6599754614	-2.3044906388	 0.9437008599	 0.116384
H	-3.7428119514	-1.357440271	 1.3311167347	 0.109849
H	-4.316085342	-3.0329051745	 1.374937509	 0.127621
H	-2.8432990968	-2.5922881009	 2.233712719	 0.124821
H	-2.8429029253	-2.6779416735	-2.1139141478	 0.119451
H	-4.3433686321	-3.0050241239	-1.2292173251	 0.127254
H	-3.6810601539	-1.369447528	-1.2688441836	 0.12723
H	-1.6795795261	-4.5235985732	-0.8556275525	 0.071391
44.2587	60.5948	74.8421	119.2384	137.3538	207.7659	233.7232	240.4631	269.794	287.0839	303.6615	342.4818	373.305	429.9879	476.882	649.1139	769.7771	797.7954	882.4527	933.9539	952.4373	987.3536	995.3412	1027.7152	1064.6578	1081.0759	1161.197	1177.8532	1196.4595	1213.4168	1232.0171	1251.3878	1281.407	1330.7503	1341.1175	1399.0495	1410.3972	1426.68	1434.4543	1480.4481	1480.7627	1485.371	1485.6855	1489.9632	1502.4924	1506.507	1510.4606	1534.291	1833.6709	2844.09	2956.7028	2970.7997	2987.0777	3010.0652	3026.3028	3034.0172	3047.0142	3070.9915	3100.7248	3113.3242	3114.3086	3117.695	3122.2342
COCCC(C)(C)C=O	COCCC(C)(C)C=O	
InChI=1S/C7H14O2/c1-7(2,6-8)4-5-9-3/h6H,4-5H2,1-3H3	InChI=1S/C7H14O2/c1-7(2,6-8)4-5-9-3/h6H,4-5H2,1-3H3
