18
gdb 75277	3.01687	1.42989	1.1358	3.7697	77.62	-0.2424	0.0103	0.2527	1106.594	0.148964	-401.991661	-401.983717	-401.982773	-402.024167	30.481	
C	-0.1029950985	 1.4708809643	 0.0507926274	-0.49726
C	-0.0188039662	-0.0219019511	-0.0197932313	 0.327388
C	-0.0335581705	-0.7887727166	-1.11405419	-0.155174
C	 0.0826760914	-2.2692353955	-0.8342664204	-0.280191
C	 0.0582178098	-2.3397202722	 0.7045492827	-0.182756
C	 0.0837406391	-0.8699020031	 1.2299049066	-0.083039
N	-1.1918251818	-1.1649515577	 1.9231733415	-0.325568
C	-1.3466632208	-2.415160694	 1.3604015476	 0.41366
O	-2.2483148043	-3.2086731891	 1.3753609441	-0.358521
H	 0.7755103873	 1.8937897893	 0.5547642335	 0.128182
H	-0.1720448017	 1.9189503948	-0.9438460231	 0.129164
H	-0.9785680813	 1.7961309585	 0.6277676552	 0.123041
H	-0.1237923507	-0.4031156659	-2.1253149482	 0.09258
H	-0.7358115705	-2.8465385477	-1.2808850489	 0.130526
H	 1.0118819966	-2.6838420213	-1.2447783013	 0.111675
H	 0.7785203943	-3.0313917912	 1.1412920441	 0.100867
H	 0.8784815521	-0.5640386113	 1.9181818108	 0.081023
H	-1.8991651844	-0.5420756702	 2.2889015897	 0.244404
82.0742	162.2441	190.9962	248.2548	266.4253	333.6755	414.9779	478.0115	554.9625	590.386	671.219	723.1876	785.4213	825.6005	862.5948	880.6363	920.5347	953.4483	983.4339	1018.6445	1024.7305	1063.6017	1071.0054	1144.9679	1165.3114	1179.8407	1211.6009	1250.626	1280.8541	1308.9078	1330.9914	1356.1611	1366.024	1415.8196	1480.3623	1486.7833	1489.6853	1716.7087	1889.1639	3015.4884	3025.4049	3053.2139	3056.6477	3060.5971	3113.0118	3118.9806	3176.0873	3588.2107
CC1=CCC2C1NC2=O	CC1=CC[C@H]2[C@@H]1NC2=O	
InChI=1S/C7H9NO/c1-4-2-3-5-6(4)8-7(5)9/h2,5-6H,3H2,1H3,(H,8,9)	InChI=1S/C7H9NO/c1-4-2-3-5-6(4)8-7(5)9/h2,5-6H,3H2,1H3,(H,8,9)/t5-,6+/m0/s1
