13
gdb 34842	3.74855	1.16426	0.98208	2.723	67.71	-0.2951	-0.0159	0.2791	1125.0901	0.089279	-415.551442	-415.544195	-415.543251	-415.583516	26.662	
N	 0.0137484672	-1.2332956552	-0.0097141042	-0.30415
C	 0.0059489145	-0.078301636	 0.003683305	 0.28861
C	-0.0419119348	 1.3717832175	-0.0148493005	-0.191646
C	 0.0839273934	 2.109534601	 1.3537807825	 0.050248
O	 1.487266186	 1.6769596791	 1.439575786	-0.28695
C	 1.3176914365	 2.133575263	 0.0515602812	 0.050241
C	 0.5804664764	 3.3917733829	 0.612103478	-0.151909
C	-0.3170738224	 4.1675862897	-0.2239316759	 0.273166
N	-1.0357027261	 4.7770149914	-0.8935295628	-0.321063
H	-0.7899400945	 1.746508147	-0.7166303803	 0.158568
H	-0.5420596319	 2.0285488276	 2.2399813393	 0.140868
H	 2.1700563707	 2.0813947619	-0.6226214616	 0.140864
H	 1.2229793249	 4.0159990601	 1.2323594629	 0.153153
108.2522	148.0167	192.2193	199.3067	394.6626	449.816	512.833	541.8395	546.7276	637.4669	764.2374	812.6549	871.1274	905.6818	906.1868	942.706	1036.9901	1056.889	1062.0582	1113.8355	1141.0473	1170.4574	1183.6877	1231.5182	1259.0346	1347.403	1378.0284	2357.8087	2368.1909	3104.1365	3134.0576	3153.2839	3156.6487
N#CC1C2OC1C2C#N	N#C[C@H]1[C@H]2O[C@@H]1[C@H]2C#N	
InChI=1S/C6H4N2O/c7-1-3-5-4(2-8)6(3)9-5/h3-6H	InChI=1S/C6H4N2O/c7-1-3-5-4(2-8)6(3)9-5/h3-6H/t3-,4-,5-,6+
