18
gdb 16776	3.90221	1.55846	1.45185	0.9114	66.53	-0.2522	0.0817	0.3338	928.6073	0.154863	-384.93045	-384.922986	-384.922041	-384.962158	28.489	
O	 0.1300016928	 1.1104037729	-0.5116173244	-0.425712
C	-0.079448897	-0.2803911798	-0.2965739455	-0.087315
C	-1.5107226625	-0.4666409917	 0.2082538839	 0.015931
C	-2.5640106073	-0.0454092903	-0.8558459677	-0.249228
C	-3.0164044336	-1.3418037713	-1.4937339873	 0.052928
O	-1.933165528	-2.1866686785	-1.9204000228	-0.258745
C	-2.5772565073	-2.4738384128	-0.6698287814	 0.058186
C	-1.8184227552	-1.9561717351	 0.5354173648	-0.273257
H	 0.9608709818	 1.2180056267	-0.9826932621	 0.286338
H	 0.0600480562	-0.8571094285	-1.2199634861	 0.111133
H	 0.6238872449	-0.6695211217	 0.4580872533	 0.077974
H	-1.6122043089	 0.1533473504	 1.1039067385	 0.081959
H	-3.4296181071	 0.4391265731	-0.388647411	 0.097745
H	-2.1412973159	 0.6649967328	-1.5712984604	 0.123024
H	-3.9030871952	-1.37836551	-2.122327864	 0.089844
H	-3.1088239993	-3.4216523135	-0.6290094048	 0.090283
H	-0.9094407671	-2.5349385368	 0.7338955149	 0.106289
H	-2.4566704915	-2.0443656458	 1.4224301322	 0.102623
101.1462	150.5914	219.6568	248.1694	325.7387	365.3889	408.4509	459.8072	667.9906	746.5171	803.1703	825.5075	861.2285	886.2686	914.8818	953.8503	960.1572	1019.8148	1032.8933	1070.6503	1082.3529	1108.6323	1129.6154	1190.3765	1196.2028	1225.9102	1260.9105	1275.6946	1289.1035	1314.8043	1327.2902	1348.1513	1373.7031	1435.7999	1454.5301	1478.5923	1491.2133	1528.1016	2962.6185	3034.0126	3038.0749	3043.2357	3066.7534	3076.4575	3100.3873	3136.1248	3149.2101	3837.0847
OCC1CC2OC2C1	OC[C@H]1C[C@H]2O[C@H]2C1	
InChI=1S/C6H10O2/c7-3-4-1-5-6(2-4)8-5/h4-7H,1-3H2	InChI=1S/C6H10O2/c7-3-4-1-5-6(2-4)8-5/h4-7H,1-3H2/t4-,5+,6-
