19
gdb 109240	2.58928	1.3865	1.01976	0.9962	76.48	-0.2366	0.0091	0.2457	1199.1761	0.15824	-423.017097	-423.008312	-423.007368	-423.050404	33.331	
C	-0.101745181	 1.5356144542	 0.0585993359	-0.499939
C	 0.1228044219	 0.0517282764	-0.0321325662	 0.312141
O	-0.7551094912	-0.7764080957	 0.7760265144	-0.300186
C	 0.6515886881	-0.8080221868	 1.042708251	-0.017418
C	 1.3865520772	-1.9829401185	 0.4113525406	-0.294001
C	 1.1676802915	-1.7583238728	-1.0704236012	-0.184057
C	 0.4909665376	-0.6336724257	-1.3248417638	 0.2399
C	 0.0765260971	-0.1107133206	-2.6688457946	-0.174153
O	 0.3650537085	-0.9906827073	-3.7389540023	-0.406812
H	 0.77380094	 2.0864401578	-0.3015391652	 0.12601
H	-0.9633116994	 1.842215126	-0.5446806806	 0.129225
H	-0.2966675049	 1.8257969196	 1.0936882638	 0.133278
H	 0.946808994	-0.4232948716	 2.0160649493	 0.090956
H	 2.4516476285	-1.9716239396	 0.6772629518	 0.111793
H	 0.9836459054	-2.9445874469	 0.7524014906	 0.12259
H	 1.50588514	-2.4578044948	-1.8256916101	 0.098816
H	-0.9948161477	 0.1546433931	-2.6441204017	 0.102811
H	 0.6115911933	 0.8204761343	-2.8976861881	 0.124211
H	-0.1180728789	-1.807568461	-3.5743960535	 0.284836
87.3853	152.9401	175.593	195.2669	259.6245	284.7561	313.8714	349.8207	445.8278	459.9202	561.329	603.1834	722.4361	737.7983	813.7032	825.4809	863.2016	924.4518	955.6503	990.928	997.8638	1032.6447	1058.2361	1070.0431	1110.7409	1141.1884	1184.0843	1212.2521	1230.8058	1293.3253	1309.0814	1324.0639	1389.6811	1408.7633	1421.3127	1439.5118	1461.4699	1484.8163	1488.8799	1495.7134	1701.8633	2953.3234	3024.2569	3033.0989	3036.0142	3058.636	3095.5626	3124.9937	3140.0237	3204.8078	3809.1285
CC12OC1CC=C2CO	C[C@]12O[C@H]1CC=C2CO	
InChI=1S/C7H10O2/c1-7-5(4-8)2-3-6(7)9-7/h2,6,8H,3-4H2,1H3	InChI=1S/C7H10O2/c1-7-5(4-8)2-3-6(7)9-7/h2,6,8H,3-4H2,1H3/t6-,7+/m0/s1
