19
gdb 14384	3.58641	2.21375	1.90575	1.571	73.87	-0.2331	0.0908	0.3239	805.1409	0.165864	-327.866526	-327.85937	-327.858426	-327.897183	29.091	
C	-0.0182915896	 1.5492445052	-0.027255665	-0.453442
C	 0.0293187583	 0.0268259368	-0.0769343365	 0.35758
C	-1.3494913641	-0.5621751194	 0.2108691659	-0.429095
C	 0.7401535695	-0.7043198088	-1.2508790375	-0.108607
C	 2.1547693974	-0.07336783	-1.2980713893	-0.262834
C	 2.3302146671	-0.6503834195	 0.107473591	-0.043821
C	 1.2861732006	-1.6732431013	-0.1306246287	-0.050354
N	 1.026976054	-0.6068649048	 0.8694702262	-0.165696
H	 0.9712334076	 2.0028604315	-0.108589579	 0.119485
H	-0.6451639523	 1.9445147636	-0.8345301606	 0.112854
H	-0.4518963896	 1.8753755186	 0.9240642264	 0.122582
H	-2.0832962932	-0.1897815343	-0.511942919	 0.109274
H	-1.3384035773	-1.6544112365	 0.1528578033	 0.114873
H	-1.6839207939	-0.2801591478	 1.2140483969	 0.122002
H	 0.2116360445	-0.9681666339	-2.1663359879	 0.06601
H	 2.7997936227	-0.6082135673	-2.0006869072	 0.104396
H	 2.2459889486	 1.0027553359	-1.470028591	 0.095058
H	 3.2266289752	-0.7139902526	 0.7101370278	 0.095808
H	 1.2267538046	-2.7354483953	 0.065329084	 0.093926
166.1099	216.5075	238.9905	278.3637	356.0351	381.9618	480.2667	541.5599	621.5016	740.1724	773.6413	787.1988	841.1121	868.1775	918.1132	920.6561	945.2971	968.5121	979.7498	995.6381	1009.0862	1017.1827	1066.4016	1111.958	1142.6811	1158.2033	1192.5267	1197.0021	1233.9564	1250.9459	1267.6576	1305.9507	1334.1501	1401.4439	1417.6162	1475.8679	1482.8271	1496.6158	1501.3393	1522.1885	3033.0299	3038.5761	3054.1548	3097.0555	3102.3472	3104.7138	3111.9691	3120.4358	3131.2309	3196.4347	3210.7626
CC1(C)C2CC3C2N13	CC1(C)[C@H]2C[C@@H]3[C@H]2N13	
InChI=1S/C7H11N/c1-7(2)4-3-5-6(4)8(5)7/h4-6H,3H2,1-2H3	InChI=1S/C7H11N/c1-7(2)4-3-5-6(4)8(5)7/h4-6H,3H2,1-2H3/t4-,5+,6-,8?/m0/s1
