18
gdb 79415	3.1014	1.52705	1.23825	3.3092	79.54	-0.2373	0.0176	0.2549	1051.2728	0.148265	-401.850364	-401.842726	-401.841781	-401.882498	29.525	
C	-0.0010412461	 1.4965927796	 0.3587013386	-0.343432
N	-0.0531143061	 0.1568104288	-0.1714400254	-0.103885
C	-1.1262275869	-0.8467867019	-0.210999154	 0.019058
C	-1.8467965607	-1.5950423512	-1.4026721592	-0.101967
C	-0.5643220168	-1.4524314338	-2.2295544955	-0.21801
C	-0.0821989201	-1.8163723514	-0.774888788	 0.085563
C	-1.2010936436	-2.9179709798	-0.7786127336	-0.310219
C	 0.9842565361	-0.7917659909	-0.2463416658	 0.333714
O	 2.1617569863	-0.6973378736	-0.0617650776	-0.357669
H	 1.0516323677	 1.7642166137	 0.4840811421	 0.156806
H	-0.4703367012	 2.2164328812	-0.3206615694	 0.129054
H	-0.4973759228	 1.5641312812	 1.3361544426	 0.123309
H	-1.536382861	-1.0509956477	 0.7835158435	 0.082464
H	-2.8798415014	-1.4946327299	-1.7457929114	 0.077296
H	-0.3871467877	-2.2158963857	-2.9895092349	 0.09893
H	-0.3068104946	-0.4548979844	-2.5853405146	 0.107244
H	-1.5694196091	-3.2408097557	 0.1970099838	 0.110422
H	-1.085569322	-3.7564840586	-1.4688877412	 0.111319
111.2549	151.1689	164.6739	239.0952	292.7514	374.7257	499.9207	528.364	583.3242	712.6717	744.8015	771.1721	822.3964	841.6547	863.0903	923.7982	939.7091	966.2473	1011.675	1022.1602	1032.7811	1081.9504	1093.8358	1135.3485	1148.6443	1161.4741	1177.6959	1189.7767	1209.8199	1229.6966	1250.3973	1337.6005	1382.5449	1445.3298	1482.9055	1492.6449	1513.6183	1527.0126	1877.8844	3009.3228	3042.9406	3063.0279	3069.1723	3070.269	3082.4435	3121.3979	3139.6304	3147.1847
CN1C2C3CC2(C3)C1=O	CN1[C@H]2[C@H]3C[C@@]2(C3)C1=O	
InChI=1S/C7H9NO/c1-8-5-4-2-7(5,3-4)6(8)9/h4-5H,2-3H2,1H3	InChI=1S/C7H9NO/c1-8-5-4-2-7(5,3-4)6(8)9/h4-5H,2-3H2,1H3/t4-,5-,7-/m0/s1
