18
gdb 46844	2.7707	1.80492	1.46355	3.7874	75.63	-0.2267	-0.0001	0.2266	943.2201	0.152093	-402.00001	-401.99314	-401.992195	-402.031094	28.092	
O	-0.0052983605	-0.0710990871	-0.0029939466	-0.382375
C	-0.0055028502	 1.1443183002	-0.0030756662	 0.392328
N	-1.1658557735	 1.8762467561	 0.0303105181	-0.296775
C	-1.3073886151	 3.3312332491	-0.0042356414	-0.157402
C	 0.0708717109	 4.0231909885	 0.0485546921	-0.05955
C	 1.0234796871	 3.2454772052	-0.884994117	-0.236839
C	 1.2711492183	 1.9995083387	-0.0093607025	-0.146873
C	 1.4035281673	 2.6345432918	 1.3724872301	-0.078575
C	 0.7279621374	 3.7828937405	 1.4019509169	-0.071809
H	-2.0048788746	 1.3160324463	 0.0693356078	 0.243909
H	-1.8263246231	 3.6310649001	-0.9259181642	 0.107546
H	-1.9292742881	 3.6583988998	 0.8401883197	 0.107742
H	-0.0512950926	 5.0780230525	-0.2100812082	 0.073236
H	 0.5842843076	 3.0134287002	-1.8603117789	 0.103556
H	 1.9555362386	 3.7965284417	-1.0376044041	 0.104891
H	 2.1044147002	 1.3651510424	-0.3106598833	 0.088454
H	 1.9060750111	 2.1505305622	 2.2005306393	 0.109724
H	 0.5760326691	 4.4221186318	 2.2634626085	 0.098812
117.0376	199.7623	308.3646	382.8965	405.9256	438.5826	558.5214	574.8614	617.2991	722.0129	748.193	761.0787	818.6284	852.5275	880.4187	909.4322	938.3505	964.9154	970.7368	1008.5007	1027.2321	1067.0426	1117.3689	1130.4338	1141.8384	1209.3698	1242.7296	1275.4636	1296.1719	1305.4899	1312.3849	1330.5543	1371.706	1393.8591	1477.8287	1495.5808	1524.1808	1665.4231	1795.9997	2993.6509	3026.2718	3051.9068	3078.7139	3102.965	3120.1204	3196.5092	3223.4643	3608.7934
O=C1NCC2CC1C=C2	O=C1NC[C@@H]2C[C@H]1C=C2	
InChI=1S/C7H9NO/c9-7-6-2-1-5(3-6)4-8-7/h1-2,5-6H,3-4H2,(H,8,9)	InChI=1S/C7H9NO/c9-7-6-2-1-5(3-6)4-8-7/h1-2,5-6H,3-4H2,(H,8,9)/t5-,6+/m0/s1
