20
gdb 92137	2.92919	1.72275	1.52891	0.8674	77.65	-0.1855	0.0823	0.2679	970.2255	0.17416	-403.130476	-403.123356	-403.122412	-403.161822	29.298	
C	 0.1709394742	 1.4890136255	 0.0095411022	-0.326319
N	 0.0534455955	 0.043719877	 0.0005942085	-0.070147
C	 0.4711045453	-0.5608609443	-1.2707103234	-0.14529
C	 1.0531847362	-1.9510676852	-1.005391162	 0.034718
C	 0.1309356063	-2.7584727598	-0.0675883465	-0.228156
C	 0.4693926078	-2.117784076	 1.2689083322	-0.147881
C	 1.8379109659	-1.498693076	 1.0547888263	 0.072789
O	 2.2668265838	-1.772639685	-0.2595289303	-0.26316
C	 0.6146213531	-0.6118965352	 1.1608392545	-0.007272
H	 1.2097696385	 1.8524109519	-0.1008321189	 0.098567
H	-0.4172914772	 1.906662411	-0.8149633229	 0.117407
H	-0.2348589677	 1.8907316982	 0.9437730931	 0.115832
H	-0.3835757336	-0.6156979753	-1.9610019924	 0.092542
H	 1.2569904026	 0.0344914643	-1.7638844427	 0.091214
H	 1.3063007885	-2.4570839371	-1.9385545376	 0.082735
H	-0.9203852325	-2.6513806296	-0.3492231518	 0.110408
H	 0.3924708411	-3.8209996849	-0.0697030624	 0.104623
H	 0.1703854494	-2.5878095233	 2.1981579598	 0.084141
H	 2.6485730539	-1.5065486795	 1.773743253	 0.095625
H	 0.4892185189	-0.0367918568	 2.0723601314	 0.087625
92.7243	220.4594	305.6776	329.088	357.6809	403.6499	524.387	562.2244	634.3534	703.7439	735.1595	758.9366	826.3408	847.766	898.3465	910.3044	947.1804	983.2518	1018.7431	1038.0397	1050.6822	1073.1863	1087.9939	1098.6855	1107.3697	1145.9778	1155.6265	1181.8085	1197.4203	1236.4791	1259.2235	1282.7193	1308.1509	1327.0459	1351.1768	1369.833	1397.8833	1432.6473	1466.4833	1484.4547	1488.5187	1506.0162	1518.2043	2930.738	2962.8776	3001.7852	3051.8355	3053.014	3094.9132	3100.1397	3104.0286	3160.9031	3175.2365	3186.2455
CN1CC2CC3C(O2)C13	CN1C[C@@H]2C[C@H]3[C@@H](O2)[C@@H]13	
InChI=1S/C7H11NO/c1-8-3-4-2-5-6(8)7(5)9-4/h4-7H,2-3H2,1H3	InChI=1S/C7H11NO/c1-8-3-4-2-5-6(8)7(5)9-4/h4-7H,2-3H2,1H3/t4-,5+,6-,7+/m0/s1
