17
gdb 34114	3.59539	1.46542	1.3884	1.7866	78.31	-0.2456	0.02	0.2656	980.6899	0.136816	-384.612713	-384.605896	-384.604952	-384.643655	28.488	
C	-0.0244735451	-1.1549369579	 0.1031825846	-0.303698
C	-0.0082179616	 0.046390818	 0.064443851	 0.032916
C	 0.0262752214	 1.479334584	-0.0094017565	 0.358694
C	-0.8545366938	 2.2429088684	-1.0311085517	-0.252541
C	-0.1199787301	 3.5792732632	-0.8176458288	-0.102562
C	 1.3013390331	 3.2410696219	-1.341974915	-0.256642
C	 1.374100959	 2.3298503166	-0.108808733	-0.117156
C	 0.4257052393	 3.2662575677	 0.66137227	 0.105803
O	-0.3301367839	 2.1931689783	 1.2264395673	-0.327046
H	-0.0427939327	-2.2159990275	 0.1449540587	 0.18504
H	-0.7779422581	 1.8714571826	-2.0556365406	 0.106557
H	-1.895001948	 2.2289566235	-0.7032501529	 0.114772
H	-0.6314898832	 4.5038136355	-1.0774766085	 0.072689
H	 1.3860522108	 2.8072718275	-2.3422937639	 0.10156
H	 2.0013773413	 4.0757090746	-1.2418705918	 0.105318
H	 2.2750715075	 1.8847085848	 0.3075267531	 0.087187
H	 0.696618654	 4.0683411988	 1.344633368	 0.08911
142.2085	154.0885	356.9813	448.348	472.0814	509.6015	538.3	566.9337	620.2017	679.9856	685.9712	726.0914	787.8424	834.5537	854.8475	869.2782	914.4397	953.2517	967.3149	996.1256	1001.6093	1024.6067	1057.1998	1083.9057	1112.0998	1148.2357	1176.8798	1200.7173	1218.2978	1252.5997	1263.4034	1279.9999	1300.4278	1335.4878	1477.5168	1502.0739	2241.9496	3052.2625	3073.5688	3106.1201	3132.7908	3137.817	3142.7269	3152.7017	3501.764
C#CC12CC3CC1C3O2	C#C[C@]12C[C@@H]3C[C@H]1[C@@H]3O2	
InChI=1S/C8H8O/c1-2-8-4-5-3-6(8)7(5)9-8/h1,5-7H,3-4H2	InChI=1S/C8H8O/c1-2-8-4-5-3-6(8)7(5)9-8/h1,5-7H,3-4H2/t5-,6-,7+,8-/m0/s1
