15
gdb 124367	5.11829	0.99478	0.8373	3.4291	69.64	-0.2343	-0.0087	0.2256	1303.1014	0.114278	-450.167438	-450.159121	-450.158176	-450.202078	29.082	
C	-0.1719943332	 1.5293375539	 0.0170421919	-0.500631
C	 0.1187570308	 0.0386477178	 0.0069882265	 0.399553
O	 1.2400314294	-0.4245562871	 0.0593283504	-0.344998
N	-1.0080720238	-0.7524887614	-0.0449012027	-0.429313
C	-1.0109091936	-2.1412528227	-0.0246009669	 0.410219
N	-2.1709803239	-2.7976375623	-0.0684573924	-0.313676
N	-1.783537285	-4.0716685021	-0.0326328087	-0.072751
N	-0.4832474748	-4.2948965981	 0.0298955579	-0.188784
C	 0.0475446366	-3.0708857324	 0.0368262504	-0.118246
H	 0.7457804287	 2.0633987646	-0.2268319529	 0.157963
H	-0.9561901323	 1.8015744289	-0.6958309355	 0.132915
H	-0.5012166971	 1.8387151877	 1.0150883695	 0.151824
H	-1.9172355804	-0.3186656062	-0.0888423552	 0.263241
H	-2.4524348027	-4.8232079278	-0.0526885997	 0.294563
H	 1.1061419113	-2.8960584228	 0.0822298974	 0.158123
26.9109	78.2211	95.8917	164.0378	349.4186	357.7188	369.2004	468.1693	525.9346	590.5629	619.0153	712.499	735.1162	787.0093	884.6324	965.7419	988.241	1002.9343	1040.0571	1050.4632	1160.6349	1209.0975	1232.9998	1267.1466	1348.265	1388.9687	1413.3902	1467.8947	1484.5355	1504.8915	1522.1393	1605.8948	1792.8867	3043.8765	3107.5593	3162.8581	3325.4443	3632.3031	3679.8496
CC(=O)NC1=NNN=C1	CC(=O)Nc1n[nH]nc1	
InChI=1S/C4H6N4O/c1-3(9)6-4-2-5-8-7-4/h2H,1H3,(H2,5,6,7,8,9)	InChI=1S/C4H6N4O/c1-3(9)6-4-2-5-8-7-4/h2H,1H3,(H2,5,6,7,8,9)
