21
gdb 69312	2.90047	1.32813	1.26716	1.2456	83.92	-0.2277	0.0147	0.2424	1141.0024	0.181219	-387.093192	-387.084119	-387.083175	-387.126048	36.101	
C	-0.0429642247	 1.5490431362	 0.0344607473	-0.487035
C	 0.0312586801	 0.0412378913	-0.0030525493	 0.313774
C	-0.8188299188	-0.807296417	 0.9265482027	-0.324794
C	 0.682048546	-0.8020670682	 1.0768661292	-0.092058
C	 1.4706263041	-1.931589138	 0.4093580446	 0.341212
C	 2.9723164511	-1.8246423031	 0.6964965793	-0.441145
O	 0.9718615714	-3.1866018681	 0.8958976645	-0.467203
C	 1.1442614672	-1.7327212256	-1.0677915364	-0.139692
C	 0.38309027	-0.660260702	-1.2797532321	-0.148299
H	 0.8960212566	 2.0054454039	-0.2991028325	 0.116909
H	-0.8430489256	 1.9225776504	-0.6157899667	 0.117004
H	-0.2491079328	 1.90751328	 1.0477372943	 0.116252
H	-1.3841533987	-0.287937825	 1.6947162665	 0.102738
H	-1.2912165201	-1.7001881324	 0.534349327	 0.122499
H	 1.1081931119	-0.3388487018	 1.9600313062	 0.076617
H	 3.1603611558	-1.9725457774	 1.7648400803	 0.121645
H	 3.5320112376	-2.586515271	 0.140540373	 0.100218
H	 3.3596067847	-0.8451013701	 0.4005400248	 0.12147
H	 1.4686606976	-3.8869312123	 0.4589513827	 0.272583
H	 1.4785890364	-2.4367570436	-1.8236515978	 0.084674
H	 0.0126636402	-0.3272348461	-2.2443765376	 0.092631
111.899	187.754	208.4339	251.1741	258.1872	275.3946	313.2801	338.154	384.532	408.7029	490.9919	555.3517	604.0827	645.4883	757.5058	781.4035	794.6543	852.1801	922.9711	928.8456	939.9314	957.5034	973.6714	984.5211	1051.0152	1060.466	1074.931	1094.94	1117.1049	1135.2654	1156.7279	1191.0995	1274.3165	1286.5821	1348.5427	1360.5834	1396.013	1411.7111	1423.6225	1483.8076	1487.8235	1489.2037	1491.022	1501.3821	1676.6237	3022.2758	3023.8664	3080.3227	3092.1666	3099.9751	3113.2232	3126.4875	3165.616	3166.4944	3191.7758	3222.0406	3802.2414
CC12CC1C(C)(O)C=C2	C[C@]12C[C@H]1[C@@](C)(O)C=C2	
InChI=1S/C8H12O/c1-7-3-4-8(2,9)6(7)5-7/h3-4,6,9H,5H2,1-2H3	InChI=1S/C8H12O/c1-7-3-4-8(2,9)6(7)5-7/h3-4,6,9H,5H2,1-2H3/t6-,7+,8+/m1/s1
