21
gdb 110543	3.36737	1.29392	1.25389	1.4919	79.99	-0.2275	0.09	0.3175	1127.182	0.185265	-387.093328	-387.085822	-387.084878	-387.125351	30.584	
C	 1.0090314062	-0.0777002382	 1.2753923398	-0.381846
C	 0.0641923558	 0.0586896474	 0.0758221673	-0.201949
C	 0.6534001898	-0.5142396878	-1.2155770546	 0.039619
C	 0.7250070162	-2.0380810712	-1.3257276701	-0.119181
C	-0.5698524829	-2.5081194672	-2.0032919783	-0.112487
C	-1.3991895873	-1.2644174764	-2.3010385981	-0.232141
C	-0.1845958831	-0.3339335639	-2.5098340997	 0.021484
O	 0.5930867028	-1.0542807161	-3.4837889413	-0.261456
C	 0.6899238387	-2.2983983419	-2.811187048	 0.08243
H	 1.2340571318	-1.1279676081	 1.4882439194	 0.117645
H	 1.9601239099	 0.4335625109	 1.0900908155	 0.115678
H	 0.5674897935	 0.3563373814	 2.1777855409	 0.111654
H	-0.8849608993	-0.4362483007	 0.3093176155	 0.099239
H	-0.1690452509	 1.1207187103	-0.0792069971	 0.092924
H	 1.6449671006	-0.0756890513	-1.3861307216	 0.073577
H	 1.2800756928	-2.6630979077	-0.6394873153	 0.0857
H	-0.9969449606	-3.4862056851	-1.8292609818	 0.085773
H	-1.9891407715	-1.3611565502	-3.2168697807	 0.10476
H	-2.0519794225	-0.9520068789	-1.4833016039	 0.102653
H	-0.3651039554	 0.6808747928	-2.8592754574	 0.075998
H	 1.2439076955	-3.059046038	-3.3422321903	 0.099925
84.3285	174.5066	187.8111	264.394	355.3305	457.4249	509.5338	575.206	659.9345	706.7116	781.7716	800.7454	812.9085	818.0828	883.3273	905.5337	926.3337	953.7813	962.958	975.5709	999.5676	1014.5151	1038.7899	1047.3927	1057.2375	1083.2015	1090.2978	1119.5356	1145.196	1159.3449	1209.0632	1243.353	1260.629	1275.2887	1291.3547	1309.7245	1339.0735	1352.2536	1384.9186	1394.6852	1412.1816	1484.1702	1490.8265	1500.2661	1506.3343	3016.9993	3026.8384	3032.6754	3062.2856	3068.6293	3101.0114	3104.0249	3119.6159	3144.1196	3203.7644	3209.973	3226.723
CCC1C2C3CC1OC23	CC[C@H]1[C@H]2[C@H]3C[C@@H]1O[C@@H]23	
InChI=1S/C8H12O/c1-2-4-6-3-5-7(4)8(5)9-6/h4-8H,2-3H2,1H3	InChI=1S/C8H12O/c1-2-4-6-3-5-7(4)8(5)9-6/h4-8H,2-3H2,1H3/t4-,5-,6+,7+,8-/m1/s1
