20
gdb 19718	3.22037	2.34841	2.33503	0.1709	76.14	-0.2535	0.0856	0.3391	761.8176	0.182205	-311.867506	-311.861703	-311.860759	-311.896837	25.989	
C	-0.0110531703	 1.5160102524	 0.1676141445	-0.304209
C	 1.3075522668	 0.8022507975	-0.0012151678	-0.024833
C	 0.006434969	 0.0157208555	 0.0079410486	-0.02483
C	-0.0392841194	-0.6387512738	-1.3921801792	-0.014314
C	-0.2778756068	 0.4125021831	-2.5020876413	-0.216981
C	 1.0625214049	 1.2227311079	-2.5115385308	-0.216979
C	 1.8938488492	 0.5298041373	-1.4057808132	-0.014315
C	 1.4661033242	-0.9482554031	-1.6063446393	-0.201496
H	-0.2283404212	 1.8870581622	 1.1650464116	 0.102428
H	-0.402141701	 2.1538459365	-0.6154189336	 0.110345
H	 1.9914357468	 0.7779523593	 0.8405194809	 0.076675
H	-0.2811696604	-0.5958480187	 0.8565113452	 0.076674
H	-0.720429406	-1.4901555889	-1.4429061943	 0.052892
H	-0.441506629	-0.0870448328	-3.4616814311	 0.091378
H	-1.1551934093	 1.0354624836	-2.3103552795	 0.097927
H	 1.5709640084	 1.1294076152	-3.4758618367	 0.09138
H	 0.9206600862	 2.290255981	-2.3250131048	 0.097925
H	 2.96369894	 0.7368501474	-1.4688235311	 0.052892
H	 1.8751439469	-1.6160373625	-0.8425715905	 0.087216
H	 1.701361631	-1.3490052492	-2.5996701274	 0.080224
294.9848	343.3863	364.1515	452.9335	530.2236	591.2731	731.2965	745.7478	755.1198	795.8719	820.7962	869.0905	882.5639	907.6606	911.0754	938.2267	941.2989	975.623	985.5568	1020.6512	1034.7479	1078.0855	1092.4246	1098.16	1109.0976	1143.8832	1144.2577	1174.9051	1205.2179	1226.4339	1253.8691	1277.4597	1296.4751	1303.4208	1322.7389	1346.0727	1350.795	1375.8487	1485.3981	1496.5969	1498.7543	1524.863	3034.477	3048.6387	3059.2666	3087.4625	3092.8307	3093.088	3098.3828	3106.2296	3130.4509	3154.6099	3164.2992	3212.1034
C1C2C1C1CCC2C1	C1[C@H]2[C@@H]1[C@H]1CC[C@@H]2C1	
InChI=1S/C8H12/c1-2-6-3-5(1)7-4-8(6)7/h5-8H,1-4H2	InChI=1S/C8H12/c1-2-6-3-5(1)7-4-8(6)7/h5-8H,1-4H2/t5-,6+,7-,8+
