20
gdb 54829	2.66833	1.36772	1.10861	2.1326	81.27	-0.2346	-0.0227	0.2119	1192.4398	0.169316	-403.128354	-403.119124	-403.11818	-403.162602	34.411	
C	 0.1281671778	 1.3394597946	-0.8533675862	-0.482655
C	 0.0228198714	 0.2901745926	 0.2415146809	 0.384701
O	 0.9371305456	 0.0939900884	 1.0164889457	-0.326746
C	-1.2828609348	-0.4454154705	 0.2710940199	-0.146857
N	-1.4950028936	-1.887272967	 0.6121087441	-0.192533
C	-0.5490242548	-2.2667379904	 1.7292340543	-0.14282
C	-1.1361844182	-1.1907753853	 2.6716379705	-0.300312
C	-2.053205082	-0.8101257503	 1.5033819731	 0.323867
C	-3.5211564124	-0.5185462769	 1.6275909157	-0.485404
H	 1.0708214015	 1.8786623483	-0.756174722	 0.141141
H	 0.0776464814	 0.8604088186	-1.8382780257	 0.146213
H	-0.711423046	 2.0418775876	-0.798944925	 0.138596
H	-1.9236513068	-0.189734887	-0.5693758271	 0.091458
H	-0.7834198966	-3.2902064598	 2.0288934236	 0.107073
H	 0.5069520756	-2.1841266095	 1.4789093638	 0.134396
H	-1.6970252801	-1.6073251872	 3.5114013516	 0.103487
H	-0.4531223665	-0.4217016897	 3.0327742942	 0.125688
H	-3.6846509524	 0.4721743669	 2.0673552062	 0.125214
H	-4.0118089687	-0.5453916629	 0.6505424587	 0.129049
H	-4.0087995406	-1.2567372106	 2.2734963237	 0.126443
41.4771	143.2121	159.9766	184.5756	199.3889	264.9528	313.07	344.0175	395.1511	414.0326	590.0404	618.0955	623.5595	756.9244	767.1803	789.3172	849.9528	921.1966	939.0551	958.3417	977.4286	1002.0929	1040.5983	1053.6815	1103.3764	1121.7436	1170.1195	1204.6879	1219.8515	1239.8925	1275.5508	1316.3438	1330.9628	1377.0046	1409.194	1437.9063	1463.971	1473.8273	1474.8586	1482.6665	1491.3376	1496.6797	1785.0148	3028.7271	3032.9077	3074.015	3082.7409	3091.4518	3093.0187	3112.8118	3133.7389	3137.5062	3154.3754	3157.3959
CC(=O)C1N2CCC12C	CC(=O)[C@H]1N2CC[C@@]12C	
InChI=1S/C7H11NO/c1-5(9)6-7(2)3-4-8(6)7/h6H,3-4H2,1-2H3	InChI=1S/C7H11NO/c1-5(9)6-7(2)3-4-8(6)7/h6H,3-4H2,1-2H3/t6-,7+,8?/m1/s1
