23
gdb 83241	2.67166	1.28887	1.12624	0.2911	92.31	-0.2174	0.0287	0.2461	1246.8264	0.207151	-351.17028	-351.161323	-351.160379	-351.203535	35.266	
C	-0.2022125378	 1.5367455393	 0.066983888	-0.407569
C	-0.0164858868	 0.0381505514	-0.0004330742	-0.013951
C	 0.6781980652	-0.6617428055	-1.1543750364	-0.054079
C	 1.3530717677	 0.1195446504	-2.2796583076	-0.232067
C	 2.8858885443	 0.1681237387	-2.1296493997	-0.28846
C	 3.3277149384	 0.5193991194	-0.7216914187	 0.327192
C	 4.629941734	 1.257022236	-0.5837110217	-0.47984
C	 2.5916022168	 0.1509958178	 0.3326381433	-0.166203
C	 1.3359570067	-0.6296121149	 0.2076106909	-0.088585
H	 0.7079405324	 2.0742383919	-0.2104735422	 0.121399
H	-1.009116036	 1.8698455969	-0.5962218938	 0.111454
H	-0.4638054705	 1.8450101365	 1.0853141947	 0.112068
H	-0.8530077604	-0.5191800453	 0.4150035761	 0.077097
H	 0.2432291558	-1.6102509076	-1.4538580342	 0.075869
H	 1.0915796301	-0.3266905145	-3.244887241	 0.092887
H	 0.975196502	 1.1472384715	-2.3117427501	 0.102507
H	 3.3211429067	-0.803433983	-2.4075366587	 0.106862
H	 3.3032621366	 0.8913561411	-2.841066051	 0.092635
H	 4.5934485459	 2.2309174903	-1.0896008831	 0.119644
H	 4.8922289716	 1.4257354254	 0.4645403334	 0.117057
H	 5.4500947747	 0.6980074041	-1.0539666471	 0.121022
H	 2.9289895757	 0.402081111	 1.3371145346	 0.071907
H	 1.3144591067	-1.546567161	 0.7928346083	 0.081155
102.3646	117.7748	179.8166	203.6239	247.9838	296.46	329.0606	394.1692	459.221	480.818	513.5102	560.4706	706.0724	758.2423	762.3959	776.6032	859.5357	882.0039	914.5006	954.0022	976.2129	979.0202	1027.5834	1042.0507	1065.3266	1082.577	1102.093	1120.7446	1140.7941	1148.8809	1182.4451	1222.5717	1245.1937	1262.232	1329.0173	1344.3102	1371.7068	1381.8396	1397.0976	1412.4468	1418.034	1435.2863	1475.962	1481.3669	1488.9016	1491.1112	1498.2734	1506.9637	1727.0075	2997.0694	3009.8574	3028.1524	3034.7163	3047.975	3053.6784	3073.611	3083.0891	3105.8423	3110.3039	3116.1205	3129.5838	3133.9146	3149.3883
CC1C2CCC(C)=CC12	C[C@H]1[C@H]2CCC(=C[C@@H]12)C	
InChI=1S/C9H14/c1-6-3-4-8-7(2)9(8)5-6/h5,7-9H,3-4H2,1-2H3	InChI=1S/C9H14/c1-6-3-4-8-7(2)9(8)5-6/h5,7-9H,3-4H2,1-2H3/t7-,8+,9-/m0/s1
