16
gdb 46273	3.12076	1.56463	1.26734	3.9199	69.18	-0.2389	0.0134	0.2524	996.1315	0.12445	-437.853141	-437.845637	-437.844693	-437.885295	28.575	
O	-0.0231629142	-0.0145367225	-0.0107682139	-0.362864
C	-0.0004579845	 1.1859757865	 0.0184573636	 0.392451
N	-0.9759972353	 2.1519155063	 0.0850084307	-0.341146
C	-0.0734681906	 3.3082805187	 0.1040314177	-0.232217
C	 1.0975929916	 2.2916532852	-0.0301926612	 0.290496
O	 2.1112212459	 2.3073483404	 0.9872621982	-0.32043
C	 3.1340373199	 2.4445312676	-0.0136112565	 0.094867
C	 3.1417045873	 1.2581859424	-0.9200226651	-0.298813
C	 2.1344474132	 2.3740509149	-1.1412780579	-0.204516
H	-1.9824310408	 2.0857580568	 0.1008645894	 0.254969
H	-0.2006966675	 3.9986177737	-0.7363231434	 0.114003
H	-0.0570269693	 3.8584011034	 1.0491472465	 0.12716
H	 3.9656770681	 3.1035574753	 0.2024486201	 0.110127
H	 3.9446187309	 1.2310712094	-1.6504113173	 0.117563
H	 2.8084042193	 0.2953716376	-0.5467231021	 0.151288
H	 2.043532686	 2.9381763343	-2.0589943888	 0.107062
105.1948	121.4214	176.0596	251.4446	336.3306	440.0996	462.9652	479.3502	641.6362	716.0558	759.2558	779.589	815.7321	874.0667	915.0379	950.8792	972.0601	982.4516	996.7676	1045.7399	1048.6274	1064.819	1087.3724	1131.3757	1156.9237	1162.2971	1178.7424	1242.4627	1286.2947	1314.0095	1349.9838	1387.1912	1470.8485	1518.8708	1893.8212	3041.3351	3097.2633	3127.4285	3191.6826	3209.767	3223.4866	3620.3283
O=C1NCC11OC2CC12	O=C1NC[C@]21O[C@H]1C[C@@H]21	
InChI=1S/C6H7NO2/c8-5-6(2-7-5)3-1-4(3)9-6/h3-4H,1-2H2,(H,7,8)	InChI=1S/C6H7NO2/c8-5-6(2-7-5)3-1-4(3)9-6/h3-4H,1-2H2,(H,7,8)/t3-,4+,6+/m1/s1
