21
gdb 60200	3.42919	0.75177	0.67709	2.7841	81.12	-0.2591	-0.0403	0.2189	1714.3494	0.17921	-424.220847	-424.210559	-424.209615	-424.257452	36.674	
C	-0.1401357774	 1.4063931506	 0.3072023589	-0.390253
C	 0.0722110915	-0.0816424081	-0.0053320475	 0.04927
C	-1.2235261168	-0.8718051756	 0.2180402792	-0.393778
C	 0.5955818328	-0.3158448385	-1.4391883322	-0.230753
C	 1.9755282447	 0.2525825322	-1.6739295498	 0.068437
O	 3.0852166246	-0.4420652043	-1.1169383298	-0.246057
C	 3.0143533874	-0.3570419241	-2.5452686281	-0.056566
C	 2.7881662823	-1.643370612	-3.2700758708	 0.13917
O	 3.0745721766	-1.8039473883	-4.4293104653	-0.244928
H	 0.782850637	 1.9872503687	 0.2191985777	 0.117042
H	-0.8805439639	 1.8470776431	-0.3715530246	 0.113065
H	-0.5098309674	 1.5375766974	 1.3291083636	 0.117583
H	 0.8330333689	-0.4725121865	 0.683576661	 0.092576
H	-2.0139755861	-0.5305676696	-0.4613804869	 0.113749
H	-1.0749078413	-1.9427960879	 0.0453473844	 0.11381
H	-1.5895291512	-0.7446095552	 1.2418305328	 0.114664
H	 0.6014518758	-1.3907519252	-1.6425253872	 0.102058
H	-0.0957941393	 0.1399774502	-2.1616017689	 0.106744
H	 2.0539962602	 1.3368432823	-1.5757490137	 0.106524
H	 3.7390721431	 0.302465385	-3.0214403377	 0.115372
H	 2.3480517088	-2.4526643642	-2.6492646851	 0.092269
28.9546	75.4328	77.7307	142.8838	220.5786	233.8982	252.3288	294.4686	344.1419	378.9806	411.6367	455.3502	481.7099	537.7225	801.7105	820.0764	861.3079	903.1686	929.8778	947.7825	967.4937	985.3395	1032.0072	1053.1043	1106.7934	1143.5897	1167.6121	1179.4821	1192.8936	1262.8799	1270.4935	1313.1917	1341.4889	1368.8338	1374.0085	1402.2955	1414.1532	1422.785	1463.2201	1475.3475	1487.5471	1495.182	1505.6263	1511.1532	1822.6693	2906.6326	3013.6015	3023.752	3024.9147	3031.9503	3080.0493	3089.8374	3096.5254	3097.3172	3103.2293	3107.5211	3129.6785
CC(C)CC1OC1C=O	CC(C)C[C@H]1O[C@H]1C=O	
InChI=1S/C7H12O2/c1-5(2)3-6-7(4-8)9-6/h4-7H,3H2,1-2H3	InChI=1S/C7H12O2/c1-5(2)3-6-7(4-8)9-6/h4-7H,3H2,1-2H3/t6-,7+/m1/s1
