20
gdb 70276	3.93514	1.09943	0.98898	4.2277	80.67	-0.2381	0.0297	0.2677	1251.9459	0.17216	-403.180818	-403.172347	-403.171403	-403.21401	32.322	
C	-0.3930740999	 1.5352450789	 0.1871305389	-0.486405
C	 0.1148863339	 0.1261504788	 0.0069154779	 0.344201
C	-0.6377299395	-1.0490301039	 0.5826589296	-0.330616
C	 0.7247310159	-0.6939363273	 1.1278473507	-0.085914
C	 1.9006240435	-1.4734170944	 0.5651922902	-0.180995
N	 1.7162032795	-1.3594265714	-0.8820422707	-0.048774
C	 0.9342688632	-0.1807939513	-1.2431232284	-0.240661
C	 2.1254077444	-2.3197010975	-1.7484937525	 0.142097
O	 2.7539695837	-3.313164754	-1.4430820396	-0.341803
H	 0.4238654696	 2.2642390019	 0.1319583505	 0.119294
H	-1.1256506625	 1.7981087064	-0.5851321569	 0.12229
H	-0.8828907496	 1.6547051588	 1.1580083252	 0.121456
H	-1.495997568	-0.8239190443	 1.2064345811	 0.113976
H	-0.7378859157	-1.9551802756	-0.0077644379	 0.119741
H	 0.8071639874	-0.2944679072	 2.1319908739	 0.090134
H	 2.8526958	-1.0258915512	 0.8826818139	 0.111788
H	 1.9229919278	-2.5320480471	 0.8363366456	 0.139806
H	 0.324259073	-0.3866372846	-2.1297601559	 0.11784
H	 1.5817684064	 0.6789326015	-1.4745934074	 0.105083
H	 1.8144646068	-2.0976529767	-2.7894751982	 0.067462
53.3965	180.0276	208.9276	233.6561	251.598	315.3913	333.9676	377.4904	395.4315	494.0344	604.2087	710.966	748.3538	827.5535	872.2616	885.9786	919.2422	936.4081	983.6374	1020.6356	1034.5857	1059.7522	1068.6725	1096.1053	1110.0443	1129.6315	1189.2009	1216.496	1233.0859	1271.3078	1300.0656	1340.4868	1359.8665	1408.1865	1418.4623	1425.6661	1449.2112	1486.8939	1490.9545	1501.3437	1513.6344	1522.502	1790.8042	2925.7196	2982.2881	3010.1302	3024.1657	3058.6532	3081.3337	3096.7847	3105.0365	3123.9413	3179.545	3211.7243
CC12CC1CN(C2)C=O	C[C@]12C[C@H]1CN(C2)C=O	
InChI=1S/C7H11NO/c1-7-2-6(7)3-8(4-7)5-9/h5-6H,2-4H2,1H3	InChI=1S/C7H11NO/c1-7-2-6(7)3-8(4-7)5-9/h5-6H,2-4H2,1H3/t6-,7+/m0/s1
