21
gdb 100195	2.24856	1.2656	1.16155	3.4554	78.68	-0.2519	-0.0283	0.2236	1228.5051	0.179022	-424.213534	-424.203203	-424.202259	-424.249296	37.096	
C	-0.1686442648	 1.4734833562	-0.1331769073	-0.411305
C	-0.009243184	-0.0321250997	 0.1023744037	-0.185825
C	 0.9043192452	-0.4387194698	 1.2803726416	 0.127073
C	 2.3191576494	 0.1697770663	 1.1938746534	-0.445874
C	 0.2999096315	-0.0248900567	 2.6200594515	 0.136621
O	-0.8310101835	 0.3462803399	 2.7922027575	-0.248757
C	 1.0591434663	-1.963680673	 1.2477233197	 0.077623
C	 0.9220274097	-2.8714568703	 2.398437918	-0.198796
O	-0.1085587865	-2.7584233507	 1.4153798552	-0.232764
H	 0.7786183298	 1.9542712694	-0.3974249661	 0.110177
H	-0.8622329327	 1.6489457001	-0.9611423627	 0.117229
H	-0.5749393516	 1.9728345513	 0.7498429825	 0.13738
H	-0.9905314295	-0.4787752839	 0.2848070321	 0.132845
H	 0.386119738	-0.5033062305	-0.8067717353	 0.089667
H	 2.2918755491	 1.2611583354	 1.2436618859	 0.133824
H	 2.9525702639	-0.1887200417	 2.0124607471	 0.122416
H	 2.7985800415	-0.1113296074	 0.2508497096	 0.126426
H	 1.0140577637	-0.0859395496	 3.475224907	 0.07587
H	 1.7015268462	-2.2976529081	 0.4287083213	 0.094498
H	 1.4652270602	-3.8154756099	 2.4017137639	 0.118697
H	 0.6666523182	-2.4868954274	 3.3835758115	 0.122977
44.7052	75.5975	105.5307	170.936	200.2627	229.9875	255.0447	280.4744	307.3025	347.06	361.3914	456.7301	537.5755	564.0458	729.2348	785.0145	831.6892	872.1969	913.8209	947.1318	971.4643	1007.1304	1023.2084	1060.4721	1075.2006	1101.9797	1156.4553	1175.6096	1187.1256	1205.3063	1247.9697	1300.8999	1332.4413	1370.3406	1398.7334	1409.1502	1414.6	1437.5749	1476.7107	1495.5442	1496.9393	1509.1045	1510.8176	1531.9115	1831.5556	2847.045	3025.961	3036.0792	3042.9511	3072.1525	3089.7692	3091.0339	3102.1753	3107.3306	3120.6647	3126.3991	3175.933
CCC(C)(C=O)C1CO1	CC[C@@](C)(C=O)[C@H]1CO1	
InChI=1S/C7H12O2/c1-3-7(2,5-8)6-4-9-6/h5-6H,3-4H2,1-2H3	InChI=1S/C7H12O2/c1-3-7(2,5-8)6-4-9-6/h5-6H,3-4H2,1-2H3/t6-,7+/m1/s1
