16
gdb 44306	3.49254	1.90168	1.45761	3.0645	74.21	-0.2555	0.0225	0.278	881.9849	0.126919	-400.663098	-400.657166	-400.656222	-400.693166	25.162	
N	-0.040127041	 1.2062345353	-0.191669779	-0.569939
C	-0.0444727646	-0.0382575482	-0.0026241416	 0.338917
O	 1.0641393	-0.8765098622	 0.0633319156	-0.28446
C	 0.5085825242	-2.2177295332	 0.2974974924	 0.062675
C	-0.738437551	-2.3173976071	-0.5845751583	-0.063503
C	-1.7532145834	-2.7765118299	 0.5071794775	-0.113102
C	-2.6074607753	-1.4714007584	 0.356343961	-0.344732
C	-1.1459754901	-1.0144888504	 0.2063093836	 0.224059
C	-0.6344508683	-2.0317076207	 1.2984526508	-0.063502
H	 0.9168929878	 1.5490499749	-0.2965243333	 0.225451
H	 1.3355964726	-2.9230736566	 0.3588409477	 0.089779
H	-0.8176901445	-2.4307998908	-1.6655368429	 0.092728
H	-2.1130301967	-3.7900859064	 0.6808274677	 0.08507
H	-3.238645752	-1.3938632753	-0.5327018025	 0.113916
H	-3.1404589602	-1.12411491	 1.2452275431	 0.113917
H	-0.5950237475	-1.8190517208	 2.3665548181	 0.092728
175.987	309.0497	366.3824	448.8579	534.6116	628.5204	680.7785	702.7859	767.455	802.0541	857.5632	870.6655	878.3633	890.2823	901.5841	905.5103	951.3374	976.6048	997.3727	999.436	1053.7168	1103.0921	1130.2637	1141.5513	1141.695	1182.3601	1187.718	1211.8034	1227.2484	1243.2742	1294.0018	1321.3252	1364.5659	1508.8154	1805.2289	3058.2288	3113.8972	3121.5652	3122.6994	3124.6059	3141.6208	3466.4355
N=C1OC2C3C4CC13C24	[NH][C]1O[C@@H]2[C@H]3[C@@H]4C[C@]13[C@H]24	
InChI=1S/C7H7NO/c8-6-7-1-2-3(7)5(9-6)4(2)7/h2-5,8H,1H2	InChI=1S/C7H7NO/c8-6-7-1-2-3(7)5(9-6)4(2)7/h2-5,8H,1H2/t2-,3+,4-,5+,7-
