17
gdb 90235	2.7358	1.73238	1.5449	2.3913	66.88	-0.238	0.031	0.2691	925.6154	0.135059	-458.853666	-458.846067	-458.845123	-458.885612	29.658	
O	 0.234929441	 1.2668492883	-0.4148176475	-0.414006
C	 0.1129033616	-0.0679132533	-0.0065416111	 0.032505
C	 0.2362488722	-0.3382192471	 1.5570655212	-0.345016
C	-1.2703821296	-0.7040689845	 1.5639977284	 0.313106
C	-2.3796510404	 0.3645316769	 1.6672125301	-0.147392
O	-2.4178920047	 0.4786426283	 0.1995434369	-0.32504
C	-1.3833900476	-0.5067420589	 0.0922868935	 0.330295
C	-1.7970886022	-1.9914477595	 0.0407149966	-0.159809
O	-1.667813719	-2.0890487521	 1.5043648601	-0.334643
H	 1.1621800285	 1.5165370549	-0.3436740938	 0.289055
H	 0.7265367483	-0.7442237712	-0.6189393263	 0.073349
H	 0.8872110763	-1.1714553395	 1.8279724438	 0.118414
H	 0.507595476	 0.5488661535	 2.1354084513	 0.108873
H	-3.3315796185	 0.0103853862	 2.0750336488	 0.117993
H	-2.0959373208	 1.3152892866	 2.1317687408	 0.113141
H	-2.8236404202	-2.1714165834	-0.2928809384	 0.121872
H	-1.1093982207	-2.6768659851	-0.4689413944	 0.107303
79.1593	226.4037	247.5211	272.7365	303.3931	345.9192	396.3666	444.2327	555.9658	692.6507	712.8484	740.7052	798.2597	873.8383	887.4687	895.9911	915.9306	925.1064	963.1721	1041.0492	1099.6494	1131.6302	1134.8047	1171.2499	1183.1333	1203.7769	1208.2558	1242.4743	1252.1677	1261.6094	1307.7462	1324.7672	1347.0977	1418.2193	1445.0631	1493.4876	1498.3433	2988.7477	3025.6284	3032.0725	3063.6973	3090.64	3093.8965	3133.5734	3813.6521
OC1CC23COC12CO3	O[C@H]1C[C@@]23CO[C@@]12CO3	
InChI=1S/C6H8O3/c7-4-1-5-2-9-6(4,5)3-8-5/h4,7H,1-3H2	InChI=1S/C6H8O3/c7-4-1-5-2-9-6(4,5)3-8-5/h4,7H,1-3H2/t4-,5+,6-/m0/s1
