20
gdb 86371	2.39487	1.15528	0.85073	2.7491	77.45	-0.2315	-0.0247	0.2069	1366.2499	0.168731	-440.261414	-440.251606	-440.250662	-440.297482	34.976	
C	-0.0150102796	 1.5056871055	 0.0861394006	-0.331267
N	-0.0130958779	 0.0583741934	 0.139446432	-0.094934
C	-1.2863170309	-0.6220062928	 0.4559112031	-0.208325
C	-0.479544432	-1.7006870751	 1.2156561229	 0.115881
O	-0.185488787	-2.8603601781	 0.4765109559	-0.427095
C	 0.6552343643	-0.6277298736	 1.2697177857	-0.000424
C	 2.1014364233	-1.097061288	 1.0740136781	-0.272641
C	 3.0607880085	 0.0579170079	 0.9023477532	 0.145504
O	 3.8050519547	 0.4611412349	 1.7601861835	-0.240916
H	 0.9959637693	 1.8833020904	-0.0970161798	 0.126113
H	-0.6504737606	 1.8415709523	-0.7400013113	 0.125194
H	-0.3896970778	 1.9692130045	 1.0177586479	 0.099267
H	-1.9373787081	-0.0394084184	 1.1282731451	 0.09166
H	-1.8706538566	-0.9534852649	-0.409937313	 0.103239
H	-0.8694916322	-2.0375392703	 2.1762881791	 0.097614
H	 0.0362299932	-2.5874069434	-0.4211585662	 0.289953
H	 0.5828076527	-0.0465602115	 2.2052695437	 0.073297
H	 2.407186225	-1.6745684136	 1.9518280604	 0.126181
H	 2.1497412529	-1.7402678712	 0.1887817872	 0.10191
H	 3.0316570288	 0.5439152417	-0.0995960782	 0.07979
36.9067	47.6013	95.4999	177.5227	217.1089	236.5573	295.0238	305.9259	381.3143	396.015	468.7704	476.5919	561.0112	725.5115	794.8255	854.6667	866.7411	917.4787	972.1461	1001.2305	1022.7423	1076.0825	1105.1309	1115.8886	1144.6657	1171.352	1192.7198	1221.3057	1229.2616	1238.9108	1273.2726	1298.0446	1308.5943	1338.8897	1376.5753	1426.5219	1439.7743	1454.2544	1456.5016	1485.4975	1497.6039	1513.1359	1827.9225	2868.4005	2936.8267	2952.0618	2972.1161	3046.078	3057.401	3061.4623	3102.3581	3107.5771	3117.4253	3799.3946
CN1CC(O)C1CC=O	CN1C[C@@H](O)[C@H]1CC=O	
InChI=1S/C6H11NO2/c1-7-4-6(9)5(7)2-3-8/h3,5-6,9H,2,4H2,1H3	InChI=1S/C6H11NO2/c1-7-4-6(9)5(7)2-3-8/h3,5-6,9H,2,4H2,1H3/t5-,6-/m1/s1
