23
gdb 120440	3.78053	0.75519	0.73897	0.9918	82.62	-0.2413	0.0802	0.3215	1673.2366	0.203255	-425.420752	-425.410176	-425.409232	-425.456771	38.829	
C	 0.5018956261	 1.3039237744	 0.2437914539	-0.428121
C	-0.0159791577	-0.1024381502	-0.0203249826	 0.444708
C	-1.5210810469	-0.2096355251	 0.1975387521	-0.424929
C	 0.5074995235	-0.7973020939	-1.3056640328	-0.363318
C	 1.1161849003	-1.8365627526	-0.3440488189	 0.152321
C	 2.6184112994	-2.0536673317	-0.3787743359	-0.19333
C	 3.1150205582	-2.8667622804	 0.810098843	-0.07315
O	 4.5222835475	-3.0138851304	 0.6804925858	-0.423644
O	 0.6871711496	-1.0755854053	 0.8120322196	-0.343696
H	 1.5859832242	 1.3501171049	 0.109797496	 0.117757
H	 0.0356209933	 2.02359836	-0.4381877073	 0.113101
H	 0.2721847421	 1.6080282738	 1.2704320273	 0.121641
H	-2.0620413979	 0.4621058733	-0.4781430265	 0.112258
H	-1.8682961577	-1.2313850675	 0.0183074544	 0.115384
H	-1.7758948749	 0.060743423	 1.2273240288	 0.121558
H	-0.2574339485	-1.1635476485	-1.9925783906	 0.102382
H	 1.2457305575	-0.2166275169	-1.8638736279	 0.103808
H	 0.599344308	-2.8078310792	-0.3697131344	 0.0673
H	 2.8864938906	-2.5723901589	-1.3082333371	 0.102612
H	 3.1328373917	-1.0858958976	-0.3853152029	 0.103715
H	 2.8460011144	-2.3448034906	 1.739591047	 0.107209
H	 2.6120492401	-3.8483757006	 0.8248865451	 0.079861
H	 4.8486061872	-3.4614903701	 1.4663155939	 0.284572
44.7188	92.4774	102.2333	143.9258	201.3916	247.2231	260.4679	289.189	303.3719	359.9094	371.0894	421.6258	441.6543	514.8041	643.84	792.2421	810.0178	873.4635	904.0476	917.5613	945.8589	964.4034	991.8688	1003.2726	1028.2565	1060.3628	1083.7481	1097.0931	1170.0564	1184.2906	1219.8268	1238.3733	1249.928	1278.3423	1287.8367	1300.0656	1316.6386	1339.6863	1399.0724	1406.5882	1412.461	1461.1007	1473.2215	1479.3868	1481.7426	1491.0742	1495.4308	1506.3448	1530.2146	2959.4155	2982.259	3015.3176	3029.1485	3030.3405	3034.7446	3068.7495	3079.1908	3098.9154	3105.9122	3110.5006	3115.6224	3125.2481	3831.2823
CC1(C)CC(CCO)O1	CC1(C)C[C@@H](CCO)O1	
InChI=1S/C7H14O2/c1-7(2)5-6(9-7)3-4-8/h6,8H,3-5H2,1-2H3	InChI=1S/C7H14O2/c1-7(2)5-6(9-7)3-4-8/h6,8H,3-5H2,1-2H3/t6-/m1/s1
