24
gdb 99983	2.57397	1.08805	0.94113	4.012	89.08	-0.3079	0.037	0.3449	1397.4371	0.214996	-368.445408	-368.434162	-368.433218	-368.481296	41.647	
C	-0.0030803856	 1.5794571331	 0.1885886193	-0.406143
C	-0.0363306781	 0.0662770991	-0.0603363249	-0.198852
C	 0.6921345057	-0.433372623	-1.3354319581	 0.263575
C	-0.0121421699	 0.0770794721	-2.6058672069	-0.428191
C	 2.1578206173	 0.0426608124	-1.3350010886	-0.429589
C	 0.6969204733	-2.006961425	-1.3013551663	-0.138784
C	-0.6839766456	-2.6927780448	-1.2159827803	-0.414963
C	 1.4244551694	-2.5547930182	-2.453787077	 0.277581
N	 1.9817052751	-2.9927863835	-3.3675024876	-0.344889
H	 1.0131293411	 1.9500862688	 0.3484272936	 0.123213
H	-0.4388069842	 2.1409859326	-0.6433945842	 0.121712
H	-0.5836004879	 1.8221402287	 1.0839978634	 0.117139
H	 0.3993615373	-0.4415757051	 0.8112486196	 0.091301
H	-1.0852328501	-0.2467976146	-0.1041169019	 0.100218
H	 0.0576121184	 1.16599188	-2.6756761552	 0.11956
H	 0.4495683847	-0.3388570492	-3.5065234525	 0.138131
H	-1.0746312338	-0.1853045519	-2.61717551	 0.113644
H	 2.6746150098	-0.2628040727	-0.4177558945	 0.109575
H	 2.7070327095	-0.3728229008	-2.1845216913	 0.141252
H	 2.2176498423	 1.1314942287	-1.4064937695	 0.119011
H	 1.2703719743	-2.2995216091	-0.4112975368	 0.119865
H	-1.1981623369	-2.4149647469	-0.2944343999	 0.129139
H	-1.3173710154	-2.4254805611	-2.0650624864	 0.138726
H	-0.5625329607	-3.7789027597	-1.219861904	 0.13777
61.0054	76.4781	142.5698	188.7615	204.7543	235.5335	244.6365	258.4712	281.2289	311.3948	345.7879	350.2181	393.6928	427.7016	444.0516	582.376	596.7947	718.5613	786.7961	811.3459	887.327	926.6009	946.6348	1003.3512	1011.132	1028.7171	1041.2032	1081.4415	1102.0583	1123.1142	1198.5156	1231.8135	1243.3618	1302.3597	1333.6394	1350.3096	1370.6495	1406.0429	1409.1054	1412.446	1433.1414	1480.6083	1486.2187	1489.3027	1497.7103	1502.1189	1505.525	1513.2739	1513.7806	1516.8075	2349.078	3009.1636	3019.0414	3033.9905	3041.1427	3044.7459	3057.0385	3062.9084	3103.3812	3105.4172	3109.6121	3112.7291	3118.5225	3122.8395	3128.613	3143.7804
CCC(C)(C)C(C)C#N	CCC(C)(C)[C@@H](C)C#N	
InChI=1S/C8H15N/c1-5-8(3,4)7(2)6-9/h7H,5H2,1-4H3	InChI=1S/C8H15N/c1-5-8(3,4)7(2)6-9/h7H,5H2,1-4H3/t7-/m0/s1
