19
gdb 99127	3.46957	0.82741	0.77015	4.2205	73.21	-0.2641	-0.0274	0.2367	1534.1188	0.156198	-460.158703	-460.148781	-460.147836	-460.194924	35.015	
C	 0.1968942857	 1.521485685	-0.0011731431	-0.421145
C	 0.4419649414	 0.0407720325	 0.125465324	 0.077101
O	 1.7300810588	-0.3845724223	 0.5936604984	-0.256495
C	 0.5844605318	-0.6960871332	 1.3933587067	 0.059428
C	 0.5153345701	-0.0642229381	 2.7736936607	-0.337572
C	 1.5329950487	-0.7341683542	 3.6833497859	 0.36474
O	 1.2806583808	-1.7397452637	 4.3129851572	-0.325409
C	 2.9250967048	-0.1327638256	 3.7474018427	-0.139516
O	 3.7777198419	-0.8925522104	 4.5490127248	-0.420391
H	 0.5641516594	 2.0766964618	 0.8639082751	 0.128474
H	 0.7078264792	 1.9082465228	-0.8887717731	 0.1379
H	-0.8736459563	 1.7208146991	-0.1184511996	 0.128908
H	 0.0838076594	-0.5443725558	-0.7242564964	 0.097604
H	 0.3231027589	-1.755631377	 1.3923163117	 0.111339
H	 0.7093015846	 1.0091942881	 2.714194531	 0.115944
H	-0.4813872499	-0.2295300471	 3.1941268737	 0.133628
H	 3.2975450387	-0.0454731807	 2.7133450674	 0.142365
H	 2.8280507266	 0.9000892871	 4.1265359391	 0.110414
H	 3.2271998053	-1.6187725784	 4.8830507238	 0.292684
40.8328	49.2185	95.1849	151.055	178.6456	227.3058	272.7885	342.045	396.2566	404.5528	450.9052	494.9046	543.9783	677.8861	764.3179	803.6057	821.6806	918.4068	954.9812	992.821	1005.9437	1062.1178	1101.7543	1120.7055	1153.8616	1175.9898	1180.0596	1242.2876	1249.6392	1292.8281	1308.402	1323.4275	1392.3441	1415.6472	1448.7104	1458.418	1467.2832	1488.9468	1491.7652	1508.0922	1796.5097	2958.9662	2994.4997	3043.3585	3061.346	3083.7645	3100.0474	3104.4698	3123.2726	3140.4664	3686.6012
CC1OC1CC(=O)CO	C[C@H]1O[C@H]1CC(=O)CO	
InChI=1S/C6H10O3/c1-4-6(9-4)2-5(8)3-7/h4,6-7H,2-3H2,1H3	InChI=1S/C6H10O3/c1-4-6(9-4)2-5(8)3-7/h4,6-7H,2-3H2,1H3/t4-,6+/m1/s1
