16
gdb 13957	5.09077	1.32626	1.23055	2.9805	68.34	-0.2506	0.0252	0.2757	993.9773	0.131523	-342.754213	-342.746941	-342.745997	-342.786283	26.975	
N	-0.2184065002	-1.1208726413	 0.307066432	-0.304463
C	-0.1209867764	 0.0107555685	 0.0954621992	 0.260389
C	 0.0289494104	 1.4415505703	-0.1772888536	-0.436694
C	 1.4689382032	 1.8920650201	-0.0767598442	 0.354043
C	 2.0686269176	 2.3970304313	 1.1732258573	-0.272816
N	 1.8256094779	 3.3566684477	 0.0747488688	-0.171259
C	 2.9551441612	 3.1303585663	-0.9012625207	-0.151689
C	 2.5405605826	 1.6545952774	-1.1408500962	-0.306701
H	-0.3678604739	 1.650645385	-1.1780885388	 0.154542
H	-0.5838173464	 2.0079373666	 0.5322388158	 0.162902
H	 1.4120019677	 2.5516091689	 2.0239363697	 0.126434
H	 3.0930234931	 2.1368526319	 1.4321216704	 0.118297
H	 2.8309426723	 3.7751476699	-1.7726263522	 0.11861
H	 3.9432311208	 3.3053641481	-0.4645899858	 0.112686
H	 3.2688028933	 0.8666704861	-0.9333467433	 0.118332
H	 2.1237519868	 1.4928404132	-2.1372751283	 0.117388
53.4253	115.321	231.2288	318.5357	369.1642	391.8931	445.5056	490.2189	703.1838	749.8209	777.6358	826.838	884.027	913.6392	937.201	942.4755	976.9707	1009.277	1087.2755	1099.0707	1122.6967	1181.4431	1192.4698	1218.9166	1248.7039	1285.3464	1318.5274	1337.1136	1389.3122	1456.8629	1489.1536	1496.1522	1520.761	2363.5862	3039.9145	3055.4859	3067.5396	3084.8454	3104.4539	3110.1626	3128.0469	3197.5743
N#CCC12CN1CC2	N#CC[C@]12CN1CC2	
InChI=1S/C6H8N2/c7-3-1-6-2-4-8(6)5-6/h1-2,4-5H2	InChI=1S/C6H8N2/c7-3-1-6-2-4-8(6)5-6/h1-2,4-5H2/t6-,8?/m0/s1
