13
gdb 20248	4.18251	3.17432	2.56265	3.7553	59.71	-0.2116	-0.0569	0.1547	578.4119	0.096226	-361.323465	-361.318583	-361.317639	-361.351977	21.089	
O	-0.1735279396	 1.2210588132	 0.1856060772	-0.280565
C	 1.3311576582	 1.1957062564	-0.0059768955	 0.096383
C	 2.1912913673	 0.0631358796	 0.695498794	-0.131357
C	 1.4576260587	-1.3013745267	 0.5072803938	-0.017832
N	 0.0342196134	-1.070026236	 0.4742490028	-0.194739
C	-0.0171422002	-0.0769556548	-0.3291021146	 0.215599
C	 1.2326689293	 0.2524680038	-1.2035417938	-0.131456
C	 2.2678534215	-0.6946999865	-0.6325349355	-0.105306
H	 1.7270638624	 2.2085944178	-0.0345092516	 0.121294
H	 2.9437611033	 0.2126703468	 1.4562836634	 0.10525
H	 1.8306846733	-2.1629080027	 1.048314063	 0.111382
H	 1.1168336536	 0.5845224639	-2.2289225894	 0.104372
H	 3.1023836186	-1.1698384549	-1.1258913138	 0.106977
373.9317	503.3596	539.3176	639.2923	663.3152	692.1967	717.0053	733.4969	773.5662	821.9371	842.7833	874.7825	909.1566	932.0319	962.0074	994.2532	1000.9751	1030.6795	1056.0898	1078.7555	1115.2589	1168.349	1193.0778	1225.8277	1261.9634	1273.0388	1327.8996	1549.7491	3150.4003	3185.4868	3192.9241	3221.3601	3234.1273
O1C2C3C4N=C1C2C34	O1[C@H]2[C@H]3[C@H]4[N][C]1[C@@H]2[C@@H]34	
InChI=1S/C6H5NO/c7-4-1-2(4)5-3(1)6(7)8-5/h1-5H	InChI=1S/C6H5NO/c7-4-1-2(4)5-3(1)6(7)8-5/h1-5H/t1-,2-,3-,4+,5+/m1/s1
