15
gdb 11256	5.21023	1.35641	1.17903	5.9645	67.65	-0.2337	0.0047	0.2384	1001.2383	0.120418	-358.860774	-358.853223	-358.852279	-358.893058	26.588	
C	-0.056485252	 1.3964079725	 0.0680648829	-0.334772
N	 0.00003738	-0.0225776264	-0.2081544473	-0.053995
C	-1.1596591057	-0.8754315617	 0.0531081559	-0.204837
C	-0.4946511671	-2.2902918769	 0.0269453228	-0.10875
N	 0.963574963	-2.0587725746	 0.1619645284	-0.274468
C	 1.1138255301	-0.7956844187	 0.0188470609	 0.079088
C	-1.0105834204	-3.1764796237	 1.073169243	 0.287518
N	-1.4499245003	-3.8589806066	 1.8951081709	-0.322942
H	 0.9287929851	 1.8378541249	-0.1017831284	 0.141182
H	-0.7676177759	 1.8880251566	-0.6033390106	 0.138218
H	-0.3598950045	 1.6081964693	 1.1049480524	 0.127027
H	-1.5984355842	-0.6504151122	 1.0356869843	 0.125557
H	-1.9349053899	-0.7574635662	-0.708213647	 0.129814
H	-0.6784511225	-2.7786414437	-0.9390314014	 0.136566
H	 2.0881239643	-0.3147339327	 0.0328516233	 0.134795
68.874	138.8869	176.2811	205.4088	268.1973	335.3222	475.5677	506.0666	567.6344	649.8047	758.6643	851.0789	926.1106	966.5335	1004.4317	1040.9694	1050.7363	1085.9825	1150.7794	1208.5399	1247.6141	1269.9481	1289.8142	1326.5518	1355.6163	1418.461	1464.82	1481.1513	1512.3046	1531.2802	1677.5972	2365.0267	2988.5905	3004.3343	3021.1923	3072.5366	3090.0737	3120.9262	3183.842
CN1CC(N=C1)C#N	CN1C[C@@H]([N][CH]1)C#N	
InChI=1S/C5H7N3/c1-8-3-5(2-6)7-4-8/h4-5H,3H2,1H3	InChI=1S/C5H7N3/c1-8-3-5(2-6)7-4-8/h4-5H,3H2,1H3/t5-/m0/s1
