15
gdb 50954	1.89032	1.35936	0.86729	3.8174	72.66	-0.2749	-0.0021	0.2728	1284.7395	0.110489	-416.805185	-416.795639	-416.794694	-416.840717	32.921	
O	-0.0039278322	 0.1555814705	-0.7942314615	-0.306305
C	 0.018615091	 1.2442629331	-0.2689877181	 0.170565
N	 1.1389502057	 1.8408958026	 0.2410724625	-0.273128
C	 2.4373466614	 1.2006845928	 0.180346938	-0.130007
C	 3.4788707087	 2.0221093666	-0.6321754834	-0.36686
C	 3.0590956256	 2.2355722053	-2.0082631319	 0.293861
C	 2.6971858176	 2.4002782716	-3.1414249432	-0.415142
C	 2.9609526582	 0.9431788717	 1.5328388871	 0.282363
N	 3.3894989869	 0.775558498	 2.5924868867	-0.31164
H	-0.8754260523	 1.8828816656	-0.1437893399	 0.095057
H	 1.0577966497	 2.7426806336	 0.6846426191	 0.262677
H	 2.2632189188	 0.2423660688	-0.319432369	 0.18342
H	 3.6461393383	 2.9818882468	-0.1279671013	 0.145325
H	 4.435122406	 1.4874536994	-0.59986242	 0.161565
H	 2.3848389266	 2.5421044334	-4.1467019851	 0.208247
41.692	71.2208	112.372	147.075	190.6882	223.9607	302.1218	344.2111	370.9382	497.0824	507.7305	543.8026	574.2316	635.2306	662.0766	760.471	867.7434	956.9321	998.6157	1028.8429	1047.0476	1071.0498	1184.5647	1239.099	1296.1009	1337.6146	1363.5994	1426.1497	1467.8381	1518.9799	1811.8698	2246.694	2360.4313	2965.9161	3033.2419	3069.0698	3086.2623	3504.5464	3632.0693
O=CNC(CC#C)C#N	O=CN[C@@H](CC#C)C#N	
InChI=1S/C6H6N2O/c1-2-3-6(4-7)8-5-9/h1,5-6H,3H2,(H,8,9)	InChI=1S/C6H6N2O/c1-2-3-6(4-7)8-5-9/h1,5-6H,3H2,(H,8,9)/t6-/m0/s1
