15
gdb 79668	2.69247	1.57255	1.22891	4.206	71.24	-0.2495	-0.0076	0.2419	1010.1215	0.112596	-416.715777	-416.708263	-416.707319	-416.747581	29.087	
O	 0.0851759223	 1.4588856988	 0.1640724188	-0.406076
C	-0.0376054559	 0.085051764	-0.013730949	 0.049425
C	-1.3216268809	-0.6531776442	 0.0347503822	-0.157479
C	-2.4559846995	-0.0892084082	-0.8323244461	-0.039196
C	-2.1451349572	 1.1347554626	-1.6020787985	-0.254876
N	-1.6497814448	-0.1754867708	-2.0960602156	-0.176672
C	-0.4732876989	-0.6592480928	-1.2746902556	 0.127441
C	 0.3464129389	-1.677467422	-1.8425828807	 0.240375
N	 1.0346178119	-2.4994601827	-2.2806872738	-0.34582
H	 0.9439778969	 1.7284060898	-0.181931536	 0.300931
H	 0.7536125412	-0.4906429098	 0.4714173465	 0.127441
H	-1.4808323153	-1.4783053235	 0.7167891971	 0.125624
H	-3.446997323	-0.5273099288	-0.7932696532	 0.117046
H	-2.9414071415	 1.5015216676	-2.2438870933	 0.131794
H	-1.4621831043	 1.8770977599	-1.2208152728	 0.160042
136.1498	160.7935	211.6484	277.1861	324.4826	428.672	450.0719	483.1387	527.9602	582.1243	679.076	703.1137	767.8386	778.9133	857.9976	915.2099	948.916	996.5163	1010.9875	1048.8292	1070.9543	1095.3224	1124.0056	1150.7995	1193.8974	1230.0822	1273.25	1291.2226	1348.6645	1358.8313	1476.013	1502.2306	2338.9154	3088.1834	3138.7869	3174.3486	3204.1887	3276.0612	3798.6577
OC1C2C3CN3C12C#N	O[C@H]1[C@H]2[C@H]3CN3[C@@]12C#N	
InChI=1S/C6H6N2O/c7-2-6-4(5(6)9)3-1-8(3)6/h3-5,9H,1H2	InChI=1S/C6H6N2O/c7-2-6-4(5(6)9)3-1-8(3)6/h3-5,9H,1H2/t3-,4-,5+,6-,8?/m1/s1
