20
gdb 66725	1.9081	1.79923	1.79058	2.1039	82.76	-0.1995	0.0732	0.2727	1017.5235	0.168741	-365.910869	-365.901945	-365.901001	-365.943805	34.073	
C	-0.101484967	 1.5111073495	 0.0270088254	-0.529918
C	-0.005597969	 0.0216636092	-0.0018324384	 0.228291
C	 0.9026430106	-0.9636905013	-0.7840430705	-0.119005
C	-0.1682171192	-1.991689662	-0.792980168	-0.119017
N	 0.8418122105	-1.981744194	 0.323495458	-0.209072
C	-0.0812372149	-1.0268622337	 1.0917651353	 0.274855
C	-0.1533804401	-0.9646551692	 2.577871735	-0.522515
C	-1.1224637876	-1.050538102	-0.0111143318	 0.228304
C	-2.6069597903	-0.8941947769	 0.0062130367	-0.529913
H	 0.8417237787	 1.9692374559	 0.3482122034	 0.12519
H	-0.3506930477	 1.9195856591	-0.9597724986	 0.122851
H	-0.8796263275	 1.839809312	 0.7245672615	 0.121699
H	 1.7853308272	-0.8344991521	-1.4010813257	 0.089594
H	-0.3279309886	-2.8631824468	-1.4187236515	 0.089596
H	 0.8201937445	-0.7026338402	 3.0074715922	 0.129462
H	-0.879937199	-0.2112492091	 2.900039906	 0.120383
H	-0.4578618549	-1.9305219684	 2.996738232	 0.129476
H	-2.9096937729	-0.1090366391	 0.7076562522	 0.121699
H	-2.9964050956	-0.6204397285	-0.9817538773	 0.12285
H	-3.1058997771	-1.8205152624	 0.3155426142	 0.125191
154.4502	155.5433	175.579	191.5817	192.9257	211.5003	320.9327	343.6703	344.7036	603.1349	610.231	669.7667	686.63	734.4811	762.3861	793.1567	835.0738	872.1424	874.465	930.1386	984.5423	993.4199	1074.5782	1090.5073	1103.0578	1106.4842	1148.1058	1161.2012	1193.3458	1209.1362	1284.7213	1334.7255	1358.0344	1406.7263	1412.0509	1417.8043	1471.3558	1480.2002	1480.5671	1484.949	1493.3231	1494.7947	1522.2281	3015.8576	3017.9181	3024.225	3072.1323	3073.1066	3086.6986	3088.3231	3091.0771	3099.6022	3158.6331	3172.9568
CC12C3C4N3C1(C)C24C	C[C@@]12[C@@H]3[C@H]4N3[C@]1(C)[C@@]24C	
InChI=1S/C8H11N/c1-6-4-5-7(6,2)8(6,3)9(4)5/h4-5H,1-3H3	InChI=1S/C8H11N/c1-6-4-5-7(6,2)8(6,3)9(4)5/h4-5H,1-3H3/t4-,5+,6-,7+,8-,9?
