15
gdb 42717	2.5195	2.19098	1.76839	3.8852	67.56	-0.2476	-0.0082	0.2394	823.1584	0.114333	-420.615433	-420.609286	-420.608342	-420.64565	25.57	
O	 0.0027210501	 0.0785404565	 0.1157687084	-0.312434
C	-0.0154180259	 1.2593690826	-0.0087103944	 0.445562
C	-1.1906099014	 2.2933653743	-0.0077291479	-0.222232
C	-0.6969222131	 3.0810653031	 1.19472907	-0.087192
C	 0.6490781108	 3.0997304823	 1.1756886442	-0.087192
C	 1.1302088791	 2.3255540553	-0.0405631996	-0.222232
C	 0.671516279	 3.0982696398	-1.2912071329	 0.052877
O	-0.0613056406	 2.2955005747	-2.2364694088	-0.259532
C	-0.789077893	 3.0780101736	-1.2705453284	 0.052877
H	-2.2031641773	 1.8975266859	 0.0282971097	 0.09186
H	-1.3433401086	 3.5021427342	 1.952999989	 0.115202
H	 1.3047601233	 3.5388650286	 1.9155393092	 0.115202
H	 2.1539633044	 1.9579576082	-0.0333469195	 0.09186
H	 1.2637985754	 3.9077505788	-1.7048471889	 0.112688
H	-1.4150423323	 3.8705937022	-1.6669490002	 0.112688
176.2223	294.2132	344.4291	417.8995	503.4089	511.6032	607.5215	690.1337	706.7392	782.0675	786.331	826.0725	840.576	879.6867	913.6929	939.8664	956.2437	958.0207	982.7334	1008.5116	1054.4066	1104.7077	1122.9807	1181.4947	1192.7287	1219.9358	1262.3414	1263.0301	1288.1103	1348.5311	1413.3081	1602.6592	1918.7048	3146.9772	3148.0601	3166.7045	3179.0537	3212.2236	3234.4737
O=C1C2C=CC1C1OC21	O=C1[C@H]2C=C[C@@H]1[C@H]1O[C@@H]21	
InChI=1S/C7H6O2/c8-5-3-1-2-4(5)7-6(3)9-7/h1-4,6-7H	InChI=1S/C7H6O2/c8-5-3-1-2-4(5)7-6(3)9-7/h1-4,6-7H/t3-,4+,6+,7-
