18
gdb 67604	2.71344	2.20004	1.68474	0.9955	72.86	-0.2229	0.0771	0.3	869.443	0.150295	-401.90832	-401.90189	-401.900945	-401.938765	27.065	
C	 0.0090039826	 1.4681405166	-0.0044278064	-0.514925
C	-0.0252887294	-0.0299857619	 0.0374279743	 0.347179
C	-0.972384186	-0.94601626	-0.6620555439	-0.116486
C	-1.1066146873	-2.0323401483	 0.4299524606	 0.061499
O	-1.2178267003	-1.2762657508	 1.6743233973	-0.297907
C	 0.1391622623	-0.8552086015	 1.3463730938	 0.008868
C	 0.4167141932	-2.2375769358	 0.6905206042	-0.077085
C	 1.1545292961	-2.0009779503	-0.6043607059	-0.187011
N	 0.4299381227	-0.8229121643	-1.1289983316	-0.167313
H	 1.0013139595	 1.8500138916	 0.2615615222	 0.119816
H	-0.2311950607	 1.8300100433	-1.007317114	 0.132434
H	-0.7155168594	 1.8892207008	 0.7006308036	 0.129982
H	-1.7696880658	-0.647972343	-1.3307565878	 0.094706
H	-1.8425887347	-2.827333375	 0.3231260177	 0.082151
H	 0.6900786216	-0.4282260742	 2.1836993307	 0.078294
H	 0.6920840328	-3.050696553	 1.357222089	 0.087606
H	 2.2129800882	-1.7539904076	-0.4686974983	 0.108867
H	 1.0765067847	-2.8314559966	-1.3141890755	 0.109324
185.7945	216.6762	281.8727	381.1025	513.2021	542.8015	600.0871	682.1853	740.8478	758.8798	801.425	831.3324	847.1726	865.0055	906.2702	923.1033	938.3395	962.0304	981.3679	1000.3037	1027.2939	1051.3944	1081.241	1107.6194	1141.9333	1184.4518	1203.4264	1222.0917	1223.7719	1249.4677	1269.4342	1284.5804	1315.7396	1339.9103	1402.6154	1430.307	1487.755	1491.6904	1496.4086	3031.4518	3043.5305	3089.2288	3092.6843	3120.3176	3128.863	3137.1281	3160.3355	3197.3178
CC12C3C4OC1C4CN23	C[C@]12[C@@H]3[C@@H]4O[C@H]1[C@@H]4CN23	
InChI=1S/C7H9NO/c1-7-5-4-3(2-8(5)7)6(7)9-4/h3-6H,2H2,1H3	InChI=1S/C7H9NO/c1-7-5-4-3(2-8(5)7)6(7)9-4/h3-6H,2H2,1H3/t3-,4-,5+,6+,7+,8?/m1/s1
