15
gdb 127566	3.22003	1.48256	1.02291	7.0612	72.59	-0.2292	-0.0419	0.1873	1095.5299	0.114258	-450.160453	-450.152451	-450.151507	-450.193067	29.69	
C	 0.0523119503	 1.4541921148	-0.0512286566	-0.342986
N	 0.0169701274	 0.0012303099	 0.0135731004	-0.061496
N	-0.0741852678	-0.6386768159	-1.1847834723	-0.1773
C	-0.0619371087	-1.9254012123	-1.1532504961	-0.084536
C	 0.0488105208	-2.7378090916	 0.0810935893	 0.352649
O	 0.0828373722	-3.9523833364	 0.0399000513	-0.367936
N	 0.0949525583	-2.0065989009	 1.260088952	-0.397897
C	 0.082420047	-0.7074566788	 1.1850893215	 0.500122
N	 0.1940716501	 0.0258408867	 2.341869337	-0.566603
H	 0.9179533695	 1.8420995794	 0.4935687198	 0.154312
H	 0.130722486	 1.7231445775	-1.1032010373	 0.172197
H	-0.8629195282	 1.8997677474	 0.358117435	 0.138301
H	-0.1317399297	-2.4366316314	-2.1081398222	 0.141849
H	 0.0904871444	-0.5499680565	 3.1649953553	 0.277011
H	-0.2587636116	 0.924401988	 2.3933843031	 0.262312
81.6974	153.5766	201.2803	212.151	334.9315	370.9643	387.5673	445.9171	495.3142	542.532	579.7159	602.9254	734.4558	742.061	782.723	802.4514	939.4817	963.1145	1010.0546	1140.7994	1148.6612	1233.7238	1266.6577	1292.9936	1346.4639	1429.8066	1484.7726	1492.3709	1511.6601	1577.516	1640.5564	1669.1307	1780.5472	3023.2604	3094.0862	3171.3834	3191.4973	3579.789	3695.0798
CN1N=CC(=O)N=C1N	Cn1ncc(=O)nc1N	
InChI=1S/C4H6N4O/c1-8-4(5)7-3(9)2-6-8/h2H,1H3,(H2,5,7,9)	InChI=1S/C4H6N4O/c1-8-4(5)7-3(9)2-6-8/h2H,1H3,(H2,5,7,9)
