12
gdb 132889	3.06089	1.33976	0.93188	3.601	61.72	-0.2211	-0.0508	0.1703	1088.9067	0.077335	-521.928256	-521.921362	-521.920418	-521.95977	26.247	
F	 0.0192550146	-0.0181570512	 0.0033469906	-0.076057
C	-0.0245241766	 1.317107315	 0.0106312894	 0.23042
C	-1.2100424177	 1.9700933423	 0.029750809	-0.096094
N	-1.2056254461	 3.342007047	 0.0365872095	-0.368864
C	-0.080043028	 4.1718052137	 0.0256903703	 0.345579
O	-0.1697255036	 5.3854983696	 0.0330712316	-0.385464
C	 1.1605736043	 3.3973988989	 0.0052778871	 0.159821
F	 2.2754360466	 4.1121136081	-0.0059863134	-0.049603
C	 1.1974611279	 2.0416173272	-0.0020332654	-0.325937
H	-2.166050839	 1.4661157421	 0.0399936919	 0.151055
H	-2.0825135752	 3.8441638018	 0.0508236685	 0.272155
H	 2.1430894729	 1.5123529156	-0.017307779	 0.142988
126.1515	228.5026	301.4573	347.7523	363.8648	431.2879	458.5145	505.3931	580.7352	602.8983	672.0798	708.2706	773.8936	821.8263	840.282	911.4072	993.3445	1117.7479	1186.0199	1232.7956	1311.9255	1340.1986	1446.8382	1474.831	1616.926	1702.9066	1789.8739	3208.4745	3237.6581	3612.0847
FC1=CNC(=O)C(F)=C1	Fc1c[nH]c(=O)c(F)c1	
InChI=1S/C5H3F2NO/c6-3-1-4(7)5(9)8-2-3/h1-2H,(H,8,9)	InChI=1S/C5H3F2NO/c6-3-1-4(7)5(9)8-2-3/h1-2H,(H,8,9)
