16
gdb 125071	3.0507	1.3024	0.91973	5.7029	78.06	-0.2132	-0.0113	0.2019	1224.6181	0.124457	-434.061689	-434.052899	-434.051955	-434.097194	30.696	
C	 0.0319832012	 1.5248086266	-0.0195880007	-0.530499
C	-0.0360991496	 0.0315657623	 0.0540005847	 0.031162
C	-0.0567340306	-0.8786713999	-0.9742374603	 0.492305
N	-0.0362697084	-0.6404337491	-2.3314288173	-0.399538
C	 0.0824242093	-1.5279182863	-3.3895113066	 0.076217
N	 0.1862145754	-2.7839545805	-3.2542596498	-0.417124
O	-0.121663948	-2.1297672922	-0.516217134	-0.189622
N	-0.1463926	-2.0897490424	 0.8898369419	-0.155104
C	-0.0981412861	-0.8151184418	 1.1889926734	-0.021656
H	 0.7693658978	 1.8646755682	-0.757330746	 0.123293
H	-0.9313306687	 1.9796273231	-0.2836569297	 0.133071
H	 0.3315236265	 1.9449683558	 0.9441962415	 0.140908
H	-0.0767545408	 0.3346593749	-2.5780230659	 0.263719
H	 0.0699790904	-0.9803194661	-4.3399253416	 0.0951
H	 0.2578891488	-3.228585874	-4.166787184	 0.23084
H	-0.1026616671	-0.5254958985	 2.2316585842	 0.126927
15.3627	61.6766	153.9527	168.9082	233.1942	251.3366	331.9009	412.739	456.7857	600.1512	633.8707	670.2519	715.1844	802.8419	816.508	910.27	915.9152	947.6161	1000.0457	1045.5425	1065.1382	1076.8709	1191.5582	1212.1013	1224.359	1357.4915	1408.0199	1420.6592	1438.0809	1484.4062	1489.8302	1515.4304	1558.4136	1680.257	1738.8584	3014.4765	3040.6998	3060.2263	3109.1576	3229.9142	3516.095	3654.3043
CC1=C(NC=N)ON=C1	Cc1c(NC=N)onc1	
InChI=1S/C5H7N3O/c1-4-2-8-9-5(4)7-3-6/h2-3H,1H3,(H2,6,7)	InChI=1S/C5H7N3O/c1-4-2-8-9-5(4)7-3-6/h2-3H,1H3,(H2,6,7)
