15
gdb 125463	5.41265	1.28165	1.04301	3.3928	74.77	-0.2102	0.0035	0.2137	1089.8371	0.11644	-413.027186	-413.019915	-413.018971	-413.05905	27.431	
C	-0.021449765	 1.4763075675	 0.0094721228	-0.503671
C	-0.0009512305	-0.0146445014	-0.0287567904	 0.326972
N	-0.0445299272	-0.7429839598	-1.1337311142	-0.39645
C	-0.0021252116	-2.0242408545	-0.6603610392	 0.403817
C	 0.0670829949	-2.1011579867	 0.7220963098	 0.248272
N	 0.0670351273	-0.7753758325	 1.123116771	-0.451745
C	 0.1028934376	-3.4731871451	 1.0345952214	-0.144358
N	 0.0581111999	-4.1906615068	-0.0923992807	-0.222193
N	-0.0057361713	-3.3009097449	-1.1185599368	-0.342277
H	 0.8802776462	 1.8819906033	 0.4826105481	 0.136083
H	-0.0753391647	 1.8515402387	-1.0127205867	 0.161671
H	-0.8863700336	 1.8555559757	 0.565944197	 0.136176
H	 0.1078304105	-0.4132801356	 2.0596481009	 0.264779
H	 0.1572330669	-3.981561358	 1.9846452104	 0.109108
H	-0.0468591793	-3.6440475099	-2.0617387733	 0.273816
73.2294	150.536	287.02	301.4754	342.0482	416.0969	442.4572	519.1178	574.7964	662.9408	671.0239	768.8085	781.9382	829.6396	840.0707	971.3161	991.2334	1020.099	1058.5331	1084.7463	1204.0559	1224.442	1272.1635	1325.9995	1397.814	1408.4625	1411.49	1480.9533	1486.835	1506.9152	1530.5982	1564.6817	1618.2089	3031.2632	3080.9553	3153.8925	3253.8672	3680.7061	3690.654
CC1=NC2=C(N1)C=NN2	Cc1nc2c([nH]1)cn[nH]2	
InChI=1S/C5H6N4/c1-3-7-4-2-6-9-5(4)8-3/h2H,1H3,(H2,6,7,8,9)	InChI=1S/C5H6N4/c1-3-7-4-2-6-9-5(4)8-3/h2H,1H3,(H2,6,7,8,9)
