25
gdb 115895	3.10189	1.17418	1.02366	0.0347	91.78	-0.2725	0.0825	0.355	1321.2772	0.232264	-352.365682	-352.357136	-352.356191	-352.398556	34.799	
C	-0.2315034249	 1.7532129431	 0.40958833	-0.388288
C	-0.1050317765	 0.2269786031	 0.4545721624	-0.188487
C	-1.2756956307	-0.5279563027	-0.1956815994	 0.054983
C	-1.4246662293	-0.1818121484	-1.7007104946	-0.203369
C	-2.1219340524	-1.2908821254	-2.5250844718	-0.21887
C	-1.833752284	-2.6813853087	-1.9363902457	 0.008402
C	-2.4333443953	-2.7595192156	-0.5063602092	-0.230625
C	-1.1358997011	-2.0564114116	-0.0258480074	-0.0075
C	-0.4328743636	-2.7085919186	-1.2547936989	-0.231857
H	 0.6022614692	 2.2326585894	 0.9321629846	 0.10948
H	-0.2366368956	 2.1312657598	-0.6174393636	 0.117119
H	-1.1592380864	 2.0858950846	 0.889453556	 0.111419
H	 0.8325356215	-0.0778863487	-0.0312965719	 0.092368
H	-0.0222340927	-0.0939593824	 1.5011416677	 0.088722
H	-2.1941005872	-0.2280722418	 0.331384656	 0.062275
H	-1.943154429	 0.7728437585	-1.830905043	 0.092712
H	-0.418474646	-0.0298370319	-2.1103234671	 0.098022
H	-3.2080222659	-1.1357412847	-2.5486048921	 0.092787
H	-1.7796557299	-1.2338660795	-3.5651209628	 0.089434
H	-2.0830511848	-3.4787951852	-2.6412285772	 0.053519
H	-3.3869434869	-2.2520035877	-0.3239087196	 0.080705
H	-2.4978404882	-3.7895835955	-0.1439202572	 0.087759
H	-0.7608176219	-2.3078292545	 0.9706116173	 0.050119
H	-0.1187513616	-3.7318063558	-1.0318463443	 0.091937
H	 0.3972473031	-2.1818470399	-1.7340240283	 0.087234
97.2112	128.3956	198.0637	241.7432	269.2582	344.8741	386.3878	411.9743	449.6298	517.0874	566.7016	753.283	772.8333	821.6739	823.0484	827.2585	892.357	902.4565	930.7293	939.4889	951.1125	967.1566	1017.7836	1031.576	1059.6355	1062.5932	1087.7526	1104.1432	1112.7486	1127.4027	1153.0831	1183.494	1228.5089	1241.382	1250.2408	1273.5768	1283.9049	1293.5251	1326.891	1332.8381	1340.6896	1354.1772	1370.9402	1384.6542	1396.8576	1410.4954	1476.6104	1486.4816	1493.5876	1496.3542	1501.6834	1508.1079	1517.7078	2982.4086	3008.1176	3018.7089	3025.6967	3030.8649	3034.094	3041.8468	3049.6047	3054.677	3059.932	3070.6073	3077.4588	3092.2495	3095.5747	3102.7028	3105.3099
CCC1CCC2CC1C2	CC[C@H]1CC[C@@H]2C[C@H]1C2	
InChI=1S/C9H16/c1-2-8-4-3-7-5-9(8)6-7/h7-9H,2-6H2,1H3	InChI=1S/C9H16/c1-2-8-4-3-7-5-9(8)6-7/h7-9H,2-6H2,1H3/t7-,8-,9+/m0/s1
