17
gdb 75153	2.87178	1.22085	1.15936	3.355	73.98	-0.2667	0.0029	0.2697	1157.0578	0.135031	-418.051269	-418.042333	-418.041389	-418.085279	32.274	
C	-0.2656406528	 1.4206338442	 0.141810493	-0.477623
C	-0.0327406967	-0.0382766657	-0.0390265813	 0.407667
N	-0.1753946695	-0.7093382136	-1.1055899504	-0.294537
C	 0.1531445071	-2.096523936	-0.7913264772	-0.231218
C	 0.5798326564	-2.0785422272	 0.7210708657	 0.207817
C	 2.0421991568	-2.4556934487	 0.9566842672	-0.430197
O	 0.3813585007	-0.6928269536	 1.0931429014	-0.271833
C	-0.3110519556	-2.9019137908	 1.5541687191	 0.260488
N	-1.0027170442	-3.5776217096	 2.186478265	-0.332237
H	 0.6482981346	 1.9099353975	 0.4921682238	 0.149557
H	-0.5801317587	 1.8604105769	-0.803707231	 0.158275
H	-1.0362173782	 1.5868793548	 0.9008833913	 0.155522
H	-0.7100875699	-2.7440540136	-0.9685000411	 0.142074
H	 0.9733580506	-2.4536603825	-1.4228334476	 0.125942
H	 2.6791134348	-1.8267425915	 0.3289323922	 0.137368
H	 2.3170745093	-2.308945325	 2.0034411969	 0.149393
H	 2.2095527551	-3.5035971557	 0.6924970229	 0.14354
46.9792	133.1138	169.9658	184.8744	227.314	240.9333	307.8662	369.0551	402.7018	504.8644	570.555	596.953	629.503	678.964	811.0092	902.6889	914.9233	957.9728	980.9488	982.4006	1066.6615	1081.1946	1127.2034	1164.8776	1191.477	1263.7923	1268.6928	1343.9519	1410.096	1415.5774	1474.1513	1475.0852	1480.4723	1490.3392	1499.1214	1753.7122	2358.8028	3047.8719	3050.5109	3053.7533	3091.4422	3112.3647	3128.7401	3138.6203	3169.7128
CC1=NCC(C)(O1)C#N	CC1=NC[C@@](C)(O1)C#N	
InChI=1S/C6H8N2O/c1-5-8-4-6(2,3-7)9-5/h4H2,1-2H3	InChI=1S/C6H8N2O/c1-5-8-4-6(2,3-7)9-5/h4H2,1-2H3/t6-/m0/s1
