21
gdb 85673	2.38	1.28084	1.09845	4.6601	83.27	-0.2497	0.0185	0.2682	1232.7121	0.181474	-383.276134	-383.266309	-383.265365	-383.310296	36.942	
C	-0.9963463058	 1.1410519881	-0.0366759355	-0.406544
C	 0.0107072192	 0.0064767552	-0.0894910853	 0.035485
N	 1.3207799614	 0.3447682929	-0.7000826911	-0.322749
C	 2.0153744163	-0.5661414833	 0.2291262131	-0.158281
C	 3.3234679529	-0.1137722978	 0.7027431646	 0.299595
N	 4.3563900767	 0.226056712	 1.0951696204	-0.336263
C	 0.7744425235	-0.4758672103	 1.194511759	 0.282025
C	 0.9380396703	 0.6027126744	 2.263638685	-0.440228
C	 0.3144438981	-1.7964980811	 1.7974725276	-0.461032
H	-0.5682154644	 2.0343232858	 0.4235317485	 0.129712
H	-1.3189551266	 1.4069128182	-1.0492554217	 0.119025
H	-1.8882327901	 0.8449170563	 0.5264742195	 0.116463
H	-0.4572044203	-0.8696509263	-0.5674999765	 0.06241
H	 1.4318888284	 0.1244104791	-1.6844263204	 0.224442
H	 2.1306120115	-1.5942040283	-0.1451633808	 0.103344
H	 1.2999667809	 1.541785332	 1.8383609606	 0.142731
H	-0.0164226726	 0.7954451627	 2.7641060273	 0.115135
H	 1.6570463357	 0.2818546381	 3.0240676114	 0.130276
H	 1.0248992304	-2.1542747682	 2.5508567609	 0.127654
H	-0.6561743155	-1.67644275	 2.2916007847	 0.12282
H	 0.2079543301	-2.5752958494	 1.0354639388	 0.113981
77.2135	134.1134	183.2588	201.1873	224.7904	248.3945	276.4127	287.881	343.6735	360.4943	401.7152	479.6952	554.6972	566.5589	612.6526	714.8192	786.3433	855.579	926.8845	954.0197	973.9768	989.2722	1014.0979	1039.6972	1065.6434	1101.4678	1139.4721	1191.5156	1197.3742	1224.1454	1274.253	1331.3131	1349.2472	1378.8073	1399.689	1405.652	1420.8511	1426.4871	1480.7886	1483.4828	1491.6123	1496.2045	1503.2659	1511.2151	2353.1598	2960.2894	2989.9965	3026.8829	3035.5268	3040.5566	3094.2632	3096.4814	3099.382	3105.8791	3123.3213	3130.0481	3521.9862
CC1NC(C#N)C1(C)C	C[C@H]1N[C@@H](C#N)C1(C)C	
InChI=1S/C7H12N2/c1-5-7(2,3)6(4-8)9-5/h5-6,9H,1-3H3	InChI=1S/C7H12N2/c1-5-7(2,3)6(4-8)9-5/h5-6,9H,1-3H3/t5-,6+/m1/s1
