18
gdb 69274	2.66004	1.54325	1.16836	3.023	72.41	-0.2235	-0.03	0.1935	1084.5415	0.148326	-439.085898	-439.07777	-439.076826	-439.11843	31.248	
C	 0.1234176999	 1.5036708553	-0.1043754852	-0.469951
C	-0.052464759	 0.0135380653	 0.0680932778	 0.376648
C	-1.3225900223	-0.608876408	-0.5286616107	-0.231939
N	-1.8762590722	-1.7650334415	 0.1755142341	-0.29607
C	-0.8575818606	-2.6924618454	 0.686290705	-0.276162
C	 0.0273130899	-1.9782377268	 1.7016827613	 0.388029
O	 0.1838920095	-2.3392119719	 2.8463973711	-0.316836
C	 0.6202991633	-0.6957991476	 1.1893581029	-0.124203
O	 1.1256107567	-0.7634042148	-0.1569186989	-0.278439
H	 1.0982555059	 1.8214280624	 0.2728671394	 0.136496
H	 0.0625777793	 1.7736959992	-1.1646284848	 0.134299
H	-0.659482467	 2.0534397136	 0.428076346	 0.127324
H	-2.1063114387	 0.1520579432	-0.5933867167	 0.111174
H	-1.0768039208	-0.9036059741	-1.5580782371	 0.126528
H	-2.4430442272	-1.444957336	 0.9546367322	 0.226725
H	-1.3373831224	-3.5455524503	 1.170966827	 0.126345
H	-0.2552542797	-3.0522658543	-0.1550140895	 0.136913
H	 1.2351447055	-0.1454096183	 1.8995912161	 0.10312
96.0486	155.5676	209.3035	226.5638	309.8472	360.2235	382.6483	428.0846	471.7219	516.5622	556.8892	663.8764	752.6458	775.7068	837.7915	858.7615	898.0085	937.2073	965.2672	1029.3241	1042.5424	1088.0526	1112.9263	1143.1424	1203.9428	1228.5639	1264.1878	1293.222	1324.8363	1340.3148	1378.8379	1410.1136	1431.646	1461.4821	1474.414	1484.465	1494.2807	1501.114	1809.2631	3018.4545	3035.7564	3051.9395	3084.6819	3100.1371	3119.9899	3127.7076	3135.3662	3514.0742
CC12CNCC(=O)C1O2	C[C@]12CNCC(=O)[C@H]1O2	
InChI=1S/C6H9NO2/c1-6-3-7-2-4(8)5(6)9-6/h5,7H,2-3H2,1H3	InChI=1S/C6H9NO2/c1-6-3-7-2-4(8)5(6)9-6/h5,7H,2-3H2,1H3/t5-,6+/m1/s1
