23
gdb 57756	2.93992	0.71167	0.67144	1.7972	91.84	-0.2475	0.0421	0.2896	1851.4122	0.201618	-388.275708	-388.26391	-388.262966	-388.314945	42.513	
C	 0.1476828966	 1.3472298028	-0.4150814062	-0.380833
C	 0.0050234524	 0.0090887145	 0.3247669645	-0.014972
O	 0.4234680185	 0.1199429409	 1.6853387934	-0.415513
C	-1.3562712229	-0.5270209699	 0.2158444094	-0.00072
C	-2.490144994	-0.9329662857	 0.1544788232	 0.102987
C	-3.864480624	-1.4453669841	 0.0773653787	 0.076435
C	-3.831302875	-2.9493007928	-0.2776973879	-0.390257
C	-4.5565779289	-1.2510846448	 1.4458246816	-0.391041
C	-4.6417538759	-0.6714240938	-1.0113894853	-0.389793
H	 1.1704485073	 1.717416563	-0.305181262	 0.12283
H	-0.0794841595	 1.2307284057	-1.478872041	 0.122209
H	-0.542329592	 2.0888283436	 0.0004469612	 0.113945
H	 0.7073542893	-0.7095853968	-0.1154833232	 0.114304
H	-0.2665468678	 0.5999638627	 2.1564602632	 0.280253
H	-3.2841812806	-3.5172726175	 0.4798497514	 0.122415
H	-4.8510246928	-3.3450773494	-0.3368380539	 0.109447
H	-3.3427411993	-3.1120943053	-1.242526447	 0.120044
H	-4.5929439352	-0.1926204469	 1.7192312686	 0.116844
H	-5.583099131	-1.6309898933	 1.4049635183	 0.110809
H	-4.021836204	-1.7883320343	 2.2341287702	 0.122197
H	-4.1683442177	-0.7919298707	-1.9899159689	 0.119975
H	-5.6693627619	-1.0448413445	-1.0779148576	 0.110172
H	-4.6781971917	 0.3971633067	-0.7811307705	 0.118261
4.2052	76.915	85.8012	179.2217	191.1832	215.4383	251.2137	271.3748	272.7606	281.166	304.9778	351.229	356.8138	405.3514	502.0562	518.0626	560.9123	581.0319	655.9476	803.5117	889.4276	930.4978	931.3188	964.8317	986.0667	1044.7883	1049.1223	1050.1099	1090.63	1139.6617	1222.9355	1223.469	1278.7604	1289.3309	1340.4602	1394.4083	1394.8444	1397.7384	1416.8678	1427.5073	1474.2934	1485.074	1485.3533	1487.5349	1491.0933	1498.3884	1498.4702	1517.904	2350.3716	3031.369	3031.5428	3032.5284	3037.8981	3038.2097	3103.3002	3103.6822	3109.8995	3112.5571	3113.4781	3117.122	3118.4559	3124.7204	3804.7914	4.2142	76.9153	85.8015	179.2216	191.1832	215.4386	251.2135	271.3741	272.7617	281.1655	304.9778	351.229	356.8138	405.3515	502.0562	518.0626	560.9125	581.0315	655.9476	803.5117	889.4277	930.4978	931.3187	964.8317	986.0667	1044.7883	1049.1223	1050.1098	1090.63	1139.6616	1222.9356	1223.4689	1278.7601	1289.3308	1340.4602	1394.4084	1394.8441	1397.7385	1416.8675	1427.5072	1474.2933	1485.0737	1485.3534	1487.5349	1491.0932	1498.3879	1498.4704	1517.9038	2350.3718	3031.369	3031.5427	3032.5284	3037.8982	3038.2097	3103.3002	3103.6822	3109.8995	3112.5571	3113.4781	3117.122	3118.4559	3124.7204	3804.7918
CC(O)C#CC(C)(C)C	C[C@@H](O)C#CC(C)(C)C	
InChI=1S/C8H14O/c1-7(9)5-6-8(2,3)4/h7,9H,1-4H3	InChI=1S/C8H14O/c1-7(9)5-6-8(2,3)4/h7,9H,1-4H3/t7-/m1/s1
