18
gdb 19436	3.84759	1.92647	1.59059	1.9854	70.76	-0.2516	0.081	0.3326	857.1083	0.155741	-347.785513	-347.778874	-347.77793	-347.816066	26.943	
C	 0.0850278326	 1.6124587252	 0.3259027906	-0.295727
C	 1.2432069909	 0.7297717604	-0.0521482322	-0.028218
C	 2.1254133686	 0.1970632276	 1.0749509293	-0.218901
C	 1.1391131641	-0.3571591598	 2.1279803534	-0.325629
C	-0.1073594763	-0.7376460104	 1.327431521	 0.494926
C	-0.697895343	-2.0817713203	 1.3492245388	-0.262401
O	-1.3131205349	-0.9958403639	 2.0513540477	-0.290508
C	-0.1417398653	 0.1334008573	 0.1040560554	-0.11372
H	 0.0189455282	 2.0110766158	 1.3329462917	 0.116487
H	-0.2985527072	 2.280200238	-0.437439214	 0.112641
H	 1.6839632273	 0.8555855162	-1.034737524	 0.083711
H	 2.7557203271	-0.6103362002	 0.685087599	 0.102487
H	 2.7952875211	 0.9575114227	 1.4901326302	 0.100589
H	 1.5454350081	-1.1979791815	 2.6945173718	 0.104559
H	 0.8645508183	 0.4136592559	 2.8558705977	 0.119052
H	-1.2486502835	-2.4496614713	 0.4832486779	 0.108914
H	-0.2577362631	-2.8566867863	 1.9770115431	 0.10791
H	-0.7347556929	-0.1861013154	-0.7447837174	 0.083828
120.0325	232.6807	328.9525	340.5566	374.7281	468.4972	536.2467	630.7289	727.4634	807.4417	819.4521	829.8589	864.8791	911.4903	923.165	953.7192	966.1927	1001.8026	1021.9129	1059.518	1070.6353	1106.569	1116.2015	1129.7538	1160.8464	1187.6075	1205.1072	1220.6575	1253.8006	1308.6813	1317.2614	1334.089	1379.3575	1442.0033	1483.7984	1493.0905	1508.899	1532.8635	3036.6379	3053.4574	3069.5045	3074.8382	3105.7656	3132.8887	3153.7032	3168.4292	3179.9251	3216.5942
C1C2CCC3(CO3)C12	C1[C@H]2CC[C@]3(CO3)[C@@H]12	
InChI=1S/C7H10O/c1-2-7(4-8-7)6-3-5(1)6/h5-6H,1-4H2	InChI=1S/C7H10O/c1-2-7(4-8-7)6-3-5(1)6/h5-6H,1-4H2/t5-,6+,7+/m1/s1
