20
gdb 113842	3.15342	1.06184	0.92334	3.9303	76.66	-0.219	0.0594	0.2785	1316.9491	0.169637	-440.218234	-440.208854	-440.20791	-440.252805	35.027	
O	 0.1479747745	 1.2874516257	 0.1843760895	-0.407337
C	-0.034533488	-0.1194664344	 0.1280450249	-0.118826
C	-1.4910373359	-0.4625737309	-0.103718958	 0.009158
C	-2.5645916076	 0.5614185366	 0.0361839683	-0.25149
N	-2.2385003022	-0.0006525295	-1.2740838187	-0.11425
C	-1.6181001116	 0.840951419	-2.2651316941	-0.009973
C	-1.0592380114	 0.138047165	-3.4915594845	-0.346193
C	-2.3760259969	 0.8736150747	-3.5700015148	 0.131937
O	-3.5658721106	 0.1585252518	-3.6579749908	-0.434815
H	 1.0898135239	 1.4709731761	 0.124201204	 0.292798
H	 0.5724471219	-0.564708565	-0.6751923563	 0.106558
H	 0.2751371224	-0.5932789247	 1.0734774185	 0.099118
H	-1.718449284	-1.4920019077	 0.1703815167	 0.094378
H	-3.5355921885	 0.2913288621	 0.4422447132	 0.113397
H	-2.2397272412	 1.5776038492	 0.2390102052	 0.139194
H	-1.1089097251	 1.7338285121	-1.9134703987	 0.098259
H	-0.1805327543	 0.5622755287	-3.9660045292	 0.105118
H	-1.1158888739	-0.9451647578	-3.5059298599	 0.115274
H	-2.4179282282	 1.8064569247	-4.1240680786	 0.095718
H	-3.6342030034	-0.3137107856	-2.8126969965	 0.281978
51.5678	113.2092	124.5077	194.2797	208.5071	232.6473	280.173	375.7816	432.2137	471.3738	501.1092	579.0287	644.964	736.7185	777.3555	805.5653	833.2812	903.9731	957.0221	978.6411	1013.2877	1023.7853	1042.8636	1067.667	1086.841	1108.755	1116.8532	1126.9115	1139.3286	1172.9935	1190.569	1222.8661	1240.0255	1280.3594	1322.5453	1353.4287	1377.7124	1418.7818	1436.6898	1457.4053	1480.6182	1506.1132	1510.754	2970.9528	3002.6968	3110.2905	3115.7383	3127.6109	3140.4618	3155.5841	3203.2559	3221.4883	3678.3127	3836.4454
OCC1CN1C1CC1O	OC[C@H]1CN1[C@H]1C[C@H]1O	
InChI=1S/C6H11NO2/c8-3-4-2-7(4)5-1-6(5)9/h4-6,8-9H,1-3H2	InChI=1S/C6H11NO2/c8-3-4-2-7(4)5-1-6(5)9/h4-6,8-9H,1-3H2/t4-,5+,6-,7?/m1/s1
