19
gdb 69465	5.19094	0.80969	0.76194	3.3338	77.26	-0.2458	-0.0191	0.2266	1500.649	0.156692	-423.004368	-422.995265	-422.994321	-423.039024	33.102	
C	 0.1331250793	 1.5984798648	 0.125937093	-0.500294
C	-0.0831630842	 0.1221195364	 0.1770958216	 0.424639
C	-1.4123631966	-0.6533634926	 0.2081226621	-0.319122
C	-0.6695130093	-1.8111026316	 0.9799578131	-0.020701
C	-0.6093281741	-3.2067139957	 0.3498547249	-0.287988
C	-1.9681432733	-3.8597776585	 0.2671245457	 0.156939
O	-2.2636319214	-4.9072863025	 0.7837806346	-0.240343
C	 0.6150554271	-0.9696556648	 0.8809699968	-0.060544
O	 0.8524175983	-0.7281177117	-0.5117040346	-0.284226
H	 1.1908983343	 1.8350004573	 0.2676502469	 0.13699
H	-0.1798865865	 2.0031586202	-0.8432412785	 0.133756
H	-0.4487750533	 2.1031118898	 0.9038565627	 0.126525
H	-2.1868676672	-0.1759626991	 0.8128470529	 0.110958
H	-1.8187187632	-0.8964387936	-0.7773106689	 0.108667
H	-1.0214174831	-1.8698419325	 2.0144104508	 0.090647
H	-0.2133981515	-3.0968092778	-0.6687840987	 0.133523
H	 0.0559532961	-3.866124979	 0.9158903233	 0.117602
H	-2.7215857986	-3.2853288293	-0.3214201943	 0.07168
H	 1.4788248672	-0.9663523798	 1.5374876763	 0.101293
51.6064	75.7799	130.0727	170.3074	199.5297	271.843	315.6312	398.9883	412.06	490.9307	563.8997	654.6169	719.1628	800.8067	825.2478	867.5606	899.1939	932.0147	937.9839	1000.8278	1010.907	1041.3144	1061.3478	1100.0354	1131.3697	1163.3272	1205.6371	1218.874	1236.033	1259.0532	1263.4627	1308.0455	1356.4748	1405.5467	1431.9283	1454.2804	1466.3825	1477.303	1486.1391	1497.5676	1831.5198	2856.1549	3025.9761	3034.9596	3060.9	3065.7762	3095.5556	3097.1987	3120.2702	3122.8743	3175.5951
CC12CC(CC=O)C1O2	C[C@]12C[C@@H](CC=O)[C@H]1O2	
InChI=1S/C7H10O2/c1-7-4-5(2-3-8)6(7)9-7/h3,5-6H,2,4H2,1H3	InChI=1S/C7H10O2/c1-7-4-5(2-3-8)6(7)9-7/h3,5-6H,2,4H2,1H3/t5-,6-,7+/m1/s1
