16
gdb 61191	3.72266	0.8319	0.78656	5.1434	70.26	-0.2927	0.0008	0.2935	1429.476	0.123838	-434.078832	-434.06911	-434.068165	-434.114135	33.918	
N	 0.1762442967	 1.55668527	 0.0027999813	-0.519223
C	 0.0729933834	 0.0943964408	-0.0091002551	-0.150572
C	 0.5933151925	-0.5178609422	-1.2459047054	 0.269661
N	 1.0016522437	-0.9672390687	-2.2293261735	-0.308975
C	 0.8133770904	-0.4713074268	 1.2373156128	 0.152564
O	 2.1058561026	 0.0732916641	 1.3375268029	-0.42037
C	-0.0358660981	-0.2007632152	 2.4991591353	-0.39496
C	 0.6343022495	-0.6171458241	 3.7270471543	 0.269135
N	 1.1539696871	-0.946408187	 4.7045705736	-0.295258
H	 1.079687592	 1.8332145898	-0.3700686649	 0.255402
H	-0.5245694316	 1.9674275686	-0.6049076637	 0.255914
H	-0.9868225768	-0.1737568563	 0.0668405519	 0.133913
H	 0.9506335137	-1.5490432434	 1.1139855134	 0.133515
H	 2.0185045787	 0.9997767778	 1.5931185496	 0.295667
H	-0.2599890835	 0.8713347282	 2.5515947323	 0.167729
H	-0.9944670704	-0.7270122057	 2.4254445153	 0.155859
56.5804	74.8089	109.8926	176.0176	195.5747	221.8787	275.514	323.523	373.8492	400.3573	457.2284	483.6499	545.591	609.1159	721.8374	842.3681	871.1788	911.9529	939.8186	1001.9703	1033.9776	1075.5553	1138.6741	1183.1118	1197.275	1282.2236	1309.901	1348.6179	1370.3652	1391.3313	1426.2144	1471.8705	1659.0588	2352.505	2368.841	3041.0963	3057.1953	3078.0488	3094.2049	3509.3762	3587.072	3789.5224
NC(C#N)C(O)CC#N	N[C@@H](C#N)[C@@H](O)CC#N	
InChI=1S/C5H7N3O/c6-2-1-5(9)4(8)3-7/h4-5,9H,1,8H2	InChI=1S/C5H7N3O/c6-2-1-5(9)4(8)3-7/h4-5,9H,1,8H2/t4-,5-/m0/s1
