17
gdb 85458	2.63226	1.44515	1.15163	2.5388	68.12	-0.244	-0.0212	0.2227	1083.4835	0.134463	-458.967123	-458.958848	-458.957904	-459.000292	31.313	
O	-0.1375940059	 1.5159764256	 0.0603963795	-0.441963
C	-0.0141479066	 0.0987163641	 0.0124062825	 0.026911
C	 0.6001675007	-0.4606639293	 1.3016334521	-0.359003
C	-0.5650764011	-0.4840840156	 2.3027150461	 0.410259
O	-0.4668684694	-0.5333834278	 3.4988441222	-0.306544
C	-1.8792061842	-0.43234221	 1.5064074034	-0.403158
C	-1.4380172838	-0.452631924	 0.0558692243	 0.440619
C	-2.3179308523	-0.4604514336	-1.1085522965	-0.253692
O	-1.6518037395	-1.6585577492	-0.6841142297	-0.283552
H	 0.7357696532	 1.8897325897	 0.2164825716	 0.289715
H	 0.5025440912	-0.2342383604	-0.896183151	 0.081543
H	 0.9254186877	-1.4979247807	 1.1457692469	 0.144282
H	 1.4548617801	 0.1015474823	 1.6863878613	 0.118953
H	-2.5313840934	-1.2706839359	 1.7620041391	 0.144365
H	-2.4000276935	 0.4965073738	 1.7617239478	 0.150267
H	-3.3973868543	-0.4535218081	-0.9659829645	 0.119298
H	-1.9699348989	-0.0394540108	-2.0505068249	 0.121701
63.5972	97.831	212.9727	275.7624	292.7371	335.8755	379.0012	460.0202	468.3526	498.5077	535.6359	672.1524	740.5868	802.5913	830.4748	852.5381	911.8087	931.5828	968.9705	1013.3766	1060.2004	1122.8052	1126.1882	1147.9706	1158.6969	1190.6017	1200.7619	1244.6275	1265.856	1278.1557	1345.5375	1389.6694	1421.257	1438.7058	1461.1728	1536.222	1857.8261	3027.9978	3041.0435	3061.8052	3086.7149	3105.8161	3118.9151	3174.0431	3815.3126
OC1CC(=O)CC11CO1	O[C@H]1CC(=O)C[C@]21CO2	
InChI=1S/C6H8O3/c7-4-1-5(8)6(2-4)3-9-6/h5,8H,1-3H2	InChI=1S/C6H8O3/c7-4-1-5(8)6(2-4)3-9-6/h5,8H,1-3H2/t5-,6+/m0/s1
