20
gdb 124572	4.01015	0.90667	0.82164	2.708	80.94	-0.2601	-0.0082	0.2519	1457.0523	0.17061	-403.157414	-403.148317	-403.147373	-403.192295	33.468	
C	 0.04956046	 1.5246297271	-0.029638219	-0.39226
C	 0.0560741157	-0.0017729967	 0.1190925648	 0.050908
C	 0.6256814384	-0.417263081	 1.4811512576	-0.388587
C	-1.3673911973	-0.5615703626	-0.1212221655	-0.308753
C	-1.4393581162	-2.0593917932	-0.1772732275	 0.37903
N	-1.276734986	-2.6794161876	-1.324592531	-0.200728
O	-1.3772993308	-4.040637861	-1.0459042363	-0.16241
C	-1.6038630776	-4.1965511556	 0.2647222192	 0.079034
C	-1.657796262	-2.991323877	 0.8831240602	-0.326443
H	 1.0563432442	 1.9354029176	 0.0972467104	 0.112761
H	-0.3165910527	 1.8298398701	-1.0153291321	 0.114576
H	-0.5954633846	 1.990423581	 0.7253984972	 0.111329
H	 0.6998540353	-0.42137247	-0.6647329651	 0.093191
H	 0.0080260381	-0.0259621249	 2.2993619766	 0.106991
H	 0.6751552653	-1.5047572549	 1.5870432173	 0.120357
H	 1.6381716462	-0.0230572597	 1.6153780314	 0.114361
H	-2.0370381228	-0.1977605861	 0.6679244709	 0.103163
H	-1.7437309241	-0.1685950756	-1.0707730814	 0.123656
H	-1.7090531272	-5.2148857865	 0.6061540076	 0.149807
H	-1.8304439219	-2.7845398335	 1.9260328647	 0.120016
35.3269	72.3114	116.2956	225.421	251.9449	292.4932	320.2974	338.6903	410.7294	420.9184	615.2697	673.1985	768.7877	800.8331	829.0121	871.817	878.5733	912.923	930.7206	943.5906	956.2269	966.9523	1010.449	1079.5968	1114.2761	1140.1462	1162.7146	1190.9924	1243.6677	1294.9889	1319.6358	1366.3563	1370.5875	1399.8884	1420.8707	1448.3426	1474.2926	1483.553	1488.8577	1494.4138	1504.5425	1510.8828	1605.4671	3020.3531	3022.3487	3026.1096	3037.7138	3086.3732	3087.4093	3095.5501	3102.4432	3109.6758	3259.6633	3284.6017
CC(C)CC1=NOC=C1	CC(C)Cc1nocc1	
InChI=1S/C7H11NO/c1-6(2)5-7-3-4-9-8-7/h3-4,6H,5H2,1-2H3	InChI=1S/C7H11NO/c1-6(2)5-7-3-4-9-8-7/h3-4,6H,5H2,1-2H3
