19
gdb 36340	5.01802	0.79984	0.76001	1.236	81.94	-0.2444	0.0474	0.2919	1506.8326	0.157545	-385.813711	-385.804661	-385.803717	-385.8482	33.393	
C	-0.0513308583	-1.135536397	-0.5603218043	-0.443349
C	-0.0205589926	-0.0107656576	-0.138245235	 0.310958
C	 0.0435901003	 1.3534291938	 0.3772555786	-0.386847
C	 1.4328754153	 1.9663112772	 0.2645422885	-0.058837
C	 1.870019406	 2.6316200727	-1.0204022112	-0.343907
C	 1.6000016765	 3.4542368998	 0.2031080092	 0.273154
C	 0.5652260766	 4.557411913	 0.4147925109	-0.137414
O	 1.5199506247	 5.3356501156	 1.1680310638	-0.275463
C	 2.5545721813	 4.3420459389	 0.9954806559	-0.136893
H	-0.0886636925	-2.1281404599	-0.935150408	 0.195878
H	-0.6776266511	 1.9804966817	-0.1635017339	 0.12861
H	-0.2807033606	 1.3606101407	 1.4265977639	 0.134716
H	 2.2010721708	 1.4201944322	 0.8063790042	 0.097742
H	 2.8991351238	 2.5085815215	-1.3428215375	 0.116605
H	 1.1513044569	 2.6809797764	-1.8337839447	 0.117601
H	 0.2318533	 5.0810930709	-0.4909711607	 0.102498
H	-0.313895848	 4.2933796124	 1.018452657	 0.101101
H	 2.9027727264	 3.9399933192	 1.9564116969	 0.101505
H	 3.4144691645	 4.7371913687	 0.4381746264	 0.102341
51.8338	86.1989	110.8068	181.6904	211.1131	321.4696	344.2237	383.3524	427.4983	485.0482	601.6461	620.0079	639.7853	831.2532	854.4195	868.444	888.1254	898.2309	944.3051	981.4563	992.4891	1031.6266	1046.9279	1061.8775	1103.671	1130.8242	1143.665	1152.6918	1162.6625	1212.2724	1258.134	1303.7422	1314.0379	1332.73	1380.8294	1440.093	1467.3288	1502.6755	1510.5143	1535.0602	2239.9662	2992.8124	3004.117	3012.8772	3037.0651	3040.3	3042.5164	3118.6074	3140.3464	3203.6506	3507.0782
C#CCC1CC11COC1	C#CC[C@H]1CC21COC2	
InChI=1S/C8H10O/c1-2-3-7-4-8(7)5-9-6-8/h1,7H,3-6H2	InChI=1S/C8H10O/c1-2-3-7-4-8(7)5-9-6-8/h1,7H,3-6H2/t7-/m0/s1
