19
gdb 96535	2.3916	1.52754	1.02913	2.6781	71.65	-0.2539	-0.0316	0.2222	1161.5369	0.159897	-460.183993	-460.175669	-460.174725	-460.217027	32.027	
O	 0.1870664412	 1.398357291	 0.1219477713	-0.441702
C	 0.0836981929	 0.0011600971	 0.0598885196	 0.053608
C	-1.391455993	-0.4299448501	 0.2418502902	-0.227348
C	-1.5955710848	-1.8915455148	 0.6510192334	-0.205968
C	-1.072048162	-2.9155402488	-0.354112402	-0.07533
O	 0.3393944304	-2.8335688418	-0.525718311	-0.235978
C	 0.7725169563	-1.9791440098	-1.5499162678	-0.178424
C	 0.6516135153	-0.4839129712	-1.2716712164	 0.325452
O	 1.0097910008	 0.3238525193	-2.1028818501	-0.329219
H	 0.5499254565	 1.6685891742	-0.7377327819	 0.292352
H	 0.6806717564	-0.4622390839	 0.8630213052	 0.098923
H	-1.7937907369	 0.2266846833	 1.0188972046	 0.124887
H	-1.9493684225	-0.2001375736	-0.6753541008	 0.102273
H	-1.1013508952	-2.0752290461	 1.6131570604	 0.112797
H	-2.6653889702	-2.077379349	 0.806706111	 0.103136
H	-1.274533162	-3.9293052739	 0.0066449134	 0.113374
H	-1.5762959725	-2.8020087566	-1.3269125458	 0.092552
H	 1.8361473006	-2.1864026983	-1.714278429	 0.147549
H	 0.2568693386	-2.1815655472	-2.5026345241	 0.127066
71.8781	119.1655	227.521	270.8886	311.9216	354.4184	386.9377	398.6547	452.4228	504.5837	535.9077	588.3349	618.7159	765.8052	829.9909	875.1081	916.4808	931.0365	996.7744	1035.5709	1083.3804	1103.4516	1117.6251	1138.9289	1189.7338	1223.2448	1241.5395	1272.8266	1300.5417	1325.0432	1334.4729	1365.5321	1373.0159	1392.6217	1411.5677	1445.5605	1449.0077	1474.5841	1488.145	1501.3349	1790.5882	2973.0055	2981.9698	2986.8855	3027.0093	3028.8415	3069.2043	3071.1916	3075.0102	3090.0277	3668.7704
OC1CCCOCC1=O	O[C@H]1CCCOCC1=O	
InChI=1S/C6H10O3/c7-5-2-1-3-9-4-6(5)8/h5,7H,1-4H2	InChI=1S/C6H10O3/c7-5-2-1-3-9-4-6(5)8/h5,7H,1-4H2/t5-/m0/s1
