21
gdb 103707	2.92418	1.16068	0.95364	1.6981	86.03	-0.255	0.0284	0.2834	1324.824	0.177789	-387.053017	-387.042224	-387.041279	-387.088718	39.63	
C	 0.4599398061	 1.3285263359	 0.4129984085	-0.3766
C	-0.309893144	 0.1589648688	-0.2174495939	-0.254748
C	 0.4161380091	-0.4361741234	-1.4173509618	 0.355306
C	 0.3597023613	 0.4105590125	-2.6734614806	-0.470715
O	 1.7058891541	-1.004604008	-1.1352164859	-0.316979
C	 0.655353827	-1.908092684	-1.5353292682	 0.114142
C	 0.2202219981	-2.9198489463	-0.4900784072	-0.474606
C	 0.8063486279	-2.4957043484	-2.8517552619	 0.298739
C	 0.9059107824	-3.0404317242	-3.9192464112	-0.429456
H	 1.4602460045	 1.0046709471	 0.7140074776	 0.13653
H	 0.5710503216	 2.1682475825	-0.2795076319	 0.119246
H	-0.0625261523	 1.6986873069	 1.2998531249	 0.113054
H	-0.4777582105	-0.6036341415	 0.5456166649	 0.101329
H	-1.3010762622	 0.4942583181	-0.5462068763	 0.100899
H	 0.7630447609	 1.4089073555	-2.4781719362	 0.125213
H	 0.9382918803	-0.0428834978	-3.4782959015	 0.141382
H	-0.6760551604	 0.5264599807	-3.0102868429	 0.120161
H	 0.2403118355	-2.4907540848	 0.5116776784	 0.132586
H	-0.7873023874	-3.2886648502	-0.7057862145	 0.130579
H	 0.9019328621	-3.7750773621	-0.5064335653	 0.137712
H	 1.002705396	-3.5073288274	-4.868299425	 0.196227
45.9327	105.5374	130.5041	149.614	169.2441	221.182	245.8978	258.9406	304.7958	372.1416	407.8031	418.1469	473.111	561.3293	613.1966	626.6383	656.5285	680.2707	698.4578	780.769	871.0315	880.5778	957.565	1003.6935	1019.8271	1053.5519	1090.7243	1133.5939	1153.3726	1194.8275	1243.1925	1298.0747	1356.6073	1403.7681	1407.5944	1409.6721	1422.8873	1475.2555	1479.1566	1487.8647	1493.0707	1502.0818	1503.2154	1513.2549	2231.4719	3038.967	3042.7424	3045.6509	3050.3127	3096.2715	3104.6577	3114.1599	3115.0873	3122.7352	3150.7775	3152.1313	3500.9293
CCC1(C)OC1(C)C#C	CC[C@@]1(C)O[C@]1(C)C#C	
InChI=1S/C8H12O/c1-5-7(3)8(4,6-2)9-7/h1H,6H2,2-4H3	InChI=1S/C8H12O/c1-5-7(3)8(4,6-2)9-7/h1H,6H2,2-4H3/t7-,8-/m1/s1
