14
gdb 19679	4.78166	1.87268	1.74869	4.4575	64.3	-0.2631	0.0061	0.2693	760.8489	0.109175	-341.523983	-341.518034	-341.51709	-341.55402	23.186	
N	-0.0315360582	-1.1823044869	-0.0006996761	-0.326943
C	-0.0099463353	-0.026892365	 0.0254811659	 0.292177
C	 0.0048950875	 1.4343156243	 0.0810554849	-0.092267
C	-0.2661051769	 2.1498584116	 1.4239094524	-0.089431
C	 0.8062345624	 1.5374459083	 2.3637317607	-0.255037
C	 1.8267693725	 2.1904197414	 1.4344694351	-0.026728
C	 0.8355473305	 3.1659402446	 0.9291357193	-0.055836
N	 1.3470808972	 2.1109687885	 0.0030829985	-0.145285
H	-0.6084770103	 1.8323514929	-0.7314170714	 0.131588
H	-1.277249199	 2.3568109602	 1.7653339239	 0.093836
H	 0.8048484727	 2.0328862558	 3.3372940813	 0.118467
H	 0.8135045542	 0.4514844094	 2.4924326014	 0.130549
H	 2.8961272487	 2.2956700121	 1.5548676161	 0.112625
H	 0.854916014	 4.2251187028	 0.713369098	 0.112284
144.0419	167.8128	390.7629	420.0645	542.9666	565.5971	711.1966	754.8671	796.4887	829.833	855.2399	914.632	935.843	964.3685	984.2186	997.9308	1026.6971	1039.603	1071.3985	1124.4198	1139.9041	1170.3005	1208.8349	1223.9051	1250.087	1285.7804	1336.7771	1361.5862	1498.2885	2353.3574	3062.9402	3084.1276	3122.16	3151.4102	3210.4615	3224.1998
N#CC1C2CC3C2N13	N#C[C@H]1[C@H]2C[C@@H]3[C@H]2N13	
InChI=1S/C6H6N2/c7-2-5-3-1-4-6(3)8(4)5/h3-6H,1H2	InChI=1S/C6H6N2/c7-2-5-3-1-4-6(3)8(4)5/h3-6H,1H2/t3-,4-,5+,6+,8?/m1/s1
