17
gdb 122807	3.58149	0.86517	0.73717	2.1002	67.24	-0.2535	-0.1117	0.1418	1490.6545	0.132274	-496.09351	-496.08366	-496.082716	-496.129925	33.537	
O	-0.508155365	 1.3976683623	-0.9133324674	-0.43095
C	-0.3580815927	 0.2536128568	-0.1071831583	-0.042529
C	-1.6593142121	-0.516166497	 0.0558156397	-0.093852
O	-1.9686778581	-1.1356816396	-1.1967518551	-0.239603
C	-3.3044489014	-1.106269329	-1.5891015596	-0.188415
C	-3.6503469889	 0.1378737665	-2.3960543397	 0.274012
O	-2.8683416161	 1.0178858096	-2.6708268445	-0.263874
C	-5.0927591183	 0.2509662283	-2.9039529333	 0.09013
O	-5.9309009809	-0.581411879	-2.6769206507	-0.211488
H	-1.0185555719	 1.1417911899	-1.6944215566	 0.298798
H	 0.4045534634	-0.4371488698	-0.5035339257	 0.093989
H	-0.0166523814	 0.5918020427	 0.8782404856	 0.102602
H	-1.5636925648	-1.2928418838	 0.8283937712	 0.100867
H	-2.4551275015	 0.1789731773	 0.3532544949	 0.101458
H	-3.5008740606	-1.9761436035	-2.2311863601	 0.153084
H	-4.0128500813	-1.1911011796	-0.7506584614	 0.136507
H	-5.2788110087	 1.171452608	-3.495337649	 0.119263
37.1103	54.4225	98.2207	131.3487	161.7474	184.1041	281.8496	303.9781	393.0507	437.3765	502.0145	531.0379	534.5236	652.3856	805.0742	837.6002	885.4461	895.1491	1017.0197	1063.387	1104.3971	1129.3446	1164.565	1192.2351	1237.4068	1280.9172	1286.418	1362.2875	1382.3021	1393.2042	1403.716	1444.2043	1446.7254	1498.0077	1501.1392	1807.1465	1820.4779	2933.4257	2972.6899	2992.5278	3001.717	3043.1482	3051.354	3062.8379	3742.4592
OCCOCC(=O)C=O	OCCOCC(=O)C=O	
InChI=1S/C5H8O4/c6-1-2-9-4-5(8)3-7/h3,6H,1-2,4H2	InChI=1S/C5H8O4/c6-1-2-9-4-5(8)3-7/h3,6H,1-2,4H2
