17
gdb 97022	2.52449	1.64591	1.07442	3.5487	78.85	-0.2078	-0.0188	0.189	1117.4348	0.135432	-417.994003	-417.985535	-417.984591	-418.027125	31.421	
C	 0.01539676	 1.3766055441	 0.0161468381	-0.339765
N	 0.0184293269	-0.0751895376	-0.0243751175	-0.307558
C	-1.1014716344	-0.6684317052	-0.0303266363	 0.342482
N	-2.3948493114	-0.1386975356	-0.025252393	-0.382279
C	-3.3363148923	-1.1783637079	 0.0453686995	-0.036126
C	-2.755521645	-2.3840011861	-0.0043635352	-0.248319
C	-1.2891625295	-2.1728667239	-0.0721580205	 0.370143
C	-0.2910201737	-3.0468577178	-0.7133922455	-0.231985
O	-0.392103409	-2.9824921137	 0.7033731833	-0.267766
H	 1.0310792511	 1.748561129	-0.1381977041	 0.129141
H	-0.6291974409	 1.8207543508	-0.7589308094	 0.107512
H	-0.326871743	 1.7575819138	 0.9911006586	 0.113582
H	-2.5951111636	 0.7989376091	 0.2774983626	 0.259255
H	-4.3875576817	-0.9311113213	 0.0947320213	 0.130843
H	-3.2457928674	-3.3440755785	-0.0079530539	 0.11547
H	-0.6146547064	-3.9815999437	-1.1707618306	 0.112377
H	 0.5944705203	-2.5764730356	-1.1382916276	 0.132992
96.1314	123.8694	160.0072	186.4933	277.1606	297.1574	316.9677	392.1521	502.3748	560.0965	593.5023	704.2919	733.9667	741.5522	822.353	864.21	900.1185	918.7631	971.1157	1027.5944	1075.7875	1104.5976	1116.5488	1132.3186	1151.1295	1166.6327	1170.5046	1291.7963	1337.1029	1395.6145	1432.8901	1435.0456	1494.5616	1506.1996	1508.0618	1657.4725	1772.439	2967.8457	3014.8456	3076.2571	3103.1236	3175.0315	3233.1647	3269.5633	3669.3292
CN=C1NC=CC11CO1	CN=C1NC=C[C@]21CO2	
InChI=1S/C6H8N2O/c1-7-5-6(4-9-6)2-3-8-5/h2-3H,4H2,1H3,(H,7,8)	InChI=1S/C6H8N2O/c1-7-5-6(4-9-6)2-3-8-5/h2-3H,4H2,1H3,(H,7,8)/t6-/m1/s1
