20
gdb 11075	2.17135	2.06179	1.82877	1.1689	75.42	-0.2342	0.0804	0.3147	930.71	0.175714	-348.982528	-348.973752	-348.972808	-349.014969	33.445	
C	-0.0127368374	 1.5616439444	-0.006875993	-0.421146
C	 0.1267123626	 0.0537361394	-0.0553294154	-0.120954
C	 0.7211090145	-0.7622332741	-1.1943688442	 0.281868
C	-0.0378246676	-1.8559914587	-1.8892338621	-0.49543
C	 1.9351888096	-0.0281667044	-1.7881670974	-0.280209
C	 2.6273850911	-0.041220546	-0.3856165391	-0.290744
C	 1.3872268613	-0.7372865963	 0.1835140462	 0.338585
O	 1.4470400376	-1.7763977152	 1.1015861074	-0.463981
H	 0.8639871438	 2.0747734152	-0.4106617581	 0.120733
H	-0.8828850983	 1.894308948	-0.5839617123	 0.116626
H	-0.1492957806	 1.9103704957	 1.0232911155	 0.110937
H	-0.7267241781	-0.4726574861	 0.3718259548	 0.080751
H	-0.7009756904	-1.4574098579	-2.6669186659	 0.114543
H	 0.643916005	-2.5675885286	-2.3695503898	 0.115061
H	-0.6554267144	-2.4153626843	-1.1792941028	 0.123102
H	 2.4716110849	-0.63738245	-2.5201901699	 0.100268
H	 1.7439295314	 0.9534763573	-2.2328953347	 0.092756
H	 3.4956870262	-0.7034875649	-0.3670304746	 0.107621
H	 2.9108747236	 0.9225063092	 0.0515749988	 0.087069
H	 1.2960656554	-1.4157458627	 1.9818453664	 0.282546
158.5815	164.6107	187.0637	204.9029	240.6546	253.5886	261.7397	340.0924	388.9891	514.1783	544.4049	582.2733	708.3986	720.4838	758.5559	810.8554	921.0867	943.2746	956.8076	1014.5629	1025.3805	1081.4476	1105.3153	1114.2242	1139.9671	1185.3558	1208.7778	1229.6398	1235.4133	1245.0086	1303.4872	1332.8446	1340.7752	1413.0917	1415.3411	1470.8214	1475.6956	1486.3598	1497.8124	1499.7631	1506.6269	1524.5408	3018.3133	3028.4992	3039.8739	3050.4563	3074.3542	3082.6828	3091.9543	3097.6987	3104.1039	3112.7627	3121.2068	3794.9808
CC1C2(C)CCC12O	C[C@H]1[C@@]2(C)CC[C@@]12O	
InChI=1S/C7H12O/c1-5-6(2)3-4-7(5,6)8/h5,8H,3-4H2,1-2H3	InChI=1S/C7H12O/c1-5-6(2)3-4-7(5,6)8/h5,8H,3-4H2,1-2H3/t5-,6+,7+/m0/s1
