15
gdb 49720	3.01407	1.46557	1.11002	5.7104	69.7	-0.247	-0.0352	0.2118	1063.4662	0.113089	-453.923553	-453.915916	-453.914971	-453.956289	27.557	
N	 0.0297065749	 1.2931593118	 0.0707834798	-0.406093
C	-0.02261391	 0.0276142682	 0.0218426339	 0.065798
N	-1.2191410763	-0.6686890543	-0.0630723373	-0.097297
C	-1.4526516622	-2.1153758992	-0.0452172676	-0.064805
C	-1.6561410187	-2.7205285459	 1.3595812342	-0.090704
O	-3.050472483	-2.3289391209	 1.3701572991	-0.280133
C	-2.9726804644	-1.82235049	 0.0216934501	-0.04535
C	-2.5917440657	-0.3176053392	-0.0146675473	 0.434036
O	-3.1612538667	 0.7280301333	 0.0171624882	-0.313731
H	 0.99895244	 1.6026408706	 0.1200018667	 0.23411
H	 0.8360899276	-0.6569011644	 0.0283959381	 0.098879
H	-0.9489706288	-2.6868700857	-0.8230610703	 0.111819
H	-1.5568936992	-3.8117352292	 1.3915126796	 0.118003
H	-1.0818450745	-2.267438691	 2.1741820663	 0.121603
H	-3.7480296531	-2.2010026241	-0.6442870436	 0.113866
80.2483	145.5183	155.6592	175.2582	255.2606	382.838	456.0052	508.588	679.3815	724.6952	788.8905	820.3785	843.5667	896.4339	912.0601	985.9874	994.4058	1040.3706	1062.5098	1073.9108	1097.9474	1163.4843	1177.3491	1195.7293	1253.624	1272.3111	1304.6236	1346.5157	1387.6792	1423.8737	1507.1166	1717.9185	1906.3329	3028.5715	3030.9049	3087.514	3121.1366	3132.0932	3503.4724
N=CN1C2COC2C1=O	[NH][CH]N1[C@H]2CO[C@H]2C1=O	
InChI=1S/C5H6N2O2/c6-2-7-3-1-9-4(3)5(7)8/h2-4,6H,1H2	InChI=1S/C5H6N2O2/c6-2-7-3-1-9-4(3)5(7)8/h2-4,6H,1H2/t3-,4+/m0/s1
