13
gdb 47276	2.29184	1.80639	1.0721	4.1496	58.96	-0.2531	-0.1311	0.122	1032.5198	0.087404	-493.713172	-493.705314	-493.70437	-493.746772	27.731	
O	 0.0160236914	 0.1687725849	 0.8018045676	-0.250153
C	-0.0276802517	 1.2202510742	 0.2234525146	 0.279287
C	-1.3116158273	 2.0100719351	-0.0190858045	-0.199723
O	-1.1545568835	 2.9358839086	-1.0752010497	-0.237593
C	-0.2331094493	 3.9653834799	-0.7781573612	-0.199724
C	 1.1841072955	 3.4171936528	-0.6294363687	 0.279288
O	 2.1770161312	 4.0865851551	-0.7191852451	-0.250153
C	 1.2676891486	 1.8904812245	-0.3264789329	 0.224912
O	 2.2879548017	 1.2752629914	-0.4615952815	-0.23426
H	-2.1103849708	 1.3185998753	-0.2978077593	 0.161934
H	-1.6075548212	 2.5081858018	 0.9202897326	 0.132126
H	-0.2555873865	 4.681329522	-1.6032443204	 0.161934
H	-0.5064533381	 4.5044469343	 0.1453239285	 0.132125
39.3979	65.9745	228.0388	313.3291	324.955	334.6196	424.0714	429.593	511.3213	548.9568	555.2088	624.3598	778.5659	912.2952	971.0062	987.7647	1033.1969	1136.5124	1165.2876	1169.3414	1234.5185	1299.8631	1339.3378	1369.5987	1449.1414	1461.6919	1817.518	1831.1113	1848.0905	2968.226	2969.6578	3110.6402	3112.7623
O=C1COCC(=O)C1=O	O=C1COCC(=O)C1=O	
InChI=1S/C5H4O4/c6-3-1-9-2-4(7)5(3)8/h1-2H2	InChI=1S/C5H4O4/c6-3-1-9-2-4(7)5(3)8/h1-2H2
