22
gdb 88852	3.65891	1.02396	0.87103	1.2691	88.8	-0.2181	0.0242	0.2424	1396.1489	0.195083	-367.190794	-367.181904	-367.18096	-367.224838	33.812	
C	-0.4822172217	 1.3222723097	 0.0008816293	-0.312022
N	 0.0198198823	-0.0425994395	 0.0377201355	-0.088175
C	 1.4021428377	-0.2671139315	-0.3676157573	-0.266483
C	 0.9917048923	-0.4480951189	 1.0560362368	 0.017142
C	 1.5085994613	 0.4638446838	 2.1548101091	-0.031907
C	 0.5716192385	 0.5384834459	 3.3954394553	-0.228154
C	 1.5025889596	 0.5632229383	 4.6346699219	-0.255992
C	 2.804248324	 0.024331109	 4.0904398637	-0.072564
C	 2.8112020175	-0.0235672707	 2.760317826	-0.070817
H	 0.2723079786	 2.0996914083	 0.1993355517	 0.099381
H	-0.8983525936	 1.5118092339	-0.9940681128	 0.121555
H	-1.2904947083	 1.4334177176	 0.7311400086	 0.122347
H	 1.5831962038	-1.1209412152	-1.0160208177	 0.110923
H	 2.0118207865	 0.6086858056	-0.5936149589	 0.100118
H	 0.823768613	-1.4684869825	 1.4035715968	 0.085933
H	 1.6699835019	 1.4666465311	 1.7356509288	 0.073544
H	-0.1091435303	 1.3924751109	 3.3558416669	 0.097456
H	-0.047083114	-0.3651606969	 3.4230027416	 0.106372
H	 1.6403102527	 1.5822580933	 5.0235825624	 0.104838
H	 1.1077808872	-0.0288514893	 5.4681339614	 0.103072
H	 3.6392335285	-0.2434082188	 4.7290342342	 0.091599
H	 3.6461132525	-0.3403506542	 2.1445076367	 0.091834
64.7167	86.1735	131.955	200.7908	225.6298	282.8688	352.6943	404.4241	454.8376	513.878	621.8153	745.1973	751.5853	781.2823	845.8394	858.4243	894.5982	924.0592	951.6857	973.3596	985.4757	1025.6946	1041.2228	1056.3034	1093.7386	1116.4654	1127.7713	1135.238	1160.8354	1167.7328	1196.6256	1205.6207	1226.8679	1271.8682	1290.7906	1318.5667	1323.4814	1339.2496	1379.8658	1422.9728	1448.7475	1483.0193	1489.6269	1499.3696	1500.52	1513.0939	1686.0412	2972.1752	3005.3328	3006.9799	3042.3261	3057.1331	3062.5146	3077.7565	3090.3474	3096.8853	3099.9681	3164.9526	3178.4449	3204.1799
CN1CC1C1CCC=C1	CN1C[C@H]1[C@H]1CCC=C1	
InChI=1S/C8H13N/c1-9-6-8(9)7-4-2-3-5-7/h2,4,7-8H,3,5-6H2,1H3	InChI=1S/C8H13N/c1-9-6-8(9)7-4-2-3-5-7/h2,4,7-8H,3,5-6H2,1H3/t7-,8+,9?/m1/s1
