17
gdb 31633	3.62321	1.14842	0.90864	2.7996	74.32	-0.1798	0.041	0.2208	1279.1097	0.134855	-455.153064	-455.143678	-455.142733	-455.188367	32.579	
C	 0.1491202141	 1.3455971685	 0.0584814159	-0.255096
O	-0.5060145225	 0.2054422487	-0.5171030497	-0.265118
C	 0.2505664043	-0.5425263641	-1.3175482054	 0.385569
C	 0.5067516412	-1.8535613466	-1.3448070553	-0.252935
N	 1.2718147367	-2.0920059958	-2.4984813691	-0.089915
C	 1.8124977462	-3.3581386582	-2.9328769141	-0.340004
C	 1.5076644441	-0.8985866809	-3.1406099919	 0.469019
N	 2.1947136295	-0.7243614339	-4.1943245158	-0.615579
O	 0.8481501904	 0.0764745889	-2.4069147368	-0.256506
H	 1.004335982	 1.0289408575	 0.6666380035	 0.126474
H	 0.4869677534	 2.0352941295	-0.7199660583	 0.145786
H	-0.5946460669	 1.8338159223	 0.688791339	 0.140925
H	 0.2043886401	-2.6378490234	-0.674716889	 0.14644
H	 1.0172808171	-4.1023859497	-3.0505543985	 0.129989
H	 2.2955832898	-3.1918926262	-3.8961888814	 0.17984
H	 2.5549523672	-3.743603028	-2.2234853862	 0.128548
H	 2.1962250135	 0.2525469414	-4.4706054569	 0.222562
53.0348	61.9624	102.8427	142.9004	162.043	225.2269	289.7013	356.1247	398.6012	563.476	583.7965	647.4664	679.4789	687.3717	718.6783	733.5393	844.0431	951.2417	1015.9656	1031.5043	1065.7416	1158.1366	1167.6376	1177.0452	1202.9615	1216.4034	1315.2489	1336.4373	1429.3419	1466.3599	1480.9941	1485.8341	1494.4987	1503.3576	1514.3979	1743.4453	1795.3809	3020.3938	3029.0082	3074.3796	3107.588	3152.246	3154.6174	3299.096	3555.049
COC1=CN(C)C(=N)O1	COC1=CN(C)[C@H]([NH])O1	
InChI=1S/C5H8N2O2/c1-7-3-4(8-2)9-5(7)6/h3,6H,1-2H3	InChI=1S/C5H9N2O2/c1-7-3-4(8-2)9-5(7)6/h3,5-6H,1-2H3/t5-/m0/s1
