17
gdb 80061	2.50654	1.94832	1.4959	1.5777	71.29	-0.2161	0.0027	0.2189	919.	0.136723	-421.790617	-421.783338	-421.782393	-421.821769	29.986	
O	 0.0752478356	 1.4559463174	-0.0354179966	-0.441437
C	-0.0067352373	 0.0588404582	 0.0289607446	 0.075424
C	 0.2705570904	-0.7177408534	 1.3923011642	-0.151761
C	-0.2652704126	 0.1338164305	 2.5228972439	-0.106445
C	-1.6004364597	 0.181824305	 2.4334547849	-0.10028
C	-2.0574686987	-0.7176006368	 1.3331509701	-0.160096
C	-0.9154302466	-1.6509993591	 0.9835716683	-0.128003
C	-1.3499574919	-0.6507531973	-0.0501594253	 0.336881
O	-2.052748666	-0.9176074731	-1.2082727726	-0.464089
H	-0.4092576697	 1.7968352696	 0.727192961	 0.276209
H	 0.6513079113	-0.3354425274	-0.7488264217	 0.103019
H	 1.2703503649	-1.1310485319	 1.5112182285	 0.071992
H	 0.3596536014	 0.7058013177	 3.1969057681	 0.104973
H	-2.2712403089	 0.7766022183	 3.0414633499	 0.100153
H	-3.0749273296	-1.0865323479	 1.2771437433	 0.092053
H	-0.9500934173	-2.7327361304	 0.9735577088	 0.099977
H	-2.4905734854	-0.1058758294	-1.4880644894	 0.291428
177.2682	214.4202	256.9084	288.022	359.4823	421.4806	470.0282	509.8643	598.5347	628.0404	723.5702	726.7381	786.3604	806.6418	832.0215	853.3753	889.0586	911.7751	944.3263	982.5336	991.4728	1004.6081	1029.4829	1098.5191	1125.3661	1127.4706	1164.9431	1206.9498	1243.3382	1257.7951	1285.0506	1297.2673	1322.8045	1359.3677	1426.6271	1456.3405	1636.8167	3094.0982	3128.5989	3186.0081	3198.9606	3201.2762	3225.0486	3767.7531	3798.244
OC1C2C=CC3C2C13O	O[C@H]1[C@H]2C=C[C@@H]3[C@H]2[C@]13O	
InChI=1S/C7H8O2/c8-6-3-1-2-4-5(3)7(4,6)9/h1-6,8-9H	InChI=1S/C7H8O2/c8-6-3-1-2-4-5(3)7(4,6)9/h1-6,8-9H/t3-,4+,5-,6-,7-/m0/s1
