16
gdb 77048	3.23077	1.02907	0.8414	5.4278	69.44	-0.2873	-0.0068	0.2805	1321.2771	0.123511	-437.929397	-437.920617	-437.919673	-437.963745	30.863	
C	-0.2515624375	 1.5507886838	 0.1402161794	-0.416747
C	-0.0703770353	 0.0429822296	 0.0117484723	-0.222279
C	 0.5888536322	-0.5956999048	-1.2390573068	 0.127107
C	 1.1649431846	 0.331178517	-2.3086053415	-0.361568
C	 1.8842225359	-0.4017792339	-3.3488562024	 0.270256
N	 2.4387834846	-0.9857739373	-4.1765669988	-0.288986
O	 1.6424322498	-1.1651643772	-0.3992107833	-0.250179
C	 1.1236580739	-0.5863347975	 0.7381038181	 0.459587
O	 1.5589121627	-0.6323344078	 1.8408231064	-0.311947
H	 0.6630030405	 2.1008372211	-0.0977225499	 0.13282
H	-1.0514502634	 1.9093250798	-0.5146479405	 0.13203
H	-0.5235108408	 1.7978364849	 1.1698078514	 0.152298
H	-0.9964391804	-0.4733217636	 0.2813571405	 0.127788
H	 0.0112740496	-1.4002450163	-1.6997524206	 0.121572
H	 0.3489039357	 0.893753289	-2.7771284531	 0.162704
H	 1.8436720077	 1.0576867832	-1.8513409111	 0.165544
59.1728	94.8826	120.5055	186.7445	208.8954	237.4046	353.7543	388.1983	443.2515	518.1191	549.177	683.8836	747.4299	812.4749	854.8704	893.5778	945.5709	983.9372	1034.7142	1069.5666	1108.2605	1149.5725	1158.1733	1223.5307	1233.6275	1284.1074	1337.3297	1355.9094	1401.6038	1415.7976	1449.9365	1495.6772	1499.4063	1946.0002	2369.8567	3044.7402	3050.274	3072.4644	3088.5475	3102.8811	3117.3657	3123.9306
CC1C(CC#N)OC1=O	C[C@H]1[C@@H](CC#N)OC1=O	
InChI=1S/C6H7NO2/c1-4-5(2-3-7)9-6(4)8/h4-5H,2H2,1H3	InChI=1S/C6H7NO2/c1-4-5(2-3-7)9-6(4)8/h4-5H,2H2,1H3/t4-,5+/m0/s1
