16
gdb 129062	4.12005	1.39103	1.05388	4.5177	84.61	-0.1967	-0.0315	0.1652	1093.114	0.127421	-396.917605	-396.910514	-396.909569	-396.949484	27.174	
N	-0.0072434823	 1.3356721476	 0.0276757249	-0.554043
C	-0.0256419507	 0.0447057675	 0.0322732979	 0.297993
C	 1.1861282365	-0.8085204897	 0.0271867956	-0.06641
N	 1.2317182352	-2.1105639405	 0.0309759476	-0.240786
N	 0.0262719355	-2.6739586699	 0.0406143992	 0.026746
C	-0.4941195567	-4.0403791001	 0.0490958151	-0.16327
C	-1.9210536891	-3.3711091492	 0.0563172316	-0.377652
C	-1.1840030892	-2.0393232166	 0.0467686717	 0.473817
C	-1.2864647372	-0.6968235347	 0.0431978453	-0.384288
H	 0.9574726681	 1.6746745557	 0.0200631246	 0.198834
H	 2.1533620022	-0.311675362	 0.0194779544	 0.11829
H	-0.2456875051	-4.617644319	-0.8459862658	 0.135125
H	-0.2339370178	-4.6108263956	 0.9452373435	 0.135117
H	-2.5243794672	-3.5739618575	-0.8299600207	 0.142593
H	-2.512007485	-3.5677388808	 0.9523093587	 0.14259
H	-2.2261319571	-0.160980925	 0.0479862563	 0.115344
82.6651	122.2872	211.4319	357.0855	451.3393	472.0492	490.5716	538.3362	645.2035	719.334	757.8752	802.1313	823.3205	846.8606	879.7207	908.3944	931.8802	934.3011	1061.4481	1114.9594	1136.3586	1140.1201	1181.2845	1200.4985	1216.9006	1282.2805	1319.8977	1357.1605	1372.1297	1453.5369	1479.9662	1518.8434	1560.2872	1645.2846	1702.9339	3053.6891	3088.4929	3104.8104	3142.609	3162.847	3225.7273	3434.3
N=C1C=NN2CCC2=C1	[NH]C1=C[C@H]2N(N=C1)CC2	
InChI=1S/C6H7N3/c7-5-3-6-1-2-9(6)8-4-5/h3-4,7H,1-2H2	InChI=1S/C6H8N3/c7-5-3-6-1-2-9(6)8-4-5/h3-4,6-7H,1-2H2/t6-/m0/s1
