21
gdb 88984	2.93584	1.13777	1.04403	3.1204	78.43	-0.2217	0.0861	0.3078	1266.4044	0.181761	-424.189298	-424.180071	-424.179127	-424.223495	35.166	
C	 0.0213764402	 1.641372635	 0.3263657522	-0.425671
C	 0.7016934566	 0.3034624504	 0.1973008047	 0.070438
O	 2.0046346062	 0.1687616718	 0.7945224982	-0.266588
C	 0.9227892746	-0.6448421782	 1.3051895814	 0.05171
C	 0.4731144985	-0.4264594211	 2.7326742876	-0.267096
C	 1.5150132192	-0.7378926612	 3.807943516	-0.068167
C	 2.9458340579	-1.1635554854	 3.4860920195	-0.3478
C	 2.6694460159	 0.2154950212	 4.0180763224	 0.153436
O	 2.8084063236	 1.3609434198	 3.2377706696	-0.440842
H	 0.1708198223	 2.0761997247	 1.3161457553	 0.145313
H	 0.4268433015	 2.3388623855	-0.413647544	 0.133753
H	-1.0533813265	 1.5430839978	 0.1392060098	 0.127077
H	 0.6584144222	-0.1284240425	-0.8041635935	 0.097484
H	 1.0398511832	-1.6941520927	 1.0312940864	 0.100761
H	 0.127606576	 0.6038114618	 2.8647536636	 0.116764
H	-0.4009362477	-1.0710095153	 2.8845171791	 0.107431
H	 1.0894302371	-1.1706605513	 4.7088387224	 0.083447
H	 3.4196071414	-1.8947332658	 4.1328009293	 0.10569
H	 3.2343500069	-1.2411270691	 2.4435840064	 0.130239
H	 2.9578913804	 0.4317746674	 5.0420044865	 0.094894
H	 2.6812841108	 1.1203903574	 2.3062971671	 0.297727
54.2749	105.9182	160.0568	197.1244	209.4268	256.8142	320.9854	407.3902	440.7757	497.3935	530.4795	576.0382	599.1712	747.1838	756.1891	788.5985	819.0742	854.4457	909.3789	957.8538	976.1734	1005.6901	1037.0355	1063.3012	1088.6143	1105.5425	1123.8118	1130.0589	1153.4476	1175.7825	1189.4517	1244.3698	1265.3091	1304.8889	1333.733	1368.2047	1373.9785	1402.2901	1422.2825	1463.8652	1470.1713	1476.2243	1491.7281	1496.1516	1509.0339	3037.2689	3042.3044	3077.8168	3091.6089	3103.4686	3108.259	3132.0054	3139.0744	3141.022	3159.9309	3221.1079	3670.1576
CC1OC1CC1CC1O	C[C@H]1O[C@H]1C[C@H]1C[C@H]1O	
InChI=1S/C7H12O2/c1-4-7(9-4)3-5-2-6(5)8/h4-8H,2-3H2,1H3	InChI=1S/C7H12O2/c1-4-7(9-4)3-5-2-6(5)8/h4-8H,2-3H2,1H3/t4-,5-,6-,7+/m1/s1
