18
gdb 94101	4.0594	0.93232	0.82115	2.7045	78.85	-0.2265	-0.013	0.2135	1381.6541	0.148435	-439.125211	-439.116449	-439.115505	-439.159484	32.195	
O	-0.127324027	 1.4974027531	-0.3110893992	-0.432337
C	 0.0761885983	 0.1229516945	 0.0308787951	 0.112599
C	-1.2373249295	-0.6877392782	 0.2100292039	-0.254171
C	-1.3763041985	-1.5956216231	-1.0365293488	-0.29718
C	 0.0020431592	-1.5270617813	-1.6535650322	 0.431895
N	 0.3832644874	-2.3162680395	-2.7410590456	-0.392648
C	-0.3727567854	-3.2300123883	-3.4330510939	 0.145885
O	-1.529334199	-3.5113738887	-3.2233027159	-0.300535
C	 0.7990151408	-0.6320654978	-1.0520677871	-0.26834
H	-0.4659557937	 1.5169372707	-1.213292092	 0.269466
H	 0.6417103638	 0.1732802535	 0.9669451766	 0.084285
H	-1.1677075655	-1.3050416361	 1.1104144664	 0.107913
H	-2.0826276398	-0.0091990673	 0.344971577	 0.109701
H	-1.6569709849	-2.6203918534	-0.7851579644	 0.134938
H	-2.1348447483	-1.2522390924	-1.7479911733	 0.125758
H	 1.332848107	-2.1992301726	-3.0644625064	 0.254319
H	 0.2259307947	-3.6970997152	-4.2397012831	 0.085267
H	 1.8179252205	-0.4001693678	-1.3427398573	 0.083186
44.8396	92.2669	136.6631	180.1555	272.356	324.0882	328.9364	410.102	479.4989	514.5494	563.3192	619.795	747.3689	771.4956	837.0212	851.1372	859.5049	903.9418	976.7891	989.8062	1022.9185	1052.2163	1072.8638	1114.4676	1170.0124	1209.2801	1252.3602	1274.8563	1280.7175	1297.8286	1335.0813	1376.4323	1429.1669	1447.8194	1471.7361	1490.263	1514.8043	1701.842	1815.4622	2940.9183	3050.8351	3056.966	3065.9453	3103.6383	3116.7777	3187.3903	3603.894	3795.1963
OC1CCC(NC=O)=C1	O[C@H]1CCC(=C1)NC=O	
InChI=1S/C6H9NO2/c8-4-7-5-1-2-6(9)3-5/h3-4,6,9H,1-2H2,(H,7,8)	InChI=1S/C6H9NO2/c8-4-7-5-1-2-6(9)3-5/h3-4,6,9H,1-2H2,(H,7,8)/t6-/m0/s1
