18
gdb 50206	3.89904	1.26068	1.16807	1.1592	74.5	-0.2311	-0.0263	0.2048	1076.7071	0.149302	-401.915761	-401.908519	-401.907575	-401.94801	28.131	
O	 0.0221655768	-0.0900911442	 0.1203016868	-0.252984
C	 0.0317865926	 1.1105543124	 0.0289522049	 0.153839
C	 1.2764952406	 1.9681361445	 0.0026632397	-0.072729
C	 1.241785707	 2.9913458313	-1.1745654455	-0.283796
C	 0.8136513216	 4.3051382058	-0.5306282368	-0.006271
C	 0.4534473442	 4.1207877043	 0.8877157485	-0.058361
C	 1.3260544218	 2.8901197084	 1.2444453575	-0.0761
C	 2.5279540937	 3.8559175345	 1.1146973805	-0.167578
N	 1.6675508791	 4.936016063	 0.5198734144	-0.148095
H	-0.9225264737	 1.6864315457	-0.0349528811	 0.075696
H	 2.1434260261	 1.3028125908	-0.0358724068	 0.094173
H	 2.2172614234	 3.0660796918	-1.6646692621	 0.121632
H	 0.5241858982	 2.7002548531	-1.9494575977	 0.114673
H	 0.3100020269	 5.0521471183	-1.1344367026	 0.101168
H	-0.4001038915	 4.5317077801	 1.4131144074	 0.098587
H	 1.182882959	 2.384603736	 2.1989744345	 0.086904
H	 2.9008600281	 4.211069795	 2.0778001677	 0.117363
H	 3.375940256	 3.537772989	 0.4971365306	 0.10188
63.0487	104.5734	259.5568	323.2476	360.7543	427.7337	463.0813	677.8965	699.4038	746.9095	779.0385	828.8288	864.3976	901.0398	903.3963	916.6308	957.4557	991.2681	1009.2659	1011.216	1056.9589	1063.4937	1099.8664	1130.2333	1165.3143	1197.5181	1204.2534	1217.6942	1253.0894	1276.554	1282.0302	1310.9666	1319.18	1331.4236	1394.5388	1432.6152	1487.4835	1512.538	1832.3198	2846.2178	3037.013	3047.2879	3076.3655	3087.1713	3104.8251	3120.1208	3172.1701	3188.1278
O=CC1CC2C3C1CN23	O=C[C@H]1C[C@H]2[C@H]3[C@@H]1CN23	
InChI=1S/C7H9NO/c9-3-4-1-6-7-5(4)2-8(6)7/h3-7H,1-2H2	InChI=1S/C7H9NO/c9-3-4-1-6-7-5(4)2-8(6)7/h3-7H,1-2H2/t4-,5-,6+,7-,8?/m1/s1
