13
gdb 21251	3.55252	1.94472	1.26679	3.0748	56.66	-0.2072	0.0093	0.2166	890.2907	0.095895	-431.895237	-431.887727	-431.886783	-431.927479	26.348	
C	-0.0357306691	 1.3994162875	-0.0187784518	-0.240992
O	-0.0647385055	-0.0267959143	-0.0255294346	-0.293014
C	 0.5682038054	-0.6099539821	-1.065913017	 0.293986
C	 0.6599524983	-1.972146298	-1.264319145	 0.296657
O	 0.2145486587	-3.0490604294	-0.5876973437	-0.42916
N	 1.3678935558	-2.0801005455	-2.4077085503	-0.216076
N	 1.7026123447	-0.8644478572	-2.901113205	-0.151854
N	 1.2079876817	 0.0232263559	-2.0719621797	-0.275345
H	 0.9933716458	 1.7705676068	 0.0243092403	 0.13913
H	-0.5158476504	 1.8057130123	-0.9149056352	 0.139186
H	-0.5838099131	 1.7049530905	 0.873400872	 0.128396
H	-0.260185461	-2.7300044539	 0.1890101415	 0.321394
H	 1.6481487188	-2.9188575925	-2.8899965916	 0.287693
58.8897	167.9259	184.0615	280.422	283.6799	317.1714	368.8374	537.229	559.1327	639.4664	690.0974	722.2039	781.3571	992.3156	1056.296	1067.696	1174.8897	1181.2728	1211.8706	1242.6685	1306.4993	1360.9952	1413.4478	1479.3493	1480.1685	1504.3594	1586.4501	1690.2333	3033.5428	3100.8232	3145.9157	3661.3636	3812.2579
COC1=C(O)NN=N1	COc1c(O)[nH]nn1	
InChI=1S/C3H5N3O2/c1-8-3-2(7)4-6-5-3/h1H3,(H2,4,5,6,7)	InChI=1S/C3H5N3O2/c1-8-3-2(7)4-6-5-3/h1H3,(H2,4,5,6,7)
