18
gdb 72199	3.42139	1.82632	1.5835	0.6038	73.13	-0.2365	0.056	0.2924	896.4712	0.149725	-401.896899	-401.890383	-401.889439	-401.927351	27.461	
C	-0.006335361	 1.4516528092	 0.0245455907	-0.478765
C	-0.0132462859	-0.0561034757	 0.0060708273	 0.319074
C	-1.1462334513	-0.7787244662	-0.7093908189	-0.281628
C	-0.6928957299	-2.2303300192	-0.6549944339	 0.077402
O	-0.8519463699	-2.729746663	 0.7063342625	-0.311268
C	 0.4919764161	-2.3097636056	 0.9932556283	 0.098184
C	 0.6879718153	-0.7835618026	 1.1023189157	-0.110437
N	 1.2896199993	-0.6988060166	-0.3025298108	-0.194465
C	 0.8613364831	-2.1424027918	-0.4799491722	-0.061605
H	 0.9151101549	 1.8317577359	 0.4729925934	 0.13008
H	-0.0748354261	 1.8478836389	-0.9942580775	 0.12316
H	-0.8556428469	 1.8370235322	 0.5985332782	 0.121165
H	-2.1181403547	-0.6513309353	-0.2250693762	 0.118075
H	-1.2178147318	-0.4143911018	-1.7419444969	 0.103334
H	-1.1356195228	-2.9057976534	-1.3890121137	 0.081971
H	 1.0054050089	-2.9331858228	 1.7256877416	 0.088625
H	 1.1394209194	-0.2580842528	 1.9386484037	 0.088079
H	 1.5361734633	-2.7710243392	-1.0544847815	 0.089017
197.8646	224.2061	301.1356	378.3229	412.6006	518.8692	602.1968	662.2096	705.1701	730.201	764.6381	826.0187	840.5291	881.6919	899.454	918.6665	947.8454	978.5984	993.7419	1009.225	1020.4012	1039.8256	1058.0979	1087.6096	1148.0449	1186.3729	1201.7769	1210.7212	1254.2986	1266.7409	1292.8343	1293.5986	1342.6165	1349.4931	1402.4322	1416.627	1470.6766	1488.5462	1495.4987	3031.9472	3035.8837	3097.585	3098.4165	3101.1332	3111.0293	3119.4255	3152.0899	3154.9781
CC12CC3OC4C1N2C34	C[C@]12C[C@@H]3O[C@@H]4[C@H]1N2[C@H]34	
InChI=1S/C7H9NO/c1-7-2-3-4-5(9-3)6(7)8(4)7/h3-6H,2H2,1H3	InChI=1S/C7H9NO/c1-7-2-3-4-5(9-3)6(7)8(4)7/h3-6H,2H2,1H3/t3-,4+,5-,6+,7-,8?/m0/s1
