21
gdb 116908	4.54184	0.55982	0.54426	1.7515	90.68	-0.2273	0.0441	0.2714	2143.9275	0.180074	-387.053371	-387.04282	-387.041876	-387.090481	38.009	
C	-0.183234108	 1.5426721977	-0.1086978119	-0.38186
C	-0.2274290428	 0.0213058954	-0.2631670987	-0.152334
C	 1.0466094149	-0.5379985264	-0.9291264062	-0.338944
C	 1.033469734	-1.9868536152	-1.0934153145	-0.033491
C	 1.0043237171	-3.1848422315	-1.2298651555	 0.132239
C	 0.971581665	-4.6209597255	-1.3388872341	 0.232142
O	 1.6530251706	-5.321714157	-0.3277016101	-0.445295
C	-0.2559831019	-5.2913307799	-1.9371929382	-0.312824
C	 1.052229399	-5.2833987294	-2.6889759237	-0.290088
H	 0.6688956281	 1.8551250012	 0.5053653121	 0.116089
H	-0.088621315	 2.0384448631	-1.0813588851	 0.116077
H	-1.09294646	 1.9186655494	 0.3688618133	 0.114812
H	-0.3521180953	-0.4542850843	 0.7161640995	 0.106258
H	-1.0972866068	-0.2728167347	-0.8611072431	 0.107482
H	 1.1819336462	-0.0611122551	-1.9096998399	 0.126479
H	 1.9236287668	-0.2472288291	-0.3347548599	 0.127317
H	 1.2570628985	-5.06809852	 0.5136689391	 0.282373
H	-0.5566812611	-6.2217233317	-1.4689581892	 0.119239
H	-1.0635063019	-4.6602144594	-2.289143012	 0.12033
H	 1.1503788149	-4.6474795497	-3.5600983327	 0.124944
H	 1.6199451074	-6.2062310576	-2.7184499491	 0.129055
25.1898	67.9458	71.5846	128.8196	187.9194	239.0975	276.562	300.3642	331.7873	358.6315	386.3587	468.2155	552.9695	569.4045	638.7972	742.0655	777.0628	859.9196	870.7829	888.0817	897.8002	923.6704	986.3887	1037.1367	1053.2425	1077.1175	1081.6505	1109.1218	1120.8619	1194.178	1238.1649	1259.4322	1299.1699	1314.3659	1321.7685	1378.0798	1386.8424	1412.8025	1449.0002	1469.5357	1488.0955	1491.6017	1498.9601	1508.9211	2355.2863	3008.3163	3029.6755	3035.0354	3040.6202	3072.5204	3099.7171	3105.6808	3138.8195	3146.6526	3229.3197	3244.6546	3797.5063
CCCC#CC1(O)CC1	CCCC#CC1(O)CC1	
InChI=1S/C8H12O/c1-2-3-4-5-8(9)6-7-8/h9H,2-3,6-7H2,1H3	InChI=1S/C8H12O/c1-2-3-4-5-8(9)6-7-8/h9H,2-3,6-7H2,1H3
