19
gdb 66329	2.51644	1.3966	1.30351	1.1663	83.41	-0.248	0.011	0.259	1110.0675	0.158255	-385.863459	-385.854732	-385.853788	-385.896369	34.065	
C	 0.0273216613	 1.5047012201	-0.0411239405	-0.417217
C	-0.024377998	-0.030491476	 0.0078956443	 0.127459
O	 0.6227992332	-0.4676980416	-1.1875768857	-0.271408
C	 0.9782191982	-1.8443076707	-1.1756251322	-0.086831
C	 2.044584767	-2.1194060171	-0.1154887728	-0.258326
C	 1.6461381165	-1.4707350434	 1.1827402871	-0.082122
C	 0.6900339603	-0.5488685458	 1.2449585586	-0.068179
C	-1.4298596631	-0.4872998993	 0.0289097534	 0.374161
C	-2.5738585517	-0.85728957	 0.0492084284	-0.520791
H	 1.0709196733	 1.8287035539	-0.0478182651	 0.125226
H	-0.4641069541	 1.8590405845	-0.9500430585	 0.134183
H	-0.4802028863	 1.9341081764	 0.8261066362	 0.122267
H	 0.0879913509	-2.4618139667	-0.9863050205	 0.104189
H	 1.340299977	-2.0680362789	-2.1824904899	 0.105566
H	 2.1659878808	-3.2015055131	 0.0203270354	 0.106201
H	 3.0207425196	-1.7385405221	-0.4459624527	 0.116009
H	 2.1603208412	-1.7819122032	 2.08842557	 0.093759
H	 0.3776559415	-0.1122416859	 2.18878084	 0.098513
H	-3.5837948474	-1.1858581012	 0.0632492943	 0.197343
92.4294	144.771	180.1685	244.1407	279.2574	290.2059	360.5287	415.8795	492.4594	504.3701	541.1387	584.9388	618.3489	668.9896	678.6814	730.5829	781.1931	866.4872	897.7539	921.8149	964.5194	999.1801	1012.4861	1077.6565	1098.9502	1125.3193	1170.0619	1186.292	1223.9559	1239.2115	1298.5928	1364.0167	1387.1102	1398.0768	1420.7797	1468.7175	1480.1016	1488.9874	1501.5729	1722.4037	2223.5989	3002.1335	3014.5166	3050.999	3051.4217	3093.7841	3134.4784	3136.9358	3153.927	3181.5184	3500.2825
CC1(OCCC=C1)C#C	C[C@]1(OCCC=C1)C#C	
InChI=1S/C8H10O/c1-3-8(2)6-4-5-7-9-8/h1,4,6H,5,7H2,2H3	InChI=1S/C8H10O/c1-3-8(2)6-4-5-7-9-8/h1,4,6H,5,7H2,2H3/t8-/m0/s1
