21
gdb 91773	2.30599	1.7889	1.5566	1.9259	76.16	-0.2394	0.0667	0.3061	993.1758	0.186277	-424.249021	-424.241467	-424.240523	-424.280572	31.277	
O	 0.1070412893	 1.4046005406	-0.1917363764	-0.429778
C	 0.0607477271	-0.0038624372	-0.0250753212	 0.109604
C	 0.6690462334	-0.5387778444	 1.3047680272	-0.275424
C	-0.5060513959	-1.3124579697	 1.9460593201	 0.102956
C	-1.3557049636	-0.459919471	 2.8989036689	-0.202644
C	-1.8550524816	 0.8130343039	 2.1889007258	-0.209954
C	-2.3497482911	 0.5034097182	 0.7631641949	-0.196517
C	-1.4111112221	-0.4834189019	 0.0537592246	 0.070782
O	-1.3141435925	-1.6853000644	 0.8190263242	-0.267524
H	 1.0242045634	 1.6604401553	-0.3252284338	 0.286546
H	 0.5461167785	-0.4961264481	-0.877875989	 0.073147
H	 1.5114127384	-1.2077515632	 1.1122493189	 0.099397
H	 1.0255661508	 0.2871614002	 1.9266483674	 0.101829
H	-0.1884221993	-2.2390342339	 2.4312090055	 0.070946
H	-2.2044467559	-1.0737157471	 3.2221895608	 0.099745
H	-0.7805778763	-0.2035780784	 3.7968429534	 0.087998
H	-2.6499460498	 1.2867833415	 2.7744262565	 0.089345
H	-1.0403881288	 1.5409768536	 2.1219207166	 0.112749
H	-3.3385143066	 0.0313047525	 0.7971150588	 0.09526
H	-2.4411488156	 1.4244314758	 0.1805318242	 0.107895
H	-1.8064953419	-0.7552779824	-0.9283236475	 0.073643
122.4328	232.7797	278.0841	279.9552	344.7609	397.317	434.3151	473.0365	491.8913	578.1738	713.4363	754.4098	797.561	810.3756	842.8041	877.4608	893.928	947.1855	973.3365	977.1675	1010.0715	1042.9289	1073.6324	1090.681	1102.4196	1112.9142	1181.3668	1198.4704	1207.7932	1236.669	1260.7087	1280.4928	1302.9772	1338.7137	1343.6763	1354.2537	1364.4514	1378.1788	1390.4701	1393.8024	1427.8171	1469.9173	1478.8363	1481.3927	1506.319	3006.5384	3026.9235	3037.8559	3045.4067	3057.439	3065.8286	3074.8	3079.8264	3085.3817	3097.5425	3107.8168	3831.2159
OC1CC2CCCC1O2	O[C@H]1C[C@H]2CCC[C@@H]1O2	
InChI=1S/C7H12O2/c8-6-4-5-2-1-3-7(6)9-5/h5-8H,1-4H2	InChI=1S/C7H12O2/c8-6-4-5-2-1-3-7(6)9-5/h5-8H,1-4H2/t5-,6+,7+/m1/s1
