18
gdb 5835	3.07533	1.56604	1.36941	2.5877	64.24	-0.2647	-0.034	0.2307	980.2126	0.14962	-422.090665	-422.081166	-422.080222	-422.124263	34.762	
C	-0.0806534841	 1.5610635225	-0.0215610623	-0.425859
C	-0.0011905072	 0.0320984995	-0.0014138807	 0.319136
C	 0.6175496206	-0.472893416	 1.3069255286	-0.424953
O	-1.2959712166	-0.5425756381	-0.2120476113	-0.472384
C	 0.816189979	-0.4582334217	-1.228367361	 0.052268
O	 2.1198744874	 0.0522543454	-1.2077983678	-0.440687
C	 0.8509349748	-1.9730896415	-1.3136188765	 0.12726
O	 1.9024977095	-2.5680023346	-1.3745169382	-0.274215
H	 0.9192456935	 2.0001007983	 0.0112836167	 0.145235
H	-0.585006491	 1.9025139712	-0.9301286176	 0.121055
H	-0.6452436115	 1.9252346481	 0.8448577687	 0.102253
H	 0.0748375266	-0.0695690301	 2.1688364031	 0.106596
H	 0.5788444488	-1.5648646595	 1.3628286852	 0.123834
H	 1.6605722137	-0.155597843	 1.3813876206	 0.138709
H	-1.8740299463	-0.240267373	 0.4958243971	 0.282174
H	 0.2693831167	-0.1123225444	-2.1238981293	 0.099321
H	 2.6988744757	-0.72497795	-1.2769771912	 0.295454
H	-0.1230269097	-2.491236803	-1.3268626542	 0.124803
80.746	111.2094	215.6754	218.5434	236.4745	256.7028	274.643	314.2003	348.1476	353.9391	436.1618	472.3415	494.2244	545.4763	711.916	790.8211	854.2665	921.1474	942.6017	983.2048	1001.9546	1036.7162	1119.4334	1173.1387	1194.7403	1219.4591	1291.2999	1329.6765	1365.0521	1384.87	1393.1467	1412.101	1441.8643	1478.9138	1485.783	1501.1644	1509.4263	1801.4714	2952.126	3000.0659	3030.4914	3037.9845	3100.2694	3104.9283	3128.6103	3133.6915	3667.3338	3817.5949
CC(C)(O)C(O)C=O	CC(C)(O)[C@@H](O)C=O	
InChI=1S/C5H10O3/c1-5(2,8)4(7)3-6/h3-4,7-8H,1-2H3	InChI=1S/C5H10O3/c1-5(2,8)4(7)3-6/h3-4,7-8H,1-2H3/t4-/m0/s1
