16
gdb 126821	2.22834	1.79254	1.07429	1.3038	73.48	-0.2744	-0.0767	0.1978	1093.505	0.125681	-434.10949	-434.101332	-434.100388	-434.142912	28.928	
C	-0.1276428447	 1.6605134949	 0.3773750941	-0.387727
C	-0.066165206	 0.1440652272	 0.2004480766	-0.137882
N	 0.6713713568	-0.508187486	 1.2830428261	-0.014237
N	 1.986708178	-0.7426824676	 1.1618692933	-0.229826
C	 2.302663084	-1.3033667912	 2.3296714526	 0.024272
N	 1.2729384395	-1.4410508454	 3.1879296162	-0.294299
C	 0.2504395139	-0.9258611495	 2.5058181677	 0.266922
C	-1.1170964765	-0.8394114586	 3.0267126263	 0.092104
O	-2.0523747182	-0.3404392745	 2.4398073013	-0.284005
H	 0.8778346036	 2.0857693754	 0.435861234	 0.138745
H	-0.6446769348	 2.1074586608	-0.4765175827	 0.129998
H	-0.6802704622	 1.9192412902	 1.283782018	 0.144395
H	-1.0701884599	-0.280473345	 0.1869216306	 0.154792
H	 0.4565319431	-0.1266107532	-0.7186339852	 0.139545
H	 3.3112301668	-1.6204426302	 2.5480178369	 0.137157
H	-1.2138862035	-1.2836933974	 4.0356617543	 0.120044
58.5419	114.6006	165.0731	205.1049	241.3389	282.1843	372.0758	404.1284	509.1834	687.1055	702.5518	727.051	772.9712	805.3636	909.4649	979.0244	992.0294	1036.6357	1078.4506	1106.3962	1191.107	1234.0538	1278.9865	1315.8765	1348.9497	1369.2301	1393.8038	1408.3461	1428.3115	1468.6199	1488.0034	1491.9289	1503.4242	1530.4478	1785.3816	2962.5917	3050.4319	3091.3142	3125.417	3130.919	3156.5754	3264.4034
CCN1N=CN=C1C=O	CCn1ncnc1C=O	
InChI=1S/C5H7N3O/c1-2-8-5(3-9)6-4-7-8/h3-4H,2H2,1H3	InChI=1S/C5H7N3O/c1-2-8-5(3-9)6-4-7-8/h3-4H,2H2,1H3
