18
gdb 18405	3.30812	2.16747	1.47629	1.9459	66.9	-0.2536	0.0833	0.3369	865.8114	0.15679	-384.921392	-384.914773	-384.913829	-384.95192	26.596	
C	-0.0204230848	 1.5285885377	 0.0782533459	-0.317014
C	 1.299984907	 0.7980723155	 0.0245727724	-0.001599
C	 2.2048863058	 0.7203520059	 1.2390610159	-0.113918
O	 2.6622062307	-0.603402169	 1.4933011963	-0.230393
C	 1.7607728467	-1.4029641536	 2.2112913392	 0.017479
O	 0.6254508623	-1.8306795934	 1.5073737393	-0.230394
C	-0.3337683166	-0.8093523106	 1.2565898192	-0.113916
C	 0.0079953809	 0.019549381	 0.0334831361	-0.001602
H	-0.2976994074	 1.9994745128	 1.0170215703	 0.112234
H	-0.3526777261	 2.0699329017	-0.8005454181	 0.1162
H	 1.827850668	 0.8158000353	-0.9240395282	 0.091882
H	 3.1024937365	 1.3273292545	 1.0840718979	 0.109727
H	 1.6943202886	 1.1146325667	 2.1316630469	 0.086671
H	 2.3088747094	-2.3095248918	 2.4777293627	 0.114649
H	 1.4434623475	-0.8658735986	 3.1263378905	 0.071713
H	-1.2913374912	-1.3202269103	 1.114423013	 0.109727
H	-0.4347528281	-0.1682665515	 2.1463564224	 0.08667
H	-0.2638944691	-0.4446571524	-0.9096016119	 0.091883
167.6428	209.676	330.2125	364.0383	368.7943	431.3594	467.3467	603.2511	618.4692	804.4008	807.809	848.1889	941.7531	943.8594	959.1256	977.3633	1006.3085	1032.1011	1049.8231	1081.4432	1112.0416	1136.7316	1183.2842	1183.3954	1201.4009	1241.9649	1286.6595	1309.679	1347.7626	1364.4387	1393.5223	1412.8066	1430.0564	1450.0123	1487.9498	1491.4669	1493.1706	1507.9217	2914.11	2975.0953	2988.8891	3072.1753	3074.1083	3106.9158	3126.1699	3148.101	3158.2265	3211.6584
C1C2COCOCC12	C1[C@H]2COCOC[C@@H]12	
InChI=1S/C6H10O2/c1-5-2-7-4-8-3-6(1)5/h5-6H,1-4H2	InChI=1S/C6H10O2/c1-5-2-7-4-8-3-6(1)5/h5-6H,1-4H2/t5-,6+
