17
gdb 131684	1.98974	1.54419	0.91399	1.852	70.7	-0.2316	0.0236	0.2551	1235.5458	0.136845	-455.150649	-455.141537	-455.140593	-455.185686	32.327	
O	 0.005095642	 1.3786894529	-0.0651156431	-0.42294
C	 0.0355184256	-0.041983767	-0.0691856618	-0.206651
C	-1.3713946208	-0.542486419	-0.0056953866	 0.161762
C	-2.5243777377	 0.2097049532	 0.01542672	-0.104132
N	-3.5558449446	-0.6718070478	 0.0620202744	-0.195015
N	-3.1550999237	-1.9551164022	 0.0662438115	-0.290191
C	-1.8241752711	-1.8879212334	 0.0326204339	 0.21817
C	-0.9943354185	-3.134054946	 0.0113003912	-0.174801
O	-0.1017287232	-3.1776161689	-1.1022184268	-0.417059
H	 0.909505651	 1.6944785888	-0.142818969	 0.290202
H	 0.5282567054	-0.4347320919	-0.9711109891	 0.112222
H	 0.6105075849	-0.4287022803	 0.7895298952	 0.09781
H	-2.6725879869	 1.2765080686	 0.0016667179	 0.148766
H	-4.5400900814	-0.4678261285	 0.0874550265	 0.273026
H	-0.3448888106	-3.1858493895	 0.8926975102	 0.113722
H	-1.662592786	-4.0051506019	 0.0379484274	 0.111215
H	-0.6410111845	-3.1147268368	-1.8978331519	 0.283894
37.1075	65.6274	140.992	194.4069	222.4271	265.9386	288.3364	364.9162	418.4363	493.0556	501.6069	640.0557	670.3546	726.9653	788.0249	805.4031	952.2309	975.6225	1044.9876	1047.0077	1067.3602	1078.7093	1149.194	1198.2943	1216.6038	1236.5671	1242.7931	1319.5022	1356.2118	1415.6975	1424.0816	1449.0901	1475.3132	1497.3801	1515.1109	1520.679	1617.7686	2955.2147	2998.9446	3017.2262	3064.7666	3282.0195	3677.9846	3807.6204	3840.4204
OCC1=CNN=C1CO	OCc1c[nH]nc1CO	
InChI=1S/C5H8N2O2/c8-2-4-1-6-7-5(4)3-9/h1,8-9H,2-3H2,(H,6,7)	InChI=1S/C5H8N2O2/c8-2-4-1-6-7-5(4)3-9/h1,8-9H,2-3H2,(H,6,7)
