14
gdb 131760	2.66006	1.52797	0.97633	0.8941	67.48	-0.2503	-0.0627	0.1876	1116.1091	0.100189	-473.804273	-473.796371	-473.795427	-473.837147	28.638	
O	 0.0295009661	 1.3990397186	 0.0070233813	-0.401565
C	-0.0285657995	-0.0040991024	 0.002156001	-0.137604
C	-1.4539867035	-0.4859018215	 0.0126694009	 0.202294
N	-2.3932051563	 0.3953535792	 0.0234447741	-0.107555
O	-3.7072366537	-0.0767779021	 0.0330343336	-0.22419
C	-3.9618729387	-1.3889864288	 0.0310961649	 0.11807
C	-3.0246385879	-2.3565842856	 0.0200174207	-0.272199
C	-1.6354230198	-1.9669345095	 0.0090296916	 0.342799
O	-0.6701007408	-2.7174474329	-0.0009741961	-0.364214
H	 0.9568439451	 1.6526404237	-0.0026903323	 0.296327
H	 0.4540339726	-0.45218355	-0.8815224972	 0.128697
H	 0.469190733	-0.4588615674	 0.873951869	 0.128725
H	-5.032934526	-1.5633517814	 0.0397995163	 0.156187
H	-3.3011536106	-3.40275346	 0.0192327821	 0.134229
77.7587	126.3275	197.0652	224.9101	271.2083	337.4601	428.0915	469.4871	499.3912	560.9093	599.3307	731.2428	768.3756	859.9989	877.6418	917.9584	978.4084	1016.6408	1034.3571	1097.2299	1180.2484	1234.5015	1244.4008	1262.4366	1326.7936	1436.795	1466.9406	1488.4744	1621.1954	1653.3647	1750.766	2978.5479	2997.2239	3195.4447	3228.1097	3839.0377
OCC1=NOC=CC1=O	OCc1noccc1=O	
InChI=1S/C5H5NO3/c7-3-4-5(8)1-2-9-6-4/h1-2,7H,3H2	InChI=1S/C5H5NO3/c7-3-4-5(8)1-2-9-6-4/h1-2,7H,3H2
