16
gdb 127741	3.34734	1.42149	1.00451	2.8539	79.63	-0.2095	-0.0514	0.158	1133.7785	0.125899	-430.239106	-430.230998	-430.230054	-430.27145	31.06	
C	-0.0493388862	 1.4087596241	-0.0095201273	-0.30429
N	 0.0022116273	-0.0464572649	 0.0456487159	-0.038251
N	-0.0162132814	-0.6637384107	-1.1307074259	-0.057481
N	 0.026627253	-1.93328318	-1.2088574418	-0.290422
C	 0.0911442257	-2.6866753757	-0.0387347646	 0.447947
N	 0.1792310177	-4.0285626191	-0.2914185617	-0.558333
C	 0.1015263162	-2.1127432875	 1.1970117244	-0.33097
C	 0.0592404965	-0.6831912946	 1.310703673	 0.429174
N	 0.0631806135	 0.0825495558	 2.3424498034	-0.58221
H	 0.8350496743	 1.8276129887	 0.4756411218	 0.155108
H	-0.0925620179	 1.6914979139	-1.0601195529	 0.144795
H	-0.9269760333	 1.7677155691	 0.532591237	 0.154593
H	-0.0833039559	-4.3039816732	-1.2251214808	 0.266882
H	-0.0657050155	-4.6707162733	 0.443605254	 0.260644
H	 0.1484338452	-2.7045930178	 2.1040304997	 0.094515
H	 0.1064945307	-0.4798544348	 3.1907013858	 0.208299
118.0453	158.144	186.8895	270.9679	329.0826	352.5713	405.1682	440.5184	475.614	483.7209	536.353	598.5987	697.8183	751.1831	753.3962	782.8866	819.8155	843.5655	958.369	1057.1356	1086.6668	1126.0636	1153.8163	1229.4582	1280.5446	1306.5559	1372.5974	1421.5646	1434.1258	1466.4363	1505.0943	1516.5643	1615.4496	1663.1972	1706.2649	3063.1096	3129.5187	3176.4587	3188.9172	3494.8751	3592.9307	3713.2281
CN1N=NC(N)=CC1=N	Cn1nnc(N)cc1[NH]	
InChI=1S/C4H7N5/c1-9-4(6)2-3(5)7-8-9/h2,6H,5H2,1H3	InChI=1S/C4H12N5/c1-9-4(6)2-3(5)7-8-9/h3-4,6-8H,2,5H2,1H3
