20
gdb 75190	3.73465	0.86447	0.7287	3.0331	83.08	-0.2135	-0.0224	0.1911	1550.7	0.169153	-403.156853	-403.147422	-403.146478	-403.191944	33.804	
C	-0.4130891784	 1.574824577	-0.0213601652	-0.493177
C	-0.2790223922	 0.0871220617	-0.0254256169	 0.334218
C	-0.1648149256	-0.7344036723	-1.0679401108	-0.181069
C	-0.089818853	-2.1694851454	-0.629841485	-0.198372
N	 0.1068509375	-2.0604283137	 0.8214444352	-0.083744
C	-0.375070615	-3.1542972053	 1.6270872432	-0.236727
C	 0.3468137451	-3.2223451707	 2.9652332375	 0.158982
O	-0.1537573206	-3.5874487533	 3.9960645875	-0.23862
C	-0.2956440388	-0.7181043803	 1.2525486605	-0.251119
H	 0.4019351903	 2.0457419109	 0.5425065802	 0.130127
H	-0.4038856136	 1.9805859921	-1.0362512476	 0.127193
H	-1.3473385789	 1.8880561225	 0.4619870145	 0.129483
H	-0.1516529727	-0.4388870536	-2.110196902	 0.094549
H	-1.0193664884	-2.709872262	-0.8961234811	 0.090912
H	 0.7373797621	-2.7242013891	-1.0965115998	 0.106415
H	-1.4646195547	-3.1487875619	 1.8138492218	 0.102874
H	-0.1399357114	-4.0979930365	 1.1130948885	 0.127803
H	 1.4151117819	-2.9120452311	 2.901953275	 0.082157
H	 0.3898266774	-0.3195023105	 2.0154529929	 0.106125
H	-1.307672631	-0.7017061587	 1.7063916817	 0.091989
56.9857	79.9346	99.9043	178.103	191.7235	246.9097	282.2303	351.1068	384.7364	447.9384	455.6985	588.4945	696.6919	781.0038	808.0328	880.8327	899.8461	958.5865	1000.5333	1033.49	1037.5185	1057.5923	1069.2752	1094.6256	1157.7177	1190.8446	1208.7846	1212.6818	1221.1258	1276.113	1300.3313	1332.2892	1383.1607	1391.6514	1404.4216	1417.6408	1457.6235	1479.5021	1489.4428	1512.3165	1525.8144	1734.0296	1839.3751	2875.7197	2890.6291	2905.6106	2942.1867	2991.3484	2997.3416	3019.4178	3025.7441	3065.0612	3114.3477	3205.5233
CC1=CCN(CC=O)C1	CC1=CCN(CC=O)C1	
InChI=1S/C7H11NO/c1-7-2-3-8(6-7)4-5-9/h2,5H,3-4,6H2,1H3	InChI=1S/C7H11NO/c1-7-2-3-8(6-7)4-5-9/h2,5H,3-4,6H2,1H3
