19
gdb 122255	2.53986	1.05283	0.91315	4.6462	77.05	-0.2653	0.0257	0.291	1368.7915	0.158483	-419.180895	-419.171224	-419.17028	-419.216358	34.224	
C	-0.2927381833	 0.9139101134	 0.9603327426	-0.233643
O	-0.4823426866	-0.4190310363	 0.5382501617	-0.236145
C	-1.0950043023	-0.5198352295	-0.7328946476	-0.054544
C	-1.3553319571	-1.997254413	-1.0118091242	-0.3106
C	-2.4560568303	-2.5901624762	-0.1384967572	 0.157122
C	-2.240095922	-3.9139627783	 0.5265501252	-0.272502
N	-2.2606340215	-2.6901597867	 1.3216745765	-0.319672
C	-3.8004040432	-2.218281734	-0.5383795743	 0.283217
N	-4.8559107275	-1.9149233807	-0.9001318902	-0.343646
H	 0.1887051765	 0.8805048295	 1.9401234785	 0.132415
H	 0.3538075164	 1.4693399953	 0.2638173731	 0.109789
H	-1.2489577669	 1.4504058273	 1.0492455758	 0.118501
H	-2.0374663342	 0.0510419587	-0.7560745563	 0.113392
H	-0.4362112389	-0.0985185651	-1.5095781615	 0.094928
H	-1.6179379652	-2.1260808656	-2.0669591042	 0.126444
H	-0.4253790953	-2.5485121504	-0.83583628	 0.116798
H	-3.0837576591	-4.5781578572	 0.6861099934	 0.14024
H	-1.2946182618	-4.4097965684	 0.3204398507	 0.123842
H	-1.3257437075	-2.3504885727	 1.5343322581	 0.254065
41.1997	79.2718	121.6282	155.9288	218.0164	235.9354	262.589	281.7703	363.0923	366.3649	524.9064	578.539	603.7289	664.1577	825.2461	860.3786	897.7815	935.06	981.1076	999.4977	1032.6971	1062.0554	1118.8581	1150.9767	1158.4729	1183.4182	1202.9215	1244.219	1250.5381	1278.5908	1300.7369	1375.4133	1385.8692	1419.5722	1463.8966	1482.6388	1486.7778	1502.8792	1510.4586	1527.7311	2354.6167	2966.1642	2983.3821	2999.3539	3032.0353	3048.2916	3094.9481	3110.8642	3122.0179	3203.4731	3516.0774
COCCC1(CN1)C#N	COCC[C@]1(CN1)C#N	
InChI=1S/C6H10N2O/c1-9-3-2-6(4-7)5-8-6/h8H,2-3,5H2,1H3	InChI=1S/C6H10N2O/c1-9-3-2-6(4-7)5-8-6/h8H,2-3,5H2,1H3/t6-/m1/s1
