21
gdb 90710	2.89107	1.34538	1.32001	2.6127	77.57	-0.2435	0.0653	0.3088	1108.5645	0.181638	-424.204214	-424.195432	-424.194488	-424.23741	34.734	
C	 0.4577269241	 1.3731417162	-0.2051520013	-0.442531
C	 0.1358211284	-0.0929552176	 0.0309716598	 0.408272
C	-1.3228076203	-0.4096353278	-0.2780113578	-0.419191
O	 1.0002566831	-0.9664888899	-0.788735915	-0.355249
C	 1.3871845271	-1.7407774047	 0.3645231654	 0.074007
C	 2.7565252168	-1.2390602679	 0.9146952027	 0.134146
O	 3.5753961219	-0.6371192582	-0.0477734124	-0.438376
C	 1.984578988	-0.3085233713	 1.9154049861	-0.296784
C	 0.6321374365	-0.7897627874	 1.3303318132	-0.122465
H	 1.5232482388	 1.5767240405	-0.0816966597	 0.128419
H	 0.1745970049	 1.6579957319	-1.2238083261	 0.124716
H	-0.1010609083	 2.0072278781	 0.4912281031	 0.121018
H	-1.5456615321	-0.1852804447	-1.32574047	 0.124173
H	-1.5388866108	-1.4672725444	-0.1016292423	 0.120295
H	-1.9889086002	 0.188251103	 0.3536416686	 0.115963
H	 1.2152970449	-2.8113194875	 0.2301275197	 0.073723
H	 3.3381477776	-2.0141497071	 1.4235292739	 0.080857
H	 2.9780985212	-0.4004161699	-0.7741546906	 0.289277
H	 2.1186918633	-0.6099285525	 2.9576032144	 0.102491
H	 2.2124724833	 0.7560332983	 1.8342156304	 0.10573
H	-0.1433195382	-1.1082784571	 2.0260352579	 0.071508
52.5505	185.6102	202.299	239.1999	260.4782	337.402	364.8243	380.1147	413.1198	481.7641	519.4041	578.315	612.0691	734.7562	778.1346	825.6398	868.3036	882.8267	912.5843	932.0281	970.6047	990.2869	1003.4667	1040.5362	1046.0939	1077.8369	1145.9451	1167.6876	1172.0949	1200.9204	1222.8363	1246.2881	1261.7112	1291.1052	1308.9783	1323.5584	1345.0966	1399.4948	1413.7133	1442.3043	1470.1924	1473.8781	1486.4036	1493.5073	1511.3018	3032.498	3040.3178	3053.7654	3066.558	3079.8462	3102.2242	3108.6713	3112.0782	3115.1801	3121.7166	3130.3596	3699.371
CC1(C)OC2C(O)CC12	CC1(C)O[C@H]2[C@@H](O)C[C@@H]12	
InChI=1S/C7H12O2/c1-7(2)4-3-5(8)6(4)9-7/h4-6,8H,3H2,1-2H3	InChI=1S/C7H12O2/c1-7(2)4-3-5(8)6(4)9-7/h4-6,8H,3H2,1-2H3/t4-,5+,6-/m1/s1
