21
gdb 118414	2.22995	0.8403	0.68192	1.9808	85.46	-0.2435	0.0422	0.2857	1766.9347	0.178806	-424.189196	-424.177661	-424.176717	-424.228335	38.973	
C	-0.0964544538	 1.4591783927	 0.0662393084	-0.385857
C	-0.0446475999	-0.0589466194	 0.0563987627	-0.038056
O	-1.3793385072	-0.5463698596	 0.049773976	-0.263171
C	-1.4910492419	-1.9767280645	 0.0547972919	-0.125464
C	-1.5082793844	-2.4590796156	 1.5193203015	-0.049207
O	-2.5078488224	-1.7988099928	 2.2580589992	-0.418752
C	-2.7050876915	-2.3495388189	-0.6657204778	 0.090794
C	-3.6991870132	-2.6901179019	-1.2518390378	 0.098473
C	-4.9067037934	-3.0902999787	-1.958442584	-0.499971
H	 0.9159928496	 1.8734933443	 0.0500221556	 0.118023
H	-0.6396056653	 1.8287338764	-0.8078023706	 0.132455
H	-0.6042850383	 1.8227091099	 0.964271337	 0.125697
H	 0.4854327598	-0.4230024536	-0.8379837315	 0.09614
H	 0.5065730932	-0.4287033738	 0.9345938892	 0.094157
H	-0.6172380731	-2.4147975418	-0.4534688311	 0.09145
H	-1.7153527849	-3.5330653824	 1.5546102618	 0.113135
H	-0.5073293551	-2.2951184042	 1.9532410089	 0.081609
H	-2.4775495815	-0.877754238	 1.9682656595	 0.287055
H	-4.6858101172	-3.8212148536	-2.7440905673	 0.147451
H	-5.6354011484	-3.5421732222	-1.2767252473	 0.152043
H	-5.386965151	-2.2280602622	-2.4339008443	 0.151997
26.4108	44.7418	61.1304	84.3696	95.4833	160.7905	231.8623	241.3876	272.4852	310.1955	345.434	402.1952	415.9671	456.8671	547.7586	673.0687	788.3327	820.1223	868.3594	934.8155	990.9336	1045.4658	1052.2324	1054.3968	1093.4616	1114.1302	1143.22	1168.5865	1186.5928	1231.5638	1290.8865	1301.4078	1345.811	1388.0704	1402.1816	1413.6243	1427.1795	1442.2629	1476.6548	1478.4928	1483.2875	1498.7263	1505.076	1529.6319	2377.1186	2957.42	2970.7694	2982.3768	3005.0107	3028.4535	3045.4968	3081.9908	3089.5111	3091.1584	3118.8684	3124.2431	3768.4794
CCOC(CO)C#CC	CCO[C@@H](CO)C#CC	
InChI=1S/C7H12O2/c1-3-5-7(6-8)9-4-2/h7-8H,4,6H2,1-2H3	InChI=1S/C7H12O2/c1-3-5-7(6-8)9-4-2/h7-8H,4,6H2,1-2H3/t7-/m1/s1
