19
gdb 26669	2.20076	1.61792	0.94674	0.9462	81.95	-0.174	0.0433	0.2174	1250.358	0.158657	-419.241352	-419.231201	-419.230256	-419.276147	36.62	
C	 0.1296813185	 1.4597411467	 0.0056739581	-0.501358
C	-0.0539455569	-0.0141907366	-0.0106447865	 0.288461
C	-1.1510316096	-0.8220117367	-0.0219276855	 0.090737
N	-2.5240847182	-0.5089683576	 0.023530527	-0.623558
C	-0.6644454297	-2.1770617846	-0.0059590385	 0.090693
N	-1.5229401163	-3.2917949485	-0.08162091	-0.623561
C	 0.6957747554	-2.1021000067	 0.0159895637	 0.288478
C	 1.775565462	-3.1221582559	 0.0167455927	-0.501362
O	 1.0800412168	-0.7854372251	 0.0129322295	-0.236768
H	 0.8794335202	 1.7719884536	-0.729956209	 0.134615
H	-0.810086082	 1.9626168726	-0.2435130022	 0.116141
H	 0.4552142894	 1.8365506548	 0.9842377638	 0.131157
H	-2.7003236824	 0.4809497427	-0.0969128874	 0.236372
H	-3.0368631904	-1.0184396646	-0.6896489701	 0.245833
H	-2.2592774722	-3.2314868974	 0.6150143761	 0.245831
H	-1.0317674206	-4.1686279588	 0.0425547445	 0.236372
H	 2.2896929354	-3.1973752979	-0.950497706	 0.131158
H	 2.5348101244	-2.8922498855	 0.772698881	 0.134621
H	 1.3649186862	-4.1101494045	 0.2477952292	 0.11614
110.2615	110.799	120.9311	148.5492	165.7648	236.4834	253.681	271.1262	330.4938	340.3632	370.8639	530.6419	581.3219	602.2853	604.5345	692.5779	746.4979	790.2072	836.0563	881.7974	936.4455	1033.2073	1045.2332	1056.0376	1060.3955	1202.0451	1243.6392	1243.7063	1281.6289	1332.3985	1417.1886	1417.3527	1468.3819	1468.6543	1492.5835	1494.6932	1500.7601	1631.704	1642.5352	1663.4205	1729.6477	3012.0889	3013.5547	3065.0737	3065.2149	3100.0524	3100.2622	3499.5191	3500.71	3599.0125	3600.1987
CC1=C(N)C(N)=C(C)O1	Cc1c(N)c(N)c(C)o1	
InChI=1S/C6H10N2O/c1-3-5(7)6(8)4(2)9-3/h7-8H2,1-2H3	InChI=1S/C6H10N2O/c1-3-5(7)6(8)4(2)9-3/h7-8H2,1-2H3
