23
gdb 110061	1.90321	1.70794	1.02525	2.1384	82.05	-0.2331	0.0728	0.3059	1262.926	0.20469	-425.428465	-425.418297	-425.417353	-425.463617	37.162	
C	 0.3863387378	 1.1950625888	 0.0645754133	-0.237656
O	 0.2226493543	-0.2012020681	 0.176496999	-0.246434
C	-1.1226506577	-0.6534384845	 0.1459280896	 0.069847
C	-1.1778791772	-2.0121187209	-0.578813114	-0.009616
C	-0.3673757367	-2.1133901062	-1.8665477532	-0.418422
C	-0.7361813114	-2.9558668318	 0.5475726405	-0.068765
O	-1.2366669078	-2.3955353329	 1.7577484101	-0.284888
C	-1.6546506022	-1.0402533019	 1.543893228	 0.147238
C	-1.1833339928	-0.1895475443	 2.7125298415	-0.408121
H	 1.4615382652	 1.3907380704	 0.0395508827	 0.127713
H	-0.0640474893	 1.5820888826	-0.8622334762	 0.106572
H	-0.0482937858	 1.7400408774	 0.9139962015	 0.109582
H	-1.7624280648	 0.0991977952	-0.3339382246	 0.060538
H	-2.235450435	-2.2115768864	-0.7944398557	 0.078484
H	 0.6774642213	-1.8515117492	-1.6856963265	 0.134339
H	-0.4057238351	-3.1302769574	-2.2710754127	 0.112676
H	-0.7577601261	-1.438085318	-2.6351897131	 0.110261
H	-1.1344586987	-3.9705117137	 0.4333875717	 0.096042
H	 0.3615013842	-3.0199828119	 0.5879549748	 0.097697
H	-2.7566652329	-1.0170006553	 1.4999831493	 0.062528
H	-0.0927696301	-0.1295864113	 2.7235340869	 0.131279
H	-1.5996652487	 0.8217929143	 2.6569757516	 0.104675
H	-1.5160121804	-0.6422043951	 3.6504464255	 0.12443
70.5987	89.8452	122.4835	168.6157	207.9111	216.5566	254.6002	273.6257	290.529	356.0217	389.105	471.5117	557.7196	621.273	719.6254	827.7768	874.8814	890.0567	939.193	956.7299	966.6959	1015.9502	1057.0381	1086.9418	1122.0644	1139.8929	1156.2663	1164.3272	1181.6987	1191.2036	1209.7364	1235.7991	1267.2729	1326.9706	1348.6262	1355.5066	1384.5523	1390.9169	1403.1235	1410.3347	1412.0375	1480.5389	1483.5808	1495.031	1497.0581	1499.1449	1503.9984	1511.8448	1525.2719	2952.841	2982.1077	2991.7383	3015.2022	3027.4644	3035.9588	3038.1621	3043.4622	3056.4905	3096.4398	3110.4955	3112.6075	3129.7046	3133.6691
COC1C(C)COC1C	CO[C@H]1[C@@H](C)CO[C@H]1C	
InChI=1S/C7H14O2/c1-5-4-9-6(2)7(5)8-3/h5-7H,4H2,1-3H3	InChI=1S/C7H14O2/c1-5-4-9-6(2)7(5)8-3/h5-7H,4H2,1-3H3/t5-,6-,7-/m0/s1
