20
gdb 102481	2.23136	1.09094	0.86812	4.2115	73.04	-0.2403	0.0268	0.2671	1420.1722	0.168976	-477.438744	-477.427841	-477.426897	-477.475556	37.433	
C	-1.1146038179	 1.2326254594	-0.5659650305	-0.333497
N	-1.2868619201	-0.190119579	-0.3555852098	-0.301156
C	-0.378951611	-0.9500329646	 0.3092891811	 0.364559
O	 0.6701140784	-0.5369571979	 0.7728689241	-0.385363
C	-0.7961202601	-2.4157412524	 0.497564714	-0.015858
C	-1.2914252798	-2.642833267	 1.9305067677	-0.06521
O	-1.6367522732	-3.9928217554	 2.1426445806	-0.422454
O	-1.8564827912	-2.8230744609	-0.3631029181	-0.266219
C	-1.42472557	-3.2525135902	-1.6443775419	-0.251555
H	-0.121555515	 1.4984911494	-0.200870307	 0.170502
H	-1.1884412735	 1.4869634966	-1.6286308872	 0.125704
H	-1.8624784392	 1.8147098365	-0.0151928966	 0.128098
H	-2.1349727514	-0.6512339192	-0.6456335089	 0.255897
H	 0.0922329562	-3.0379108595	 0.3302562661	 0.104103
H	-0.4897348322	-2.3862119572	 2.6265917834	 0.137582
H	-2.14252139	-1.9691434863	 2.122314607	 0.089207
H	-2.2489590525	-4.2215269266	 1.433162579	 0.285895
H	-0.7414786611	-4.1089781493	-1.5655732796	 0.126429
H	-2.3159551363	-3.5555549151	-2.1988991229	 0.132112
H	-0.91742374	-2.4474057514	-2.1929477705	 0.121225
54.5302	90.4588	96.3174	121.2929	125.4753	174.4603	205.9385	230.906	274.2765	328.9563	347.7829	448.5968	496.1759	520.2232	597.7252	694.7113	761.787	838.217	895.3834	1044.2265	1074.1635	1091.6904	1107.8528	1135.1162	1154.9442	1175.4101	1182.7247	1197.2757	1250.231	1261.8614	1275.3156	1358.4781	1389.4206	1424.4939	1439.9115	1478.7287	1489.1062	1494.5312	1499.9742	1500.6292	1507.8002	1565.5973	1781.6467	2975.0396	2998.6327	3028.0203	3038.2582	3056.7224	3081.1109	3114.0423	3120.911	3150.1827	3632.3878	3792.3922
CNC(=O)C(CO)OC	CNC(=O)[C@@H](CO)OC	
InChI=1S/C5H11NO3/c1-6-5(8)4(3-7)9-2/h4,7H,3H2,1-2H3,(H,6,8)	InChI=1S/C5H11NO3/c1-6-5(8)4(3-7)9-2/h4,7H,3H2,1-2H3,(H,6,8)/t4-/m1/s1
