21
gdb 118672	2.81653	0.74272	0.61375	2.3156	77.15	-0.2469	-0.0187	0.2282	1822.8516	0.178688	-461.351383	-461.340065	-461.339121	-461.3894	37.962	
C	-0.0200990097	 1.424224385	-0.0133666961	-0.229541
O	-0.0123393376	 0.015574825	-0.0108237023	-0.234791
C	 0.5890267959	-0.5396309631	-1.1584736207	-0.078695
C	 0.5729495651	-2.0573583572	-1.006714786	-0.09579
C	 1.2421139036	-2.7435638421	-2.2163626356	-0.202247
C	 0.9929209642	-4.246875396	-2.2709467541	-0.084335
O	 1.6746977497	-4.7440820238	-3.4123607995	-0.422516
C	 1.3078900861	-2.4491155722	 0.2648983311	 0.182547
O	 0.9723556356	-3.3281486403	 1.0144739411	-0.256165
H	 0.9998817506	 1.8380273295	-0.0501804421	 0.106774
H	-0.5847022724	 1.8261467014	-0.8691453337	 0.107304
H	-0.5010711039	 1.7493542521	 0.911865994	 0.133488
H	 0.0500185918	-0.2401530026	-2.0722198947	 0.095295
H	 1.6285331574	-0.1788216476	-1.2634516696	 0.089189
H	-0.4627547809	-2.400010108	-0.9072761334	 0.103812
H	 0.8671789774	-2.2938075528	-3.1430523547	 0.113325
H	 2.3254033605	-2.567411074	-2.2027179731	 0.112186
H	 1.3501159081	-4.7246319167	-1.3472069534	 0.109499
H	-0.0906137201	-4.4371443031	-2.3361867704	 0.090618
H	 1.5682099513	-5.6994558478	-3.4323492065	 0.288411
H	 2.2470727475	-1.8709710857	 0.4392533995	 0.071635
56.1709	67.0649	78.5152	94.9811	107.4803	132.1673	227.1468	240.9952	256.7432	303.3802	314.9253	339.1871	387.9333	536.892	591.0956	788.1001	881.8678	951.9013	976.9408	999.9866	1023.7506	1062.8436	1094.2866	1125.3563	1155.5121	1165.3842	1185.6535	1214.5828	1224.5325	1246.566	1257.2652	1296.2353	1311.5565	1345.4652	1358.0878	1416.1865	1429.0133	1467.3485	1480.1012	1486.1818	1492.8813	1502.3085	1526.5041	1529.1919	1836.4022	2845.5561	2942.3313	2971.6484	2973.5701	2984.4558	3015.2217	3019.1668	3028.4691	3060.3171	3074.8049	3120.1945	3832.5102
COCC(CCO)C=O	COC[C@@H](CCO)C=O	
InChI=1S/C6H12O3/c1-9-5-6(4-8)2-3-7/h4,6-7H,2-3,5H2,1H3	InChI=1S/C6H12O3/c1-9-5-6(4-8)2-3-7/h4,6-7H,2-3,5H2,1H3/t6-/m0/s1
