23
gdb 59459	2.90076	0.94984	0.91213	1.7104	82.37	-0.2604	0.0831	0.3435	1474.4155	0.203134	-425.417778	-425.407128	-425.406184	-425.453656	39.396	
C	-0.5492985452	 0.6049173595	-2.4585223019	-0.389912
C	-0.0991965867	-0.2472073549	-1.2628423576	-0.02251
C	 0.6143485938	 0.6026675916	-0.2002807018	-0.393431
C	-1.2971113398	-0.9331113579	-0.6370815543	 0.079723
O	-1.960486362	-1.9875111784	-1.3676033307	-0.284535
C	-1.3383857066	-2.3061324086	-0.1109285195	 0.017044
C	-0.2017789755	-3.3265419323	-0.196984926	 0.096756
C	-0.7024159008	-4.7239788496	 0.1856536832	-0.394428
O	 0.3754689491	-3.3363418718	-1.4913549666	-0.427211
H	 0.3088055256	 1.0872090127	-2.9371813028	 0.112932
H	-1.0581393335	-0.0085791374	-3.2078518741	 0.125171
H	-1.2426591548	 1.3939632824	-2.1429410362	 0.11002
H	 0.5904260827	-1.0180219588	-1.6158369197	 0.106425
H	-0.0503040813	 1.3761766332	 0.2030321961	 0.112456
H	 0.9634451597	-0.0093474634	 0.6376794732	 0.115981
H	 1.4838396775	 1.1072615173	-0.6324038733	 0.118579
H	-2.0123403803	-0.2342876495	-0.1926248404	 0.087585
H	-2.0501134619	-2.5069685277	 0.6920848882	 0.09116
H	 0.5928051333	-3.030305598	 0.5010821955	 0.091784
H	 0.1072233962	-5.449216081	 0.0740545693	 0.125821
H	-1.0538245829	-4.7501304936	 1.2230761041	 0.109373
H	-1.5293272244	-5.0277748771	-0.465432434	 0.122476
H	-0.3473242024	-3.1130815165	-2.0955783409	 0.288741
48.7535	63.8505	139.9701	185.4925	216.0059	238.3068	244.6364	272.2196	293.1204	336.2312	373.7282	430.5774	474.0687	507.0483	586.2129	653.4111	749.7932	830.9448	870.7917	901.1918	932.9402	952.3612	959.8787	977.2289	1030.2483	1071.1679	1112.2197	1126.8401	1151.2454	1170.1074	1186.0695	1211.248	1277.4277	1308.2837	1326.1092	1347.8445	1368.3954	1396.9407	1400.5121	1408.8988	1419.4312	1439.0959	1480.2046	1487.3786	1490.6548	1493.5334	1494.7674	1503.6512	1513.6758	3017.8735	3024.7551	3028.5025	3032.0196	3060.0722	3079.5075	3090.399	3092.1341	3102.6182	3105.0959	3108.71	3111.4012	3124.8089	3732.7591
CC(C)C1OC1C(C)O	CC(C)[C@H]1O[C@H]1[C@@H](C)O	
InChI=1S/C7H14O2/c1-4(2)6-7(9-6)5(3)8/h4-8H,1-3H3	InChI=1S/C7H14O2/c1-4(2)6-7(9-6)5(3)8/h4-8H,1-3H3/t5-,6-,7+/m1/s1
