18
gdb 45858	2.53992	1.79922	1.18875	2.8181	78.2	-0.215	-0.0024	0.2127	1045.1507	0.149917	-401.990779	-401.983085	-401.982141	-402.022972	30.385	
O	 0.0260813141	-0.0295457297	 0.1675849992	-0.380748
C	 0.0315328219	 1.1814646086	 0.0424602112	 0.375102
N	-1.1443996738	 1.9023347434	 0.0117791953	-0.358463
C	-1.2167648911	 3.2997573678	-0.0018062865	 0.023726
C	-0.1539326532	 4.0589580576	-0.2647980738	-0.120465
C	 1.1614015403	 3.4150862461	-0.6144807593	-0.361103
C	 1.2816876128	 2.0148638532	-0.0208465505	 0.214647
C	 2.2158233478	 1.7759974404	 1.1646615742	-0.284004
C	 2.5691464678	 1.2472409994	-0.1909482124	-0.295979
H	-1.9799315554	 1.3548832933	 0.1502234836	 0.253419
H	-2.1982551385	 3.7034391709	 0.2170959109	 0.113693
H	-0.2485576844	 5.1374646209	-0.2710608444	 0.095738
H	 1.2618547834	 3.361021445	-1.7106913655	 0.116696
H	 2.0014144382	 4.0299750324	-0.2722786401	 0.108053
H	 2.7464644253	 2.6420510391	 1.5459878245	 0.114111
H	 1.8940759406	 1.0631277242	 1.9147800309	 0.13333
H	 2.4701261225	 0.1807076366	-0.3532480339	 0.142203
H	 3.3595756017	 1.738577651	-0.7482688635	 0.110045
77.1579	142.1167	252.5426	284.9062	329.3731	421.1378	456.086	508.4655	557.7344	573.174	657.4053	728.5033	757.153	790.8285	839.0133	852.9723	922.3869	942.7585	956.3147	985.2981	1002.4894	1024.0469	1063.6351	1087.1421	1094.0187	1186.7959	1200.8251	1202.9111	1254.401	1296.0453	1338.9904	1395.1289	1424.0774	1452.65	1463.0097	1480.5739	1488.0498	1731.4429	1782.1138	2972.9779	3051.1221	3134.1879	3138.3695	3195.3754	3216.8743	3223.4804	3238.2908	3631.4347
O=C1NC=CCC11CC1	O=C1NC=CCC21CC2	
InChI=1S/C7H9NO/c9-6-7(3-4-7)2-1-5-8-6/h1,5H,2-4H2,(H,8,9)	InChI=1S/C7H9NO/c9-6-7(3-4-7)2-1-5-8-6/h1,5H,2-4H2,(H,8,9)
