15
gdb 49575	2.16503	1.85625	1.21793	4.3573	68.63	-0.2661	-0.0505	0.2156	1006.4915	0.11202	-416.769062	-416.761104	-416.760159	-416.802261	28.545	
O	-0.4722912699	 0.4753140298	-0.5749165682	-0.22196
C	 0.1200974268	 0.9722428346	 0.3450613667	 0.13668
C	 1.2525014864	 1.9629705553	 0.1871588403	-0.068427
C	 1.1990871324	 3.092716874	-0.9009141944	-0.204744
C	 0.0508839604	 3.2313729726	-1.7859207717	 0.307096
N	-0.8595948362	 3.3941986019	-2.4788820097	-0.328116
C	 1.2867089434	 4.0638063332	 0.286554682	-0.019077
C	 0.2101799786	 3.8152490988	 1.2573572765	-0.253793
N	 1.4111136901	 2.9497553445	 1.3078650485	-0.141541
H	-0.1035266665	 0.7181088158	 1.4057671046	 0.106171
H	 2.1785984153	 1.3857303171	 0.0923955595	 0.133478
H	 2.1110719647	 3.0876219167	-1.5003096678	 0.142529
H	 1.9257359495	 4.9386039984	 0.3087266199	 0.12294
H	 0.1441994028	 4.480216556	 2.1114484742	 0.142512
H	-0.7419612977	 3.408579601	 0.9223664996	 0.146253
65.2982	116.552	124.2757	207.1689	228.5995	367.2733	465.0225	478.1595	594.1863	628.5164	703.95	777.0021	787.1874	832.5766	912.0689	980.3819	995.3223	1030.8833	1058.3722	1081.862	1114.8872	1123.9007	1148.5909	1186.7824	1223.5894	1255.0359	1327.1992	1336.1918	1365.1903	1401.6534	1505.2918	1834.4688	2358.0871	2885.2089	3056.2844	3101.4142	3112.3961	3186.4694	3213.8477
O=CC1C(C#N)C2CN12	O=C[C@H]1[C@@H](C#N)[C@H]2CN12	
InChI=1S/C6H6N2O/c7-1-4-5-2-8(5)6(4)3-9/h3-6H,2H2	InChI=1S/C6H6N2O/c7-1-4-5-2-8(5)6(4)3-9/h3-6H,2H2/t4-,5+,6-,8?/m0/s1
