14
gdb 83068	2.90578	1.52932	1.30021	5.3891	66.82	-0.2417	-0.0018	0.2399	969.578	0.101717	-432.860942	-432.853175	-432.85223	-432.893092	28.848	
O	-0.1070208692	 1.3846124322	 0.0431580412	-0.4165
C	-0.0689905478	 0.0044692123	-0.0098387405	 0.053609
C	-1.3712978067	-0.7434654441	 0.0502174078	-0.116264
N	-2.5431627869	-0.0311011539	-0.3616419077	-0.268081
C	-2.3256948961	 0.4627032332	-1.6242653455	 0.065434
N	-1.2750910028	 0.0473241996	-2.2390270909	-0.308377
C	-0.5414738921	-0.7342853506	-1.271728655	 0.134822
C	 0.2163547175	-1.8606436464	-1.7385177199	 0.233793
N	 0.8448682821	-2.77098185	-2.0758124704	-0.344096
H	 0.4068523633	 1.7363708378	-0.6933097198	 0.304615
H	 0.765157156	-0.4793887484	 0.4951674654	 0.12054
H	-1.5038327169	-1.6053228437	 0.6926910343	 0.132307
H	-3.1319128683	 0.4427844671	 0.3044194062	 0.265665
H	-3.050227552	 1.1352378649	-2.0698513052	 0.142534
138.4989	158.4881	172.6623	211.1636	279.798	342.8006	467.1808	475.8064	523.7243	561.3676	615.3873	717.0068	750.6729	782.3942	897.8432	922.0383	962.5891	988.4953	1042.9394	1082.4955	1118.0338	1148.5358	1222.602	1243.1991	1303.3677	1325.7389	1360.1071	1427.3643	1442.3384	1640.8342	2356.4557	3126.4142	3189.6794	3210.7486	3646.6861	3793.0999
OC1C2NC=NC12C#N	O[C@H]1[C@H]2NC=N[C@@]12C#N	
InChI=1S/C5H5N3O/c6-1-5-3(4(5)9)7-2-8-5/h2-4,9H,(H,7,8)	InChI=1S/C5H5N3O/c6-1-5-3(4(5)9)7-2-8-5/h2-4,9H,(H,7,8)/t3-,4+,5-/m1/s1
