22
gdb 69850	2.20057	2.03338	1.47868	1.554	85.08	-0.2181	0.0786	0.2967	1019.49	0.195723	-367.173649	-367.16563	-367.164686	-367.205309	33.547	
C	-0.0026135294	 1.479501113	 0.0239638859	-0.499158
C	 0.0432310669	-0.0224525142	-0.0244588165	 0.316372
N	-0.6040812093	-0.8340698823	 1.0412738413	-0.389067
C	 0.8694930196	-0.8927095099	 0.8390100176	-0.08362
C	 1.3487372549	-1.9537864285	-0.1699641575	-0.050132
C	 0.0626387935	-2.2652013433	-0.9792495871	-0.258042
C	 0.1778899449	-0.7666886235	-1.3890919673	 0.293126
C	-0.5520863743	-0.2097711172	-2.5911809958	-0.512047
C	 1.734591199	-1.018109255	-1.3669711175	-0.256031
H	 0.7670694443	 1.9218815561	-0.6182942909	 0.123973
H	-0.9728284564	 1.8635628154	-0.3127446774	 0.124187
H	 0.1656907258	 1.8448122788	 1.0429794543	 0.110853
H	-0.7873025865	-0.2207936773	 1.8346484066	 0.218612
H	 1.5321632426	-0.5121167331	 1.6090898443	 0.082003
H	 2.0104707531	-2.7415816338	 0.1897807112	 0.057855
H	 0.2731065456	-2.9205005725	-1.8278338353	 0.082623
H	-0.8258342351	-2.5892101087	-0.4416189984	 0.120333
H	-1.6363711057	-0.2199419508	-2.4304753545	 0.121197
H	-0.2587171575	 0.824273224	-2.8050568235	 0.112457
H	-0.3441613703	-0.8040399063	-3.4870197741	 0.112715
H	 2.3891813261	-0.1652938427	-1.1579845498	 0.082353
H	 2.0908163183	-1.5618941181	-2.2465238956	 0.089435
179.8002	208.1249	231.3511	248.4308	286.1762	340.8505	424.536	467.3202	525.6112	545.8353	597.5762	621.7817	711.9658	819.0065	842.5561	855.724	860.9635	885.974	899.9755	950.8097	961.3232	990.0187	1001.7501	1029.3885	1043.1486	1062.3287	1090.4467	1107.1832	1122.7549	1160.045	1193.6579	1214.3083	1227.5971	1232.3086	1266.2437	1293.4188	1327.4729	1341.4063	1405.8977	1415.7395	1429.5444	1474.8504	1483.7444	1492.3751	1495.7346	1503.3257	1514.0237	3020.3633	3024.5967	3040.0678	3074.9318	3081.516	3086.4094	3091.9173	3094.1762	3103.5969	3113.7197	3158.4233	3166.8109	3471.3514
CC12NC1C1CC2(C)C1	C[C@]12N[C@H]1[C@H]1C[C@]2(C)C1	
InChI=1S/C8H13N/c1-7-3-5(4-7)6-8(7,2)9-6/h5-6,9H,3-4H2,1-2H3	InChI=1S/C8H13N/c1-7-3-5(4-7)6-8(7,2)9-6/h5-6,9H,3-4H2,1-2H3/t5-,6-,7+,8-/m0/s1
