20
gdb 9955	3.01338	1.4534	1.29223	0.6917	71.31	-0.2459	0.057	0.303	1069.2031	0.174503	-386.124862	-386.114905	-386.113961	-386.159313	35.738	
C	-0.1326870019	 0.8752525586	-1.9867540764	-0.426971
C	-0.0167953612	-0.2834348864	-1.019788461	-0.077513
C	 1.2983479342	-0.6588928501	-0.3461014304	-0.069737
C	 2.5893608631	 0.093252279	-0.5898319498	-0.409583
C	 0.1782223545	-0.0596974592	 0.4644175362	 0.351162
O	 0.3748351133	 1.2614731948	 0.9161169129	-0.472251
C	-0.5530105302	-0.9052043936	 1.4848795323	-0.12257
O	-1.774793306	-0.3032010314	 1.893419642	-0.423898
H	 0.4363047813	 1.7455321216	-1.6522093604	 0.124957
H	 0.2348142129	 0.5987548833	-2.9808402229	 0.120632
H	-1.1786222296	 1.1832994421	-2.0997801291	 0.116598
H	-0.6567234666	-1.1265165255	-1.2709109952	 0.082775
H	 1.4379912879	-1.7284711288	-0.1998317545	 0.079951
H	 2.4407628848	 1.1732388671	-0.5461563556	 0.133164
H	 3.3313489613	-0.1638443485	 0.1736423415	 0.116955
H	 3.0170896289	-0.1601683358	-1.5659587641	 0.112795
H	-0.4242799042	 1.755374597	 0.7025043101	 0.286935
H	-0.8102826666	-1.8782962331	 1.0544849002	 0.105769
H	 0.1021154103	-1.0835548426	 2.351968294	 0.090931
H	-1.5315575461	 0.4682938714	 2.41561845	 0.2799
80.4725	115.0516	147.9155	150.635	174.8631	209.0333	220.9552	269.7168	332.3978	376.5456	476.0954	493.1839	547.8797	593.1119	715.0735	785.6678	839.3398	939.301	955.6676	1014.5559	1030.8374	1047.1455	1068.811	1091.778	1130.5831	1144.7607	1178.0984	1201.3003	1249.4002	1292.6437	1336.4998	1371.8727	1385.6866	1408.6422	1413.0721	1419.6101	1461.2469	1490.3159	1491.53	1495.9241	1506.1659	1516.2824	2982.8959	3031.4317	3036.7875	3078.9316	3085.2679	3090.2465	3111.7612	3120.1143	3131.9569	3142.4205	3801.5226	3814.8659
CC1C(C)C1(O)CO	C[C@H]1[C@@H](C)[C@]1(O)CO	
InChI=1S/C6H12O2/c1-4-5(2)6(4,8)3-7/h4-5,7-8H,3H2,1-2H3	InChI=1S/C6H12O2/c1-4-5(2)6(4,8)3-7/h4-5,7-8H,3H2,1-2H3/t4-,5+,6-
