17
gdb 81083	1.94797	1.74161	1.15999	3.7481	75.13	-0.2481	-0.0394	0.2087	1100.7636	0.134488	-421.79988	-421.791434	-421.79049	-421.833253	31.031	
C	-0.1666347122	 1.5510076712	-0.0194625762	-0.443248
C	 0.0217112942	 0.0402070064	 0.0147509966	-0.011862
C	 1.2213247644	-0.632112618	-0.7630617152	-0.186418
C	 2.1667242324	-0.1517685044	 0.3945636281	-0.282339
C	 0.8925414217	-0.6293353082	 1.1597923362	 0.100641
C	 0.6461988782	-0.6409433309	 2.620816224	 0.029237
O	 1.4837485809	-0.3747256491	 3.4488052922	-0.246972
C	 0.940572043	-1.8253485217	 0.1465523971	 0.419019
O	 0.818344559	-3.0061051928	 0.1274901453	-0.307213
H	 0.7517478635	 2.1149508971	 0.1527680137	 0.132887
H	-0.5648671261	 1.8505663849	-0.9943535117	 0.132025
H	-0.8928713151	 1.8574730041	 0.7399413029	 0.133287
H	-0.9405240852	-0.4533787375	-0.1529690363	 0.097626
H	 1.4112427161	-0.6127449618	-1.8340418809	 0.10121
H	 3.0826483607	-0.7198195915	 0.5586529289	 0.129473
H	 2.3572991809	 0.9185930241	 0.4323433874	 0.12283
H	-0.3865178962	-0.9336797419	 2.9161920778	 0.079816
69.3532	152.3931	169.5213	191.8976	199.2682	244.7126	372.587	452.9336	515.1636	549.9435	655.7646	721.2727	728.7708	751.2573	810.3264	870.5176	949.8081	994.126	1019.9465	1022.1032	1043.486	1089.884	1098.4483	1125.1565	1154.4138	1181.5534	1212.6566	1228.1427	1314.7466	1409.3234	1423.5757	1426.7272	1492.5805	1495.6374	1528.8031	1803.1387	1923.9063	2877.6429	3044.6949	3059.9474	3099.7639	3103.6287	3134.1382	3147.6902	3171.9874
CC1C2CC1(C=O)C2=O	C[C@H]1[C@H]2C[C@]1(C=O)C2=O	
InChI=1S/C7H8O2/c1-4-5-2-7(4,3-8)6(5)9/h3-5H,2H2,1H3	InChI=1S/C7H8O2/c1-4-5-2-7(4,3-8)6(5)9/h3-5H,2H2,1H3/t4-,5+,7+/m0/s1
