18
gdb 17405	4.43772	1.51953	1.47418	2.2922	72.04	-0.2215	0.0726	0.2941	939.3205	0.154455	-343.908929	-343.901568	-343.900624	-343.940334	28.575	
C	-0.0926324443	 1.5290378312	-0.0521891204	-0.39182
C	-0.0459684602	 0.0252111247	 0.0673420634	-0.081181
N	 1.281783834	-0.6107307211	-0.1027946558	-0.389772
C	 0.6173160088	-0.6690909113	 1.1943454279	 0.357923
C	 1.2935964252	-0.1911266728	 2.4843409805	-0.240634
N	 0.9489087785	-1.486600907	 3.1857398513	-0.124299
C	-0.5214565528	-1.5712504109	 3.1691401918	-0.237468
C	 0.2081702837	-1.9221559083	 1.9314876966	-0.126717
H	 0.7887897359	 1.9790738993	 0.4125051487	 0.127329
H	-0.1123144131	 1.8371980011	-1.1029525014	 0.122398
H	-0.986864438	 1.9324299225	 0.4355088361	 0.114804
H	-0.897170872	-0.4976885115	-0.369215887	 0.081573
H	 1.1950057247	-1.5008740604	-0.5886657999	 0.228987
H	 2.3757355011	-0.0946876982	 2.378212754	 0.126
H	 0.8883185053	 0.6965218831	 2.9821061864	 0.103285
H	-0.9059123918	-2.3834626516	 3.7791341985	 0.121759
H	-1.1072371357	-0.6546260197	 3.2076420591	 0.111733
H	 0.2751965007	-2.9363324691	 1.5467884601	 0.096102
120.3934	164.3063	184.4049	244.0482	388.1423	427.3734	456.6781	496.4841	557.53	744.4367	782.6597	792.7922	823.7356	895.9658	928.8336	962.4766	978.6423	1027.1711	1039.0105	1052.4498	1074.7184	1090.1724	1110.7278	1114.4439	1135.3879	1196.7624	1217.6269	1230.1462	1268.4129	1282.6103	1324.1461	1369.5382	1412.1412	1475.354	1486.2481	1490.5724	1502.5236	1509.6901	3033.2452	3044.4514	3096.2846	3098.5745	3099.2736	3119.0713	3121.9852	3146.3678	3192.3181	3487.4198
CC1NC11CN2CC12	C[C@H]1N[C@]21CN1C[C@@H]21	
InChI=1S/C6H10N2/c1-4-6(7-4)3-8-2-5(6)8/h4-5,7H,2-3H2,1H3	InChI=1S/C6H10N2/c1-4-6(7-4)3-8-2-5(6)8/h4-5,7H,2-3H2,1H3/t4-,5+,6+,8?/m1/s1
