19
gdb 68441	2.51739	1.68676	1.31551	1.5534	74.76	-0.2466	-0.027	0.2197	1026.3485	0.158848	-423.023843	-423.015689	-423.014745	-423.056567	31.409	
C	-0.0526260251	 1.4862497686	 0.245463674	-0.511935
C	 0.0528251813	 0.0002290654	 0.0630784279	 0.425122
C	 0.5455091431	-0.6911503601	-1.2325276081	-0.273685
C	-0.3920254711	-1.7692622029	-0.6577811961	 0.079513
C	 0.3459396777	-2.279851911	 0.5981970359	-0.254984
C	 0.6856020873	-0.862216638	 1.1917657025	-0.119925
C	 2.1521363084	-0.6598329843	 1.4650863974	 0.137737
O	 2.8832145464	 0.0738390318	 0.8446852649	-0.25443
O	-1.22745882	-0.7051704344	-0.1135934883	-0.33493
H	 0.9493357021	 1.9187382771	 0.3090065449	 0.148332
H	-0.5844590004	 1.9405998392	-0.5946425437	 0.12663
H	-0.5957133842	 1.7255454006	 1.1661658495	 0.122873
H	 0.1208790097	-0.2162183484	-2.1176059309	 0.109784
H	 1.6097753027	-0.8983439397	-1.3546964066	 0.111286
H	-0.9300197048	-2.4931041336	-1.2694014961	 0.081871
H	-0.3082433428	-2.8593380412	 1.2514664847	 0.116152
H	 1.2290442453	-2.880274457	 0.3592168413	 0.108505
H	 0.1456426112	-0.7138180888	 2.1344757085	 0.098118
H	 2.5479221932	-1.2632628234	 2.3149198184	 0.083966
72.5607	155.3096	187.8571	220.8934	284.7486	329.6368	379.1036	420.3219	543.5881	602.8627	671.3258	711.2015	793.7369	817.052	859.0363	882.683	900.7164	932.6509	966.9195	977.7457	1017.3261	1026.2882	1070.3385	1088.1373	1132.0284	1149.869	1187.2958	1214.4176	1230.5954	1274.913	1290.4638	1299.6993	1317.5592	1362.6316	1414.0115	1427.7514	1483.7636	1488.0844	1492.2775	1500.5144	1814.3358	2861.691	3040.7624	3044.3959	3061.3602	3082.2145	3110.8784	3121.5801	3127.5441	3131.4622	3152.0501
CC12CC(CC1C=O)O2	C[C@@]12C[C@@H](C[C@H]1C=O)O2	
InChI=1S/C7H10O2/c1-7-3-6(9-7)2-5(7)4-8/h4-6H,2-3H2,1H3	InChI=1S/C7H10O2/c1-7-3-6(9-7)2-5(7)4-8/h4-6H,2-3H2,1H3/t5-,6+,7+/m0/s1
