22
gdb 60229	3.00186	0.97975	0.7788	2.3956	83.73	-0.2624	0.026	0.2883	1512.0418	0.193508	-404.357502	-404.347676	-404.346731	-404.392933	36.199	
C	-0.0515947491	 1.5622845998	-0.3207359756	-0.394519
C	 0.0023705303	 0.0439214389	-0.1050719293	 0.036618
C	 0.6253896889	-0.6525000592	-1.3237698845	-0.389269
C	 0.7603131837	-0.3571198866	 1.1757960705	-0.197913
C	 0.0469652562	-0.0639216772	 2.5003374869	-0.136107
C	 0.7096779854	-0.6099854766	 3.7872144512	-0.104643
O	 0.7852186476	 0.7405542642	 4.3366994784	-0.250929
C	 0.2216694958	 1.2789473884	 3.1998653455	 0.440043
N	-0.0397928516	 2.4738486795	 2.9220951698	-0.538927
H	 0.9580556908	 1.9624231332	-0.4755420067	 0.105128
H	-0.640777816	 1.8013162311	-1.2126566667	 0.101079
H	-0.4810437624	 2.0892593578	 0.5339880889	 0.160475
H	-1.0291692819	-0.324771692	-0.0014483949	 0.069304
H	 1.6691490942	-0.3437978248	-1.4586035569	 0.112654
H	 0.6107071059	-1.7429802131	-1.2201337695	 0.105006
H	 0.0856227435	-0.3943277838	-2.2405255001	 0.112144
H	 0.9321964147	-1.4417385892	 1.1470519252	 0.095235
H	 1.754771854	 0.1090666149	 1.1805956295	 0.101428
H	-1.0106246523	-0.3372348954	 2.426546597	 0.106723
H	 0.1011517687	-1.2585521516	 4.421930669	 0.119804
H	 1.7097605166	-1.0331215117	 3.6569318847	 0.11871
H	 0.2302516069	 3.1007680234	 3.6818662275	 0.227954
36.8461	86.4831	130.9248	191.0348	206.0391	233.3278	265.2209	301.4367	359.8863	423.9287	431.5413	470.5778	657.1737	745.655	791.2565	839.9084	859.0624	880.6846	931.8334	952.0433	970.0871	973.3884	978.4464	1013.9007	1053.6855	1104.6981	1133.7262	1154.9437	1176.1284	1197.2011	1224.9806	1237.2664	1264.6372	1315.1569	1346.9848	1366.8749	1381.4911	1387.84	1404.8058	1430.805	1478.2528	1489.7159	1496.5138	1508.1034	1512.2933	1517.0977	1816.8993	2989.8549	3007.6382	3021.9215	3027.7201	3044.6	3056.0063	3065.3492	3084.4437	3090.085	3099.1958	3116.0984	3131.2269	3475.34
CC(C)CC1COC1=N	CC(C)C[C@H]1CO[C]1[NH]	
InChI=1S/C7H13NO/c1-5(2)3-6-4-9-7(6)8/h5-6,8H,3-4H2,1-2H3	InChI=1S/C7H13NO/c1-5(2)3-6-4-9-7(6)8/h5-6,8H,3-4H2,1-2H3/t6-/m0/s1
