16
gdb 51326	4.24743	1.25339	1.14205	1.1008	68.84	-0.2359	0.0263	0.2622	1070.449	0.124822	-437.809054	-437.801946	-437.801002	-437.841295	27.245	
N	-0.6641652705	 0.3504327444	 1.1205730807	-0.471986
C	-0.2893872526	 0.186200078	-0.0782695201	 0.121722
O	-0.4402886311	-0.9599306092	-0.7554620894	-0.220252
C	-1.0311327433	-2.0458792412	-0.0488179221	 0.209543
C	-2.5350590389	-2.1108979882	 0.1522517348	-0.168285
C	-3.0622451053	-2.7735144251	-1.1269970469	 0.09975
O	-1.9714243981	-2.9300195007	-2.0338532494	-0.282801
C	-1.1829356594	-3.3334650485	-0.8853158558	-0.006126
C	-2.4875511778	-3.6316854723	-0.0554656521	-0.153458
H	-0.4457816819	 1.2944935539	 1.4312073995	 0.229046
H	 0.1957829144	 0.9232207742	-0.7256366202	 0.110467
H	-0.5009447902	-2.2163304396	 0.8904328415	 0.107838
H	-3.1429570563	-1.5424979414	 0.8407029738	 0.109316
H	-4.0640133245	-2.6561154603	-1.5168783533	 0.114951
H	-0.3497743648	-3.9874660899	-1.1296661523	 0.092595
H	-2.8407725098	-4.4596657341	 0.5407553311	 0.107679
53.0148	156.7906	184.2155	275.7571	349.8673	547.4724	602.3129	730.8996	761.4609	768.6945	789.5737	819.1874	835.4022	845.6971	910.5457	953.2667	971.283	995.5349	1005.092	1024.3848	1038.5826	1047.9092	1069.7304	1092.3806	1109.652	1153.9918	1170.6654	1225.2837	1253.7629	1306.3106	1324.9157	1367.1371	1388.564	1405.7068	1714.4958	3085.2549	3100.4032	3158.7638	3215.0375	3225.9487	3238.2764	3517.1622
N=COC1C2C3OC1C23	[NH][CH]O[C@H]1[C@H]2[C@H]3O[C@@H]1[C@@H]23	
InChI=1S/C6H7NO2/c7-1-8-5-2-3-4(2)9-6(3)5/h1-7H	InChI=1S/C6H7NO2/c7-1-8-5-2-3-4(2)9-6(3)5/h1-7H/t2-,3+,4-,5+,6-/m1/s1
