21
gdb 94585	3.20797	0.9192	0.82619	3.511	80.49	-0.238	0.0576	0.2956	1478.7716	0.183025	-420.444636	-420.434847	-420.433903	-420.480108	36.426	
C	-0.1758506074	 1.5022191142	-0.0032807591	-0.398618
C	 0.0251728473	-0.0100708215	 0.0304765881	-0.004537
C	 1.1405085791	-0.5243532135	-0.9296471668	-0.224549
C	 2.1275904237	-0.5645731826	 0.2687991373	-0.249058
C	 0.9007044803	-0.5340274978	 1.2180176949	 0.075396
N	 0.9695457512	 0.2201345353	 2.442979817	-0.352627
C	 0.8005310579	-0.3719053555	 3.6756556582	 0.448844
N	 1.048694584	 0.4849202958	 4.7462082667	-0.569472
O	 0.4924701135	-1.5387097125	 3.8318873659	-0.389838
H	 0.7770863826	 2.0439492502	 0.0418065976	 0.102314
H	-0.6750411349	 1.8045264099	-0.9297172744	 0.117866
H	-0.7916618941	 1.8390083597	 0.8371045158	 0.115061
H	-0.9451913181	-0.5064134247	-0.0661603439	 0.070537
H	 0.9245094657	-1.5225695208	-1.3186047446	 0.105007
H	 1.4019640919	 0.126137442	-1.768011252	 0.095141
H	 2.8082326168	-1.4146744768	 0.3541240516	 0.105936
H	 2.717052273	 0.3556807649	 0.3399288275	 0.091853
H	 0.5993412882	-1.5423713349	 1.503890558	 0.123519
H	 1.4266220458	 1.1174389893	 2.4122494725	 0.234517
H	 0.8272694452	 1.4617668109	 4.6200641541	 0.243625
H	 0.7096586883	 0.1050568484	 5.6173957056	 0.259083
35.697	76.7193	103.3266	193.0054	230.3366	238.6934	336.1993	356.9172	379.8826	414.7561	455.5893	551.4773	564.511	621.4039	698.6742	774.4045	785.025	827.0135	882.1736	911.5023	945.9072	966.2283	995.4199	1019.3948	1078.6672	1095.82	1130.1914	1168.4281	1200.5027	1217.5163	1250.1973	1260.6573	1282.3489	1292.4285	1305.7036	1366.0781	1385.7206	1407.9319	1479.1952	1496.61	1498.5811	1498.8669	1541.1646	1627.9666	1802.6962	3022.1971	3047.1193	3050.9368	3063.3495	3087.5293	3099.5198	3100.6745	3113.3095	3123.8479	3569.1936	3627.0537	3682.4166
CC1CCC1NC(N)=O	C[C@H]1CC[C@H]1NC(=O)N	
InChI=1S/C6H12N2O/c1-4-2-3-5(4)8-6(7)9/h4-5H,2-3H2,1H3,(H3,7,8,9)	InChI=1S/C6H12N2O/c1-4-2-3-5(4)8-6(7)9/h4-5H,2-3H2,1H3,(H3,7,8,9)/t4-,5+/m0/s1
