17
gdb 34731	3.39477	1.51752	1.31747	1.0787	84.7	-0.2135	-0.0375	0.176	997.6731	0.135694	-347.415273	-347.408121	-347.407177	-347.446574	29.326	
C	 0.4577507827	-1.1315026331	-0.0554579365	-0.441618
C	 0.2431074841	 0.0520385574	-0.0438491778	 0.321666
C	-0.0332506257	 1.4745038469	-0.0307668929	-0.212901
C	-0.2438395377	 2.2655122474	 1.3280064235	-0.079156
C	 0.9919615293	 2.9502854866	 2.0413488935	-0.039926
C	 2.4636746012	 2.588057521	 1.7638605507	-0.261655
C	 2.3185586109	 2.0969026555	 0.3275293213	-0.101544
C	 1.1274065638	 2.4902816977	-0.1660952035	 0.02917
C	 0.4283095593	 3.4862813001	 0.77640046	-0.122557
H	 0.6456167211	-2.1766239777	-0.0601647484	 0.196194
H	-0.9055075723	 1.6940283864	-0.6594530385	 0.107855
H	-1.184888685	 2.2309998478	 1.8714889835	 0.095901
H	 0.7138284022	 3.3934551338	 2.9965327119	 0.081209
H	 3.1104638221	 3.4575330763	 1.9493593964	 0.10935
H	 2.8549496044	 1.7631496333	 2.3712373514	 0.115247
H	 2.7822212278	 1.1632406687	 0.0255801089	 0.111062
H	 0.0286515721	 4.463321772	 0.5397986564	 0.091701
116.0864	150.7281	281.9135	373.1759	383.3461	514.9864	526.8969	607.7433	626.5817	639.434	690.3596	751.7819	760.8846	802.9715	824.7698	873.2456	890.1	903.1374	945.9514	963.2652	984.6281	1010.4689	1055.2015	1064.5239	1073.2002	1103.1475	1152.0095	1186.2894	1217.7951	1269.1925	1275.5333	1300.0919	1346.8315	1375.7532	1473.5096	1588.2487	2230.212	3001.342	3021.6839	3055.5698	3126.0642	3141.5352	3180.0168	3199.3203	3503.4565
C#CC1C2C3CC=C1C23	C#C[C@H]1[C@H]2[C@H]3C[CH][C]1[C@@H]23	
InChI=1S/C9H8/c1-2-5-6-3-4-7-8(5)9(6)7/h1,3,5,7-9H,4H2	InChI=1S/C9H8/c1-2-5-6-3-4-7-8(5)9(6)7/h1,3,5,7-9H,4H2/t5-,7-,8+,9-/m1/s1
