19
gdb 127130	2.54313	1.5158	1.0303	2.0785	79.61	-0.1799	0.0389	0.2188	1181.5972	0.160802	-415.388346	-415.379029	-415.378085	-415.42212	34.708	
C	 0.01815797	 1.4243838726	-0.1451492908	-0.30939
N	-0.0425151869	-0.0039845727	 0.129745232	-0.159576
C	 0.7622858286	-0.3904945575	 1.2884042282	-0.34837
C	-1.330083332	-0.5566331565	 0.1018856813	 0.36339
N	-2.4372581902	 0.1847966739	 0.09180522	-0.311399
N	-3.4422291468	-0.7083245242	 0.006910369	-0.209738
C	-3.0072146337	-1.9988863462	-0.0394878473	-0.100385
C	-1.6315531332	-1.9466925742	 0.0141233727	 0.11271
N	-0.6861829376	-2.9916114853	 0.025784827	-0.620432
H	 1.0654253876	 1.7129956704	-0.2818043604	 0.106189
H	-0.5369995423	 1.6467265046	-1.058424825	 0.130689
H	-0.409572029	 2.0355325411	 0.6658018138	 0.110252
H	 0.4385857696	 0.1185081386	 2.2123473937	 0.104091
H	 0.693721731	-1.4684351915	 1.4486961376	 0.146751
H	 1.8098271084	-0.1296025378	 1.1042104986	 0.111346
H	-4.38771576	-0.3754845343	-0.0434119479	 0.268358
H	-3.6889138124	-2.8310376189	-0.1174735417	 0.119108
H	-1.0751000162	-3.8640843224	-0.3100962005	 0.238791
H	 0.1153779651	-2.7527424799	-0.5492473602	 0.247613
63.1819	162.4408	188.1654	234.9441	251.1365	263.7287	282.5178	314.215	327.9094	378.9437	449.859	536.4711	606.4109	642.1366	722.9478	725.7671	750.937	839.095	935.8569	969.4744	1067.1731	1077.5849	1110.4893	1123.8346	1183.6229	1184.9086	1216.8222	1249.2127	1324.1395	1347.8357	1426.7774	1444.0919	1462.4281	1478.5763	1487.9174	1499.2225	1500.2614	1512.5504	1565.4328	1629.479	1657.3791	2960.2397	2978.6947	3064.1316	3067.34	3127.1063	3129.0367	3256.4358	3505.6408	3601.3508	3698.2461
CN(C)C1=NNC=C1N	CN(C)c1n[nH]cc1N	
InChI=1S/C5H10N4/c1-9(2)5-4(6)3-7-8-5/h3H,6H2,1-2H3,(H,7,8)	InChI=1S/C5H10N4/c1-9(2)5-4(6)3-7-8-5/h3H,6H2,1-2H3,(H,7,8)
