20
gdb 90491	3.84585	1.03367	0.97862	1.2736	80.43	-0.2354	0.082	0.3175	1288.0038	0.171019	-403.073847	-403.065475	-403.064531	-403.107081	32.415	
O	-0.2479531487	 1.2617047091	-0.4225515343	-0.443844
C	-0.0756695482	-0.1058648817	-0.103124795	 0.137543
C	 0.3730445112	-0.3697332585	 1.3728293111	-0.262521
C	-0.9988373571	-0.9926371717	 1.663487651	-0.104166
C	-1.4382234048	-0.724835856	 0.2112584509	-0.10843
C	-1.2793595231	-2.1256587806	 0.7213579052	 0.046713
N	-0.2284941491	-2.981393804	 0.2388609888	-0.062123
C	-0.2193662357	-4.3487705227	 0.7489410256	-0.223811
C	-0.6321205424	-4.0639137777	-0.6532922102	-0.222796
H	 0.6262830896	 1.6495437367	-0.531732613	 0.279651
H	 0.5110079425	-0.6231599724	-0.8727437329	 0.069907
H	 1.2441650445	-1.0109342606	 1.5299810693	 0.098296
H	 0.5080321703	 0.5848379346	 1.8864629045	 0.099114
H	-1.5597782218	-0.8749597986	 2.5834427591	 0.081095
H	-2.3742125314	-0.3464137192	-0.1818742779	 0.089563
H	-2.2368531979	-2.6208471677	 0.9162767023	 0.071496
H	 0.7593079636	-4.7685387928	 0.9635420624	 0.116305
H	-1.0013974129	-4.6336079283	 1.4510592417	 0.110472
H	-1.690451281	-4.1581982067	-0.8909712289	 0.111167
H	 0.0399211725	-4.2714983511	-1.4811353996	 0.116368
68.451	115.2409	164.7446	239.6295	286.6724	311.0393	336.9999	436.096	510.9116	595.6671	723.0231	753.8817	794.6579	818.7253	859.7758	887.798	898.6453	947.673	974.0629	995.4817	1005.0276	1036.4158	1040.6824	1058.8236	1086.3161	1112.9961	1116.9656	1135.3438	1146.8351	1175.0793	1183.4128	1209.873	1222.1592	1248.7297	1274.6371	1312.7278	1326.5101	1345.7842	1422.5441	1438.5177	1469.4218	1492.0225	1519.8074	3017.883	3038.3274	3059.5295	3094.1698	3098.5097	3119.8778	3171.5986	3176.3013	3188.5431	3190.8001	3813.4315
OC1CC2C1C2N1CC1	O[C@H]1C[C@H]2[C@@H]1[C@H]2N1CC1	
InChI=1S/C7H11NO/c9-5-3-4-6(5)7(4)8-1-2-8/h4-7,9H,1-3H2	InChI=1S/C7H11NO/c9-5-3-4-6(5)7(4)8-1-2-8/h4-7,9H,1-3H2/t4-,5-,6-,7-/m0/s1
