19
gdb 86331	2.03901	1.69437	1.00903	2.4737	72.94	-0.2216	0.0272	0.2488	1183.2915	0.15916	-456.347159	-456.33795	-456.337006	-456.381249	34.478	
C	-0.0107257012	 1.2900095299	-0.3421826034	-0.331119
N	-0.0659198563	-0.0958271765	 0.0721472047	-0.082323
C	-1.3028128272	-0.6365849412	 0.6663375934	-0.200995
C	-0.4253347656	-1.5497248402	 1.5537215108	 0.085495
O	-0.2158593552	-2.8536324274	 1.0376112162	-0.433648
C	 0.704385176	-0.516202783	 1.261824526	-0.083309
C	 2.1599904798	-0.8745792819	 0.9711185679	 0.384226
N	 2.5401300354	-2.1319486316	 1.3273372789	-0.531428
O	 2.9110248068	-0.0489243026	 0.4851522125	-0.370861
H	 1.0206310789	 1.5399337853	-0.5997708997	 0.156579
H	-0.6424003834	 1.4402207272	-1.2240443931	 0.116085
H	-0.3522911461	 1.9826875214	 0.4504209187	 0.08915
H	-1.8621912068	 0.1007252512	 1.2668781834	 0.091897
H	-1.9899999825	-1.1264017064	-0.0329570915	 0.104054
H	-0.7176443491	-1.677860635	 2.5955274516	 0.100398
H	-0.0721792057	-2.7626897736	 0.0870540113	 0.294564
H	 0.7148744115	 0.2570386133	 2.0512245325	 0.086188
H	 1.8308755504	-2.8355764887	 1.4792106467	 0.269516
H	 3.4733946504	-2.4189682304	 1.0748122332	 0.255532
55.6473	111.1086	167.3183	212.3877	241.4441	298.1445	326.6513	359.2072	402.4326	412.8139	487.5102	539.6689	589.0372	658.6787	724.5071	762.3458	837.4759	861.5438	945.1994	982.6796	1001.4099	1028.3163	1100.4701	1128.8143	1145.5712	1171.6671	1193.6266	1229.3982	1244.9772	1283.0662	1295.3283	1323.8838	1332.4329	1387.4006	1438.7118	1445.3525	1488.7097	1499.9606	1512.4952	1622.378	1791.5401	2929.152	2940.6554	2963.1758	3056.1207	3067.2127	3123.9378	3132.0834	3542.2049	3685.7254	3781.5586
CN1CC(O)C1C(N)=O	CN1C[C@@H](O)[C@H]1C(=O)N	
InChI=1S/C5H10N2O2/c1-7-2-3(8)4(7)5(6)9/h3-4,8H,2H2,1H3,(H2,6,9)	InChI=1S/C5H10N2O2/c1-7-2-3(8)4(7)5(6)9/h3-4,8H,2H2,1H3,(H2,6,9)/t3-,4+/m1/s1
