18
gdb 40507	4.42646	1.20384	1.15099	2.6323	75.43	-0.2274	0.0786	0.306	1104.4724	0.148728	-401.839173	-401.831999	-401.831055	-401.871162	28.226	
C	 0.0640591065	 1.4576063128	-0.0769824172	-0.182335
O	 1.1860787399	 0.5739879518	-0.0834174669	-0.235913
C	-0.1247928531	 0.0053665678	 0.0507139976	-0.072467
C	-0.4372652617	-0.6379913425	 1.3443518164	 0.36245
C	 0.0092342332	-0.2585426911	 2.7476523292	-0.241591
N	-0.3800627632	-1.6475835693	 3.2186563208	-0.171594
C	-1.8875938269	-1.6042894424	 3.0481735906	-0.17888
C	-1.68695908	-1.5324399583	 1.5448713242	-0.146057
C	-0.307490492	-2.0863082519	 1.7375863745	-0.081226
H	-0.0276030207	 2.089581546	 0.8054018207	 0.114072
H	-0.1532309598	 1.9504979036	-1.0238130448	 0.115565
H	-0.4597169802	-0.5385170077	-0.8344567001	 0.090092
H	 1.0927253127	-0.1395070585	 2.8117003524	 0.124367
H	-0.4901728771	 0.5583070211	 3.2820448171	 0.094358
H	-2.3141920237	-2.5586972461	 3.3676354189	 0.11281
H	-2.3839489367	-0.7818591468	 3.5757334492	 0.099275
H	-2.3814653876	-1.7187623579	 0.734460417	 0.092236
H	 0.2451840003	-2.9285546106	 1.3466538304	 0.10484
71.4049	157.9415	165.6788	357.076	374.1852	476.948	514.8535	626.231	732.7832	778.6806	827.257	835.9193	843.8837	859.1382	911.5296	916.8183	937.8918	971.0383	995.5756	1011.0622	1055.429	1083.2944	1096.111	1107.522	1124.904	1155.3714	1156.7542	1169.6447	1187.2424	1209.2859	1247.6453	1278.345	1289.3225	1327.0359	1373.1913	1469.8233	1503.1989	1523.0463	1530.9729	3029.0216	3039.9578	3080.9636	3091.6098	3099.9857	3113.7784	3167.4991	3185.6834	3221.6207
C1OC1C12CN3CC1C23	C1O[C@H]1[C@@]12CN3C[C@@H]1[C@@H]23	
InChI=1S/C7H9NO/c1-4-6-7(4,3-8(1)6)5-2-9-5/h4-6H,1-3H2	InChI=1S/C7H9NO/c1-4-6-7(4,3-8(1)6)5-2-9-5/h4-6H,1-3H2/t4-,5-,6+,7-/m1/s1
