18
gdb 12806	3.39478	2.09713	1.60742	1.2966	73.31	-0.2317	0.0151	0.2468	860.415	0.154509	-347.793217	-347.78595	-347.785006	-347.824257	28.614	
C	-0.1076806342	 1.5183553036	 0.0154304501	-0.461277
C	-0.0150341619	 0.0036981917	-0.0065671655	 0.270152
C	-0.8082671983	-0.7742421043	 1.0386371464	-0.339996
C	 0.6960355671	-0.7008068633	 1.1171157569	 0.064844
O	 1.3997758853	-1.8788736617	 0.8435570179	-0.259751
C	 2.0710243957	-1.9055138881	-0.4096315811	-0.121093
C	 1.1942276376	-1.4624840614	-1.5538865119	-0.082837
C	 0.2003099966	-0.6012495543	-1.3493353779	-0.130917
H	 0.7859555782	 1.97722245	-0.4216427824	 0.120293
H	-0.9761774831	 1.8652743179	-0.5569622337	 0.11798
H	-0.2150407383	 1.8932776325	 1.0381648538	 0.115488
H	-1.3984869257	-0.210673124	 1.7543680573	 0.105854
H	-1.2186061368	-1.7345677459	 0.7487671059	 0.120312
H	 1.1492536305	-0.0970254769	 1.9026728578	 0.083585
H	 2.9884874853	-1.2918487631	-0.3732683421	 0.099946
H	 2.3891787636	-2.9440270941	-0.5472450729	 0.115491
H	 1.3992686045	-1.8775012111	-2.5363089287	 0.094134
H	-0.4548265162	-0.2878224876	-2.1590067399	 0.087792
143.6803	190.2845	219.7107	281.6705	321.5009	428.8864	476.6623	518.1374	528.3071	675.1401	723.6041	786.6643	859.4511	893.4308	924.432	939.2548	958.6855	989.1463	1030.621	1045.8905	1057.3591	1062.5567	1107.2928	1124.4228	1178.7942	1197.6485	1253.2975	1267.1713	1327.6237	1372.9605	1411.0886	1416.8586	1419.6231	1476.1974	1490.2633	1495.4317	1502.2874	1713.8846	2949.0595	3023.2647	3069.2114	3085.6141	3099.0396	3104.7378	3129.359	3146.5057	3178.1185	3226.7993
CC12CC1OCC=C2	C[C@]12C[C@H]1OCC=C2	
InChI=1S/C7H10O/c1-7-3-2-4-8-6(7)5-7/h2-3,6H,4-5H2,1H3	InChI=1S/C7H10O/c1-7-3-2-4-8-6(7)5-7/h2-3,6H,4-5H2,1H3/t6-,7+/m1/s1
