14
gdb 74240	2.7303	1.41026	1.00742	4.3112	70.16	-0.2407	-0.0045	0.2362	1126.8737	0.101157	-432.881932	-432.87373	-432.872786	-432.914793	30.766	
N	 0.0451785213	 1.3863887937	-0.0792435086	-0.579901
C	-0.0174473562	 0.016099461	-0.0236480063	 0.441677
N	-1.0926345944	-0.6800248363	-0.0665719159	-0.306479
C	-0.6677090456	-2.0885777218	-0.0789966249	-0.290265
C	-1.1658841149	-2.8355539498	-1.2269058478	 0.365956
C	-1.5648934449	-3.4510695592	-2.1772950722	-0.463007
C	 0.8909134387	-2.0652433347	-0.0375949294	 0.412016
O	 1.6811533877	-2.9686949157	-0.0549115192	-0.345992
N	 1.1761769388	-0.7071888186	 0.0377719833	-0.377781
H	 0.7584346596	 1.8236440175	 0.4864612497	 0.258586
H	-0.8637201898	 1.8159463087	 0.0259239221	 0.272173
H	-1.0094637627	-2.5796047127	 0.8437057829	 0.143067
H	-1.9214947032	-3.9973105084	-3.0152760858	 0.201081
H	 2.1064062757	-0.3356339138	-0.073138608	 0.268869
80.7681	135.6967	150.0073	293.2469	332.2488	365.3281	397.13	456.5568	480.5291	550.6167	609.0856	626.5253	636.3489	655.2123	689.9964	737.6906	749.5656	885.4735	979.8124	999.2813	1060.5627	1155.6684	1193.9741	1237.5075	1295.0042	1301.3988	1489.2243	1627.4876	1730.551	1870.6287	2245.2955	3006.6922	3504.4355	3562.7751	3642.8221	3667.7541
NC1=NC(C#C)C(=O)N1	NC1=N[C@@H](C#C)C(=O)N1	
InChI=1S/C5H5N3O/c1-2-3-4(9)8-5(6)7-3/h1,3H,(H3,6,7,8,9)	InChI=1S/C5H5N3O/c1-2-3-4(9)8-5(6)7-3/h1,3H,(H3,6,7,8,9)/t3-/m0/s1
