16
gdb 104555	2.49042	1.32793	1.05374	4.3005	71.63	-0.2619	-0.0023	0.2596	1162.6371	0.124192	-434.065835	-434.057102	-434.056158	-434.099481	31.922	
N	-0.0097134473	 1.5710916841	 0.0407874913	-0.50057
C	-0.2600194808	 0.1402068013	 0.078336913	-0.206463
C	 0.6965024425	-0.5223863269	 1.0653136205	 0.251954
C	 0.8378054185	-2.0665051782	 0.9696603127	-0.420558
C	 2.2319427862	-1.7544199637	 0.4728861223	 0.446285
N	 3.2004034597	-2.4356951865	 0.0752067373	-0.529246
O	 2.0877694569	-0.3790926062	 0.6012380198	-0.277404
C	 0.5527374826	 0.0019451537	 2.425135201	 0.29287
N	 0.4173013676	 0.3582841029	 3.5153181655	-0.327928
H	 0.8926599521	 1.7545735054	-0.3855705061	 0.246109
H	-0.7129102958	 2.0456925881	-0.5132394698	 0.241792
H	-1.2852667083	-0.0357332689	 0.423505537	 0.131627
H	-0.1404517836	-0.3848916102	-0.8847522269	 0.100323
H	 0.7998922388	-2.5999325654	 1.9192356084	 0.164141
H	 0.1786629764	-2.5460888662	 0.2445036081	 0.148892
H	 3.9988585646	-1.8533540733	-0.1811301742	 0.238176
76.3315	111.2676	164.6573	184.7778	229.1684	276.7883	383.7007	398.0733	448.8085	494.8994	522.9459	592.4845	657.9309	783.1576	831.4062	859.2674	873.4547	929.6697	946.6758	983.3798	1025.4059	1074.0533	1100.713	1144.0419	1185.8378	1236.5391	1250.1428	1277.8138	1346.8106	1423.3991	1462.885	1489.9666	1657.7586	1841.895	2364.3922	2957.3018	3068.1788	3097.3266	3158.0119	3486.7518	3515.7215	3600.1868
NCC1(CC(=N)O1)C#N	NC[C@]1(C[C]([NH])O1)C#N	
InChI=1S/C5H7N3O/c6-2-5(3-7)1-4(8)9-5/h8H,1-2,6H2	InChI=1S/C5H7N3O/c6-2-5(3-7)1-4(8)9-5/h8H,1-2,6H2/t5-/m1/s1
