17
gdb 125527	4.98854	1.27444	1.1529	2.4792	80.12	-0.2286	0.0039	0.2325	1091.29	0.137786	-380.828898	-380.821688	-380.820744	-380.860572	28.115	
C	 0.0287230227	 1.434810935	-0.0060521801	-0.485206
C	 0.0621818273	-0.0615104316	 0.0273134258	 0.352976
N	-0.1125177042	-0.7656091139	-1.0977295611	-0.334373
N	-0.1995133126	-2.0380086589	-0.6416788703	 0.051724
C	 0.3160895113	-3.3702256455	-0.991881195	-0.004044
C	 1.715949203	-3.5536633433	-0.4696764274	-0.268466
C	 0.5423772002	-3.5965473	 0.503802816	-0.19961
C	 0.0770363308	-2.1651527267	 0.6877789424	 0.279975
C	 0.2442359293	-0.8937129788	 1.1833676939	-0.393784
H	 0.8506978726	 1.8613872786	 0.5781427188	 0.123665
H	 0.109225851	 1.7868862626	-1.0366193814	 0.140286
H	-0.9054312186	 1.8252604783	 0.4143311786	 0.131736
H	-0.1681915917	-3.9932592001	-1.7313193372	 0.123231
H	 2.1802847916	-4.5101616349	-0.6978738484	 0.124273
H	 2.3962355464	-2.7085726953	-0.4501397368	 0.141117
H	 0.2890234612	-4.4666109226	 1.0920949049	 0.114267
H	 0.4482336097	-0.567431153	 2.1902656873	 0.102232
107.7495	120.3911	255.936	285.2734	311.5185	500.3922	513.5908	596.5817	671.324	709.2668	767.1768	785.5535	802.611	853.0411	866.5746	937.8363	972.7791	995.3506	1007.6476	1021.2171	1046.2513	1062.8664	1088.1554	1105.1818	1158.2661	1175.8728	1245.3654	1280.8627	1294.8016	1352.4436	1401.8923	1406.4354	1466.0236	1476.1728	1483.4939	1492.4222	1579.5937	3033.3438	3086.723	3118.6638	3132.2027	3208.9921	3212.6549	3225.0291	3265.3575
CC1=NN2C3CC3C2=C1	Cc1nn2[C@H]3C[C@H]3c2c1	
InChI=1S/C7H8N2/c1-4-2-6-5-3-7(5)9(6)8-4/h2,5,7H,3H2,1H3	InChI=1S/C7H8N2/c1-4-2-6-5-3-7(5)9(6)8-4/h2,5,7H,3H2,1H3/t5-,7-/m0/s1
