23
gdb 63548	2.97797	1.27171	1.07257	0.166	90.75	-0.2309	0.033	0.2638	1245.9081	0.205619	-351.164279	-351.155138	-351.154194	-351.197674	36.129	
C	-0.0694961856	 1.5133109178	 0.0450973169	-0.45331
C	-0.0159319113	-0.0041253128	 0.0392498099	 0.29774
C	-1.2626598615	-0.6450150158	-0.5442244668	-0.453313
C	 1.3165019977	-0.6678758846	-0.2275610756	-0.378317
C	 0.718020286	-0.7163188386	 1.161658575	 0.32877
C	 1.3954587802	 0.0515054687	 2.3136095493	-0.337215
C	 1.526672321	-0.991361608	 3.3951861407	-0.064216
C	 0.9003823446	-2.1242641777	 3.0858844847	-0.064215
C	 0.2284072037	-2.0596203962	 1.7372297945	-0.337218
H	 0.8552880687	 1.9572981279	 0.4227567672	 0.115097
H	-0.2297036118	 1.8957936718	-0.9699505869	 0.110966
H	-0.8947037385	 1.8810649373	 0.6674142204	 0.111267
H	-1.4361363536	-0.2870300129	-1.56600461	 0.110968
H	-1.1858190446	-1.734695616	-0.5850711801	 0.115098
H	-2.1531865563	-0.3951169358	 0.0456922124	 0.111266
H	 1.3253258046	-1.5846715179	-0.8107596422	 0.099716
H	 2.1834317264	-0.0324756124	-0.3869693708	 0.099716
H	 2.3655420084	 0.473345779	 2.0211606111	 0.101771
H	 0.7893805401	 0.8995925464	 2.6647018754	 0.103813
H	 2.0552649118	-0.8002459076	 4.3228073172	 0.088015
H	 0.8388938202	-3.0005545398	 3.7220845881	 0.088015
H	-0.865453838	-2.0938988132	 1.8474154666	 0.103813
H	 0.4949150977	-2.9105065195	 1.0973044632	 0.101771
71.505	167.3884	177.4278	214.7289	226.1316	297.2992	359.6533	386.5923	406.4028	432.4992	443.7172	536.2497	673.2643	722.7987	778.6904	779.4056	879.7883	912.2112	928.4783	958.1958	970.433	977.6108	979.0043	985.4504	993.9814	1034.3653	1040.5028	1069.7812	1131.1088	1147.951	1162.6606	1165.7862	1210.7847	1222.4546	1292.4955	1299.3786	1317.7697	1370.4862	1399.8244	1410.5998	1425.0425	1480.8676	1485.6819	1486.5677	1490.4458	1493.6793	1502.7668	1514.5865	1695.1308	2994.711	2996.0069	3018.1647	3023.2515	3030.7904	3031.7963	3072.7568	3076.515	3106.621	3109.0744	3112.0722	3178.8388	3191.7695	3204.5231
CC1(C)CC11CC=CC1	CC1(C)C[C@]21CC=CC2	
InChI=1S/C9H14/c1-8(2)7-9(8)5-3-4-6-9/h3-4H,5-7H2,1-2H3	InChI=1S/C9H14/c1-8(2)7-9(8)5-3-4-6-9/h3-4H,5-7H2,1-2H3
