15
gdb 22575	4.34857	1.08019	0.9165	3.7486	67.03	-0.2583	-0.019	0.2393	1207.7482	0.112778	-491.045276	-491.037332	-491.036388	-491.0783	29.325	
O	-0.2138399716	 1.3180885639	-0.5534563941	-0.391251
N	 0.0085236141	-0.0482645515	-0.3390556352	-0.186717
C	-1.0041881209	-0.5900023896	 0.2074478503	 0.3491
C	-2.2999588602	 0.0895228883	 0.5549882181	-0.163506
O	-3.1628827625	-0.8033905119	 1.2657210592	-0.232432
C	-3.3632973986	-2.0309125746	 0.7288478256	 0.457487
N	-4.4952525442	-2.5767000952	 0.7977431647	-0.544985
O	-2.2674553736	-2.6060486854	 0.1542364481	-0.254335
C	-0.9947942504	-2.0527283441	 0.5273187042	-0.174643
H	 0.6068371836	 1.6030451469	-0.9696971774	 0.316335
H	-2.1349076363	 0.9434460406	 1.216256357	 0.158386
H	-2.7952056533	 0.4630906071	-0.3509044255	 0.150426
H	-4.438302831	-3.5302611406	 0.4445376856	 0.230565
H	-0.237068508	-2.5864334649	-0.0454086773	 0.14917
H	-0.8229854871	-2.2217749791	 1.5985343865	 0.1364
53.9706	146.9957	200.4233	209.4131	320.9281	374.1235	411.3156	434.7968	506.2333	573.9546	610.7196	731.9461	756.2738	825.381	837.8563	857.4966	967.6929	986.4342	1014.122	1052.6392	1097.0192	1135.7271	1242.6206	1247.3385	1273.8349	1295.9207	1366.6822	1402.791	1420.1579	1479.1047	1490.0455	1759.6205	1778.241	3022.8045	3027.887	3106.7493	3144.4132	3520.7347	3819.2432
ON=C1COC(=N)OC1	ON=C1CO[C]([NH])OC1	
InChI=1S/C4H6N2O3/c5-4-8-1-3(6-7)2-9-4/h5,7H,1-2H2	InChI=1S/C4H6N2O3/c5-4-8-1-3(6-7)2-9-4/h5,7H,1-2H2
