19
gdb 107268	3.32057	1.38852	1.27243	0.3294	73.52	-0.2358	0.0726	0.3084	1075.3258	0.159584	-422.969264	-422.961622	-422.960678	-423.001479	30.343	
C	 0.2132328469	 1.4997830231	-0.1594637836	-0.383407
C	-0.1018378073	 0.021947255	 0.1088921298	-0.296478
C	 0.5943667838	-0.5060443496	 1.3287717332	 0.451626
O	 2.0106001732	-0.7758565422	 1.238145299	-0.294695
C	 1.1137720163	-1.8512736817	 1.5715263176	-0.057775
C	 0.7927734146	-1.9850843886	 3.0815964064	 0.031949
C	 1.2798990762	-0.6475479471	 3.6817416242	-0.226301
C	 0.11725115	-0.1830723856	 2.7788291134	-0.015869
O	-0.5776514001	-1.440355119	 3.1087968024	-0.302851
H	 1.2880499838	 1.644741653	-0.3033860387	 0.134545
H	-0.3015653023	 1.8509378673	-1.0582950329	 0.116562
H	-0.1027934598	 2.1355661256	 0.6744511684	 0.117208
H	-1.1815522884	-0.119350329	 0.2422644805	 0.115638
H	 0.1961908592	-0.5831705601	-0.7540011991	 0.109044
H	 1.0657867947	-2.6831614044	 0.877283264	 0.106379
H	 0.89437847	-2.9550335568	 3.5660041922	 0.082849
H	 1.0101227134	-0.5730126096	 4.7343896659	 0.110457
H	 2.2910177585	-0.3020004302	 3.4779928209	 0.122856
H	-0.4811885628	 0.71043686	 2.9529586363	 0.078263
80.7659	142.0791	196.7064	279.1573	332.7453	430.7645	472.3153	552.4439	602.0483	630.8934	711.6437	768.0313	814.6347	847.2706	862.9891	882.0489	900.516	944.1911	945.4542	966.3082	1012.238	1017.9294	1045.3633	1082.2362	1096.9392	1116.2978	1179.2178	1200.6682	1232.7199	1259.681	1268.8347	1285.7393	1297.6939	1318.8301	1354.207	1408.4197	1455.645	1472.7991	1477.0798	1498.2766	1508.8001	3033.3924	3038.5639	3074.0182	3103.5814	3107.4602	3116.981	3130.2483	3135.9225	3177.4694	3179.1719
CCC12OC1C1CC2O1	CC[C@]12O[C@H]1[C@H]1C[C@@H]2O1	
InChI=1S/C7H10O2/c1-2-7-5-3-4(8-5)6(7)9-7/h4-6H,2-3H2,1H3	InChI=1S/C7H10O2/c1-2-7-5-3-4(8-5)6(7)9-7/h4-6H,2-3H2,1H3/t4-,5+,6+,7-/m1/s1
