16
gdb 54742	2.77012	1.36385	1.27459	4.7148	69.14	-0.2436	-0.0351	0.2085	1060.5414	0.12321	-437.89343	-437.885127	-437.884183	-437.927401	30.195	
C	-0.5516849289	 1.1838821208	 0.0940868951	-0.484732
C	 0.2983258252	-0.0702935027	 0.0887957202	 0.385948
O	 0.9113247771	-0.4403302584	 1.0657892064	-0.309017
C	 0.3347746853	-0.8250009182	-1.2198900846	-0.13248
C	 0.9367846322	-2.1820323825	-1.390280824	-0.032553
N	 0.7662683196	-3.0331004781	-0.2067521701	-0.334722
C	-0.6376332119	-2.8906347962	-0.243890343	 0.427073
O	-1.50251967	-3.2927294332	 0.4770599568	-0.330042
C	-0.5692021347	-2.0470597043	-1.5149594759	-0.24893
H	-0.1704412696	 1.9022313768	-0.6410882099	 0.140417
H	-1.5803193461	 0.9446484443	-0.1969771685	 0.152549
H	-0.5405919031	 1.6348779654	 1.0866106049	 0.149372
H	 0.4002981593	-0.1777876804	-2.093410415	 0.11398
H	 1.6521824475	-2.4412005541	-2.1596688671	 0.120917
H	 1.2707596143	-2.830775338	 0.64964474	 0.259998
H	-1.2121569361	-2.0809875513	-2.3831456654	 0.122222
34.5379	103.9936	118.8169	191.0671	267.5109	342.2626	434.1267	458.0296	576.432	612.5016	658.6352	722.5008	773.3516	802.6528	836.7631	869.0433	918.4356	932.4417	967.3176	1026.9263	1047.0915	1063.1235	1088.868	1129.4737	1144.9485	1191.9891	1262.4842	1321.8568	1343.0761	1379.2632	1419.6754	1461.7763	1473.6706	1798.1123	1905.6649	3036.689	3098.1437	3128.5348	3156.9949	3203.901	3224.2889	3556.0726
CC(=O)C1C2NC(=O)C12	CC(=O)[C@H]1[C@H]2NC(=O)[C@@H]12	
InChI=1S/C6H7NO2/c1-2(8)3-4-5(3)7-6(4)9/h3-5H,1H3,(H,7,9)	InChI=1S/C6H7NO2/c1-2(8)3-4-5(3)7-6(4)9/h3-5H,1H3,(H,7,9)/t3-,4+,5-/m1/s1
