17
gdb 12545	3.53821	1.9649	1.34181	1.6312	66.31	-0.2435	0.0164	0.26	916.1128	0.143111	-401.007644	-401.000186	-400.999241	-401.039431	27.815	
C	-0.0333777119	 1.526043033	-0.0290491016	-0.405419
C	 0.0097365106	 0.0119115046	-0.0433391913	 0.221125
O	 0.8698379944	-0.4023361544	-1.0527033616	-0.229013
C	 0.7312226942	-1.770473027	-1.4043378687	-0.101711
C	 1.4177243297	-2.6998164701	-0.4094359415	-0.14928
N	 0.9307938907	-2.7168758357	 0.9566119937	-0.251773
C	 0.5613545992	-1.7032411393	 1.6076796171	 0.121519
O	 0.4185640507	-0.3899803235	 1.2725762361	-0.238719
H	 0.9750222903	 1.9177392808	 0.1249962297	 0.140135
H	-0.4150156409	 1.892734528	-0.9843027022	 0.128165
H	-0.6789824702	 1.8773351289	 0.7781607873	 0.130225
H	-0.9888993035	-0.4261634387	-0.2107056725	 0.072788
H	-0.3359560126	-2.027389148	-1.4938674324	 0.097807
H	 1.1945484583	-1.8840014971	-2.3895175424	 0.11207
H	 1.3576601111	-3.7223996919	-0.8022577201	 0.108436
H	 2.4855421955	-2.4403229776	-0.3792976613	 0.125398
H	 0.3378511944	-1.8156020421	 2.6693259017	 0.118245
101.2342	123.0402	211.6157	286.183	334.5293	372.5148	409.152	492.8243	548.585	601.0754	789.0361	818.5875	842.7716	872.6421	946.7036	969.087	1046.3399	1058.0941	1086.0706	1117.0263	1124.4335	1172.0374	1201.3513	1275.2724	1311.7319	1379.4087	1383.2793	1394.306	1414.1605	1431.4674	1434.2659	1471.185	1482.7743	1486.8205	1495.8606	1759.1686	2960.5716	2986.8232	3012.4786	3052.36	3060.7329	3082.4604	3130.8775	3141.6916	3146.0448
CC1OCCN=CO1	C[C@H]1OCCN=CO1	
InChI=1S/C5H9NO2/c1-5-7-3-2-6-4-8-5/h4-5H,2-3H2,1H3	InChI=1S/C5H9NO2/c1-5-7-3-2-6-4-8-5/h4-5H,2-3H2,1H3/t5-/m0/s1
