21
gdb 117798	2.23295	1.1108	1.00844	1.9802	81.82	-0.2566	0.0393	0.2959	1357.3002	0.177571	-424.166744	-424.155535	-424.154591	-424.202976	39.804	
C	-0.0530042636	 1.3963842756	-0.0782772187	-0.228121
O	-0.1028796704	-0.0105081044	-0.1141902001	-0.234873
C	 0.7079649702	-0.5597366722	-1.1218303984	-0.086605
C	 0.6311513702	-2.1019601338	-1.0423651642	 0.139098
C	 1.1810176976	-2.6015400938	 0.3010529519	-0.416939
O	-0.7081808686	-2.5833632676	-1.0850986602	-0.250333
C	-1.4921800754	-2.1874037131	-2.1923525682	-0.246052
C	 1.4237968416	-2.6458474836	-2.1617329808	 0.343232
C	 2.0671842988	-3.079887612	-3.0800568245	-0.493467
H	 0.9638220448	 1.7642235109	 0.1314792784	 0.105868
H	-0.3881650634	 1.8413638473	-1.0284868769	 0.105226
H	-0.7207611848	 1.7258748606	 0.7211434278	 0.130618
H	 0.3875984158	-0.2126668759	-2.1164777187	 0.09446
H	 1.7611278493	-0.2589077034	-0.9994051742	 0.098528
H	 0.6164077574	-2.1344404049	 1.1095589303	 0.140918
H	 1.0685534831	-3.6857122362	 0.3594559354	 0.130653
H	 2.2391672678	-2.347980849	 0.4015616581	 0.116802
H	-2.4099023721	-2.7785558843	-2.1444717885	 0.126382
H	-1.7602820232	-1.1236585407	-2.1460177279	 0.112928
H	-0.9885788842	-2.3935335577	-3.1465696833	 0.113842
H	 2.6363764191	-3.4749828016	-3.8852765573	 0.197834
71.9153	95.0947	115.6631	123.8143	169.3709	208.4495	224.5516	230.7115	254.9798	287.6156	355.1985	373.8773	432.6356	468.2379	570.881	593.1948	633.8966	669.3821	758.1068	881.3144	942.9181	959.5983	1008.7912	1111.3348	1151.1759	1166.0514	1179.3953	1180.8207	1187.2598	1195.8166	1232.3519	1248.6026	1289.2453	1392.2331	1413.2646	1471.6592	1478.4577	1483.9595	1485.2245	1490.6773	1492.4903	1499.8964	1509.8778	1527.5112	2226.9604	2965.5661	2977.221	2997.8516	3004.9154	3015.7815	3057.6772	3059.4729	3114.456	3116.9663	3138.6371	3152.8354	3498.6425
COCC(C)(OC)C#C	COC[C@@](C)(OC)C#C	
InChI=1S/C7H12O2/c1-5-7(2,9-4)6-8-3/h1H,6H2,2-4H3	InChI=1S/C7H12O2/c1-5-7(2,9-4)6-8-3/h1H,6H2,2-4H3/t7-/m0/s1
