20
gdb 101408	3.00894	1.08004	0.95507	2.496	75.69	-0.2513	0.0256	0.2768	1321.078	0.170531	-440.311702	-440.302104	-440.30116	-440.346447	35.14	
C	 0.0701685055	 1.5633514736	-0.0440124183	-0.3837
C	 0.0067463152	 0.0357273636	 0.0203805557	-0.20206
C	-1.4293285169	-0.5061099943	 0.0191738667	 0.109055
O	-2.166918095	-0.0694069429	-1.1213475421	-0.439652
C	-1.4535859538	-2.0337270435	 0.1184363274	-0.155967
C	-2.8366884805	-2.7493260854	 0.0630455752	-0.192632
N	-2.3476102937	-3.4622011018	-1.1268974978	-0.314156
C	-1.1743388096	-2.7603609774	-1.2249654753	 0.411644
O	-0.3233659356	-2.6936813779	-2.0766063627	-0.375069
H	 1.1059416218	 1.9121959695	-0.0891047836	 0.112438
H	-0.4573938634	 1.9379359225	-0.9251040899	 0.126181
H	-0.3981726693	 2.0154068623	 0.8375231783	 0.111855
H	 0.5422407673	-0.410452183	-0.8276058158	 0.125156
H	 0.5139073902	-0.3239403219	 0.9246279644	 0.094721
H	-1.974393103	-0.0864465083	 0.8751171805	 0.087826
H	-1.6528479154	-0.3103360162	-1.9025833937	 0.292164
H	-0.8157604766	-2.3862110364	 0.9332131318	 0.101287
H	-3.0814870856	-3.4012482158	 0.9058637047	 0.110302
H	-3.663481113	-2.0653053215	-0.1476610281	 0.12958
H	-2.8486205087	-3.9782566056	-1.8360844074	 0.251028
69.5428	95.3243	119.708	156.2074	201.7974	223.0737	285.5575	360.1538	406.9687	435.1021	460.4994	525.0295	572.3418	760.4419	767.0303	789.7239	808.2059	906.4419	922.5115	977.894	987.9402	1032.4365	1058.8435	1078.1826	1113.2641	1152.8514	1174.447	1181.8138	1194.5083	1258.8888	1282.2245	1309.2405	1324.7641	1359.3291	1389.2465	1394.6007	1409.5234	1429.364	1489.9136	1495.9366	1508.9813	1517.4624	1871.3262	3021.2457	3026.5306	3037.2388	3052.6617	3062.6151	3085.289	3103.3216	3108.6559	3121.5383	3600.9622	3775.7688
CCC(O)C1CNC1=O	CC[C@@H](O)[C@H]1CNC1=O	
InChI=1S/C6H11NO2/c1-2-5(8)4-3-7-6(4)9/h4-5,8H,2-3H2,1H3,(H,7,9)	InChI=1S/C6H11NO2/c1-2-5(8)4-3-7-6(4)9/h4-5,8H,2-3H2,1H3,(H,7,9)/t4-,5-/m1/s1
