16
gdb 71058	2.47859	2.17579	1.35962	4.0212	70.49	-0.2182	-0.0521	0.1661	927.9167	0.121194	-437.747177	-437.739231	-437.738286	-437.778966	31.022	
C	-0.1107397258	 1.4629935273	-0.0540881884	-0.500097
C	-0.1019409247	-0.0238472608	 0.0405816699	 0.400031
O	-0.3446745992	-0.765671867	-1.2489681745	-0.296517
C	-0.3381314106	-1.8482912808	-0.3633179171	 0.257198
N	 0.6273635885	-2.6698331091	-0.3285985715	-0.222031
C	 1.3046095708	-2.2704778397	 0.9451979285	-0.225701
C	 0.6856068946	-0.8696498996	 1.2088488338	 0.293357
O	 1.1600708829	-0.0701501414	 2.2336659958	-0.455911
C	-0.769084513	-1.0215493816	 0.8832777193	-0.33052
H	 0.6522232682	 1.8043143431	-0.7595233668	 0.146965
H	-1.0865474755	 1.8232740395	-0.393602283	 0.137247
H	 0.1112680005	 1.8828197593	 0.929493487	 0.151278
H	 1.1461177042	-2.9378520715	 1.8086366051	 0.098888
H	 2.3769262871	-2.2439010518	 0.7269443288	 0.136789
H	 0.9265721631	-0.4731710732	 3.0788723537	 0.293129
H	-1.6775005309	-1.0414635728	 1.4725142694	 0.115894
168.3046	196.5024	223.6353	245.9339	261.7886	354.9505	362.6968	441.1813	483.2102	558.3018	599.2969	623.3581	687.0591	724.8655	803.5289	838.3567	926.4662	966.7855	998.3018	1009.2948	1013.4756	1083.0876	1102.1328	1141.6197	1157.1138	1170.1948	1243.9671	1284.2381	1341.4721	1389.8088	1422.4073	1475.8902	1484.7582	1491.1642	1618.9191	2963.1876	3046.1126	3077.4582	3115.1547	3140.0172	3187.4123	3774.5826
CC12OC3=NCC1(O)C23	C[C@@]12O[C]3[N]C[C@]1(O)[C@@H]23	
InChI=1S/C6H7NO2/c1-5-3-4(9-5)7-2-6(3,5)8/h3,8H,2H2,1H3	InChI=1S/C6H7NO2/c1-5-3-4(9-5)7-2-6(3,5)8/h3,8H,2H2,1H3/t3-,5+,6+/m1/s1
