19
gdb 115436	3.31956	1.0406	0.9178	2.6618	76.78	-0.2516	0.0329	0.2846	1313.065	0.158891	-422.993213	-422.984185	-422.983241	-423.027786	33.646	
O	 0.3688548724	 1.0644698162	 0.4851432654	-0.423684
C	 0.0069341635	-0.211041846	 0.0037630439	-0.056257
C	-1.5094986615	-0.3797234618	-0.055582625	 0.114065
C	-1.9722029217	-1.8197126134	-0.3515250096	-0.264014
C	-2.3671932006	-2.3573227901	 1.0339951905	-0.22858
C	-2.8754435725	-1.0821153589	 1.7328224316	-0.065267
O	-2.0148426812	-0.0460830226	 1.2559949627	-0.28452
C	-4.283057515	-0.7957035063	 1.4301837617	 0.352027
C	-5.4357547113	-0.5679555498	 1.1768117001	-0.483695
H	-0.1560618714	 1.2005639807	 1.2835073931	 0.291797
H	 0.43090182	-0.3101576338	-1.0018590244	 0.105115
H	 0.4324189581	-1.016518793	 0.6277696533	 0.076675
H	-1.9232715533	 0.3404996155	-0.7712755814	 0.089088
H	-2.8375877918	-1.8156415698	-1.0186470095	 0.12154
H	-1.1861783456	-2.4149147534	-0.8241963601	 0.110352
H	-3.1176369892	-3.1482865849	 0.9973770903	 0.119286
H	-1.4920405041	-2.7307893136	 1.5737876387	 0.111336
H	-2.745500424	-1.1288372768	 2.819338778	 0.112505
H	-6.4543538308	-0.3584389282	 0.9605868908	 0.20223
35.084	103.1117	128.1719	182.1613	226.1027	283.6962	375.474	446.3572	462.3965	482.1974	561.6523	633.8722	667.5038	671.8938	740.5029	807.8779	849.2744	876.1839	942.2366	963.2507	998.9414	1017.3595	1063.5044	1071.095	1100.815	1118.674	1185.0141	1207.4668	1234.2254	1287.7537	1308.5581	1325.1121	1343.4971	1355.9981	1373.3507	1399.8379	1441.2268	1482.8325	1496.3498	1501.1231	2232.1132	2951.7586	3034.2497	3049.8702	3062.4038	3066.4728	3070.0005	3108.5366	3129.8442	3502.2628	3785.9293
OCC1CCC(O1)C#C	OC[C@H]1CC[C@@H](O1)C#C	
InChI=1S/C7H10O2/c1-2-6-3-4-7(5-8)9-6/h1,6-8H,3-5H2	InChI=1S/C7H10O2/c1-2-6-3-4-7(5-8)9-6/h1,6-8H,3-5H2/t6-,7+/m0/s1
