19
gdb 76839	2.49912	1.52635	1.24886	1.5384	74.55	-0.2421	-0.0244	0.2177	1070.0996	0.158125	-423.017021	-423.008292	-423.007348	-423.050698	33.089	
C	 0.4711070518	 1.612540324	-0.0156012311	-0.418952
C	 0.1077897168	 0.1324209257	 0.0236670404	-0.039942
C	 0.8544421238	-0.8382204619	-0.9604143701	 0.120573
O	 1.7059408023	-0.308171728	-1.9438505671	-0.421726
C	 1.4549204125	-1.6254837994	 0.2357376534	-0.063796
C	 2.7734758175	-1.055680622	 0.826839579	-0.378106
C	 1.9318293054	-0.2427752629	 1.8325765499	 0.418348
O	 2.2110070354	 0.4545081365	 2.7648858438	-0.304417
C	 0.6122309049	-0.7343723924	 1.2344293306	-0.173984
H	 1.5460785571	 1.7911559771	 0.0995203971	 0.11223
H	 0.1585424226	 2.0573594967	-0.9652817614	 0.128371
H	-0.0242188402	 2.1545559587	 0.7956724974	 0.134488
H	-0.9759894645	 0.0350712922	-0.0846529082	 0.087903
H	 0.142331746	-1.4594073036	-1.5099849925	 0.094915
H	 2.2879903026	 0.3417893784	-1.5380855739	 0.284255
H	 1.3836307732	-2.7117710745	 0.2044213596	 0.07762
H	 3.399756374	-1.8016336077	 1.3260987451	 0.139269
H	 3.4221977836	-0.4809428291	 0.1572611999	 0.114675
H	-0.1473423547	-1.1007060577	 1.925350348	 0.088276
44.6118	119.8767	198.3046	216.0889	235.5923	267.4199	363.7032	421.487	484.9209	529.4076	545.103	596.2729	718.7005	747.1667	794.8631	832.8911	882.5275	912.	948.6272	1010.4071	1026.0697	1051.6239	1087.9395	1094.3796	1116.8395	1128.0855	1164.9852	1177.5776	1204.0382	1222.5363	1265.0867	1282.2884	1298.4156	1318.9342	1358.32	1413.1073	1436.7494	1441.689	1495.3237	1495.7449	1881.937	3032.9195	3048.7488	3055.7619	3075.749	3095.1343	3096.9938	3111.99	3112.6665	3123.5118	3823.9055
CC1C(O)C2CC(=O)C12	C[C@H]1[C@@H](O)[C@H]2CC(=O)[C@@H]12	
InChI=1S/C7H10O2/c1-3-6-4(7(3)9)2-5(6)8/h3-4,6-7,9H,2H2,1H3	InChI=1S/C7H10O2/c1-3-6-4(7(3)9)2-5(6)8/h3-4,6-7,9H,2H2,1H3/t3-,4+,6+,7-/m1/s1
