17
gdb 113751	3.50271	0.86736	0.77218	2.2704	71.11	-0.2666	0.0155	0.2822	1462.0616	0.132329	-458.883818	-458.873796	-458.872852	-458.920097	35.306	
O	-0.1214444045	 1.3091723177	-0.8150119638	-0.420497
C	 0.0386807782	 0.2110803766	 0.0675427781	-0.083371
C	-1.2806573636	-0.4796474512	 0.306288627	 0.032318
O	-1.7713916853	-1.3021151153	-0.772847574	-0.264305
C	-1.4736157641	-1.9259960263	 0.4739287724	 0.041755
C	-0.3266402562	-2.9326163396	 0.5016998564	-0.083909
O	 0.274129993	-2.9647474412	 1.7938586254	-0.415786
C	-0.7911388647	-4.2553010357	 0.0797062234	 0.284153
C	-1.2046110411	-5.3445059799	-0.2157778677	-0.429857
H	-0.4818469885	 0.9586874331	-1.637391817	 0.293118
H	 0.7896097028	-0.4970308018	-0.3068450848	 0.095446
H	 0.4111831792	 0.6245074921	 1.0105345045	 0.12421
H	-2.0452755962	 0.1740283409	 0.7294268686	 0.102494
H	-2.3518114968	-2.2544261148	 1.0337945615	 0.097932
H	 0.4541524803	-2.5928002759	-0.184894832	 0.128444
H	-0.2608009231	-3.5394436562	 2.3522353345	 0.291301
H	-1.5548284696	-6.3071620424	-0.4973830927	 0.206553
25.563	69.2313	108.9438	147.3066	197.1672	223.9829	247.8186	317.5569	384.0851	406.406	478.3965	494.2087	582.9006	601.1505	644.2253	680.8105	798.6361	858.5762	942.492	952.4612	1045.7243	1056.3554	1069.976	1084.3892	1153.8408	1159.9535	1228.0641	1245.519	1288.1358	1300.4254	1358.9126	1391.9095	1405.9409	1430.5784	1487.622	1494.4745	2235.1293	3017.1869	3072.281	3081.891	3089.7243	3107.6253	3501.5081	3803.4856	3813.2388
OCC1OC1C(O)C#C	OC[C@H]1O[C@H]1[C@@H](O)C#C	
InChI=1S/C6H8O3/c1-2-4(8)6-5(3-7)9-6/h1,4-8H,3H2	InChI=1S/C6H8O3/c1-2-4(8)6-5(3-7)9-6/h1,4-8H,3H2/t4-,5+,6-/m0/s1
