19
gdb 117917	3.07108	0.77524	0.70657	1.5847	72.77	-0.2506	-0.0977	0.1529	1619.2071	0.155527	-460.17616	-460.165462	-460.164518	-460.213197	36.467	
C	 0.2525687848	 1.4381989278	 0.3048728515	-0.412393
C	 0.1019368719	-0.0767486222	 0.0234642965	-0.097929
C	 0.6269508619	-0.5016866299	-1.3554010004	-0.206511
C	-0.1710903509	 0.0667197966	-2.5310716925	-0.072484
O	 0.2459245863	-0.4750012333	-3.7739707426	-0.41503
C	 0.8147886634	-0.8334193432	 1.1271441351	 0.284759
O	 1.8978931062	-1.361953118	 1.0236172801	-0.283422
C	 0.1107888751	-0.9368544676	 2.4919383779	 0.096654
O	-0.9950972834	-0.5188002789	 2.7127671398	-0.221755
H	 1.3015947319	 1.7430097207	 0.2295181713	 0.128969
H	-0.3252466421	 2.0203575395	-0.4165523758	 0.134887
H	-0.1134378411	 1.6919747199	 1.3027222099	 0.140222
H	-0.9649061807	-0.3184305221	 0.1153993076	 0.110115
H	 1.6808997468	-0.2082484162	-1.4442663678	 0.102573
H	 0.6080907208	-1.5941331864	-1.4333366029	 0.116188
H	-1.2284037724	-0.2055074426	-2.4325530627	 0.112655
H	-0.1221244342	 1.1662378385	-2.545084668	 0.089774
H	 1.1645215482	-0.2225314331	-3.9120363483	 0.282043
H	 0.7313693277	-1.4613688095	 3.2493439913	 0.110686
44.3764	64.6057	104.2012	121.2614	123.9011	201.4123	209.748	252.7849	302.9466	313.4624	349.2449	455.7196	513.8202	598.7548	657.9432	769.7345	785.877	894.3853	958.2053	994.9307	1021.7279	1071.4603	1078.792	1111.228	1131.9262	1150.1378	1227.6356	1292.3702	1308.4669	1327.1517	1362.8613	1377.5606	1405.3116	1408.0951	1426.3066	1482.365	1498.6987	1507.5533	1514.9305	1799.4277	1823.1039	2922.3472	2987.2002	3026.6491	3036.153	3045.7062	3057.929	3083.6551	3119.3882	3129.8006	3815.0916
CC(CCO)C(=O)C=O	C[C@@H](CCO)C(=O)C=O	
InChI=1S/C6H10O3/c1-5(2-3-7)6(9)4-8/h4-5,7H,2-3H2,1H3	InChI=1S/C6H10O3/c1-5(2-3-7)6(9)4-8/h4-5,7H,2-3H2,1H3/t5-/m0/s1
