16
gdb 35947	3.53598	1.22091	0.9509	1.5933	72.45	-0.2548	0.0047	0.2596	1182.4859	0.124628	-437.840538	-437.832546	-437.831602	-437.873464	29.836	
C	 0.161936436	-1.2016642837	 0.3142467252	-0.43128
C	 0.0802573522	-0.0218490577	 0.1053869128	 0.323543
C	-0.0743943983	 1.4229985375	-0.094507294	-0.164645
C	-0.8811536315	 1.9951558679	 1.0887972953	-0.108893
O	-1.2260233646	 3.3525947758	 0.8823725368	-0.214936
C	-0.1892254419	 4.2343827681	 1.1292004448	 0.014297
O	 0.7760027786	 4.3453043284	 0.086548204	-0.224294
C	 1.4906335893	 3.2582158332	-0.3156715518	 0.129585
N	 1.2212780478	 2.0283445709	-0.3744560977	-0.254538
H	 0.2498210168	-2.2471825912	 0.478800991	 0.197663
H	-0.6931818677	 1.5832509729	-0.9909822718	 0.134644
H	-1.8185393519	 1.442295748	 1.1828945717	 0.129911
H	-0.3072147272	 1.8779315962	 2.0195003148	 0.110528
H	-0.6184844149	 5.2337132029	 1.2107708924	 0.130307
H	 0.3415237346	 3.959192568	 2.0546734201	 0.099705
H	 2.4587765527	 3.5961404428	-0.6860093736	 0.128404
63.9567	145.1221	162.0684	224.3666	328.8281	388.9798	446.715	459.5467	516.8406	571.5343	594.6371	636.6008	666.0247	787.5156	831.6156	927.9917	963.73	987.6178	1006.9542	1056.8096	1084.087	1104.8608	1162.5449	1218.2406	1256.8244	1292.8557	1335.3153	1351.0729	1396.6442	1430.3168	1453.6714	1484.58	1508.7515	1754.2866	2243.5378	2979.0928	2990.5067	3009.5591	3110.2996	3129.2533	3137.847	3503.8655
C#CC1COCOC=N1	C#C[C@H]1COCOC=N1	
InChI=1S/C6H7NO2/c1-2-6-3-8-5-9-4-7-6/h1,4,6H,3,5H2	InChI=1S/C6H7NO2/c1-2-6-3-8-5-9-4-7-6/h1,4,6H,3,5H2/t6-/m0/s1
