20
gdb 57473	2.54363	1.39889	1.12097	1.7551	75.7	-0.267	0.0208	0.2878	1164.2443	0.169455	-440.292627	-440.283196	-440.282252	-440.326484	35.863	
C	 0.0207843208	 1.5720248713	-0.0047220008	-0.437051
C	 0.0287623007	 0.0390415674	 0.0643148007	 0.318343
C	 0.7604605335	-0.4545718556	 1.3137216554	-0.39844
O	-1.3061479132	-0.4611649128	 0.1758527265	-0.465159
C	 0.6827980688	-0.5399540149	-1.2066585926	-0.138551
C	 0.6329304304	-2.0663682067	-1.4384915084	-0.114158
O	-0.1084282946	-1.8555045487	-2.6861339296	-0.247284
C	-0.1619587275	-0.5019267191	-2.468473811	 0.412782
N	-0.7723106021	 0.4021868207	-3.0932994193	-0.552387
H	 1.0391829078	 1.974097153	-0.0055888378	 0.111692
H	-0.4758780993	 1.9129173359	-0.9182706676	 0.151415
H	-0.5096182956	 1.9748269494	 0.8628779829	 0.119666
H	 0.2890378694	-0.0387038071	 2.2082640888	 0.127404
H	 0.7161608882	-1.5451085601	 1.3867897944	 0.120755
H	 1.8103255763	-0.1474123604	 1.2984093138	 0.11275
H	-1.8259149748	-0.0521842069	-0.5270262733	 0.289149
H	 1.6777904057	-0.1123612268	-1.3570908389	 0.105158
H	 1.5795550146	-2.5758010656	-1.6277441237	 0.118472
H	 0.0184025233	-2.6197012539	-0.7261941967	 0.136137
H	-1.2839048923	 0.0222478208	-3.8919669628	 0.229308
72.6412	136.8538	156.0191	222.7774	243.9966	274.66	303.5218	334.359	388.1675	416.7193	444.3044	483.9321	532.172	630.0972	732.6412	784.3889	864.1206	870.76	938.008	942.1767	961.1143	974.9932	1008.1653	1023.2786	1028.9255	1078.4581	1143.1313	1171.7985	1194.9286	1224.1769	1246.2785	1253.1444	1322.8293	1376.7469	1379.8593	1405.2583	1420.7902	1479.5849	1489.3963	1500.292	1505.1178	1514.4039	1806.68	3035.8277	3044.1587	3074.081	3080.6734	3108.9956	3117.0768	3120.2633	3123.712	3141.0437	3471.5606	3783.2924
CC(C)(O)C1COC1=N	CC(C)(O)[C@H]1CO[C]1[NH]	
InChI=1S/C6H11NO2/c1-6(2,8)4-3-9-5(4)7/h4,7-8H,3H2,1-2H3	InChI=1S/C6H11NO2/c1-6(2,8)4-3-9-5(4)7/h4,7-8H,3H2,1-2H3/t4-/m0/s1
