19
gdb 67281	2.97042	1.88085	1.71453	1.13	77.21	-0.2247	0.0724	0.2971	889.2282	0.161432	-385.821778	-385.815237	-385.814293	-385.852096	28.536	
O	-0.095742029	 1.4244543003	 0.0055828489	-0.48697
C	 0.0001286528	 0.0465342983	 0.0017120268	 0.431309
C	 0.7447600927	-0.8672273028	-1.0547139014	-0.128467
C	 1.7397218824	-1.2917757201	 0.0492948314	-0.245179
C	 0.677763005	-0.8779600151	 1.0933364619	-0.128444
C	-0.602251422	-1.8060487134	 1.0428131326	-0.033241
C	-0.483548386	-2.9151996869	-0.0281648675	-0.238116
C	-0.5356285618	-1.7953767773	-1.0933312095	-0.033237
C	-1.2423825457	-0.8637430863	-0.0415812647	-0.097484
H	 0.7922241752	 1.7987518339	 0.0345107617	 0.279916
H	 1.1112498116	-0.5145222194	-2.0197575905	 0.060803
H	 2.117076576	-2.3184576463	 0.0559278316	 0.095303
H	 2.5954996028	-0.6083884048	 0.0794024228	 0.08632
H	 0.9832945592	-0.5350196299	 2.0828121666	 0.06081
H	-1.0672065224	-2.0266197088	 2.0038179015	 0.062017
H	 0.3698106319	-3.6004514973	-0.0049745731	 0.091055
H	-1.404997346	-3.5050796553	-0.0598532288	 0.096807
H	-0.9397187555	-2.0061974715	-2.0835994674	 0.062017
H	-2.2838136012	-0.5493203672	-0.0724941729	 0.064783
221.1506	269.0045	315.4397	398.0173	439.8693	476.061	558.9198	609.7084	680.0521	735.8455	773.5432	810.5326	845.8722	848.2238	916.5012	918.8894	938.5782	950.3206	988.3116	1006.991	1016.7569	1036.672	1040.4064	1087.1534	1092.7352	1102.2968	1136.4773	1142.1459	1165.0894	1181.1027	1218.5495	1223.1715	1258.3282	1268.788	1279.1351	1303.2444	1307.8806	1330.2632	1404.0661	1476.5969	1508.3086	3037.127	3042.8952	3084.822	3091.2683	3093.3569	3093.496	3105.1644	3107.6249	3133.0488	3790.5928
OC12C3CC1C1CC3C21	O[C@@]12[C@H]3C[C@@H]1[C@@H]1C[C@H]3[C@H]21	
InChI=1S/C8H10O/c9-8-5-2-6(8)4-1-3(5)7(4)8/h3-7,9H,1-2H2	InChI=1S/C8H10O/c9-8-5-2-6(8)4-1-3(5)7(4)8/h3-7,9H,1-2H2/t3-,4+,5+,6-,7+,8+
