17
gdb 106447	2.73391	1.30246	1.04344	4.5019	73.45	-0.2513	0.0025	0.2538	1155.3429	0.13636	-417.927901	-417.919617	-417.918673	-417.961169	30.716	
O	-0.0715071423	 1.4324139989	 0.0489057994	-0.419091
C	-0.0104904183	 0.0212129394	-0.0818815029	-0.226763
C	-1.4283601256	-0.4828540428	-0.0483914824	 0.328273
C	-2.4933188727	-0.3591452019	 1.0644973314	-0.203396
N	-3.2548808028	-1.1605125562	-0.0126417705	-0.147324
C	-2.6055107554	-0.1648702167	-0.999987295	-0.221626
C	-1.9287315993	-1.9530534527	-0.1333121752	-0.170398
C	-1.731982961	-2.7222226496	-1.3541630517	 0.287897
N	-1.5391040191	-3.3428963064	-2.3103534745	-0.331061
H	 0.8217733223	 1.7823799431	-0.0169927068	 0.29637
H	 0.461510878	-0.2836087635	-1.0292730093	 0.107838
H	 0.5642944511	-0.4404816641	 0.737729028	 0.094399
H	-2.3408249653	-0.9113792583	 1.9960046869	 0.106576
H	-2.9209731873	 0.627583265	 1.2446003513	 0.123542
H	-3.0384633539	 0.8347386405	-0.9470047261	 0.121388
H	-2.5604425545	-0.531920216	-2.0271968445	 0.133167
H	-1.743735424	-2.5904193987	 0.735921542	 0.120209
71.8088	116.0125	183.1827	194.5358	237.6283	316.1487	383.6556	460.6784	518.7243	569.8974	618.3582	676.9313	772.6698	812.7882	895.4747	909.9295	919.9125	970.9062	1011.1149	1042.0926	1078.758	1091.0219	1122.8768	1140.0957	1167.8937	1175.9673	1194.4575	1241.2087	1258.231	1275.0838	1330.8043	1383.5778	1468.5925	1514.1111	1514.4543	1554.7572	2352.6108	2965.6812	2999.602	3061.1973	3075.8728	3079.5813	3142.8266	3149.7064	3833.5343
OCC12CN(C1)C2C#N	OC[C@@]12CN(C1)[C@H]2C#N	
InChI=1S/C6H8N2O/c7-1-5-6(4-9)2-8(5)3-6/h5,9H,2-4H2	InChI=1S/C6H8N2O/c7-1-5-6(4-9)2-8(5)3-6/h5,9H,2-4H2/t5-/m0/s1
