19
gdb 73625	2.23859	2.00896	1.48783	1.5957	74.82	-0.2487	0.0106	0.2594	972.5521	0.160662	-423.046232	-423.038573	-423.037629	-423.07839	30.177	
C	 0.0814106195	 1.591380089	-0.1466941933	-0.450362
C	-0.0145773144	 0.0853308039	 0.0485762588	 0.375952
C	-1.4733851126	-0.4422964609	 0.1604452519	-0.304955
C	-1.4568916823	-1.343600001	 1.3678995614	-0.069125
C	-0.2827199181	-1.3471013073	 1.9967980602	-0.101017
C	 0.7304832281	-0.4636641817	 1.3164058676	 0.003062
O	 1.8602187664	-1.1671525883	 0.7935371137	-0.253175
C	 1.4668884867	-1.5840210746	-0.4901028735	 0.006083
O	 0.6882853202	-0.5432649734	-1.0341422956	-0.290565
H	 1.1291897279	 1.9037842099	-0.1701697378	 0.126487
H	-0.3852524976	 1.8839961284	-1.0923209944	 0.125803
H	-0.4272485	 2.1213145673	 0.6649313273	 0.114948
H	-2.1898540697	 0.3799585094	 0.2838328653	 0.107146
H	-1.7569935361	-0.9675285621	-0.7581708563	 0.120832
H	-2.3310921176	-1.9059594876	 1.6804380934	 0.100483
H	-0.0393072412	-1.9141948162	 2.8877943732	 0.101998
H	 1.129772047	 0.3193549521	 1.9683272749	 0.087007
H	 2.3591876823	-1.7280081343	-1.1062997565	 0.116383
H	 0.8849844214	-2.5211936126	-0.4396942903	 0.083016
65.0836	192.8176	251.9292	270.5448	304.2067	351.4363	432.9743	489.4045	593.8769	619.85	713.8732	748.3295	779.3387	862.6506	890.3834	927.0135	951.4186	967.3047	983.6987	987.3088	1023.2574	1039.8794	1102.0703	1111.5709	1128.2104	1168.1483	1187.3211	1204.5911	1227.9693	1240.241	1285.884	1339.1819	1352.4036	1374.8049	1406.8081	1425.6604	1474.332	1486.0816	1494.0083	1540.0936	1686.3767	2945.6536	3026.8631	3037.5373	3061.2868	3067.6419	3085.5492	3110.0941	3117.916	3178.2462	3209.178
CC12CC=CC1OCO2	C[C@]12CC=C[C@H]1OCO2	
InChI=1S/C7H10O2/c1-7-4-2-3-6(7)8-5-9-7/h2-3,6H,4-5H2,1H3	InChI=1S/C7H10O2/c1-7-4-2-3-6(7)8-5-9-7/h2-3,6H,4-5H2,1H3/t6-,7+/m1/s1
