14
gdb 21448	5.83093	1.43606	1.15228	4.6696	67.38	-0.1994	0.019	0.2185	967.1903	0.110525	-374.916726	-374.909735	-374.908791	-374.94825	25.81	
N	 0.2348153705	 1.2938711599	 0.0046979909	-0.45614
C	 0.0695528859	 0.0287850715	 0.0017086317	 0.076078
N	-1.1581347144	-0.5785606559	 0.0119768204	-0.397745
C	-2.4086800444	 0.0440267367	 0.0269295709	 0.276092
C	-3.6301808174	-0.6063815138	 0.0369188078	-0.14555
N	-4.570255957	 0.3740528511	 0.0500831492	-0.1739
N	-4.050313496	 1.6096532205	 0.0493498868	-0.221174
C	-2.7319165013	 1.4248424139	 0.0352784509	-0.061613
H	 1.2270248849	 1.5153896154	-0.0045826882	 0.221162
H	 0.8751390024	-0.7157069044	-0.0092476878	 0.085297
H	-1.1572206488	-1.5839967838	 0.0081295974	 0.249898
H	-3.8889458291	-1.653202295	 0.0356994296	 0.122609
H	-5.5690752408	 0.2628223279	 0.059781016	 0.274597
H	-2.0458031543	 2.252933146	 0.0313663344	 0.15039
65.3153	190.4055	196.2344	354.2855	359.8958	432.2545	472.5373	594.5622	647.9248	692.2338	735.862	792.618	814.318	899.2328	946.1438	1003.7488	1033.6479	1062.8693	1126.7381	1161.3125	1228.2061	1270.2754	1316.7521	1390.1184	1411.9646	1420.2451	1507.6495	1541.7664	1644.8649	1726.4714	3041.0402	3258.2606	3308.3371	3521.3793	3661.606	3683.5889
N=CNC1=CNN=C1	N=CNc1c[nH]nc1	
InChI=1S/C4H6N4/c5-3-6-4-1-7-8-2-4/h1-3H,(H2,5,6)(H,7,8)	InChI=1S/C4H6N4/c5-3-6-4-1-7-8-2-4/h1-3H,(H2,5,6)(H,7,8)
