19
gdb 87491	2.92458	1.41799	1.15136	1.2002	76.45	-0.2401	0.064	0.3041	1118.5337	0.160062	-419.100239	-419.092204	-419.09126	-419.132532	31.922	
C	 0.0138443254	 1.5349636243	-0.0780166539	-0.39301
C	 0.0157282089	 0.0327668281	 0.0509733187	-0.139816
N	 1.3495732746	-0.650874846	-0.0766772344	-0.440348
C	 0.6186086728	-0.6646965505	 1.1839429713	 0.488375
C	 1.1338134471	-0.2613449972	 2.5788913714	-0.178562
N	-0.198484485	-0.7769621571	 3.097348043	-0.321168
C	 0.2567807856	-1.8336840258	 2.1059770341	-0.202235
C	 1.7175719535	-1.7067687095	 2.6925787775	 0.16396
O	 2.853476433	-2.0932326902	 1.9879805713	-0.445882
H	 0.8935831732	 1.9636192904	 0.408751762	 0.125138
H	 0.0269825106	 1.8368566187	-1.1303748505	 0.1215
H	-0.8815741839	 1.957562685	 0.3892624986	 0.128528
H	-0.8141852965	-0.4743200923	-0.4386971859	 0.094663
H	 1.2280329691	-1.5388279099	-0.560416757	 0.23629
H	 1.5598638184	 0.6866777977	 2.9081231646	 0.087253
H	-0.0597101034	-1.1379290123	 4.0481869316	 0.211434
H	-0.3370106067	-2.7229277517	 1.8878581618	 0.082618
H	 1.8092544098	-2.0835850356	 3.7169415674	 0.080806
H	 2.8857131535	-1.5756548563	 1.1719933384	 0.300455
127.2214	148.3985	193.6148	224.8872	331.2297	370.2406	424.8413	452.5065	511.3266	526.1722	613.2012	670.8238	786.1217	818.0046	840.7004	861.3201	887.4472	912.1155	922.3435	1024.0059	1035.0207	1050.8037	1075.2301	1097.3479	1115.622	1120.0136	1146.6946	1156.1057	1176.7392	1222.2003	1244.6405	1247.1001	1272.6195	1308.79	1328.5728	1365.2302	1413.655	1452.8624	1482.0042	1492.5995	1539.0176	3038.3422	3061.7696	3104.0291	3105.6399	3113.1416	3118.733	3131.0305	3367.169	3479.4535	3750.4287
CC1NC11C2NC1C2O	C[C@H]1N[C@]21[C@H]1N[C@@H]2[C@H]1O	
InChI=1S/C6H10N2O/c1-2-6(8-2)4-3(9)5(6)7-4/h2-5,7-9H,1H3	InChI=1S/C6H10N2O/c1-2-6(8-2)4-3(9)5(6)7-4/h2-5,7-9H,1H3/t2-,3-,4-,5+,6+/m1/s1
