16
gdb 76671	2.96389	1.15668	1.06183	3.5196	61.12	-0.2392	0.0484	0.2876	1168.4462	0.122395	-512.163509	-512.154143	-512.153199	-512.198319	33.756	
N	-0.4416057997	 1.1937797192	 0.0693248199	-0.566164
C	-0.177458141	-0.1342797684	 0.2173018699	 0.517277
O	 0.6871139022	-0.6173945306	 0.8996216392	-0.380383
O	-1.059390189	-0.8629843632	-0.544273137	-0.285481
C	-0.9954939081	-2.2546260338	-0.3542541844	 0.035376
C	-1.7904429946	-2.8467992386	 0.7943537319	 0.074044
O	-2.4732475254	-1.9911702275	 1.6446443694	-0.42074
C	-2.309308717	-2.9455123683	-0.6282619165	-0.006698
O	-3.4255976201	-2.1403580522	-0.8920699989	-0.429461
H	 0.2533305553	 1.8320857781	 0.4150961398	 0.273827
H	-1.0512996185	 1.5030031519	-0.6671556618	 0.263382
H	-0.0602616736	-2.7114456121	-0.6586377445	 0.117717
H	-1.3865625667	-3.727067801	 1.2857359355	 0.108131
H	-3.2813556958	-1.7410500354	 1.1716523302	 0.290535
H	-2.3177514971	-3.8924997626	-1.1601352623	 0.10735
H	-3.0968726907	-1.3021863456	-1.2398649306	 0.301288
46.632	77.8229	124.1401	218.8056	242.3902	257.7249	271.8767	295.4189	432.1578	503.045	512.2666	555.0818	641.5321	650.0978	726.9575	762.3112	779.941	798.9833	914.1753	987.7358	1052.6121	1070.9526	1099.4674	1112.6196	1154.978	1162.0727	1234.4069	1313.8507	1327.7669	1357.5101	1376.09	1400.822	1451.1347	1612.5208	1861.3742	3144.8547	3154.7199	3173.3214	3622.7497	3709.1684	3752.6946	3780.5113
NC(=O)OC1C(O)C1O	NC(=O)O[C@H]1[C@@H](O)[C@H]1O	
InChI=1S/C4H7NO4/c5-4(8)9-3-1(6)2(3)7/h1-3,6-7H,(H2,5,8)	InChI=1S/C4H7NO4/c5-4(8)9-3-1(6)2(3)7/h1-3,6-7H,(H2,5,8)/t1-,2+,3-
