17
gdb 108456	2.31915	1.73839	1.23458	4.5906	68.64	-0.2261	0.0201	0.2462	1032.8186	0.136896	-455.123459	-455.115246	-455.114302	-455.156415	30.878	
O	-0.0056257802	 1.4546043621	 0.0333015526	-0.420296
C	 0.0868529461	 0.0410554855	 0.0304861747	-0.181754
C	-1.2973879987	-0.5555008059	 0.0520995786	 0.173739
N	-2.1543248844	-0.3830170542	 1.2557238931	-0.342729
C	-2.4260884765	-1.8414206208	 1.3272771751	-0.183091
C	-1.7524252711	-2.0506768786	-0.0538467272	-0.070726
N	-2.5292106368	-1.6549179662	-1.2311675799	-0.341597
C	-2.1714848421	-0.3229663265	-1.2070628833	 0.446027
O	-2.4436024455	 0.6263789127	-1.8963434684	-0.382052
H	-0.6032888209	 1.7015179461	-0.6857962748	 0.305303
H	 0.6367348512	-0.3372263406	-0.8469497094	 0.098719
H	 0.6565289588	-0.2395603635	 0.9244380983	 0.104077
H	-1.6615250905	 0.0058765113	 2.0507837884	 0.231291
H	-1.8746088031	-2.3648055175	 2.1181560528	 0.105954
H	-3.4875901272	-2.0994319575	 1.403847422	 0.107853
H	-1.0935548274	-2.9060145364	-0.2019780104	 0.098155
H	-3.2845624817	-2.12263759	-1.7124567422	 0.251127
77.7894	126.9055	163.2848	220.3378	291.7574	327.9813	431.1105	464.6254	484.5869	487.782	631.387	703.7317	735.9678	775.9131	841.2896	862.8246	939.9717	1001.7227	1003.5676	1019.9815	1060.5009	1078.8198	1101.8842	1127.2626	1172.4639	1205.9032	1240.5762	1253.8346	1321.0392	1335.2375	1362.2833	1369.3242	1405.3468	1446.7496	1503.5286	1505.5265	1874.7366	2971.1502	3020.4343	3052.8506	3072.2228	3113.8121	3551.0919	3595.9303	3755.4671
OCC12NCC1NC2=O	OC[C@]12NC[C@H]1NC2=O	
InChI=1S/C5H8N2O2/c8-2-5-3(1-6-5)7-4(5)9/h3,6,8H,1-2H2,(H,7,9)	InChI=1S/C5H8N2O2/c8-2-5-3(1-6-5)7-4(5)9/h3,6,8H,1-2H2,(H,7,9)/t3-,5+/m1/s1
