16
gdb 90609	2.39213	1.56837	1.22246	3.6513	65.53	-0.2307	-0.0127	0.2179	1042.5982	0.123534	-474.989081	-474.980743	-474.979799	-475.022311	30.609	
O	-0.098371054	 1.4508999811	 0.0637738222	-0.419408
C	-0.0031026264	 0.0481748467	-0.0054558144	 0.087389
C	 0.2839492942	-0.6879506885	 1.3489015292	-0.225625
N	-1.1136951172	-1.2248242359	 1.347418589	-0.13669
C	-1.4061448225	-0.6231077155	 0.0025030414	-0.016268
C	-2.6060818898	 0.149314877	 0.5864413376	-0.010879
O	-3.8374993205	-0.2464264285	 0.0405453406	-0.433143
C	-2.1348257012	-0.4441780154	 1.9566879256	 0.330887
O	-2.4011253668	-0.2633277852	 3.1087661369	-0.317124
H	 0.7876503433	 1.8161762374	 0.1563313036	 0.293142
H	 0.6411818046	-0.271733758	-0.8342201042	 0.081303
H	 1.0312387131	-1.4835916199	 1.2904621383	 0.119497
H	 0.4993958148	-0.0363475069	 2.200334883	 0.128675
H	-1.6396998762	-1.3098311448	-0.8115271905	 0.098756
H	-2.4682535102	 1.2381543532	 0.5837564719	 0.121558
H	-4.537362405	 0.1771545631	 0.5488552597	 0.297928
62.0397	149.7608	183.4868	218.4736	263.8031	283.6384	317.7127	410.5108	437.1373	526.9043	665.8624	711.4556	804.9101	816.1844	843.6666	919.535	980.2221	985.5306	1007.4735	1042.7482	1115.6946	1119.9891	1148.9604	1169.6863	1194.5469	1215.3153	1236.3363	1286.7132	1295.4907	1298.7926	1322.8518	1416.2657	1427.3113	1488.6952	1884.7801	3019.835	3033.593	3055.4924	3113.8133	3116.1916	3816.6962	3817.1962
OC1CN2C1C(O)C2=O	O[C@H]1CN2[C@H]1[C@@H](O)C2=O	
InChI=1S/C5H7NO3/c7-2-1-6-3(2)4(8)5(6)9/h2-4,7-8H,1H2	InChI=1S/C5H7NO3/c7-2-1-6-3(2)4(8)5(6)9/h2-4,7-8H,1H2/t2-,3+,4+/m0/s1
