18
gdb 16624	2.94966	2.26543	1.51124	2.7443	70.63	-0.2381	-0.0157	0.2224	875.5479	0.154467	-347.831664	-347.824312	-347.823367	-347.863145	28.563	
C	 0.119742876	 1.6311136065	 0.0086817523	-0.393041
C	 0.1031821061	 0.1025209616	-0.0171325152	-0.094817
C	 0.766437837	-0.5840536394	-1.1996344434	-0.040392
C	 2.2742837363	-0.5621077851	-1.2634182508	-0.292242
C	 1.5725400794	-1.7739277413	-0.7026562732	-0.041663
C	 1.4518327577	-1.8471008763	 0.8067561921	-0.326558
C	 0.7888958653	-0.5233207979	 1.2137765466	 0.371339
O	 0.8041009075	-0.040170831	 2.3163081216	-0.313717
H	 1.1357439251	 2.0136490087	-0.1297200179	 0.119667
H	-0.5082930047	 2.0458165299	-0.7850498923	 0.111156
H	-0.2474183022	 1.9915828699	 0.9731580891	 0.136288
H	-0.9437590194	-0.2371809411	 0.0353902913	 0.101642
H	 0.2179805985	-0.6464116851	-2.1326744712	 0.086014
H	 2.7346288147	-0.6539634952	-2.2406997472	 0.115479
H	 2.8214000535	 0.0826122814	-0.5799613946	 0.117008
H	 1.5987800524	-2.6964844059	-1.2702754022	 0.088018
H	 0.7907876033	-2.6677648034	 1.1159022742	 0.127318
H	 2.3964180335	-1.9763149162	 1.3434618106	 0.128501
86.5275	193.7656	204.884	251.1124	339.0501	458.2914	460.642	552.5632	592.0797	657.0906	736.9177	791.4245	825.7378	876.2729	880.2212	937.9493	978.0341	1006.4999	1036.5564	1069.3187	1085.4353	1096.309	1108.356	1139.1838	1160.4527	1191.9499	1209.2666	1282.3986	1284.2359	1320.6197	1359.6458	1390.7248	1407.2163	1453.8815	1490.2556	1495.404	1497.9474	1842.4226	2983.6114	3029.9765	3042.5377	3088.0289	3110.6805	3118.0483	3124.129	3168.3289	3178.1079	3209.0255
CC1C2CC2CC1=O	C[C@H]1[C@H]2C[C@H]2CC1=O	
InChI=1S/C7H10O/c1-4-6-2-5(6)3-7(4)8/h4-6H,2-3H2,1H3	InChI=1S/C7H10O/c1-4-6-2-5(6)3-7(4)8/h4-6H,2-3H2,1H3/t4-,5-,6+/m0/s1
