19
gdb 10737	2.89479	1.62789	1.39491	3.9979	74.99	-0.2972	0.0435	0.3407	998.0993	0.16443	-327.935289	-327.926417	-327.925473	-327.968515	33.032	
C	 0.1157026072	 1.4730326685	 0.0141627009	-0.40179
C	-0.0149861185	-0.0680257433	 0.0435835619	 0.060918
C	 0.5777289603	-0.6126987746	 1.3611279435	-0.42421
C	-1.4493701793	-0.4162201522	 0.0089806531	 0.275768
N	-2.5732945823	-0.685367162	-0.0207822405	-0.345583
C	 0.6292277774	-0.6498210771	-1.2241982726	 0.035761
C	 2.0986730949	-0.9730465314	-1.3244550076	-0.290943
C	 1.0730658101	-2.0806868739	-1.3598826042	-0.275678
H	 1.1750361113	 1.7452437857	 0.023922994	 0.125555
H	-0.3391511455	 1.8885042326	-0.8889251152	 0.132052
H	-0.3711971125	 1.9261233505	 0.8818965998	 0.129886
H	 0.0431381152	-0.1861271945	 2.213557368	 0.137243
H	 0.4962678365	-1.6998298652	 1.4272075614	 0.137241
H	 1.6300420913	-0.3302607216	 1.4481443526	 0.12611
H	 0.1917998443	-0.2215154002	-2.1219766949	 0.09997
H	 2.6124835378	-0.706466486	-2.2412570073	 0.118824
H	 2.7150121132	-0.8922321529	-0.4364901982	 0.116719
H	 1.0089407844	-2.730540829	-0.4947687579	 0.120659
H	 0.8770657742	-2.5823593236	-2.3005513568	 0.121498
54.667	148.1246	184.2531	222.1957	255.1743	259.2863	289.5698	357.9726	417.0721	434.2668	560.0592	590.4133	665.4374	782.9496	829.6839	838.1787	915.8118	942.4685	951.6785	974.5065	1030.0166	1061.8353	1083.4209	1086.035	1147.3134	1172.1781	1196.9817	1219.3324	1232.1935	1267.224	1391.2421	1399.0743	1426.7656	1467.0499	1482.9834	1488.1811	1501.0888	1509.0502	1512.1395	2350.4121	3043.9653	3052.8731	3121.2187	3123.0443	3126.3879	3132.6293	3140.2603	3142.3041	3146.4791	3217.4312	3231.7556
CC(C)(C#N)C1CC1	CC(C)(C#N)C1CC1	
InChI=1S/C7H11N/c1-7(2,5-8)6-3-4-6/h6H,3-4H2,1-2H3	InChI=1S/C7H11N/c1-7(2,5-8)6-3-4-6/h6H,3-4H2,1-2H3
