16
gdb 12945	2.61812	2.20222	1.68023	4.168	64.76	-0.2703	0.0038	0.2741	855.2524	0.129252	-383.747015	-383.739199	-383.738254	-383.778976	28.625	
C	 0.024890324	 1.5537441616	 0.0115696785	-0.425877
C	 0.0979261788	 0.0440334736	 0.0550502632	-0.069816
C	 1.3401053803	-0.7478505496	-0.1541233676	 0.040879
O	 2.4858737779	-0.0179953543	 0.3675452912	-0.265784
C	 1.9641039955	-0.1190833567	 1.6540954653	 0.427157
O	 2.4872652923	 0.2030000499	 2.6706951735	-0.326477
C	 0.6881816903	-0.7957214851	 1.212656315	 0.078461
C	-0.0599466574	-1.842995708	 1.9834570311	-0.496304
H	 0.966352353	 2.008072729	 0.3268103026	 0.149946
H	-0.1863794706	 1.8933436972	-1.0078144414	 0.12602
H	-0.7733298724	 1.9243613208	 0.6618225885	 0.127515
H	-0.7834046029	-0.4602936782	-0.3418281596	 0.102195
H	 1.5461127365	-1.5217109805	-0.8808644647	 0.126167
H	-0.6000929188	-1.3949689737	 2.8238891176	 0.142295
H	-0.7930504067	-2.3472388146	 1.3468814717	 0.125753
H	 0.6184729602	-2.6003176813	 2.388416015	 0.13787
131.1034	153.0378	178.0893	203.0221	235.9286	282.0085	386.7485	489.3007	589.0282	652.0551	713.2877	757.9997	803.8775	867.929	906.6047	933.4878	954.09	1031.4402	1064.9457	1076.0977	1108.1047	1117.9944	1152.8604	1250.7079	1281.5889	1340.9321	1416.8445	1419.1387	1461.5434	1485.1352	1491.5406	1496.9358	1502.8756	1936.2149	3037.1012	3042.7573	3102.2633	3103.3044	3109.7265	3114.2518	3137.065	3216.2364
CC1C2OC(=O)C12C	C[C@H]1[C@H]2OC(=O)[C@@]12C	
InChI=1S/C6H8O2/c1-3-4-6(3,2)5(7)8-4/h3-4H,1-2H3	InChI=1S/C6H8O2/c1-3-4-6(3,2)5(7)8-4/h3-4H,1-2H3/t3-,4+,6-/m0/s1
