18
gdb 56363	1.97205	1.46237	1.24229	3.8994	81.3	-0.2865	0.0115	0.298	1143.5396	0.145288	-364.775941	-364.766417	-364.765472	-364.810043	35.381	
C	 0.1197955795	 1.4845510271	 0.0050415546	-0.403035
C	-0.0119811249	-0.0633193635	 0.0276646028	-0.121207
C	 0.6051269572	-0.5937811993	 1.2495994176	 0.339426
C	 1.1267484893	-1.0005355835	 2.2518581709	-0.461532
C	-1.4504136906	-0.4139465881	 0.0339886548	 0.295234
N	-2.5770665569	-0.6680619439	 0.0064974464	-0.340999
C	 0.6158120044	-0.6563346761	-1.2485148291	 0.023934
C	 2.0902102347	-0.9473061169	-1.3341950365	-0.290712
C	 1.0914348425	-2.0793260491	-1.3230968521	-0.275291
H	 1.1786182256	 1.7511444817	-0.0094640656	 0.138912
H	-0.362536674	 1.8853030178	-0.8900927991	 0.135449
H	-0.3481684219	 1.9265772068	 0.8866699556	 0.14406
H	 1.5749648292	-1.3656647149	 3.1433840917	 0.210642
H	 0.1447498153	-0.2544533752	-2.140387959	 0.104879
H	 2.598308425	-0.7047655638	-2.2605539876	 0.118224
H	 2.6869937683	-0.8072167378	-0.4399987034	 0.128573
H	 1.033645613	-2.6774854841	-0.4207867163	 0.132825
H	 0.9069169942	-2.6254570072	-2.2407941458	 0.120617
75.7151	129.4092	146.1615	160.2281	223.9642	241.973	253.5303	341.9727	404.1758	476.2471	510.5006	580.618	595.5389	639.0448	650.015	664.8994	782.5372	833.1777	861.4004	926.2201	955.1615	966.2505	1063.4058	1069.3373	1084.7871	1089.3516	1138.8093	1173.3639	1198.3913	1227.514	1252.3545	1381.4218	1408.8958	1462.3636	1486.1312	1492.1626	1500.4054	2240.8682	2357.8538	3054.1363	3136.183	3139.6918	3142.9223	3145.3709	3155.4899	3221.5102	3234.7311	3497.6839
CC(C#C)(C#N)C1CC1	C[C@@](C#C)(C#N)C1CC1	
InChI=1S/C8H9N/c1-3-8(2,6-9)7-4-5-7/h1,7H,4-5H2,2H3	InChI=1S/C8H9N/c1-3-8(2,6-9)7-4-5-7/h1,7H,4-5H2,2H3/t8-/m1/s1
