17
gdb 39956	4.31943	1.1346	1.0275	0.3892	76.15	-0.245	-0.0084	0.2366	1168.1448	0.135463	-421.793676	-421.786105	-421.78516	-421.826422	29.438	
C	-0.2755238188	 1.4964263917	 0.0510212955	-0.244606
O	 1.0511257493	 1.0000731291	-0.1288610204	-0.276594
C	-0.0206633113	 0.0493207417	-0.003828116	 0.405325
C	-0.0278068454	-0.8792344188	 1.2151103299	-0.405371
C	-0.3605837952	-2.2588348342	 0.6371491945	 0.405326
C	 0.0173111181	-3.5355651647	 1.2610345591	-0.244606
O	-1.3305278496	-3.0685722277	 1.3240458351	-0.276594
C	-0.5252419331	-2.0731448379	-0.82997507	-0.151508
C	-0.3357302118	-0.800792535	-1.1836952922	-0.151508
H	-0.4765282582	 1.9635653583	 1.0151056138	 0.114508
H	-0.7078138259	 2.0084282118	-0.8086657818	 0.112989
H	 0.9503602268	-0.8536738439	 1.7021252944	 0.129455
H	-0.784155591	-0.5975396279	 1.9521536294	 0.129455
H	 0.1818578575	-4.4184093571	 0.643302446	 0.112989
H	 0.5639355044	-3.5240126135	 2.2039812538	 0.114508
H	-0.779561581	-2.8952006758	-1.4879657916	 0.113116
H	-0.3825436648	-0.395813726	-2.1872921693	 0.113116
31.581	187.0006	265.287	328.7239	330.889	394.8167	411.6907	436.9194	590.6693	618.0611	770.8679	808.729	813.5567	826.9218	840.3192	902.7913	922.8651	944.898	966.0223	977.3843	1039.0635	1098.6437	1127.8136	1129.0587	1153.2747	1166.3954	1193.2878	1214.5729	1254.2538	1283.1797	1334.4374	1400.3694	1438.4039	1470.7756	1526.7728	1528.3123	1668.6072	3067.006	3072.0695	3072.3243	3114.2966	3158.0362	3158.1604	3199.6559	3222.4434
C1OC11CC2(CO2)C=C1	C1O[C@]21C[C@]1(CO1)C=C2	
InChI=1S/C7H8O2/c1-2-7(5-9-7)3-6(1)4-8-6/h1-2H,3-5H2	InChI=1S/C7H8O2/c1-2-7(5-9-7)3-6(1)4-8-6/h1-2H,3-5H2/t6-,7-/m0/s1
