18
gdb 68210	3.33456	1.2907	1.14249	1.2383	71.19	-0.2411	-0.0318	0.2092	1094.0971	0.147895	-439.052803	-439.044901	-439.043957	-439.085381	30.61	
O	 0.0541666886	 1.3712709077	-0.1595429304	-0.483389
C	 0.0458631481	-0.0122932471	-0.0403070042	 0.402134
C	 0.3892456317	-0.792877104	 1.2646914136	-0.2525
N	-0.4747459778	-1.893962523	 0.6728811533	-0.152142
C	-1.2986130168	-0.7640302302	 0.080928931	-0.207245
C	 0.3528131082	-2.2492986474	-0.5348022222	-0.047821
C	 0.7784798132	-0.8673621113	-1.0978963441	-0.320287
C	 1.471549202	-3.1886261156	-0.131774608	 0.141216
O	 2.6304580977	-3.0497353659	-0.4296344907	-0.241078
H	 0.9411684113	 1.6578685501	-0.4012001185	 0.286625
H	 1.4260376662	-1.0700181757	 1.4764156866	 0.110411
H	-0.0898300408	-0.3810047079	 2.1544029182	 0.116374
H	-1.9645050924	-0.348307199	 0.8396739145	 0.117781
H	-1.8550943768	-1.016955892	-0.8261536421	 0.10212
H	-0.2895418792	-2.811390079	-1.2253043467	 0.103449
H	 0.4110234613	-0.6771627696	-2.1093470976	 0.108029
H	 1.8647445292	-0.7384300555	-1.0846162093	 0.120145
H	 1.1256048263	-4.0470413547	 0.4844814666	 0.096177
70.9675	146.8777	215.2759	233.1825	341.0171	360.4744	416.4206	463.1545	544.3103	600.0355	648.1638	688.7772	803.2164	837.9467	857.586	885.0487	929.3393	960.1118	973.2968	1004.1559	1021.5548	1056.7459	1091.0239	1118.0863	1144.9282	1194.0528	1201.958	1218.6493	1231.8979	1255.7428	1274.3547	1324.8455	1355.8638	1384.9155	1409.003	1496.8933	1501.3598	1536.5884	1828.2835	2901.5653	3027.1462	3056.3353	3059.5939	3064.1248	3110.8114	3127.111	3133.7028	3812.0276
OC12CN(C1)C(C2)C=O	O[C@@]12CN(C1)[C@@H](C2)C=O	
InChI=1S/C6H9NO2/c8-2-5-1-6(9)3-7(5)4-6/h2,5,9H,1,3-4H2	InChI=1S/C6H9NO2/c8-2-5-1-6(9)3-7(5)4-6/h2,5,9H,1,3-4H2/t5-/m0/s1
