19
gdb 39098	3.37094	1.71134	1.45245	0.4292	73.85	-0.2358	0.0762	0.312	946.5829	0.162187	-422.991147	-422.9844	-422.983456	-423.022252	27.908	
C	-0.0617734715	 1.5894174322	 0.0606453331	-0.28965
C	 1.4699654829	 1.3553415364	-0.0363539974	-0.137785
C	 1.6731460627	 0.524834502	 1.257847568	-0.088394
O	 0.5157402523	-0.3699382173	 1.2188284508	-0.350127
C	-0.0449476044	 0.0275423512	-0.0222363126	 0.480284
C	-1.0857042789	-0.7573891288	-0.7703433297	-0.384946
C	-0.7410817879	-0.3259209031	-2.2349763088	-0.070993
O	 0.5272401747	 0.3786088279	-2.2300338564	-0.293838
C	 1.1465260002	 0.1617462039	-0.9853728877	 0.111871
H	-0.4588360672	 2.0180509704	 0.983336693	 0.094878
H	-0.4769084037	 2.0762878912	-0.8189598101	 0.119027
H	 2.2007540136	 2.1370665339	-0.2415659605	 0.076551
H	 2.5923887499	-0.072153267	 1.2590815838	 0.106476
H	 1.6393432466	 1.1363906403	 2.1652963846	 0.108934
H	-0.9276081898	-1.8299438988	-0.6214747236	 0.120258
H	-2.1187044769	-0.5193246426	-0.5060371263	 0.113498
H	-0.6717570885	-1.1938121373	-2.9014510561	 0.10801
H	-1.4903050688	 0.3580586856	-2.6460699545	 0.112244
H	 1.8816592649	-0.6533053602	-1.0263402394	 0.0637
85.4728	262.4465	301.0462	360.9695	410.4981	472.2093	554.0741	648.8105	674.9627	735.7179	826.5081	844.0504	869.0492	893.1584	919.3378	928.3136	936.9678	953.1232	974.1012	1007.5561	1024.0437	1077.3043	1108.4252	1119.7454	1136.8682	1162.2731	1184.4125	1208.206	1226.7923	1236.0386	1247.7517	1268.3221	1293.4938	1328.7976	1348.8745	1375.0032	1399.3567	1480.8596	1493.4656	1519.3109	1524.5519	3011.6982	3029.9777	3032.4513	3060.082	3072.7406	3078.2602	3081.6162	3112.0773	3123.4628	3167.0605
C1C2COC11CCOC21	C1[C@H]2CO[C@]31CCO[C@@H]23	
InChI=1S/C7H10O2/c1-2-8-6-5-3-7(1,6)9-4-5/h5-6H,1-4H2	InChI=1S/C7H10O2/c1-2-8-6-5-3-7(1,6)9-4-5/h5-6H,1-4H2/t5-,6-,7-/m0/s1
