16
gdb 80813	2.00943	1.67874	1.22752	2.6994	71.82	-0.2433	0.0038	0.2471	1058.7154	0.125551	-433.997471	-433.989411	-433.988467	-434.029866	31.067	
N	 0.1915264	 1.4814393475	-0.0139497183	-0.529656
C	 0.0916052762	 0.0636730379	-0.0026648477	 0.050011
C	-0.076245462	-0.6332310007	 1.3746901217	-0.0827
N	-1.5054285029	-0.102896703	 1.3918813554	-0.361383
C	-1.3234206556	-0.689133051	 0.0076022126	 0.153761
C	-2.3580205118	-0.6997063852	-0.9881475735	 0.127611
N	-3.1611017061	-0.7263635315	-1.8214039872	-0.346518
C	-0.5791442004	-1.9086185521	 0.6610205552	 0.098433
O	 0.3564624017	-2.6524373255	-0.0530935104	-0.421686
H	 0.1560507143	 1.8530883472	-0.9559369899	 0.240023
H	-0.556316424	 1.8939978191	 0.5342162464	 0.250712
H	 0.818404386	-0.3978869969	-0.6680031337	 0.112884
H	 0.5698925959	-0.5543455206	 2.2476873858	 0.102139
H	-2.1044398581	-0.7179269435	 1.9532774621	 0.219951
H	-1.2440592018	-2.530770982	 1.275346907	 0.086442
H	-0.1016776714	-3.3462808596	-0.5390056754	 0.299975
114.6788	142.992	232.009	277.0329	305.8426	352.085	365.9764	389.9015	519.9497	545.0383	562.9744	609.2091	699.4389	790.346	807.8942	837.6825	880.2678	929.7524	946.7294	978.7838	1087.1871	1118.1277	1157.083	1172.9706	1201.6557	1218.0889	1230.7967	1259.2755	1280.5579	1298.4734	1304.7997	1426.0384	1460.8255	1647.9106	2337.3438	3020.4283	3137.0328	3150.2427	3381.9311	3513.7196	3602.1855	3815.4785
NC1C2NC1(C#N)C2O	N[C@H]1[C@H]2N[C@]1(C#N)[C@H]2O	
InChI=1S/C5H7N3O/c6-1-5-3(7)2(8-5)4(5)9/h2-4,8-9H,7H2	InChI=1S/C5H7N3O/c6-1-5-3(7)2(8-5)4(5)9/h2-4,8-9H,7H2/t2-,3+,4+,5+/m1/s1
