18
gdb 55895	2.49009	1.11448	0.92428	3.8596	74.77	-0.2536	-0.0272	0.2264	1324.2936	0.145075	-439.086598	-439.077164	-439.07622	-439.121844	33.573	
C	-0.1716266871	 1.3642481791	 0.1778725824	-0.44456
C	-0.1148816328	-0.1086050606	-0.0991473337	 0.405889
N	 0.741378928	-0.6282789937	-0.8708544472	-0.5067
O	-1.111957638	-0.7478027247	 0.6057418987	-0.24538
C	-1.1460220336	-2.1441177548	 0.5608788091	 0.094271
C	-2.4502873726	-2.7704136436	 0.8633735061	-0.338406
C	-1.8982162129	-2.8580322883	-0.5623647506	-0.136311
C	-2.5810387978	-2.0733606911	-1.6198413212	 0.168705
O	-2.7068846874	-2.4471360092	-2.7592625717	-0.26364
H	 0.6068173974	 1.8712764181	-0.3899099571	 0.15299
H	-1.1519665388	 1.7635913128	-0.1003898034	 0.141886
H	-0.0359191797	 1.5546557877	 1.2469779558	 0.141664
H	 0.6304572043	-1.6366014642	-0.9685628773	 0.224945
H	-0.2339582296	-2.6216455582	 0.9111431067	 0.12416
H	-2.478464711	-3.6805183809	 1.4497961347	 0.139576
H	-3.2860721961	-2.0954279005	 1.0152491066	 0.143888
H	-1.5005327302	-3.8092205929	-0.8991514152	 0.116036
H	-2.9926300822	-1.0973928648	-1.2806488027	 0.080989
53.3716	67.1138	125.0537	145.2397	172.2569	229.3638	297.8327	366.7978	408.4031	473.9969	535.8004	567.4268	638.4988	773.4521	827.1227	854.48	885.3383	899.2972	969.4517	1021.1476	1040.0848	1056.2048	1070.7127	1076.7201	1102.1776	1132.3755	1168.0945	1180.5125	1229.2865	1305.4126	1336.9906	1394.9083	1415.662	1441.0419	1473.5924	1477.6583	1479.9172	1747.8843	1819.8553	2891.8701	3051.7287	3109.5216	3135.7079	3143.5057	3172.1846	3179.2183	3236.6977	3499.5863
CC(=N)OC1CC1C=O	C[C]([NH])O[C@H]1C[C@H]1C=O	
InChI=1S/C6H9NO2/c1-4(7)9-6-2-5(6)3-8/h3,5-7H,2H2,1H3	InChI=1S/C6H9NO2/c1-4(7)9-6-2-5(6)3-8/h3,5-7H,2H2,1H3/t5-,6-/m0/s1
