23
gdb 108516	2.52892	1.40713	1.161	1.3141	84.44	-0.2605	0.0743	0.3348	1184.304	0.20753	-388.29571	-388.286917	-388.285972	-388.329196	34.502	
O	-0.0969399621	 1.4314815953	 0.3032589176	-0.427784
C	-0.0157976062	 0.0203953384	 0.1417261103	-0.174415
C	-1.4164286061	-0.5128557308	-0.0757790698	 0.399954
C	-2.3255705158	-0.4777361915	 1.1928520852	-0.268226
C	-2.4212425438	-2.028375336	 1.1799356318	-0.221263
C	-1.5597514603	-2.0824132644	-0.1153306305	-0.059065
C	-2.3103576337	-2.4098441602	-1.4153164112	-0.216404
C	-3.069110991	-1.1141377028	-1.7663636216	-0.218862
C	-2.0883881368	 0.0028515574	-1.3608377139	-0.255418
H	 0.7892229686	 1.7685037702	 0.4638089715	 0.286059
H	 0.6177492205	-0.2455934847	-0.7217882829	 0.077625
H	 0.4291568321	-0.4523460829	 1.0331564647	 0.077166
H	-1.8407489014	-0.0481081603	 2.0727896092	 0.099825
H	-3.2766361897	 0.0420334135	 1.0488219422	 0.094579
H	-1.9571111418	-2.5140141315	 2.0420050847	 0.094778
H	-3.4318511529	-2.4339815431	 1.0717589247	 0.092785
H	-0.6335757163	-2.6552956193	-0.0149788729	 0.053797
H	-1.5895470555	-2.6395961912	-2.2098228607	 0.091779
H	-2.9675378604	-3.2802292246	-1.3144201637	 0.091144
H	-3.3638108348	-1.0629862027	-2.8185168773	 0.091882
H	-3.9901394214	-1.0430432254	-1.1749925194	 0.098967
H	-2.5693295628	 0.9744352444	-1.2188532697	 0.103067
H	-1.3297525584	 0.1299987921	-2.1442254882	 0.088032
67.1629	111.5305	168.13	218.2813	263.6602	310.2572	352.3523	378.2037	426.4593	574.6011	575.8561	656.5872	740.0489	804.7228	832.1052	859.8218	888.8486	912.8538	931.0583	952.5706	968.0051	985.6172	1008.2269	1044.9444	1046.3948	1075.8604	1094.1148	1153.2857	1173.0352	1199.3398	1213.6994	1219.2107	1238.5603	1249.7036	1264.3337	1285.3031	1291.0752	1302.9443	1316.8871	1338.2725	1349.0318	1366.1283	1456.3769	1476.0287	1483.9637	1489.0563	1491.5961	1507.4938	1519.3907	2947.885	2976.9741	3022.2717	3025.3103	3034.3215	3047.3165	3057.2196	3062.5647	3072.9694	3087.0779	3092.1115	3094.4678	3113.0444	3828.6001
OCC12CCC1CCC2	OC[C@]12CC[C@H]1CCC2	
InChI=1S/C8H14O/c9-6-8-4-1-2-7(8)3-5-8/h7,9H,1-6H2	InChI=1S/C8H14O/c9-6-8-4-1-2-7(8)3-5-8/h7,9H,1-6H2/t7-,8+/m1/s1
