13
gdb 24798	3.80322	1.28062	0.95803	6.9569	78.49	-0.2339	-0.0663	0.1676	1130.0061	0.09062	-411.782551	-411.77499	-411.774046	-411.815394	27.79	
N	-0.026041328	 1.3338156515	 0.0101210356	-0.503306
C	 0.0146824582	 0.0609129758	 0.0030590508	 0.353656
N	 1.2448388915	-0.6585757615	-0.0074114765	-0.28427
C	 1.1898749931	-1.9334809436	-0.0138816057	 0.083922
N	 0.0158646781	-2.647652671	-0.0113958844	-0.351215
C	-1.1729146696	-1.9273646393	-0.0013588495	 0.233942
N	-1.2087063699	-0.6461627647	 0.0056285353	-0.28496
C	-2.3682333656	-2.714006749	 0.0006624701	 0.225828
C	-3.346020967	-3.4130419142	 0.0020258344	-0.330544
H	 0.9341511987	 1.6818037915	 0.0069035445	 0.221798
H	 2.1004399016	-2.5306626585	-0.0219380354	 0.140003
H	 0.0047162598	-3.6544421688	-0.0166952646	 0.278096
H	-4.2280310608	-4.0065879781	 0.0034505956	 0.217051
44.5716	131.4128	144.4504	346.4563	398.1314	437.5121	487.9636	512.3329	566.003	582.513	660.1706	684.74	713.1616	761.0614	802.1074	891.4763	910.7821	969.9025	996.7422	1055.8518	1164.8444	1230.6126	1325.5493	1415.0804	1467.5736	1637.9268	1701.376	1722.7117	2242.1615	3147.56	3479.0953	3494.5384	3651.4181
N=C1N=CNC(=N1)C#C	[NH]C1=N[C@H](NC=N1)C#C	
InChI=1S/C5H4N4/c1-2-4-7-3-8-5(6)9-4/h1,3H,(H2,6,7,8,9)	InChI=1S/C5H5N4/c1-2-4-7-3-8-5(6)9-4/h1,3-4,6H,(H,7,8,9)/t4-/m0/s1
