18
gdb 39751	3.21496	1.68495	1.48547	0.9912	74.42	-0.2328	0.084	0.3167	938.5608	0.150149	-401.883295	-401.876587	-401.875643	-401.914202	27.704	
C	 0.0034669594	 1.5219963188	-0.0100640228	-0.31307
N	 1.2325892884	 0.6881951315	 0.0445321178	-0.392615
C	-0.0785681881	 0.050951836	 0.0348127283	 0.387669
C	-0.5025701527	-0.9326476865	 1.1013727048	-0.151992
C	-1.8814022887	-1.4802274352	 0.7445449222	-0.090285
C	-2.7249860206	-0.7123651265	-0.2706306227	-0.102202
O	-1.916392497	-0.6247441646	-1.4537228116	-0.259181
C	-0.5907658892	-0.9262935986	-1.0516997009	-0.034413
C	-0.6754431923	-2.0221509118	 0.0444550789	-0.082796
H	-0.1795377052	 2.1126748773	 0.8837877075	 0.116676
H	-0.2520958487	 2.0170722584	-0.9438020037	 0.117449
H	 1.6558902084	 0.6378260432	-0.8801669242	 0.228286
H	-0.0889250157	-1.0093330019	 2.099273681	 0.095409
H	-2.3769002412	-2.0804970062	 1.4983860469	 0.096781
H	-3.6469647938	-1.2490455497	-0.5212829101	 0.105574
H	-2.9922237688	 0.2932739434	 0.0788448545	 0.103644
H	 0.0275298195	-1.0735699795	-1.93831421	 0.080102
H	-0.3453560038	-3.0504866382	 0.0099312543	 0.094964
130.0989	224.7519	276.7539	303.3309	445.2396	484.7946	594.9303	697.4322	754.7522	767.7616	793.9127	836.7861	870.3082	897.5452	920.547	924.7059	941.3036	973.1022	977.0115	989.0477	1033.0298	1044.2135	1056.9349	1076.1306	1091.4162	1118.1288	1132.3733	1197.712	1218.6448	1223.2786	1256.8879	1272.1563	1295.3836	1306.1553	1355.4548	1397.0076	1436.2023	1514.7257	1518.9743	3015.9206	3060.1012	3103.0283	3112.1924	3187.1009	3188.2372	3195.1361	3217.6243	3479.5234
C1NC11C2C3COC1C23	C1N[C@]21[C@H]1[C@H]3CO[C@@H]2[C@@H]13	
InChI=1S/C7H9NO/c1-3-4-5(3)7(2-8-7)6(4)9-1/h3-6,8H,1-2H2	InChI=1S/C7H9NO/c1-3-4-5(3)7(2-8-7)6(4)9-1/h3-6,8H,1-2H2/t3-,4+,5-,6+,7+/m0/s1
