22
gdb 122306	3.8278	0.82056	0.75369	0.9221	83.85	-0.2463	0.0898	0.3361	1618.9216	0.193768	-404.302391	-404.292856	-404.291912	-404.337727	34.909	
C	 0.7008172911	 1.1316829701	-0.5552322344	-0.385224
C	-0.0389082757	 0.0238628587	 0.1754300078	-0.017768
O	 0.880129977	-0.6656623336	 0.9973400397	-0.250632
C	 0.2921210219	-1.7252004426	 1.724653478	-0.165297
C	 1.3301669757	-2.3279627885	 2.6175634195	 0.341315
C	 2.272899418	-1.5577095657	 3.5567409384	-0.293692
C	 3.3730790353	-2.638418553	 3.2854598885	-0.234243
C	 2.3885837194	-3.3661043579	 2.3597123276	-0.072781
N	 1.1508091187	-3.7060826395	 3.0581836871	-0.370634
H	 1.5000781226	 0.7150320195	-1.1747385671	 0.126329
H	 0.0148128462	 1.6883333529	-1.2006511349	 0.114161
H	 1.1492568001	 1.8287723997	 0.1584925391	 0.124714
H	-0.8571858412	 0.4416559575	 0.78697048	 0.084267
H	-0.5021316987	-0.6722209314	-0.5444274839	 0.085756
H	-0.5555261603	-1.3497296967	 2.3266542546	 0.083225
H	-0.1071376085	-2.5013025096	 1.0529946614	 0.099173
H	 2.5463943257	-0.5798183207	 3.1577057409	 0.123156
H	 1.9236668735	-1.4388615169	 4.5885573297	 0.088478
H	 4.2367909111	-2.2258896203	 2.7591314008	 0.11039
H	 3.730029988	-3.2181332493	 4.1436870407	 0.094844
H	 2.6267451166	-3.9164666518	 1.4563736096	 0.093024
H	 1.2829910037	-3.8202276111	 4.0621896668	 0.221439
54.7177	74.5834	91.2691	138.2991	225.5991	245.2672	284.6514	318.3794	383.825	470.5256	510.1562	673.4003	762.1593	783.0915	818.453	822.3784	903.7989	924.1452	941.6435	953.421	986.9412	1036.7105	1053.3686	1067.1543	1098.6867	1134.3835	1145.2322	1164.3798	1178.5235	1195.4379	1211.5111	1227.8953	1238.1118	1260.5375	1286.0603	1295.839	1320.8092	1368.7156	1401.7932	1429.2623	1474.1827	1478.9926	1483.4163	1499.2113	1501.0287	1507.4589	1534.2604	2937.409	2954.0532	2976.0109	2996.6431	3038.3855	3044.4576	3047.49	3103.8883	3118.9171	3120.6595	3127.1992	3176.7061	3452.7472
CCOCC12CCC1N2	CCOC[C@]12CC[C@H]1N2	
InChI=1S/C7H13NO/c1-2-9-5-7-4-3-6(7)8-7/h6,8H,2-5H2,1H3	InChI=1S/C7H13NO/c1-2-9-5-7-4-3-6(7)8-7/h6,8H,2-5H2,1H3/t6-,7-/m1/s1
