18
gdb 7867	3.32317	1.6646	1.14011	3.0246	75.46	-0.2341	-0.012	0.2221	1049.9491	0.152144	-347.855425	-347.846988	-347.846044	-347.888374	30.978	
C	 0.0847029821	 1.5209906695	 0.0819513306	-0.494397
C	 0.0040158167	 0.0264157746	 0.0435294951	 0.218059
C	-1.0913032705	-0.7463536862	-0.0460220799	 0.21807
C	-2.5238577616	-0.3195213476	-0.1313847663	-0.494395
C	-0.7468759615	-2.2166776993	-0.0556328719	-0.410367
C	 0.7820037842	-2.2442207735	 0.0446194636	 0.397173
O	 1.4741226871	-3.2279446681	 0.0682347465	-0.304998
C	 1.2706332193	-0.7932466144	 0.109320207	-0.41038
H	 0.6916579745	 1.9016023708	-0.7498478728	 0.127195
H	-0.8953897256	 1.9995135705	 0.0275611517	 0.124894
H	 0.5755064905	 1.8628477329	 1.0025027209	 0.127193
H	-2.9902136402	-0.6960324913	-1.0511141648	 0.1272
H	-3.1062586242	-0.7351575963	 0.7012262042	 0.127191
H	-2.6441152335	 0.7657454406	-0.1150457722	 0.124892
H	-1.1892229091	-2.7752950573	 0.781117788	 0.13067
H	-1.0740425835	-2.7370006103	-0.9667110085	 0.130664
H	 1.9654151385	-0.592540089	-0.7182339747	 0.130665
H	 1.8494013067	-0.6314855558	 1.0295045532	 0.13067
64.7412	149.9793	166.0443	182.1108	283.7447	291.2061	306.3978	480.4163	496.8834	512.4757	541.1725	583.9404	757.5085	806.2386	826.642	921.9235	926.2737	990.3924	1047.4358	1071.9779	1075.1081	1137.4317	1176.156	1188.2043	1191.0434	1235.6602	1290.2405	1343.9248	1412.0705	1421.3233	1442.244	1447.9726	1477.4	1482.3005	1485.4564	1491.908	1733.2185	1852.6518	3010.1248	3013.4497	3016.0935	3019.4532	3036.8827	3038.2039	3058.7049	3059.0039	3114.93	3124.8816
CC1=C(C)CC(=O)C1	CC1=C(C)CC(=O)C1	
InChI=1S/C7H10O/c1-5-3-7(8)4-6(5)2/h3-4H2,1-2H3	InChI=1S/C7H10O/c1-5-3-7(8)4-6(5)2/h3-4H2,1-2H3
