19
gdb 42683	2.93599	1.6927	1.69039	2.8998	77.41	-0.2286	-0.0111	0.2175	919.9681	0.163501	-385.917647	-385.911225	-385.910281	-385.948171	27.32	
O	 0.0637700772	 0.0159567705	-0.0042607027	-0.335063
C	 0.0041447637	 1.2146055273	 0.009307108	 0.436668
C	-1.1832780982	 2.1579690729	 0.0432745242	-0.141399
C	-0.7975749665	 3.2526195497	 1.1114334747	-0.024006
C	-1.1159671405	 4.3421621622	 0.0617072984	-0.22448
C	-0.8439321454	 3.2720326106	-1.0205258099	-0.024016
C	 0.6877058196	 3.0834190343	-1.2447783897	-0.233755
C	 1.1266158165	 2.269198133	-0.0058253076	-0.128831
C	 0.7423359064	 3.0607669984	 1.2655045644	-0.233742
H	-2.1847329805	 1.7374911014	 0.0611154798	 0.080588
H	-1.3287401831	 3.2739369064	 2.0636657536	 0.072162
H	-2.1701835483	 4.6328916654	 0.0873216262	 0.099783
H	-0.4965200994	 5.2463192551	 0.0564903524	 0.088381
H	-1.415947418	 3.3104924754	-1.9482437885	 0.072188
H	 0.8808237611	 2.5126281591	-2.1596523531	 0.108575
H	 1.2082291626	 4.0426139914	-1.3335721951	 0.10013
H	 2.1387838664	 1.8687169399	-0.0314551284	 0.078173
H	 1.2665842075	 4.018433887	 1.3486669466	 0.100104
H	 0.9749398588	 2.47371932	 2.1606933266	 0.10854
142.0615	273.0847	328.1893	427.3557	444.399	539.1979	549.4546	656.9393	772.6169	800.7464	816.2276	817.8645	857.4716	863.0631	891.7881	909.4659	935.5001	952.8924	978.1636	998.1872	1049.9018	1087.8767	1096.5981	1100.1003	1133.4902	1156.249	1167.7792	1205.9137	1225.0671	1237.5323	1258.9799	1277.2897	1288.4999	1308.1824	1327.4071	1339.6139	1354.5532	1484.8939	1485.9573	1504.0896	1873.1002	3031.7375	3036.8018	3038.3666	3079.9021	3081.3868	3088.214	3098.6071	3101.4906	3132.1109	3162.2016
O=C1C2C3CC2CC1C3	O=C1[C@H]2[C@@H]3C[C@H]2C[C@H]1C3	
InChI=1S/C8H10O/c9-8-6-2-4-1-5(3-6)7(4)8/h4-7H,1-3H2	InChI=1S/C8H10O/c9-8-6-2-4-1-5(3-6)7(4)8/h4-7H,1-3H2/t4-,5+,6-,7+
