17
gdb 26447	3.12483	1.12962	0.8987	2.1059	74.87	-0.2312	-0.0259	0.2052	1270.2714	0.135257	-421.863206	-421.854641	-421.853697	-421.897738	30.803	
C	 0.3481602611	 1.6099974701	-0.2386641518	-0.420253
C	 0.0140056485	 0.1364561724	 0.0412101586	-0.169657
C	 0.4302183423	-0.7135796568	-1.1573502982	 0.168334
O	-0.308420387	-1.4099113019	-1.8014212938	-0.248836
C	 0.7081648476	-0.408067514	 1.2610130497	 0.222525
C	 1.7324372692	 0.1450814822	 1.9696051715	-0.101547
O	 2.1067101332	-0.6655435828	 2.9935731782	-0.143907
C	 1.3106780042	-1.7657671623	 2.936845986	 0.009492
C	 0.4402037846	-1.6703649332	 1.9017984115	-0.287561
H	 1.4133140197	 1.739427752	-0.4600176219	 0.125382
H	-0.2205268572	 1.9810450187	-1.0956155393	 0.130991
H	 0.1060832053	 2.22813626	 0.6301637566	 0.132682
H	-1.0687462431	 0.011345294	 0.147690399	 0.10194
H	 1.5185986402	-0.6433350779	-1.3915104768	 0.075727
H	 2.2747417804	 1.0718925401	 1.8881099991	 0.13872
H	 1.4882185364	-2.5107951034	 3.6946040273	 0.141324
H	-0.3064365455	-2.3947513672	 1.6149911543	 0.124643
40.9984	54.4568	154.1285	200.7791	237.7033	303.5403	379.8994	404.8578	475.9658	621.8135	656.5088	713.387	742.4521	790.534	840.4551	888.473	893.0034	948.2936	982.9474	1051.1838	1082.7468	1085.562	1105.3793	1145.4444	1203.3493	1240.3702	1272.4613	1282.736	1345.0655	1401.7142	1405.6583	1419.198	1496.2564	1502.7718	1537.9393	1623.875	1834.1152	2858.2338	3038.0074	3057.269	3107.4834	3121.4065	3253.7132	3281.701	3287.1233
CC(C=O)C1=COC=C1	C[C@@H](C=O)c1cocc1	
InChI=1S/C7H8O2/c1-6(4-8)7-2-3-9-5-7/h2-6H,1H3	InChI=1S/C7H8O2/c1-6(4-8)7-2-3-9-5-7/h2-6H,1H3/t6-/m0/s1
