25
gdb 122219	2.44659	0.892	0.75143	0.8131	90.46	-0.2492	0.0805	0.3296	1690.7578	0.226914	-389.48056	-389.469505	-389.468561	-389.517701	40.037	
C	 1.1072242386	 1.6172459658	 0.1810667017	-0.384249
C	 0.6207291947	 0.1830201635	 0.0566195864	-0.021169
O	 1.1913782836	-0.3878782343	-1.1013195871	-0.248072
C	 0.8047017119	-1.7312195004	-1.3146478432	-0.130144
C	 1.417504877	-2.2212966025	-2.6065211578	 0.376435
C	 1.0019393124	-1.4674973306	-3.862607531	-0.252244
C	-0.4775590847	-1.6282497877	-4.2337244606	-0.382025
C	 2.8285940158	-2.7503499602	-2.5272362533	-0.305896
C	 1.6752117074	-3.7063245068	-2.7127897937	-0.315247
H	 2.1977720316	 1.646049137	 0.2584711996	 0.126257
H	 0.811570615	 2.1996574624	-0.6963030614	 0.125305
H	 0.6822489079	 2.0898189323	 1.0717150635	 0.112734
H	 0.906171677	-0.4001114529	 0.9494395401	 0.082128
H	-0.4809621535	 0.151754075	-0.004664591	 0.082443
H	 1.139308633	-2.3641867093	-0.4749594403	 0.076071
H	-0.2959483782	-1.8048498155	-1.3504353752	 0.083963
H	 1.2340286755	-0.405782449	-3.7236328066	 0.11291
H	 1.6202628245	-1.8157710707	-4.6988229914	 0.086831
H	-0.7410203047	-2.6833381335	-4.3650835179	 0.112948
H	-1.1368524476	-1.2141065484	-3.464231498	 0.117284
H	-0.702448876	-1.1071343162	-5.1696228143	 0.109766
H	 3.4865828759	-2.5723382948	-3.3711007472	 0.108325
H	 3.3278950219	-2.7310727543	-1.5643330792	 0.110193
H	 1.3983232248	-4.3453934829	-1.8804074527	 0.106611
H	 1.5464950961	-4.1699483559	-3.6853970892	 0.108844
37.7862	71.4617	88.3431	120.6865	145.8052	215.5982	239.4961	248.5757	296.0428	307.7862	356.7094	414.0137	461.4145	539.8725	721.2285	776.6839	798.1179	820.6317	886.6882	898.2418	924.5297	946.5168	958.3949	1017.3451	1039.9513	1046.9149	1051.6951	1077.7075	1102.0038	1117.9719	1142.3814	1163.1582	1187.0647	1188.5763	1250.749	1278.5567	1296.1069	1331.6131	1352.78	1376.9417	1395.8105	1409.039	1410.3566	1454.3697	1469.4506	1483.2421	1484.2401	1496.5569	1499.3454	1505.3475	1507.0036	1516.7679	1535.3411	2941.8188	2954.5395	2970.2545	2973.9259	3029.6291	3033.6502	3044.2868	3069.5651	3101.8027	3104.1679	3118.4741	3120.925	3125.5069	3131.5044	3202.7137	3217.8863
CCOCC1(CC)CC1	CCOCC1(CC)CC1	
InChI=1S/C8H16O/c1-3-8(5-6-8)7-9-4-2/h3-7H2,1-2H3	InChI=1S/C8H16O/c1-3-8(5-6-8)7-9-4-2/h3-7H2,1-2H3
