23
gdb 57197	2.3304	1.34601	1.07702	3.2079	82.44	-0.2285	0.0512	0.2797	1260.2667	0.20431	-421.647653	-421.636859	-421.635915	-421.682605	41.103	
C	 0.4471608138	 1.3933744108	 0.025017165	-0.354631
N	-0.02186855	 0.0094137046	 0.0237009685	-0.126659
C	-0.0665306921	-0.6973651855	 1.2106517593	 0.432969
N	-0.2093978808	 0.0788518858	 2.366916455	-0.55734
O	 0.0290128036	-1.9121642075	 1.297701994	-0.407154
C	-0.0099269802	-0.7389543324	-1.2751742232	 0.268486
C	-0.2409371235	 0.2503835018	-2.4338683928	-0.415143
C	 1.3426411284	-1.4521004277	-1.4622415473	-0.400693
C	-1.1706676135	-1.753420416	-1.3157074594	-0.403214
H	 1.3568138247	 1.4999458255	-0.5769838653	 0.129121
H	-0.3009049711	 2.0910244899	-0.3685044555	 0.118969
H	 0.7055975963	 1.6910404471	 1.0394613081	 0.145846
H	-0.8207247	 0.8804512671	 2.3120460552	 0.249016
H	-0.4031613445	-0.514928964	 3.1602889737	 0.256179
H	 0.5742872513	 0.9668463786	-2.5582897561	 0.110969
H	-0.3165895149	-0.3183087047	-3.3644206425	 0.118593
H	-1.1756973066	 0.8054132039	-2.3064354537	 0.114999
H	 1.4997124187	-2.1724603578	-0.6586066255	 0.151271
H	 1.367345316	-1.9789736788	-2.4219002831	 0.105328
H	 2.1688124266	-0.7323912794	-1.4571337871	 0.10128
H	-2.1269337725	-1.241868496	-1.1635463428	 0.100933
H	-1.1965335066	-2.2295926319	-2.3008627949	 0.102134
H	-1.0593546632	-2.5220110132	-0.5547680198	 0.158739
74.9395	107.4869	141.5092	194.0568	229.6482	266.9175	268.8654	301.2973	318.8569	346.2606	403.3115	414.468	434.9607	459.6564	466.5466	525.1899	596.458	625.0663	682.6215	798.0555	821.8187	922.4287	928.2542	962.8405	977.144	1045.5301	1054.4195	1103.5111	1143.3225	1187.8252	1203.1001	1247.2167	1253.4828	1288.3767	1390.9052	1395.7999	1403.1299	1426.6483	1471.8387	1478.144	1489.5139	1495.7078	1499.7597	1504.7042	1517.4422	1522.444	1532.4929	1620.1976	1765.7263	3021.9261	3033.9674	3039.6328	3047.6593	3068.1541	3094.2957	3100.9061	3115.7894	3121.9843	3148.1115	3159.0113	3180.7106	3564.3995	3675.1166
CN(C(N)=O)C(C)(C)C	CN(C(=O)N)C(C)(C)C	
InChI=1S/C6H14N2O/c1-6(2,3)8(4)5(7)9/h1-4H3,(H2,7,9)	InChI=1S/C6H14N2O/c1-6(2,3)8(4)5(7)9/h1-4H3,(H2,7,9)
