16
gdb 50714	3.46173	1.21108	0.9317	2.6117	67.23	-0.2492	-0.0404	0.2088	1183.3115	0.124145	-475.022417	-475.014302	-475.013358	-475.055967	28.922	
O	-0.8894524403	 1.088544627	-0.0441653092	-0.244166
C	 0.2516628261	 0.7388001836	 0.1008912744	 0.141897
C	 1.4394895372	 1.6892557565	 0.0291682943	-0.017191
C	 1.1890950332	 2.9539312805	 0.8600142486	-0.149972
N	 2.2118909371	 3.9772575781	 0.8530359113	-0.253744
C	 3.4553814507	 3.7816490542	 0.8778249755	 0.120238
O	 4.2092489799	 2.6426776242	 0.8313681847	-0.221793
C	 3.7821422385	 1.5173278371	 0.0771520093	 0.018142
O	 2.573958226	 0.9623620404	 0.4722110906	-0.233217
H	 0.5368015749	-0.3165870957	 0.3019187821	 0.102675
H	 1.5737196384	 1.9769347164	-1.0285720886	 0.107953
H	 0.2499061435	 3.3912207276	 0.5093569345	 0.138271
H	 1.0246217927	 2.6514455538	 1.9037473457	 0.130768
H	 4.1225527412	 4.633920841	 1.0062118298	 0.128152
H	 3.7395727606	 1.8102901734	-0.984496839	 0.099567
H	 4.5544473702	 0.7647050819	 0.2400967361	 0.132418
61.8707	111.4373	118.4922	196.4381	291.0558	335.6926	386.953	449.3151	515.0617	572.1889	630.6965	757.667	849.1977	890.1803	939.9532	968.1184	997.6155	1065.0107	1072.2016	1090.4278	1111.178	1165.995	1215.7258	1254.1885	1296.8187	1326.0701	1358.8132	1375.9857	1402.8972	1429.1153	1457.3991	1474.2132	1501.0477	1764.428	1837.6102	2907.4934	2956.7966	2974.0946	3020.9433	3091.6869	3129.5545	3141.9215
O=CC1CN=COCO1	O=C[C@H]1CN=COCO1	
InChI=1S/C5H7NO3/c7-2-5-1-6-3-8-4-9-5/h2-3,5H,1,4H2	InChI=1S/C5H7NO3/c7-2-5-1-6-3-8-4-9-5/h2-3,5H,1,4H2/t5-/m1/s1
