14
gdb 18209	4.34273	1.79486	1.46672	6.0206	61.66	-0.2647	0.0181	0.2828	833.6846	0.109055	-378.6996	-378.693053	-378.692108	-378.730544	24.341	
N	 0.1246370028	-1.1686519191	-0.0921019872	-0.320227
C	 0.0724787087	-0.0164204696	-0.0404254027	 0.289769
C	 0.0191406261	 1.4525963993	-0.0508672848	-0.000251
O	-0.6357445684	 1.9021332676	 1.1288489163	-0.262995
C	-0.0682306214	 3.142127441	 1.5600254151	-0.076599
C	 1.3227336168	 3.1894453663	 0.9666542112	-0.05617
N	 2.0811667227	 1.9533571649	 1.230687485	-0.313422
C	 1.3886392542	 2.1202878982	-0.0541264525	-0.078227
H	-0.5315905881	 1.7638729047	-0.9533678338	 0.119029
H	-0.6618635427	 3.9941792619	 1.1966318461	 0.10312
H	-0.0799446064	 3.1375966439	 2.6536847223	 0.130197
H	 1.8345001332	 4.1379128773	 0.846595733	 0.107566
H	 3.0758224623	 2.1213473949	 1.1022000667	 0.243768
H	 1.9380428003	 2.2066415186	-0.9841416947	 0.114442
99.0701	155.6181	247.3474	338.7592	402.2899	515.1445	550.5832	675.9666	770.1962	815.3701	861.3334	878.9678	902.9661	977.1848	983.6415	1015.7956	1048.1042	1080.6113	1103.2545	1157.2247	1158.3548	1229.3668	1248.4046	1304.3734	1346.9067	1361.751	1387.6355	1432.8288	1507.5847	2369.1973	2977.0928	2999.1897	3089.7315	3176.2347	3189.5927	3511.7748
N#CC1OCC2NC12	N#C[C@H]1OC[C@H]2N[C@@H]12	
InChI=1S/C5H6N2O/c6-1-4-5-3(7-5)2-8-4/h3-5,7H,2H2	InChI=1S/C5H6N2O/c6-1-4-5-3(7-5)2-8-4/h3-5,7H,2H2/t3-,4-,5-/m1/s1
