19
gdb 71786	3.03333	1.92612	1.78187	1.4905	77.24	-0.2347	0.0663	0.301	881.5925	0.160844	-385.824986	-385.818428	-385.817484	-385.855384	28.224	
C	 0.0407018385	 1.4937064952	-0.0571553889	-0.506432
C	-0.0841697733	 0.0005537871	 0.0164020601	 0.453758
O	 0.4576951855	-0.6873613709	-1.1437074234	-0.322886
C	-0.4825571695	-1.7557639911	-0.9041459259	 0.087941
C	-0.0718952189	-2.5951860766	 0.3737663762	-0.071046
C	 1.209045696	-1.9914285579	 0.9907288943	-0.230577
C	 0.3560167607	-0.7535562837	 1.3454133468	-0.109038
C	-0.9495939388	-1.6234903889	 1.2443947194	-0.054555
C	-1.3918020492	-0.8512908343	-0.0306855162	-0.146873
H	 1.0967926529	 1.7870161845	-0.0462442829	 0.129241
H	-0.414563356	 1.8783578623	-0.9744744837	 0.125645
H	-0.4504545574	 1.9615820108	 0.8022041708	 0.120279
H	-0.7630840743	-2.2853619865	-1.8153850409	 0.074522
H	-0.2184608637	-3.6741496981	 0.3191328056	 0.061893
H	 1.505452821	-2.5359050182	 1.8918556755	 0.093841
H	 2.0718578414	-1.8468382621	 0.3361967214	 0.106661
H	 0.610707775	-0.1205139452	 2.1965860045	 0.058756
H	-1.5725252743	-1.9207044515	 2.0847014513	 0.062405
H	-2.3784898957	-0.479158225	-0.3031174242	 0.066465
204.9206	229.7356	278.9875	383.0789	461.337	537.5738	566.5788	690.5023	703.6187	763.1647	791.7107	831.1029	842.3339	850.5202	856.1491	888.364	910.1179	954.1735	957.6667	975.7201	991.4716	1040.5653	1064.6246	1097.6597	1128.7688	1142.5181	1148.6796	1161.9424	1184.3735	1194.6574	1211.0535	1250.0744	1264.8626	1271.5131	1288.6807	1310.8143	1352.358	1409.645	1470.5591	1477.152	1488.5491	3030.5631	3055.4303	3095.3664	3097.3198	3099.8593	3107.8169	3112.9843	3114.3296	3119.4555	3141.2459
CC12OC3C4CC1C4C23	C[C@@]12O[C@H]3[C@H]4C[C@@H]1[C@H]4[C@@H]23	
InChI=1S/C8H10O/c1-8-4-2-3-5(4)6(8)7(3)9-8/h3-7H,2H2,1H3	InChI=1S/C8H10O/c1-8-4-2-3-5(4)6(8)7(3)9-8/h3-7H,2H2,1H3/t3-,4+,5-,6+,7-,8+/m0/s1
