17
gdb 67695	2.29435	1.84623	1.44605	2.474	71.92	-0.2326	0.0006	0.2332	963.1772	0.136982	-421.824842	-421.817514	-421.81657	-421.856427	29.241	
O	-0.0447478059	 1.3868547205	 0.0385874302	-0.453754
C	 0.0215189855	 0.0209682969	-0.0345342682	 0.391695
C	-1.1399026625	-0.8722441111	-0.1507178319	-0.079393
C	-1.0086524326	-1.8371488906	-1.3311054299	-0.243031
C	 0.4424689526	-1.6110852273	-1.8423494708	-0.221383
C	 1.1280340185	-0.8688868374	-0.6805441844	-0.247174
C	 1.0726907766	-1.6936863331	 0.6351898868	 0.439371
O	 1.8700835336	-2.416215157	 1.1707476631	-0.342487
C	-0.2028603068	-1.068995391	 1.0739795818	-0.29141
H	 0.7511316003	 1.7149763062	 0.472775846	 0.295597
H	-2.1129621764	-0.4875716727	 0.1359418978	 0.104856
H	-1.1752092374	-2.8719618767	-1.0160761061	 0.115277
H	-1.7487947133	-1.6090778817	-2.103645645	 0.108859
H	 0.9536487598	-2.5455514265	-2.0887956073	 0.117744
H	 0.4461902382	-0.9836750864	-2.7398121249	 0.109383
H	 2.0974313155	-0.4205359856	-0.9012090232	 0.087114
H	-0.5962214058	-0.9943277568	 2.0808633661	 0.108736
112.0265	194.4493	234.3559	300.3657	353.6911	421.9163	473.0386	529.3296	599.0967	657.1114	700.0297	740.1511	789.9349	833.8521	851.7853	867.5714	913.1734	966.4843	987.7021	1017.269	1036.4593	1064.2375	1102.6793	1135.0664	1153.6161	1175.1599	1216.6159	1238.8308	1261.6893	1286.899	1314.9776	1323.9326	1349.9688	1483.9348	1497.3734	1504.5542	1866.3143	3046.207	3054.2138	3087.4275	3105.0679	3116.9465	3176.3857	3193.3022	3792.925
OC12C3CCC1C(=O)C23	O[C@@]12[C@H]3CC[C@@H]1C(=O)[C@@H]23	
InChI=1S/C7H8O2/c8-6-4-2-1-3-5(6)7(3,4)9/h3-5,9H,1-2H2	InChI=1S/C7H8O2/c8-6-4-2-1-3-5(6)7(3,4)9/h3-5,9H,1-2H2/t3-,4+,5-,7-/m0/s1
