18
gdb 88402	2.16791	1.32437	0.95397	1.6673	78.47	-0.2445	-0.0316	0.213	1268.8307	0.144441	-401.891026	-401.881245	-401.8803	-401.926563	34.877	
C	-0.1980211867	 1.4579372611	-0.261326053	-0.407918
C	-0.1461556878	 0.0093433152	 0.1622791063	-0.010999
N	 1.1130022291	-0.7232139258	-0.0551252119	-0.327939
C	 0.6372392945	-0.5116212767	 1.3147901615	-0.012404
C	 1.4846133386	 0.3334573084	 2.2660529236	-0.288679
C	 2.1089696935	-0.5403359087	 3.3763089451	 0.16015
O	 1.7714954138	-1.6654132677	 3.6233733263	-0.237896
C	 2.5431380817	 1.1377760919	 1.6676671224	 0.327827
C	 3.4692790783	 1.7860818403	 1.2602233639	-0.450065
H	 0.7486232313	 1.9628903119	-0.0630633786	 0.143061
H	-0.4035770573	 1.5324046745	-1.3345242935	 0.120598
H	-0.9981328502	 1.9867031163	 0.2689402035	 0.112155
H	-1.066755352	-0.5407905879	-0.035032755	 0.083825
H	 0.9407815544	-1.6802920036	-0.3489831838	 0.234276
H	 0.2161972867	-1.3657539997	 1.8384241472	 0.10976
H	 0.8105536093	 1.0125538677	 2.8180711744	 0.137895
H	 2.9014934935	-0.0227883834	 3.9565174519	 0.103622
H	 4.2713720293	 2.3586554162	 0.8642539398	 0.202732
37.6181	75.8189	134.5954	154.776	186.4301	209.7983	226.5389	327.5512	397.258	459.6876	508.3832	613.9602	624.7717	641.7353	664.2681	730.9432	789.6551	871.3568	915.2938	972.5077	1005.2662	1024.6031	1039.3893	1069.7439	1101.1145	1155.1401	1201.3169	1243.4781	1252.8678	1273.6143	1310.0275	1396.3011	1414.4097	1426.4349	1467.797	1495.3563	1503.5784	1836.052	2236.7973	2915.9516	2958.3566	3035.568	3093.097	3096.1572	3143.9487	3148.3525	3503.1154	3511.3803
CC1NC1C(C=O)C#C	C[C@H]1N[C@H]1[C@@H](C=O)C#C	
InChI=1S/C7H9NO/c1-3-6(4-9)7-5(2)8-7/h1,4-8H,2H3	InChI=1S/C7H9NO/c1-3-6(4-9)7-5(2)8-7/h1,4-8H,2H3/t5-,6-,7-/m1/s1
