18
gdb 9621	4.44163	1.1082	1.05939	3.1474	70.27	-0.245	-0.0173	0.2277	1152.696	0.151405	-384.935471	-384.926417	-384.925472	-384.969111	32.502	
C	-0.0865905612	 1.6137592544	-0.0234654623	-0.471702
C	-0.0397900928	 0.0964541459	 0.0089778149	 0.3422
C	-1.3045387344	-0.5656928313	-0.500667845	-0.13509
O	-1.4704566284	-0.2077085218	-1.865814273	-0.419785
C	 1.2484470427	-0.6137706003	-0.2416768481	-0.322601
C	 0.6435343938	-0.6519903538	 1.1598761562	-0.152739
C	 1.3187759907	 0.0660083914	 2.2623229521	 0.158874
O	 1.3016102044	-0.2918814041	 3.4154041641	-0.271395
H	 0.8773158247	 2.0664134523	 0.2191186974	 0.118025
H	-0.370588619	 1.9389244818	-1.0276951708	 0.144125
H	-0.8300913005	 2.0034574159	 0.6811942238	 0.120453
H	-1.2248662125	-1.6578221218	-0.384608449	 0.087485
H	-2.1617113258	-0.2295231985	 0.1039451971	 0.094286
H	-2.3546403004	-0.4674698298	-2.1401611862	 0.29078
H	 1.2434762616	-1.5413213982	-0.8028917499	 0.128485
H	 2.1422938072	-0.0123796878	-0.3752485857	 0.121575
H	 0.1800617562	-1.5798390313	 1.4802466426	 0.100743
H	 1.8786839234	 0.9793870969	 1.9580834217	 0.066281
77.1339	116.8542	139.342	199.6735	231.8029	269.4493	282.2473	354.356	369.0587	387.1896	459.3789	572.7604	709.6867	847.7926	868.8797	937.7083	951.9034	968.5828	1032.5101	1049.5967	1069.1491	1080.4416	1094.1663	1115.1267	1190.1809	1233.0986	1248.5565	1262.3924	1346.1072	1385.8009	1413.5091	1450.2695	1461.6549	1485.692	1489.5603	1512.5116	1518.0664	1812.8603	2870.677	2968.5861	3001.7896	3038.7934	3106.6371	3128.0599	3131.7446	3164.9678	3219.2117	3833.7538
CC1(CO)CC1C=O	C[C@@]1(CO)C[C@H]1C=O	
InChI=1S/C6H10O2/c1-6(4-8)2-5(6)3-7/h3,5,8H,2,4H2,1H3	InChI=1S/C6H10O2/c1-6(4-8)2-5(6)3-7/h3,5,8H,2,4H2,1H3/t5-,6-/m0/s1
