18
gdb 40787	3.86085	1.19668	1.01606	0.6637	71.91	-0.2479	0.0802	0.3281	1180.6265	0.148849	-439.032884	-439.025231	-439.024286	-439.06567	28.997	
C	 0.1588987968	 1.5271370921	 0.0391031409	-0.23708
N	 1.1675284959	 0.4802859028	-0.2029604406	-0.326981
C	-0.2316192571	 0.0988500201	 0.0513686916	-0.020219
C	-0.4626275928	-0.6474948444	 1.3406367834	 0.121058
O	-1.8376642923	-0.5030571139	 1.7104200346	-0.278393
C	-2.317091927	-1.6946955464	 2.3225623639	-0.106877
C	-1.3978276995	-2.7971387993	 1.8466899669	 0.027556
O	-1.2175171414	-2.7964677704	 0.4260015346	-0.254453
C	-0.2358825218	-2.1448994137	 1.2449366551	-0.003585
H	 0.2755338745	 2.0624364286	 0.977604183	 0.120634
H	-0.1730875803	 2.140275836	-0.794059853	 0.114447
H	 1.3692841156	 0.4124039889	-1.196390664	 0.235431
H	-0.8293193566	-0.2709067237	-0.7778072705	 0.101157
H	 0.2048699595	-0.2396734498	 2.11712035	 0.076456
H	-2.276528852	-1.63285247	 3.4223861335	 0.096037
H	-3.3604658545	-1.8329220594	 2.0197010094	 0.11918
H	-1.367658403	-3.764044274	 2.3410759431	 0.103863
H	 0.7674540061	-2.5588815633	 1.2298216379	 0.111768
70.5744	104.8331	162.3544	269.8328	306.1528	382.5321	434.2023	514.9703	694.5509	784.9068	836.1899	849.2233	873.585	889.0817	898.521	927.7172	939.8128	971.2063	973.7854	1025.4485	1054.2784	1066.8176	1107.9146	1117.6651	1122.2037	1150.9095	1225.5653	1228.8857	1251.1151	1257.9817	1284.3319	1301.6788	1312.4771	1329.5588	1373.1646	1442.0844	1457.7581	1506.7286	1515.1995	2974.0207	2979.857	3069.8399	3110.1508	3148.6722	3156.2455	3173.8253	3195.4613	3513.2536
C1NC1C1OCC2OC12	C1N[C@H]1[C@H]1OC[C@H]2O[C@@H]12	
InChI=1S/C6H9NO2/c1-3(7-1)5-6-4(9-6)2-8-5/h3-7H,1-2H2	InChI=1S/C6H9NO2/c1-3(7-1)5-6-4(9-6)2-8-5/h3-7H,1-2H2/t3-,4-,5-,6-/m1/s1
