17
gdb 11798	3.46607	1.82811	1.37693	2.607	70.2	-0.2485	0.0286	0.2771	930.0859	0.141621	-363.851011	-363.843313	-363.842369	-363.882884	29.171	
C	-0.2144922927	 1.4727334348	-0.0135680948	-0.404367
C	-0.0361438885	-0.0402924315	-0.0198707568	-0.226571
C	 1.1625958346	-0.5851732914	-0.7786357838	 0.433898
N	 1.5581610513	-0.5202865903	-1.9661158324	-0.549939
O	 1.7252641623	-1.196444388	 0.3270959046	-0.278447
C	 0.6505038882	-0.7131539117	 1.171634344	 0.458594
C	 0.9160383166	-0.2451914282	 2.5580489543	-0.333116
C	 0.1318796348	-1.5294384017	 2.2991411783	-0.336864
H	 0.7056673986	 1.9773895358	 0.2943561776	 0.128605
H	-0.4745608154	 1.8227164162	-1.0161699677	 0.142612
H	-1.0156266675	 1.7705474356	 0.6705443255	 0.117698
H	-0.9634998811	-0.5419070391	-0.3131050255	 0.109973
H	 2.4427580151	-1.0150097903	-2.0929081965	 0.227237
H	 1.9290220107	-0.347571278	 2.9313713978	 0.132628
H	 0.3827340613	 0.6274608272	 2.9206610713	 0.123254
H	-0.937202134	-1.5341231886	 2.4855850588	 0.122371
H	 0.6338697857	-2.4685009308	 2.5047263452	 0.132431
91.7258	188.5256	201.0265	217.2961	256.2476	339.3201	459.784	512.9552	532.5878	655.2047	755.5815	770.4252	824.4117	866.8452	871.2958	886.8566	961.8367	970.2287	1009.5745	1050.1639	1074.7667	1075.9328	1097.3647	1139.1845	1181.2396	1184.9726	1232.1923	1305.7409	1346.0511	1391.9473	1412.6255	1450.2022	1493.2541	1495.7284	1505.8431	1829.173	3041.3957	3066.0448	3111.4242	3124.2673	3131.2955	3133.6639	3214.675	3227.9883	3475.5576
CC1C(=N)OC11CC1	C[C@H]1[C]([NH])OC21CC2	
InChI=1S/C6H9NO/c1-4-5(7)8-6(4)2-3-6/h4,7H,2-3H2,1H3	InChI=1S/C6H9NO/c1-4-5(7)8-6(4)2-3-6/h4,7H,2-3H2,1H3/t4-/m0/s1
