18
gdb 22968	2.03447	1.38753	0.94847	0.6638	83.89	-0.2366	-0.0306	0.2061	1271.2247	0.146195	-401.861458	-401.852338	-401.851394	-401.896046	33.912	
O	-1.7354421739	-1.5723129157	 2.0471311344	-0.383301
N	-0.7428540493	-1.4408650386	 1.0787917388	-0.187075
C	-1.1198799198	-0.716194114	 0.0806747564	 0.18846
C	-0.1436080549	-0.5428302082	-0.9487267236	 0.299635
C	 0.6322483321	-0.3573902468	-1.8507593198	-0.432301
C	-2.4594801455	-0.0547719084	-0.091379725	-0.074223
C	-2.5072271376	 1.472557169	-0.4094477415	-0.232501
C	-3.6829723519	 1.1944112361	-1.3827622462	-0.210222
C	-3.2513044865	-0.2954698506	-1.4147021508	-0.232555
H	-1.3018670706	-2.1274838009	 2.7042681707	 0.312845
H	 1.3335868204	-0.2078339333	-2.6342450075	 0.201909
H	-3.0796000924	-0.2854046571	 0.7732797426	 0.108492
H	-2.6776555506	 2.1471850489	 0.4324861965	 0.102622
H	-1.6081965105	 1.7911528211	-0.9436241097	 0.116199
H	-4.6533643702	 1.3259531443	-0.8958321373	 0.104002
H	-3.6934185272	 1.7374732678	-2.3301498077	 0.099201
H	-2.5729123889	-0.5010762459	-2.2469296111	 0.116207
H	-4.0285341329	-1.0625731376	-1.3925001791	 0.102606
36.4135	102.5228	164.7074	164.7523	237.8599	239.2622	360.7789	405.5303	471.645	553.2197	587.3123	605.1037	609.3726	664.0205	669.7552	732.023	793.6308	876.4757	927.2459	937.7283	948.6484	1006.1549	1021.442	1036.4072	1116.0933	1206.1924	1236.5696	1258.392	1264.4333	1273.184	1278.6533	1288.0862	1336.3023	1417.2532	1478.0374	1486.8219	1509.5694	1662.3888	2223.603	3059.9275	3061.8378	3066.5184	3102.7138	3117.4938	3120.3506	3138.1841	3501.598	3816.0478
ON=C(C#C)C1CCC1	ON=C(C#C)C1CCC1	
InChI=1S/C7H9NO/c1-2-7(8-9)6-4-3-5-6/h1,6,9H,3-5H2	InChI=1S/C7H9NO/c1-2-7(8-9)6-4-3-5-6/h1,6,9H,3-5H2
