23
gdb 112746	2.24674	1.30779	0.99988	1.532	86.21	-0.2377	0.0842	0.3219	1334.2316	0.204325	-388.272345	-388.262525	-388.261581	-388.307108	36.983	
C	 0.3635135855	 1.4604341614	 0.1703266294	-0.382777
C	 0.0460896317	-0.0319989744	 0.0354342486	-0.19048
C	 0.5142427948	-0.5986889473	-1.2943610045	 0.092953
O	 1.9548052578	-0.5119253783	-1.4580178976	-0.326138
C	 2.0731072627	-1.9276248871	-1.7532493138	 0.100139
C	 3.0815793967	-2.6240482265	-0.8611031413	-0.402747
C	 0.5780029269	-2.1142440261	-1.4871492492	 0.268046
C	-0.0998805235	-3.1879584872	-0.6897494341	-0.324013
C	-0.3948728611	-3.024430388	-2.1646644117	-0.331557
H	 1.4383649362	 1.6301060709	 0.0620574943	 0.137852
H	-0.1479283084	 2.0462877297	-0.6016245163	 0.112001
H	 0.0511665313	 1.8460251253	 1.1452956714	 0.108991
H	 0.5235659924	-0.5945590213	 0.8462094684	 0.097789
H	-1.0360888591	-0.1993523158	 0.1241033662	 0.090398
H	 0.0075171184	-0.0772399585	-2.1221126988	 0.066243
H	 2.3419369306	-2.0727654003	-2.8106111732	 0.070533
H	 2.8134486177	-2.5121741654	 0.1932183721	 0.12016
H	 3.1352406102	-3.6925216938	-1.0990019153	 0.111696
H	 4.0768705283	-2.1946850496	-1.013704744	 0.125924
H	 0.4904818299	-4.0433166068	-0.3772095146	 0.114448
H	-0.8655044936	-2.8950418891	 0.0213705761	 0.115677
H	-1.3604524177	-2.6190662106	-2.4518699317	 0.11267
H	-0.0055017478	-3.770579321	-2.8508692803	 0.112193
59.3935	97.6636	151.8097	199.4779	211.8699	216.0213	243.2003	283.8194	364.3856	451.8711	456.7188	510.3107	571.9338	752.8777	771.5218	802.1915	843.7408	888.501	916.7141	934.7061	953.6274	960.1636	990.8242	1050.0628	1056.3812	1079.8947	1081.9791	1105.9463	1116.9406	1127.9053	1165.442	1189.1516	1240.0458	1272.6738	1288.1216	1299.5663	1340.2335	1377.1074	1390.2355	1402.0385	1407.761	1428.1085	1466.2261	1474.8366	1484.9423	1489.3294	1498.2704	1509.3117	1510.6248	2970.2036	2983.4688	3017.2161	3033.1534	3035.8425	3062.2465	3102.0144	3102.35	3118.1463	3118.8168	3119.8502	3128.034	3196.809	3213.8814
CCC1OC(C)C11CC1	CC[C@H]1O[C@@H](C)C21CC2	
InChI=1S/C8H14O/c1-3-7-8(4-5-8)6(2)9-7/h6-7H,3-5H2,1-2H3	InChI=1S/C8H14O/c1-3-7-8(4-5-8)6(2)9-7/h6-7H,3-5H2,1-2H3/t6-,7+/m0/s1
