22
gdb 123115	6.65484	0.48364	0.4573	0.4983	82.3	-0.2531	0.035	0.2881	2406.794	0.191638	-441.487277	-441.476007	-441.475063	-441.52545	38.091	
C	 0.0961232192	 1.3039879633	 0.051074072	-0.228531
O	 0.0251413125	-0.1004725348	 0.0733091946	-0.229874
C	-1.2983786107	-0.5835794177	 0.012942407	-0.051234
C	-1.2549566228	-2.1058287748	 0.0435224337	-0.218062
C	-2.6469194504	-2.7146444203	-0.0179664492	-0.050636
O	-2.4915447613	-4.1391126113	 0.0167763371	-0.239797
C	-3.6213478474	-4.8734721518	-0.0281410593	 0.395004
C	-3.2840677618	-6.3424964514	 0.0171160438	-0.460187
N	-4.7637658318	-4.3222318455	-0.0979921628	-0.521943
H	 1.1523266491	 1.5797899585	 0.1014451146	 0.126673
H	-0.3363693986	 1.7221581436	-0.8722098632	 0.102701
H	-0.4298601228	 1.7550577144	 0.9079551475	 0.102701
H	-1.8879252044	-0.1956777139	 0.8625495866	 0.086102
H	-1.7951843566	-0.2285974766	-0.9074079859	 0.086101
H	-0.65664373	-2.4645239609	-0.8006654793	 0.115212
H	-0.7486811202	-2.4318264575	 0.9582394633	 0.115211
H	-3.2718999389	-2.3996810614	 0.8253559403	 0.117506
H	-3.1798237557	-2.4325416046	-0.933084436	 0.117484
H	-2.7297458089	-6.5738489467	 0.9317730458	 0.146104
H	-4.1875909447	-6.9530710572	-0.0179642358	 0.125324
H	-2.6390511585	-6.6071380894	-0.8262917285	 0.146109
H	-5.4976051554	-5.0263556244	-0.1228758262	 0.218032
43.9726	60.663	83.3688	103.2653	105.3669	132.3418	183.4721	214.9103	238.4675	266.8262	368.1973	463.386	507.2716	574.5766	623.6867	775.0916	855.9534	887.7334	914.9064	966.6825	998.7961	1061.2762	1067.6522	1076.2932	1101.497	1126.3616	1167.5409	1169.153	1192.7663	1228.0207	1238.5096	1296.0025	1297.5345	1306.1729	1366.5674	1400.7271	1427.7031	1442.9331	1471.4102	1482.5872	1482.7801	1485.5932	1497.7914	1505.0402	1519.5152	1535.7078	1725.9798	2940.9532	2965.7895	2967.7348	3008.9062	3036.4922	3048.8454	3051.504	3070.4247	3101.1502	3111.9196	3113.0241	3144.5184	3516.2227
COCCCOC(C)=N	COCCCO[C](C)[NH]	
InChI=1S/C6H13NO2/c1-6(7)9-5-3-4-8-2/h7H,3-5H2,1-2H3	InChI=1S/C6H13NO2/c1-6(7)9-5-3-4-8-2/h7H,3-5H2,1-2H3
