25
gdb 121839	3.95775	0.63738	0.62745	2.2489	85.97	-0.2537	0.0621	0.3158	1943.7389	0.225978	-426.636237	-426.624456	-426.623512	-426.673355	42.984	
C	 0.0274637849	 1.5655687591	 0.1949104326	-0.380542
C	 0.0142560917	 0.040932548	 0.0546197026	-0.163586
C	 0.664472386	-0.4478717761	-1.2443493677	-0.172181
C	 0.6407602289	-1.9747581578	-1.3804298636	-0.203361
C	 1.4025593329	-2.5276191573	-2.5945445037	 0.360022
C	 0.8427392613	-2.0141414717	-3.932418649	-0.42532
O	 2.7641775699	-2.1239066305	-2.4473099878	-0.477427
C	 1.3613472692	-4.0639924451	-2.5636764691	-0.11147
O	 2.2437143633	-4.5272557613	-3.5853246238	-0.436162
H	 1.051830293	 1.9541482981	 0.1809942145	 0.114907
H	-0.5166541314	 2.0433915133	-0.6275274551	 0.11152
H	-0.4380014947	 1.886259867	 1.1323730618	 0.107846
H	 0.5326996351	-0.4100195726	 0.9113292247	 0.093283
H	-1.0214732309	-0.3222502642	 0.1037697274	 0.088788
H	 0.1486589836	 0.0134458217	-2.0958548273	 0.090534
H	 1.7045610559	-0.105919795	-1.2890572744	 0.117352
H	 1.0880152966	-2.4153370203	-0.4802273132	 0.093414
H	-0.3982148916	-2.328030573	-1.4240492668	 0.085704
H	 1.009756573	-0.9392198939	-4.0262975673	 0.122464
H	 1.3447699856	-2.5147183885	-4.7644527396	 0.124799
H	-0.2320168076	-2.2098181342	-4.0163854601	 0.103372
H	 3.2687727306	-2.6968043206	-3.0386311329	 0.281735
H	 1.6965537777	-4.4091073541	-1.5760292499	 0.092022
H	 0.3364470676	-4.4266544264	-2.7325068116	 0.088329
H	 2.4292675592	-5.4574596645	-3.4336422206	 0.293958
57.6632	73.3107	105.8739	135.6392	149.6424	225.3296	232.4034	244.1161	251.5758	287.8632	329.7189	340.6566	388.0637	437.1424	448.9461	480.1089	625.7561	738.0888	771.9351	793.9837	898.9327	909.8731	919.2327	962.3084	972.391	1019.8128	1055.3158	1075.9175	1079.7534	1114.0365	1146.895	1183.1662	1207.7726	1242.0285	1248.9172	1286.611	1297.7763	1328.2413	1348.3767	1363.2082	1391.9862	1399.5248	1410.6127	1420.6769	1443.5817	1471.8762	1487.1039	1492.7535	1499.96	1500.0571	1502.789	1510.3902	1513.7461	2986.1959	3007.9171	3013.4953	3026.8298	3029.7092	3031.3794	3038.2824	3040.1058	3051.6606	3081.5296	3096.2399	3099.4262	3111.4179	3132.5802	3773.9578	3848.7758
CCCCC(C)(O)CO	CCCC[C@@](C)(O)CO	
InChI=1S/C7H16O2/c1-3-4-5-7(2,9)6-8/h8-9H,3-6H2,1-2H3	InChI=1S/C7H16O2/c1-3-4-5-7(2,9)6-8/h8-9H,3-6H2,1-2H3/t7-/m1/s1
