16
gdb 71338	3.48587	1.32573	1.08768	3.8985	70.19	-0.2474	-0.0277	0.2198	1083.8028	0.12316	-437.787987	-437.780386	-437.779442	-437.820258	29.023	
O	-0.0285313792	 1.3887555973	 0.1640485053	-0.459653
C	 0.0746963233	 0.012061146	 0.0969736654	 0.332475
C	 0.8302020579	-0.9762544486	 0.9804466642	-0.242987
N	 0.0873335694	-1.9128868603	 0.0335537961	-0.148465
C	-1.1330793678	-0.9581982862	 0.0302645679	-0.057838
C	-1.2032465618	-1.00255361	-1.5124457551	-0.105559
C	-1.8184904244	 0.1579716103	-2.244297689	 0.129442
O	-2.5636633537	 0.029142775	-3.1845170633	-0.256887
C	 0.2948986393	-0.9341684239	-1.1412102113	-0.095142
H	 0.8510553141	 1.773836821	 0.0764170048	 0.289415
H	 1.9190755186	-1.0380416168	 0.8848042651	 0.105109
H	 0.5206801882	-1.0764789583	 2.0251067744	 0.113824
H	-1.9342011473	-1.0818652525	 0.7599249147	 0.099517
H	-1.5339215649	-1.954043882	-1.9353582435	 0.105778
H	-1.5389604553	 1.1614749779	-1.8610337375	 0.097247
H	 1.1685808736	-1.023238719	-1.7888619284	 0.093724
80.8419	148.3653	227.1473	265.2865	338.6512	385.7166	430.6423	444.3334	509.1278	644.6344	735.0743	821.073	852.696	869.9631	898.6773	911.9622	943.4603	1018.9097	1028.4416	1066.3571	1090.5099	1106.8304	1113.5264	1127.0837	1163.0162	1177.6087	1216.9591	1241.7395	1250.7153	1295.7212	1316.7316	1372.5285	1439.3887	1514.4322	1819.912	2923.8342	3043.0818	3097.247	3106.2139	3107.6298	3116.2473	3798.8069
OC12CN3C1C(C=O)C23	O[C@@]12CN3[C@@H]1[C@@H](C=O)[C@@H]23	
InChI=1S/C6H7NO2/c8-1-3-4-6(9)2-7(4)5(3)6/h1,3-5,9H,2H2	InChI=1S/C6H7NO2/c8-1-3-4-6(9)2-7(4)5(3)6/h1,3-5,9H,2H2/t3-,4-,5+,6+
