16
gdb 42425	4.47947	0.78525	0.74059	3.0423	74.62	-0.258	-0.0345	0.2236	1507.0552	0.122935	-437.847953	-437.838956	-437.838012	-437.883169	31.542	
O	-0.0400762159	-0.1083107488	 0.3781326485	-0.356208
C	-0.0554018628	 1.0779957772	 0.1096388008	 0.295527
N	 1.0607531501	 1.8156795181	-0.1839832807	-0.332392
C	 2.3830423388	 1.2565006673	-0.2053496011	-0.004485
C	 3.2823556001	 1.5227545314	-1.4367172884	-0.092116
O	 4.3557281507	 1.980586043	-0.5923177932	-0.266163
C	 3.5084320984	 1.9806174975	 0.5725128461	-0.092123
C	-1.2854093118	 1.8586777293	 0.0702292499	 0.203875
C	-2.3159437491	 2.4773073492	 0.0453062688	-0.393395
H	 0.9359036156	 2.7945507823	-0.3928457629	 0.256221
H	 2.2840740833	 0.2018737129	 0.0461086542	 0.140041
H	 3.5678951599	 0.6569344614	-2.0433820454	 0.118862
H	 2.90445994	 2.316981265	-2.0971940621	 0.095371
H	 3.2408804938	 2.998321401	 0.8927143576	 0.095367
H	 3.9571249083	 1.4452315737	 1.4158730403	 0.118863
H	-3.2348612395	 3.0112780095	 0.0271920476	 0.212754
43.8384	70.9818	79.992	140.2473	236.3453	258.233	362.2038	397.2107	496.0045	504.1136	602.3315	661.9158	680.0416	761.9364	766.848	883.1272	890.9775	926.2292	1003.6409	1022.9084	1035.6946	1123.1501	1151.5385	1157.5174	1188.0702	1245.9255	1274.2734	1299.4988	1345.8923	1390.0211	1507.3824	1533.5667	1538.3016	1761.7682	2227.5381	2990.5165	3001.4967	3069.1484	3070.1186	3143.9173	3494.6968	3623.0767
O=C(NC1COC1)C#C	O=C(NC1COC1)C#C	
InChI=1S/C6H7NO2/c1-2-6(8)7-5-3-9-4-5/h1,5H,3-4H2,(H,7,8)	InChI=1S/C6H7NO2/c1-2-6(8)7-5-3-9-4-5/h1,5H,3-4H2,(H,7,8)
