16
gdb 50287	3.20468	1.20523	1.0047	2.1147	72.82	-0.2515	-0.0481	0.2034	1163.7208	0.123263	-437.878796	-437.870645	-437.869701	-437.912002	29.521	
O	 0.1750713792	-0.1027637968	-0.3003218631	-0.310377
C	 0.0947172375	 1.0896400943	-0.1114390954	 0.121424
N	 1.1376089093	 1.8807122665	 0.2762427268	-0.103911
C	 2.5756444283	 1.5803127058	 0.1317069778	-0.187058
C	 2.8354600105	 3.0752539392	-0.1176185197	-0.111348
C	 2.0037926649	 3.6053028361	-1.2365465759	-0.313264
C	 1.3100064685	 3.3129339238	 0.0749146889	 0.224106
C	 0.6803304644	 4.3351292506	 0.9306715576	 0.083725
O	 0.830960352	 5.5239505488	 0.7782356439	-0.265784
H	-0.8492904084	 1.6674327214	-0.1928471734	 0.077416
H	 3.0144813239	 1.2036980533	 1.0591457081	 0.135808
H	 2.8043144651	 0.8941042287	-0.6890128454	 0.139434
H	 3.6173665735	 3.6562275507	 0.3508554253	 0.131229
H	 2.1193813515	 4.6649051475	-1.4373947733	 0.158069
H	 1.7664601179	 2.9816611338	-2.0937860522	 0.132394
H	 0.0636139721	 3.9170099263	 1.75591932	 0.088136
79.6357	106.9285	181.678	204.8664	234.7509	310.2359	392.7268	406.0159	471.1168	614.5505	714.8752	775.7851	790.7224	856.7873	915.1906	933.6737	988.7442	1029.4424	1037.5383	1059.8663	1072.7404	1083.463	1131.8693	1168.0894	1222.9317	1276.9102	1316.289	1361.2582	1370.2714	1413.6865	1435.5937	1468.0514	1509.8932	1800.7995	1802.9787	2897.7909	2923.8611	3058.6577	3110.8863	3124.096	3221.4199	3229.4426
O=CN1CC2CC12C=O	O=CN1C[C@H]2C[C@@]12C=O	
InChI=1S/C6H7NO2/c8-3-6-1-5(6)2-7(6)4-9/h3-5H,1-2H2	InChI=1S/C6H7NO2/c8-3-6-1-5(6)2-7(6)4-9/h3-5H,1-2H2/t5-,6+/m1/s1
