20
gdb 30196	2.50219	1.66032	1.06178	2.1771	88.08	-0.1857	0.0531	0.2388	1172.2355	0.171747	-366.031184	-366.022503	-366.021559	-366.064691	32.744	
C	-0.2412047878	 1.6083884331	-0.5257982149	-0.400299
C	 0.0455088824	 0.1888266087	-0.0694698216	 0.054106
C	 1.1151098037	-0.6485405699	-0.880041352	-0.402934
C	 1.8744766698	-0.7152875974	 0.4328988532	 0.326854
C	 2.8026967399	-1.1726224396	 1.3368985411	-0.334477
C	 2.3871557788	-0.6232681525	 2.5950320796	-0.203041
C	 1.2251447981	 0.120736117	 2.4332551114	 0.228276
C	 0.4028132648	 0.8835207636	 3.417518362	-0.495645
N	 0.9606858775	 0.0565548467	 1.087839555	-0.031336
H	 0.6900564622	 2.15880257	-0.69007919	 0.129723
H	-0.8084817285	 1.5953051257	-1.4623694265	 0.123633
H	-0.8341148508	 2.1497198678	 0.2185194456	 0.125932
H	-0.8873692359	-0.3648736393	 0.086140166	 0.095301
H	 0.7429097441	-1.59826236	-1.2743332413	 0.118242
H	 1.5924348191	-0.091424838	-1.6923046942	 0.114101
H	 3.660615713	-1.8019565841	 1.1603132934	 0.090285
H	 2.9057326716	-0.7432968995	 3.5360253336	 0.084513
H	 0.3815655084	 1.9590032908	 3.2004775104	 0.123543
H	-0.6388798594	 0.5387021852	 3.4443114704	 0.120358
H	 0.815852859	 0.7578629019	 4.4213845786	 0.132864
63.538	129.4907	140.0817	197.876	249.0233	270.2673	330.0253	418.3485	520.0066	612.9518	630.72	652.0528	700.735	752.3213	753.1741	796.2675	842.3419	915.5898	989.2006	1008.8092	1039.7252	1057.6197	1063.9705	1067.995	1098.1462	1161.6073	1180.0449	1225.8729	1233.0442	1257.005	1301.4765	1367.3615	1400.1827	1408.7697	1417.824	1435.7099	1480.5465	1486.6661	1489.3109	1496.6326	1502.5807	1536.4332	1595.0672	3013.1248	3034.9942	3041.0301	3049.3832	3054.6899	3095.2305	3105.639	3115.6785	3117.4947	3227.8039	3256.7268
CC1CC2=CC=C(C)N12	C[C@H]1Cc2ccc(C)n12	
InChI=1S/C8H11N/c1-6-3-4-8-5-7(2)9(6)8/h3-4,7H,5H2,1-2H3	InChI=1S/C8H11N/c1-6-3-4-8-5-7(2)9(6)8/h3-4,7H,5H2,1-2H3/t7-/m0/s1
