19
gdb 120106	3.97619	0.91759	0.84218	2.8275	74.41	-0.2306	0.0525	0.2831	1394.2187	0.158204	-422.926511	-422.918031	-422.917087	-422.960796	32.079	
O	 0.2033811637	 1.4328172519	-0.2753879409	-0.421643
C	 0.0431929074	 0.0255177402	-0.2273166768	-0.073431
C	-1.3450401529	-0.4008918778	 0.2602786389	-0.21555
C	-1.4831243559	-1.9237260029	 0.2453958433	-0.010891
C	-2.0594073195	-2.8442817959	 1.29513487	-0.131865
C	-3.4200889864	-2.3566771271	 1.8830344261	 0.0185
O	-3.7727594686	-1.0915013396	 1.3048208237	-0.238196
C	-4.0118044321	-2.289790568	 0.5532875496	 0.02096
C	-2.6826273156	-2.7726212244	-0.1040362355	-0.130404
H	 0.043771509	 1.7745893822	 0.6103263943	 0.279836
H	 0.2060137096	-0.324654009	-1.2534737049	 0.10844
H	 0.8204404483	-0.445712815	 0.3987331306	 0.082151
H	-1.5071567891	-0.0108447091	 1.270077702	 0.099485
H	-2.101084634	 0.068127329	-0.3745770576	 0.116555
H	-0.5964897289	-2.401874732	-0.1758340929	 0.092161
H	-1.4991879409	-3.6613073823	 1.7321460415	 0.09226
H	-3.8388116161	-2.6024083414	 2.8511986696	 0.109131
H	-5.0191523074	-2.4690904055	 0.1982507559	 0.109847
H	-2.6602014505	-3.5261204535	-0.8812244367	 0.092652
28.5629	104.3964	133.4477	237.3796	270.2546	304.8792	371.819	460.3261	505.5945	686.3017	724.1217	731.3469	750.6483	786.136	824.3021	865.1468	889.9222	934.4437	947.606	987.912	1003.2656	1027.3332	1037.4331	1047.0352	1072.8293	1084.4415	1104.2011	1178.6889	1195.1701	1234.0537	1244.2929	1277.2286	1283.2438	1311.986	1321.0334	1380.8809	1399.1402	1422.1824	1446.6086	1477.3757	1513.7841	2956.398	3048.7963	3059.2886	3089.0627	3101.9823	3181.206	3190.7752	3192.9847	3204.2385	3812.236
OCCC1C2C3OC3C12	OCC[C@H]1[C@H]2[C@H]3O[C@H]3[C@@H]12	
InChI=1S/C7H10O2/c8-2-1-3-4-5(3)7-6(4)9-7/h3-8H,1-2H2	InChI=1S/C7H10O2/c8-2-1-3-4-5(3)7-6(4)9-7/h3-8H,1-2H2/t3-,4+,5-,6+,7-
