15
gdb 49842	2.28054	1.57249	1.04853	5.1182	69.59	-0.2615	-0.0538	0.2077	1108.6874	0.111446	-453.967443	-453.959013	-453.958068	-454.001313	29.419	
N	-0.0741692592	 1.1889958	 0.9194425903	-0.531327
C	-0.0819460773	 0.0978030532	 0.3002382243	 0.418986
C	-1.1754471313	-0.7107093237	-0.3956890593	-0.35712
C	-0.0428706895	-1.7413802234	-0.7482807158	-0.094776
C	 0.2297789381	-1.9315054788	-2.2242774034	 0.153285
O	 1.2190961772	-1.540260591	-2.7835330921	-0.228795
N	 0.896768013	-0.8693267362	-0.0402408519	-0.085336
C	 2.261945005	-0.8694320705	 0.1035277198	 0.147488
O	 2.8652791241	 0.007318881	 0.6783681299	-0.301403
H	 0.8689381162	 1.4148055671	 1.239969148	 0.255491
H	-1.96060699	-1.0896968767	 0.2588793619	 0.149307
H	-1.6241192078	-0.2086415911	-1.2551753516	 0.149704
H	-0.1863857024	-2.7246048326	-0.2822841144	 0.123125
H	-0.5763756595	-2.4770902858	-2.7634804262	 0.097784
H	 2.7398058433	-1.7539305214	-0.3525826395	 0.103587
71.7261	87.6883	135.235	172.283	237.5839	256.3723	326.0625	458.8249	504.937	523.1831	688.1962	712.1012	810.1401	893.5388	913.5007	925.5221	985.0684	1002.497	1020.4037	1056.6584	1135.2669	1174.3747	1217.8912	1234.8397	1268.8304	1344.5114	1385.518	1413.2042	1431.6346	1468.5566	1762.6804	1826.885	1838.4154	2890.9703	2985.9042	3032.9142	3088.9812	3148.8086	3487.3711
N=C1CC(C=O)N1C=O	[NH][C]1C[C@@H](C=O)N1C=O	
InChI=1S/C5H6N2O2/c6-5-1-4(2-8)7(5)3-9/h2-4,6H,1H2	InChI=1S/C5H6N2O2/c6-5-1-4(2-8)7(5)3-9/h2-4,6H,1H2/t4-/m0/s1
