19
gdb 24155	3.69487	1.08021	1.04324	3.2679	81.74	-0.2085	0.038	0.2465	1225.8613	0.161653	-382.068014	-382.059945	-382.059001	-382.101225	31.015	
C	-0.2525204332	 1.7034737791	-0.6410829026	-0.259154
N	-0.8503762355	 0.3920443447	-0.3175609414	-0.072346
C	-0.0001025753	-0.7879954789	-0.2386044081	-0.221157
C	-0.6046283013	-0.1984870813	 0.9895936322	-0.218884
C	 1.1402223868	 2.0037171208	-0.1577072489	 0.246867
C	 1.4820877973	 2.6463819856	 1.0155511454	-0.170709
N	 2.848941639	 2.7233255958	 1.081373621	-0.231503
C	 3.4008268141	 2.141231291	-0.0314596766	-0.078901
C	 2.3688564371	 1.6874393443	-0.8171190065	-0.235074
H	-0.2822920892	 1.7879550131	-1.7334477025	 0.106167
H	-0.9463908324	 2.4555275291	-0.2483928743	 0.103345
H	-0.4119182192	-1.6903770331	-0.6833805439	 0.106248
H	 1.0744452401	-0.6652295037	-0.3544815431	 0.115836
H	 0.0789572184	 0.309627498	 1.6672263075	 0.106787
H	-1.4666902698	-0.6603923377	 1.4641661326	 0.105944
H	 0.8618110073	 3.0663263606	 1.7919066136	 0.11908
H	 3.3683630286	 3.1527333117	 1.8265826377	 0.262319
H	 4.4695567491	 2.1082056324	-0.1695972938	 0.119439
H	 2.4700848781	 1.1923821984	-1.7715530283	 0.095695
58.7332	110.7452	117.3979	291.5505	299.9891	364.004	448.4513	488.2568	634.0561	642.7813	693.0252	736.1891	748.8331	796.996	832.0591	842.9698	877.2375	904.5954	960.4067	977.8569	1023.2437	1050.4561	1082.3213	1095.0628	1114.7226	1123.7149	1162.5626	1172.0528	1184.0513	1251.1277	1291.0974	1312.0033	1315.1013	1372.7395	1416.63	1462.7081	1480.5444	1484.4886	1514.4912	1520.5403	1597.5224	3030.3249	3069.263	3094.1604	3100.0555	3173.7108	3188.4547	3239.5486	3255.5727	3269.1385	3684.0233
C(N1CC1)C1=CNC=C1	C(N1CC1)c1c[nH]cc1	
InChI=1S/C7H10N2/c1-2-8-5-7(1)6-9-3-4-9/h1-2,5,8H,3-4,6H2	InChI=1S/C7H10N2/c1-2-8-5-7(1)6-9-3-4-9/h1-2,5,8H,3-4,6H2
