20
gdb 101056	2.1744	1.30554	0.94114	3.8209	79.56	-0.2961	0.0063	0.3024	1315.3537	0.168823	-403.145213	-403.135238	-403.134293	-403.180501	36.121	
C	 0.1892908876	 1.4683280032	-0.1769892637	-0.397915
C	-0.0191828833	-0.0402220806	-0.33737475	-0.178296
C	-1.4240267696	-0.5370164509	 0.0736180793	-0.054413
C	-2.5293460773	-0.0023197175	-0.8443760092	-0.429027
C	-1.413469862	-2.0667032436	 0.1310628299	 0.247772
C	-2.5144072067	-2.9401502971	-0.3299109744	-0.216584
O	-1.3388956755	-2.7672200402	-1.1172396273	-0.254287
C	-0.5489815838	-2.620263963	 1.1676477353	 0.275319
N	 0.1254086643	-3.031551447	 2.0114434926	-0.339033
H	 1.2224859296	 1.7379798448	-0.4148771614	 0.121787
H	-0.4588569228	 2.0510222299	-0.8383078094	 0.120373
H	-0.0075124636	 1.7881293433	 0.852413282	 0.119046
H	 0.1659868564	-0.3387681617	-1.3764101411	 0.114401
H	 0.7286109975	-0.5631038762	 0.2700235782	 0.122923
H	-1.6189327234	-0.1928376722	 1.0987222505	 0.094424
H	-2.4616497001	 1.0842425048	-0.9290138578	 0.126956
H	-2.4370475944	-0.4258172137	-1.849426763	 0.138756
H	-3.5261182605	-0.2335182153	-0.4581187616	 0.118739
H	-2.6333154208	-3.9225051182	 0.1227410656	 0.138052
H	-3.4179676516	-2.4888839889	-0.7298245944	 0.131007
53.6272	68.5347	140.3241	183.5087	225.9625	230.4863	252.1676	292.6763	330.805	384.8138	408.8779	488.1302	577.7485	601.4675	698.6134	776.8999	828.7904	854.7132	901.1657	963.3768	975.3705	996.2115	1040.4492	1100.1622	1129.049	1133.6328	1175.7462	1178.6227	1213.2324	1287.9726	1330.1146	1358.4264	1365.8217	1385.7354	1410.3279	1415.7093	1485.7038	1494.1598	1502.5175	1506.7248	1510.5113	1526.1367	2355.4477	3015.5136	3032.8107	3036.9936	3045.9272	3068.8743	3103.9054	3104.6003	3110.4862	3114.2455	3129.121	3201.6187
CCC(C)C1(CO1)C#N	CC[C@@H](C)[C@]1(CO1)C#N	
InChI=1S/C7H11NO/c1-3-6(2)7(4-8)5-9-7/h6H,3,5H2,1-2H3	InChI=1S/C7H11NO/c1-3-6(2)7(4-8)5-9-7/h6H,3,5H2,1-2H3/t6-,7-/m1/s1
