19
gdb 79243	2.38662	1.63325	1.39912	1.6992	74.74	-0.2262	0.0626	0.2888	1032.9049	0.157791	-422.968023	-422.959312	-422.958368	-423.000727	33.991	
C	-0.0003589709	 1.614082357	-0.0266852112	-0.431986
C	 0.0826086054	 0.0930442576	 0.0112004788	-0.022436
C	 0.783128072	-0.6958898104	-1.0985071016	-0.132541
C	 2.2943012772	-0.8248757333	-0.7181743321	-0.155926
C	 2.483288057	-0.1235074019	 0.6257606072	-0.299538
C	 1.0621852728	-0.6502920795	 0.9803067619	 0.281027
O	 0.7049880201	-0.9714111365	 2.2814259404	-0.483461
C	 1.2472254027	-1.7569322544	-0.1582655592	 0.337978
O	 1.0276773492	-3.1059559066	-0.2045383481	-0.450028
H	 0.962457804	 2.0750426214	-0.2641915732	 0.119643
H	-0.7153225468	 1.9420929418	-0.7891744659	 0.118144
H	-0.3436897962	 2.0180286009	 0.9336572693	 0.104224
H	-0.9128410224	-0.3373279446	 0.1701466958	 0.081874
H	 0.4745994931	-0.824927842	-2.1280452226	 0.088249
H	 3.0310107237	-1.0217066504	-1.4858731606	 0.088555
H	 3.2377672233	-0.6282241982	 1.2361874925	 0.096625
H	 2.6541812414	 0.9580813649	 0.6469909369	 0.085679
H	 0.6366822839	-0.1567130968	 2.7920828769	 0.280921
H	 1.6824216106	-3.5413978992	 0.3535244848	 0.292997
148.0133	156.5054	185.8519	195.1647	225.277	307.5702	336.9017	385.2037	412.6904	529.2316	561.0803	596.2025	675.8766	693.6408	751.8573	818.7323	846.8569	911.1333	928.749	941.0564	979.5286	1007.3318	1049.6813	1068.0909	1090.7256	1105.0246	1126.3343	1153.2381	1194.453	1224.8239	1244.4409	1270.5044	1280.1012	1312.3357	1367.3555	1394.0279	1406.6558	1486.6482	1490.6437	1504.7894	1514.5143	3025.0735	3039.8681	3045.7182	3084.569	3095.9142	3111.5057	3195.7787	3205.5451	3785.232	3794.3438
CC1C2C3CC1(O)C23O	C[C@H]1[C@H]2[C@H]3C[C@]1(O)[C@@]23O	
InChI=1S/C7H10O2/c1-3-5-4-2-6(3,8)7(4,5)9/h3-5,8-9H,2H2,1H3	InChI=1S/C7H10O2/c1-3-5-4-2-6(3,8)7(4,5)9/h3-5,8-9H,2H2,1H3/t3-,4+,5-,6+,7-/m0/s1
