15
gdb 33586	3.9843	1.51768	1.37192	1.8498	75.51	-0.2374	0.0335	0.2709	935.9951	0.11266	-383.369512	-383.363066	-383.362122	-383.400178	26.72	
C	 0.0419097398	-1.108598665	-0.0140567368	-0.367923
C	 0.0029102529	 0.0948617014	-0.0151890944	 0.020856
C	-0.056141902	 1.5089010628	 0.0240173112	 0.337806
C	 0.1345123857	 2.4355608889	-1.1944788675	-0.153057
C	 1.0644901393	 2.5442146771	-0.0154682211	-0.18035
C	 0.0629729734	 3.5602630958	 0.6080350347	-0.107694
C	-0.7703060098	 3.6062730316	-0.7143582633	 0.074364
O	-1.9344409642	 3.0419545013	-0.0736389196	-0.285451
C	-1.0039229758	 2.4462129707	 0.8477292367	-0.011044
H	 0.0768116809	-2.1694850322	-0.0196059993	 0.178777
H	 0.3086628564	 2.0411399629	-2.1854481972	 0.109867
H	 2.1315430747	 2.403456269	 0.0683186467	 0.109166
H	 0.2584232091	 4.4014849865	 1.2663829831	 0.089691
H	-0.9727259925	 4.4646735908	-1.3521034187	 0.091252
H	-1.4353887281	 2.1093363784	 1.7878875056	 0.09374
140.5488	157.7597	425.8893	476.3637	508.1727	564.4986	573.8945	621.8073	654.1349	741.9919	773.7345	809.5734	827.9074	838.7612	855.0888	882.8962	894.461	929.7534	942.0656	968.5449	999.0944	1060.305	1087.4775	1122.0714	1151.1494	1173.4247	1187.4896	1214.5577	1255.7326	1267.3746	1310.7667	1386.2665	2233.0108	3140.0719	3148.9234	3166.5969	3220.1906	3235.7032	3504.1581
C#CC12C3C1C1C3OC21	C#C[C@]12[C@@H]3[C@H]1[C@H]1[C@@H]3O[C@@H]21	
InChI=1S/C8H6O/c1-2-8-4-3-6(5(4)8)9-7(3)8/h1,3-7H	InChI=1S/C8H6O/c1-2-8-4-3-6(5(4)8)9-7(3)8/h1,3-7H/t3-,4+,5+,6-,7+,8+/m0/s1
