18
gdb 112140	3.28854	1.07867	0.84415	4.5482	74.01	-0.2339	-0.0927	0.1412	1348.0397	0.146093	-439.103932	-439.095049	-439.094105	-439.137973	32.281	
C	-0.1054160242	 1.5709513179	-0.4450260366	-0.394884
C	 0.0292250845	 0.1437350612	 0.0823208566	-0.108561
N	-1.2550380941	-0.5056109381	 0.3007520314	-0.090787
C	-2.0986765134	 0.0938241127	 1.3344562217	-0.29016
C	-3.1347248726	-0.9774246915	 1.6329409796	 0.322401
O	-4.196857288	-0.8617396849	 2.1766731626	-0.273569
C	-2.5199308098	-2.3118736102	 1.1190112852	 0.317466
O	-3.0344989931	-3.3922019217	 1.1938855283	-0.273961
C	-1.1569650953	-1.9409209339	 0.5625997236	-0.285426
H	 0.8832966099	 1.9827923701	-0.6664727956	 0.122009
H	-0.7019452697	 1.5872594149	-1.3617079745	 0.130711
H	-0.5806188325	 2.2334860583	 0.2845209264	 0.124461
H	 0.5781736643	-0.462123516	-0.6480343787	 0.108309
H	 0.6355416664	 0.1426269964	 1.0109011918	 0.080694
H	-1.5508076335	 0.3144045373	 2.2752197422	 0.111258
H	-2.5710227123	 1.021833886	 1.0034571021	 0.145189
H	-0.9165642809	-2.5060673164	-0.3426031753	 0.142579
H	-0.3948731855	-2.1978546721	 1.3286406293	 0.112271
75.0717	95.5218	124.518	205.5101	237.528	301.9901	334.6297	356.443	387.2427	511.1282	544.362	608.1928	663.6915	718.6505	808.6754	843.7072	898.5023	973.2487	1019.4149	1066.3737	1080.4781	1121.5068	1153.1647	1177.0312	1199.7253	1210.0282	1232.8371	1295.443	1333.8488	1358.8043	1401.7057	1421.4082	1468.7941	1480.5795	1492.2122	1496.4359	1514.7777	1855.5196	1876.5256	2880.6164	2891.8554	2902.1167	3045.0086	3050.5153	3081.2042	3093.869	3115.4727	3121.539
CCN1CC(=O)C(=O)C1	CCN1CC(=O)C(=O)C1	
InChI=1S/C6H9NO2/c1-2-7-3-5(8)6(9)4-7/h2-4H2,1H3	InChI=1S/C6H9NO2/c1-2-7-3-5(8)6(9)4-7/h2-4H2,1H3
