19
gdb 112274	2.51499	1.19767	0.89278	1.7238	73.6	-0.2353	0.0164	0.2517	1324.611	0.159155	-456.319731	-456.31028	-456.309336	-456.354456	34.137	
C	 0.3873985601	 1.4772302842	-0.1583183636	-0.327052
N	-0.2214953071	 0.2127613305	 0.2605249146	-0.294228
C	 0.5144594368	-0.4432166098	 1.3236367499	-0.143064
C	 0.0927905981	-1.8942202984	 1.6737377175	 0.076572
C	-0.94351774	-2.5920540946	 0.8137805556	-0.077918
O	-0.9303778324	-3.9867859778	 1.0555260416	-0.419866
O	 1.4408198583	-2.368539644	 1.3048793324	-0.280001
C	 1.8218021986	-1.1036176487	 0.9087821328	 0.467671
N	 2.8899147372	-0.6964497688	 0.395154881	-0.544633
H	 1.3862682229	 1.2793785921	-0.5532294628	 0.167595
H	-0.2210802171	 1.9207483745	-0.9509101887	 0.119127
H	 0.4866896576	 2.2119931584	 0.6594970388	 0.096453
H	-1.1680608366	 0.3901623616	 0.5827951283	 0.223358
H	 0.6569451044	 0.1808012837	 2.2231083906	 0.087617
H	-0.0803564696	-2.0936447785	 2.7345681981	 0.099443
H	-1.9457863982	-2.2366018706	 1.0784551936	 0.109722
H	-0.7674080586	-2.3484655688	-0.2415704541	 0.116531
H	-0.0401008134	-4.2939364722	 0.8486427157	 0.293511
H	 3.5514414792	-1.4613688526	 0.2491871085	 0.229162
76.2306	100.2644	120.4866	140.7347	192.0224	237.6039	298.0618	336.7267	401.7434	430.8533	469.0418	544.9937	666.2735	767.6302	799.0919	845.5277	864.426	882.4941	957.6273	1007.3791	1031.6414	1042.9603	1080.4538	1112.6629	1149.1743	1162.6381	1196.1503	1211.3045	1244.1661	1270.0016	1305.4343	1342.5533	1375.1944	1397.4009	1431.0451	1459.3803	1479.624	1496.45	1497.9453	1521.4978	1823.7191	2945.7761	2957.6648	3027.3033	3071.6083	3084.474	3089.6397	3136.1429	3471.4349	3505.9592	3800.3082
CNC1C(CO)OC1=N	CN[C@H]1[C@@H](CO)O[C]1[NH]	
InChI=1S/C5H10N2O2/c1-7-4-3(2-8)9-5(4)6/h3-4,6-8H,2H2,1H3	InChI=1S/C5H10N2O2/c1-7-4-3(2-8)9-5(4)6/h3-4,6-8H,2H2,1H3/t3-,4+/m1/s1
