17
gdb 98174	2.72033	1.10266	0.96331	2.4904	66.03	-0.2609	-0.0569	0.204	1258.3014	0.130056	-496.110852	-496.100293	-496.099349	-496.147867	36.386	
C	-0.027641146	 1.6004200571	 0.0379533452	-0.397111
C	 0.0874038911	 0.076098468	 0.0281932732	 0.156372
O	 0.8350483379	-0.3171261135	 1.1719465841	-0.45057
C	-1.3005323812	-0.5826006347	 0.0850648335	 0.142632
O	-2.3364596023	-0.0372622821	-0.1642152948	-0.21927
C	 0.7859408801	-0.3559752137	-1.2770369389	 0.291709
O	 0.2144169166	-0.3210683862	-2.3444402857	-0.319387
C	 2.2370039789	-0.8064114174	-1.2082937891	-0.124244
O	 2.7438990552	-1.052254971	-2.4838208019	-0.419665
H	 0.9629794792	 2.0575118958	-0.0245716073	 0.131655
H	-0.6355791203	 1.9248798096	-0.8071899092	 0.161524
H	-0.50545	 1.9201455581	 0.9663482172	 0.142003
H	 0.7406567619	-1.2680716446	 1.3060686543	 0.288915
H	-1.2650944162	-1.6509740425	 0.4126917179	 0.075883
H	 2.8222271479	-0.0409073579	-0.6769166308	 0.136003
H	 2.2859404546	-1.7076132784	-0.5731361436	 0.107134
H	 1.9995149527	-0.9159150465	-3.0914852541	 0.296418
19.3788	53.5625	106.5488	172.7257	204.3845	214.4634	249.8937	276.1566	303.235	338.7683	385.3204	419.2171	422.5802	555.1198	562.6308	660.7006	799.6527	834.0618	954.3373	974.7132	1010.7276	1051.7367	1106.1543	1142.782	1187.391	1204.6496	1236.092	1306.3079	1346.6731	1397.4535	1425.7777	1446.2178	1471.193	1477.0651	1491.1205	1785.1177	1856.2304	2828.7382	2965.5919	3012.4098	3061.0422	3137.8364	3161.8162	3688.1777	3782.1659
CC(O)(C=O)C(=O)CO	C[C@@](O)(C=O)C(=O)CO	
InChI=1S/C5H8O4/c1-5(9,3-7)4(8)2-6/h3,6,9H,2H2,1H3	InChI=1S/C5H8O4/c1-5(9,3-7)4(8)2-6/h3,6,9H,2H2,1H3/t5-/m1/s1
