17
gdb 55428	2.63514	1.48068	0.99238	2.5111	69.56	-0.2324	-0.0341	0.1983	1153.3575	0.136926	-455.199274	-455.19097	-455.190025	-455.232624	31.311	
N	 0.0007022289	 1.2319618713	 0.4019843083	-0.529835
C	 0.1294524132	-0.0147491559	-0.1190380385	 0.390341
O	 1.0911089565	-0.4114855429	-0.7446502004	-0.36351
C	-1.1153305457	-0.9017025029	 0.0565774824	-0.188947
N	-0.8072989403	-2.3138548142	-0.0435268405	-0.293993
C	-1.9565412155	-3.0434177884	 0.4889573693	-0.170951
C	-2.2790134721	-2.2425738656	 1.7593887838	-0.300688
C	-1.868175204	-0.8209898472	 1.3910660691	 0.414568
O	-2.1034399063	 0.1860447046	 2.0151108592	-0.3309
H	 0.8035740913	 1.8390385277	 0.3622094229	 0.259328
H	-0.7381431171	 1.4165514103	 1.0680402048	 0.277199
H	-1.8487177812	-0.538587912	-0.6982792511	 0.109605
H	-0.5043462967	-2.5926715253	-0.9662660709	 0.240222
H	-2.8338048546	-3.0425108084	-0.1836633071	 0.088271
H	-1.6913108483	-4.0838560868	 0.6928968277	 0.115241
H	-3.3198041747	-2.2809785134	 2.0866234773	 0.134148
H	-1.6488799534	-2.562494551	 2.5974089737	 0.149901
61.8044	92.8947	200.055	211.712	303.7479	396.5609	407.6394	457.3389	521.3595	542.9981	578.2808	620.6021	640.9609	714.3888	753.9673	820.1831	880.1531	925.8821	957.7461	1039.4973	1046.0554	1123.2796	1138.3938	1168.96	1186.351	1216.4494	1256.3682	1284.4456	1290.17	1354.5881	1379.7118	1433.2714	1442.5202	1523.3829	1620.0521	1808.6277	1832.1139	2851.8486	2932.4054	3054.481	3088.6534	3122.679	3534.2819	3593.6229	3692.9218
NC(=O)C1NCCC1=O	NC(=O)[C@H]1NCCC1=O	
InChI=1S/C5H8N2O2/c6-5(9)4-3(8)1-2-7-4/h4,7H,1-2H2,(H2,6,9)	InChI=1S/C5H8N2O2/c6-5(9)4-3(8)1-2-7-4/h4,7H,1-2H2,(H2,6,9)/t4-/m0/s1
