19
gdb 65232	2.87414	1.2343	1.10906	2.0736	76.2	-0.2506	0.025	0.2756	1176.5107	0.159764	-419.179035	-419.170375	-419.169431	-419.212946	32.438	
C	 0.1306364068	 1.4652362432	-0.432000598	-0.493673
C	 0.0724923374	-0.0133757766	-0.1059032199	 0.330644
C	 1.2553120776	-0.854123867	-0.4243068512	-0.270959
N	 0.9253766876	-0.5416789185	 0.9794590809	-0.355759
C	-1.2941224644	-0.6666005022	-0.139688733	-0.166881
C	-2.4501668431	-0.0682803407	 0.6969119895	-0.102341
O	-3.2322738013	 0.1387804557	-0.5225073596	-0.258122
C	-2.21213337	-0.3518053868	-1.3107653628	 0.425891
N	-2.1236470591	-0.4590223385	-2.5569776018	-0.547058
H	 1.164395598	 1.8234779376	-0.4122476435	 0.114704
H	-0.2749354067	 1.6590393885	-1.4297417287	 0.150034
H	-0.4415733301	 2.0624390266	 0.2870970167	 0.121654
H	 1.1277283789	-1.8954912454	-0.7060065234	 0.123062
H	 2.1122124533	-0.3669047217	-0.8817286037	 0.114528
H	 1.5401842574	 0.1930729195	 1.3217428837	 0.228572
H	-1.1811343289	-1.7407255157	 0.0203148648	 0.112275
H	-2.9593293025	-0.7529758384	 1.3780498262	 0.125504
H	-2.2485858637	 0.8822887785	 1.1956742553	 0.120447
H	-2.9702979771	-0.122448208	-3.0195418716	 0.227478
44.2067	105.8638	144.4317	224.6619	263.9139	313.9081	352.2547	394.2822	431.8253	515.3796	600.2897	726.1955	764.039	839.4251	864.0186	873.3668	932.3857	945.6881	964.3069	974.2299	990.2559	1015.415	1057.6765	1071.4267	1080.2493	1122.6794	1152.1725	1160.8563	1209.3003	1239.3648	1264.8528	1288.4567	1355.1074	1362.805	1405.8742	1421.784	1488.2175	1503.9462	1516.4514	1522.2591	1819.0746	3032.4473	3070.2345	3094.2826	3096.3517	3110.2587	3112.2894	3129.2633	3194.6375	3471.9512	3493.7005
CC1(CN1)C1COC1=N	C[C@]1(CN1)[C@H]1CO[C]1[NH]	
InChI=1S/C6H10N2O/c1-6(3-8-6)4-2-9-5(4)7/h4,7-8H,2-3H2,1H3	InChI=1S/C6H10N2O/c1-6(3-8-6)4-2-9-5(4)7/h4,7-8H,2-3H2,1H3/t4-,6-/m0/s1
