13
gdb 9981	2.63042	1.67761	1.10783	3.2628	62.03	-0.2768	-0.0438	0.233	1008.9889	0.095255	-394.809857	-394.801793	-394.800849	-394.843483	26.987	
N	 0.0255082907	 1.2445355802	 0.0585803527	-0.449452
C	-0.0739837059	-0.0103113577	 0.1959108385	 0.107325
N	-1.2886074985	-0.6865893597	 0.0295496001	-0.087773
C	-1.3219805775	-2.1438862213	 0.0813586906	-0.313453
C	-0.8770545852	-2.67746534	 1.3731585011	 0.267814
N	-0.5001038456	-3.0955469674	 2.3816491832	-0.293707
C	-2.4863661429	-0.0133968638	-0.202004251	 0.177101
O	-3.5397293236	-0.5789353651	-0.3731801935	-0.310997
H	 0.9792976167	 1.5509775114	 0.2344771537	 0.245189
H	 0.7402210544	-0.6945166947	 0.4566006885	 0.127007
H	-2.3613173446	-2.4308573522	-0.1018859109	 0.206246
H	-0.7051790653	-2.578993208	-0.7131357406	 0.16997
H	-2.3457555527	 1.0743526382	-0.2086296925	 0.154732
43.4457	87.7953	145.8058	222.3046	257.8836	315.0447	326.8496	372.622	488.9549	643.2283	703.6635	812.1998	864.9024	954.3281	988.508	1050.924	1063.0347	1143.8364	1248.9798	1261.2409	1362.3544	1393.9486	1421.4881	1436.6748	1471.0414	1734.2542	1799.6788	2366.5339	3047.5297	3070.2027	3080.4489	3107.1966	3525.0652
N=CN(CC#N)C=O	N=CN(CC#N)C=O	
InChI=1S/C4H5N3O/c5-1-2-7(3-6)4-8/h3-4,6H,2H2	InChI=1S/C4H5N3O/c5-1-2-7(3-6)4-8/h3-4,6H,2H2
