19
gdb 18757	3.3535	1.92994	1.47408	2.0048	72.22	-0.2119	0.0788	0.2906	924.2435	0.165123	-365.014517	-365.006696	-365.005751	-365.0464	29.677	
C	 0.2212624919	 1.5392961968	-0.1173636518	-0.405651
C	 0.042261291	 0.0488246635	 0.0498320346	 0.159932
O	 0.8660874061	-0.7385081243	-0.8656378545	-0.322198
C	 1.3352083622	-1.5866224219	 0.1971301638	 0.110566
C	 2.6931751298	-1.1715967409	 0.7931118928	-0.191317
N	 2.0072765995	-0.1501564269	 1.623411301	-0.064581
C	 2.3587844351	-0.0640928357	 3.0221114288	-0.326382
C	 0.674569028	-0.6794565544	 1.2595177895	-0.072939
H	 1.2454965658	 1.8242408769	 0.1320521579	 0.134388
H	 0.0064169909	 1.8295835878	-1.1504768224	 0.123471
H	-0.4689913178	 2.0817964236	 0.5384287488	 0.10905
H	-1.0119032159	-0.2387371218	-0.0785671309	 0.069013
H	 1.1344101046	-2.6450236415	 0.0198842128	 0.08045
H	 3.1395143281	-1.9827288305	 1.3906160038	 0.086203
H	 3.4394306861	-0.7762304523	 0.0963766399	 0.110095
H	 3.3909959979	 0.2886644899	 3.1208625011	 0.123442
H	 1.710752555	 0.6607630122	 3.5258632643	 0.121374
H	 2.2788896945	-1.0281638855	 3.5611618445	 0.088015
H	 0.037894557	-1.007325995	 2.0848425959	 0.067068
107.0607	162.7286	210.5269	221.0474	290.73	305.6361	391.2443	394.6682	536.7806	657.9583	735.5205	811.007	841.257	873.4827	918.2725	950.4206	986.8454	1010.3611	1048.1194	1066.659	1096.9691	1138.7489	1145.6905	1172.3054	1189.0402	1199.8226	1221.6177	1252.2781	1292.8813	1309.6112	1337.2615	1348.5646	1380.8474	1405.3721	1454.8319	1481.0274	1483.0985	1496.9886	1500.3337	1502.6528	2916.7396	2974.7748	2990.031	3038.0923	3054.5718	3071.3338	3075.4908	3090.8444	3097.9927	3104.0245	3136.4384
CC1OC2CN(C)C12	C[C@H]1O[C@H]2CN(C)[C@@H]12	
InChI=1S/C6H11NO/c1-4-6-5(8-4)3-7(6)2/h4-6H,3H2,1-2H3	InChI=1S/C6H11NO/c1-4-6-5(8-4)3-7(6)2/h4-6H,3H2,1-2H3/t4-,5+,6+/m1/s1
