17
gdb 11603	4.62554	1.23969	1.11176	4.079	65.2	-0.2314	0.0493	0.2806	1089.0987	0.143953	-397.19123	-397.182938	-397.181994	-397.224261	30.473	
N	-0.2681567571	 1.1227814343	 0.4310408292	-0.557507
C	-0.3259622048	-0.2556347968	 0.2941722397	 0.467094
O	 0.2715427106	-1.0132433645	 1.0433196454	-0.399113
N	-1.1170331786	-0.6851209736	-0.7477728511	-0.3314
C	-1.3833624846	-2.1108910849	-0.9132784869	-0.197967
C	-2.4986988327	-2.6483668379	-0.0402273772	 0.019551
C	-2.3543949605	-3.9880329278	 0.5848875629	-0.238805
N	-2.2955506552	-2.7739708568	 1.4090702409	-0.312676
H	 0.4632218247	 1.4203874117	 1.0585008459	 0.262987
H	-0.3523573089	 1.6831653207	-0.4035264984	 0.249367
H	-1.8157575285	-0.0442404948	-1.090720509	 0.241377
H	-1.611564427	-2.2903722574	-1.9702644242	 0.105381
H	-0.4504666156	-2.6296400293	-0.6791572118	 0.13395
H	-3.4984617613	-2.3100091738	-0.3133393608	 0.079538
H	-3.2291673824	-4.6133028588	 0.7416366589	 0.113247
H	-1.4359121452	-4.5387534522	 0.3934504299	 0.11016
H	-1.3291913828	-2.5335086279	 1.6261632865	 0.254817
77.1509	102.7405	113.1689	251.5607	291.4188	368.2462	384.8655	426.5422	463.3949	549.3539	555.1032	667.2656	776.8373	796.122	838.888	892.4013	936.5115	971.2545	1018.4009	1070.8667	1098.7355	1126.3866	1140.9642	1154.7914	1223.3078	1270.1559	1294.5883	1319.9647	1353.6035	1379.7328	1435.8442	1462.1128	1513.4419	1538.8665	1626.3	1781.2318	3041.3817	3095.2789	3102.0301	3115.4247	3184.7499	3484.9607	3577.602	3621.7852	3692.9378
NC(=O)NCC1CN1	NC(=O)NC[C@H]1CN1	
InChI=1S/C4H9N3O/c5-4(8)7-2-3-1-6-3/h3,6H,1-2H2,(H3,5,7,8)	InChI=1S/C4H9N3O/c5-4(8)7-2-3-1-6-3/h3,6H,1-2H2,(H3,5,7,8)/t3-/m1/s1
