23
gdb 118036	3.24907	0.74819	0.64796	2.2751	83.77	-0.2684	-0.0379	0.2305	1788.221	0.202627	-425.44499	-425.43387	-425.432925	-425.482141	39.682	
C	 0.0657424526	 1.5852273278	 0.0919952692	-0.378794
C	 0.0050832087	 0.0551313203	 0.0501120801	-0.18059
C	 0.6226943604	-0.5201099199	-1.2303094146	-0.164969
C	 0.6446823618	-2.0592907245	-1.2986130363	-0.003096
C	-0.7633616467	-2.6498320117	-1.4714813518	-0.415299
C	 1.6032465066	-2.504546054	-2.4405687645	 0.040135
O	 2.8710193842	-1.920303129	-2.3031887207	-0.435208
C	 1.7536070398	-4.0120927639	-2.5102725793	 0.132436
O	 2.8310542341	-4.5449976982	-2.3796055587	-0.266314
H	 1.099991438	 1.941031812	 0.0307131263	 0.117879
H	-0.4842468693	 2.0262897288	-0.7468669743	 0.113442
H	-0.3686685009	 1.9769086229	 1.0170721561	 0.110427
H	 0.5355480132	-0.3553376424	 0.9196751571	 0.096747
H	-1.0392728151	-0.264136618	 0.1519683402	 0.094664
H	 0.0814602152	-0.1324108991	-2.1063228077	 0.084444
H	 1.6523456418	-0.1609392282	-1.3175448279	 0.126085
H	 1.0797774719	-2.4338407456	-0.3614133042	 0.081253
H	-0.7813411273	-3.73846231	-1.3669347932	 0.115258
H	-1.4468897622	-2.2475018912	-0.7197830102	 0.127799
H	-1.175530504	-2.3996534724	-2.456543433	 0.117429
H	 1.1431552829	-2.1924315574	-3.3978038471	 0.088772
H	 3.4929785229	-2.6626116613	-2.2369769113	 0.293397
H	 0.8390482513	-4.6062963547	-2.6950110244	 0.104104
46.788	62.8134	97.9181	100.6455	156.937	199.179	247.5612	273.8638	302.6156	338.6578	347.5912	403.3025	434.4182	465.0813	524.2611	745.5246	758.6342	818.9149	857.9207	874.9194	922.2698	944.5458	981.7733	1012.6459	1043.1996	1077.8176	1120.8879	1147.6407	1170.1237	1185.4426	1244.8045	1278.8542	1283.6009	1322.4357	1333.2982	1361.0434	1363.8401	1394.7761	1399.7041	1411.9084	1417.9265	1443.0894	1484.6271	1494.0141	1498.7721	1499.6096	1507.4112	1513.9675	1803.9813	2926.5701	2961.5212	2998.4237	3012.3887	3021.1654	3029.8074	3033.9014	3049.2918	3088.4954	3098.3873	3099.5693	3102.6871	3117.4344	3681.8808
CCCC(C)C(O)C=O	CCC[C@@H](C)[C@@H](O)C=O	
InChI=1S/C7H14O2/c1-3-4-6(2)7(9)5-8/h5-7,9H,3-4H2,1-2H3	InChI=1S/C7H14O2/c1-3-4-6(2)7(9)5-8/h5-7,9H,3-4H2,1-2H3/t6-,7+/m1/s1
