21
gdb 110302	2.29323	1.41954	1.31397	0.9745	78.75	-0.2346	0.0724	0.307	1136.5716	0.18173	-424.182485	-424.173046	-424.172102	-424.216348	35.471	
C	 0.2068223916	 1.3969191411	-0.0569428435	-0.248188
O	-0.2141368687	 0.0651354585	 0.1807784306	-0.241777
C	 0.5563735435	-0.5844390813	 1.1620910616	 0.081628
C	 0.0975929341	-1.984785355	 1.543530841	-0.117964
C	 0.2086691366	-2.9789528017	 0.4206979079	-0.006864
C	-0.1582120945	-2.7531020281	-1.0369787633	-0.442608
C	 1.4751472525	-2.5667198149	 1.1239439921	-0.116321
C	 1.9652406931	-1.1703058132	 0.7433230519	 0.09299
O	 2.4705926837	-0.9154829821	-0.5453759408	-0.432916
H	 1.239549364	 1.4347993853	-0.4238397296	 0.129513
H	-0.4615928972	 1.8152379095	-0.8134672318	 0.123416
H	 0.1318317762	 2.006175756	 0.857347763	 0.102915
H	 0.6571783541	 0.0638940579	 2.0451021948	 0.06731
H	-0.4723059709	-2.2042011768	 2.438266282	 0.086336
H	-0.0935543418	-3.9681199602	 0.7634318473	 0.090666
H	-0.0747836796	-1.7048144572	-1.3268066015	 0.137547
H	 0.4606925009	-3.3715051604	-1.6974494324	 0.113597
H	-1.2027222101	-3.0357653789	-1.2074769829	 0.118778
H	 2.0768624234	-3.2950471898	 1.6553290715	 0.084677
H	 2.7390915469	-0.8219685172	 1.4320839078	 0.090272
H	 1.8375326322	-1.2500881214	-1.1872246958	 0.286995
108.2002	122.9615	144.4232	186.5162	203.6066	259.302	276.3185	321.7413	328.5638	382.7078	507.8211	583.0467	669.0062	719.0138	740.0166	804.517	833.5636	883.7398	964.4376	995.5981	1013.8974	1030.2989	1059.1935	1069.7627	1071.6726	1118.1883	1141.2474	1157.2388	1180.9236	1215.7563	1226.6453	1236.1493	1276.8352	1284.6286	1324.0427	1356.726	1384.4729	1411.6277	1439.5949	1450.9172	1478.411	1485.7953	1497.4266	1514.4418	1519.866	2981.8143	2989.4197	3030.6978	3058.4705	3079.7288	3086.5111	3109.7691	3117.3226	3138.696	3173.4569	3186.3258	3837.0688
COC1C2C(C)C2C1O	CO[C@H]1[C@H]2[C@@H](C)[C@H]2[C@H]1O	
InChI=1S/C7H12O2/c1-3-4-5(3)7(9-2)6(4)8/h3-8H,1-2H3	InChI=1S/C7H12O2/c1-3-4-5(3)7(9-2)6(4)8/h3-8H,1-2H3/t3-,4+,5-,6+,7-/m0/s1
