25
gdb 120444	3.68508	0.76057	0.74279	1.4151	90.	-0.2381	0.0837	0.3218	1741.0482	0.226649	-389.500893	-389.490102	-389.489157	-389.537122	40.086	
C	-0.3251399175	 1.5347068857	 0.3609227712	-0.381839
C	-0.0928044381	 0.0327186146	 0.1805792111	-0.160753
C	 0.8743034877	-0.5557572617	 1.214069026	-0.187824
C	 1.0602175513	-2.0553270001	 1.0579719077	 0.158552
C	 1.7705551138	-2.8297976853	 2.1859549892	-0.366058
C	 0.4591663029	-3.6545081634	 2.2721435932	 0.446622
C	 0.5663152879	-5.0830272984	 1.7498635745	-0.424874
C	-0.2970182721	-3.5836247059	 3.5910883186	-0.427731
O	-0.1675695827	-2.7949853629	 1.2719455862	-0.342478
H	 0.6114632496	 2.0968995729	 0.2708543364	 0.10996
H	-1.0196878851	 1.9237298694	-0.3902991068	 0.110988
H	-0.7468441379	 1.754292112	 1.3481588792	 0.113182
H	-1.0449108565	-0.5051305061	 0.2521260986	 0.117969
H	 0.295136521	-0.1614836052	-0.8283723323	 0.090837
H	 1.8584402372	-0.0725511182	 1.1299601089	 0.089209
H	 0.5049863178	-0.3473560006	 2.2270610413	 0.090992
H	 1.4640229178	-2.2742786406	 0.0578324437	 0.065371
H	 2.6650241803	-3.387577424	 1.9028018309	 0.100891
H	 1.9856848069	-2.2304731762	 3.0741484571	 0.100192
H	 1.1038389855	-5.7198601711	 2.4612221942	 0.111159
H	-0.4313249456	-5.5065574414	 1.5953509743	 0.121175
H	 1.0981543545	-5.1086930131	 0.7942935805	 0.115398
H	-0.3847349296	-2.5488579147	 3.9331824073	 0.115402
H	-1.3070880514	-3.9900413803	 3.4733077147	 0.121451
H	 0.2168006419	-4.1640885855	 4.3654076543	 0.112206
43.0873	89.0434	94.4912	141.0549	200.5404	245.601	247.9682	281.9929	302.5036	354.8118	370.3193	404.3703	442.9167	505.0904	641.7804	746.4154	796.5033	852.0686	885.792	889.9665	913.0363	924.5904	955.1835	974.8239	992.9348	1020.596	1047.7004	1058.3971	1093.3305	1127.7099	1179.2344	1196.0667	1236.0943	1259.9854	1276.6449	1285.4907	1288.1466	1322.0431	1336.8012	1383.2117	1398.9533	1408.3216	1412.0046	1414.5639	1471.2682	1474.2941	1481.5185	1490.6866	1493.1276	1495.3718	1499.9795	1506.0138	1509.5448	2980.8373	3005.1028	3019.4092	3027.3526	3028.7188	3034.2939	3045.2025	3066.3592	3068.1623	3095.8136	3098.4107	3100.3549	3105.474	3110.245	3114.5135	3122.9974
CCCC1CC(C)(C)O1	CCC[C@H]1CC(C)(C)O1	
InChI=1S/C8H16O/c1-4-5-7-6-8(2,3)9-7/h7H,4-6H2,1-3H3	InChI=1S/C8H16O/c1-4-5-7-6-8(2,3)9-7/h7H,4-6H2,1-3H3/t7-/m0/s1
