18
gdb 90745	3.29835	1.36503	1.07293	5.0961	71.94	-0.23	0.0158	0.2457	1132.1031	0.149273	-439.113108	-439.105145	-439.1042	-439.145922	30.053	
C	-0.3760769162	 1.3247332077	-0.1220886256	-0.407382
C	 0.2803022013	-0.038823087	-0.0803497819	 0.158921
O	 1.6175259605	-0.0183049707	-0.6501630795	-0.303971
C	 2.1822813336	-0.5744792379	 0.5551943	 0.017455
C	 0.8238291402	-0.5438591366	 1.2803142367	-0.106035
C	 0.4980678624	-1.9952602357	 1.6736778839	-0.193695
N	 1.4851782641	-2.7679821606	 0.9377672648	-0.310196
C	 2.5257248428	-2.0642853091	 0.3874097989	 0.396791
O	 3.5053313607	-2.5341442745	-0.1449097716	-0.37339
H	 0.2271774801	 2.0640408832	 0.4137767718	 0.123232
H	-0.4873498527	 1.6593621083	-1.1579290446	 0.134559
H	-1.3714669309	 1.2854799175	 0.3344397013	 0.116241
H	-0.3447228529	-0.7821337559	-0.5957007856	 0.080867
H	 3.0380177992	-0.0001709444	 0.9190393347	 0.100092
H	 0.701613815	 0.1590763611	 2.1038517095	 0.087415
H	 0.5945914384	-2.1471851604	 2.7571430381	 0.111761
H	-0.5241394422	-2.2746414545	 1.3902047594	 0.114367
H	 1.5206385967	-3.7752035305	 0.9628305296	 0.252969
71.4755	126.5175	197.8572	232.238	281.6184	310.4243	443.6147	456.2125	546.0075	610.6611	714.6525	747.5756	794.3528	819.467	882.5146	888.3249	935.32	996.4152	1003.2235	1029.1652	1079.1975	1094.4344	1124.9216	1145.4547	1205.9354	1236.3147	1249.2905	1272.6686	1287.5381	1304.1487	1327.9204	1363.3561	1398.5592	1410.7069	1452.3964	1482.7582	1493.5592	1533.6298	1835.4114	3000.8536	3006.7626	3033.5815	3042.5925	3081.5918	3106.203	3113.8764	3117.3754	3634.7193
CC1OC2C1CNC2=O	C[C@H]1O[C@H]2[C@@H]1CNC2=O	
InChI=1S/C6H9NO2/c1-3-4-2-7-6(8)5(4)9-3/h3-5H,2H2,1H3,(H,7,8)	InChI=1S/C6H9NO2/c1-3-4-2-7-6(8)5(4)9-3/h3-5H,2H2,1H3,(H,7,8)/t3-,4-,5+/m1/s1
