19
gdb 60682	2.13183	1.37027	1.22714	2.3784	76.35	-0.2492	-0.0525	0.1968	1152.3151	0.15565	-423.028252	-423.018402	-423.017457	-423.063316	35.135	
C	 0.1816595382	 1.5579420545	 0.0614928463	-0.44246
C	 0.0252833656	 0.0359967673	 0.1111366609	 0.054731
C	 0.6987379796	-0.5333407886	 1.3580841563	 0.110215
O	 0.6362761936	-1.6880916655	 1.7011419524	-0.256543
C	-1.4568007227	-0.3713922786	 0.1763371699	 0.148673
O	-2.3694469638	 0.3866750415	-0.0139017944	-0.245897
C	 0.5700103951	-0.6095519334	-1.1769449961	 0.000725
C	 2.002791861	-1.0656727641	-1.3242012786	-0.290786
C	 0.8864903641	-2.0771963378	-1.3206512696	-0.281116
H	 1.2348934537	 1.8299018514	-0.055989933	 0.121139
H	-0.3817665123	 1.9729136946	-0.7761017115	 0.140453
H	-0.2000020756	 2.0254179847	 0.9743887903	 0.126568
H	 1.2500439449	 0.2140953452	 1.9707754026	 0.094334
H	-1.6141326708	-1.4479925027	 0.3887036086	 0.110309
H	 0.1385534682	-0.135527335	-2.0547779821	 0.103061
H	 2.5091082457	-0.8446867596	-2.2570180622	 0.118373
H	 2.6476587959	-1.0310337265	-0.4524986387	 0.121143
H	 0.7895799828	-2.7020105889	-0.4412876837	 0.150282
H	 0.6198742067	-2.5578009387	-2.2552856572	 0.116795
68.7395	80.1455	107.8802	177.9666	197.3075	227.5408	236.7582	279.2976	343.6109	380.2506	421.7938	514.4114	675.0834	722.7061	797.2442	827.114	840.2373	903.4416	926.2284	951.1182	998.36	1037.2081	1064.2864	1091.2439	1093.2712	1143.8142	1151.6472	1192.4099	1203.9009	1220.9187	1253.5831	1374.6749	1396.9937	1416.0189	1431.6796	1468.6324	1487.9689	1491.6486	1502.4368	1797.6459	1834.9501	2883.6812	2937.5861	3045.649	3113.4067	3134.4721	3136.3795	3139.5155	3144.9849	3216.7624	3237.8964
CC(C=O)(C=O)C1CC1	CC(C=O)(C=O)C1CC1	
InChI=1S/C7H10O2/c1-7(4-8,5-9)6-2-3-6/h4-6H,2-3H2,1H3	InChI=1S/C7H10O2/c1-7(4-8,5-9)6-2-3-6/h4-6H,2-3H2,1H3
