21
gdb 87727	2.88322	1.20298	1.01254	1.8596	85.87	-0.2294	0.0137	0.2431	1264.7061	0.18251	-387.090941	-387.081946	-387.081002	-387.125029	34.795	
C	-0.14298567	 1.5432850235	 0.2850250298	-0.407825
C	-0.0657419015	 0.034845242	 0.2154383207	-0.042293
C	 1.1439586841	-0.6521121933	-0.3573791094	-0.34481
C	 0.8581333982	-0.7634431739	 1.127728336	 0.33049
C	 1.7722422302	-0.1410662293	 2.1931567649	-0.344842
C	 1.5799767988	-1.0056593567	 3.474956549	 0.090842
O	 0.8886908357	-0.3330762713	 4.5298220109	-0.434018
C	 0.813589499	-2.208596998	 2.9765515161	-0.142308
C	 0.3950360561	-2.0440866295	 1.7200789109	-0.121982
H	 0.8422774526	 1.9896610664	 0.4496952658	 0.120412
H	-0.5369829928	 1.9543495594	-0.6510978412	 0.118769
H	-0.7997576551	 1.877788739	 1.0963177535	 0.11563
H	-1.0189606923	-0.4462069363	 0.0058292987	 0.080695
H	 1.0082642248	-1.5329814185	-0.9769236318	 0.108234
H	 1.9839514679	-0.028178796	-0.649480691	 0.109613
H	 2.8165548951	-0.1766071602	 1.8671653516	 0.104282
H	 1.5370599047	 0.9019263127	 2.4202027689	 0.108018
H	 2.5438737124	-1.2705185323	 3.92145824	 0.08641
H	-0.0298006948	-0.2434026957	 4.2514249559	 0.272319
H	 0.5911136934	-3.0535358352	 3.6177764261	 0.096499
H	-0.2170684865	-2.745429127	 1.1609995247	 0.095865
33.0937	136.1675	175.9476	211.284	262.8201	317.5974	344.9588	387.9304	420.5991	440.213	522.7963	579.6131	739.4732	777.3097	797.9935	817.3276	842.9713	882.8337	907.4523	937.9592	956.8805	975.4605	1011.5726	1044.3623	1053.5933	1068.1582	1094.992	1124.9186	1135.4577	1184.6201	1191.005	1231.5861	1274.2657	1284.8563	1302.412	1330.4239	1377.6808	1405.2985	1425.3022	1433.2405	1480.6327	1483.4921	1493.2164	1501.0081	1669.0418	3026.7763	3046.2641	3061.2762	3085.5252	3097.5962	3102.334	3116.1196	3127.006	3174.0571	3201.9151	3208.6079	3795.2002
CC1CC11CC(O)C=C1	C[C@H]1C[C@]21C[C@@H](O)C=C2	
InChI=1S/C8H12O/c1-6-4-8(6)3-2-7(9)5-8/h2-3,6-7,9H,4-5H2,1H3	InChI=1S/C8H12O/c1-6-4-8(6)3-2-7(9)5-8/h2-3,6-7,9H,4-5H2,1H3/t6-,7-,8-/m0/s1
