15
gdb 79494	2.33131	1.91836	1.24693	3.2515	70.83	-0.2597	-0.006	0.2537	980.4212	0.113068	-416.710649	-416.703385	-416.70244	-416.742337	27.942	
O	 0.1622859193	 1.4661848773	 0.0417853952	-0.429382
C	 0.0730609228	 0.0761005995	-0.0016139041	 0.066052
C	-0.0134524892	-0.5980896026	 1.3622794409	-0.046577
C	-1.5194357872	-0.2573162153	 1.5790874716	-0.097394
C	-1.7950776134	-1.7346028582	 1.8309052481	-0.194905
N	-0.7235022838	-1.8390626372	 0.7416965894	-0.186149
C	-1.3298159537	-0.5761580875	 0.0548672075	 0.229084
C	-2.3374279243	-0.6669442392	-0.9661150912	 0.154387
N	-3.1385393943	-0.7011456089	-1.8000398357	-0.341516
H	 0.1293956833	 1.8089694935	-0.8572101683	 0.300537
H	 0.7587037554	-0.3920380942	-0.7184788193	 0.102871
H	 0.7541035365	-0.7304720739	 2.12324463	 0.103119
H	-1.9566206951	 0.6446919226	 2.0106356163	 0.09907
H	-1.4726527867	-2.1597353432	 2.785618514	 0.114942
H	-2.7630834396	-2.1440951327	 1.5292662056	 0.12586
121.1498	170.554	212.9237	291.707	312.096	424.7987	512.8908	555.5831	566.059	580.7268	733.3179	811.8595	858.5544	878.9941	896.0366	929.2936	953.1589	1003.0061	1044.8973	1077.2618	1111.282	1136.1181	1151.3391	1171.007	1202.1409	1221.3993	1262.0903	1274.6646	1278.2023	1305.925	1443.6546	1520.9856	2344.8786	3042.2508	3054.05	3098.923	3117.3755	3138.3637	3821.4409
OC1C2C3CN2C13C#N	O[C@H]1[C@H]2[C@@H]3CN2[C@]13C#N	
InChI=1S/C6H6N2O/c7-2-6-3-1-8(6)4(3)5(6)9/h3-5,9H,1H2	InChI=1S/C6H6N2O/c7-2-6-3-1-8(6)4(3)5(6)9/h3-5,9H,1H2/t3-,4+,5-,6-/m0/s1
