23
gdb 118835	4.30965	0.6786	0.65085	0.5176	82.96	-0.25	0.0677	0.3176	1824.0305	0.203202	-425.410129	-425.399128	-425.398184	-425.446512	40.083	
C	-0.0751324742	 1.5082409088	-0.4120954463	-0.372609
C	-0.0487908583	 0.1359202657	 0.2703175223	-0.194441
C	-1.3959711509	-0.555877646	 0.2439778692	-0.033385
C	-1.8454016878	-1.3196479023	-0.991383651	-0.356944
C	-1.5171932225	-2.054780395	 0.2890956545	 0.374636
O	-0.2933969898	-2.7521316713	 0.3427617984	-0.469526
C	-2.6264761952	-2.6966988946	 1.1009255118	-0.256897
C	-3.037875674	-4.0783832118	 0.5839234073	-0.063301
O	-4.1013267532	-4.6509012755	 1.3276662988	-0.41884
H	 0.9081483106	 1.9876410776	-0.3736124488	 0.109451
H	-0.3663912424	 1.4198885523	-1.4641723654	 0.114733
H	-0.7921978218	 2.1802632755	 0.0725887297	 0.110709
H	 0.6936176258	-0.5108419909	-0.2062796619	 0.107421
H	 0.275652462	 0.2510103099	 1.3126735539	 0.09632
H	-2.1839220774	-0.0191864928	 0.7688514087	 0.080633
H	-2.8798786951	-1.2516833599	-1.3118267948	 0.109923
H	-1.1259327837	-1.403384562	-1.8004468984	 0.108079
H	-0.3286162004	-3.4689117422	-0.2984675823	 0.28421
H	-2.2880328662	-2.7885357528	 2.1426850365	 0.092979
H	-3.5091875577	-2.0478820559	 1.1030417428	 0.103731
H	-3.4061997249	-3.9984533175	-0.4449236142	 0.111721
H	-2.1619256086	-4.7466798079	 0.5672400396	 0.080202
H	-3.7953661543	-4.7679468414	 2.2328543298	 0.281193
65.8944	74.0811	102.6988	122.1811	173.4323	217.5078	258.4717	289.0932	290.4016	306.0674	342.6656	380.7338	435.2067	466.8272	631.0634	722.7953	781.9005	792.3398	824.5654	894.933	924.7214	956.4236	967.9076	1027.2154	1031.2695	1047.2211	1062.4927	1081.331	1110.1024	1126.7916	1170.1084	1193.0768	1243.0195	1266.1252	1292.1583	1306.9104	1332.2809	1339.5962	1365.777	1401.381	1409.1346	1420.2936	1425.647	1474.3001	1483.9027	1492.0493	1498.5219	1508.8886	1516.3902	2972.8646	3010.8624	3026.3181	3029.8053	3061.7292	3078.7559	3080.4083	3100.963	3102.5123	3121.0655	3126.264	3208.6177	3813.5303	3813.8887
CCC1CC1(O)CCO	CC[C@H]1C[C@]1(O)CCO	
InChI=1S/C7H14O2/c1-2-6-5-7(6,9)3-4-8/h6,8-9H,2-5H2,1H3	InChI=1S/C7H14O2/c1-2-6-5-7(6,9)3-4-8/h6,8-9H,2-5H2,1H3/t6-,7+/m0/s1
