20
gdb 124569	4.0413	0.9374	0.83673	2.4605	80.67	-0.2546	0.0107	0.2653	1432.4961	0.172416	-399.370278	-399.361221	-399.360277	-399.405036	33.213	
C	-0.0497265203	 1.5243933471	-0.0609640318	-0.39089
C	 0.02934315	-0.003005681	 0.0528957683	 0.046808
C	 0.8341378551	-0.4209938802	 1.2898018343	-0.379655
C	-1.3952212283	-0.6109986272	 0.049960434	-0.291353
C	-1.4265731726	-2.0990364765	-0.0949585256	 0.340442
N	-1.5569732292	-2.6897583393	-1.2766161304	-0.266394
N	-1.511874157	-4.0045144467	-0.9519220964	-0.177828
C	-1.3649472363	-4.1522104803	 0.3781647945	 0.010422
N	-1.3066007525	-2.970175909	 0.9570697767	-0.294203
H	 0.9506756207	 1.969068468	-0.0819776945	 0.109016
H	-0.5745199373	 1.8331319938	-0.9713059854	 0.109569
H	-0.584487454	 1.9543323781	 0.794770329	 0.111544
H	 0.5434374772	-0.3851400548	-0.8395612702	 0.080311
H	 0.8852415379	-1.5076829594	 1.39205627	 0.130229
H	 1.8558628329	-0.0298863689	 1.2385442772	 0.103155
H	 0.3720648691	-0.0279584653	 2.2035386254	 0.109774
H	-1.906411604	-0.3376532222	 0.980183803	 0.111542
H	-1.9633130755	-0.1803970077	-0.7804673795	 0.112661
H	-1.6028663701	-4.7031433252	-1.6707665388	 0.280669
H	-1.3108641557	-5.1137551533	 0.8665413103	 0.14418
35.2562	79.3159	119.8454	224.515	247.2094	297.3877	320.59	351.516	419.3567	426.8326	538.7771	682.6995	711.8888	804.4319	837.5827	854.3298	889.0135	933.7	953.9342	968.6813	997.8697	1005.001	1090.9255	1109.4513	1140.2186	1175.7191	1192.8383	1241.1678	1293.4912	1313.9742	1352.3393	1370.55	1375.4793	1403.1101	1424.46	1464.0314	1471.7239	1486.6302	1490.6068	1494.5811	1503.8148	1509.4808	1554.6803	3011.3127	3022.7592	3029.1314	3043.2303	3086.4939	3089.3956	3096.0557	3098.9174	3121.68	3256.9295	3667.1167
CC(C)CC1=NNC=N1	CC(C)Cc1n[nH]cn1	
InChI=1S/C6H11N3/c1-5(2)3-6-7-4-8-9-6/h4-5H,3H2,1-2H3,(H,7,8,9)	InChI=1S/C6H11N3/c1-5(2)3-6-7-4-8-9-6/h4-5H,3H2,1-2H3,(H,7,8,9)
