19
gdb 72198	3.32023	1.79443	1.56575	1.8653	76.98	-0.2336	0.0748	0.3084	921.1095	0.161423	-385.852386	-385.845786	-385.844842	-385.882853	28.283	
C	-0.0124442326	 1.4509755901	 0.0255735448	-0.486929
C	 0.0418615208	-0.0576802922	-0.0115880104	 0.324067
C	-0.1164055796	-0.7674104127	-1.3549354506	-0.274947
C	 0.0447790754	-2.2390222349	-0.9884730781	 0.073446
O	-1.1627205034	-2.6800912647	-0.3016437309	-0.311374
C	-0.5525906466	-2.3155213363	 0.9495742037	 0.107706
C	-0.4577579425	-0.797114632	 1.2258317202	-0.133577
C	 1.0308971097	-0.8004814486	 0.8430105824	-0.131077
C	 0.8661057874	-2.2577116106	 0.3553243827	-0.110013
H	 0.7311532069	 1.8859672817	-0.6523165375	 0.116285
H	-0.99805888	 1.8188387155	-0.2808577404	 0.121679
H	 0.1878399618	 1.8341333716	 1.0314487365	 0.115987
H	-1.0879172498	-0.5971819654	-1.8293279032	 0.108445
H	 0.6698620446	-0.4334470686	-2.0451872816	 0.090248
H	 0.3099167381	-2.9109975391	-1.8072842801	 0.073416
H	-0.8565826866	-2.945757963	 1.7874740857	 0.077451
H	-0.9593769789	-0.2576186003	 2.0209902055	 0.078625
H	 1.8822363048	-0.3617378416	 1.3467422586	 0.084292
H	 1.6224766606	-3.0196231888	 0.5222433527	 0.076271
212.6539	224.0538	297.2016	370.9507	411.5011	512.8984	590.4544	652.7494	693.1116	721.3171	795.8823	820.3307	843.4373	869.5444	899.2806	912.5267	919.3452	943.115	964.1632	989.1313	1013.6908	1024.0252	1036.2166	1053.2341	1099.0635	1121.6317	1131.0885	1190.0003	1219.4857	1222.2863	1258.515	1268.6351	1285.4275	1294.0196	1341.9386	1344.5555	1404.9291	1418.1932	1474.8996	1489.9885	1502.4935	3018.9432	3024.513	3083.7062	3085.9374	3089.0031	3094.2305	3097.2155	3153.191	3173.739	3198.1217
CC12CC3OC4C1C2C34	C[C@]12C[C@@H]3O[C@@H]4[C@H]1[C@H]2[C@H]34	
InChI=1S/C8H10O/c1-8-2-3-4-5(8)6(8)7(4)9-3/h3-7H,2H2,1H3	InChI=1S/C8H10O/c1-8-2-3-4-5(8)6(8)7(4)9-3/h3-7H,2H2,1H3/t3-,4-,5+,6+,7-,8+/m0/s1
