17
gdb 35784	3.83775	1.19067	1.00328	6.0036	72.77	-0.2612	0.0173	0.2785	1159.9715	0.13837	-417.991385	-417.98386	-417.982916	-418.023566	28.903	
N	 0.0736381872	-1.1610380737	 0.0457815288	-0.315684
C	 0.0789126891	-0.0064230803	 0.0410937992	 0.278695
C	 0.023497542	 1.4617606054	 0.0467020391	-0.019215
C	-0.7365012688	 1.9929018972	 1.278895315	-0.209583
C	-0.5530253913	 3.4999973777	 1.3915518641	-0.061285
N	 0.690992731	 3.9442695921	 2.0464656445	-0.315599
C	 0.5242374579	 4.1703883286	 0.6080912666	-0.041406
C	 1.394640664	 3.3346816908	-0.3067556576	-0.08445
O	 1.3505337089	 1.9503307696	 0.0053161409	-0.246084
H	-0.5145726786	 1.7723828705	-0.8659026653	 0.110789
H	-1.7959016578	 1.7361480203	 1.1829961174	 0.117241
H	-0.349489505	 1.5063140137	 2.1779385533	 0.141145
H	-1.4550569285	 4.072271445	 1.5911440368	 0.094349
H	 0.530978027	 4.806460079	 2.56023078	 0.235763
H	 0.3448423387	 5.1847125495	 0.2567500526	 0.092324
H	 1.0755980489	 3.4959416342	-1.3506710104	 0.095473
H	 2.4460893552	 3.6224739602	-0.2191583552	 0.127527
88.891	154.303	197.5254	301.9149	365.0354	378.7374	425.1057	511.5984	553.1791	567.1854	712.5046	785.8794	796.0294	866.1259	885.3726	953.2962	985.6876	1008.0937	1020.6988	1065.902	1083.993	1112.7901	1138.1741	1171.9855	1209.7362	1236.2199	1257.5627	1286.5898	1313.6023	1367.3944	1377.4704	1399.7106	1410.6354	1462.0414	1470.5039	1487.1192	2369.679	2955.2763	2966.5427	3059.0593	3090.523	3111.0401	3125.6288	3142.2994	3508.9789
N#CC1CC2NC2CO1	N#C[C@H]1C[C@H]2N[C@H]2CO1	
InChI=1S/C6H8N2O/c7-2-4-1-5-6(8-5)3-9-4/h4-6,8H,1,3H2	InChI=1S/C6H8N2O/c7-2-4-1-5-6(8-5)3-9-4/h4-6,8H,1,3H2/t4-,5-,6+/m1/s1
