15
gdb 127930	6.8459	0.87226	0.77747	2.0563	76.68	-0.2093	-0.0765	0.1328	1396.7496	0.112195	-450.134438	-450.125588	-450.124644	-450.168403	30.641	
C	-0.0659007917	 1.3965027491	-0.0228479742	-0.337598
N	-0.0263142229	-0.0546262268	-0.0451801545	-0.373849
C	 0.5494997975	-0.6267925641	 0.930290757	 0.499955
N	 1.1842626716	-0.1394339604	 2.0766512407	-0.291916
N	 1.6838258743	-1.1056391792	 2.8921462941	-0.219696
C	 1.3830146057	-2.2242033834	 2.292483568	 0.295742
N	 0.7029560751	-1.9987365502	 1.1126653041	-0.418151
C	 1.7135331665	-3.571102013	 2.787038733	 0.095189
O	 2.3050501695	-3.8025174411	 3.810685278	-0.236673
H	 0.9383660925	 1.8525330156	-0.024853084	 0.103176
H	-0.5841762948	 1.7562968011	-0.9149345248	 0.129784
H	-0.60742569	 1.7967071828	 0.8506863906	 0.103328
H	 1.2949420917	 0.8255331746	 2.3321364551	 0.28864
H	 0.3555972261	-2.6780208438	 0.4583580482	 0.282637
H	 1.3602675189	-4.3854185613	 2.1149785788	 0.079431
71.6539	101.9186	151.1653	161.5719	227.87	241.6662	275.4938	376.9603	398.3904	440.7207	583.9736	686.7104	706.5245	721.7877	796.9841	983.3266	1015.4272	1018.6114	1071.8574	1119.5999	1121.4958	1163.4825	1246.2132	1311.0732	1395.0675	1418.12	1449.2334	1488.1022	1496.8529	1506.25	1583.0658	1788.873	1815.7872	2878.3235	2951.0318	2990.3667	3100.9146	3688.8143	3702.6331
CN=C1NN=C(N1)C=O	CN=c1[nH]nc([nH]1)C=O	
InChI=1S/C4H6N4O/c1-5-4-6-3(2-9)7-8-4/h2H,1H3,(H2,5,6,7,8)	InChI=1S/C4H6N4O/c1-5-4-6-3(2-9)7-8-4/h2H,1H3,(H2,5,6,7,8)
