17
gdb 57735	3.15502	0.87795	0.81662	1.3392	66.38	-0.2695	-0.0437	0.2258	1414.8669	0.131094	-496.125326	-496.11504	-496.114095	-496.162029	35.058	
C	-0.0872221006	 1.4988963185	 0.2762567133	-0.440058
C	 0.0375187926	-0.0228634741	 0.0812188656	 0.252766
O	 0.7834907313	-0.6174099047	 1.1301406103	-0.473332
C	-1.3314027727	-0.7013193789	-0.0581807311	-0.109134
O	-2.043534897	-0.5292126702	 1.1736980013	-0.204935
C	-3.3086266847	-0.0577482052	 1.1323547095	 0.173126
O	-3.9601179623	 0.1151601792	 2.1156047638	-0.266393
C	 0.8491221276	-0.2789130413	-1.187664953	 0.150446
O	 0.3775841307	-0.2696495265	-2.2945965348	-0.25857
H	 0.9057555221	 1.9423831672	 0.3864192895	 0.13817
H	-0.5890363685	 1.9647690438	-0.5769031542	 0.135397
H	-0.6597942042	 1.7130633827	 1.1834778877	 0.138744
H	 0.2543615747	-0.5529426695	 1.9338644086	 0.299383
H	-1.8874627063	-0.281070063	-0.9018230551	 0.133932
H	-1.1969478317	-1.7747270045	-0.2188825667	 0.133647
H	-3.6542961037	 0.1425266263	 0.1002419741	 0.088629
H	 1.9278741226	-0.4599291102	-0.9937679287	 0.10818
38.2784	59.0202	68.8199	136.8468	194.233	244.8436	266.3554	281.0055	320.5129	352.2207	368.4778	426.0865	503.0638	585.5632	709.4544	775.8823	912.7556	927.9311	984.993	993.7789	1044.8738	1061.3189	1124.0924	1134.2939	1198.6837	1232.1314	1304.1542	1352.3469	1388.0922	1403.4627	1407.4339	1428.2613	1488.2226	1493.5333	1498.6807	1833.7931	1870.5502	2916.4053	2959.5814	3042.2269	3052.7354	3109.3619	3120.641	3126.6198	3802.0743
CC(O)(COC=O)C=O	C[C@@](O)(COC=O)C=O	
InChI=1S/C5H8O4/c1-5(8,2-6)3-9-4-7/h2,4,8H,3H2,1H3	InChI=1S/C5H8O4/c1-5(8,2-6)3-9-4-7/h2,4,8H,3H2,1H3/t5-/m0/s1
