22
gdb 15434	4.1022	0.98064	0.87522	0.9137	79.95	-0.2401	0.0923	0.3324	1434.7062	0.198484	-350.191114	-350.181364	-350.18042	-350.226194	35.02	
C	 0.1445495196	 1.5006164575	 0.0539756156	-0.384961
C	 0.5260490165	 0.0308363886	 0.0162495771	-0.02939
O	 0.0944933734	-0.5748972619	 1.2243078929	-0.24702
C	 0.3783957689	-1.9358701473	 1.2926345681	 0.113797
C	 1.757377871	-2.3855530698	 1.7191294	-0.324433
C	 0.5681723331	-2.5319652591	 2.6540078442	-0.026117
C	 0.4694261471	-1.6828919291	 3.905287413	-0.186156
C	 1.2871607888	-2.2496249822	 5.0709070089	-0.372062
H	 0.6225091101	 1.9999794182	 0.901755264	 0.124868
H	 0.4607205059	 2.0002698653	-0.8666160586	 0.113782
H	-0.938341766	 1.6140302933	 0.1572188028	 0.126574
H	 0.053153833	-0.4700989204	-0.8446776174	 0.085335
H	 1.6145065768	-0.0900786141	-0.0986623616	 0.089781
H	-0.1367474065	-2.5327720977	 0.5373683893	 0.078954
H	 2.1946447616	-3.267338425	 1.2632857444	 0.106368
H	 2.4662697643	-1.5986667074	 1.9581276611	 0.11365
H	 0.1844190863	-3.5435189386	 2.7690204385	 0.080384
H	 0.7969794138	-0.6651307691	 3.672451827	 0.106767
H	-0.5844524878	-1.6001758981	 4.200817393	 0.096348
H	 1.1952601001	-1.6208469001	 5.9622163057	 0.108526
H	 0.9516268001	-3.2577979963	 5.3391049018	 0.110002
H	 2.3491436798	-2.3145126765	 4.8114101	 0.115003
63.1322	82.0478	103.6045	120.4136	203.642	233.3109	248.4914	295.7376	331.7179	418.9351	496.0175	590.8303	751.235	789.1056	818.8787	829.0669	858.8359	906.5871	965.6695	980.1754	1022.2544	1035.3995	1058.7123	1089.0952	1114.756	1143.9626	1151.5046	1185.7115	1190.9231	1202.7659	1252.5481	1288.4467	1292.5312	1341.3257	1374.834	1403.1992	1409.5793	1417.1644	1438.185	1483.2876	1483.8171	1491.7523	1498.1548	1500.2441	1508.3783	1529.5504	2966.3162	2998.4105	3027.5541	3029.6638	3044.3255	3076.0677	3076.7741	3099.737	3102.712	3118.6421	3120.7376	3125.3695	3129.0742	3213.6288
CCOC1CC1CC	CCO[C@H]1C[C@H]1CC	
InChI=1S/C7H14O/c1-3-6-5-7(6)8-4-2/h6-7H,3-5H2,1-2H3	InChI=1S/C7H14O/c1-3-6-5-7(6)8-4-2/h6-7H,3-5H2,1-2H3/t6-,7+/m1/s1
