21
gdb 97858	3.67885	0.71123	0.69218	1.6166	88.14	-0.2386	0.0449	0.2835	1776.4303	0.18267	-387.074775	-387.06495	-387.064006	-387.113328	34.574	
C	 0.3035787813	 1.048574539	 0.4857448294	-0.364016
C	-0.4962672217	 0.2150821443	-0.5318248938	-0.313815
C	 0.3405017271	-0.4141548787	-1.5481496064	 0.038421
C	 1.04566381	-0.9296132484	-2.378564182	 0.109078
C	 1.8976417683	-1.5581880278	-3.3892587932	-0.060967
C	 3.2598925496	-0.8153894951	-3.5784564322	-0.245417
C	 4.3056944958	-1.9354879482	-3.4282877119	-0.208475
C	 3.5558708307	-2.9440414367	-2.556243437	-0.075119
O	 2.2215464299	-2.9141486038	-3.0424543496	-0.245303
H	 1.0294436778	 0.4240824789	 1.0136526231	 0.127342
H	 0.8512027038	 1.8519424118	-0.0146863907	 0.125696
H	-0.3674185152	 1.4970022067	 1.2245725398	 0.113676
H	-1.0664292233	-0.5601105104	-0.0037057635	 0.131593
H	-1.2430810939	 0.8529069539	-1.0222381325	 0.128702
H	 1.3474148718	-1.6129185074	-4.3360064636	 0.10242
H	 3.3090279112	-0.3104330409	-4.5451764003	 0.110063
H	 3.3807551397	-0.0596330759	-2.7994024278	 0.116389
H	 4.5370384789	-2.3859561067	-4.3984619496	 0.108288
H	 5.2399165299	-1.5869831918	-2.9806809328	 0.101424
H	 3.9175760313	-3.9717866792	-2.6463630006	 0.107778
H	 3.595863647	-2.6524812136	-1.4941144249	 0.092242
8.7868	17.8343	84.3245	111.582	207.2362	232.7381	258.587	349.9037	384.7093	528.0278	549.5761	592.2457	695.6274	737.0562	783.4694	869.4598	879.4819	913.8853	929.0283	942.1961	976.6494	1032.2208	1077.3364	1084.9096	1101.9666	1109.0324	1166.6217	1205.6497	1211.745	1254.9874	1286.0791	1302.0289	1320.1144	1334.4824	1350.3892	1362.5964	1388.0036	1408.0569	1472.8493	1485.742	1494.6907	1499.6593	1505.2709	1519.3052	2358.8423	2973.8499	3018.7017	3029.6167	3042.8256	3045.6735	3054.3536	3073.8227	3091.7632	3104.4181	3115.8611	3121.8811	3125.2235
CCC#CC1CCCO1	CCC#C[C@H]1CCCO1	
InChI=1S/C8H12O/c1-2-3-5-8-6-4-7-9-8/h8H,2,4,6-7H2,1H3	InChI=1S/C8H12O/c1-2-3-5-8-6-4-7-9-8/h8H,2,4,6-7H2,1H3/t8-/m0/s1
