15
gdb 45380	2.27394	1.80302	1.28809	3.9746	74.68	-0.2406	-0.0065	0.2341	1001.9915	0.111923	-416.728151	-416.720326	-416.719382	-416.760403	29.923	
N	-0.0269338713	 1.0851900919	 0.5116816741	-0.537476
C	-0.0045046773	-0.0799773483	 0.0355537521	 0.32668
N	 0.9502116504	-0.9475164662	-0.5140112329	-0.33695
C	 0.0438194877	-2.0864972295	-0.6455686101	-0.099019
C	-0.2266869049	-2.8917932314	 0.6363667283	-0.098783
O	-1.2116293511	-1.9374209048	 1.0925966224	-0.312737
C	-1.1054007519	-1.1482601553	-0.1240777158	 0.21957
C	-2.3502283971	-0.847237002	-0.7690113642	 0.249956
C	-3.3856818509	-0.5924558186	-1.3227243909	-0.404273
H	 0.9037545216	 1.5050000606	 0.5484626377	 0.215083
H	 1.9255135847	-0.9966308929	-0.2501402957	 0.24198
H	 0.0544334476	-2.5923828249	-1.6096368374	 0.110243
H	-0.6828667868	-3.8732873364	 0.4595305071	 0.117086
H	 0.6144842957	-2.9948135069	 1.3311142539	 0.106562
H	-4.3034367165	-0.3578531553	-1.8035096587	 0.202078
121.4199	124.0915	171.929	251.7153	345.6067	374.1082	469.9325	489.4705	536.6322	628.1648	634.5101	657.2325	675.7889	718.1464	833.5101	853.8977	891.5546	962.9676	991.4515	1005.3978	1033.7629	1064.721	1101.6855	1128.9627	1171.7765	1240.3695	1290.5057	1333.9652	1351.2957	1357.4822	1508.8341	1800.3464	2243.0673	3022.8965	3074.0763	3128.5384	3460.4725	3500.0465	3578.2545
N=C1NC2COC12C#C	[NH][C]1N[C@H]2CO[C@@]12C#C	
InChI=1S/C6H6N2O/c1-2-6-4(3-9-6)8-5(6)7/h1,4H,3H2,(H2,7,8)	InChI=1S/C6H6N2O/c1-2-6-4(3-9-6)8-5(6)7/h1,4H,3H2,(H2,7,8)/t4-,6+/m0/s1
