13
gdb 132648	3.24476	1.41485	0.98552	1.9949	64.62	-0.2275	-0.0232	0.2043	1072.4798	0.090775	-494.102211	-494.094916	-494.093972	-494.133814	28.037	
N	-0.0092537223	 1.3740197944	-0.0641213232	-0.570358
C	-0.0117081763	 0.0159191279	-0.0418764947	 0.305537
N	-1.1795838659	-0.626763735	-0.0608208356	-0.362331
C	-1.1210479867	-1.9560974667	-0.077299181	 0.442748
O	-2.3124779045	-2.5757962505	-0.1003206494	-0.395485
N	-0.0392930621	-2.7331740742	-0.070032133	-0.371226
C	 1.1331681022	-2.0779452541	-0.0425671334	-0.097651
C	 1.1951896958	-0.7097065763	-0.0289356985	 0.165986
F	 2.360859838	-0.0393031211	 0.0044709844	-0.090825
H	 0.8410158672	 1.8602497143	 0.1619596491	 0.270384
H	-0.8861327111	 1.83602437	 0.1116486845	 0.270702
H	-2.1165025381	-3.5222868932	-0.1076051252	 0.304301
H	 2.0448083936	-2.6691223956	-0.0303672341	 0.128218
135.5638	227.2515	277.5287	315.7198	364.4686	380.3157	454.099	489.7634	513.2292	551.1821	563.3692	602.8612	740.7129	786.023	792.5474	814.7158	967.5526	986.1189	1105.229	1224.7327	1262.8943	1294.6879	1329.9844	1409.3743	1501.6389	1524.5645	1618.1273	1636.2494	1667.962	3172.0428	3609.6829	3739.5916	3785.9447
NC1=NC(O)=NC=C1F	Nc1nc(O)ncc1F	
InChI=1S/C4H4FN3O/c5-2-1-7-4(9)8-3(2)6/h1H,(H3,6,7,8,9)	InChI=1S/C4H4FN3O/c5-2-1-7-4(9)8-3(2)6/h1H,(H3,6,7,8,9)
