20
gdb 62958	2.13858	1.83302	1.4477	0.8575	78.46	-0.2418	0.0777	0.3195	1029.9168	0.169328	-403.085526	-403.076833	-403.075889	-403.1182	33.97	
C	-0.1529419351	 1.5565191115	 0.1010560166	-0.434437
C	-0.0055814048	 0.0435451135	 0.0247713855	 0.202073
C	-1.3517711011	-0.6377210677	-0.2008164572	-0.419472
N	 0.9534610247	-0.4865961396	-1.0422870545	-0.154122
C	 2.3087550728	-0.0150990206	-0.7194603549	-0.254376
C	 1.7751356284	-1.1541369474	 0.0553805241	-0.12912
C	 0.838399448	-0.650238916	 1.1161177062	 0.432244
O	 1.2519259722	-0.070088591	 2.3436884905	-0.276497
C	 0.4310481207	-1.248723421	 2.383536511	-0.279113
H	 0.7866066763	 2.0637017955	 0.3289761894	 0.125129
H	-0.5368352981	 1.9442779525	-0.8483957001	 0.123902
H	-0.8624909681	 1.8234289376	 0.8903778172	 0.124312
H	-1.8005386462	-0.2822323576	-1.1334985243	 0.124154
H	-1.2315596039	-1.7219493669	-0.2772336034	 0.119384
H	-2.0425608989	-0.4194135229	 0.6199559123	 0.111401
H	 3.0239881099	-0.241773699	-1.5043844652	 0.124002
H	 2.4617948553	 0.9442068588	-0.2349211543	 0.124505
H	 2.1494843578	-2.167740403	-0.0414401513	 0.100864
H	-0.5820813626	-1.1016700366	 2.7552979407	 0.11781
H	 0.9286600226	-2.1489223703	 2.7432004016	 0.117354
126.1893	158.328	188.6943	230.9427	251.8217	293.0508	316.3667	357.6604	436.3945	513.3308	548.3702	578.0902	652.5132	762.167	763.7122	864.4466	898.102	910.5847	947.1675	954.2512	988.3757	1010.518	1035.5579	1046.8272	1108.4364	1119.8285	1124.1344	1153.665	1168.3442	1191.5016	1229.9321	1246.744	1277.3962	1322.5065	1399.6642	1415.3869	1453.6521	1475.8784	1478.2205	1495.5537	1501.4467	1510.5272	1542.2062	3036.2001	3042.7173	3079.7631	3105.4994	3111.7521	3115.8635	3119.6386	3128.2066	3164.4548	3167.1247	3206.7737
CC1(C)N2CC2C11OC1	CC1(C)N2C[C@H]2[C@]21OC2	
InChI=1S/C7H11NO/c1-6(2)7(4-9-7)5-3-8(5)6/h5H,3-4H2,1-2H3	InChI=1S/C7H11NO/c1-6(2)7(4-9-7)5-3-8(5)6/h5H,3-4H2,1-2H3/t5-,7+,8?/m0/s1
