17
gdb 66520	4.92517	1.31543	1.28396	3.4226	75.63	-0.2201	-0.0048	0.2152	1014.6996	0.136495	-384.636271	-384.629308	-384.628364	-384.667431	28.064	
C	 0.0949234397	 1.5317660017	 0.0412296127	-0.527627
C	-0.0168224972	 0.0451609387	-0.0042282945	 0.343058
C	 0.8732026113	-1.0250954051	-0.5911980223	-0.127003
C	 0.4899970874	-1.0422963401	 0.9137542755	-0.127013
C	-0.7998405243	-1.8815529158	 0.8786577319	-0.192533
C	-1.2119835113	-0.925152823	-0.3196882862	-0.116317
C	-0.2717337997	-1.857966528	-1.1951176096	-0.192545
C	-0.5608100636	-2.9777047388	-0.1771985429	 0.446609
O	-0.737713545	-4.1586808277	-0.2356727842	-0.328264
H	 1.1150029378	 1.8331357598	 0.3043635794	 0.125967
H	-0.1441474843	 1.9827119758	-0.9290045758	 0.124109
H	-0.5813897741	 1.9630698253	 0.7885176654	 0.12411
H	 1.9029932137	-0.9621219986	-0.9174217785	 0.095245
H	 1.2380657051	-0.9919911694	 1.6939596143	 0.095247
H	-1.3815330971	-2.040220291	 1.7830099111	 0.08541
H	-2.2399092439	-0.6887453977	-0.578773491	 0.08614
H	-0.3492269945	-1.9941249461	-2.2706867554	 0.085406
123.9504	197.0519	213.7085	284.9357	411.3817	516.4023	580.4087	643.8455	714.0002	716.3508	781.6128	792.1551	827.1702	848.9974	872.8714	896.832	911.0369	975.1761	978.3723	989.7612	1014.8591	1038.6226	1083.8037	1109.3277	1146.5473	1160.2263	1170.0984	1187.0837	1202.1137	1212.4086	1246.5799	1261.8808	1410.7324	1461.1289	1481.478	1496.6711	1889.2578	3019.7352	3080.1151	3090.7065	3152.8855	3154.9213	3164.6544	3196.8412	3205.8383
CC12C3C1C1C2C3C1=O	C[C@@]12[C@H]3[C@@H]1[C@H]1[C@@H]2[C@@H]3C1=O	
InChI=1S/C8H8O/c1-8-4-2-5(8)6(8)3(4)7(2)9/h2-6H,1H3	InChI=1S/C8H8O/c1-8-4-2-5(8)6(8)3(4)7(2)9/h2-6H,1H3/t2-,3+,4-,5+,6-,8+
