18
gdb 63315	2.57358	1.61276	1.31431	3.5645	73.3	-0.2613	0.0057	0.267	1039.5239	0.146772	-439.093134	-439.084867	-439.083923	-439.125571	32.073	
C	 0.179324531	 1.4514163363	-0.0970593056	-0.42231
C	-0.0917971116	-0.0418011629	 0.0493190067	 0.319003
C	-1.5816020648	-0.3719766687	 0.1281067503	-0.423394
O	 0.4593899674	-0.7047375091	-1.1319681457	-0.280012
C	 1.2110086347	-1.7971679449	-0.8077321872	 0.419575
N	 1.6170289467	-2.6827484947	-1.6108057603	-0.550645
C	 1.4672685319	-1.7817150365	 0.6610463143	-0.057288
O	 2.0798072688	-0.5441811546	 1.0800819394	-0.250944
C	 0.6699475068	-0.6802076547	 1.2066992685	 0.004828
H	 1.2553745226	 1.6330846365	-0.124344763	 0.146877
H	-0.2682978144	 1.8276186662	-1.0207844825	 0.129081
H	-0.2516898698	 2.0022640738	 0.7446614854	 0.118602
H	-2.0882948012	-0.0348398953	-0.7797672664	 0.135892
H	-1.7392870396	-1.4499983533	 0.2295875471	 0.127516
H	-2.042214175	 0.1277165011	 0.9863031297	 0.122703
H	 1.2836873373	-2.4901324941	-2.5574083697	 0.224769
H	 1.7664834955	-2.6803986186	 1.1859362681	 0.126503
H	 0.2620527936	-0.6643305665	 2.2135411112	 0.109245
103.347	185.6979	218.3279	246.1954	268.158	322.0325	330.4063	397.5532	455.8522	526.4648	598.2365	636.6609	722.1383	828.8791	858.5955	878.3677	886.8856	907.5395	935.8969	944.1749	958.9748	1010.4511	1039.8996	1085.8817	1113.2041	1179.0984	1220.3183	1242.9725	1251.7656	1319.7754	1356.2633	1397.5697	1409.8524	1421.9908	1477.2281	1483.8159	1496.4616	1507.4778	1779.7579	3039.7976	3048.6365	3111.9015	3119.0969	3125.5951	3141.7621	3158.2241	3206.3234	3469.8472
CC1(C)OC(=N)C2OC12	CC1(C)O[C]([NH])[C@H]2O[C@@H]12	
InChI=1S/C6H9NO2/c1-6(2)4-3(8-4)5(7)9-6/h3-4,7H,1-2H3	InChI=1S/C6H9NO2/c1-6(2)4-3(8-4)5(7)9-6/h3-4,7H,1-2H3/t3-,4+/m0/s1
