15
gdb 24670	4.6165	1.19533	1.01301	2.8556	74.75	-0.2544	-0.044	0.2105	1134.1548	0.114979	-416.834023	-416.827055	-416.826111	-416.866022	25.949	
C	 0.3828389253	 1.5300229477	 0.157484028	-0.174159
O	 1.1439499069	 0.4096779475	-0.2684688148	-0.221662
C	-0.2223199634	 0.187600046	 0.0938537877	-0.000545
C	-0.4668524795	-0.6104336343	 1.3294526936	 0.364335
N	 0.3290981917	-0.3885540966	 2.3820528267	-0.278902
C	 0.0939719125	-1.1253076172	 3.4649994723	 0.009962
C	-0.9249669463	-2.0720686492	 3.517653281	-0.13077
C	-1.6976469123	-2.2071720657	 2.3720856021	 0.007672
N	-1.4767183746	-1.4855414808	 1.2707571363	-0.289821
H	 0.6533872904	 1.9286141684	 1.1326827733	 0.130896
H	 0.1348267458	 2.256960056	-0.6150684297	 0.116625
H	-0.8868004165	-0.0640921202	-0.7290474801	 0.108415
H	 0.7415114344	-0.9494116887	 4.3214819655	 0.121999
H	-1.1067947294	-2.6668326041	 4.4043803176	 0.114754
H	-2.5199808949	-2.9178575289	 2.3274031106	 0.121201
68.6929	146.02	193.9154	327.1657	406.4258	412.2674	555.7229	625.408	644.8456	796.6786	827.2624	836.0196	870.667	919.7401	999.2891	1009.416	1010.9992	1018.5793	1094.063	1103.9543	1119.6483	1159.7904	1173.4825	1246.406	1265.808	1279.0051	1321.1974	1416.8857	1466.841	1475.7544	1509.6623	1602.6016	1619.3708	3086.8939	3151.4267	3152.9767	3156.417	3186.9249	3211.5336
C1OC1C1=NC=CC=N1	C1O[C@H]1c1ncccn1	
InChI=1S/C6H6N2O/c1-2-7-6(8-3-1)5-4-9-5/h1-3,5H,4H2	InChI=1S/C6H6N2O/c1-2-7-6(8-3-1)5-4-9-5/h1-3,5H,4H2/t5-/m1/s1
