17
gdb 100504	2.14435	1.37848	1.01515	1.364	65.49	-0.2561	-0.097	0.159	1209.4007	0.131843	-496.120338	-496.110026	-496.109082	-496.156898	35.59	
C	 0.5004607836	 1.0673314681	 0.3226203577	-0.480688
C	 0.080378202	-0.3575220381	 0.0906265717	 0.329367
O	-0.3299432324	-1.1019505494	 0.952864563	-0.296382
C	 0.1523919422	-0.8618904906	-1.3662547506	 0.287096
O	 0.2660039569	-0.0819718297	-2.2869681335	-0.311304
C	 0.0388425188	-2.3560072081	-1.6209951863	-0.01698
O	-0.2789475276	-2.6037459619	-2.9657282849	-0.426282
C	 1.3787926433	-3.0573215531	-1.2678758836	-0.07951
O	 1.8909211396	-2.7288083534	 0.0061769449	-0.419556
H	 1.5770979514	 1.1571874457	 0.135206963	 0.163857
H	 0.0059740747	 1.7305605077	-0.3920860387	 0.164204
H	 0.279532501	 1.3582766931	 1.3494694276	 0.147837
H	-0.7552428899	-2.7555494113	-0.9776157306	 0.114539
H	-0.0644311641	-1.7893669371	-3.4455291532	 0.294177
H	 1.2311661783	-4.1385120598	-1.3984236248	 0.110925
H	 2.125753934	-2.7338876228	-2.0001140931	 0.120404
H	 1.1967995681	-2.8684712292	 0.6608665315	 0.298299
24.3708	72.7063	112.4789	122.9535	179.2366	197.287	284.6236	318.6657	331.4809	376.9067	407.2606	456.2261	488.4271	525.0394	599.1961	718.1428	772.9792	908.1902	989.9751	1001.1256	1049.1924	1061.2552	1094.2972	1134.2113	1186.391	1244.5103	1293.8296	1334.5455	1366.3366	1384.3966	1417.0039	1441.2747	1453.7839	1459.733	1509.043	1788.9479	1797.4795	3009.2084	3037.8906	3045.9421	3085.4552	3112.8054	3166.1676	3714.224	3797.1853
CC(=O)C(=O)C(O)CO	CC(=O)C(=O)[C@@H](O)CO	
InChI=1S/C5H8O4/c1-3(7)5(9)4(8)2-6/h4,6,8H,2H2,1H3	InChI=1S/C5H8O4/c1-3(7)5(9)4(8)2-6/h4,6,8H,2H2,1H3/t4-/m0/s1
