15
gdb 25985	5.12857	1.0504	0.87239	2.8358	70.32	-0.1988	0.0217	0.2205	1247.6982	0.11564	-450.213177	-450.205287	-450.204343	-450.245897	29.71	
N	-0.1146173928	 1.3708879873	 0.1335009249	-0.571404
C	 0.0886771174	 0.007464807	 0.0604545779	 0.482402
O	 1.2048772597	-0.4918890708	 0.0515210074	-0.407726
N	-1.069476138	-0.7355480038	 0.0424485362	-0.456081
C	-1.1215957785	-2.1257119318	 0.0141720209	 0.490354
N	-2.2430807254	-2.806242306	 0.0158216451	-0.364694
C	-1.8382005624	-4.1277020932	-0.0194234584	-0.090545
C	-0.4750016314	-4.2195711867	-0.0430110011	-0.116543
N	-0.0193274212	-2.9123788618	-0.0214450198	-0.278684
H	 0.719806932	 1.9062782964	-0.0487830864	 0.269841
H	-0.9619666811	 1.7635048844	-0.2460332272	 0.256897
H	-1.9711041502	-0.2969769833	 0.144769402	 0.267357
H	-2.5597648005	-4.9297233323	-0.026534306	 0.105124
H	 0.2034151427	-5.0549630938	-0.0728517099	 0.124982
H	 0.9184214898	-2.5377765916	-0.0120613256	 0.288721
81.6645	95.9699	189.196	309.2157	349.5132	378.8768	398.7788	496.5043	515.6833	608.7992	633.1319	679.9764	701.1811	744.5764	762.7501	815.7356	846.9544	936.1965	979.7087	1050.5397	1084.6688	1099.5668	1138.6493	1189.6194	1289.0454	1309.3371	1376.3704	1477.24	1534.9374	1552.9	1628.1237	1638.1234	1778.5011	3254.5794	3287.1601	3586.2767	3614.709	3642.3357	3703.1442
NC(=O)NC1=NC=CN1	NC(=O)Nc1ncc[nH]1	
InChI=1S/C4H6N4O/c5-3(9)8-4-6-1-2-7-4/h1-2H,(H4,5,6,7,8,9)	InChI=1S/C4H6N4O/c5-3(9)8-4-6-1-2-7-4/h1-2H,(H4,5,6,7,8,9)
