22
gdb 122288	4.55039	0.77478	0.74601	2.6247	84.	-0.2251	0.0814	0.3065	1635.5342	0.194079	-404.260303	-404.251083	-404.250139	-404.295509	33.93	
C	 0.0425966866	 1.4997891543	 0.062840425	-0.385332
C	 0.0223497019	-0.0191168505	 0.0394242254	-0.017547
O	 0.71478403	-0.4968560188	 1.1755192731	-0.251175
C	 0.7586548588	-1.9048016913	 1.2547243283	-0.222247
C	 1.5177674115	-2.2850657975	 2.4976765036	 0.321606
C	 1.2065625718	-1.9487714353	 3.9747112547	-0.194519
N	 2.4987326612	-2.7774801181	 4.1040426539	-0.147757
C	 1.848660989	-3.6908188131	 3.0469586067	-0.217996
C	 2.9762996291	-1.9552661278	 2.8919966034	-0.194535
H	 1.0716365846	 1.8696910902	 0.044818471	 0.127044
H	-0.4869046023	 1.9018671636	-0.8060379568	 0.115173
H	-0.4406426719	 1.8756017795	 0.9691090584	 0.127052
H	-1.0156957445	-0.3933421841	 0.042557624	 0.085334
H	 0.4965131544	-0.3992686129	-0.8815718525	 0.085332
H	-0.2615415458	-2.3269028785	 1.2900516171	 0.085175
H	 1.2526452223	-2.3317922599	 0.3637397086	 0.085176
H	 1.3180338894	-0.9111499679	 4.2979198109	 0.106469
H	 0.3373146264	-2.4229729775	 4.4399792452	 0.095141
H	 1.0285011524	-4.2982477074	 3.4410687622	 0.098003
H	 2.5697234582	-4.3038862793	 2.4981624793	 0.098
H	 3.7837623865	-2.435618165	 2.3314597917	 0.095138
H	 3.2188550104	-0.9181265927	 3.1350181168	 0.106464
46.1301	72.3826	94.4294	128.5902	244.1041	257.4169	313.3492	337.221	472.4212	582.5406	591.9428	690.4075	775.1197	794.4354	819.5422	896.8381	901.4822	915.4489	942.8245	977.0786	1005.1117	1022.7593	1044.168	1051.6689	1133.4466	1157.8504	1164.4286	1165.2434	1169.8708	1180.1318	1196.2226	1197.5291	1200.9305	1270.167	1278.4615	1295.2787	1334.3626	1386.1946	1404.9732	1451.9565	1482.8857	1498.4011	1506.3228	1511.3363	1511.707	1533.1267	1566.0824	2937.3879	2955.0421	2965.2909	2976.9828	3041.3327	3045.0959	3047.6387	3056.312	3107.7052	3118.8564	3119.8402	3121.9627	3122.9893
CCOCC12CN(C1)C2	CCOC[C@@]12CN(C1)C2	
InChI=1S/C7H13NO/c1-2-9-6-7-3-8(4-7)5-7/h2-6H2,1H3	InChI=1S/C7H13NO/c1-2-9-6-7-3-8(4-7)5-7/h2-6H2,1H3
