19
gdb 49174	3.68921	1.15952	0.97645	3.8768	85.58	-0.2421	-0.0476	0.1945	1223.1801	0.161264	-385.917045	-385.909339	-385.908395	-385.949237	30.376	
O	-0.1688718813	-0.0001458609	 0.0180264723	-0.286067
C	-0.0315830256	 1.2024756491	 0.0882644181	 0.087108
C	 1.2531011063	 1.9062439223	 0.0038501267	 0.199439
C	 1.2649845257	 3.2517855394	 0.0593962407	-0.112414
C	 2.4963738276	 4.0501224312	-0.026563207	-0.073573
C	 3.6552930891	 3.7357051997	 0.9243427198	-0.287121
C	 3.747693561	 3.3281660334	-0.5116775338	-0.020191
C	 3.5901742352	 1.8847834566	-0.9570801733	-0.226504
C	 2.5211266199	 1.1079087515	-0.1644830483	-0.331159
H	-0.9115358389	 1.8731766561	 0.2213393193	 0.060552
H	 0.3210886533	 3.7844303978	 0.1626306658	 0.099335
H	 2.3717652826	 5.0938119158	-0.2930742377	 0.091707
H	 4.2511612164	 4.5764324898	 1.2619319011	 0.119253
H	 3.4787036695	 2.9803831691	 1.6814457601	 0.126668
H	 4.4116635236	 3.9232517771	-1.1319565117	 0.092339
H	 3.3126529932	 1.8874071278	-2.0186043663	 0.107874
H	 4.5505486524	 1.3619194445	-0.8866535919	 0.105229
H	 2.9148289604	 0.8289512639	 0.8214225442	 0.117841
H	 2.2831904497	 0.1620008555	-0.6590603983	 0.129684
92.9308	181.3263	214.1536	243.3759	333.586	364.6566	457.6015	466.6967	576.9575	599.6286	712.9711	751.0621	779.6325	821.2203	862.3168	867.2429	937.4387	950.3345	982.5406	1018.4071	1038.2206	1059.4312	1073.5159	1102.7599	1119.7917	1131.4637	1187.789	1215.5519	1228.4691	1264.5825	1325.1936	1354.0241	1385.1494	1398.3561	1416.6936	1430.0933	1481.1509	1488.6145	1501.743	1687.1091	1780.8588	2864.447	3023.3065	3028.4183	3066.462	3091.4252	3139.612	3141.6831	3149.1487	3170.2113	3227.465
O=CC1=CC2CC2CC1	O=CC1=C[C@H]2C[C@H]2CC1	
InChI=1S/C8H10O/c9-5-6-1-2-7-4-8(7)3-6/h3,5,7-8H,1-2,4H2	InChI=1S/C8H10O/c9-5-6-1-2-7-4-8(7)3-6/h3,5,7-8H,1-2,4H2/t7-,8+/m1/s1
