14
gdb 129757	3.2025	1.43323	1.05469	3.9035	65.74	-0.2211	-0.0377	0.1834	1065.9456	0.10098	-469.949967	-469.942355	-469.941411	-469.982573	28.012	
N	-0.4142277052	 0.9591517894	 0.9855363804	-0.603414
C	-0.1826515996	-0.1664051555	 0.2196750694	 0.196723
C	-0.9850004351	-0.8501413317	-0.6496899176	 0.340802
O	-0.2408540746	-1.8140010636	-1.2260891413	-0.220331
N	 1.0475225257	-1.7207895337	-0.670265765	-0.016232
N	 1.0552115196	-0.7642041958	 0.1571493918	-0.17125
C	-2.4034124593	-0.7114297244	-1.0126552647	-0.053691
C	-3.4783012057	-1.0947309427	-0.0748164957	-0.165479
O	-3.1118276623	 0.2752949712	-0.2551766232	-0.227851
H	 0.1396984988	 0.9958805712	 1.8293442045	 0.260869
H	-1.3967442845	 1.1377289063	 1.1402828408	 0.265678
H	-2.6308583288	-0.7250728404	-2.0783420487	 0.129525
H	-4.4561173504	-1.3667800746	-0.4675487779	 0.134078
H	-3.2120342586	-1.5284865459	 0.8864016872	 0.130573
64.0654	145.7832	176.6926	298.3398	311.4042	379.7459	402.4958	471.0925	632.741	662.6624	691.2554	727.5868	758.1763	775.8792	871.2533	898.1782	1001.4105	1022.414	1079.505	1089.674	1153.6153	1164.5071	1222.7902	1260.6946	1293.0069	1376.4613	1444.6341	1481.5714	1518.9961	1619.6791	1698.8989	3096.2114	3115.7918	3193.0762	3558.6125	3666.3944
NC1=C(ON=N1)C1CO1	Nc1c(onn1)[C@H]1CO1	
InChI=1S/C4H5N3O2/c5-4-3(2-1-8-2)9-7-6-4/h2H,1,5H2	InChI=1S/C4H5N3O2/c5-4-3(2-1-8-2)9-7-6-4/h2H,1,5H2/t2-/m1/s1
