23
gdb 102054	1.8019	1.45256	1.01473	1.9015	82.62	-0.2422	-0.0317	0.2105	1321.8174	0.200775	-425.432759	-425.421362	-425.420418	-425.469087	41.051	
C	 0.3281802968	 1.3280044343	-0.0548572373	-0.245093
O	 0.2009185178	-0.0598212065	 0.1773726809	-0.249256
C	-1.1131537686	-0.5521430756	-0.0086291141	 0.034095
C	-1.3970317964	-0.653210304	-1.5068507133	 0.136894
O	-2.4922207055	-0.6489671931	-2.0064537068	-0.250642
C	-1.2377163735	-1.9299485393	 0.7103057584	 0.227652
C	-0.8663022857	-1.7293225883	 2.1913992291	-0.412065
C	-2.6890371189	-2.4309510107	 0.614478149	-0.417414
C	-0.2782604724	-2.9523738245	 0.0709420402	-0.41928
H	 1.3757251745	 1.5881479088	 0.1128103811	 0.133476
H	 0.0568738195	 1.606904242	-1.0842711336	 0.113806
H	-0.3014279148	 1.9105229024	 0.6343649607	 0.114093
H	-1.854262259	 0.1342335179	 0.4313654039	 0.083766
H	-0.4702022831	-0.7411822412	-2.1200487719	 0.089296
H	-1.5360363278	-1.006865218	 2.6714421734	 0.105659
H	-0.9566457971	-2.6775051339	 2.7317998413	 0.109198
H	 0.1577190379	-1.366131407	 2.2968471634	 0.129194
H	-3.0126801089	-2.5678271964	-0.419860437	 0.135199
H	-2.7811406572	-3.3921787718	 1.1306848036	 0.110551
H	-3.3834564795	-1.7294801248	 1.0893766334	 0.112372
H	 0.7481565949	-2.5764702541	 0.0652885166	 0.130995
H	-0.2961174045	-3.8898046521	 0.6360125313	 0.112875
H	-0.5642050488	-3.1867918142	-0.9602975023	 0.114628
54.9017	87.0866	113.4674	175.5615	187.8734	211.3284	249.0519	252.9921	270.1442	295.1448	319.3156	334.3658	375.6783	419.2788	455.1354	520.2897	563.0889	751.8936	876.0402	936.1	942.055	965.4511	980.3611	998.1998	1050.8863	1065.1566	1086.6798	1140.0631	1182.3232	1205.2913	1229.4453	1253.7968	1267.2989	1305.735	1345.8248	1394.082	1398.418	1404.2915	1432.613	1477.3018	1480.3197	1486.314	1489.2325	1490.2986	1501.8152	1504.5579	1508.2195	1520.7459	1830.7948	2866.6852	2976.6921	2984.1774	3028.3706	3030.0001	3032.5492	3038.7721	3091.7417	3096.1081	3099.9558	3120.3092	3120.4504	3126.1312	3131.7323
COC(C=O)C(C)(C)C	CO[C@@H](C=O)C(C)(C)C	
InChI=1S/C7H14O2/c1-7(2,3)6(5-8)9-4/h5-6H,1-4H3	InChI=1S/C7H14O2/c1-7(2,3)6(5-8)9-4/h5-6H,1-4H3/t6-/m0/s1
