21
gdb 104010	2.92639	1.44234	1.28817	2.6877	77.43	-0.243	0.0818	0.3248	1082.9767	0.183633	-424.203697	-424.195521	-424.194576	-424.235998	33.21	
C	-0.0761019102	 1.5504667341	 0.0526929853	-0.445228
C	-0.0283642705	 0.0248377795	 0.1371330582	 0.391822
C	-1.4665831185	-0.5235989493	 0.0810608604	-0.105208
O	-2.0259556974	-0.3204996904	-1.2026629712	-0.422729
O	 0.6938332551	-0.5162353986	-1.0211360561	-0.341987
C	 1.782761565	-1.2308940145	-0.4037207185	 0.117099
C	 1.105100241	-2.0176021157	 0.7408714224	-0.247764
C	 0.8635707835	-0.5581147974	 1.2574560855	-0.109853
C	 2.2894508974	-0.255084589	 0.6840427642	-0.243331
H	-0.5023235564	 1.9652776287	 0.9728992113	 0.110997
H	 0.9100571898	 1.9894095536	-0.1011373448	 0.116026
H	-0.7189993376	 1.8432905772	-0.7811038875	 0.139613
H	-1.4928315005	-1.5857031544	 0.357822504	 0.082284
H	-2.0982558028	 0.0183992135	 0.7936262588	 0.101875
H	-1.3600230667	-0.647240655	-1.8218175383	 0.289863
H	 2.409491697	-1.6765137666	-1.1746692541	 0.080471
H	 0.2564184752	-2.6530347426	 0.4875802783	 0.102745
H	 1.8154836856	-2.5607938864	 1.3659761744	 0.103015
H	 0.5833850296	-0.334800908	 2.286454098	 0.073951
H	 3.0821835139	-0.6795548713	 1.3019619762	 0.103045
H	 2.5421531776	 0.7610362026	 0.3814619936	 0.103293
102.763	182.0709	193.1842	255.8281	298.244	370.5245	417.6715	490.2754	495.7938	522.9027	557.7993	630.38	749.5293	833.9134	840.1136	844.5203	873.6442	909.9928	926.7003	952.1346	970.8487	991.1343	1041.2051	1043.0658	1063.6093	1076.9528	1096.7691	1121.5103	1154.2805	1189.7922	1208.8807	1215.1859	1243.3757	1254.3407	1259.0194	1307.8789	1326.6421	1378.6849	1405.6587	1439.0443	1476.9338	1485.0454	1500.0042	1510.7975	1526.2743	3008.2432	3043.5166	3067.6491	3081.6813	3087.5219	3116.1952	3124.175	3136.8537	3139.4137	3145.8685	3151.5029	3768.138
CC1(CO)OC2CC1C2	C[C@@]1(CO)O[C@@H]2C[C@H]1C2	
InChI=1S/C7H12O2/c1-7(4-8)5-2-6(3-5)9-7/h5-6,8H,2-4H2,1H3	InChI=1S/C7H12O2/c1-7(4-8)5-2-6(3-5)9-7/h5-6,8H,2-4H2,1H3/t5-,6+,7-/m0/s1
