22
gdb 96167	2.61597	1.38895	0.99353	1.1085	82.06	-0.2217	0.0767	0.2984	1232.3934	0.196604	-404.330611	-404.322317	-404.321373	-404.362961	33.625	
O	-0.0838079434	 1.4762611576	 0.0643779678	-0.442839
C	-0.0022372732	 0.0560013205	-0.0309425536	 0.144842
C	 0.7570321543	-0.5160756042	 1.175550945	-0.2143
C	 0.9143478382	-2.0443471633	 1.2345492492	-0.202022
C	-0.4067749665	-2.8200099402	 1.3130273691	-0.144327
N	-0.987737505	-3.0107454808	-0.0157585366	-0.078158
C	-2.4348242384	-2.8873518918	-0.1600400833	-0.268515
C	-1.5292046088	-1.8422040069	-0.714899623	 0.009747
C	-1.4478511641	-0.4472362221	-0.1305060242	-0.22914
H	 0.8056846968	 1.8164099107	 0.204849386	 0.277573
H	 0.5284656044	-0.2280025788	-0.956723778	 0.062881
H	 1.7584390998	-0.0625976789	 1.1938081685	 0.080092
H	 0.244031511	-0.1654905428	 2.0813262858	 0.101874
H	 1.4761148653	-2.4088214248	 0.365883918	 0.108794
H	 1.5159539496	-2.2858761766	 2.1181952759	 0.096568
H	-0.2263067378	-3.8197194072	 1.72479865	 0.100936
H	-1.0908594056	-2.3126448916	 2.0147461954	 0.080558
H	-2.9157140775	-3.6146813484	-0.8093858198	 0.111629
H	-3.0130543709	-2.6192884391	 0.7241774489	 0.105388
H	-1.3246956202	-1.8733645511	-1.7853503628	 0.087457
H	-1.9212163555	-0.3903731251	 0.8554555116	 0.098969
H	-1.9976875725	 0.241735675	-0.7806387798	 0.111992
135.9378	174.2761	262.2694	291.7891	296.9068	307.8102	345.5986	413.1664	434.8845	472.7185	528.0519	558.5416	719.2428	810.9595	832.7885	863.5585	901.1637	924.9001	967.3066	975.6069	1043.6191	1049.8742	1065.9439	1073.6158	1093.3203	1117.0411	1126.6353	1139.2008	1182.0682	1210.7604	1242.1728	1246.8517	1273.1738	1296.5242	1322.4786	1337.6163	1352.9705	1376.1993	1391.9046	1401.1294	1428.0944	1441.5178	1479.3091	1481.4737	1491.6198	1503.3347	1521.4388	2944.1491	2953.6725	3000.5036	3029.3538	3042.1642	3045.0008	3051.2321	3073.8384	3080.7579	3084.501	3101.7174	3170.2176	3814.57
OC1CCCN2CC2C1	O[C@H]1CCCN2C[C@H]2C1	
InChI=1S/C7H13NO/c9-7-2-1-3-8-5-6(8)4-7/h6-7,9H,1-5H2	InChI=1S/C7H13NO/c9-7-2-1-3-8-5-6(8)4-7/h6-7,9H,1-5H2/t6-,7+,8?/m1/s1
