21
gdb 119594	4.03183	0.99717	0.92052	0.9657	84.88	-0.2235	0.0233	0.2469	1367.3407	0.182761	-387.076749	-387.067963	-387.067019	-387.110474	33.322	
C	-0.1143848358	 1.406833112	 0.9803029794	-0.221017
O	-0.0542693574	 0.0125504731	 1.1542024477	-0.235045
C	 0.7463678054	-0.630022278	 0.1855070866	-0.165417
C	 0.7495409427	-2.1173941001	 0.4397229861	 0.314956
C	-0.4765102215	-2.8179273857	 0.9899570154	-0.317522
C	 0.7799256609	-2.7431282976	 1.8258390753	-0.072726
C	 1.7513850601	-3.9226413069	 1.7861662493	-0.280258
C	 2.1631696559	-3.9890839452	 0.3288138054	-0.078756
C	 1.6378832516	-2.9917921078	-0.3864865898	-0.157896
H	-0.5480252331	 1.6787466848	 0.0047639167	 0.104007
H	-0.7494705306	 1.8090603891	 1.7733965213	 0.126657
H	 0.8819431055	 1.8712895822	 1.0522875019	 0.104199
H	 0.360301545	-0.4167576256	-0.8282697348	 0.083378
H	 1.7782930282	-0.2376267919	 0.2231777501	 0.087208
H	-1.2958107913	-2.1833902811	 1.3078155511	 0.121303
H	-0.7629132286	-3.7664895268	 0.5463384031	 0.101759
H	 0.7486634756	-2.1086050617	 2.7028417259	 0.093429
H	 2.6196887766	-3.756104281	 2.4384486695	 0.10458
H	 1.2889003071	-4.8586034214	 2.1266312485	 0.107652
H	 2.7893484416	-4.7808426691	-0.0674554196	 0.09143
H	 1.7914982321	-2.8304925514	-1.4485635093	 0.088082
77.9297	86.7965	146.6819	216.0933	239.4784	282.2958	349.7083	400.1625	419.1076	496.0931	657.5563	736.5059	746.625	774.7789	828.8426	875.6005	923.1355	934.7195	957.1692	972.0277	996.592	1027.0896	1059.6261	1080.5636	1084.8087	1099.4549	1136.0781	1160.7035	1186.7369	1191.219	1214.6458	1246.4903	1265.7843	1281.3495	1317.2364	1352.9845	1400.2202	1432.0068	1469.6933	1480.2116	1484.2388	1485.0452	1503.4701	1528.3586	1670.1661	2930.7587	2955.2241	2970.5741	3010.3534	3013.3525	3036.9213	3113.1589	3125.9148	3176.1037	3188.5346	3203.0439	3222.8812
COCC12CC1CC=C2	COC[C@]12C[C@H]1CC=C2	
InChI=1S/C8H12O/c1-9-6-8-4-2-3-7(8)5-8/h2,4,7H,3,5-6H2,1H3	InChI=1S/C8H12O/c1-9-6-8-4-2-3-7(8)5-8/h2,4,7H,3,5-6H2,1H3/t7-,8+/m1/s1
