19
gdb 115616	3.09782	1.03853	0.93024	2.6981	71.78	-0.2542	0.0561	0.3104	1326.3861	0.157264	-460.117983	-460.108722	-460.107778	-460.152435	33.688	
C	 0.0237520472	 1.5912749259	-0.0474392298	-0.419393
C	 0.065120153	 0.0859072304	-0.040982086	-0.015803
O	 1.3694677647	-0.5318938744	-0.0633988415	-0.283603
C	 0.5781355887	-0.6854038391	 1.0922386907	 0.336529
C	 1.0025771998	-0.2749189192	 2.4983821468	-0.153224
O	 0.5361448921	-1.5428436508	 3.0178365579	-0.31237
C	 0.1594272235	-2.0251077276	 1.6952459606	 0.023676
C	-1.3099844513	-2.4122397739	 1.6862349273	-0.069936
O	-1.5640911439	-3.4031254025	 2.6611797234	-0.417824
H	 0.7544374217	 2.0072544283	 0.651281864	 0.12918
H	 0.2476742399	 1.9777140863	-1.0467564899	 0.136606
H	-0.9729943879	 1.9467022751	 0.2352426665	 0.127877
H	-0.6532453397	-0.4049764235	-0.7001349848	 0.0988
H	 2.0844334487	-0.1484497913	 2.6245247956	 0.120029
H	 0.4775941147	 0.5760855117	 2.9486355143	 0.111476
H	 0.7892747176	-2.8712620387	 1.3929004816	 0.099353
H	-1.9245543886	-1.512430777	 1.8526840294	 0.08159
H	-1.5866961388	-2.835432995	 0.7141495965	 0.111659
H	-1.2036677913	-3.0596758849	 3.4881273874	 0.295378
80.6598	96.5091	112.6844	182.5599	198.9423	227.3311	291.2429	391.817	440.8738	455.191	493.1934	545.4069	587.1851	793.0539	816.0336	869.291	915.2905	984.0214	1001.4592	1029.9527	1034.7217	1068.8891	1101.495	1116.898	1127.2691	1143.5939	1155.9242	1204.7036	1214.4947	1268.5407	1311.5241	1335.1354	1369.7342	1394.1987	1410.7845	1433.4013	1475.8033	1490.6055	1498.5619	1512.3426	1535.6393	2971.2898	3019.744	3036.6285	3038.6882	3068.3253	3071.4826	3092.4411	3104.9471	3124.9625	3785.4703
CC1OC11COC1CO	C[C@H]1O[C@]21CO[C@H]2CO	
InChI=1S/C6H10O3/c1-4-6(9-4)3-8-5(6)2-7/h4-5,7H,2-3H2,1H3	InChI=1S/C6H10O3/c1-4-6(9-4)3-8-5(6)2-7/h4-5,7H,2-3H2,1H3/t4-,5+,6+/m1/s1
