20
gdb 15199	5.81837	0.80199	0.77247	2.2285	72.84	-0.2593	0.0833	0.3426	1522.9648	0.176219	-386.111539	-386.102387	-386.101443	-386.14667	32.49	
O	 0.1054032994	 1.2280915227	-0.4352317197	-0.42211
C	-0.0225121071	-0.1407123552	-0.1064985689	-0.057168
C	-1.4821406155	-0.5306155729	 0.0685517116	-0.067383
O	-2.128206683	-0.2410248699	-1.1566805045	-0.260691
C	-3.5333579621	-0.4155272224	-1.1189511097	-0.064839
C	-4.1210166521	 0.002650726	-2.4374323396	 0.008775
C	-4.1206796273	-0.9556458347	-3.5997574771	-0.247175
C	-5.4144235713	-0.6178146563	-2.9038317865	-0.271756
H	-0.525011937	 1.3790521572	-1.1497755936	 0.287921
H	 0.4296979075	-0.7844768888	-0.8780307622	 0.092035
H	 0.5210378706	-0.3049938227	 0.8297912823	 0.105973
H	-1.5752336678	-1.5999011607	 0.3223236613	 0.08471
H	-1.9326638777	 0.0556680429	 0.885966744	 0.093348
H	-3.7779880991	-1.4720963445	-0.9143403698	 0.082467
H	-3.9619009238	 0.1802314993	-0.2953266333	 0.090393
H	-3.9725787808	 1.0523378235	-2.6741873918	 0.088563
H	-3.9489420773	-0.5565878814	-4.5929361648	 0.114515
H	-3.6984543381	-1.9418493409	-3.4383120707	 0.114907
H	-5.8687915182	-1.378901939	-2.2776373402	 0.112393
H	-6.1292816295	 0.0164430978	-3.4155319765	 0.115123
41.4689	60.4027	98.1716	151.2512	183.6391	275.2998	317.0066	384.1756	431.3872	460.7217	555.3092	773.985	817.951	836.5401	872.1043	905.4713	927.8583	956.7783	1031.3446	1058.9437	1061.9434	1080.451	1085.5082	1133.0977	1140.8238	1150.6834	1196.3262	1198.418	1227.2464	1241.0138	1262.5381	1283.3651	1364.3551	1385.9962	1401.8978	1440.6406	1455.3733	1471.2315	1499.0611	1501.1223	1508.3701	1524.6939	2948.4273	2964.1808	2975.9907	2980.1534	3003.513	3077.835	3132.5066	3137.5431	3149.899	3210.868	3226.015	3790.106
OCCOCC1CC1	OCCOCC1CC1	
InChI=1S/C6H12O2/c7-3-4-8-5-6-1-2-6/h6-7H,1-5H2	InChI=1S/C6H12O2/c7-3-4-8-5-6-1-2-6/h6-7H,1-5H2
