16
gdb 46774	2.80492	1.90659	1.27528	4.868	68.81	-0.2565	-0.002	0.2544	955.7146	0.1277	-437.93983	-437.933025	-437.932081	-437.97157	26.019	
O	 0.2666119826	 0.2006440797	 0.6154643617	-0.38443
C	 0.124816879	 1.3049425831	 0.1701448872	 0.46896
O	-1.0547589712	 1.9862986824	 0.226384208	-0.236534
C	-0.8858111319	 3.3325656918	-0.2242579606	-0.106867
C	 0.6174200767	 3.469005588	-0.5671730978	-0.047845
C	 1.536292795	 4.21067127	 0.3812198809	-0.096885
C	 2.5524921042	 3.4308950252	 0.7448219862	-0.065519
C	 2.4400018472	 2.0578071514	 0.1172742867	-0.233027
N	 1.0894013478	 2.082310724	-0.4664384101	-0.148442
H	-1.5194755987	 3.4904800095	-1.1013668054	 0.124362
H	-1.2047905322	 4.0125031043	 0.5712515991	 0.124718
H	 0.7311684697	 3.8609456832	-1.5870278602	 0.102414
H	 1.3902921404	 5.2497956837	 0.6493051501	 0.110982
H	 3.3868272582	 3.7176362651	 1.3727174975	 0.113728
H	 3.2046304145	 1.9056471343	-0.6560601094	 0.122556
H	 2.5119806388	 1.2251685242	 0.823095596	 0.151828
65.8382	160.8609	234.2594	311.4809	430.4604	523.3808	620.5054	665.3836	696.0406	750.8792	783.2616	802.2073	847.7958	905.9149	941.8431	961.8727	1012.8539	1041.4201	1068.0146	1089.0819	1098.6119	1131.0509	1162.2712	1204.8514	1229.0632	1266.2945	1313.3769	1327.8554	1354.3921	1370.0534	1412.9815	1504.332	1523.2672	1673.272	1873.3807	3001.5567	3019.2568	3052.7598	3091.943	3097.9249	3204.0702	3228.1005
O=C1OCC2C=CCN12	O=C1OC[C@H]2C=CCN12	
InChI=1S/C6H7NO2/c8-6-7-3-1-2-5(7)4-9-6/h1-2,5H,3-4H2	InChI=1S/C6H7NO2/c8-6-7-3-1-2-5(7)4-9-6/h1-2,5H,3-4H2/t5-/m1/s1
