13
gdb 130606	3.70882	1.22639	0.92163	5.3711	79.01	-0.2326	-0.0611	0.1715	1159.2957	0.090241	-415.59976	-415.59238	-415.591436	-415.631718	27.857	
O	-0.0707893628	-0.0849291596	 0.0043992992	-0.387885
C	-0.0246787022	 1.1387957148	 0.0091896381	 0.386498
C	-1.2404064193	 1.9754372246	 0.0307629893	-0.094611
N	-1.2723701537	 3.2728707142	 0.0376610602	-0.158853
N	-0.09474694	 3.9105967086	 0.0242864548	-0.312516
C	 1.1304419054	 3.2908265923	 0.0040955625	 0.303283
C	 1.1968323555	 1.9275003595	-0.0036559804	-0.384372
C	 2.2626828231	 4.1517350368	-0.0073727417	 0.267543
C	 3.2026128057	 4.9022774888	-0.0166243784	-0.394619
H	-2.2032793165	 1.4738732955	 0.0419056205	 0.140692
H	-0.1542717865	 4.9163459489	 0.0301315405	 0.28466
H	 2.15595364	 1.4271661381	-0.019447325	 0.131406
H	 4.0441031914	 5.5514518976	-0.0248683595	 0.218774
129.406	142.198	158.2769	358.832	416.0018	438.389	471.66	533.6808	551.7884	566.2074	627.9047	679.2667	686.6618	717.0282	750.3869	900.3851	924.3183	948.898	1046.2327	1116.7836	1194.7788	1255.9452	1351.6654	1381.7461	1483.9337	1618.1532	1624.8992	1739.5469	2237.421	3189.1013	3227.586	3496.1001	3646.1637
O=C1C=NNC(=C1)C#C	O=c1cn[nH]c(c1)C#C	
InChI=1S/C6H4N2O/c1-2-5-3-6(9)4-7-8-5/h1,3-4H,(H,8,9)	InChI=1S/C6H4N2O/c1-2-5-3-6(9)4-7-8-5/h1,3-4H,(H,8,9)
