17
gdb 42881	2.28057	1.83364	1.57326	1.6201	73.19	-0.2508	-0.0259	0.2249	946.906	0.137176	-421.835638	-421.828442	-421.827498	-421.867163	28.298	
O	 0.0095880292	 0.1655847883	 0.6600633828	-0.29059
C	-0.0113164032	 1.2882194577	 0.2597852328	 0.371356
C	-1.084908936	 2.3114897225	-0.1426550193	-0.022861
C	-1.6748192274	 3.0675827777	 1.0404158047	-0.267481
C	-0.6841613215	 3.5947235449	 2.0478177847	-0.050078
C	 0.6518545344	 3.6125962769	 2.0281774053	-0.050078
C	 1.6262216735	 3.1117447939	 0.9918879647	-0.267482
C	 1.0222299682	 2.3396802858	-0.1736329761	-0.022861
O	-0.0510316037	 3.0738993853	-0.8166345555	-0.300501
H	-1.8610467278	 1.9669363433	-0.8346836506	 0.103816
H	-2.2688919704	 3.9083188863	 0.6546697342	 0.128147
H	-2.3911622986	 2.4049204821	 1.5460744056	 0.125794
H	-1.1615721586	 4.043727467	 2.9170815052	 0.092532
H	 1.1424272406	 4.0745496057	 2.8832111497	 0.092531
H	 2.1860024793	 3.9679179577	 0.5891815335	 0.128147
H	 2.3745828802	 2.4686761722	 1.4760135723	 0.125794
H	 1.7866319719	 2.015739143	-0.8883092039	 0.103816
118.787	173.355	217.2433	334.0256	384.3951	416.8574	468.3039	472.7496	647.3729	695.0596	728.6749	815.3555	835.3555	848.9767	870.3408	929.5222	972.2547	989.2495	998.6824	1016.873	1043.1782	1095.2932	1099.2874	1163.0044	1196.814	1234.2143	1269.9589	1276.8178	1314.3842	1340.6757	1371.5181	1396.1933	1431.3671	1450.9717	1451.7025	1727.8497	1923.8901	3008.5115	3008.7334	3038.687	3039.911	3055.719	3060.0673	3128.9556	3152.2608
O=C1C2CC=CCC1O2	O=C1[C@H]2CC=CC[C@@H]1O2	
InChI=1S/C7H8O2/c8-7-5-3-1-2-4-6(7)9-5/h1-2,5-6H,3-4H2	InChI=1S/C7H8O2/c8-7-5-3-1-2-4-6(7)9-5/h1-2,5-6H,3-4H2/t5-,6+
