21
gdb 96258	2.45044	1.54934	1.06169	1.9333	80.52	-0.2434	0.0076	0.251	1186.7821	0.18319	-424.22304	-424.214431	-424.213487	-424.25592	33.657	
C	 0.0585662299	 1.5556550892	 0.009613995	-0.394161
C	 0.0091262815	 0.0376420687	 0.0673618651	 0.213597
O	 0.5643615052	-0.4665371549	-1.1315986602	-0.240192
C	-0.1283503985	-1.494080392	-1.8115485932	-0.063993
C	-0.2840928768	-2.815661819	-1.0203781102	-0.288816
C	 0.9871287406	-3.2272349663	-0.3321404318	-0.024334
C	 1.3957484252	-2.7097342968	 0.8263398856	-0.049945
C	 0.6101967687	-1.6980388569	 1.6317294143	-0.131467
O	 0.7514615272	-0.345359301	 1.1964626874	-0.237534
H	 1.0960674364	 1.8753442046	-0.1160197441	 0.136542
H	-0.526296169	 1.9162666396	-0.840098836	 0.115144
H	-0.3372160872	 1.987200647	 0.931896929	 0.119142
H	-1.0319132509	-0.3189420584	 0.167203245	 0.050072
H	-1.1261254934	-1.1515565933	-2.1286293315	 0.090801
H	 0.4607682413	-1.6718158892	-2.7170522544	 0.111536
H	-1.0886890325	-2.6957357709	-0.2865924578	 0.10888
H	-0.6212143882	-3.5845966214	-1.7243453457	 0.101736
H	 1.62981433	-3.9315400546	-0.8555637354	 0.090766
H	 2.3592998181	-3.0059179883	 1.2325448775	 0.090949
H	-0.4579810626	-1.9645810391	 1.6501565905	 0.093811
H	 0.9607693151	-1.6962394569	 2.6673758409	 0.107465
98.6945	167.2416	215.7055	229.5422	260.9597	303.759	323.8626	350.882	481.8026	500.5145	543.7162	569.9792	644.56	751.6822	824.1636	861.4666	868.5351	908.1028	946.8897	999.7373	1009.2628	1033.6062	1044.6913	1086.2361	1102.2101	1113.3794	1163.598	1182.8733	1237.9776	1266.6898	1284.6012	1295.0102	1346.028	1373.9975	1386.5697	1402.2175	1406.37	1415.5248	1430.4932	1480.0512	1481.2987	1487.7081	1497.7706	1502.7203	1716.9921	2936.7386	2979.2367	2980.9307	3038.7788	3053.8109	3066.0629	3083.9468	3085.8403	3134.0853	3137.3492	3144.852	3169.945
CC1OCCC=CCO1	C[C@H]1OCCC=CCO1	
InChI=1S/C7H12O2/c1-7-8-5-3-2-4-6-9-7/h2-3,7H,4-6H2,1H3/b3-2-	InChI=1S/C7H12O2/c1-7-8-5-3-2-4-6-9-7/h2-3,7H,4-6H2,1H3/b3-2-/t7-/m1/s1
