15
gdb 5784	6.1729	1.51752	1.34522	2.8809	67.92	-0.2137	0.0322	0.2459	905.4772	0.121605	-358.84623	-358.839611	-358.838667	-358.877701	24.964	
C	 0.2316068732	 1.5925161568	 0.0826313995	-0.220694
C	 1.2394933424	 0.5532494722	-0.2344022015	-0.220737
N	-0.1506535507	 0.1706607701	 0.0649308562	-0.196615
C	-0.3797858167	-0.433980377	 1.3181272653	 0.334113
C	-1.3055298893	-1.4133483759	 1.5662869565	-0.189263
N	-1.1776658698	-1.6971931983	 2.9106345178	-0.235574
C	-0.1982721529	-0.8909381239	 3.4036245947	 0.014675
N	 0.3053721913	-0.1156662882	 2.4715607372	-0.307288
H	 0.3071954771	 2.0694256102	 1.0552873876	 0.1344
H	-0.2101916222	 2.1921997186	-0.7081049179	 0.111429
H	 1.5483445263	 0.3788967098	-1.2611802169	 0.111463
H	 1.9829954032	 0.3413538949	 0.5281978313	 0.134205
H	-2.0148136935	-1.9121470538	 0.9292979605	 0.132743
H	-1.7112017806	-2.3750458159	 3.4276947013	 0.267485
H	 0.1008746622	-0.9141839596	 4.4410810587	 0.129659
40.3491	192.2912	209.8617	440.0101	446.9337	510.5117	619.2455	663.7306	712.082	763.4365	813.3292	820.6057	852.3554	899.9377	948.5198	993.6074	1042.9712	1087.0272	1110.666	1132.2263	1136.7763	1163.5248	1184.3089	1226.7151	1249.8665	1331.8014	1359.5023	1460.6748	1476.6868	1502.9325	1530.5535	1607.2891	3111.2378	3114.0721	3199.778	3214.129	3247.4977	3289.8138	3671.452
C1CN1C1=CNC=N1	C1CN1c1c[nH]cn1	
InChI=1S/C5H7N3/c1-2-8(1)5-3-6-4-7-5/h3-4H,1-2H2,(H,6,7)	InChI=1S/C5H7N3/c1-2-8(1)5-3-6-4-7-5/h3-4H,1-2H2,(H,6,7)
