16
gdb 98346	3.66179	0.82091	0.70601	3.2125	66.78	-0.295	-0.0638	0.2312	1511.511	0.12134	-475.041019	-475.031169	-475.030225	-475.077503	33.785	
O	 0.0770949708	 1.3987301604	 0.0332826874	-0.413081
C	 0.015962034	 0.0059579511	 0.0542309661	-0.131155
C	-1.4143206573	-0.4969472519	 0.0490174524	 0.323204
O	-2.3347202131	 0.2943953878	 0.0880611865	-0.330576
C	-1.7196227091	-1.9972703839	 0.0287958155	 0.042733
O	-3.0705339056	-2.2189298974	 0.2948371455	-0.418225
C	-1.3284327585	-2.6004600224	-1.3512198133	-0.367364
C	-1.581450785	-4.0372911366	-1.3976436755	 0.279792
N	-1.758647644	-5.1779457218	-1.4335419976	-0.29308
H	-0.8381454591	 1.7091987494	 0.1021831114	 0.301127
H	 0.5552934605	-0.4187301656	-0.807135461	 0.128758
H	 0.5046336817	-0.4107945144	 0.9526417998	 0.132698
H	-1.1062130486	-2.4871786277	 0.7991553692	 0.121088
H	-3.5025372533	-1.3515277393	 0.2480999161	 0.302446
H	-1.9163088205	-2.1077195063	-2.1333882543	 0.166335
H	-0.2688550229	-2.4271539915	-1.5683183783	 0.155299
25.866	62.8997	82.9557	133.0268	196.9538	248.8389	343.9138	367.6712	373.1005	391.0041	398.6217	441.8113	519.4305	583.9909	727.8006	849.4495	904.5521	924.2452	1000.6902	1046.4251	1056.4	1140.7664	1163.8132	1233.9447	1248.5692	1276.2215	1315.5661	1322.3052	1364.4775	1440.7334	1447.9683	1455.0282	1484.0321	1785.0042	2369.5205	2963.6799	2997.1593	3009.2157	3048.7885	3095.8647	3699.4421	3720.365
OCC(=O)C(O)CC#N	OCC(=O)[C@@H](O)CC#N	
InChI=1S/C5H7NO3/c6-2-1-4(8)5(9)3-7/h4,7-8H,1,3H2	InChI=1S/C5H7NO3/c6-2-1-4(8)5(9)3-7/h4,7-8H,1,3H2/t4-/m0/s1
