15
gdb 28276	5.31515	1.29934	1.05091	2.1523	75.43	-0.1982	0.0054	0.2036	1087.8934	0.115231	-416.855137	-416.84802	-416.847076	-416.88658	27.531	
C	-0.0186682098	 1.4553542885	 0.0852332738	-0.49393
C	-0.0044463091	-0.0216152261	-0.06545788	 0.344678
N	-0.0497872049	-0.7094364497	-1.1583882228	-0.390481
C	-0.0063020209	-2.0354736493	-0.7215278353	 0.230266
C	-0.007566033	-3.3474377953	-1.145122405	-0.214331
N	 0.0637215009	-4.1046614597	 0.0053936295	-0.237803
C	 0.1102716897	-3.327971421	 1.1546478038	-0.24086
C	 0.0661231344	-2.0424680476	 0.6865431389	 0.282941
O	 0.0676906578	-0.7458965519	 1.1192764972	-0.252945
H	 0.8924950884	 1.805440718	 0.5818471951	 0.145848
H	-0.089676357	 1.9137179364	-0.9010142143	 0.156087
H	-0.8685638322	 1.7766342757	 0.6964146627	 0.145714
H	-0.0502380883	-3.8084478951	-2.1169100959	 0.129403
H	 0.0804023333	-5.1090897782	 0.0144573894	 0.265145
H	 0.1674246207	-3.7688284447	 2.1339079329	 0.13027
115.6891	149.4936	286.0004	313.8501	347.0311	452.4568	530.3615	582.1174	606.7442	630.1426	662.3696	716.8934	751.8102	767.223	818.8345	909.2675	952.7189	1027.2619	1050.476	1063.3246	1131.1684	1168.0016	1250.4847	1268.9043	1331.7553	1407.5014	1453.8086	1463.5344	1473.0232	1477.0845	1553.5202	1647.3736	1661.8958	3043.4836	3097.1638	3160.5894	3280.024	3287.4419	3689.9278
CC1=NC2=CNC=C2O1	Cc1nc2c[nH]cc2o1	
InChI=1S/C6H6N2O/c1-4-8-5-2-7-3-6(5)9-4/h2-3,7H,1H3	InChI=1S/C6H6N2O/c1-4-8-5-2-7-3-6(5)9-4/h2-3,7H,1H3
