16
gdb 5580	3.35706	1.81822	1.21694	0.8024	68.57	-0.1791	0.03	0.2091	974.6822	0.131791	-379.932806	-379.924849	-379.923905	-379.965215	29.235	
C	 0.1930321439	 1.4275524122	 0.1670837769	-0.323894
N	-0.2724220811	 0.0996137207	-0.205650577	-0.394444
C	 0.464156212	-0.6105739843	-1.1528730031	 0.262636
C	 0.6786665403	-1.9604384825	-1.1505408451	 0.190083
N	 0.2833203481	-2.9239883139	-0.2221579268	-0.605117
O	 1.378887876	-2.3244408797	-2.2877663453	-0.169027
C	 1.6146265361	-1.1870063345	-2.979808267	-0.011984
C	 1.0835044206	-0.1065890462	-2.3491154719	-0.254942
H	 1.2260032074	 1.450740437	 0.5510381773	 0.105993
H	 0.1410115123	 2.0981213655	-0.6964471877	 0.128572
H	-0.4712053877	 1.8330568172	 0.934853875	 0.121088
H	-0.4616291555	-0.4886215686	 0.596609259	 0.235089
H	-0.41867451	-3.5639483373	-0.5830092986	 0.243481
H	 1.0609293328	-3.4774197921	 0.1242976294	 0.242678
H	 2.1743332079	-1.2974743651	-3.8945202667	 0.126945
H	 1.1230194369	 0.9158193818	-2.6894605783	 0.102844
70.4714	164.5059	193.2068	213.3205	265.3914	300.5574	355.6665	497.8004	606.5654	614.6272	690.5995	715.5169	742.5104	775.9022	799.425	809.5164	908.7353	1018.9484	1092.7327	1099.3813	1152.156	1169.7881	1198.5739	1212.7836	1245.3152	1326.7957	1449.3769	1476.4684	1490.3893	1494.5359	1519.1382	1547.4096	1651.7908	1715.1538	2969.6116	3069.8584	3112.5643	3253.46	3277.045	3480.4363	3543.6207	3557.8951
CNC1=C(N)OC=C1	CNc1c(N)occ1	
InChI=1S/C5H8N2O/c1-7-4-2-3-8-5(4)6/h2-3,7H,6H2,1H3	InChI=1S/C5H8N2O/c1-7-4-2-3-8-5(4)6/h2-3,7H,6H2,1H3
