17
gdb 38711	2.81601	2.19716	1.64755	1.9883	71.21	-0.2393	0.0016	0.2408	853.1017	0.138169	-421.796234	-421.789981	-421.789037	-421.826373	26.805	
C	-0.0211317336	 1.4957067486	 0.151453189	-0.397181
C	 1.3333939562	 0.8199328956	-0.0220309899	 0.050344
O	 2.0917620828	 0.2974183041	 1.0502476817	-0.266759
C	 1.4622767243	-0.9864224171	 1.2334453993	 0.12757
O	 0.0851110783	-0.684091967	 1.1666455268	-0.275425
C	 0.069070913	 0.0132354155	-0.0824788545	 0.361582
C	-0.109927953	-0.9704278719	-1.2087469167	-0.34729
C	 1.0085813905	-1.9868920575	-0.9944778529	-0.062861
C	 1.771144145	-1.9665547001	 0.1039677009	-0.065748
H	-0.3537401717	 1.7863202408	 1.1411458444	 0.134452
H	-0.3218619873	 2.1541350784	-0.6583057266	 0.118576
H	 1.9023532704	 1.0341761156	-0.9203557652	 0.101839
H	 1.7225083798	-1.3590963959	 2.2262270814	 0.093405
H	-1.0973183241	-1.4514852829	-1.2099238864	 0.118897
H	 0.0106671611	-0.4828063861	-2.1837378845	 0.112834
H	 1.1896861112	-2.7139754343	-1.7816792565	 0.098478
H	 2.6051796571	-2.6489005258	 0.2310810098	 0.097286
235.7891	305.3364	332.3011	388.0613	492.4865	504.928	532.1099	660.3848	701.0271	717.2832	804.599	825.8303	859.7668	881.2842	897.1994	915.5631	948.6728	958.9799	981.7592	1003.0715	1039.8096	1043.1727	1079.7491	1102.2407	1122.1472	1150.5534	1188.662	1235.6732	1280.3843	1305.9456	1336.7375	1355.7572	1387.4702	1403.746	1462.4098	1470.0092	1680.7393	3018.0083	3058.4986	3108.6258	3128.0017	3159.6259	3166.106	3189.8846	3228.6935
C1C2OC3OC12CC=C3	C1[C@H]2O[C@H]3O[C@@]12CC=C3	
InChI=1S/C7H8O2/c1-2-6-8-5-4-7(5,3-1)9-6/h1-2,5-6H,3-4H2	InChI=1S/C7H8O2/c1-2-6-8-5-4-7(5,3-1)9-6/h1-2,5-6H,3-4H2/t5-,6+,7+/m1/s1
