18
gdb 40130	2.86189	1.65929	1.29157	1.3348	76.63	-0.2314	0.0106	0.242	1011.416	0.149527	-401.911888	-401.904661	-401.903717	-401.943387	29.252	
C	-0.0736705505	 1.4785508349	-0.0051543431	-0.242633
O	 1.1588150155	 0.7562533896	-0.0789863076	-0.279937
C	-0.0702504829	 0.0110029226	 0.0120194533	 0.462088
C	-0.2902005065	-0.7405750615	 1.3167476212	-0.350141
C	 0.1631078828	-2.1783970231	 1.2389212382	-0.079474
C	 0.1860674596	-2.86167087	 0.0946872335	-0.017989
C	-0.2309867096	-2.2393889485	-1.1868604974	-0.078281
N	-1.578085257	-1.601781114	-1.2082218348	-0.348888
C	-0.3769699484	-0.7558104546	-1.2375117008	-0.121652
H	-0.240496244	 2.0271046645	 0.9217298552	 0.110994
H	-0.3614992498	 2.011568445	-0.9112135272	 0.108136
H	 0.2404613163	-0.2084749105	 2.1124627964	 0.114283
H	-1.3588659488	-0.7095366069	 1.5672324368	 0.133474
H	 0.4566195616	-2.6580180771	 2.1681040195	 0.093258
H	 0.5119220219	-3.8971276801	 0.0705932588	 0.088014
H	 0.0880076234	-2.7380845604	-2.0975544414	 0.088443
H	-1.9714970672	-1.6659047481	-2.1439668535	 0.234062
H	-0.1113268364	-0.243357072	-2.158703317	 0.086245
99.8537	205.2146	285.1419	311.0321	362.5054	414.6369	501.8983	529.3696	553.3165	696.3216	714.883	800.7625	816.5219	845.5052	894.0725	910.1872	934.3277	954.7043	971.8351	986.4738	1000.4522	1012.5668	1081.1137	1128.4424	1151.3217	1161.9357	1168.0486	1198.2128	1230.9127	1252.1891	1296.7022	1317.2841	1369.2505	1399.4592	1436.431	1451.3734	1476.2177	1533.5179	1714.8941	3022.8202	3073.8663	3079.1228	3138.9616	3149.0859	3157.6436	3161.6577	3183.6735	3499.1408
C1OC11CC=CC2NC12	C1O[C@]21CC=C[C@H]1N[C@@H]21	
InChI=1S/C7H9NO/c1-2-5-6(8-5)7(3-1)4-9-7/h1-2,5-6,8H,3-4H2	InChI=1S/C7H9NO/c1-2-5-6(8-5)7(3-1)4-9-7/h1-2,5-6,8H,3-4H2/t5-,6-,7+/m1/s1
