15
gdb 128712	3.3693	1.33863	0.96978	5.4704	63.77	-0.2428	0.0238	0.2666	1154.7703	0.112054	-491.10036	-491.091645	-491.090701	-491.134339	29.871	
C	-0.0450906788	 1.3635336895	 0.0669360908	-0.248367
O	 0.0099667115	-0.0719945214	-0.0097370395	-0.264514
C	 0.6189565306	-0.5569482921	-1.0793258296	 0.540243
N	 1.1565185245	 0.1252577618	-2.0389147723	-0.259487
O	 1.6652173858	-0.8786764341	-2.9234907959	-0.242175
C	 1.3967688902	-2.1217322501	-2.4317210787	 0.51003
O	 1.697265863	-3.162290036	-2.9469352619	-0.399379
N	 0.7184091959	-1.910045833	-1.2354868743	-0.227609
C	 0.2352801979	-2.9643463655	-0.3663552837	-0.349296
H	 0.9653410307	 1.7796751611	 0.0852562331	 0.157425
H	-0.5850854375	 1.7671251199	-0.7932825495	 0.15746
H	-0.5720115325	 1.5858351702	 0.9937415178	 0.146801
H	 0.5185155179	-3.9074607239	-0.836174668	 0.177646
H	 0.6936590282	-2.8935548536	 0.623374983	 0.150659
H	-0.8518668273	-2.9168250828	-0.2628042712	 0.150564
83.2361	102.7242	139.477	164.3717	192.7297	225.0612	274.6069	382.5344	403.5238	584.5514	664.5387	693.6007	756.5732	772.4075	784.773	950.2525	976.621	1058.7329	1132.7432	1162.4121	1181.0392	1212.4148	1264.6416	1337.9238	1431.9624	1461.7694	1478.7796	1490.1877	1498.5678	1511.4046	1564.8628	1675.2712	1888.1713	3051.8273	3053.6268	3120.0187	3131.3881	3155.448	3171.3387
COC1=NOC(=O)N1C	COc1noc(=O)n1C	
InChI=1S/C4H6N2O3/c1-6-3(8-2)5-9-4(6)7/h1-2H3	InChI=1S/C4H6N2O3/c1-6-3(8-2)5-9-4(6)7/h1-2H3
