18
gdb 46760	2.5978	1.87098	1.28795	2.8935	76.96	-0.2523	0.0144	0.2667	996.5881	0.1511	-401.985899	-401.978831	-401.977887	-402.017608	28.002	
N	 0.1691156583	 0.8620657557	 0.8758492577	-0.541326
C	 0.1035852886	-0.2092430864	 0.2101958239	 0.412062
O	 1.1837632024	-0.8686511443	-0.2981841895	-0.23658
C	 0.7839871602	-2.0371008696	-1.0277838534	-0.103569
C	-0.6727708078	-2.3224504652	-0.6234988874	-0.080826
C	-0.8615200297	-3.2021775023	 0.5927357803	-0.077748
C	-1.5933144078	-2.611144229	 1.5362505936	-0.058101
C	-2.0365072514	-1.223922896	 1.1386064187	-0.264704
C	-1.1839285404	-0.9472974344	-0.1219479077	-0.123825
H	 1.1381798387	 1.1699138826	 0.9704114228	 0.220203
H	 0.8747900087	-1.8290983483	-2.1007613751	 0.108935
H	 1.4734893401	-2.8459111536	-0.7697086365	 0.116974
H	-1.2286696804	-2.712964005	-1.4835732641	 0.086749
H	-0.4582524923	-4.2079766322	 0.6449640012	 0.095013
H	-1.8773012224	-3.0643233739	 2.4796962095	 0.098762
H	-3.1107454289	-1.2044745645	 0.9128199548	 0.105767
H	-1.8558539454	-0.465342097	 1.905994984	 0.140699
H	-1.7295283204	-0.3795216967	-0.8797612426	 0.101514
87.3035	142.2348	238.8658	304.5368	426.8708	467.1276	570.9029	604.9388	696.0166	727.098	779.4137	804.0404	852.6519	870.1876	892.0471	927.5217	947.8215	974.0203	982.3849	1012.5723	1034.5313	1053.7822	1096.8287	1115.1152	1131.6838	1178.1452	1217.0738	1230.6811	1265.5409	1273.9211	1306.058	1324.8135	1333.4024	1371.9816	1413.9072	1486.9657	1521.1088	1681.2382	1768.9968	3023.3917	3025.8046	3041.7118	3082.1	3087.5926	3089.5198	3179.7658	3205.8349	3475.3018
N=C1OCC2C=CCC12	[NH][C]1OC[C@H]2C=CC[C@@H]12	
InChI=1S/C7H9NO/c8-7-6-3-1-2-5(6)4-9-7/h1-2,5-6,8H,3-4H2	InChI=1S/C7H9NO/c8-7-6-3-1-2-5(6)4-9-7/h1-2,5-6,8H,3-4H2/t5-,6-/m1/s1
