20
gdb 37062	3.16631	1.68858	1.40525	1.7563	82.25	-0.2241	0.0192	0.2434	993.5432	0.174655	-366.011076	-366.004108	-366.003164	-366.041909	29.587	
C	-0.0440145001	 1.5663151701	 0.0240629152	-0.234828
C	 1.4622998262	 1.9512135045	-0.0369037629	-0.306572
C	 2.1130349433	 0.7995732513	-0.7787419563	 0.293642
C	 3.5328258785	 0.2768778143	-0.5843406642	-0.344451
C	 3.319591686	-1.2288312423	-0.4965165594	-0.062808
C	 2.0308400681	-1.5760174155	-0.5787596004	-0.154465
C	 1.1820930486	-0.3633190413	-0.769675692	 0.282239
C	-0.0903037081	 0.0120412859	-0.0363006452	-0.307896
N	 1.490471586	 0.350547641	-2.0412955899	-0.408958
H	-0.5338043721	 1.9593986253	 0.9185625257	 0.104642
H	-0.5810303787	 1.9954438282	-0.8281278199	 0.105593
H	 1.6186543183	 2.9302533623	-0.5042554427	 0.099784
H	 1.8870765935	 2.0079759316	 0.972887006	 0.103401
H	 4.1920151916	 0.5437830565	-1.4184466167	 0.117683
H	 3.9949591116	 0.6754393373	 0.3289598461	 0.101371
H	 4.1484449559	-1.924259699	-0.4126009465	 0.092051
H	 1.6474342284	-2.589302799	-0.5485544116	 0.093225
H	-0.0572308638	-0.4154733676	 0.9729617307	 0.106739
H	-1.007442627	-0.354946186	-0.5104705306	 0.099926
H	 0.7234576638	 0.9730997924	-2.2895797454	 0.219682
199.2423	209.9763	256.1391	333.1229	412.3975	479.3992	535.3884	575.6344	609.7774	698.6678	715.613	756.7807	809.7793	833.7813	880.9735	894.3212	918.7651	928.2907	951.7366	978.8545	987.5339	1016.8862	1056.3095	1058.9666	1088.2347	1130.9643	1148.6384	1196.1207	1209.3759	1238.4801	1245.1385	1279.0455	1303.1797	1317.3979	1332.9618	1363.751	1399.9295	1406.3143	1466.1615	1490.6886	1495.8636	1511.1498	1655.2694	3017.1231	3028.596	3032.421	3047.3032	3060.6761	3065.7889	3070.3777	3100.2544	3179.3632	3206.7195	3478.8458
C1CC23CC=CC2(C1)N3	C1C[C@@]23CC=C[C@]2(C1)N3	
InChI=1S/C8H11N/c1-3-7-5-2-6-8(7,4-1)9-7/h1,3,9H,2,4-6H2	InChI=1S/C8H11N/c1-3-7-5-2-6-8(7,4-1)9-7/h1,3,9H,2,4-6H2/t7-,8+/m1/s1
