12
gdb 33273	2.6964	0.8496	0.6695	4.5441	83.64	-0.2875	-0.0523	0.2352	1554.4065	0.074352	-361.110225	-361.10115	-361.100206	-361.144774	31.804	
C	-0.0128427044	-1.2312004305	 0.0469647128	-0.416216
C	 0.0113813452	-0.0334567023	-0.0030513795	 0.344253
C	 0.0271473812	 1.4368226748	-0.0477856951	-0.569973
C	 1.3937480932	 1.9795859994	-0.0057088582	 0.344245
C	 2.5031587194	 2.4319213924	 0.0420733962	-0.416202
C	-0.7035404296	 1.9370308189	-1.2229029765	 0.172366
C	-1.3146757672	 2.3554310687	-2.1743404275	 0.038953
C	-2.0041798729	 2.8280137568	-3.2546251462	 0.215825
N	-2.5917070475	 3.2307751511	-4.171743088	-0.329578
H	-0.0287198423	-2.2929286782	 0.0862400265	 0.216124
H	-0.5082679345	 1.8056788313	 0.8423468791	 0.184079
H	 3.4883477595	 2.8282397675	 0.0794426264	 0.216125
64.1212	87.6163	125.0134	191.0537	193.1239	321.8744	339.1177	341.2371	466.5286	528.7691	551.3937	576.1775	593.2866	655.3329	656.0179	674.0655	675.1884	774.9216	907.1094	1029.5896	1163.9866	1270.1424	1281.3685	2250.9217	2254.8665	2273.2415	2410.4477	2978.5554	3500.3781	3501.1974
C#CC(C#C)C#CC#N	C#CC(C#C)C#CC#N	
InChI=1S/C8H3N/c1-3-8(4-2)6-5-7-9/h1-2,8H	InChI=1S/C8H3N/c1-3-8(4-2)6-5-7-9/h1-2,8H
