21
gdb 73051	3.15417	0.96347	0.85252	3.1674	84.34	-0.2391	-0.0166	0.2225	1426.0748	0.181259	-387.075941	-387.066666	-387.065722	-387.110729	34.413	
C	-0.1622687383	 1.5646689294	-0.0359540159	-0.495968
C	-0.0390761855	 0.068020274	 0.012430518	 0.327313
C	-1.239490427	-0.8924618532	 0.0716284607	-0.2855
C	-0.4542261381	-1.801538058	 1.0690372871	-0.228524
C	 0.7375703942	-0.8413529602	 0.9817315217	-0.11176
C	 1.2018099069	-0.6588909991	-0.4452187025	-0.064351
C	 1.2620911059	-1.7509962698	-1.5033871645	-0.313327
C	 2.4748835867	-2.6350407886	-1.3097726305	 0.167048
O	 3.3118612367	-2.8556042444	-2.1470599669	-0.242193
H	 0.8030765456	 2.0491053776	 0.1437947765	 0.119073
H	-0.5236939077	 1.9031612658	-1.0149763088	 0.121714
H	-0.8670269918	 1.9307034977	 0.7197440431	 0.116822
H	-2.1124761752	-0.4300647261	 0.5388584438	 0.103892
H	-1.559081981	-1.3388560896	-0.8761888066	 0.095578
H	-0.9114039925	-1.8110210152	 2.0605812117	 0.106913
H	-0.2747262352	-2.8396838781	 0.7692851065	 0.094109
H	 1.3724376457	-0.5618794652	 1.8153672754	 0.083805
H	 2.0535903425	 0.0174034336	-0.5030677999	 0.093057
H	 0.3763770869	-2.3958025054	-1.4406624004	 0.119772
H	 1.2967610788	-1.3289539478	-2.5125373186	 0.118169
H	 2.5523444522	-3.0810369474	-0.2905529798	 0.074359
52.4459	62.6894	158.1475	204.2086	219.0819	237.3307	280.9513	330.0963	447.5799	477.9213	544.9402	617.731	734.7039	774.7153	787.6716	835.2004	888.1087	928.2317	943.814	953.1009	982.9886	1003.2791	1050.9943	1065.016	1090.8321	1115.5154	1145.2522	1154.8479	1206.8676	1224.2762	1239.1367	1248.2274	1271.9435	1291.9572	1308.4604	1349.968	1417.3708	1426.6056	1458.534	1461.9049	1483.4619	1487.4411	1498.7655	1509.7137	1833.5098	2860.6349	3018.4073	3036.6817	3039.4684	3047.0385	3075.6037	3091.3216	3092.0622	3095.6859	3110.6853	3121.2209	3168.9386
CC12CCC1C2CC=O	C[C@]12CC[C@H]1[C@H]2CC=O	
InChI=1S/C8H12O/c1-8-4-2-6(8)7(8)3-5-9/h5-7H,2-4H2,1H3	InChI=1S/C8H12O/c1-8-4-2-6(8)7(8)3-5-9/h5-7H,2-4H2,1H3/t6-,7+,8-/m0/s1
