17
gdb 102348	1.85294	1.43617	1.17763	5.9684	72.88	-0.2579	-0.0017	0.2563	1167.8334	0.135503	-414.187059	-414.176694	-414.17575	-414.222398	35.945	
N	 0.0010553091	 1.4931191595	-0.0249763263	-0.501631
C	 0.0134327729	 0.0431437488	 0.0061333714	-0.190742
C	 0.8225010356	-0.4849188102	 1.2333315321	-0.075457
C	 0.8805784875	-2.0454066983	 1.2145974319	-0.190534
N	 1.679450237	-2.5503136805	 2.3149049988	-0.501784
C	 2.198014938	 0.0364296893	 1.1471642747	 0.315452
N	 3.283485831	 0.4070465816	 1.0089893551	-0.3426
C	 0.1879822603	-0.0269987058	 2.4795849927	 0.347196
N	-0.369463982	 0.2962636916	 3.4371319957	-0.332696
H	 0.8679393166	 1.8600248072	-0.4028426786	 0.249858
H	-0.7567951049	 1.8359909703	-0.6022548309	 0.244586
H	-1.0129358826	-0.3173609149	 0.1219311907	 0.132715
H	 0.4378191462	-0.4399153993	-0.8881526784	 0.10935
H	-0.1465677615	-2.4041516287	 1.3292089801	 0.13268
H	 1.2270013406	-2.3402733503	 0.2114346741	 0.109244
H	 1.4721678181	-3.5250551434	 2.4942966833	 0.244519
H	 2.670783348	-2.4776517968	 2.1123914735	 0.249845
97.6399	103.3262	122.2481	147.4703	155.4712	185.7636	210.1367	223.1221	264.3866	386.5483	403.9797	487.9467	512.2697	582.3663	660.9195	670.4208	807.6188	815.0255	873.856	960.0316	1003.2477	1031.1569	1105.8024	1120.4872	1144.201	1177.7218	1283.3263	1325.4275	1367.1135	1398.0242	1425.3802	1488.8577	1498.9146	1660.9641	1664.1967	2358.3295	2371.8102	2968.7557	2981.2908	3085.1793	3091.4243	3520.8874	3521.6705	3606.7364	3607.5643
NCC(CN)(C#N)C#N	NCC(CN)(C#N)C#N	
InChI=1S/C5H8N4/c6-1-5(2-7,3-8)4-9/h1-2,6-7H2	InChI=1S/C5H8N4/c6-1-5(2-7,3-8)4-9/h1-2,6-7H2
