17
gdb 41517	3.05296	1.95672	1.49564	2.1163	72.85	-0.2233	-0.0161	0.2072	892.9323	0.138569	-421.769956	-421.763571	-421.762627	-421.800443	26.519	
C	-0.0688543585	 1.427635868	 0.0352765553	-0.138472
O	 1.3617961598	 1.6292954091	 0.1677359185	-0.26261
C	 2.0028895642	 0.8166337412	-0.7940900608	 0.074235
C	 2.2462990615	-0.7048261771	-0.6525841474	 0.081544
O	 2.0726419426	-1.5081398535	 0.4739530472	-0.254281
C	 0.7680623506	-2.138712834	 0.4994667338	-0.119179
C	-0.2558931224	-1.0318890162	 0.5444822808	-0.139812
C	-0.0660084222	-0.0362531718	-0.3234533647	 0.185961
C	 1.026417452	-0.1765240494	-1.3568045274	-0.259288
H	-0.535138602	 1.6558006971	 0.9957764424	 0.117181
H	-0.4674027608	 2.093712812	-0.742422675	 0.098196
H	 2.723566561	 1.3601261929	-1.3984162364	 0.098231
H	 3.0717278291	-1.0481158235	-1.2776312592	 0.091192
H	 0.6638750987	-2.8038937325	-0.3677266583	 0.109033
H	 0.7496735952	-2.7461169933	 1.4063281331	 0.118542
H	-0.8818135862	-0.9156530335	 1.4243896998	 0.101728
H	 0.7995892573	-0.3440307456	-2.4041728117	 0.097801
190.881	209.8682	311.9894	373.7662	507.8849	511.8687	599.5698	683.543	720.7842	746.5791	767.6364	790.0056	837.4542	855.882	919.9271	928.9176	958.8095	1010.365	1043.3477	1055.5912	1070.0015	1073.8793	1099.3883	1110.9259	1166.223	1197.7741	1217.489	1258.0654	1278.8053	1323.7194	1336.6248	1358.76	1375.8366	1401.3377	1491.808	1508.2481	1705.2099	3006.0273	3017.3125	3092.9486	3114.9961	3115.2739	3148.1957	3160.0168	3171.0953
C1OC2C3OCC=C1C23	C1O[C@H]2[C@H]3OC[CH][C]1[C@@H]23	
InChI=1S/C7H8O2/c1-2-8-6-5-4(1)3-9-7(5)6/h1,5-7H,2-3H2	InChI=1S/C7H8O2/c1-2-8-6-5-4(1)3-9-7(5)6/h1,5-7H,2-3H2/t5-,6+,7-/m1/s1
