22
gdb 22366	2.12915	1.30227	0.8557	0.8256	85.93	-0.237	0.0145	0.2515	1403.425	0.193498	-404.340305	-404.330616	-404.329672	-404.374656	36.878	
C	-0.1187761724	 1.5576009938	 0.0643687207	-0.406869
C	 0.0370585779	 0.0414103013	-0.027155511	 0.025381
C	 1.0503781773	-0.4398702139	-1.0854786531	-0.219575
C	 1.3343601909	-1.9092874023	-0.7106612778	-0.05538
C	 2.6178238549	-2.5076719132	-1.2830889567	-0.402308
C	 1.2644660797	-1.8688772547	 0.8076398616	 0.400208
C	 0.5365276208	-0.6279546205	 1.273093072	-0.306512
N	 1.7995819484	-2.7755434785	 1.5210187945	-0.23611
O	 1.6101844663	-2.5204436737	 2.8946852846	-0.397073
H	 0.8369962345	 2.0344496227	 0.311721373	 0.113514
H	-0.4665258615	 1.9800816898	-0.8843807432	 0.112431
H	-0.8407221942	 1.8387507167	 0.8384359098	 0.114568
H	-0.9396468959	-0.3946591045	-0.2788912693	 0.074317
H	 0.6845420488	-0.3265015275	-2.1103743581	 0.094733
H	 1.9770845155	 0.1454159368	-1.0019308299	 0.0949
H	 0.481586664	-2.5125514451	-1.0594739915	 0.0907
H	 3.4906622326	-1.9256811055	-0.969261977	 0.114911
H	 2.7587579476	-3.5326156182	-0.9314999707	 0.13252
H	 2.5884768913	-2.5167295686	-2.3774797487	 0.106403
H	 1.2439305306	 0.021672856	 1.8069678985	 0.121762
H	-0.2566673932	-0.8633900443	 1.9887150318	 0.124008
H	 2.0621856863	-3.2667635167	 3.3019295103	 0.303471
68.3254	124.8487	181.7053	200.6279	225.2178	241.5408	269.3617	339.9171	376.2188	421.5742	452.1245	494.0398	524.2496	561.0068	612.4119	795.1419	846.803	877.0245	900.8653	933.558	953.1411	973.3906	1003.2101	1037.1009	1075.1093	1101.1992	1142.1985	1167.8774	1189.7453	1216.2011	1239.8593	1273.9354	1290.364	1322.3072	1347.6123	1360.0462	1380.6884	1398.1611	1411.6526	1414.4517	1463.5022	1491.0637	1495.305	1497.8988	1499.1669	1501.4303	1752.634	2980.8054	3002.0366	3016.0037	3023.3142	3027.4126	3037.0692	3083.2658	3084.3588	3093.4428	3096.7653	3103.0273	3122.265	3820.371
CC1CC(C)C(C1)=NO	C[C@H]1C[C@@H](C)C(=NO)C1	
InChI=1S/C7H13NO/c1-5-3-6(2)7(4-5)8-9/h5-6,9H,3-4H2,1-2H3	InChI=1S/C7H13NO/c1-5-3-6(2)7(4-5)8-9/h5-6,9H,3-4H2,1-2H3/t5-,6+/m0/s1
