18
gdb 65993	2.49024	1.37999	1.29613	2.4721	71.92	-0.2441	-0.0266	0.2175	1087.5101	0.145883	-439.053654	-439.044707	-439.043762	-439.087764	32.532	
C	-0.1353628241	 1.7143025888	 0.2900431349	-0.423842
C	 0.0025921794	 0.2140818021	 0.0401630629	 0.143014
N	 0.9521489513	-0.1541255983	-1.0565586892	-0.365314
C	 1.7691205966	-1.0275722201	-0.1614929681	-0.283287
C	 0.9377601161	-0.5322298955	 1.0233240816	 0.360341
O	 0.9795297431	-0.6407794748	 2.2116959872	-0.294589
C	-1.3657253587	-0.4471520663	-0.045747683	 0.044642
C	-2.1375679004	-0.497222867	-1.2927101225	-0.19298
O	-1.4566898071	-1.6578853324	-0.7971035111	-0.240673
H	 0.8502468762	 2.177695382	 0.3764320271	 0.131128
H	-0.6677736196	 2.1932895558	-0.5375570297	 0.122903
H	-0.688926993	 1.8998559518	 1.2162485166	 0.130518
H	 0.4884413196	-0.7111336956	-1.7677647543	 0.230481
H	 1.653969777	-2.1065951977	-0.3268225131	 0.137791
H	 2.8362234282	-0.7824249602	-0.13903714	 0.13428
H	-1.9126156158	-0.4590553274	 0.8975937191	 0.115546
H	-3.2242340406	-0.5444022456	-1.2559297304	 0.128013
H	-1.723016908	-0.0670759197	-2.2035055578	 0.122026
66.776	84.4353	137.255	183.2107	219.1124	244.435	301.2436	377.7037	473.8695	549.2814	566.6363	623.6457	730.8021	760.7609	842.9015	874.126	925.3765	942.9518	961.2706	1006.3306	1014.3807	1055.1437	1096.6637	1131.7492	1156.3065	1174.3372	1185.0371	1195.7272	1217.8596	1274.1292	1295.9992	1387.8376	1407.2723	1418.5858	1462.7287	1482.3773	1490.7676	1531.3086	1908.6298	3024.6267	3038.7689	3078.2414	3087.8876	3108.9631	3112.9648	3125.6166	3176.1142	3523.2354
CC1(NCC1=O)C1CO1	C[C@]1(NCC1=O)[C@H]1CO1	
InChI=1S/C6H9NO2/c1-6(5-3-9-5)4(8)2-7-6/h5,7H,2-3H2,1H3	InChI=1S/C6H9NO2/c1-6(5-3-9-5)4(8)2-7-6/h5,7H,2-3H2,1H3/t5-,6-/m1/s1
