16
gdb 60721	3.38046	1.13055	0.85172	1.9402	71.06	-0.2491	-0.0583	0.1908	1284.1392	0.124107	-471.265589	-471.256085	-471.255141	-471.302818	33.254	
C	 0.0303027298	 1.556212944	 0.0951197827	-0.326915
N	-0.0087729053	 0.0868536952	-0.0024478636	-0.143186
C	 0.0517348855	-0.6590812183	 1.1855501084	 0.103904
N	 0.1379096112	-0.0988838414	 2.3211436313	-0.465514
C	-0.101973062	-0.629899943	-1.1753759679	 0.361721
O	-0.1372384077	-1.8509710844	-1.208867188	-0.381309
C	-0.163094885	 0.1457688931	-2.52085483	 0.307964
N	-0.267811614	-0.7269006113	-3.5450466761	-0.503042
O	-0.1218870185	 1.3553354946	-2.6343670404	-0.36066
H	 0.8984994825	 1.9530951355	-0.4290718485	 0.149838
H	-0.8642707996	 1.9936400329	-0.345330122	 0.14982
H	 0.0867907313	 1.7905609967	 1.1563841866	 0.168144
H	 0.015130371	-1.7288700832	 0.988204467	 0.148212
H	 0.1697963601	-0.8042865137	 3.0545740964	 0.236359
H	-0.28423913	-1.7133845089	-3.3423111731	 0.28444
H	-0.3102381693	-0.3774992177	-4.4867263427	 0.270224
3.8821	64.2164	149.4314	169.8365	219.8586	291.7488	321.8322	344.2446	376.0322	402.0919	488.9523	500.4661	623.3837	632.432	673.4962	765.5602	832.0425	839.9151	953.1621	1086.7093	1092.9864	1104.2486	1157.3593	1183.8263	1320.3218	1339.4108	1384.6296	1414.9632	1469.7315	1496.3404	1500.1036	1574.0999	1710.0524	1744.8093	1806.6901	3085.7987	3155.2432	3164.4683	3182.0944	3510.0162	3596.8832	3743.232
CN(C=N)C(=O)C(N)=O	CN(C=N)C(=O)C(=O)N	
InChI=1S/C4H7N3O2/c1-7(2-5)4(9)3(6)8/h2,5H,1H3,(H2,6,8)	InChI=1S/C4H7N3O2/c1-7(2-5)4(9)3(6)8/h2,5H,1H3,(H2,6,8)
