14
gdb 130423	2.99962	1.3778	0.95776	7.858	66.66	-0.2426	-0.0837	0.1589	1143.7827	0.102126	-466.172877	-466.165042	-466.164098	-466.205953	28.173	
N	-0.0553459327	 1.0917673988	-0.0642738352	-0.526241
H	 1.4658674631	 0.2205896017	 1.2840986309	 0.284412
H	-0.0114317645	 1.7760327273	-0.8085902163	 0.255811
H	-0.6208694962	 0.3191311559	-0.3983360741	 0.253273
C	-0.6187635541	 1.6729385713	 1.1523010659	-0.257121
C	-0.0312204889	 1.022106636	 2.3884358405	 0.461094
N	 1.0966765168	 0.3116898436	 2.2286864103	-0.349013
C	 1.725032534	-0.3036080872	 3.3123381801	 0.475084
O	 2.7289468473	-0.9562551964	 3.1969101378	-0.348209
N	 1.0693681843	-0.0860298267	 4.5555343709	-0.217715
N	 0.0033269886	 0.5984933739	 4.6399417754	-0.044393
N	-0.6072365655	 1.1829315554	 3.5466333906	-0.298265
H	-0.3544538053	 2.7353945219	 1.1984245757	 0.160439
H	-1.7105329068	 1.6213764545	 1.2392193075	 0.150845
72.1407	105.2748	165.4261	210.776	262.4765	416.2623	434.4916	503.9282	580.3687	585.055	645.1262	746.1798	820.4475	838.1897	857.1912	898.8344	924.2849	965.1513	1077.7137	1103.3353	1176.2625	1192.0557	1231.7123	1321.667	1384.8756	1416.4525	1469.2213	1541.8741	1615.1468	1667.0268	1842.8226	3038.2883	3080.4437	3496.8577	3528.701	3611.9611
[NH3+]CC1=NC(=O)N=N[N-]1	NCc1[nH]c(=O)nnn1	
InChI=1S/C3H5N5O/c4-1-2-5-3(9)7-8-6-2/h1,4H2,(H,5,6,7,9)	InChI=1S/C3H5N5O/c4-1-2-5-3(9)7-8-6-2/h1,4H2,(H,5,6,7,9)
