25
gdb 106805	2.3002	1.42715	1.06047	0.1552	92.6	-0.2462	0.0836	0.3298	1292.3799	0.229857	-352.376934	-352.3674	-352.366456	-352.410647	37.689	
C	 0.2342537062	 1.5101679706	 0.2268365385	-0.374476
C	-0.1503190817	 0.0640412816	-0.1155631109	-0.276242
C	 0.5894720333	-0.4882033195	-1.3165683186	 0.35046
C	 1.9933119485	-1.035251829	-1.1468889203	-0.383079
C	 0.86718102	-1.9710741641	-1.5333632302	 0.298966
C	 0.4358438987	-3.0643233975	-0.5837684923	-0.481662
C	 0.7257727781	-2.2561805321	-3.0263763468	-0.256886
C	 0.8209381454	-0.8819331648	-3.7213809349	-0.235601
C	 0.2825565506	 0.1255118057	-2.6822838007	-0.263595
H	 1.3062389757	 1.5903542475	 0.4363163074	 0.116303
H	 0.0067022641	 2.1915679418	-0.5992082556	 0.11662
H	-0.3093713453	 1.8644065433	 1.1083900512	 0.107078
H	 0.0388279285	-0.569243222	 0.758900542	 0.090923
H	-1.2321952605	 0.0117460955	-0.3018784554	 0.089477
H	 2.7673427246	-0.7858497135	-1.8666490463	 0.100417
H	 2.3612143689	-1.1173760042	-0.1281304455	 0.099094
H	 0.5219262797	-2.7588708894	 0.4630020584	 0.113247
H	-0.6053284342	-3.3601540816	-0.7618725294	 0.110462
H	 1.0566140724	-3.9593020969	-0.712506747	 0.114098
H	 1.4751113399	-2.965557103	-3.3973856709	 0.090961
H	-0.2577124262	-2.7107867099	-3.2060634417	 0.091569
H	 1.8627063174	-0.6524103336	-3.9662698928	 0.102896
H	 0.2658509629	-0.8483279527	-4.6625773655	 0.094133
H	-0.8061541905	 0.2327510629	-2.7812460739	 0.091206
H	 0.7136815834	 1.124073225	-2.8155047588	 0.09363
87.8815	146.5615	182.6775	208.2362	225.653	247.4252	280.4803	345.6353	357.1905	436.4256	469.9029	536.3887	602.5296	677.2868	710.1523	787.385	811.2353	888.479	904.3985	909.5056	937.1962	949.4644	961.9051	988.2447	1025.9637	1042.0187	1054.1624	1065.4849	1093.3478	1114.5184	1138.1764	1191.3391	1232.3442	1240.9439	1264.3658	1271.3663	1299.6769	1328.035	1344.4905	1354.5618	1369.3607	1404.8316	1409.0536	1421.5292	1479.1375	1488.4709	1491.1368	1491.439	1493.5243	1498.8008	1503.7105	1509.4316	1522.2953	3008.7426	3013.7796	3015.1555	3020.4253	3033.3527	3045.7803	3054.3052	3056.8724	3065.4822	3072.7213	3096.5293	3100.6728	3102.3054	3104.8036	3115.2129	3193.5918
CCC12CC1(C)CCC2	CC[C@@]12C[C@]1(C)CCC2	
InChI=1S/C9H16/c1-3-9-6-4-5-8(9,2)7-9/h3-7H2,1-2H3	InChI=1S/C9H16/c1-3-9-6-4-5-8(9,2)7-9/h3-7H2,1-2H3/t8-,9+/m0/s1
