16
gdb 53748	4.52924	0.67766	0.6473	6.0153	76.8	-0.2439	-0.0387	0.2052	1704.3791	0.124602	-437.856228	-437.847426	-437.846482	-437.892123	30.663	
O	 0.2106921797	 0.2401798272	-0.5968998453	-0.295733
C	-0.0236824767	 1.2255569454	 0.0461285538	 0.338159
O	 0.9288116196	 1.795652156	 0.8264213928	-0.358595
C	-1.2991789622	 1.9107414243	 0.0757965971	-0.105763
C	-2.3638812345	 2.4787586309	 0.0976559606	 0.150153
C	-3.64150045	 3.1558175992	 0.1204964629	-0.201959
C	-4.1771941622	 3.5009020111	 1.5502609536	-0.162159
N	-3.6558260378	 4.8739416804	 1.3888931954	-0.295514
H	-4.2685380553	 5.615341562	 1.7087716339	 0.224332
H	 0.5572745326	 2.5729047929	 1.2635832072	 0.310606
C	-3.5671476017	 4.706925548	-0.0764899702	-0.162159
H	-4.3540077469	 2.6418370242	-0.5277516835	 0.119209
H	-5.2723870926	 3.4200173853	 1.5858728761	 0.100615
H	-3.7480632515	 2.9416709944	 2.386204374	 0.119093
H	-2.654524847	 5.1035346346	-0.5298262641	 0.119098
H	-4.4376907735	 5.0701643042	-0.6399343142	 0.100616
19.1831	64.7567	96.3725	136.5862	239.8736	244.5932	379.6129	518.8293	537.2384	549.6579	599.2863	668.6145	729.1231	767.3712	843.7075	887.9128	941.2208	988.3009	999.7718	1052.1751	1084.5115	1122.9091	1135.2409	1186.1185	1188.202	1208.567	1279.2099	1317.6312	1348.5968	1358.1005	1384.6549	1506.7961	1531.8402	1846.6367	2338.8378	3002.5462	3007.9867	3082.7874	3084.228	3092.1523	3535.6855	3786.463
[O-]C(=O)C#CC1C[NH2+]C1	O=C(O)C#CC1CNC1	
InChI=1S/C6H7NO2/c8-6(9)2-1-5-3-7-4-5/h5,7H,3-4H2,(H,8,9)	InChI=1S/C6H7NO2/c8-6(9)2-1-5-3-7-4-5/h5,7H,3-4H2,(H,8,9)
