23
gdb 105745	2.25249	1.34083	1.13544	0.5435	90.27	-0.2555	0.0568	0.3122	1256.0789	0.205637	-351.146382	-351.136539	-351.135595	-351.181046	37.463	
C	-0.1139196155	 1.6027679664	 0.056547105	-0.393138
C	-0.0403321864	 0.0749882779	-0.0052783525	-0.222529
C	 0.7463918647	-0.4918779191	-1.2099104219	 0.096711
C	 2.2526304045	-0.106980893	-1.207892627	-0.22205
C	 2.9375450462	-1.1485883626	-2.118299001	-0.208741
C	 2.0225118216	-2.4086173009	-2.087052679	-0.210009
C	 0.8389425896	-2.0432185311	-1.1668671027	-0.228842
C	 0.1218095318	-0.072597393	-2.4688157536	 0.370723
C	-0.394009777	 0.2634007781	-3.5027839064	-0.524268
H	 0.8803875297	 2.0498318845	 0.1564175165	 0.115434
H	-0.5756963418	 2.0096969624	-0.8477851403	 0.130573
H	-0.7096868086	 1.925560471	 0.9158443673	 0.110152
H	 0.4324062551	-0.3101896769	 0.907133935	 0.091234
H	-1.055628704	-0.3383826154	-0.0296339497	 0.100908
H	 2.4278202617	 0.9210828949	-1.5316704661	 0.104133
H	 2.6188589092	-0.197143223	-0.1777903509	 0.09261
H	 3.0148400787	-0.7637561931	-3.1386388549	 0.10995
H	 3.9556493074	-1.363723925	-1.7829019869	 0.095436
H	 1.6636662922	-2.6404492311	-3.0932657442	 0.109656
H	 2.5488556007	-3.2963079186	-1.7260625551	 0.095645
H	 1.0530527497	-2.3367159312	-0.1321047952	 0.092246
H	-0.0987108873	-2.5231037858	-1.4576338257	 0.101971
H	-0.8489025324	 0.5611649245	-4.4149094704	 0.192198
62.315	105.7013	126.0208	170.3292	185.0941	216.5963	267.7949	373.186	384.9736	455.0451	536.7785	613.412	616.2247	629.7942	651.7659	684.1106	782.9244	807.2728	817.2802	890.4003	913.3671	949.7563	966.545	989.3488	1031.4015	1057.3301	1070.7268	1096.0753	1116.0165	1160.8608	1220.7271	1227.7992	1260.327	1261.9619	1307.4832	1310.2463	1339.0094	1349.6524	1353.8992	1369.1232	1412.492	1479.0261	1481.9473	1490.5884	1494.1161	1500.6277	1508.4094	1515.3409	2222.8238	3020.2235	3028.7821	3035.6326	3039.4886	3055.0873	3059.5457	3066.0113	3084.6081	3098.8047	3103.1474	3107.2269	3114.7875	3115.8247	3501.2075
CCC1(CCCC1)C#C	CCC1(CCCC1)C#C	
InChI=1S/C9H14/c1-3-9(4-2)7-5-6-8-9/h1H,4-8H2,2H3	InChI=1S/C9H14/c1-3-9(4-2)7-5-6-8-9/h1H,4-8H2,2H3
