20
gdb 103344	2.92919	1.37141	1.09771	3.1518	76.86	-0.1963	0.0538	0.25	1157.9629	0.169701	-440.18467	-440.175658	-440.174713	-440.218171	34.86	
C	-0.0833062311	 1.567225187	 0.0272673517	-0.331628
N	 0.0451186267	 0.1097172254	 0.0035375018	-0.105866
C	-0.9297285944	-0.8166091171	 0.7061383974	-0.100146
C	 0.1500510094	-1.9081568743	 0.4558400058	-0.224444
C	 0.8765008629	-0.6544959781	 1.0176975534	-0.105376
C	-0.2766449176	-0.5405006543	 2.0975929938	 0.465855
O	-0.5631745393	 0.7129180029	 2.6598817348	-0.485078
C	-0.3856020477	-1.5632690542	 3.2385768786	-0.169155
O	 0.4226384694	-1.0506948132	 4.3049459485	-0.434121
H	-0.2284327831	 2.0320061808	 1.0035925759	 0.132307
H	 0.8199658233	 1.9807694161	-0.4365694544	 0.108407
H	-0.9253693627	 1.8344104541	-0.6216014093	 0.109906
H	-1.9924075526	-0.8392413674	 0.4539302428	 0.074667
H	 0.127232555	-2.823408464	 1.0437206082	 0.089434
H	 0.3452133746	-2.0873511294	-0.5991010174	 0.110878
H	 1.9487859071	-0.4864530809	 1.133771915	 0.078632
H	-0.1608786104	 0.6923068296	 3.5398717598	 0.285794
H	-1.4395433812	-1.6222630672	 3.5465626294	 0.10087
H	-0.0481651239	-2.5647416958	 2.9601654467	 0.101704
H	 0.1504622457	-1.4703558398	 5.1253594275	 0.297359
89.331	102.0386	144.8692	248.4844	262.8231	316.2309	341.8234	383.0925	418.6693	455.5163	518.7234	542.129	664.7901	685.7251	733.8527	765.3124	818.7091	882.8025	900.9899	995.6675	1015.341	1027.4857	1059.3467	1072.216	1085.3642	1112.6276	1152.0684	1162.6182	1181.6267	1190.5812	1200.1393	1205.7717	1244.1108	1246.5455	1272.2773	1303.5719	1416.8746	1438.7942	1445.8112	1480.7719	1496.9911	1511.0359	1519.5489	3001.8131	3025.2916	3079.6769	3080.5167	3089.4534	3098.4006	3115.8468	3127.9219	3182.4773	3730.608	3845.2127
CN1C2CC1C2(O)CO	CN1[C@H]2C[C@@H]1[C@]2(O)CO	
InChI=1S/C6H11NO2/c1-7-4-2-5(7)6(4,9)3-8/h4-5,8-9H,2-3H2,1H3	InChI=1S/C6H11NO2/c1-7-4-2-5(7)6(4,9)3-8/h4-5,8-9H,2-3H2,1H3/t4-,5+,6-
