17
gdb 71684	2.85303	2.24653	1.69771	1.0606	69.1	-0.2257	0.0705	0.2963	837.4187	0.137374	-421.759013	-421.752762	-421.751818	-421.789268	26.448	
C	-0.0344311787	 1.4357722966	 0.0037119394	-0.519618
C	 0.0432914913	-0.0591275377	-0.0504531152	 0.448178
O	-1.2325225816	-0.758758233	-0.1469299171	-0.336907
C	-0.4618124294	-1.8449897899	-0.6917926111	 0.075205
C	 0.6006644842	-2.2418108098	 0.3856708048	-0.122076
C	 1.7770270059	-1.6679636835	-0.4519105656	 0.077119
O	 2.2170159486	-0.7976276246	 0.6120498772	-0.300475
C	 0.8312335046	-0.838883725	 1.0417546993	 0.033741
C	 0.6525969051	-0.9109167347	-1.229450278	-0.175665
H	 0.9741434692	 1.8505109683	 0.0920456023	 0.139548
H	-0.5058769952	 1.8419584545	-0.8952407852	 0.128403
H	-0.6197137828	 1.7549507169	 0.8729834692	 0.130354
H	-1.0324213285	-2.5915814454	-1.2400325871	 0.08609
H	 0.6163646841	-3.1544273319	 0.9748872768	 0.083846
H	 2.5677063455	-2.2145082145	-0.9618453129	 0.08697
H	 0.6751790823	-0.5963467923	 2.0918295273	 0.084882
H	 0.7223429354	-0.5021990141	-2.234125234	 0.080405
210.0043	234.5171	266.7465	472.6267	508.5998	547.2708	604.2125	713.637	775.335	808.7624	817.74	842.8532	852.4407	864.7274	885.6328	894.4268	935.2481	947.5411	978.8366	992.2603	1020.1417	1086.4527	1120.6096	1125.1052	1130.8798	1168.4381	1173.8344	1206.4705	1228.4682	1253.1527	1268.9636	1289.1082	1324.0821	1359.9669	1413.8185	1481.4647	1491.1608	3038.2072	3108.5663	3122.0158	3134.7961	3139.0022	3141.437	3156.4154	3164.2152
CC12OC3C4C(OC14)C23	C[C@]12O[C@@H]3[C@H]4[C@H](O[C@@H]14)[C@H]23	
InChI=1S/C7H8O2/c1-7-3-4-2(5(3)9-7)6(7)8-4/h2-6H,1H3	InChI=1S/C7H8O2/c1-7-3-4-2(5(3)9-7)6(7)8-4/h2-6H,1H3/t2-,3+,4+,5-,6-,7-/m1/s1
