18
gdb 20155	3.42321	2.95492	2.66855	0.0844	72.58	-0.2529	0.1001	0.3529	664.1765	0.15865	-310.653195	-310.648184	-310.647239	-310.681814	23.005	
C	-0.0519094934	 1.5783072321	 0.0116193975	-0.207495
C	 1.4687557887	 1.8009974418	 0.0347795487	-0.048972
C	 1.9392000494	 0.9973250426	 1.2630848677	-0.069955
C	 2.4972982591	-0.0970378593	 0.3929457791	-0.069955
C	 1.1287197942	-0.2703255457	 1.0353249577	-0.055993
C	 0.0410880516	 0.0328231626	-0.043533702	-0.046823
C	 0.8303174668	-0.1516349443	-1.3638758217	-0.207495
C	 2.0629382178	 0.6358754135	-0.8916222584	-0.048971
H	-0.5315965261	 1.9520262174	 0.9219814286	 0.089715
H	-0.560221577	 2.0024506436	-0.8609363862	 0.085867
H	 1.8553250712	 2.80792651	-0.11113861	 0.059955
H	 2.2583396797	 1.3636516015	 2.2312594473	 0.076154
H	 3.3410991745	-0.7595008738	 0.5431136721	 0.076154
H	 0.9788633254	-0.9829091846	 1.8354170601	 0.078645
H	-0.8900473321	-0.5238215471	 0.0593332732	 0.05363
H	 1.0740817049	-1.1965102307	-1.581451419	 0.089716
H	 0.3163933431	 0.2835066125	-2.2276848049	 0.085867
H	 2.8234529921	 0.9095417378	-1.6205654597	 0.059955
391.4347	471.7631	534.9042	645.9069	661.6516	765.959	782.8439	800.8899	810.7469	812.8263	889.2598	893.7838	910.0887	913.1388	928.6836	954.67	969.5826	975.7961	1008.6399	1032.4654	1040.6207	1051.3744	1073.0318	1107.3558	1135.7017	1158.7034	1192.95	1222.1754	1233.0097	1250.0317	1257.2236	1275.6181	1287.6244	1306.4293	1330.3208	1370.0306	1478.9062	1501.2595	3038.4294	3043.792	3088.539	3094.6385	3118.1104	3126.5018	3135.9582	3174.4919	3184.7235	3206.6653
C1C2C3C4C3C1CC24	C1[C@H]2[C@@H]3[C@H]4[C@@H]3[C@@H]1C[C@@H]24	
InChI=1S/C8H10/c1-3-2-5-4(1)7-6(3)8(5)7/h3-8H,1-2H2	InChI=1S/C8H10/c1-3-2-5-4(1)7-6(3)8(5)7/h3-8H,1-2H2/t3-,4+,5-,6+,7-,8+
