20
gdb 56212	3.64354	0.94649	0.81561	6.9782	75.66	-0.2367	0.0379	0.2746	1418.2242	0.172248	-440.307343	-440.29854	-440.297596	-440.341857	32.341	
O	-0.9016384541	 1.3226464593	 1.5129236245	-0.383549
C	-0.3950567253	 1.5980650492	 0.3061275999	 0.389681
O	 0.7891361446	 1.5330717271	 0.0923591357	-0.334095
C	-1.3890498611	 2.0045998802	-0.791378431	-0.331548
C	-2.6878686811	 1.1694505065	-0.8614659724	-0.230426
C	-3.8508389066	 1.7494202473	-0.0623518019	 0.064285
C	-5.0063082235	 0.7944298614	 0.3438172468	-0.259652
C	-4.8081586648	 1.2906669557	 1.79636153	-0.158345
N	-3.5467294548	 1.9794700168	 1.3905345533	-0.332389
H	-1.8857444998	 1.478000479	 1.5526817155	 0.314462
H	-3.510884607	 2.9575518427	 1.6590489196	 0.236437
H	-1.6299952186	 3.0681697951	-0.6544128373	 0.112734
H	-0.8323053254	 1.935224988	-1.7270033834	 0.134324
H	-3.0081757898	 1.083716637	-1.9062249524	 0.110545
H	-2.4858472926	 0.1490806381	-0.5154108213	 0.115398
H	-4.2163022706	 2.6625649949	-0.5491962143	 0.080179
H	-5.9801399953	 0.991418638	-0.1051675372	 0.115614
H	-4.7580970277	-0.2594984936	 0.2016769022	 0.120113
H	-5.5886476928	 1.9819587532	 2.1306871683	 0.111335
H	-4.6596868637	 0.531061604	 2.5681356554	 0.124898
59.6405	70.4367	118.0417	175.1601	216.8977	269.2482	347.7942	434.6956	481.9663	592.5167	667.6342	702.3546	772.462	789.2622	840.7904	893.8506	916.7146	939.7316	973.8284	1005.3945	1016.9509	1029.062	1043.0793	1105.2616	1121.4284	1140.55	1199.2593	1217.3436	1238.6028	1264.5775	1280.5882	1305.4314	1326.8969	1340.6133	1363.7633	1372.2541	1401.4184	1469.0243	1474.4601	1484.7588	1490.9306	1522.3236	1845.5495	3017.8207	3020.4124	3034.6842	3043.6089	3075.3027	3080.1235	3095.0491	3119.1345	3137.372	3140.431	3521.4422
[O-]C(=O)CCC1CC[NH2+]1	OC(=O)CC[C@H]1CCN1	
InChI=1S/C6H11NO2/c8-6(9)2-1-5-3-4-7-5/h5,7H,1-4H2,(H,8,9)	InChI=1S/C6H11NO2/c8-6(9)2-1-5-3-4-7-5/h5,7H,1-4H2,(H,8,9)/t5-/m0/s1
