18
gdb 126912	2.63093	1.28923	1.00085	1.8913	74.76	-0.1952	0.031	0.2262	1224.4192	0.148637	-435.269816	-435.260509	-435.259565	-435.304843	33.461	
C	-0.3367946096	 0.9002372903	-1.0866853753	-0.372798
C	 0.0679421001	 0.0515955871	 0.1212079249	-0.155574
N	 1.2511792528	-0.8063963342	-0.0864404398	-0.401895
C	 1.10784847	-1.869921032	-0.984669063	 0.310229
C	 1.5016910089	-2.0475297157	-2.3006562455	 0.168867
O	 2.1205035541	-1.0774839372	-3.041517625	-0.461322
C	 1.1098681574	-3.3588602819	-2.6378147983	-0.115956
N	 0.5060642392	-3.9649387039	-1.614010285	-0.229227
N	 0.5243344998	-3.0510583762	-0.6291279409	-0.229367
H	 0.4675681597	 1.5879213966	-1.3694532804	 0.11622
H	-0.5579163381	 0.2683562392	-1.9517369679	 0.136523
H	-1.22678812	 1.496828695	-0.8596554631	 0.112821
H	 0.2832200115	 0.6940105704	 0.9822681999	 0.104621
H	-0.7611842268	-0.5999565126	 0.4174937181	 0.108176
H	 2.0487121771	-0.2423279787	-0.3591577823	 0.237774
H	 2.4709018397	-1.4773286031	-3.842492713	 0.29953
H	 1.2329211585	-3.8785856716	-3.5778381455	 0.100822
H	 0.1607913558	-3.2865848416	 0.2786877421	 0.270556
37.0488	71.5977	142.5197	157.6443	233.5613	254.352	288.9702	354.9497	445.6636	475.3435	495.9107	641.2261	692.4303	699.6025	723.7435	756.4621	835.5053	842.2489	901.1911	947.6495	1048.4973	1107.6788	1128.577	1151.7519	1155.2656	1252.3952	1283.6304	1296.9227	1337.83	1379.6406	1405.8555	1409.0732	1442.6154	1480.4316	1487.7663	1494.9988	1508.2086	1553.6112	1668.7166	3033.2815	3039.7633	3075.5992	3102.5283	3117.728	3228.7682	3538.403	3672.6306	3844.3186
CCNC1=C(O)C=NN1	CCNc1c(O)cn[nH]1	
InChI=1S/C5H9N3O/c1-2-6-5-4(9)3-7-8-5/h3,9H,2H2,1H3,(H2,6,7,8)	InChI=1S/C5H9N3O/c1-2-6-5-4(9)3-7-8-5/h3,9H,2H2,1H3,(H2,6,7,8)
