22
gdb 89055	3.66111	0.89889	0.82108	1.5127	83.08	-0.2392	0.0751	0.3143	1500.3217	0.193395	-404.29273	-404.28301	-404.282066	-404.328589	35.662	
C	-0.1284872699	 1.3935868133	-0.0186381452	-0.39484
C	 0.6423476068	 0.098177625	 0.1137587431	-0.037434
C	 1.970809455	 0.0677490575	 0.8456772518	-0.314811
C	 0.7497107105	-0.5974297495	 1.438243144	 0.121903
O	 0.0747664084	-0.0165312494	 2.5140372107	-0.245034
C	 0.5426087935	-0.4024815397	 3.7962869404	-0.09576
C	 1.7864419082	 0.3241884944	 4.2521628593	 0.016738
C	 2.650681318	-0.2936749741	 5.2890246826	-0.248243
N	 3.1334263918	-0.1548177309	 3.9059546878	-0.302361
H	-0.0546120581	 1.9865311415	 0.8955896563	 0.12681
H	 0.2567386071	 1.9924399329	-0.850732894	 0.112709
H	-1.1911329024	 1.2032721336	-0.2040764938	 0.116327
H	 0.5615229137	-0.5641928463	-0.7443878128	 0.083614
H	 2.7750008491	-0.5535987493	 0.4653967882	 0.105797
H	 2.2972114284	 0.9880018125	 1.3164036954	 0.130052
H	 0.7174801123	-1.6888925545	 1.4478156745	 0.076592
H	-0.2815112361	-0.1752490202	 4.4825571472	 0.111851
H	 0.7164515374	-1.4916838938	 3.8325146967	 0.078677
H	 1.6959167468	 1.408604396	 4.2337326177	 0.097958
H	 3.1567928415	 0.3302253994	 6.0198530474	 0.121074
H	 2.3818992616	-1.2834097954	 5.6521944988	 0.109838
H	 3.0647866167	-1.0475971529	 3.422950164	 0.228543
28.242	76.5358	91.2312	161.9445	190.4061	233.1209	295.626	338.8206	383.5631	440.8557	478.0167	598.04	745.917	790.9176	823.0323	834.2315	862.1441	915.4402	926.7385	944.8611	974.6832	1015.3828	1029.3939	1057.3987	1059.4318	1095.7191	1110.5887	1125.0013	1147.5266	1155.7136	1175.4466	1192.536	1227.323	1247.8704	1251.5625	1296.9978	1320.8548	1367.8777	1382.4542	1409.1653	1418.9663	1436.6941	1476.4426	1484.6322	1492.6619	1504.6791	1513.0852	2960.3079	3035.3189	3058.9123	3073.9892	3092.9991	3103.611	3121.6032	3130.209	3133.2677	3141.9294	3189.1676	3224.0241	3495.5854
CC1CC1OCC1CN1	C[C@H]1C[C@H]1OC[C@H]1CN1	
InChI=1S/C7H13NO/c1-5-2-7(5)9-4-6-3-8-6/h5-8H,2-4H2,1H3	InChI=1S/C7H13NO/c1-5-2-7(5)9-4-6-3-8-6/h5-8H,2-4H2,1H3/t5-,6+,7+/m0/s1
