19
gdb 115306	2.76251	1.27454	0.98694	2.1187	71.08	-0.254	-0.0399	0.2141	1225.883	0.158774	-460.184456	-460.175468	-460.174524	-460.218507	33.146	
C	-0.053198158	 1.5704174732	 0.0726941253	-0.399736
C	 0.0369537718	 0.0418375824	 0.0431451966	 0.027663
O	 0.6974682765	-0.4566049662	-1.1131662039	-0.265464
C	 2.0543227023	-0.7721876527	-0.7838648258	-0.12037
C	 2.0293843673	-1.2724352524	 0.6639396163	-0.140792
C	 3.2962945882	-1.0696678686	 1.5074564381	-0.07292
O	 3.1441318313	-1.5794757969	 2.8113577394	-0.422847
C	 0.84191987	-0.4987139196	 1.2270330786	 0.376597
O	 0.6045439153	-0.2979390703	 2.39562995	-0.33859
H	 0.9409570478	 2.0265632112	 0.037211798	 0.12217
H	-0.6263918124	 1.9262773581	-0.7865790496	 0.132996
H	-0.5472174163	 1.8929212903	 0.9934506666	 0.140589
H	-0.9732782621	-0.3858891452	 0.0660655308	 0.115843
H	 2.3991149932	-1.51840422	-1.5023635353	 0.123421
H	 2.6978869117	 0.1174915733	-0.8779426231	 0.099934
H	 1.7594140749	-2.3368423573	 0.6888465041	 0.124322
H	 4.1383507669	-1.6016446516	 1.0514390167	 0.112115
H	 3.5550210728	 0.0032378425	 1.5125064759	 0.087455
H	 2.3500890985	-1.1624023401	 3.1744414213	 0.297615
56.7246	121.6065	164.6553	199.4694	212.5507	242.2738	311.861	385.2046	419.5836	499.8647	558.9963	599.3994	652.8917	667.5276	777.787	867.2563	936.6105	951.4978	991.8206	1047.9205	1067.1403	1084.1394	1096.6274	1115.2941	1130.1605	1165.2314	1215.1441	1231.599	1273.2732	1305.6757	1317.4848	1346.3473	1388.3028	1392.4792	1399.5526	1460.3842	1485.8879	1494.1599	1511.5419	1522.1586	1824.0657	2956.1053	2976.2633	3029.7883	3033.369	3045.2226	3064.3389	3105.7048	3120.0095	3133.0225	3737.7304
CC1OCC(CO)C1=O	C[C@H]1OC[C@@H](CO)C1=O	
InChI=1S/C6H10O3/c1-4-6(8)5(2-7)3-9-4/h4-5,7H,2-3H2,1H3	InChI=1S/C6H10O3/c1-4-6(8)5(2-7)3-9-4/h4-5,7H,2-3H2,1H3/t4-,5-/m1/s1
