13
gdb 124106	3.7149	1.6485	1.17854	4.1766	59.1	-0.2748	-0.0482	0.2266	941.7735	0.091489	-489.829829	-489.82362	-489.822676	-489.860619	23.742	
C	 0.0347561883	 1.408020817	 0.0042479538	-0.001172
O	 1.3278850488	 1.914471168	-0.0205282742	-0.226187
C	 2.0441934052	 1.6931597855	 1.2001548626	-0.197255
C	 1.8742225248	 0.2494161393	 1.5505174382	 0.230636
N	 2.5397129507	-0.5215834998	 2.3565926816	-0.16709
O	 1.9553730957	-1.7581881998	 2.2391023459	-0.154298
N	 0.9056611085	-1.7539747853	 1.3422748424	-0.197372
C	 0.854611463	-0.5219594357	 0.9219289107	 0.401204
O	-0.0047657309	-0.0374610975	 0.0200155933	-0.249789
H	-0.5234944522	 1.7676872826	 0.8824940569	 0.114379
H	-0.4567714313	 1.7009673971	-0.9220978743	 0.149576
H	 3.0856812507	 1.953611102	 1.0030972491	 0.161454
H	 1.6638938687	 2.3508359166	 1.9951809841	 0.135915
126.8321	229.7014	353.9489	378.7665	432.5314	479.1871	597.3939	611.0709	725.1569	734.3124	781.4246	902.6868	906.7239	961.4216	977.9826	1025.5729	1064.4331	1110.073	1160.1413	1240.2628	1281.8098	1317.3015	1368.2358	1424.3698	1458.0995	1487.3807	1510.3737	1575.309	1665.4129	2989.8278	3006.5092	3119.1421	3155.7731
C1OCC2=NON=C2O1	C1OCc2nonc2O1	
InChI=1S/C4H4N2O3/c1-3-4(6-9-5-3)8-2-7-1/h1-2H2	InChI=1S/C4H4N2O3/c1-3-4(6-9-5-3)8-2-7-1/h1-2H2
