12
gdb 133617	3.57952	0.93266	0.85531	4.1204	54.69	-0.2838	-0.0746	0.2091	1265.6849	0.070942	-566.970591	-566.961886	-566.960942	-567.005415	30.106	
F	-0.0259157265	 0.0866100951	-0.1528617181	-0.069859
C	-0.0462292905	 1.4142865037	-0.0081949655	 0.291621
F	 1.2005356818	 1.8711193649	-0.1533940433	-0.069968
F	-0.7820907651	 1.9197376629	-1.0150585032	-0.083112
C	-0.6522721688	 1.831355675	 1.3212647105	-0.457679
C	 0.1013186101	 1.3150550485	 2.542707201	 0.230207
O	 1.0940850639	 0.6300961874	 2.4790869239	-0.268952
C	-0.4812475185	 1.720014663	 3.8097318654	 0.235937
C	-0.9789073022	 2.0657790227	 4.8494851259	-0.361452
H	-0.694127987	 2.9248256444	 1.3593901315	 0.165697
H	-1.6875170794	 1.4768517663	 1.3607035858	 0.165803
H	-1.4028470078	 2.3604709261	 5.7792093961	 0.221759
32.5583	93.4188	116.009	181.4783	234.2783	322.1016	340.6416	394.9354	522.2844	529.1455	587.2489	619.2746	658.4201	669.0395	714.5177	857.2989	868.8303	929.8482	1074.4609	1131.1168	1192.0575	1277.7427	1307.0045	1383.4465	1439.8678	1785.5952	2214.5496	3063.613	3106.7686	3492.3859
FC(F)(F)CC(=O)C#C	FC(F)(F)CC(=O)C#C	
InChI=1S/C5H3F3O/c1-2-4(9)3-5(6,7)8/h1H,3H2	InChI=1S/C5H3F3O/c1-2-4(9)3-5(6,7)8/h1H,3H2
