15
gdb 55521	3.57945	1.02211	0.79676	3.5185	66.75	-0.2343	-0.0584	0.1759	1342.3727	0.113605	-487.347769	-487.338762	-487.337817	-487.38191	33.032	
N	 1.2501279733	-0.5204424456	-0.2109379789	-0.52689
C	 0.0336840104	 0.0639418102	-0.0157144231	 0.449152
N	-0.1048450646	 1.3220417533	 0.1484000858	-0.553917
N	-1.0595070629	-0.8417244074	-0.0561034556	-0.381019
C	-1.0548709755	-2.1949472198	-0.0649653726	 0.355414
O	-0.0859397853	-2.941367405	-0.0548287409	-0.401708
C	-2.5002395337	-2.7454716087	-0.0821792917	 0.351686
N	-2.5215997086	-4.0886704116	-0.1025070952	-0.517726
O	-3.4637391675	-1.9994961666	-0.0762315492	-0.372552
H	 2.0397440706	 0.0671793638	-0.0028548811	 0.264205
H	 1.327416928	-1.5188223565	-0.0837227821	 0.28055
H	-1.0815434268	 1.5897645321	 0.2374055699	 0.211662
H	-1.9944028351	-0.4484053201	-0.0398027493	 0.277054
H	-1.6432847943	-4.5830582579	-0.1017233168	 0.287603
H	-3.3980612179	-4.5819176402	-0.1136502393	 0.276487
71.3298	86.6165	132.9816	165.637	303.2061	355.4982	360.6232	420.9444	443.494	471.0093	511.9508	543.8157	571.5534	647.7926	671.7709	723.5745	730.9022	788.8302	832.6154	935.9298	938.7874	1099.7161	1132.7487	1164.3084	1217.2728	1372.535	1414.4448	1529.1571	1591.082	1613.6314	1750.7659	1777.1635	1811.6229	3523.4224	3553.9654	3563.9897	3593.4873	3713.1009	3735.4654
NC(=N)NC(=O)C(N)=O	NC(=N)NC(=O)C(=O)N	
InChI=1S/C3H6N4O2/c4-1(8)2(9)7-3(5)6/h(H2,4,8)(H4,5,6,7,9)	InChI=1S/C3H6N4O2/c4-1(8)2(9)7-3(5)6/h(H2,4,8)(H4,5,6,7,9)
