19
gdb 118604	1.67805	1.27634	0.76624	2.756	77.57	-0.2452	-0.0467	0.1985	1482.9538	0.157157	-419.221239	-419.210989	-419.210044	-419.257358	35.408	
C	-0.1704027027	 1.6065746135	-0.0361640094	-0.39207
C	-0.1212435204	 0.0889398	-0.1775261882	-0.121923
N	-1.4289126758	-0.4945536074	 0.1376151721	-0.308755
C	-1.4525705151	-1.954718417	 0.1132223719	-0.10767
C	-2.8410095172	-2.4780003194	 0.5274158241	-0.309111
C	-3.1890597132	-2.2100727008	 1.9726958718	 0.148062
O	-2.5119728114	-1.5673531466	 2.7368138244	-0.238024
C	-1.142628392	-2.4499825698	-1.2398755747	 0.305319
N	-0.9065262216	-2.8669282746	-2.2910908176	-0.329394
H	 0.7938882208	 2.0486719447	-0.3020885983	 0.120931
H	-0.9401991048	 2.0293012949	-0.6877301924	 0.131028
H	-0.3983575782	 1.9007542095	 0.9947138632	 0.118047
H	 0.1311209435	-0.1801647524	-1.2094141723	 0.129798
H	 0.6818876949	-0.3213432491	 0.461648863	 0.085322
H	-1.6848691475	-0.2241657289	 1.0831292311	 0.240296
H	-0.7020676287	-2.4034995318	 0.7908655868	 0.116365
H	-3.6159879084	-2.0182186817	-0.1001360909	 0.159973
H	-2.9171185791	-3.5595658411	 0.3585558855	 0.148359
H	-4.1502242531	-2.660692902	 2.3032856798	 0.103447
68.2128	83.3774	97.5322	138.2071	142.4578	187.2848	227.0775	260.9463	280.5002	382.0697	396.109	538.2748	596.7837	662.7227	732.6406	810.4202	838.6751	876.7639	903.2607	968.8901	1013.62	1066.6145	1081.9156	1143.8388	1155.0935	1191.8866	1236.6368	1288.8635	1306.7904	1346.7416	1378.8456	1395.0981	1416.0558	1417.0571	1432.2781	1487.4005	1498.6761	1512.9971	1525.0065	1821.1424	2361.3277	2900.0889	2927.7472	2937.0014	3035.5678	3036.315	3059.6417	3072.3887	3105.123	3123.3293	3516.761
CCNC(CC=O)C#N	CCN[C@@H](CC=O)C#N	
InChI=1S/C6H10N2O/c1-2-8-6(5-7)3-4-9/h4,6,8H,2-3H2,1H3	InChI=1S/C6H10N2O/c1-2-8-6(5-7)3-4-9/h4,6,8H,2-3H2,1H3/t6-/m0/s1
