15
gdb 131341	5.88412	0.9495	0.86354	1.9004	68.78	-0.2213	0.0108	0.2322	1278.0429	0.114158	-453.941341	-453.933734	-453.93279	-453.973821	28.521	
O	 0.2575881666	 1.3302766687	-0.0871780654	-0.430198
C	 0.1137275136	-0.0024540808	 0.0588922245	 0.446458
N	-0.1419043778	-0.7935799956	-0.9734376048	-0.335873
N	-0.2340610796	-2.0277108483	-0.4158104795	-0.265665
C	-0.0164927339	-2.0215734432	 0.9197564994	 0.421168
C	 0.2117379282	-0.706430233	 1.2795975052	-0.444634
C	-0.074571402	-3.2711447868	 1.7015914575	-0.04157
C	-1.2696088102	-4.137257922	 1.697712941	-0.171705
O	-0.1165829506	-4.4748101802	 0.9242277948	-0.240447
H	 0.1447611895	 1.5246858491	-1.0261121542	 0.303381
H	-0.3145719622	-2.8458180309	-0.9954694895	 0.280182
H	 0.405139264	-0.3087425807	 2.2613556467	 0.111077
H	 0.5779637771	-3.3108747019	 2.5724033249	 0.115385
H	-1.4649351605	-4.7865828776	 2.5495550599	 0.126644
H	-2.1422980722	-3.8280100068	 1.1259292093	 0.125799
73.869	140.0584	166.8801	307.0034	352.0178	408.8439	419.5876	485.9498	546.2535	642.8215	696.9103	719.1618	753.9154	789.1627	853.6671	896.7806	988.5128	1007.3658	1055.0662	1094.2073	1144.8952	1153.0156	1168.9095	1180.3429	1236.845	1268.712	1329.0652	1373.6639	1463.8932	1519.9245	1533.2266	1563.164	1621.0182	3089.9339	3126.4091	3185.0065	3277.9204	3679.8879	3795.5296
OC1=NNC(=C1)C1CO1	Oc1n[nH]c(c1)[C@H]1CO1	
InChI=1S/C5H6N2O2/c8-5-1-3(6-7-5)4-2-9-4/h1,4H,2H2,(H2,6,7,8)	InChI=1S/C5H6N2O2/c8-5-1-3(6-7-5)4-2-9-4/h1,4H,2H2,(H2,6,7,8)/t4-/m1/s1
