16
gdb 43441	3.03284	1.47177	1.08151	2.8895	71.26	-0.2758	-0.0124	0.2634	1088.2573	0.125091	-437.936019	-437.928391	-437.927446	-437.968934	28.849	
N	-0.0336658813	 1.2661213603	 0.007290957	-0.514886
C	-0.0390538402	 0.010430762	 0.0010748782	 0.412434
C	-1.2630952977	-0.8834744055	 0.0031342244	-0.423084
C	-0.6721719348	-2.2793559263	-0.007358551	 0.172107
C	-1.2400074967	-3.4739557922	 0.7360784104	-0.294307
C	-1.2477870065	-3.4659823692	-0.7575841045	-0.294301
C	 0.8091581328	-2.1196258017	-0.0143335423	 0.415906
O	 1.6630726731	-2.9544670798	-0.0227826442	-0.340318
O	 1.1098560098	-0.7679584431	-0.0088245991	-0.222836
H	 0.9196082834	 1.6315894404	 0.0040917374	 0.237327
H	-1.8686923538	-0.6718546466	 0.8887557668	 0.150094
H	-1.8784741847	-0.6626506999	-0.8734414226	 0.150091
H	-0.5241444537	-4.1155385012	 1.2370810673	 0.147613
H	-2.1748442682	-3.3145386296	 1.2621616412	 0.128278
H	-2.1880358955	-3.3009785564	-1.272173673	 0.128275
H	-0.5372205261	-4.1021352213	-1.2728470062	 0.147607
36.9199	142.8731	239.0002	242.5746	335.8436	365.0459	484.3422	529.8986	589.7922	641.8433	749.4765	749.542	787.4359	848.7857	879.5057	909.3489	926.3644	959.6348	1006.3647	1019.9054	1049.8555	1070.1427	1095.3877	1107.1823	1187.1603	1202.7077	1247.9253	1307.6816	1318.2293	1375.7801	1455.4399	1473.3217	1488.5158	1790.4671	1900.2094	3064.3546	3102.3147	3137.7599	3139.6011	3225.7054	3239.7618	3484.7546
N=C1CC2(CC2)C(=O)O1	[NH][C]1CC2(CC2)C(=O)O1	
InChI=1S/C6H7NO2/c7-4-3-6(1-2-6)5(8)9-4/h7H,1-3H2	InChI=1S/C6H7NO2/c7-4-3-6(1-2-6)5(8)9-4/h7H,1-3H2
