21
gdb 121191	2.36294	1.0733	0.8082	0.4595	85.53	-0.2502	0.0469	0.2972	1474.4574	0.180825	-387.034157	-387.024262	-387.023318	-387.069457	36.062	
C	-0.2995642305	 1.3232654021	-0.1509405502	-0.22686
O	-0.0084174324	-0.0496211948	-0.0571412567	-0.234347
C	 0.5672138165	-0.5713209802	-1.2367107624	-0.066994
C	 0.8265184309	-2.0509229675	-1.0129116325	-0.023611
C	-0.4644306373	-2.9137729658	-0.9565587012	-0.22333
C	-0.235350291	-3.3318771806	-2.4325803718	-0.226754
C	 1.2440146569	-2.8382094219	-2.309099114	-0.177667
C	 1.846621862	-2.130634693	-3.4208696485	 0.320819
C	 2.3321320749	-1.5358656255	-4.3475647419	-0.463327
H	 0.6062269553	 1.9227450308	-0.3354338543	 0.103378
H	-1.018104283	 1.5357065104	-0.9589660357	 0.10214
H	-0.7386139565	 1.6319031054	 0.8011448282	 0.124917
H	-0.1088536841	-0.4157861427	-2.0951855483	 0.08696
H	 1.5085016323	-0.0502337219	-1.4763035117	 0.095044
H	 1.5118460763	-2.1615911005	-0.1688284051	 0.080186
H	-0.3674143065	-3.7560158115	-0.2667943077	 0.101546
H	-1.3852768335	-2.3772531861	-0.7215802075	 0.111423
H	-0.3748277935	-4.3822959604	-2.6956800491	 0.104131
H	-0.8009723153	-2.7179390502	-3.1366005379	 0.114157
H	 1.8872176816	-3.6764584067	-2.0211866379	 0.105111
H	 2.7652988067	-1.0162382296	-5.1658536239	 0.193077
77.0768	96.6402	99.8275	118.5828	180.9974	227.0601	244.4052	321.2604	360.0323	463.8876	507.1268	551.6895	615.5047	629.2547	667.1401	760.3502	854.7081	891.826	930.6688	951.2496	958.8164	992.9524	1050.3879	1089.2579	1105.8922	1148.4759	1159.7703	1184.6475	1207.5647	1225.9977	1236.4498	1244.6035	1260.4041	1273.4217	1292.2955	1342.9492	1359.4561	1427.1117	1481.7382	1485.8006	1487.0337	1498.7844	1506.3448	1523.9709	2228.0013	2953.8635	2969.5561	2988.7985	3010.2193	3046.3757	3065.8794	3072.3866	3079.7463	3110.9194	3116.8426	3132.7076	3504.392
COCC1CCC1C#C	COC[C@H]1CC[C@H]1C#C	
InChI=1S/C8H12O/c1-3-7-4-5-8(7)6-9-2/h1,7-8H,4-6H2,2H3	InChI=1S/C8H12O/c1-3-7-4-5-8(7)6-9-2/h1,7-8H,4-6H2,2H3/t7-,8-/m1/s1
