19
gdb 103558	2.7548	1.17935	0.99728	4.6419	72.28	-0.2352	-0.0143	0.2209	1240.9587	0.156041	-460.168063	-460.158214	-460.15727	-460.202885	36.196	
C	-0.5236005531	 1.2854900526	 0.0752269412	-0.407197
C	 0.1137447737	-0.0872812811	-0.0775552878	-0.142074
C	 1.4191786437	-0.2242093422	-0.88198316	 0.390713
O	 1.8196836119	 0.2848815967	-1.8878528174	-0.297973
C	 2.0355254307	-1.1692552517	 0.1615841195	-0.387565
C	 0.8686898696	-0.7496729605	 1.1223872779	 0.393727
O	 1.2681039814	 0.2467240492	 2.0391460173	-0.483071
C	 0.1434250464	-1.8649050326	 1.8553604955	-0.1502
O	 1.0414593706	-2.3356831403	 2.8570690787	-0.434498
H	 0.1651125887	 1.9772146255	 0.5635186399	 0.144349
H	-0.7797595432	 1.6861037091	-0.9098611008	 0.130684
H	-1.4381283467	 1.2370459458	 0.674039513	 0.115028
H	-0.6066584027	-0.8083392554	-0.4899972458	 0.09634
H	 2.0046295242	-2.2165773086	-0.1563469355	 0.122839
H	 3.0443836666	-0.9224366595	 0.4979774087	 0.132393
H	 1.6444212421	-0.2294974351	 2.7909543589	 0.28735
H	-0.7753986478	-1.4620251915	 2.3059792001	 0.101497
H	-0.134672141	-2.667950476	 1.1565606699	 0.090298
H	 0.5525752649	-2.8708169845	 3.4883175066	 0.297359
52.3917	104.7682	162.9964	165.4396	204.3849	256.5502	262.3323	346.7052	362.1255	388.687	426.1212	476.3888	533.728	579.0366	665.4867	743.3171	767.9841	854.2889	902.8075	970.8949	995.9837	1034.2742	1037.64	1075.0586	1115.4948	1142.2187	1154.8008	1188.7412	1211.5693	1226.1606	1277.3375	1292.1139	1332.6817	1394.8312	1406.6242	1425.7416	1449.9206	1489.3121	1499.5681	1508.0599	1894.0351	2983.0787	3012.3809	3024.9277	3047.1355	3058.3193	3112.1354	3127.6069	3139.5676	3769.2758	3840.9302
CC1C(=O)CC1(O)CO	C[C@H]1C(=O)C[C@]1(O)CO	
InChI=1S/C6H10O3/c1-4-5(8)2-6(4,9)3-7/h4,7,9H,2-3H2,1H3	InChI=1S/C6H10O3/c1-4-5(8)2-6(4,9)3-7/h4,7,9H,2-3H2,1H3/t4-,6-/m0/s1
