23
gdb 106826	2.79722	1.13278	0.94942	0.7548	87.06	-0.2385	0.0903	0.3288	1380.7683	0.204335	-388.259729	-388.249764	-388.24882	-388.294755	37.047	
C	 0.0998158617	 1.3787904591	 0.3926820763	-0.374456
C	-0.0113315879	-0.0487732408	-0.1601658448	-0.289255
C	-1.424423401	-0.5618286241	-0.1954604138	 0.285367
C	-2.1242827188	-1.1337375652	 1.0265851865	-0.391947
C	-1.9699917516	-1.9807323068	-0.2114132302	 0.399292
C	-3.0314741931	-1.6155375927	-1.2552788954	-0.294936
C	-2.502350585	-0.1416080379	-1.2110279427	-0.278662
O	-1.2398353757	-3.1508756189	-0.2083371915	-0.286154
C	-1.9137828363	-4.2396984133	 0.399151476	-0.255401
H	 1.1387038656	 1.7232054651	 0.3916289959	 0.109313
H	-0.4853154494	 2.0830530386	-0.2085902973	 0.115966
H	-0.2737822717	 1.4313831432	 1.4205692219	 0.116938
H	 0.4096225758	-0.0808765163	-1.1741536079	 0.095032
H	 0.5996589491	-0.7298297813	 0.444453152	 0.10367
H	-1.4531021725	-1.4100088997	 1.8346797231	 0.110107
H	-3.0945731264	-0.7596016839	 1.3489534628	 0.095733
H	-2.8363028197	-2.0903785989	-2.2197320741	 0.107251
H	-4.0784485682	-1.7809667269	-0.9802896401	 0.090716
H	-3.2133920864	 0.6164421284	-0.8669425662	 0.093973
H	-2.084484101	 0.1792121209	-2.1689168107	 0.101211
H	-1.235663141	-5.0955218968	 0.3649154731	 0.125053
H	-2.1682488667	-4.0204983497	 1.4456279217	 0.11024
H	-2.8379086395	-4.497560122	-0.1374251045	 0.11095
66.2593	96.6555	110.5696	174.2907	183.8814	215.0986	270.273	293.6916	356.8083	385.8868	451.3931	527.5793	638.8233	705.0646	734.9341	784.1047	796.9968	891.5449	923.4954	929.9948	973.6797	982.4969	1006.902	1033.7901	1057.8636	1073.7273	1103.7179	1137.1619	1175.6704	1179.9652	1206.2207	1214.854	1227.4529	1242.0499	1245.307	1311.5496	1331.551	1357.2192	1405.6184	1412.4463	1472.0107	1478.7857	1483.3982	1485.1195	1487.683	1497.4218	1505.8673	1507.8804	1521.9234	2990.8671	3015.3894	3032.3244	3039.4759	3044.0099	3048.4142	3053.9037	3091.3194	3093.3395	3100.688	3104.8172	3111.9338	3118.4622	3191.0777
CCC12CC1(CC2)OC	CC[C@]12C[C@]1(CC2)OC	
InChI=1S/C8H14O/c1-3-7-4-5-8(7,6-7)9-2/h3-6H2,1-2H3	InChI=1S/C8H14O/c1-3-7-4-5-8(7,6-7)9-2/h3-6H2,1-2H3/t7-,8-/m0/s1
