25
gdb 118240	5.0333	0.60476	0.56817	1.227	90.12	-0.2537	0.07	0.3237	2068.2191	0.227191	-389.484967	-389.473873	-389.472928	-389.522176	40.344	
C	 0.0881795441	 1.5687503066	-0.08509262	-0.38176
C	 0.1346941473	 0.0390616198	-0.060736354	-0.162904
C	 0.6495201068	-0.5273303522	 1.2663024651	-0.181958
C	 0.7701231254	-2.057306794	 1.2745672853	 0.122313
O	 1.6255804525	-2.5179778257	 0.2297825046	-0.424196
C	 1.1990489307	-2.5954752322	 2.6483627178	-0.232341
C	 1.2544500429	-4.1060929844	 2.7274521095	 0.049411
C	 2.508425886	-4.8573539478	 2.3691241381	-0.240116
C	 2.0566056117	-4.7900310304	 3.8071025964	-0.284719
H	 1.0842077029	 1.9988647814	 0.0705908767	 0.110183
H	-0.2871741311	 1.9409162265	-1.0435802911	 0.111232
H	-0.5650593402	 1.9613531397	 0.7025959752	 0.110632
H	-0.8689757847	-0.3620714178	-0.2550938753	 0.09219
H	 0.770766762	-0.3328864823	-0.8708383819	 0.108708
H	 1.6372831072	-0.0964711635	 1.4939157243	 0.078854
H	-0.0115488283	-0.2159508964	 2.0862804934	 0.090973
H	-0.20931006	-2.4874972966	 1.0232169363	 0.082874
H	 2.5159568136	-2.2043543731	 0.4242620817	 0.273678
H	 2.1844096626	-2.1769356255	 2.9045560685	 0.079079
H	 0.5012730615	-2.2086365785	 3.4034369363	 0.096347
H	 0.3219997396	-4.5949624811	 2.4542913368	 0.079562
H	 2.4155294686	-5.7979383443	 1.8379709173	 0.111072
H	 3.3817101967	-4.2791504969	 2.0857695877	 0.096779
H	 2.6239187046	-4.1649779748	 4.4896556723	 0.105499
H	 1.6504586276	-5.6854029366	 4.2648540589	 0.108607
41.3291	68.0092	84.9785	108.1883	131.5156	216.1584	248.0758	255.5104	284.4301	333.6316	348.8452	406.5853	482.1939	566.3508	747.6587	767.5486	801.5635	836.6852	852.7475	868.8133	904.5141	933.6079	949.9141	986.7388	1037.9338	1050.9016	1063.1235	1073.1011	1083.4312	1109.5661	1122.2796	1138.2027	1158.9643	1195.2416	1229.4402	1241.2816	1251.193	1278.5152	1313.2112	1328.3619	1358.8903	1373.7207	1396.6185	1413.905	1417.9858	1423.1446	1467.519	1472.6678	1483.2484	1494.5751	1500.2972	1507.8252	1511.595	2986.6396	2993.5624	3017.2814	3022.839	3027.1348	3031.8128	3046.3591	3071.1428	3095.6611	3099.9921	3126.4697	3130.198	3134.4392	3204.0108	3219.7633	3795.7725
CCCC(O)CC1CC1	CCC[C@@H](O)CC1CC1	
InChI=1S/C8H16O/c1-2-3-8(9)6-7-4-5-7/h7-9H,2-6H2,1H3	InChI=1S/C8H16O/c1-2-3-8(9)6-7-4-5-7/h7-9H,2-6H2,1H3/t8-/m1/s1
