14
gdb 25035	4.215	1.1114	0.93324	4.901	66.04	-0.2216	0.0013	0.2229	1186.0555	0.101443	-473.848764	-473.841296	-473.840352	-473.881341	27.381	
O	 0.12520968	-0.0011531657	 0.0373428703	-0.392528
C	 0.0308100947	 1.1920869839	-0.0182724818	 0.481442
N	-1.0612432436	 1.9850108856	-0.302461725	-0.363469
C	-0.7071237093	 3.3295858986	-0.2513120569	-0.210646
C	 0.5969645598	 3.3692092496	 0.0645994519	 0.382554
O	 1.0695339692	 2.0791769691	 0.211614907	-0.243178
C	 1.5183883454	 4.4866503407	 0.2729355247	-0.050467
C	 2.7955758225	 4.3331575372	 0.9878713103	-0.179099
O	 2.7688504948	 4.4551331427	-0.432564705	-0.227285
H	-1.9663664193	 1.5984358204	-0.502892946	 0.281251
H	-1.4049406114	 4.1261526869	-0.4433035323	 0.158373
H	 1.0275008594	 5.4591597489	 0.2783666745	 0.10359
H	 3.2059016307	 5.1851357463	 1.5284649185	 0.120179
H	 3.0737826772	 3.3517760957	 1.3653841297	 0.139282
79.6336	129.3787	153.8405	230.193	385.9928	408.7607	473.1678	521.8546	632.637	671.0637	745.3093	771.085	772.4441	832.6198	897.2983	941.1335	968.2144	1005.2542	1086.3463	1095.8714	1133.2343	1161.33	1163.6935	1265.7946	1290.6705	1352.7692	1406.8771	1431.4713	1519.7245	1710.8572	1904.493	3089.72	3122.4389	3186.134	3288.8966	3698.2325
O=C1NC=C(O1)C1CO1	O=c1[nH]cc(o1)[C@H]1CO1	
InChI=1S/C5H5NO3/c7-5-6-1-3(9-5)4-2-8-4/h1,4H,2H2,(H,6,7)	InChI=1S/C5H5NO3/c7-5-6-1-3(9-5)4-2-8-4/h1,4H,2H2,(H,6,7)/t4-/m1/s1
