19
gdb 91692	2.82304	1.26918	1.08576	4.2145	76.34	-0.2423	-0.0181	0.2242	1164.0333	0.160113	-423.018402	-423.010369	-423.009425	-423.051232	31.088	
O	-0.1602966938	 1.5634097028	 0.1717951767	-0.438288
C	-0.1197638201	 0.1628910271	-0.026759978	 0.137233
C	 0.4487289203	-0.6524213826	 1.1874661799	-0.262687
C	-0.8131431547	-1.4588536029	 1.5484516532	-0.038297
C	-1.2902207768	-1.9173394672	 0.1411154014	-0.251312
C	-1.5512184789	-0.3974008603	-0.0467866918	-0.046891
C	-1.9138428	-0.3357608134	 1.4816055303	-0.052638
C	-3.3053192817	-0.7537783449	 1.8510633996	 0.1298
O	-4.0040561634	-0.1361858694	 2.6175031555	-0.260964
H	 0.7433206124	 1.8841676347	 0.2505031546	 0.284781
H	 0.4045012638	-0.0777893742	-0.962606013	 0.068554
H	 1.2879934598	-1.2990444479	 0.9139429299	 0.099101
H	 0.7684683735	 0.0194215113	 1.989192077	 0.104418
H	-0.7527600077	-2.1421181315	 2.3959488506	 0.073374
H	-0.5498723126	-2.389295905	-0.5125554467	 0.094768
H	-2.1989484714	-2.5183411365	 0.1505400683	 0.112015
H	-2.2183019559	-0.0013794627	-0.8117988446	 0.079136
H	-1.6900645638	 0.6041209766	 1.9885071286	 0.099151
H	-3.6857251289	-1.6878082041	 1.3805410584	 0.068745
66.1818	148.4884	219.2079	241.814	267.1573	352.2591	418.0426	469.7285	483.4075	533.9839	669.5874	816.5289	828.073	844.0068	870.5755	920.1583	939.2777	962.4146	977.	1019.5286	1038.1844	1052.1392	1088.1323	1094.7374	1104.781	1145.8367	1186.9957	1192.2773	1225.4011	1242.4896	1252.9432	1267.9665	1282.1666	1301.1932	1329.7519	1354.7795	1421.6017	1446.27	1484.7768	1520.543	1816.0644	2874.8478	2994.2812	3050.5053	3056.8507	3101.0619	3108.2469	3113.1609	3124.614	3137.5598	3823.9035
OC1CC2CC1C2C=O	O[C@H]1C[C@@H]2C[C@H]1[C@H]2C=O	
InChI=1S/C7H10O2/c8-3-6-4-1-5(6)7(9)2-4/h3-7,9H,1-2H2	InChI=1S/C7H10O2/c8-3-6-4-1-5(6)7(9)2-4/h3-7,9H,1-2H2/t4-,5-,6-,7-/m0/s1
