20
gdb 110948	2.64363	1.07702	0.9073	0.9561	75.05	-0.2293	0.06	0.2893	1340.3633	0.17045	-440.210409	-440.201022	-440.200077	-440.245024	34.544	
O	 1.8880645991	-2.131416761	-1.9431252043	-0.421835
C	 1.3543618489	-1.6720461071	-0.7078448883	-0.124718
C	-0.1108458543	-2.0490368736	-0.7282885517	 0.037751
C	-0.7308722837	-3.2065151271	-0.0622679045	-0.033583
C	-0.1403379921	-3.4771226349	 1.321592341	-0.288132
C	-0.5964296644	-2.0420820163	 1.6883797819	 0.061715
C	 0.33912837	-1.0184733892	 2.3183802345	-0.088244
O	 0.6228858884	-1.34259645	 3.6720777469	-0.416435
N	-1.1356996323	-1.7701155753	 0.3022759111	-0.200708
H	 2.8159817276	-1.8814149225	-1.9783198431	 0.288767
H	 1.8849614696	-2.1259776285	 0.1390859574	 0.094369
H	 1.4487743379	-0.5781005655	-0.6143235918	 0.096339
H	-0.5335658152	-1.8227862468	-1.7058212336	 0.108301
H	-1.4198665535	-3.8676514292	-0.5781224669	 0.096571
H	-0.6647112429	-4.2526330327	 1.880972024	 0.111033
H	 0.9317678226	-3.6925356289	 1.3574170793	 0.111507
H	-1.4835386761	-2.0968751384	 2.3320674378	 0.075495
H	 1.3114719297	-0.9867449103	 1.8220012639	 0.108255
H	-0.1124993937	-0.0184602794	 2.218333762	 0.099566
H	-0.2016518755	-1.2917036734	 4.1666588144	 0.283984
68.9994	85.062	136.3586	184.3725	231.34	245.29	288.003	305.4493	399.4796	419.4163	474.3158	564.8125	737.9254	747.2669	803.4284	854.12	874.6816	941.8797	976.5451	992.4118	1034.404	1062.4144	1075.7979	1076.5696	1097.4778	1120.92	1144.0961	1149.0471	1226.8224	1234.8224	1255.6509	1260.2535	1277.3695	1287.1147	1341.3777	1367.5199	1404.5761	1420.6176	1428.8814	1478.9604	1492.0834	1506.2014	1525.8001	2971.3163	2982.5074	3017.0146	3023.5458	3058.0242	3110.0089	3122.376	3128.3833	3163.1282	3811.1613	3831.411
OCC1C2CC(CO)N12	OC[C@H]1[C@H]2C[C@@H](CO)N12	
InChI=1S/C6H11NO2/c8-2-4-1-5-6(3-9)7(4)5/h4-6,8-9H,1-3H2	InChI=1S/C6H11NO2/c8-2-4-1-5-6(3-9)7(4)5/h4-6,8-9H,1-3H2/t4-,5+,6-,7?/m0/s1
