20
gdb 111063	3.28832	1.0964	0.96013	3.1334	75.82	-0.2517	0.0633	0.315	1291.9209	0.170883	-440.18721	-440.178245	-440.177301	-440.221412	33.357	
C	-0.8204705194	 1.667416662	-0.2053168462	-0.265245
O	-0.5799245018	 0.2821078551	-0.3808601852	-0.2836
C	-1.6877796933	-0.5118760175	-0.1929725381	 0.377275
C	-2.5698728931	-0.7377572945	 1.0711905171	-0.237295
N	-3.1625969966	-1.7145126342	 0.0458836861	-0.16753
C	-3.0428002576	-0.553811434	-0.9538264918	-0.256125
C	-1.6836356606	-2.0475567925	-0.2917291381	-0.01391
C	-1.4613255154	-2.8620619807	-1.5523737115	-0.112966
O	-2.0828299617	-4.1302051993	-1.4159558177	-0.419847
H	 0.1257918254	 2.1813003697	-0.3841439555	 0.135087
H	-1.5699669031	 2.0417623352	-0.9165785769	 0.115205
H	-1.161891925	 1.8921906691	 0.8147464082	 0.115504
H	-2.1170041558	-1.2313815063	 1.934372608	 0.108775
H	-3.2705098831	 0.0457249236	 1.3690558588	 0.102638
H	-3.7662323261	 0.2423523642	-0.7625740184	 0.103801
H	-3.0608118718	-0.8516867129	-2.0013188257	 0.110215
H	-1.2106424514	-2.5662180298	 0.5487226086	 0.085142
H	-1.8043089069	-2.3445335286	-2.4588351774	 0.090767
H	-0.3889520537	-3.0465828406	-1.6770194776	 0.117373
H	-2.9727968991	-3.9620915481	-1.0828243965	 0.294736
67.9413	80.131	137.2474	175.3403	214.1053	311.124	338.5217	403.8278	418.3178	537.8264	585.4024	619.6328	640.8742	751.6876	804.3221	868.4488	907.6583	971.4517	979.6505	1031.8883	1053.6507	1064.1455	1077.669	1106.0218	1150.1534	1166.1981	1171.9169	1180.4736	1182.9679	1189.7856	1222.2637	1240.0196	1254.3292	1310.1511	1350.86	1419.3668	1453.0035	1486.1739	1490.0755	1501.5473	1505.0543	1520.5643	1559.2009	2993.7691	3005.4921	3047.0375	3054.0013	3060.1628	3075.0985	3077.3659	3128.4826	3130.7555	3151.3918	3784.5299
COC12CN(C1)C2CO	CO[C@@]12CN(C1)[C@H]2CO	
InChI=1S/C6H11NO2/c1-9-6-3-7(4-6)5(6)2-8/h5,8H,2-4H2,1H3	InChI=1S/C6H11NO2/c1-9-6-3-7(4-6)5(6)2-8/h5,8H,2-4H2,1H3/t5-/m0/s1
