25
gdb 120623	3.1524	0.76143	0.68933	1.0546	91.19	-0.2476	0.085	0.3325	1798.8264	0.226524	-389.474676	-389.463405	-389.462461	-389.511624	40.667	
C	 0.3724982516	 1.533082831	 0.2522019058	-0.381663
C	-0.1555129141	 0.1428988223	-0.1287964731	-0.246782
C	 0.5680710046	-0.4900155265	-1.3127938553	 0.351555
C	 0.4312039989	 0.2748607653	-2.6193056835	-0.45892
C	 1.8807378972	-1.1986084009	-1.0596260377	-0.32068
C	 0.6572814792	-1.9995339225	-1.440398879	-0.060809
C	 0.0288222776	-2.9718438124	-0.4775057211	-0.086303
O	 0.6896153101	-4.2162969566	-0.6131924543	-0.229686
C	 0.147022972	-5.212643621	 0.2163352533	-0.223675
H	 1.4453893571	 1.4979402745	 0.4693527616	 0.117851
H	 0.2187798541	 2.2632325255	-0.5480111093	 0.117898
H	-0.1387938411	 1.9109567397	 1.1431148939	 0.109606
H	-0.0731411499	-0.5082770045	 0.7472695633	 0.094428
H	-1.2282191446	 0.2127134368	-0.3567071531	 0.092187
H	 0.8652220537	 1.277915628	-2.5498316381	 0.117035
H	 0.9407607652	-0.246235105	-3.43545639	 0.113251
H	-0.6226199777	 0.3873165083	-2.9023345972	 0.111324
H	 2.6828055375	-1.0975491108	-1.7834059273	 0.105574
H	 2.2216298699	-1.2780527106	-0.0313723832	 0.10522
H	 0.6366125461	-2.3721804602	-2.4615632657	 0.085315
H	 0.1071107191	-2.6183334801	 0.5629823465	 0.081529
H	-1.0475338509	-3.0941121226	-0.6945707679	 0.081757
H	 0.2267832081	-4.9486510624	 1.2837385024	 0.099338
H	-0.9159984305	-5.4008325881	-0.0070776787	 0.099886
H	 0.7115274367	-6.131601807	 0.0391162974	 0.124763
52.3233	81.6522	85.7482	112.6655	181.016	221.0399	224.3539	235.5908	271.3651	302.1557	323.4609	370.0949	416.2489	489.3258	564.7244	680.235	786.2826	846.0674	887.4403	899.9125	927.9372	969.0005	991.2036	1018.545	1036.5074	1061.7211	1068.8692	1096.0449	1130.9814	1146.5154	1154.5536	1179.1863	1195.3795	1225.6599	1249.5685	1282.4858	1314.5062	1329.5206	1373.8546	1392.3611	1408.5424	1417.7423	1448.8217	1478.3097	1481.7102	1483.9649	1490.6499	1495.7047	1501.5505	1503.2314	1508.3183	1511.7501	1525.9267	2940.246	2962.701	2980.7735	3002.3223	3013.4437	3023.2697	3036.4454	3068.4083	3084.2833	3100.4624	3102.8155	3110.0562	3110.7347	3122.0392	3137.5972	3204.6102
CCC1(C)CC1COC	CC[C@@]1(C)C[C@H]1COC	
InChI=1S/C8H16O/c1-4-8(2)5-7(8)6-9-3/h7H,4-6H2,1-3H3	InChI=1S/C8H16O/c1-4-8(2)5-7(8)6-9-3/h7H,4-6H2,1-3H3/t7-,8-/m0/s1
