13
gdb 23991	5.60067	0.9599	0.81946	3.1691	90.77	-0.2177	-0.0378	0.1799	1299.5287	0.089071	-378.448891	-378.441054	-378.44011	-378.481221	29.523	
C	 0.1482630055	-1.1753737905	-0.0047830146	-0.405513
C	 0.0411951333	 0.0248305889	 0.0027376099	 0.202951
C	-0.0837030353	 1.4248476022	 0.0115254737	 0.175441
C	-1.1871320105	 2.2650195761	 0.0312435251	-0.180229
N	-0.8110121998	 3.57008238	 0.0325124216	-0.294959
C	 0.5173850418	 3.5617730215	 0.0138221569	 0.206405
N	 0.998104798	 2.2811292758	 0.0006228901	-0.362554
C	 1.3735937227	 4.6846910642	 0.0074346236	 0.236939
C	 2.1245512504	 5.6252967292	 0.0016085427	-0.381653
H	 0.2347849405	-2.233742708	-0.0112983733	 0.195867
H	-2.2249859295	 1.9700596699	 0.0443370726	 0.125944
H	 1.9671631776	 2.0075899234	-0.0143627156	 0.28086
H	 2.7758495853	 6.4642922274	-0.0033284127	 0.200501
113.3958	115.8409	193.0451	203.9093	424.1065	476.7196	484.2459	530.1247	541.5818	567.455	579.8438	580.2635	664.8258	681.7065	684.057	687.0417	740.8854	870.3149	1005.404	1042.4971	1193.724	1202.9475	1299.3278	1367.7859	1409.696	1470.6813	1577.1038	2229.5986	2236.6089	3258.9893	3500.737	3501.6466	3661.6833
C#CC1=CN=C(N1)C#C	C#Cc1cnc([nH]1)C#C	
InChI=1S/C7H4N2/c1-3-6-5-8-7(4-2)9-6/h1-2,5H,(H,8,9)	InChI=1S/C7H4N2/c1-3-6-5-8-7(4-2)9-6/h1-2,5H,(H,8,9)
