15
gdb 28383	3.24934	1.415	0.98771	3.9688	77.53	-0.178	-0.027	0.151	1125.7049	0.113904	-454.01111	-454.003078	-454.002134	-454.04327	31.147	
N	 0.1010313763	 1.3641006522	-0.1685393617	-0.565792
C	-0.075067848	-0.0003922894	-0.0558108207	 0.423318
C	-1.2488392657	-0.6827521374	-0.0259874819	-0.253819
C	-1.2047293852	-2.1046494288	 0.0171111894	-0.133348
C	-0.0195976641	-2.7819380418	 0.0266271623	 0.098133
N	 0.1335014685	-4.1663772266	 0.1297966493	-0.58509
C	 1.2253277274	-2.0371579462	-0.0161387419	 0.406843
O	 2.3373633698	-2.5104385372	-0.0303680256	-0.371045
O	 1.1077942246	-0.6478830264	-0.0428081599	-0.243544
H	 0.990802994	 1.6908521602	 0.1812496019	 0.265462
H	-0.6779942437	 1.9200193177	 0.1504237653	 0.261403
H	-2.1899832957	-0.1502972462	-0.0406812927	 0.094066
H	-2.1387728775	-2.657792848	 0.0493869215	 0.097763
H	-0.5752178209	-4.7077247341	-0.3441124225	 0.244247
H	 1.0699926901	-4.4523239881	-0.1268445329	 0.261402
116.9639	181.5184	272.5678	287.4077	302.5195	343.5764	370.7102	416.4693	472.5855	541.8908	574.6511	588.4041	672.2148	693.6938	741.9579	769.8849	783.1043	802.9848	916.3403	1003.3829	1045.953	1101.8387	1130.5365	1164.0817	1281.2072	1327.0454	1434.8482	1445.2315	1604.7092	1630.3274	1649.2898	1690.6841	1807.449	3172.6128	3220.7568	3542.6672	3568.7434	3648.9617	3678.2138
NC1=CC=C(N)C(=O)O1	Nc1ccc(N)c(=O)o1	
InChI=1S/C5H6N2O2/c6-3-1-2-4(7)9-5(3)8/h1-2H,6-7H2	InChI=1S/C5H6N2O2/c6-3-1-2-4(7)9-5(3)8/h1-2H,6-7H2
