21
gdb 41899	2.05842	2.01255	1.75642	2.0829	76.12	-0.2485	0.0682	0.3167	956.726	0.187301	-424.241894	-424.23463	-424.233686	-424.273484	29.814	
C	-0.0061704993	 1.525269624	 0.0695221594	-0.205572
C	 1.4206858967	 2.1179784893	-0.0746491879	-0.205587
C	 2.4878617053	 1.0328162235	-0.2754977685	 0.120314
C	 2.406125726	-0.0254804718	 0.8350488401	-0.242336
C	 0.976322735	-0.6186628308	 0.9822974631	-0.242216
C	-0.0157110958	-0.0073811695	-0.0188186107	 0.120336
O	 0.2120842576	-0.4200222622	-1.3755483964	-0.2681
C	 1.5475768661	-0.6315625074	-1.7442194067	 0.02039
O	 2.3833393295	 0.4839750738	-1.5987582806	-0.268152
H	-0.4443155822	 1.8144993564	 1.0318444471	 0.091876
H	-0.6692145428	 1.9128603523	-0.7082101949	 0.109669
H	 1.4728507746	 2.8053122036	-0.9229258911	 0.109589
H	 1.685997138	 2.6963330686	 0.817997801	 0.091858
H	 3.4788264487	 1.4986033027	-0.2524463378	 0.075221
H	 3.1411166192	-0.8131832724	 0.644001918	 0.110225
H	 2.7126017528	 0.4613744739	 1.7664934582	 0.102493
H	 0.9880178032	-1.7066801042	 0.8670710878	 0.110216
H	 0.5847321931	-0.4200246823	 1.9851729374	 0.102505
H	-1.0231262988	-0.3712497937	 0.2096662202	 0.075233
H	 1.962941701	-1.4947634793	-1.1992400533	 0.077541
H	 1.5333924222	-0.8612594348	-2.8125305742	 0.114497
75.9393	256.1469	291.6826	328.5963	362.8723	374.0502	448.7187	541.0477	564.2068	702.1726	773.7678	781.3782	789.8789	818.3596	874.8946	909.6008	919.8356	934.7365	975.8987	1051.7558	1058.2408	1079.1104	1095.7468	1113.6579	1123.8598	1165.784	1193.788	1256.3735	1267.012	1277.3394	1291.8853	1308.9265	1342.5385	1345.7409	1350.128	1378.161	1388.3581	1392.1935	1401.2116	1442.953	1471.2951	1483.1458	1488.965	1500.5607	1526.1403	2966.9923	3030.2416	3038.3703	3039.8067	3048.8717	3053.2844	3063.1116	3074.5974	3083.3062	3095.947	3099.5553	3103.1014
C1CC2CCC1OCO2	C1C[C@H]2CC[C@@H]1OCO2	
InChI=1S/C7H12O2/c1-2-7-4-3-6(1)8-5-9-7/h6-7H,1-5H2	InChI=1S/C7H12O2/c1-2-7-4-3-6(1)8-5-9-7/h6-7H,1-5H2/t6-,7+
