21
gdb 109957	2.60614	1.27409	0.9742	3.1739	78.7	-0.244	0.0585	0.3025	1263.0652	0.182117	-424.192794	-424.183543	-424.182598	-424.226698	35.551	
O	 0.0770548515	 1.4057848526	-0.1174639132	-0.432503
C	 0.0248591134	 0.016669238	 0.1452990564	-0.056262
C	-1.4043603555	-0.5280820816	 0.0814042018	-0.145669
C	-1.9860441706	-0.5933344377	-1.360028438	 0.130527
O	-1.3128515887	 0.2483307706	-2.2814488152	-0.438348
C	-1.6953165874	-2.1209760383	-1.4062800415	-0.350313
C	-1.5080496415	-2.0645657058	 0.1159945298	 0.381425
C	-0.7837518899	-3.0334955927	 1.0031834484	-0.329096
C	-2.2827516918	-2.8700300644	 1.1179448386	-0.326369
H	-0.2585405005	 1.5107921182	-1.0164363602	 0.290967
H	 0.6750647487	-0.5493443166	-0.5396743993	 0.085175
H	 0.422946181	-0.1267236431	 1.1560322538	 0.099092
H	-2.0231679169	 0.0179244397	 0.7997439431	 0.073434
H	-3.0639103074	-0.3883940124	-1.3648154566	 0.076041
H	-1.7165725846	 0.1531878952	-3.1491204289	 0.290149
H	-2.4836119222	-2.7704144594	-1.7973839383	 0.09564
H	-0.762041069	-2.3239957223	-1.9413895896	 0.106617
H	-0.4003794313	-3.945090408	 0.5555605898	 0.111257
H	-0.1653846091	-2.6394631148	 1.803350515	 0.115927
H	-2.6748363848	-2.3604865375	 1.9928395179	 0.113108
H	-2.9136500934	-3.6737045595	 0.7506476962	 0.109199
66.075	139.8974	163.1792	207.0769	237.4768	258.1462	305.8164	358.1681	398.4367	467.5277	482.0593	521.4044	619.1512	748.2879	779.1613	827.4699	861.9246	902.5641	923.694	927.5326	975.1698	1003.2207	1046.956	1055.4408	1078.6761	1082.5838	1097.4552	1129.4679	1135.6479	1188.4784	1198.4117	1229.1569	1233.8177	1246.5875	1248.4077	1324.4969	1336.9366	1376.2286	1399.4658	1421.9181	1449.0932	1466.0867	1479.9571	1502.1784	1505.2685	2983.222	3017.8827	3044.2966	3055.3374	3068.8535	3099.6223	3119.0562	3125.6373	3197.2707	3212.6811	3781.3835	3828.7429
OCC1C(O)CC11CC1	OC[C@H]1[C@@H](O)CC21CC2	
InChI=1S/C7H12O2/c8-4-5-6(9)3-7(5)1-2-7/h5-6,8-9H,1-4H2	InChI=1S/C7H12O2/c8-4-5-6(9)3-7(5)1-2-7/h5-6,8-9H,1-4H2/t5-,6-/m0/s1
