14
gdb 14314	5.75157	1.73265	1.41847	4.1849	68.6	-0.2281	-0.0321	0.196	837.3234	0.108961	-378.685733	-378.67947	-378.678526	-378.716124	24.271	
N	-0.0961456487	 1.2877388538	 0.0990270547	-0.541746
C	-0.0496648939	 0.0343553154	-0.0519118058	 0.408393
O	 1.1439580324	-0.6796455974	-0.2704121396	-0.265516
C	 0.7796653767	-2.0170388491	-0.5357968638	 0.045629
C	 0.909956444	-3.2906975295	 0.3909505587	-0.212762
N	-0.5919296193	-3.463952331	 0.3152905271	-0.375333
C	-0.652779455	-2.1242242931	-0.1979487648	 0.255478
C	-1.1718517292	-0.9237084244	 0.0729223408	-0.288914
H	 0.8395906356	 1.6922760063	 0.052123433	 0.224658
H	 1.0601145991	-2.2796336984	-1.5627150102	 0.107726
H	 1.5041793182	-4.1174847208	-0.0051026869	 0.120126
H	 1.2020337834	-3.0580409557	 1.4168454795	 0.142086
H	-0.8973651888	-4.2035853933	-0.3088005116	 0.248104
H	-2.1266943146	-0.6357357627	 0.4834796989	 0.132071
120.5506	174.4103	347.5837	372.8569	478.5848	589.4953	621.0692	691.2316	705.5901	765.1348	831.542	845.766	858.7751	877.8071	930.9178	975.5408	1021.5703	1037.6054	1098.524	1122.1802	1150.0451	1202.3383	1242.2302	1274.0571	1316.4724	1332.5303	1380.0376	1489.0887	1693.2298	1758.4147	3037.0636	3066.1928	3136.024	3265.0614	3487.7988	3531.0925
N=C1OC2CNC2=C1	[NH]C1=C[C]2[C@@H](O1)CN2	
InChI=1S/C5H6N2O/c6-5-1-3-4(8-5)2-7-3/h1,4,6-7H,2H2	InChI=1S/C5H6N2O/c6-5-1-3-4(8-5)2-7-3/h1,4,6-7H,2H2/t4-/m0/s1
