17
gdb 9124	5.31147	0.80462	0.70801	4.0664	77.62	-0.2479	-0.0122	0.2357	1602.6084	0.140388	-363.872721	-363.862788	-363.861844	-363.910221	32.751	
C	-0.1384669101	 1.563370749	-0.0249114272	-0.369043
C	 0.1040487608	 0.0437909339	 0.0136061506	-0.322488
C	 0.7900565596	-0.4642024676	-1.167457379	 0.15387
C	 1.3581004314	-0.8770201955	-2.1480386477	-0.052483
C	 2.0406635483	-1.4419542066	-3.3024401848	 0.25804
O	 2.2986469641	-2.6293073304	-3.4011183796	-0.36142
N	 2.3578927737	-0.5116486264	-4.2525613964	-0.308967
C	 3.0401806885	-0.8560341159	-5.4828237382	-0.338187
H	 0.8075175774	 2.1068956718	-0.0959149826	 0.129711
H	-0.7529473995	 1.8378181971	-0.8865621411	 0.129679
H	-0.6544953682	 1.8877118826	 0.8831704098	 0.12109
H	 0.6909430486	-0.2167444191	 0.9036566831	 0.141276
H	-0.852746572	-0.4829217063	 0.1214765022	 0.141265
H	 2.1007706465	 0.4452782046	-4.0757195228	 0.251241
H	 2.4307378075	-0.6099347059	-6.3597845242	 0.12642
H	 4.000585882	-0.3347668377	-5.566185989	 0.12642
H	 3.2194621915	-1.9314871078	-5.4645794329	 0.173575
10.045	68.9576	73.7609	90.9984	171.8588	187.4121	245.3927	304.8756	388.0182	409.1984	480.9922	539.1421	586.1505	761.7318	781.5119	804.0796	925.2504	1018.3029	1081.343	1100.9738	1141.581	1151.839	1171.9773	1258.4868	1283.5859	1348.1134	1409.7951	1438.4265	1467.8213	1489.9909	1495.6506	1499.0472	1505.0217	1555.5407	1755.6095	2347.1129	3023.886	3025.4381	3046.1274	3052.2919	3076.3478	3120.8271	3124.1957	3154.7211	3649.8383
CCC#CC(=O)NC	CCC#CC(=O)NC	
InChI=1S/C6H9NO/c1-3-4-5-6(8)7-2/h3H2,1-2H3,(H,7,8)	InChI=1S/C6H9NO/c1-3-4-5-6(8)7-2/h3H2,1-2H3,(H,7,8)
