22
gdb 86784	3.3336	0.90395	0.78164	4.2801	86.56	-0.2945	0.0394	0.3339	1515.053	0.193843	-367.230018	-367.220219	-367.219275	-367.264941	36.465	
C	-0.034901299	 1.5821384531	-0.1488536773	-0.41635
C	 0.0809034125	 0.0734594031	 0.0091804522	 0.046311
C	 1.0853531159	-0.7096423429	-0.8797505815	-0.247419
C	 1.3441724509	-1.6527503808	 0.321480844	 0.036517
C	 2.758555518	-2.1962543586	 0.5622029499	-0.376295
C	 3.1776876744	-3.1174062023	-0.493333616	 0.262301
N	 3.4887930492	-3.8425792256	-1.3378468388	-0.309846
C	 0.7662033651	-0.5532485468	 1.2742851553	-0.037765
C	 1.799536676	 0.3319930777	 1.968447227	-0.401733
H	 0.9361858885	 2.0794587163	-0.0600768721	 0.114397
H	-0.4429346096	 1.8339322024	-1.1339689278	 0.118626
H	-0.7026625147	 2.0150092124	 0.6044634104	 0.115322
H	-0.9135935526	-0.3741805287	-0.0990231405	 0.076253
H	 0.7188200652	-1.1552570824	-1.8068705087	 0.110128
H	 1.9679772865	-0.1040549986	-1.1145466661	 0.099266
H	 0.6509402358	-2.4985284016	 0.2820919014	 0.092315
H	 3.4860213943	-1.3789660628	 0.6136333744	 0.147259
H	 2.8097057332	-2.7255208524	 1.5216520412	 0.148907
H	 0.0688471962	-0.934984207	 2.0267731374	 0.068435
H	 2.5350441115	 0.7474329589	 1.2715111807	 0.117338
H	 1.3121463427	 1.1759356679	 2.4666885513	 0.121181
H	 2.3475241199	-0.2268910412	 2.7348230537	 0.114851
56.655	93.9887	114.298	210.1208	224.1052	249.6185	279.3568	324.8657	357.1768	396.3372	438.5746	475.9158	531.3159	652.7463	759.8611	810.7344	853.5282	884.8146	916.561	934.6126	961.3481	1005.4447	1019.1083	1043.1564	1082.1932	1125.0025	1153.2804	1164.3559	1180.9457	1225.4824	1258.5025	1264.1172	1279.1449	1293.3332	1326.6818	1365.148	1371.8982	1394.5106	1413.688	1414.4485	1464.9861	1491.1897	1491.9948	1493.4601	1505.8281	1507.3376	2359.5872	3028.2313	3029.9215	3033.1965	3038.1299	3044.4553	3047.3962	3060.5022	3082.1136	3091.249	3095.2977	3101.1146	3102.9889	3111.3922
CC1CC(CC#N)C1C	C[C@H]1C[C@@H](CC#N)[C@H]1C	
InChI=1S/C8H13N/c1-6-5-8(3-4-9)7(6)2/h6-8H,3,5H2,1-2H3	InChI=1S/C8H13N/c1-6-5-8(3-4-9)7(6)2/h6-8H,3,5H2,1-2H3/t6-,7-,8+/m0/s1
