21
gdb 104818	2.04228	1.49199	1.14911	1.9888	79.05	-0.223	-0.0252	0.1977	1203.4407	0.179833	-424.22755	-424.217448	-424.216504	-424.262627	36.64	
C	 0.6425966126	-0.7868514108	-0.7861154585	-0.389638
C	-0.2592304452	-0.2093410876	 0.3092497707	-0.247296
C	-1.7556997666	-0.3465759318	-0.0090182744	 0.322915
C	-2.325906321	-1.7912308529	 0.1478152738	-0.287609
C	-3.0048749718	-1.4108384673	 1.4972163152	-0.343073
C	-2.6691470693	 0.0551850465	 1.1887196951	 0.354201
O	-3.0481727672	 1.1073994145	 1.6196694156	-0.30724
O	-2.1254622279	 0.2060264227	-1.2550220785	-0.294746
C	-1.9290412809	 1.606912959	-1.3970852817	-0.265103
H	 1.6974321828	-0.6379991199	-0.5372965272	 0.115006
H	 0.4787918163	-1.8615899945	-0.9150190012	 0.119825
H	 0.445158616	-0.3077067111	-1.7484316441	 0.133611
H	-0.0613076702	-0.7097862963	 1.2654396358	 0.099978
H	-0.0258127593	 0.8489258351	 0.4732821177	 0.112926
H	-3.0465166525	-2.0016939459	-0.643306164	 0.125406
H	-1.5859434268	-2.591324451	 0.1890727716	 0.1063
H	-4.0682098881	-1.633804846	 1.6121707434	 0.134193
H	-2.4791624629	-1.7765470683	 2.3851083285	 0.132621
H	-2.3968928846	 2.1651560374	-0.5796257296	 0.143847
H	-0.8640170818	 1.8723463017	-1.448446808	 0.107133
H	-2.4004002015	 1.8860337864	-2.3424219301	 0.126741
66.1343	116.4739	130.1084	134.4346	190.9051	196.8382	258.052	268.5985	327.8245	355.6692	426.4618	508.948	580.27	662.0504	723.3193	755.1868	791.6876	855.0182	926.9001	962.0744	990.9899	1000.106	1035.1208	1077.1893	1093.4946	1128.7458	1167.625	1185.592	1201.3662	1209.5381	1226.4424	1253.1153	1267.5548	1326.8948	1363.64	1410.5475	1440.5871	1471.3141	1482.939	1483.8236	1495.3042	1501.8929	1504.0156	1517.6058	1876.379	3004.6903	3032.0897	3042.9393	3059.8325	3064.8951	3081.0119	3087.0624	3107.8669	3114.091	3123.3483	3124.0265	3147.0442
CCC1(CCC1=O)OC	CC[C@]1(CCC1=O)OC	
InChI=1S/C7H12O2/c1-3-7(9-2)5-4-6(7)8/h3-5H2,1-2H3	InChI=1S/C7H12O2/c1-3-7(9-2)5-4-6(7)8/h3-5H2,1-2H3/t7-/m1/s1
