18
gdb 43796	2.47091	1.61979	1.15813	2.4952	77.77	-0.2381	-0.0225	0.2156	1086.4273	0.147067	-401.914336	-401.906164	-401.90522	-401.947239	31.384	
O	-0.0322107667	 0.205121801	-0.7429172657	-0.317976
C	-0.0264317721	 1.2813700507	-0.2144258651	 0.352819
C	-1.1050519713	 2.1384241272	 0.4986382158	-0.475591
C	-0.029401543	 3.237521261	 0.6405000442	 0.259279
C	-0.2160117438	 4.6978774164	 0.5195619309	-0.304588
N	 0.2315369225	 4.089219813	 1.7932953333	-0.360636
C	 1.0184872302	 2.3338506812	 0.0102704977	 0.194605
C	 2.42995649	 2.0768441917	 0.5004234991	-0.302234
C	 2.2112509935	 2.6524382061	-0.8597194429	-0.321524
H	-1.9802448889	 2.3791779398	-0.1111557351	 0.134251
H	-1.4395694393	 1.6969118802	 1.4436407427	 0.133835
H	 0.5316862353	 5.3095641575	 0.0211844594	 0.120017
H	-1.2315387221	 5.0804141331	 0.4487959552	 0.115609
H	-0.5402003462	 4.0466907458	 2.4547227248	 0.233572
H	 2.7682870206	 2.7349767906	 1.2933528853	 0.142532
H	 2.7368116632	 1.0398512076	 0.5830182137	 0.134513
H	 2.359631927	 2.0131139192	-1.7237047176	 0.136053
H	 2.4333708813	 3.7025674778	-1.0193439557	 0.125464
64.5504	166.6931	178.6432	194.5397	268.9935	311.0982	468.9612	511.4336	520.7779	538.7699	615.5684	747.3444	800.7227	809.5024	845.949	870.2516	927.9031	939.7743	962.8903	989.2659	998.8771	1027.9196	1047.0488	1065.4247	1083.0342	1117.8928	1142.2333	1185.7278	1200.7427	1208.7971	1255.6354	1262.3513	1362.3181	1417.8357	1446.933	1455.8973	1488.9278	1517.7335	1884.0013	3049.5324	3101.6963	3106.8372	3129.4035	3135.3591	3185.5779	3215.2901	3233.3059	3494.9362
O=C1CC2(CN2)C11CC1	O=C1C[C@]2(CN2)C21CC2	
InChI=1S/C7H9NO/c9-5-3-7(4-8-7)6(5)1-2-6/h8H,1-4H2	InChI=1S/C7H9NO/c9-5-3-7(4-8-7)6(5)1-2-6/h8H,1-4H2/t7-/m0/s1
