17
gdb 99367	7.33173	0.57053	0.53461	3.1489	72.09	-0.2708	0.0131	0.2838	1961.7449	0.131978	-458.949234	-458.938741	-458.937797	-458.986869	35.229	
O	 0.1359422834	 1.2918464275	 0.0070605338	-0.392103
C	-0.0431298443	-0.0999224015	 0.0021876956	-0.190157
C	-1.5333194518	-0.4005512905	 0.0140619121	 0.434126
O	-2.4219367183	 0.4039693137	 0.027037315	-0.327279
O	-1.7128012942	-1.7407828269	 0.0091570916	-0.250304
C	-3.0790343789	-2.1851756961	 0.0202061348	-0.057396
C	-3.0430431968	-3.7145321599	 0.010738827	-0.35638
C	-4.3841775876	-4.2835433445	 0.0208775124	 0.283423
C	-5.5012400638	-4.7255805462	 0.0295515049	-0.437592
H	 1.0810345329	 1.4682947779	-0.0022200172	 0.29559
H	 0.3856878776	-0.5875462196	-0.8876577959	 0.119951
H	 0.4013125864	-0.5956613425	 0.8798430404	 0.119989
H	-3.5843312499	-1.8027376616	 0.9112644519	 0.136643
H	-3.6020724254	-1.7921628472	-0.8558735126	 0.13669
H	-2.4939798415	-4.0540543793	-0.8756932334	 0.141916
H	-2.4762300818	-4.0645406143	 0.8817902959	 0.14192
H	-6.4840077061	-5.1276058189	 0.0372720235	 0.200963
26.7579	55.8113	66.2206	83.3318	169.7312	183.3282	213.0529	295.4655	308.6353	352.9187	432.0408	551.6739	589.4883	629.0482	655.3087	690.717	784.6241	904.9649	983.5319	1019.2759	1038.8223	1076.2475	1084.4254	1135.9808	1198.8932	1230.5946	1246.8478	1259.7988	1295.5203	1308.1077	1406.593	1459.4357	1476.8892	1497.0974	1515.447	1853.5519	2244.5652	2977.6891	3003.5146	3032.5606	3065.1681	3065.5559	3116.0678	3507.1322	3839.2056
OCC(=O)OCCC#C	OCC(=O)OCCC#C	
InChI=1S/C6H8O3/c1-2-3-4-9-6(8)5-7/h1,7H,3-5H2	InChI=1S/C6H8O3/c1-2-3-4-9-6(8)5-7/h1,7H,3-5H2
