21
gdb 88104	3.34697	1.26675	1.07241	1.0186	84.13	-0.239	0.0261	0.2651	1208.0396	0.182937	-387.086287	-387.077788	-387.076844	-387.119055	33.459	
C	-0.1322716257	 1.4983827935	-0.0894981497	-0.414486
C	 0.0271394889	 0.0003803685	 0.0479416289	-0.065721
C	 1.3656817299	-0.6838359078	-0.1797477663	-0.355348
C	 0.7403552252	-0.6399921821	 1.1976950197	 0.432443
C	 1.377603727	 0.1510363019	 2.324996668	-0.316248
C	 2.1587560401	-0.7718419716	 3.2261002156	-0.062045
C	 2.0294468302	-2.0936177312	 3.1547163786	-0.064474
C	 1.0642272227	-2.7426218748	 2.2028839356	-0.128405
O	 0.1330900202	-1.8248824669	 1.6519117654	-0.29251
H	 0.7607016124	 2.0364811462	 0.2425783266	 0.113291
H	-0.3085185822	 1.7736019443	-1.135011068	 0.118206
H	-0.9804871645	 1.8663289706	 0.4985597589	 0.11994
H	-0.829683969	-0.577769443	-0.287834608	 0.094587
H	 1.3650500122	-1.6345989332	-0.7015404596	 0.111912
H	 2.2333260296	-0.0597498054	-0.3720919032	 0.104977
H	 2.0392113621	 0.9264570237	 1.9230160136	 0.105184
H	 0.6055439101	 0.678686204	 2.9043038792	 0.113095
H	 2.8407518376	-0.3192208808	 3.9408794249	 0.087626
H	 2.6173443839	-2.7560775214	 3.7844162977	 0.088711
H	 1.6171248147	-3.2627603207	 1.3998069382	 0.09608
H	 0.4655367044	-3.5027229038	 2.7185779839	 0.113187
105.7817	156.2778	173.6763	200.0869	260.5788	360.7857	393.4759	402.0724	442.189	531.3256	538.9457	662.6715	695.4632	784.6172	846.8383	883.7604	914.9715	923.4446	939.11	973.0026	987.8034	994.8742	1024.715	1041.7341	1062.3095	1084.9619	1117.0029	1132.1662	1176.0913	1189.9925	1214.2075	1257.8244	1267.7921	1294.8039	1362.7544	1396.0702	1408.3248	1409.7899	1425.8496	1470.5044	1482.9637	1489.2806	1495.6305	1507.8378	1729.0885	2941.6654	3000.4816	3030.2727	3051.3658	3057.7459	3089.484	3102.0149	3124.5258	3147.4361	3151.9721	3175.3062	3214.3071
CC1CC11CC=CCO1	C[C@H]1C[C@]21CC=CCO2	
InChI=1S/C8H12O/c1-7-6-8(7)4-2-3-5-9-8/h2-3,7H,4-6H2,1H3	InChI=1S/C8H12O/c1-7-6-8(7)4-2-3-5-9-8/h2-3,7H,4-6H2,1H3/t7-,8-/m0/s1
