16
gdb 20053	4.44204	1.6263	1.50792	2.6969	63.45	-0.2457	0.0258	0.2715	871.2858	0.133172	-379.901394	-379.894541	-379.893597	-379.933059	25.304	
C	 1.0618298789	 0.9821605695	 0.2646843012	-0.238552
N	 0.5998360342	 0.1683370885	-0.872575717	-0.317581
C	-0.2595128277	 0.3092282217	 0.3105517931	-0.020475
C	-0.5194058043	-0.9478703929	 1.1155097972	 0.087704
C	 0.6789378582	-1.9154176623	 1.2804213611	-0.208548
N	 1.0752495629	-1.7935914144	 2.6960843625	-0.264685
C	 0.1971710187	-1.0563588887	 3.2326003121	 0.120875
O	-0.818804044	-0.5530617911	 2.4886256412	-0.233132
H	 1.9068709485	 0.5701690033	 0.8083217377	 0.136689
H	 1.0723788761	 2.0640766997	 0.1667300927	 0.11751
H	 0.2666841521	 0.7624641273	-1.6260513773	 0.237905
H	-1.1302119111	 0.9569698008	 0.2289195794	 0.093833
H	-1.4117742584	-1.4491369344	 0.730601194	 0.093988
H	 0.4002347708	-2.9531016163	 1.0700151372	 0.116609
H	 1.506555543	-1.6646153965	 0.6129762932	 0.139856
H	 0.164799832	-0.7740062943	 4.2792980716	 0.138003
78.347	92.6611	221.5843	273.9006	432.4787	498.3055	537.358	740.6953	785.2598	877.5749	888.1039	901.9838	908.4949	958.8041	966.8704	970.8992	992.5695	1026.6533	1058.5339	1118.9365	1124.8265	1134.5935	1180.7863	1213.0245	1258.816	1284.9395	1305.1252	1317.4606	1348.0425	1384.2318	1436.4856	1505.8424	1523.6549	1708.141	3050.3147	3070.3803	3103.709	3116.3507	3127.4275	3201.6023	3213.9283	3516.1751
C1NC1C1CN=CO1	C1N[C@H]1[C@H]1CN=CO1	
InChI=1S/C5H8N2O/c1-4(7-1)5-2-6-3-8-5/h3-5,7H,1-2H2	InChI=1S/C5H8N2O/c1-4(7-1)5-2-6-3-8-5/h3-5,7H,1-2H2/t4-,5-/m1/s1
