20
gdb 101517	5.89276	0.52889	0.51123	3.9778	89.2	-0.2295	-0.0595	0.17	2152.009	0.167567	-403.109643	-403.098769	-403.097824	-403.147166	36.973	
C	 0.0952032549	 1.5425902049	 0.0157202321	-0.398911
C	-0.02230545	 0.0193765069	 0.0002134689	-0.101342
N	-1.4069832943	-0.4545953647	-0.0206440108	-0.056699
C	-2.1043037267	-0.1159117872	-1.2552043665	-0.330364
C	-1.4602769005	-1.8902833513	 0.2453354633	-0.314498
C	-2.8093952207	-2.3875699236	 0.4896121042	 0.062465
C	-3.9123765619	-2.8361349595	 0.6945963179	 0.08764
C	-5.2424813186	-3.3285750292	 0.9378311409	 0.017182
O	-5.5092733377	-4.4716051564	 1.2315514105	-0.230005
H	 1.1389397283	 1.8313645009	 0.1717897131	 0.11877
H	-0.2301764986	 1.9946254493	-0.9251592855	 0.122968
H	-0.5065179303	 1.9641310324	 0.8261281632	 0.129229
H	 0.5573871347	-0.3895099588	-0.8519593479	 0.078019
H	 0.4425751926	-0.376960261	 0.9104996505	 0.101466
H	-1.6133217286	-0.5377713385	-2.153657012	 0.092559
H	-3.1266386679	-0.4994903325	-1.214065846	 0.132361
H	-2.1592810823	 0.967980576	-1.3729417029	 0.127371
H	-1.0152136005	-2.4931392041	-0.574028471	 0.118874
H	-0.8538973034	-2.1001514694	 1.1355642489	 0.143849
H	-6.0341351984	-2.5585539542	 0.8334622891	 0.099066
39.808	54.7	70.945	98.9811	174.3365	188.1152	222.8428	255.4583	282.606	362.5378	369.6981	407.3782	408.8001	539.8566	621.6262	809.5275	823.9118	840.5358	955.7086	992.7025	1021.6912	1060.0541	1077.2317	1121.9128	1154.658	1165.1096	1201.4523	1250.2056	1292.5849	1334.5905	1370.4559	1401.1191	1422.059	1424.9787	1455.077	1464.8698	1487.3804	1491.952	1502.2213	1506.3837	1516.1823	1767.5736	2327.3183	2884.6514	2901.7003	2916.1539	2923.989	3039.6342	3045.0049	3047.8301	3088.9752	3114.1568	3121.2041	3133.0815
CCN(C)CC#CC=O	CCN(C)CC#CC=O	
InChI=1S/C7H11NO/c1-3-8(2)6-4-5-7-9/h7H,3,6H2,1-2H3	InChI=1S/C7H11NO/c1-3-8(2)6-4-5-7-9/h7H,3,6H2,1-2H3
