16
gdb 54136	2.87796	1.2796	1.11543	1.3274	65.	-0.2598	-0.0014	0.2584	1113.4932	0.122933	-475.093289	-475.08448	-475.083535	-475.127164	32.432	
C	-0.3264039367	 1.73111307	-0.3046060616	-0.440884
C	-0.0588402286	 0.2530906521	-0.1033832757	 0.316773
C	 0.8276000267	-0.4575679678	-1.1542661519	-0.45557
C	 1.8070609468	-0.618495589	 0.0026776673	 0.444013
O	 2.8790270665	-1.0867469039	 0.2014043223	-0.307954
O	 0.9948655098	 0.0243971429	 0.9142158986	-0.291572
C	-1.3480351284	-0.5078211053	 0.2240921741	 0.347474
N	-1.3200039125	-1.218087063	 1.376987713	-0.524036
O	-2.2940735346	-0.4564969431	-0.5383254034	-0.37345
H	 0.582992046	 2.2482284409	-0.6220130246	 0.12589
H	-1.1012958363	 1.8512943519	-1.0646984164	 0.160466
H	-0.6795361331	 2.1861943076	 0.6253137509	 0.138442
H	 0.4421993448	-1.3936335683	-1.5602236404	 0.160804
H	 1.1909588149	 0.1728996269	-1.9675439167	 0.150149
H	-0.5221043705	-1.1769047904	 1.9880343898	 0.280877
H	-2.1479925747	-1.7181300816	 1.6558857147	 0.268577
49.6969	88.0824	212.8503	239.5361	252.9284	310.1966	339.282	364.333	431.8707	492.9896	526.2815	551.024	629.0444	657.1153	774.3896	789.2551	857.8796	888.086	951.9175	978.6967	1050.0331	1086.8955	1099.4142	1171.0965	1223.8266	1232.1822	1241.4947	1387.6326	1404.1401	1455.3919	1483.796	1495.8865	1601.8745	1798.5027	1946.2217	3049.5151	3093.136	3122.356	3143.7069	3151.0838	3599.6973	3737.86
CC1(CC(=O)O1)C(N)=O	C[C@]1(CC(=O)O1)C(=O)N	
InChI=1S/C5H7NO3/c1-5(4(6)8)2-3(7)9-5/h2H2,1H3,(H2,6,8)	InChI=1S/C5H7NO3/c1-5(4(6)8)2-3(7)9-5/h2H2,1H3,(H2,6,8)/t5-/m0/s1
