21
gdb 82490	2.59531	1.7477	1.41748	1.2221	81.75	-0.2552	0.0758	0.331	1018.4465	0.184256	-387.065257	-387.057562	-387.056617	-387.096784	32.067	
C	-0.075381148	 1.4893939114	 0.0877182961	-0.506858
C	-0.0424048867	-0.0181875057	 0.0129787822	 0.340509
C	 0.3719847242	-0.7784979219	-1.2813242468	-0.272198
C	-0.419704429	-1.935427341	-0.6603897823	-0.037185
C	 0.0559012757	-2.1436975121	 0.8423553958	-0.114052
C	 0.7728674737	-0.8011861208	 1.0709350202	-0.239224
C	-1.4036611235	-1.7837052672	 1.263173072	 0.145124
O	-1.6660957693	-1.1520962735	 2.4949539321	-0.441762
C	-1.3760936575	-0.901341743	 0.0242119375	-0.096362
H	 0.9325841941	 1.9099337351	-0.013019832	 0.111659
H	-0.6936139147	 1.9177287829	-0.7088431693	 0.108932
H	-0.4831556434	 1.8257803862	 1.0471371359	 0.124813
H	-0.1359602953	-0.3930270895	-2.1714211152	 0.090713
H	 1.4413429784	-0.8953857251	-1.4894130432	 0.084
H	-0.7716727028	-2.8047686278	-1.2135779243	 0.062549
H	 0.5374643796	-3.0634410219	 1.1757721795	 0.052627
H	 1.841534126	-0.8216008015	 0.8373919488	 0.082593
H	 0.6324509998	-0.4321241055	 2.0892362758	 0.100595
H	-2.0786722454	-2.6366028524	 1.0999409915	 0.061937
H	-1.6468681425	-1.8187663549	 3.1890465514	 0.280795
H	-2.2638489335	-0.4855187117	-0.4518093257	 0.060796
155.3895	212.1311	262.1339	270.3132	302.3792	337.1498	461.6255	474.2705	547.5819	596.5374	698.7389	706.7921	789.7908	822.4501	831.671	852.6323	898.3003	947.2872	955.3519	976.7253	987.2394	1004.7697	1028.2943	1048.0398	1072.3694	1104.0545	1127.4648	1146.4629	1149.1924	1193.4475	1205.9001	1221.4389	1240.9167	1248.4244	1266.0012	1279.7761	1289.4126	1333.4207	1359.7732	1411.0171	1436.5395	1486.3537	1492.682	1494.5387	1508.9531	2996.3746	3020.8811	3031.2957	3054.5752	3083.08	3086.8823	3094.0628	3106.37	3110.87	3116.4295	3128.6669	3813.6641
CC12CC3C(C1)C(O)C23	C[C@@]12C[C@H]3[C@@H](C1)[C@@H](O)[C@@H]23	
InChI=1S/C8H12O/c1-8-2-4-5(3-8)7(9)6(4)8/h4-7,9H,2-3H2,1H3	InChI=1S/C8H12O/c1-8-2-4-5(3-8)7(9)6(4)8/h4-7,9H,2-3H2,1H3/t4-,5+,6-,7+,8+/m0/s1
