19
gdb 103501	2.87797	1.29486	1.14986	2.2111	71.15	-0.2207	0.0621	0.2828	1139.1407	0.159106	-460.133978	-460.125289	-460.124345	-460.167188	33.079	
O	-0.142431517	 1.4600318434	 0.1573121647	-0.435568
C	 0.0475345827	 0.0577453921	-0.049621003	-0.15876
C	-1.3301360225	-0.5494681548	 0.0135484736	 0.396471
O	-2.2508378066	 0.0996418695	-0.8176668921	-0.482414
C	-1.6052942414	-2.0280965393	 0.1311731791	-0.143411
C	-0.5079885425	-2.9849152624	 0.6016254104	-0.268126
C	-0.486258674	-2.7404978259	 2.1258553314	-0.060728
O	-0.9608931278	-1.4037457553	 2.3210657762	-0.255102
C	-1.8875934719	-1.1148546187	 1.3043155027	 0.002216
H	 0.6561163128	 1.9192550667	-0.1158870912	 0.293344
H	 0.491559355	-0.1317274445	-1.0379777442	 0.092943
H	 0.6967641677	-0.3684335976	 0.7231322675	 0.106129
H	-2.0919521025	 1.043038064	-0.6774020254	 0.289564
H	-2.4135735974	-2.4001021049	-0.486799851	 0.104177
H	-0.7608193732	-4.0207834119	 0.3606536763	 0.109003
H	 0.464169823	-2.7724042198	 0.145837973	 0.10676
H	-1.1476290201	-3.4538452498	 2.6402563172	 0.096817
H	 0.5092999388	-2.8075528275	 2.5731719799	 0.1074
H	-2.8879367531	-0.8465801633	 1.6298089251	 0.099285
98.9674	136.5078	162.0894	206.6262	248.6163	294.7845	308.75	392.8088	469.3246	489.8526	526.6539	655.7897	731.9192	760.2818	849.023	857.3024	897.5416	942.1193	974.076	994.7236	1010.4797	1035.9081	1057.5566	1074.169	1117.9885	1126.8651	1174.9154	1212.4592	1222.6384	1242.2412	1271.6388	1278.7911	1293.1801	1315.9813	1348.772	1385.8733	1438.6174	1479.4939	1493.6386	1503.4104	1519.3631	2991.4663	2993.8912	3049.8279	3063.1265	3087.932	3100.9664	3157.0441	3186.6841	3760.9893	3845.6311
OCC1(O)C2CCOC12	OC[C@@]1(O)[C@H]2CCO[C@@H]12	
InChI=1S/C6H10O3/c7-3-6(8)4-1-2-9-5(4)6/h4-5,7-8H,1-3H2	InChI=1S/C6H10O3/c7-3-6(8)4-1-2-9-5(4)6/h4-5,7-8H,1-3H2/t4-,5+,6+/m0/s1
