19
gdb 68308	3.18485	1.26521	1.14185	1.3632	75.59	-0.2549	0.0777	0.3326	1138.7769	0.159204	-422.946333	-422.938292	-422.937348	-422.979271	31.292	
O	-0.0340003163	 1.3297989264	 0.1267743209	-0.475912
C	 0.0550294675	-0.047365765	 0.046364892	 0.380405
C	 0.6192952892	-0.927463362	-1.1144382791	-0.290763
C	 0.034777387	-1.909334136	-0.0566477877	-0.068345
C	 0.7288023456	-1.046227224	 1.0401564531	-0.295584
C	-1.202630182	-0.9591229144	 0.0274794316	-0.029891
C	-2.1747899694	-0.9906494352	 1.1779359233	 0.028363
C	-2.9429133905	-2.198785215	 1.51155423	-0.177629
O	-1.874665983	-1.7576565802	 2.3495402176	-0.227144
H	 0.8556391645	 1.6915764195	 0.2007035293	 0.283807
H	 0.1040035604	-0.8663009977	-2.0766764054	 0.091186
H	 1.7063582827	-0.9426563862	-1.2317715647	 0.085579
H	 0.0230751374	-2.9944456255	-0.1186552304	 0.082686
H	 1.8230740707	-1.0631536641	 1.0320771272	 0.080268
H	 0.3253058473	-1.109573042	 2.047954277	 0.131813
H	-1.7736993635	-0.8789003814	-0.9063949014	 0.073227
H	-2.6426840227	-0.0288168367	 1.3966374609	 0.102904
H	-3.9409831848	-2.1090057858	 1.9381009434	 0.113167
H	-2.75285169	-3.1208353746	 0.9634285023	 0.111864
54.3111	136.5405	207.5532	235.4438	286.6226	347.4328	422.0051	473.994	560.5793	631.1006	668.7495	772.3862	794.2977	818.3844	888.984	905.1971	926.9498	945.0582	961.0329	993.1365	1020.408	1037.6409	1085.1258	1100.5861	1110.7408	1130.6572	1136.5726	1152.1657	1171.3788	1172.3776	1205.109	1217.2018	1226.2261	1290.5637	1301.9308	1359.2581	1406.5231	1432.0721	1496.3	1526.7389	1545.0798	3025.397	3049.2171	3058.3013	3081.4802	3094.3271	3118.6076	3150.1931	3168.5253	3171.6355	3810.2181
OC12CC(C1)C2C1CO1	O[C@@]12C[C@@H](C1)[C@H]2[C@H]1CO1	
InChI=1S/C7H10O2/c8-7-1-4(2-7)6(7)5-3-9-5/h4-6,8H,1-3H2	InChI=1S/C7H10O2/c8-7-1-4(2-7)6(7)5-3-9-5/h4-6,8H,1-3H2/t4-,5-,6+,7-/m1/s1
