17
gdb 23140	1.7857	1.33771	0.8837	4.0661	80.28	-0.2163	-0.0979	0.1183	1330.047	0.132039	-417.888638	-417.878361	-417.877416	-417.9253	35.672	
O	 0.0489944383	-0.4174058937	 0.7119649282	-0.231549
N	-0.1210041032	 0.7742712666	 0.8538300725	-0.030753
C	 0.904255491	 1.637402473	 0.2842106416	 0.308271
C	 0.7666965889	 3.073087207	 0.7419857611	-0.418856
C	 0.2603498461	 3.9581457206	-0.3057108994	 0.314717
C	-0.1486557764	 4.677810658	-1.1774524262	-0.477246
C	 1.7689906978	 1.1577536601	-0.619659505	-0.082996
C	 2.8288251962	 1.9465035991	-1.3407148041	-0.222318
N	 3.6668066926	 2.7141241656	-0.4090732	-0.500686
H	 4.2736617376	 3.3390169734	-0.929656427	 0.237031
H	 4.2704422605	 2.0843961333	 0.1103420331	 0.234084
H	 0.083691028	 3.0911833738	 1.5991955685	 0.140712
H	 1.7472225178	 3.4335436546	 1.0680211089	 0.164274
H	-0.5223055688	 5.3202263243	-1.9357079523	 0.197428
H	 1.6650974799	 0.1004526689	-0.8543286097	 0.121595
H	 3.3977608811	 1.2670839524	-1.9934668906	 0.098894
H	 2.3256028427	 2.6682544229	-1.9986971797	 0.147397
26.2231	64.724	97.7765	137.5021	177.6973	200.4782	281.4462	300.1027	327.8715	356.2033	406.4459	496.8053	592.966	611.2689	634.1089	758.326	795.1731	834.405	901.2365	911.6335	954.6165	994.789	1005.6575	1074.8889	1122.098	1178.2935	1262.8843	1321.6789	1333.1512	1377.0804	1417.2187	1443.6987	1489.9495	1576.9372	1655.5109	1713.6056	2235.4599	2979.39	3034.3305	3039.5375	3090.5833	3160.1316	3498.1421	3506.1095	3580.2662
[O-]N=C(CC#C)C1C[NH2+]1	O=NC(=CCN)CC#C	
InChI=1S/C6H8N2O/c1-2-3-5(8-9)6-4-7-6/h1,6-7,9H,3-4H2	InChI=1S/C6H8N2O/c1-2-3-6(8-9)4-5-7/h1,4H,3,5,7H2
