17
gdb 106609	2.56874	1.62013	1.33558	1.7289	67.97	-0.2222	-0.0257	0.1966	1010.7692	0.13518	-458.927915	-458.919795	-458.918851	-458.960781	30.213	
C	 0.0323162701	 1.3848872116	-0.1512469832	-0.275281
O	-0.0291539681	-0.0040212137	 0.1620214129	-0.298065
C	-1.2820964093	-0.5587206217	 0.0564070508	 0.269002
C	-1.45854465	-2.1129276631	 0.0631198169	-0.306461
C	-2.8683806094	-1.7662307033	-0.4869187844	-0.027934
O	-3.4756417579	-1.0384183191	 0.5955674969	-0.274313
C	-2.4110459836	-0.1608493782	 1.0406145645	-0.139595
C	-2.127139346	-0.647489849	-1.2559890284	 0.38407
O	-2.0728474812	-0.1955016269	-2.3594238196	-0.322406
H	 1.0882440275	 1.6596789773	-0.1282233732	 0.136346
H	-0.3747837186	 1.5842323374	-1.1484136389	 0.147343
H	-0.5068194343	 1.992530818	 0.5882698761	 0.11506
H	-0.8093277954	-2.6157618614	-0.655836288	 0.131282
H	-1.4413064113	-2.5974799446	 1.0407911393	 0.12444
H	-3.5619764999	-2.4820784064	-0.916347693	 0.108197
H	-2.1544496688	-0.3713623634	 2.0854122337	 0.11379
H	-2.7250803938	 0.8845311765	 0.9484450879	 0.114525
74.7046	150.7702	166.9294	203.5244	273.0312	300.4834	413.4277	453.8045	487.0694	569.3157	674.4368	723.6588	783.7606	830.9747	896.3069	910.3831	958.8121	990.2573	1016.5406	1049.149	1067.4709	1109.5006	1150.3953	1168.9091	1179.4146	1195.6635	1219.1326	1235.6582	1266.801	1302.9626	1383.2826	1473.375	1489.7955	1491.9995	1508.0852	1529.4605	1903.2894	3006.4288	3025.9805	3071.3965	3078.8761	3081.763	3136.0507	3152.0075	3182.2784
COC12CC(OC1)C2=O	CO[C@@]12C[C@@H](OC1)C2=O	
InChI=1S/C6H8O3/c1-8-6-2-4(5(6)7)9-3-6/h4H,2-3H2,1H3	InChI=1S/C6H8O3/c1-8-6-2-4(5(6)7)9-3-6/h4H,2-3H2,1H3/t4-,6+/m1/s1
