17
gdb 125428	5.64567	0.96162	0.88324	1.2875	75.75	-0.2586	-0.0162	0.2424	1338.3997	0.136283	-418.013504	-418.005166	-418.004222	-418.0482	29.728	
C	-0.0075965931	 1.4603929113	-0.191008437	-0.495327
C	-0.0593359657	-0.0139565712	-0.0105504965	 0.409323
N	-1.0604357391	-0.8180361424	-0.2087431099	-0.355607
C	-0.5222412507	-2.0479764149	 0.1190570254	 0.360946
N	 0.7315840923	-2.0018786863	 0.4951967103	-0.202582
O	 1.047737484	-0.6375876018	 0.4099926408	-0.193577
C	-1.3068431338	-3.2904109675	 0.0452042512	-0.108401
C	-0.6388862254	-4.5900857596	-0.3669807088	-0.257454
C	-1.0717065628	-4.4012031739	 1.0531987646	-0.257458
H	 0.7572863278	 1.7327467507	-0.9244702722	 0.15758
H	-0.9794693628	 1.8137473631	-0.5344619693	 0.162608
H	 0.2462923	 1.9557622826	 0.7509767864	 0.157581
H	-2.3236509654	-3.1225584143	-0.287008651	 0.106897
H	-1.2076047063	-5.2602297452	-1.0016245287	 0.118813
H	 0.4215801101	-4.5389677462	-0.5842396581	 0.138921
H	-0.304152396	-4.2222842983	 1.7970076546	 0.138926
H	-1.9425403631	-4.9395184961	 1.4098116483	 0.118811
26.4174	50.7681	153.2434	164.4922	261.8556	304.295	422.4476	434.6447	634.004	671.0513	723.1217	767.2843	797.7074	829.3268	914.9741	921.2753	931.4379	999.0159	1015.8539	1065.6675	1067.7982	1069.1351	1090.0538	1119.7909	1133.4455	1207.2962	1220.5206	1264.573	1323.7977	1408.0382	1450.1313	1464.4035	1475.3211	1476.3262	1499.2147	1558.6321	1628.4419	3053.8032	3112.6274	3140.4094	3143.4178	3164.4481	3193.1	3226.3117	3241.4515
CC1=NC(=NO1)C1CC1	Cc1nc(no1)C1CC1	
InChI=1S/C6H8N2O/c1-4-7-6(8-9-4)5-2-3-5/h5H,2-3H2,1H3	InChI=1S/C6H8N2O/c1-4-7-6(8-9-4)5-2-3-5/h5H,2-3H2,1H3
