25
gdb 57384	2.57681	1.3048	1.19715	0.2753	91.93	-0.2434	0.0763	0.3197	1239.5664	0.227965	-352.339295	-352.329463	-352.328519	-352.373255	39.117	
C	-0.1341056452	 1.556001339	 0.026530057	-0.407128
C	 0.009772643	 0.0195163318	 0.0291461783	 0.140932
C	 0.7935027796	-0.3895489213	 1.2898730948	-0.41962
C	-1.3906569984	-0.6258622261	 0.0709774124	-0.405036
C	 0.7167269071	-0.4376784125	-1.2419032603	 0.420672
C	 1.5994964151	-1.6546575724	-1.3489480392	-0.341402
C	 2.176473414	-0.3078968546	-1.7019351664	-0.117816
C	 1.7334827936	 0.0862646096	-3.1116063239	-0.219057
C	 0.2432416963	-0.0872889765	-2.6707613964	-0.303059
H	 0.8465297923	 2.0418272923	-0.0126995715	 0.110159
H	-0.7201348669	 1.9096224587	-0.8268839387	 0.110314
H	-0.6428480671	 1.8958653186	 0.9351287873	 0.105728
H	 0.314487818	 0.0269428544	 2.1822365516	 0.108086
H	 0.8283339591	-1.4757835023	 1.4138857036	 0.113311
H	 1.8227526013	-0.015066021	 1.2625635468	 0.111294
H	-1.9871442349	-0.3383500516	-0.801341285	 0.112167
H	-1.3185006909	-1.7184226931	 0.0828541299	 0.112104
H	-1.9388094295	-0.3130473752	 0.9666373632	 0.104599
H	 1.9537148796	-2.0766377412	-0.4157569592	 0.106729
H	 1.4247260594	-2.3941379485	-2.1291153274	 0.094706
H	 3.0323071416	 0.0929813324	-1.1703155864	 0.078749
H	 1.9671451839	 1.1231501827	-3.3646114477	 0.099416
H	 2.0877918007	-0.5577644758	-3.9240029079	 0.091788
H	-0.3314458596	-0.8680970457	-3.1802041371	 0.091207
H	-0.3169402022	 0.8472669085	-2.735561838	 0.101158
57.0846	149.1585	204.4202	227.4173	266.3808	278.1856	286.5436	320.7043	335.0637	375.6369	429.0866	459.1883	481.2546	582.227	704.3032	786.7902	801.3364	854.2077	873.6686	926.8584	929.0024	936.2697	950.1525	957.1972	973.4768	1016.9356	1018.9488	1039.8421	1050.5831	1086.0159	1105.4891	1145.3428	1180.1222	1214.7131	1224.1358	1233.4015	1244.6622	1254.6719	1285.6319	1305.327	1387.7101	1393.4209	1395.771	1427.0029	1476.0133	1481.6879	1483.0436	1486.4681	1494.2571	1501.2903	1504.6549	1513.3522	1521.4845	3024.4403	3027.2135	3034.1426	3037.0544	3047.2078	3091.3638	3091.8631	3092.5844	3097.1856	3098.3067	3099.4582	3104.9293	3106.7328	3115.8117	3168.7669	3210.238
CC(C)(C)C12CC1CC2	CC(C)(C)[C@]12C[C@H]1CC2	
InChI=1S/C9H16/c1-8(2,3)9-5-4-7(9)6-9/h7H,4-6H2,1-3H3	InChI=1S/C9H16/c1-8(2,3)9-5-4-7(9)6-9/h7H,4-6H2,1-3H3/t7-,9-/m1/s1
