16
gdb 49608	2.48764	1.79659	1.12448	1.9049	73.53	-0.229	0.0028	0.2318	1047.8191	0.126182	-434.071081	-434.063614	-434.06267	-434.103279	28.566	
N	 0.8707220386	-0.1632086776	-0.1196396611	-0.471266
C	-0.284488765	 0.3051722121	 0.1367727795	 0.082672
N	-1.4100020694	-0.4791939158	-0.006031254	-0.109455
C	-1.4009994256	-1.8406761706	-0.4590197336	-0.003934
C	-1.9212096665	-2.8682732012	 0.5282427598	-0.334888
C	-2.8510379554	-2.2051999556	-0.4542671521	 0.057345
O	-3.5719313159	-1.0708901132	-0.0010566233	-0.255264
C	-2.7066148706	-0.0455206128	 0.2735929985	 0.475603
N	-3.0092157518	 1.0956965579	 0.7204509217	-0.586061
H	 1.5775662608	 0.554316875	 0.0268852059	 0.230455
H	-0.5399951443	 1.3128607158	 0.4715517429	 0.143486
H	-0.6829380959	-2.0820231395	-1.230054854	 0.140872
H	-1.6694261793	-3.9050498132	 0.3335652615	 0.132275
H	-1.9897057939	-2.5903620622	 1.5741160516	 0.139182
H	-3.3686036158	-2.7448820417	-1.2359585089	 0.125255
H	-4.0140931198	 1.1793472527	 0.8484139156	 0.233722
89.4711	143.5373	206.4429	228.8951	344.5889	406.2751	479.3321	581.8993	669.7352	708.5145	725.9621	760.6761	777.3716	809.6272	820.7868	850.9045	983.806	998.1393	1011.6624	1033.2773	1067.2935	1073.033	1096.5344	1145.3418	1168.0233	1191.897	1204.3723	1280.0958	1363.8877	1389.5511	1394.5512	1452.0331	1466.5327	1712.1927	1781.6527	3117.6168	3137.1227	3204.6599	3219.5496	3234.0777	3512.6601	3543.8312
N=CN1C2CC2OC1=N	[NH][CH]N1[C@H]2C[C@H]2O[C]1[NH]	
InChI=1S/C5H7N3O/c6-2-8-3-1-4(3)9-5(8)7/h2-4,6-7H,1H2	InChI=1S/C5H7N3O/c6-2-8-3-1-4(3)9-5(8)7/h2-4,6-7H,1H2/t3-,4+/m0/s1
