15
gdb 43510	2.9722	1.29701	0.94833	0.8308	74.59	-0.2596	-0.0141	0.2454	1178.4669	0.113052	-416.82997	-416.821877	-416.820932	-416.863225	30.207	
N	-0.0933694597	 1.3179181453	 0.3745102101	-0.524146
C	 0.0029192883	 0.0831401295	 0.1086798896	 0.386126
C	-1.1787507654	-0.822624094	-0.1896061383	-0.290259
C	-0.6084327769	-2.2627752937	-0.1438564025	-0.312598
C	-1.1057084827	-3.16055844	-1.1711580734	 0.326777
C	-1.5319829596	-3.8824159773	-2.0308897632	-0.436311
C	 0.9278229977	-2.0620481951	-0.1978015047	 0.418122
O	 1.7786561913	-2.897719153	-0.3428912925	-0.33954
N	 1.1472953896	-0.7098410776	 0.0058158197	-0.362511
H	 0.8187998932	 1.7521537031	 0.5255483773	 0.214132
H	-1.9884579777	-0.6497105258	 0.5193470938	 0.14867
H	-1.5571547173	-0.5916972848	-1.1889543268	 0.15532
H	-0.8005782306	-2.706155799	 0.8427647671	 0.14686
H	-1.8990887152	-4.5310244662	-2.7874754794	 0.204716
H	 2.0872729852	-0.3488885614	 0.0849562732	 0.264641
53.1669	129.7869	133.9299	217.2174	358.3457	416.0801	465.7593	505.8485	546.1251	611.3398	621.4759	631.858	638.7913	651.2822	711.3951	813.2041	878.5057	892.7477	966.6326	1025.4489	1072.7098	1107.3556	1168.9588	1217.3806	1247.4552	1281.9912	1336.1955	1365.5127	1381.7565	1473.4724	1768.6238	1863.4718	2247.4225	3020.2338	3081.5235	3139.7226	3458.9538	3504.3631	3617.994
N=C1CC(C#C)C(=O)N1	[NH][C]1C[C@@H](C#C)C(=O)N1	
InChI=1S/C6H6N2O/c1-2-4-3-5(7)8-6(4)9/h1,4H,3H2,(H2,7,8,9)	InChI=1S/C6H6N2O/c1-2-4-3-5(7)8-6(4)9/h1,4H,3H2,(H2,7,8,9)/t4-/m1/s1
