18
gdb 59012	3.27758	1.02103	0.92401	2.4826	74.92	-0.2192	-0.0059	0.2133	1316.4108	0.146513	-439.132331	-439.123043	-439.122098	-439.166708	34.015	
C	 0.0003021039	 1.5864465185	 0.1701878317	-0.405372
C	-0.0093197294	 0.0614241957	 0.012559583	 0.007572
O	 0.788504027	-0.5678676004	 1.0162842346	-0.421269
C	-1.3949602383	-0.5174457685	-0.035486872	 0.386277
C	-1.9545930104	-1.3126470734	-0.9554772136	-0.243143
C	-3.3513334844	-1.6682530088	-0.523216669	-0.383896
C	-3.5238373034	-0.9037113022	 0.8000079413	 0.40184
O	-4.4973072317	-0.8210200974	 1.5100541873	-0.363541
N	-2.2988314893	-0.2918798202	 1.0269741388	-0.389553
H	 1.0319928371	 1.9463919834	 0.1734747954	 0.134425
H	-0.5437761426	 2.0704049862	-0.6466001111	 0.129099
H	-0.4635158713	 1.8964695736	 1.1143427571	 0.105133
H	 0.4784782577	-0.2008600101	-0.9312993632	 0.107111
H	 0.342455117	-0.4688693328	 1.8643115719	 0.280568
H	-1.4666241208	-1.6688840135	-1.8502287518	 0.107345
H	-4.1352647149	-1.3639866452	-1.2260908446	 0.145532
H	-3.4939809325	-2.7408097079	-0.3434743008	 0.148367
H	-2.1864564639	 0.3881237528	 1.7610782948	 0.253506
64.55	104.9173	131.0803	175.0409	211.5451	245.9771	327.0769	348.3288	429.3088	473.3563	515.9185	567.1095	620.1226	680.6522	709.4908	750.1353	855.4101	893.9345	951.9278	963.0883	989.6813	1016.5804	1079.3709	1091.6372	1145.5887	1189.9297	1207.1585	1264.3461	1278.7912	1312.9523	1356.8339	1403.1205	1414.6802	1419.2555	1436.712	1488.8842	1495.1564	1706.0674	1841.447	3030.4216	3042.7363	3069.1575	3074.4494	3101.7927	3128.5518	3244.631	3653.9534	3808.9274
CC(O)C1=CCC(=O)N1	C[C@@H](O)C1=CCC(=O)N1	
InChI=1S/C6H9NO2/c1-4(8)5-2-3-6(9)7-5/h2,4,8H,3H2,1H3,(H,7,9)	InChI=1S/C6H9NO2/c1-4(8)5-2-3-6(9)7-5/h2,4,8H,3H2,1H3,(H,7,9)/t4-/m1/s1
