21
gdb 102704	3.42062	0.6351	0.56238	3.7521	76.74	-0.2517	-0.0233	0.2284	1915.7804	0.179879	-461.361673	-461.350847	-461.349903	-461.399084	37.648	
O	 0.2551075453	 1.4598490598	-0.0218972319	-0.42977
C	 0.1476536767	 0.0712170117	-0.237707221	-0.04903
C	-1.2706457046	-0.483416161	-0.0013011862	-0.005459
C	-2.2244882265	-0.0585198065	-1.1206422972	-0.096626
O	-2.241896441	 1.3675594596	-1.2047449618	-0.425045
C	-1.270059651	-2.0201787862	 0.1128294245	-0.220747
C	-0.7656391733	-2.5408822446	 1.4711384701	-0.279452
C	-0.6377635187	-4.0468981122	 1.4771804307	 0.159921
O	-1.1919614424	-4.786738929	 2.2479050332	-0.235487
H	-0.4740070369	 1.8623766228	-0.5123763459	 0.289756
H	 0.4667035501	-0.2118202817	-1.2586167169	 0.074579
H	 0.855784961	-0.400942902	 0.4525672028	 0.098483
H	-1.6407015443	-0.0500671978	 0.9370110457	 0.094803
H	-1.8877049904	-0.4979557341	-2.0732688151	 0.094143
H	-3.2359596425	-0.4404392183	-0.9166697984	 0.097948
H	-2.7176845123	 1.6266206756	-1.9989559372	 0.296067
H	-2.2863829562	-2.4010494218	-0.0474912315	 0.1094
H	-0.6563317816	-2.4438030153	-0.694885967	 0.10406
H	 0.2313085836	-2.1285806628	 1.6795361143	 0.126797
H	-1.4326099445	-2.2421789185	 2.2848092523	 0.126019
H	 0.0306359594	-4.4499232978	 0.6786636062	 0.06964
49.8537	55.6767	79.8843	103.7262	130.4557	206.7494	245.3297	267.7754	297.6352	326.6367	380.0582	428.6636	523.8086	552.0705	573.5894	755.1269	836.7108	869.0796	912.7171	991.4632	1009.1176	1033.3242	1062.4253	1089.9075	1105.8422	1118.5293	1150.4249	1198.5131	1217.9746	1243.4917	1275.5908	1289.7345	1303.5119	1330.1736	1362.244	1386.9842	1398.712	1429.4404	1457.2278	1463.0303	1472.8013	1493.9327	1505.4148	1520.2954	1837.7125	2844.5385	2925.5558	2971.8264	3006.2785	3009.2781	3022.558	3035.8056	3051.149	3057.5291	3102.5377	3751.0992	3836.3836
OCC(CO)CCC=O	OCC(CO)CCC=O	
InChI=1S/C6H12O3/c7-3-1-2-6(4-8)5-9/h3,6,8-9H,1-2,4-5H2	InChI=1S/C6H12O3/c7-3-1-2-6(4-8)5-9/h3,6,8-9H,1-2,4-5H2
