21
gdb 114884	3.90316	1.01544	0.87722	1.2118	85.65	-0.2225	0.0245	0.247	1368.0005	0.18367	-387.070192	-387.061604	-387.06066	-387.103673	32.986	
O	 0.0592728713	 1.3247665896	-0.1886794616	-0.421665
C	 0.0145305681	-0.0631098432	 0.1119639626	-0.095532
C	-1.4331107256	-0.5041252259	 0.0456512986	-0.068687
C	-2.160183694	-0.5749384458	-1.3527413486	-0.254237
C	-2.8316945427	-1.9199819807	-0.8974115665	-0.034748
C	-2.7235006416	-3.2874613415	-1.6015779529	-0.24111
C	-2.023752741	-4.1911475189	-0.5310294733	-0.234646
C	-1.2319033657	-3.1911965723	 0.3114680811	-0.242682
C	-1.7522699565	-1.9790262554	 0.149192161	 0.289373
H	 0.9789567458	 1.6051543731	-0.179683885	 0.286856
H	 0.6068403724	-0.6515691632	-0.606659579	 0.08465
H	 0.4171330122	-0.2689239813	 1.1174608327	 0.08726
H	-2.0262339046	 0.104064099	 0.7389858438	 0.090338
H	-2.8159892844	 0.2596536447	-1.6085025325	 0.102444
H	-1.4386511877	-0.7334747354	-2.1597629542	 0.102138
H	-3.8341620558	-1.7310528144	-0.493831742	 0.071978
H	-3.6826007701	-3.6932176337	-1.9362984284	 0.091796
H	-2.0750591713	-3.2063016857	-2.481661466	 0.098572
H	-2.7602180555	-4.7440043379	 0.0697925308	 0.102754
H	-1.3748543055	-4.9457618323	-0.989223677	 0.098778
H	-0.3473147277	-3.4638128387	 0.8756198267	 0.086369
79.0618	111.2403	127.1258	228.7342	261.5208	309.2624	343.3492	413.4108	458.7408	595.1426	650.8511	707.7242	792.8702	807.793	848.586	868.8099	898.3525	907.4074	950.3468	972.8702	984.2745	1021.8496	1072.9283	1081.2449	1091.8833	1110.6027	1146.6381	1167.9755	1198.4407	1215.9076	1233.9111	1241.4824	1262.2123	1267.3164	1277.4243	1305.2467	1326.4715	1336.5435	1365.5781	1458.4768	1475.5819	1483.2837	1497.4028	1520.6202	1729.9988	2962.0966	2992.0521	3003.3763	3023.3924	3037.3224	3040.5826	3057.4871	3060.6887	3091.9155	3121.6834	3194.1882	3830.5789
OCC1CC2CCC=C12	OC[C@H]1C[C@H]2CC[CH][C]12	
InChI=1S/C8H12O/c9-5-7-4-6-2-1-3-8(6)7/h3,6-7,9H,1-2,4-5H2	InChI=1S/C8H12O/c9-5-7-4-6-2-1-3-8(6)7/h3,6-7,9H,1-2,4-5H2/t6-,7-/m1/s1
