19
gdb 72267	2.7504	1.86828	1.65934	0.2428	73.23	-0.2377	0.069	0.3068	922.497	0.160898	-423.004108	-422.997026	-422.996082	-423.035103	29.254	
C	 0.0537687074	 1.508782956	-0.0934391223	-0.511112
C	-0.0551309523	 0.0137758499	-0.037847247	 0.425154
O	 0.3847257769	-0.6724019606	-1.2205048253	-0.339703
C	-0.4913186864	-1.7917606069	-0.8678214666	 0.056054
C	 0.3335034138	-2.8109989052	-0.0865877081	-0.21375
C	 1.1651360009	-2.0073530746	 0.9492480518	-0.214252
C	 0.3590983581	-0.7570625654	 1.2851419627	 0.026383
O	-1.034925895	-1.1555677057	 1.4981461964	-0.308054
C	-1.2945023218	-0.8674374371	 0.1226894094	 0.016721
H	 1.1052878758	 1.8145472984	-0.1333961477	 0.130501
H	-0.4495651885	 1.9000797077	-0.9819703135	 0.129798
H	-0.398890665	 1.9562933174	 0.7965753619	 0.131621
H	-1.0083580482	-2.1874383735	-1.7447890067	 0.077057
H	-0.3370809907	-3.5137475849	 0.4170106309	 0.113683
H	 0.978266131	-3.3826830083	-0.7596046868	 0.10384
H	 1.357033919	-2.5965209505	 1.8503394638	 0.103741
H	 2.1309610029	-1.7138725216	 0.5266040368	 0.112743
H	 0.7424665142	-0.1704535491	 2.1241012691	 0.075171
H	-2.3339960223	-0.619807826	-0.0982113389	 0.084402
198.584	212.4076	240.4644	270.9174	371.3847	450.9488	483.2762	536.2491	635.858	728.5121	754.1007	780.8807	816.4743	859.0525	870.1206	884.4817	904.2222	943.1047	989.7949	998.4239	1012.6474	1058.4671	1079.99	1133.4666	1136.9864	1164.4124	1183.2003	1189.3935	1253.8605	1277.3222	1298.7332	1305.8614	1319.0793	1352.8303	1366.967	1386.4651	1415.4771	1465.6168	1478.5387	1482.4303	1491.6511	3035.4469	3052.3313	3059.2878	3077.8647	3085.1053	3094.7707	3104.0301	3104.6416	3109.6354	3120.0953
CC12OC3CCC1OC23	C[C@@]12O[C@H]3CC[C@@H]1O[C@@H]23	
InChI=1S/C7H10O2/c1-7-5-3-2-4(9-7)6(7)8-5/h4-6H,2-3H2,1H3	InChI=1S/C7H10O2/c1-7-5-3-2-4(9-7)6(7)8-5/h4-6H,2-3H2,1H3/t4-,5-,6+,7+/m0/s1
