12
gdb 23839	5.71355	1.57144	1.23247	0.4342	61.43	-0.2172	-0.0641	0.153	872.1823	0.085335	-418.814493	-418.80829	-418.807346	-418.844908	23.701	
F	-0.0340451664	 0.0555242934	 0.0039792912	-0.066987
C	-0.0398113683	 1.3841107344	 0.0109475978	 0.339414
N	-1.1819613652	 1.9644051097	 0.0290960738	-0.242177
N	-1.1559494882	 3.3174861975	 0.0357646883	-0.314488
C	-0.0349437359	 4.1551612318	 0.0252240074	 0.392548
N	-0.0528778057	 5.4389479797	 0.0320860982	-0.558389
C	 1.2171925305	 3.4095916089	 0.0047623777	-0.06918
C	 1.2244803025	 2.0612994464	-0.0023121782	-0.228098
H	-2.0742666914	 3.7344005569	 0.0500845379	 0.268842
H	-1.0055705949	 5.8072199942	 0.0466161459	 0.200561
H	 2.1242112992	 4.0006256314	-0.0042085371	 0.143082
H	 2.1375006939	 1.4783487458	-0.017436783	 0.134872
106.3576	323.2422	361.6931	371.0795	469.8582	491.799	494.5354	601.9261	634.6722	736.6971	793.1118	798.3625	829.7459	860.7167	995.7215	1014.7458	1091.6258	1158.3025	1245.3188	1300.9412	1347.022	1457.6613	1465.0663	1606.0369	1672.6189	1713.5867	3206.4843	3228.6218	3456.9837	3623.3896
FC1=NNC(=N)C=C1	FC1=NNC(=CC1)[NH]	
InChI=1S/C4H4FN3/c5-3-1-2-4(6)8-7-3/h1-2H,(H2,6,8)	InChI=1S/C4H5FN3/c5-3-1-2-4(6)8-7-3/h2,6,8H,1H2
