20
gdb 111338	2.40232	1.55404	1.13142	2.3923	80.36	-0.2236	0.0768	0.3004	1155.7002	0.170391	-403.06734	-403.0587	-403.057756	-403.100782	32.839	
C	 0.2755525689	 1.3061207943	 0.2011210699	-0.234485
O	-0.2362653273	 0.0549802552	-0.1964823095	-0.233481
C	 0.5277866194	-0.5670014573	-1.186768472	 0.065817
C	 1.9169270652	-1.151643657	-0.8426943691	-0.096125
N	 1.7209399758	-2.2230869669	 0.1656242317	-0.326836
C	 1.4656461971	-2.5092487636	-1.268436098	-0.167643
C	 0.0712972883	-1.9942447425	-1.5540482001	 0.380887
C	-1.242584623	-2.6274956658	-1.23278308	-0.30254
C	-0.853207519	-2.3697771139	-2.6721067525	-0.355141
H	 1.2760402701	 1.2152892495	 0.6490999205	 0.110376
H	 0.3380477519	 2.009041238	-0.6456369376	 0.098349
H	-0.4079415613	 1.7146177293	 0.9490521927	 0.12758
H	 0.6076238562	 0.0757118847	-2.0800309369	 0.06252
H	 2.8818523319	-0.6775970783	-0.9738058346	 0.090178
H	 2.6512044686	-2.584833944	 0.3795402718	 0.225757
H	 2.0142491623	-3.2771697165	-1.8000333143	 0.093569
H	-1.2414383823	-3.6503277715	-0.8715242049	 0.112327
H	-1.9945653006	-1.988301445	-0.7838430183	 0.127663
H	-1.3549531166	-1.5701029047	-3.2083131139	 0.112397
H	-0.5859442856	-3.220810854	-3.2909385049	 0.108831
74.2221	122.9496	160.5159	192.2663	244.6906	262.4787	296.9898	452.2954	492.1881	563.8519	647.6314	759.2006	769.978	825.3948	834.7058	886.6159	895.3037	939.9417	962.6325	976.9448	994.8555	1032.3888	1047.8404	1056.2967	1074.9333	1113.9508	1119.5159	1156.7778	1182.8218	1185.7082	1212.5723	1227.5335	1235.6836	1297.9963	1308.7045	1355.323	1373.5495	1421.6509	1464.1167	1481.5651	1488.4542	1507.4852	1508.388	2955.9805	2971.3817	3022.7166	3116.3627	3120.2824	3136.2939	3181.5862	3194.7114	3200.9931	3225.3551	3458.409
COC1C2NC2C11CC1	CO[C@H]1[C@H]2N[C@H]2C21CC2	
InChI=1S/C7H11NO/c1-9-6-4-5(8-4)7(6)2-3-7/h4-6,8H,2-3H2,1H3	InChI=1S/C7H11NO/c1-9-6-4-5(8-4)7(6)2-3-7/h4-6,8H,2-3H2,1H3/t4-,5+,6-/m0/s1
