18
gdb 30866	2.57509	1.28784	0.90679	1.3222	76.28	-0.1717	0.0667	0.2383	1285.8747	0.146006	-439.107586	-439.097743	-439.096799	-439.142383	35.221	
C	 0.2791107712	 0.9911689465	-0.4719050239	-0.246314
O	-0.2249240671	 0.2378844931	 0.6320556743	-0.270566
C	-1.2992007976	-0.5420400931	 0.3455995401	 0.262693
C	-1.3867262053	-1.8628535294	-0.0020678381	 0.198876
C	-0.2383760394	-2.8007235502	-0.2088814296	-0.508815
C	-2.791518951	-2.1637293508	-0.1241867049	-0.399982
C	-3.4782048843	-1.0116520746	 0.1558081224	 0.384781
O	-4.8000223072	-0.6990454676	 0.2129436105	-0.438416
N	-2.5844943794	-0.0135616909	 0.4259046987	-0.358623
H	 1.140490343	 1.552113126	-0.1022507255	 0.127454
H	 0.5925926222	 0.3304057127	-1.2887696307	 0.122181
H	-0.4733595732	 1.6930644548	-0.854007446	 0.112234
H	-0.3294274857	-3.6945679832	 0.4196419331	 0.120995
H	-0.1678257822	-3.1468382007	-1.2475705427	 0.117322
H	 0.7054430245	-2.3110501344	 0.0468768833	 0.124681
H	-3.2239134538	-3.1163570681	-0.3913528984	 0.082094
H	-5.3031873236	-1.5002274396	 0.0394527287	 0.305261
H	-2.822486221	 0.8941698093	 0.7864178987	 0.264146
60.7112	139.5186	145.4863	152.2796	206.3077	222.0301	244.6995	273.3979	320.9026	401.415	435.134	520.6536	592.6803	630.8591	652.7116	700.774	728.2391	796.9602	986.767	1024.6142	1037.3914	1064.811	1156.8671	1167.9859	1172.9569	1190.2458	1213.6751	1248.2056	1324.0966	1410.4511	1439.544	1482.505	1486.9479	1487.6132	1497.6755	1503.7918	1531.7819	1606.0978	1668.559	3007.5827	3018.5871	3063.6521	3072.5228	3108.5642	3124.9046	3236.5708	3683.145	3846.299
COC1=C(C)C=C(O)N1	COc1c(C)cc(O)[nH]1	
InChI=1S/C6H9NO2/c1-4-3-5(8)7-6(4)9-2/h3,7-8H,1-2H3	InChI=1S/C6H9NO2/c1-4-3-5(8)7-6(4)9-2/h3,7-8H,1-2H3
