16
gdb 20079	4.83529	1.51846	1.36424	2.8043	60.11	-0.2505	0.0881	0.3387	920.8527	0.130887	-420.843526	-420.836263	-420.835319	-420.876348	25.77	
C	-0.6122360328	 1.088008852	-0.1510942964	-0.170419
O	 0.6931553151	 1.2691644229	 0.407481566	-0.236159
C	 0.2560672981	-0.0575414375	 0.1351617273	 0.04964
C	 0.0527513297	-0.9440867792	 1.3504760991	 0.181451
O	-0.9361702783	-0.4632898531	 2.2438673709	-0.255774
C	-2.0577248255	-1.3370002179	 2.1532312383	-0.099472
C	-1.4105830929	-2.6555027183	 1.7418745717	-0.084207
O	-0.3578414862	-2.2212258988	 0.8912410437	-0.266929
H	-1.4336635297	 1.3110524301	 0.5246592027	 0.12802
H	-0.7317530427	 1.4247428537	-1.1797530879	 0.114172
H	 0.7715119766	-0.5585266401	-0.685070607	 0.103132
H	 0.9944557454	-1.0136841083	 1.9176887198	 0.0915
H	-2.5531223165	-1.3636865274	 3.1265845192	 0.119011
H	-2.7704774185	-0.9899148724	 1.3915668584	 0.101362
H	-1.0161364692	-3.195559454	 2.6148206894	 0.105307
H	-2.0656343527	-3.3181533417	 1.171637085	 0.119367
38.0434	75.2379	184.4741	266.9453	280.9027	417.8221	581.6306	649.8236	751.8803	826.1538	879.225	907.5679	930.9257	952.6133	990.3648	1008.7027	1038.1529	1080.1595	1110.4293	1147.6138	1162.1629	1164.3621	1189.6383	1228.1471	1249.356	1277.4049	1317.5085	1376.8823	1383.7202	1404.8811	1436.3856	1509.9014	1516.2988	1519.0116	2983.0926	2998.5357	3008.0394	3094.0127	3103.1445	3109.2282	3111.2787	3191.0262
C1OC1C1OCCO1	C1O[C@H]1C1OCCO1	
InChI=1S/C5H8O3/c1-2-7-5(6-1)4-3-8-4/h4-5H,1-3H2	InChI=1S/C5H8O3/c1-2-7-5(6-1)4-3-8-4/h4-5H,1-3H2/t4-/m1/s1
