21
gdb 61555	3.20542	0.81388	0.78265	1.19	79.42	-0.2416	-0.0114	0.2302	1574.0022	0.179299	-424.228434	-424.217933	-424.216989	-424.265576	36.769	
C	 0.1739494367	 1.5281520164	 0.1440408168	-0.404897
C	-0.1009395806	 0.0200345741	-0.039390289	-0.071124
C	-1.6017617054	-0.3052111889	-0.1509291937	-0.221738
C	-2.3772630698	 0.0223417404	 1.1009073279	 0.079923
C	-3.4055067994	-0.8756953739	 1.6403433202	-0.179324
O	-2.1127957079	-0.8025232941	 2.2440699144	-0.241385
C	 0.6420141719	-0.4512173652	-1.2931314906	 0.382426
C	 2.0806149081	-0.8969214208	-1.1035362288	-0.481275
O	 0.1089589707	-0.4580467855	-2.3796594443	-0.310048
H	 1.2469789708	 1.7382968201	 0.1907742759	 0.119866
H	-0.2450669796	 2.0987343728	-0.6911589108	 0.132519
H	-0.2699484066	 1.8967290783	 1.072344996	 0.130253
H	 0.3093584291	-0.5107493255	 0.8283960661	 0.096225
H	-2.0260586394	 0.2360153674	-1.0036719142	 0.119938
H	-1.7192334792	-1.3721880078	-0.3686304649	 0.104503
H	-2.4708549119	 1.0815579449	 1.3454624284	 0.092964
H	-4.2238412643	-0.4719158698	 2.2351979361	 0.113696
H	-3.6268484313	-1.8072995354	 1.1207647126	 0.114266
H	 2.6417283088	-0.1862115499	-0.4882612391	 0.136021
H	 2.0910541414	-1.8538789565	-0.567391081	 0.145935
H	 2.566391698	-1.0233410813	-2.0718514582	 0.141255
34.9363	49.1877	73.1805	133.3464	149.9405	211.0047	236.0601	270.9651	312.6543	341.2694	432.2453	503.7557	593.2072	601.6716	767.3276	798.8853	848.7935	898.7814	903.407	953.4104	960.4202	997.4224	1034.4836	1066.8853	1103.8362	1125.4707	1155.1239	1159.8482	1172.2976	1189.965	1262.7226	1293.3202	1306.582	1337.3932	1374.2541	1384.9145	1404.3105	1449.2346	1462.2196	1467.8326	1474.7257	1500.1337	1502.0085	1529.9303	1807.8735	3033.2338	3038.6541	3039.0522	3046.199	3080.0492	3084.8326	3096.5851	3102.1569	3107.6243	3119.2624	3151.6184	3166.8602
CC(CC1CO1)C(C)=O	C[C@@H](C[C@H]1CO1)C(=O)C	
InChI=1S/C7H12O2/c1-5(6(2)8)3-7-4-9-7/h5,7H,3-4H2,1-2H3	InChI=1S/C7H12O2/c1-5(6(2)8)3-7-4-9-7/h5,7H,3-4H2,1-2H3/t5-,7-/m0/s1
