18
gdb 51333	4.42827	1.01438	0.98328	3.1203	75.99	-0.2235	-0.0226	0.2009	1236.2401	0.14721	-401.876592	-401.868923	-401.867979	-401.909676	29.236	
O	-0.0475053942	 1.0309922901	 1.4292900537	-0.238958
C	 0.0144279345	 1.4475054919	 0.3024356674	 0.15805
C	 1.2065849051	 1.2551587921	-0.6229372009	-0.247831
N	 1.3285102066	 2.3893608371	-1.5264344778	-0.095237
C	 2.1061361985	 3.557163994	-1.1141390687	-0.024682
C	 3.5964674051	 3.3310978326	-1.4853125236	-0.084145
C	 3.6618060163	 1.963831303	-2.162716942	-0.24574
C	 2.2384688444	 2.2991769552	-2.7058761929	-0.022271
C	 2.5811047736	 3.8261167394	-2.5010971646	-0.103801
H	-0.8216791192	 2.0122114832	-0.1681020483	 0.084466
H	 2.0929617779	 1.0327593765	-0.0117661739	 0.117077
H	 0.9883874378	 0.3618856266	-1.2279105008	 0.127659
H	 1.7872627583	 4.2441756761	-0.3401048194	 0.102915
H	 4.3937733486	 3.8913697334	-1.0142750461	 0.090477
H	 4.388919409	 1.9681111815	-2.9786592783	 0.106447
H	 3.7908628423	 1.0574616925	-1.5615138909	 0.094877
H	 1.8350537438	 1.8155238645	-3.5943832311	 0.079715
H	 2.5232073117	 4.6949058403	-3.1388869919	 0.100982
54.9517	84.6264	156.3935	242.5886	340.2322	460.2176	489.0295	606.4628	690.9332	746.8841	777.8147	792.3314	800.8151	812.564	882.4887	896.2487	952.3658	981.1786	1005.8066	1018.3362	1029.4842	1062.7468	1071.5896	1081.5584	1127.4098	1140.6594	1159.2384	1173.5021	1191.7837	1227.6817	1258.5543	1272.2859	1314.7533	1333.6486	1364.0545	1402.9227	1452.321	1502.9666	1838.0958	2887.6282	2990.2748	3035.3263	3047.1119	3104.8077	3126.3179	3191.6654	3202.299	3234.6804
O=CCN1C2C3CC1C23	O=CCN1[C@H]2[C@H]3C[C@@H]1[C@@H]23	
InChI=1S/C7H9NO/c9-2-1-8-5-3-4-6(5)7(4)8/h2,4-7H,1,3H2	InChI=1S/C7H9NO/c9-2-1-8-5-3-4-6(5)7(4)8/h2,4-7H,1,3H2/t4-,5+,6-,7-/m0/s1
