13
gdb 25542	4.6516	0.88814	0.80039	3.0418	61.43	-0.2493	-0.0471	0.2023	1334.7148	0.08767	-493.753713	-493.745872	-493.744928	-493.787716	27.115	
O	-0.4528773428	 0.438787572	 0.6286963155	-0.220537
C	 0.1502379397	 0.9114322633	-0.2951199329	 0.15893
C	 1.3201184216	 1.8845966088	-0.1246048627	-0.392
C	 1.2927771776	 2.9940540588	-1.1079638985	 0.29836
C	 1.0414921073	 4.2997539509	-1.0342323819	-0.132416
O	 1.1393671729	 4.8542158473	-2.2953144492	-0.205395
C	 1.4525441414	 3.8447911574	-3.1635675764	 0.505667
O	 1.611627415	 3.9488104471	-4.3344403338	-0.361198
O	 1.551959395	 2.6844564428	-2.4363141685	-0.245296
H	-0.0957012338	 0.660900041	-1.3489907671	 0.108509
H	 1.3056114304	 2.2714256112	 0.8965283745	 0.151082
H	 2.2458470063	 1.3059577711	-0.2565156964	 0.159214
H	 0.7980710793	 4.9593491184	-0.2205581726	 0.175079
48.4222	61.8814	121.9755	216.4615	288.3773	376.5305	432.8863	548.4074	612.9773	682.298	750.2036	758.3333	785.168	804.8394	916.2053	962.0493	1025.0886	1043.8802	1065.145	1145.8598	1193.7957	1241.4136	1312.1583	1340.6721	1419.6044	1440.8515	1737.9666	1842.3382	1947.2305	2911.5523	3019.165	3122.6913	3306.1297
O=CCC1=COC(=O)O1	O=CCc1coc(=O)o1	
InChI=1S/C5H4O4/c6-2-1-4-3-8-5(7)9-4/h2-3H,1H2	InChI=1S/C5H4O4/c6-2-1-4-3-8-5(7)9-4/h2-3H,1H2
