17
gdb 99728	1.82295	1.66659	0.99564	5.4682	66.12	-0.2383	0.003	0.2413	1190.0083	0.135132	-492.340558	-492.331489	-492.330545	-492.374758	32.619	
C	 0.3108524611	 1.3009781907	 0.5039992353	-0.347264
N	-0.2016251261	 0.1284136895	-0.2341240278	-0.228264
H	-0.3613151628	-0.6765089012	 0.3908541022	 0.288151
H	-1.0648185549	 0.3774658641	-0.8819367266	 0.331063
C	 0.6380859442	-0.3975451115	-1.335868454	-0.27631
C	 0.9247554244	-1.8707399724	-1.0523178136	 0.421289
N	 1.526493757	-2.5036885257	-2.0757437906	-0.516584
O	 0.6123547786	-2.3617982335	 0.0268964907	-0.395165
C	-0.2386515109	-0.1882250774	-2.6517119696	 0.428598
O	-1.3294252071	 0.3806746896	-2.3822902122	-0.467564
O	 0.2480553469	-0.6025561025	-3.7011598264	-0.429304
H	 1.2531228217	 1.0525887702	 0.9963014388	 0.164554
H	 0.4636663234	 2.1193650814	-0.2016201703	 0.174149
H	-0.4251468908	 1.6031132507	 1.2513205918	 0.159674
H	 1.5663410199	 0.1675815238	-1.4327692706	 0.137478
H	 1.4134205545	-2.0586306079	-2.9882521019	 0.290276
H	 1.614810621	-3.506446018	-2.0154609153	 0.265222
77.0815	105.6381	137.2868	192.6955	204.5823	242.8973	288.0676	373.2811	408.719	515.0006	548.5789	591.0406	651.7042	675.1965	731.0135	797.4464	860.4212	921.8575	977.157	1009.1501	1067.7102	1131.4655	1165.449	1169.8713	1197.0901	1237.8662	1303.5405	1349.3702	1400.1461	1430.6559	1462.8796	1498.134	1502.5429	1617.619	1622.8794	1775.9716	1827.9083	2382.2495	3064.0227	3113.6128	3150.6203	3156.0146	3307.6027	3411.4919	3660.4008
C[NH2+]C(C(N)=O)C([O-])=O	C[NH2][C@@H](C(=O)N)C(=O)[O]	
InChI=1S/C4H8N2O3/c1-6-2(3(5)7)4(8)9/h2,6H,1H3,(H2,5,7)(H,8,9)	InChI=1S/C4H8N2O3/c1-6-2(3(5)7)4(8)9/h2H,6H2,1H3,(H2,5,7)/t2-/m0/s1
