15
gdb 44757	2.75785	1.7105	1.26046	5.4245	71.02	-0.2795	0.0059	0.2854	973.7085	0.11475	-416.80995	-416.803024	-416.80208	-416.841301	27.184	
N	-0.0369949314	 1.2278024856	-0.0284115725	-0.559396
C	-0.0324918146	-0.0257601529	-0.0115796396	 0.443529
O	 1.0509195332	-0.8774017444	-0.0196623997	-0.259532
C	 0.4117712207	-2.1870245205	 0.0095533487	 0.075669
C	-0.7037053509	-2.0332183749	-1.0465060336	-0.264037
C	-1.2110524392	-0.9881518728	 0.0226803773	 0.067066
C	-0.6649366924	-2.0042491706	 1.1006548706	-0.264038
C	-2.5519776889	-0.461242861	 0.0397805889	 0.207195
N	-3.6448678765	-0.087365158	 0.0544669818	-0.337883
H	 0.9132743342	 1.6016093397	-0.0506162554	 0.236215
H	 1.1692374075	-2.9653321722	 0.0063769898	 0.112031
H	-0.4239931606	-1.6508920711	-2.0288382933	 0.137174
H	-1.3642836526	-2.8969632962	-1.1208435369	 0.134417
H	-1.3219835691	-2.8653514054	 1.2220552475	 0.134417
H	-0.3501366593	-1.5957047953	 2.0615820164	 0.137174
143.2217	148.6257	209.661	391.2842	463.5786	487.9761	520.4154	536.0278	587.3915	645.8931	706.9441	811.6848	855.5975	883.8638	917.8058	932.8174	937.2714	972.6329	998.255	1000.1815	1057.0919	1109.5675	1175.8481	1188.1316	1210.0646	1234.3145	1240.3207	1301.6552	1364.0114	1474.8669	1510.9111	1817.3246	2368.5024	3088.9585	3093.2915	3162.4563	3166.7418	3173.7526	3480.5194
N=C1OC2CC1(C2)C#N	[NH][C]1O[C@@H]2C[C@]1(C2)C#N	
InChI=1S/C6H6N2O/c7-3-6-1-4(2-6)9-5(6)8/h4,8H,1-2H2	InChI=1S/C6H6N2O/c7-3-6-1-4(2-6)9-5(6)8/h4,8H,1-2H2/t4-,6+
