18
gdb 105506	2.05187	1.65295	1.10935	5.9475	67.35	-0.2528	0.0181	0.2709	1118.4866	0.148446	-476.228332	-476.219639	-476.218695	-476.262265	31.816	
N	 0.1066707817	 1.1658773055	 0.1239321334	-0.528964
H	 0.4749689158	 0.2460676023	 0.3466473704	 0.249974
H	 0.901868554	 1.7784550111	-0.0208976565	 0.253701
H	-1.2407244312	 1.1335950736	-0.9876344598	 0.316202
C	-0.7521306447	 1.6644578081	 1.2162761412	-0.257248
C	-2.1176504877	 0.9666903208	 1.2104848915	 0.115731
C	-2.0677389564	-0.5043408353	 1.7287418773	-0.104992
O	-2.6194566965	-0.1238167429	 2.9963222122	-0.26999
C	-2.9169332589	 1.2050805678	 2.5104586487	-0.118543
C	-2.92198041	 1.1450347996	-0.0862254515	 0.366218
O	-4.1249861865	 1.2073780077	-0.0901696546	-0.33893
O	-2.2077885722	 1.1827492255	-1.2150949765	-0.381532
H	-0.294967621	 1.5377458206	 2.2075087335	 0.119758
H	-0.8947578172	 2.7394992006	 1.0593487383	 0.13046
H	-2.7204799077	-1.195443021	 1.1814713403	 0.122582
H	-1.0704845156	-0.9541403183	 1.8284465964	 0.09029
H	-2.5303394674	 1.981816072	 3.180840939	 0.097539
H	-3.9851502886	 1.3529922624	 2.3308825966	 0.137745
59.9385	87.2867	152.3522	217.9074	281.0727	289.212	337.6351	352.9966	424.6701	457.5585	584.9309	731.4408	754.4576	833.397	856.4565	889.0114	948.6119	975.9092	992.4494	1004.8296	1038.1053	1046.352	1057.5145	1143.9337	1167.3731	1168.9294	1217.465	1252.7162	1285.2152	1311.1965	1356.125	1377.3015	1416.9721	1497.6316	1504.4323	1510.1651	1529.1016	1651.5991	1845.9031	3000.1558	3004.5808	3029.6169	3051.89	3070.2082	3101.7613	3198.5712	3506.5045	3586.8821
[NH3+]CC1(COC1)C([O-])=O	NCC1(COC1)C(=O)O	
InChI=1S/C5H9NO3/c6-1-5(4(7)8)2-9-3-5/h1-3,6H2,(H,7,8)	InChI=1S/C5H9NO3/c6-1-5(4(7)8)2-9-3-5/h1-3,6H2,(H,7,8)
