16
gdb 44685	3.37199	1.49421	1.13918	4.8319	70.78	-0.2422	-0.0041	0.2381	1038.4687	0.125825	-437.897208	-437.889854	-437.88891	-437.929316	27.987	
O	 0.0481906044	-0.0116376709	-0.1117059001	-0.353218
C	 0.0069469778	 1.1830256707	-0.0169869861	 0.421288
N	-1.0249117469	 2.0800775194	 0.1192500281	-0.340157
C	-0.192011625	 3.2953590111	 0.090492175	-0.023449
C	-0.1880817958	 4.1955221709	 1.2865330845	-0.082345
C	 0.9289828125	 4.3654586765	 1.989499975	-0.066508
C	 2.1674364482	 3.557844444	 1.7030328596	-0.12266
O	 1.8706173518	 2.2952073876	 1.1276575806	-0.255628
C	 1.0462834276	 2.3463839552	-0.0065620948	-0.05154
H	-2.0258865847	 1.9475034175	 0.1033919866	 0.250298
H	-0.3525615573	 3.881718347	-0.8239100835	 0.095508
H	-1.0945758586	 4.7485387485	 1.5176910625	 0.098635
H	 0.979001382	 5.079936083	 2.8063472126	 0.104245
H	 2.8648910246	 4.1289225024	 1.0643522155	 0.105461
H	 2.6990329337	 3.333922213	 2.6331119155	 0.127996
H	 1.6292048555	 2.4519017742	-0.931400211	 0.092076
76.337	147.5162	209.1323	291.7708	348.5593	460.1325	480.6007	503.75	562.0121	682.0001	705.5625	775.5904	823.2698	874.7321	923.6122	954.9926	966.3509	991.0961	1030.4484	1053.4995	1079.8256	1136.73	1184.2522	1201.3324	1212.1993	1268.0578	1281.3394	1344.3887	1359.5202	1384.444	1400.4414	1413.5828	1488.8734	1716.4391	1904.6623	2947.4611	3008.8537	3023.0511	3077.269	3155.4321	3179.1506	3602.4596
O=C1NC2C=CCOC12	O=C1N[C@H]2C=CCO[C@@H]12	
InChI=1S/C6H7NO2/c8-6-5-4(7-6)2-1-3-9-5/h1-2,4-5H,3H2,(H,7,8)	InChI=1S/C6H7NO2/c8-6-5-4(7-6)2-1-3-9-5/h1-2,4-5H,3H2,(H,7,8)/t4-,5+/m0/s1
