17
gdb 71073	3.42747	1.64674	1.30744	0.5945	74.31	-0.2232	-0.0196	0.2037	963.9969	0.136454	-421.73871	-421.731648	-421.730704	-421.769627	29.188	
O	-0.2874008232	 1.3155225273	-0.1500167581	-0.450606
C	 0.0553488628	-0.0227472053	-0.0702580757	 0.324287
C	 0.7788517891	-0.7687923249	-1.2359352551	-0.342839
C	 0.116357884	-1.9949999656	-0.6339674512	 0.167549
C	 0.7497365565	-2.9845466137	 0.0040459209	-0.150115
C	 0.4106672889	-3.0552490116	 1.467698765	-0.11101
O	 0.6325025501	-1.7051530915	 1.9821559311	-0.268812
C	-0.1431975666	-0.7575245667	 1.3015895172	 0.055996
C	-0.9315115195	-1.1643453936	 0.1063434661	-0.26216
H	 0.4426611678	 1.8351248048	 0.2053658657	 0.29019
H	 0.3407660131	-0.4109375928	-2.1740416764	 0.116537
H	 1.8717169525	-0.7587484377	-1.2962165042	 0.099049
H	 1.7122750227	-3.3546107948	-0.3380962253	 0.098283
H	-0.6258345388	-3.3495273285	 1.6695999525	 0.112441
H	 1.0811262049	-3.7010331501	 2.0361211256	 0.115422
H	-0.6336426563	-0.079179249	 1.9985660016	 0.102549
H	-2.0089328978	-1.2048702463	 0.0042379502	 0.103239
198.6654	235.3649	288.36	334.4473	359.6965	400.2458	477.27	522.7142	545.8544	632.043	684.4036	751.495	792.3687	844.2969	881.4142	907.013	914.7443	952.2338	984.4653	1017.7515	1022.3214	1053.3958	1067.0816	1112.5057	1127.5506	1183.0331	1202.5745	1237.6382	1252.7611	1274.5666	1315.7839	1326.4151	1359.3022	1417.247	1492.6302	1492.9794	1679.5742	3034.0931	3035.9588	3092.6362	3122.2813	3126.7364	3165.0417	3185.3715	3792.0308
OC12CC3=CCOC1C23	O[C@@]12C[C]3[CH]CO[C@@H]1[C@@H]23	
InChI=1S/C7H8O2/c8-7-3-4-1-2-9-6(7)5(4)7/h1,5-6,8H,2-3H2	InChI=1S/C7H8O2/c8-7-3-4-1-2-9-6(7)5(4)7/h1,5-6,8H,2-3H2/t5-,6+,7+/m0/s1
