16
gdb 101997	3.54112	0.69313	0.6078	2.717	79.39	-0.2422	-0.074	0.1683	1769.2968	0.12064	-437.847789	-437.837539	-437.836594	-437.884768	33.677	
C	-0.1080409922	 1.5294287666	 0.0309272957	-0.325443
N	 0.0954887125	 0.0843667237	-0.0844312688	-0.26561
C	 0.7076796668	-0.5109099861	 1.0870948684	-0.260514
C	-0.2395702632	-0.6561581628	 2.3112334856	 0.156248
O	-1.4127788409	-0.4142553643	 2.2473117798	-0.229547
C	 1.2567303107	-1.8407284232	 0.8290915783	 0.070271
C	 1.6710770716	-2.9658858671	 0.6799463688	 0.094792
C	 2.171937206	-4.2964276956	 0.4430731533	 0.021897
O	 2.7082130641	-4.9821361387	 1.2824236035	-0.226179
H	 0.8663242283	 2.0269593828	 0.0928256373	 0.125377
H	-0.6019291643	 1.8856570559	-0.8765975435	 0.13078
H	-0.7129701425	 1.8374907308	 0.8960362256	 0.12005
H	-0.797919985	-0.3713907585	-0.2432797457	 0.234482
H	 1.5370367939	 0.1344106105	 1.4174747446	 0.137841
H	 0.2471215955	-1.0186493011	 3.2414181905	 0.108817
H	 2.0249989788	-4.6553180928	-0.5953533334	 0.106738
44.24	66.6615	79.0988	105.5221	168.2339	177.4152	203.7195	250.1068	294.107	345.1948	444.597	505.1956	625.5608	682.8835	759.3623	809.9213	875.0732	996.1713	1020.0844	1024.0106	1119.6308	1153.9913	1166.3334	1213.4464	1241.6598	1327.6159	1396.8299	1420.5094	1457.9762	1488.7375	1499.1762	1524.2964	1767.9696	1837.77	2320.014	2911.8704	2927.0327	2994.7695	2999.9272	3069.1501	3115.0868	3523.8726
CNC(C=O)C#CC=O	CN[C@@H](C=O)C#CC=O	
InChI=1S/C6H7NO2/c1-7-6(5-9)3-2-4-8/h4-7H,1H3	InChI=1S/C6H7NO2/c1-7-6(5-9)3-2-4-8/h4-7H,1H3/t6-/m1/s1
