17
gdb 36259	5.37259	0.96752	0.9397	4.1154	76.82	-0.2457	0.0315	0.2772	1251.3152	0.13714	-380.78098	-380.773685	-380.772741	-380.81336	27.942	
N	-0.0071247538	-1.162793404	-0.3037481717	-0.30504
C	-0.0310067813	-0.0371374313	-0.0438551826	 0.263176
C	-0.0357191048	 1.390216185	 0.2761218896	-0.382062
C	 1.353283627	 2.0184652722	 0.1384323314	-0.00063
C	 1.9145486231	 2.3160599646	-1.2575539505	-0.007026
C	 1.0617159245	 3.607627606	-1.4671932375	-0.078818
C	 2.3420585313	 4.3807294036	-1.7568563836	-0.18394
N	 2.8379944507	 3.4231776898	-0.6763399188	-0.159718
C	 1.4657086541	 3.5457519731	 0.0400969375	-0.035278
H	-0.7542203066	 1.8904959719	-0.3832931027	 0.151554
H	-0.4062371664	 1.5150148626	 1.3003529489	 0.156219
H	 2.0753362618	 1.5567316824	 0.8184583749	 0.106722
H	 2.2870044644	 1.6291767753	-2.0187525783	 0.099235
H	 0.0619535494	 3.7027959106	-1.9034985454	 0.072924
H	 2.828375974	 4.2313923929	-2.7260217879	 0.108298
H	 2.3900405561	 5.4335375856	-1.4605700446	 0.105785
H	 1.3102531563	 4.3079775097	 0.8061986713	 0.088598
59.2589	117.6011	217.7039	279.2247	393.2352	436.743	464.5432	588.1368	712.8302	762.3479	807.8022	845.3646	852.7199	882.4628	912.6863	938.1814	961.1291	995.8005	1028.1858	1030.1576	1070.4011	1087.7733	1106.9304	1139.5198	1164.2349	1167.036	1192.0939	1217.2145	1239.9003	1262.8217	1278.2755	1311.6551	1329.8818	1398.985	1464.7507	1521.2757	2362.7758	3037.4841	3040.9292	3050.6967	3068.8398	3084.9459	3098.7957	3101.0843	3113.2223
N#CCC1C2C3CN2C13	N#CC[C@H]1[C@H]2[C@@H]3CN2[C@H]13	
InChI=1S/C7H8N2/c8-2-1-4-6-5-3-9(6)7(4)5/h4-7H,1,3H2	InChI=1S/C7H8N2/c8-2-1-4-6-5-3-9(6)7(4)5/h4-7H,1,3H2/t4-,5-,6-,7+
