15
gdb 49901	3.732	1.06235	0.91183	4.251	75.64	-0.2591	-0.0332	0.2259	1244.7046	0.111561	-416.787657	-416.77909	-416.778146	-416.821453	30.606	
N	 0.057946151	 1.1021490928	 0.7670344697	-0.528254
C	 0.111694998	-0.0834325846	 0.3649560856	 0.401871
C	-0.954273455	-1.1677081856	 0.098080831	-0.282079
C	 0.2483782713	-2.1069528659	-0.284191224	-0.19631
N	 1.1429801167	-0.9644743299	-0.0359394254	-0.101489
C	 2.4964456027	-0.7884749723	-0.1219514349	 0.139962
O	 3.0584166456	 0.2497117427	 0.1464695561	-0.29966
C	-1.7843812072	-1.5780612939	 1.2090600835	 0.33956
C	-2.4640952512	-1.9334623801	 2.1334464712	-0.448244
H	 0.9921633925	 1.5130826788	 0.8090017802	 0.255415
H	-1.5648924074	-0.90991817	-0.772534774	 0.141204
H	 0.3968789629	-2.940843244	 0.4046210742	 0.142224
H	 0.2503143868	-2.4588494138	-1.3184189852	 0.133438
H	 3.0206623829	-1.7011800524	-0.4657968577	 0.094382
H	-3.0691916197	-2.2326148219	 2.9534935196	 0.207978
56.2719	118.9605	152.2308	181.4778	212.9432	257.8542	378.7772	438.0467	483.2191	555.2217	636.5751	643.0305	652.2527	759.0834	815.2932	863.5133	916.4037	957.6039	1026.6586	1029.5318	1084.9374	1153.4705	1164.51	1200.8978	1241.2045	1277.3393	1340.1279	1393.9929	1432.5628	1512.7445	1760.8882	1825.0101	2245.9045	2948.2504	3065.8194	3070.2784	3127.84	3485.5567	3503.3693
N=C1C(CN1C=O)C#C	[NH][C]1[C@@H](CN1C=O)C#C	
InChI=1S/C6H6N2O/c1-2-5-3-8(4-9)6(5)7/h1,4-5,7H,3H2	InChI=1S/C6H6N2O/c1-2-5-3-8(4-9)6(5)7/h1,4-5,7H,3H2/t5-/m1/s1
