14
gdb 27587	3.51043	1.23167	0.9122	7.3199	79.91	-0.2476	-0.0519	0.1956	1184.1799	0.103854	-395.80706	-395.799669	-395.798725	-395.838847	28.259	
N	-0.0182616437	 1.3954316172	 0.1458404434	-0.590874
C	 0.0057393423	 0.0245496569	 0.0535085843	 0.363755
C	-1.1789936108	-0.7267743525	 0.041600385	-0.24481
C	-1.0912232011	-2.115038671	-0.0035723433	 0.232398
N	 0.0558236892	-2.8094249345	-0.0378100255	-0.339895
C	 1.1729601306	-2.0797669312	-0.0256615948	 0.003117
C	 1.2108359155	-0.6931617908	 0.017485706	-0.186713
C	-2.3116630649	-2.8837287398	-0.0188459876	 0.237271
N	-3.3096536878	-3.4681673891	-0.0308567465	-0.329965
H	 0.8158862005	 1.8942400422	-0.1189866976	 0.261496
H	-0.8755925209	 1.8647204897	-0.0985272941	 0.262633
H	-2.1487718442	-0.2430110994	 0.0687122982	 0.114647
H	 2.1040647339	-2.6402259267	-0.0547776558	 0.117981
H	 2.1630458213	-0.172933721	 0.0253396683	 0.098958
138.3433	153.6803	220.4858	372.6228	384.3678	396.1163	435.5443	480.6698	505.6748	535.743	591.0152	670.9602	765.6969	766.2614	856.0681	892.3943	960.6045	991.9429	999.3851	1083.4555	1132.0827	1188.8537	1319.2085	1324.5549	1367.282	1459.8563	1510.3062	1600.0199	1634.3404	1663.0769	2352.8727	3159.3551	3185.5591	3194.5742	3592.683	3701.1262
NC1=CC(=NC=C1)C#N	Nc1cc(ncc1)C#N	
InChI=1S/C6H5N3/c7-4-6-3-5(8)1-2-9-6/h1-3H,(H2,8,9)	InChI=1S/C6H5N3/c7-4-6-3-5(8)1-2-9-6/h1-3H,(H2,8,9)
