16
gdb 6583	4.16817	1.8728	1.62445	1.4252	64.49	-0.2318	0.0065	0.2383	813.1261	0.129857	-383.69874	-383.691735	-383.690791	-383.72917	28.787	
O	-0.0955381843	 1.4071925628	-0.0000636518	-0.482705
C	-0.019007199	 0.0196567821	 0.0074770572	 0.373678
C	 0.3235320084	-0.8294077595	 1.2913355393	-0.304677
C	-0.357887188	-1.9316897581	 0.4275604536	 0.373685
O	-0.7798551656	-3.1002511997	 1.0501155417	-0.482705
C	-1.3401478354	-0.8016208665	-0.0670583115	-0.304672
C	 0.6135745577	-1.9995724793	-0.7689467484	-0.164765
C	 0.8345138624	-0.7141047535	-1.0475469517	-0.164754
H	 0.7914824186	 1.7607058447	 0.1267720302	 0.280041
H	 1.3756033894	-0.9722047152	 1.5471779582	 0.091365
H	-0.2727312654	-0.5404285945	 2.1613731894	 0.103746
H	-1.242872335	-3.6400346284	 0.4004129512	 0.28004
H	-2.0673223662	-0.5092659414	 0.6956670085	 0.103745
H	-1.8035310042	-0.9174114693	-1.0491828686	 0.091365
H	 0.9965747196	-2.9028431565	-1.2246151146	 0.103306
H	 1.4400377269	-0.2450529474	-1.8114516928	 0.103308
232.3088	245.5257	291.712	304.3273	384.9958	412.4429	466.3083	547.6083	558.0955	606.5959	637.2606	681.0967	703.9138	850.4323	876.9032	900.2755	928.7511	944.1257	1011.3437	1034.7894	1036.8097	1052.9199	1129.4588	1144.1986	1175.2225	1179.1373	1236.8893	1297.7095	1336.1193	1365.5973	1372.2589	1474.6679	1518.0454	1631.066	3052.0312	3062.9255	3126.8297	3133.7826	3207.4675	3235.9206	3806.1313	3806.4166
OC12CC(O)(C1)C=C2	O[C@@]12C[C@@](O)(C1)C=C2	
InChI=1S/C6H8O2/c7-5-1-2-6(8,3-5)4-5/h1-2,7-8H,3-4H2	InChI=1S/C6H8O2/c7-5-1-2-6(8,3-5)4-5/h1-2,7-8H,3-4H2/t5-,6+
