18
gdb 12971	2.37333	2.24659	1.76596	1.8105	67.39	-0.2299	0.0686	0.2985	873.663	0.152405	-384.899279	-384.891155	-384.890211	-384.931135	31.028	
C	-0.0939137378	 1.565100669	 0.0098872833	-0.425105
C	 0.1718697171	 0.073261152	 0.0390016991	 0.107682
O	 1.3294179429	-0.3603907322	-0.753544413	-0.329961
C	 1.777887222	-1.1860179811	 0.3330026192	-0.020385
C	 2.2023809391	-0.2915634348	 1.4430217756	 0.073029
O	 2.7884521402	 0.9486212205	 1.1936234838	-0.434672
C	 0.7206337052	-0.6226330031	 1.2875444368	 0.194844
C	-0.1196210625	-1.2547050108	 2.3577422092	-0.502738
H	 0.7332812075	 2.1292700211	 0.4428293152	 0.139446
H	-0.2628941984	 1.8998663081	-1.0189485821	 0.125449
H	-1.0003485482	 1.7858939343	 0.5844677638	 0.120801
H	-0.7049167695	-0.4731895625	-0.3362002034	 0.082741
H	 2.128975272	-2.1848810856	 0.0955419064	 0.101054
H	 2.654908105	-0.7870712423	 2.2987985584	 0.10379
H	 2.7497432409	 1.064015233	 0.2340134607	 0.293045
H	-0.5931764206	-0.494259648	 2.9902283201	 0.127723
H	-0.9145779166	-1.8768010929	 1.9299506655	 0.119653
H	 0.4841125216	-1.8918678248	 3.0118506914	 0.123604
173.1116	179.3731	201.3956	219.9736	223.8728	291.4585	329.7876	424.8235	466.4734	571.6365	613.7867	660.0739	751.2752	791.5076	850.3445	894.4667	930.1261	981.609	1013.4566	1034.5514	1070.1038	1097.3236	1116.8879	1146.1183	1175.0355	1241.8877	1247.8565	1297.6024	1302.0065	1381.9561	1396.2836	1409.5363	1418.4961	1474.7214	1486.2965	1487.5888	1497.4416	1504.2821	3001.0141	3020.715	3040.0597	3078.6722	3096.365	3101.1454	3144.4195	3146.0392	3166.1036	3748.8151
CC1OC2C(O)C12C	C[C@H]1O[C@H]2[C@@H](O)[C@@]12C	
InChI=1S/C6H10O2/c1-3-6(2)4(7)5(6)8-3/h3-5,7H,1-2H3	InChI=1S/C6H10O2/c1-3-6(2)4(7)5(6)8-3/h3-5,7H,1-2H3/t3-,4-,5+,6-/m1/s1
