20
gdb 94170	2.26861	1.41401	1.20496	4.9906	74.32	-0.243	0.0209	0.2639	1151.2137	0.170779	-440.313686	-440.304428	-440.303484	-440.347633	34.656	
C	-0.0334602748	 1.6062130121	-0.1629526702	-0.421461
C	 0.0592043671	 0.0989670816	-0.0095980954	 0.002136
C	 1.0473476668	-0.7036536116	-0.8909062832	-0.186185
N	 1.4086297944	-1.5324974748	 0.289899702	-0.368368
H	 0.1996431955	-2.6823958086	 1.1877279083	 0.300571
H	 2.4019559946	-1.6993321546	 0.4184363368	 0.226611
C	 0.8131401837	-0.5297402539	 1.2256968159	 0.145258
C	 1.8077699668	 0.3683041057	 1.949886985	-0.45984
C	-0.144818889	-1.1903506092	 2.2255349152	 0.407497
O	-0.3721436733	-2.484210348	 1.9649771252	-0.379646
O	-0.6709946107	-0.5934868718	 3.1289674017	-0.357803
H	 0.9487695345	 2.0862124203	-0.1234182978	 0.118152
H	-0.4888730286	 1.8624488245	-1.1256753158	 0.122666
H	-0.6563993874	 2.0405638885	 0.6251278463	 0.140182
H	-0.9415102496	-0.3375536066	-0.0775585455	 0.100186
H	 0.6344938312	-1.2734263922	-1.7284612148	 0.113164
H	 1.8743371931	-0.0839907819	-1.2600097018	 0.103007
H	 2.4519184319	 0.9070822902	 1.2492237913	 0.112685
H	 1.2758285308	 1.0893171283	 2.5738929618	 0.156616
H	 2.4457922732	-0.2307681978	 2.6092581551	 0.124571
72.7635	111.9194	164.6634	215.4957	229.9381	265.3463	276.8772	344.3747	377.3709	426.3243	471.3553	574.1511	678.4939	718.516	754.2555	816.1805	886.9884	893.7038	908.0166	928.9765	955.2431	1018.8952	1024.8009	1114.7447	1124.8827	1156.025	1173.7283	1192.4265	1199.936	1252.6326	1287.8075	1331.7613	1365.095	1383.6924	1404.0255	1415.1218	1439.3932	1483.1663	1489.478	1501.9921	1504.4021	1523.3401	1858.8924	3020.0874	3036.0792	3040.0458	3060.5928	3083.394	3100.7853	3104.1466	3114.8102	3138.5043	3432.9825	3514.6083
CC1C[NH2+]C1(C)C([O-])=O	C[C@H]1CN[C@]1(C)C(=O)O	
InChI=1S/C6H11NO2/c1-4-3-7-6(4,2)5(8)9/h4,7H,3H2,1-2H3,(H,8,9)	InChI=1S/C6H11NO2/c1-4-3-7-6(4,2)5(8)9/h4,7H,3H2,1-2H3,(H,8,9)/t4-,6-/m0/s1
