21
gdb 105736	2.18896	1.42595	1.12435	2.4615	84.43	-0.2328	-0.0247	0.208	1212.5433	0.181873	-387.116574	-387.107207	-387.106263	-387.151362	34.645	
C	 0.1619083302	 1.6732918587	 0.129892151	-0.404211
C	 0.0311992293	 0.1448617172	 0.1102960866	-0.229602
C	-1.4085723201	-0.4325199264	 0.0541125168	 0.171863
C	-1.4107743974	-1.9844412178	 0.0100992925	-0.264674
C	-2.5833582244	-2.4403180361	 0.914177054	-0.26548
C	-2.8793405281	-1.2138419866	 1.741543494	-0.058987
C	-2.2456305846	-0.1320932158	 1.2909936452	-0.127126
C	-2.1544799132	 0.155172359	-1.1459085038	 0.141406
O	-2.4732290799	-0.4545890947	-2.1353147592	-0.2607
H	 1.2124008321	 1.9577142629	 0.2432217546	 0.120862
H	-0.2002655044	 2.133656733	-0.7942694823	 0.124029
H	-0.3886489103	 2.1202933952	 0.963993074	 0.120377
H	 0.590000872	-0.2544946214	-0.7454873714	 0.109649
H	 0.5046006983	-0.2680172766	 1.0090750598	 0.104988
H	-1.5017487135	-2.3426208314	-1.016432521	 0.125251
H	-0.4641362885	-2.3535327833	 0.4157202282	 0.095666
H	-3.4658409722	-2.7312226231	 0.328707505	 0.119194
H	-2.3237426387	-3.3098091746	 1.5283545804	 0.106106
H	-3.5533946527	-1.2272396109	 2.5916586025	 0.098054
H	-2.3354427587	 0.8650232904	 1.7073365737	 0.096681
H	-2.4199173451	 1.2309986822	-1.0398747006	 0.076655
51.1617	73.6226	101.3605	197.1126	238.6364	271.2812	302.8982	320.8671	386.8237	467.7196	565.3356	602.2455	732.2002	768.2975	782.0208	798.6385	838.5598	910.8048	924.8032	968.098	975.1647	990.6524	1013.6495	1043.6812	1057.9808	1113.7844	1136.917	1171.6213	1185.3273	1219.7119	1255.4035	1309.767	1317.4355	1322.6278	1362.1581	1383.9559	1415.2871	1432.9322	1476.2528	1483.1129	1495.1385	1504.2608	1505.2716	1678.4639	1818.5448	2874.5799	3020.888	3021.2407	3040.1575	3051.907	3058.8154	3066.7875	3105.7246	3109.8329	3125.7336	3179.8456	3205.8421
CCC1(CCC=C1)C=O	CC[C@]1(CCC=C1)C=O	
InChI=1S/C8H12O/c1-2-8(7-9)5-3-4-6-8/h3,5,7H,2,4,6H2,1H3	InChI=1S/C8H12O/c1-2-8(7-9)5-3-4-6-8/h3,5,7H,2,4,6H2,1H3/t8-/m0/s1
