25
gdb 123189	9.80325	0.37928	0.37098	0.8702	97.15	-0.2571	0.0593	0.3164	2947.757	0.226434	-352.340037	-352.328347	-352.327402	-352.378132	41.46	
C	-0.0472617748	 1.6120359425	 0.0594940617	-0.379373
C	-0.0083287777	 0.0820016297	 0.0190187652	-0.163662
C	 0.6987135643	-0.4718350567	-1.2226949548	-0.158701
C	 0.741551509	-2.0028114414	-1.270027748	-0.184462
C	 1.4486666547	-2.55606891	-2.5119126136	-0.179369
C	 1.48814991	-4.0863180292	-2.5533152244	-0.17403
C	 2.2024820918	-4.6280048591	-3.8082544436	-0.356106
C	 2.2465491647	-6.0843129176	-3.8592594182	 0.293621
C	 2.2691985656	-7.286159983	-3.8767943108	-0.438739
H	 0.9639907705	 2.0341136072	 0.0577160347	 0.112774
H	-0.574463058	 2.0179501265	-0.8111827988	 0.112774
H	-0.557761198	 1.9762490263	 0.9565976263	 0.110535
H	 0.4939008479	-0.29593781	 0.9195175426	 0.093788
H	-1.0326695145	-0.3119794753	 0.057430869	 0.093789
H	 0.1967421543	-0.0937900501	-2.1245445751	 0.090535
H	 1.7240685042	-0.0777218785	-1.2620413334	 0.090534
H	 1.2437012918	-2.3804690777	-0.3684707392	 0.093451
H	-0.2836495382	-2.3965399288	-1.2309653663	 0.093451
H	 0.946630759	-2.1797785459	-3.4143962181	 0.093196
H	 2.4746223006	-2.1636975877	-2.5515428712	 0.093196
H	 1.9961525864	-4.4721924217	-1.6615072828	 0.107916
H	 0.4684055802	-4.48826433	-2.5241995767	 0.107915
H	 1.6995025571	-4.2468841345	-4.7070537351	 0.127716
H	 3.2257142113	-4.2308678841	-3.8452228986	 0.127719
H	 2.2950635379	-8.3470601609	-3.9027595906	 0.191533
42.4755	64.4575	74.5797	103.0584	144.8658	145.6074	160.3214	245.4995	247.7832	275.6409	350.9795	405.4582	461.656	538.104	613.7004	632.8604	732.3681	736.9321	765.7794	832.6886	898.4523	921.8776	944.6923	1001.2013	1014.9901	1038.43	1042.4291	1064.2032	1071.9192	1135.7592	1138.1924	1220.5514	1241.0955	1267.3723	1295.4157	1309.1383	1324.0421	1336.0771	1338.7895	1345.4235	1379.9266	1399.9273	1403.0745	1413.4658	1473.33	1483.6649	1484.4586	1489.5043	1498.8663	1499.2873	1508.6062	1515.8326	2238.1567	2999.8658	3001.0069	3008.5622	3013.5008	3017.3222	3021.0499	3027.8152	3028.5509	3035.0849	3039.4764	3044.501	3059.8824	3080.1641	3094.6177	3100.4796	3508.3049
CCCCCCCC#C	CCCCCCCC#C	
InChI=1S/C9H16/c1-3-5-7-9-8-6-4-2/h1H,4-9H2,2H3	InChI=1S/C9H16/c1-3-5-7-9-8-6-4-2/h1H,4-9H2,2H3
