21
gdb 77873	2.02223	1.60113	1.24687	2.9967	83.78	-0.2304	-0.0072	0.2232	1161.947	0.180626	-387.094649	-387.08487	-387.083926	-387.128841	36.216	
C	-0.2097908807	 1.2881580179	-0.5777533983	-0.422952
C	 0.166475663	-0.1819345559	-0.5455030661	-0.043626
C	 1.5346370831	-0.7906177716	-0.6081077303	-0.1511
C	 2.6078572227	 0.0248068195	 0.1337084795	-0.085098
C	 3.1902908601	 1.3265133973	-0.4055233737	-0.425189
C	 1.6844355706	-0.0466888823	 1.3805826015	 0.328555
O	 1.8182673205	 0.3130461574	 2.5179174618	-0.324357
C	 0.6728971341	-0.9236398297	 0.6863843472	 0.197825
C	-0.046308083	-2.0808823068	 1.32059756	-0.498043
H	-0.1356946795	 1.6935117842	-1.5930259992	 0.119766
H	-1.2460330856	 1.4139318218	-0.2458401336	 0.121304
H	 0.4133705451	 1.8979911396	 0.0789562769	 0.136241
H	-0.5586388186	-0.8005626843	-1.0746588604	 0.091978
H	 1.7601757666	-1.5905292542	-1.3039023828	 0.092657
H	 3.4387501495	-0.6502934972	 0.3865855613	 0.105492
H	 2.4211701905	 2.0209892808	-0.7484279442	 0.122794
H	 3.7742111003	 1.8253478904	 0.3748715706	 0.133006
H	 3.860304311	 1.1303918201	-1.2492680424	 0.117681
H	-0.8049585793	-1.7273738807	 2.0273661205	 0.136422
H	-0.5524330841	-2.6920824907	 0.5666570964	 0.119371
H	 0.6436821737	-2.7257781755	 1.8747736255	 0.127274
100.267	147.2983	150.3763	166.5709	194.8864	202.6756	231.3208	260.0068	341.5173	380.1278	493.0826	560.5176	631.9318	639.871	702.383	761.8657	819.6191	865.1474	904.6234	951.924	960.5499	1011.5648	1045.1457	1076.1389	1079.9446	1093.7411	1120.8377	1152.7027	1162.5376	1224.0399	1257.3638	1303.9443	1342.934	1359.4527	1406.422	1413.647	1419.9414	1457.6838	1483.3062	1488.0108	1495.2104	1496.5095	1501.9263	1509.4519	1869.8501	3005.8474	3030.3299	3034.4807	3040.7619	3090.9907	3093.6141	3100.5322	3101.2898	3104.6785	3127.8414	3136.1212	3180.3149
CC1C2C(C)C(=O)C12C	C[C@H]1[C@H]2[C@@H](C)C(=O)[C@@]12C	
InChI=1S/C8H12O/c1-4-6-5(2)8(6,3)7(4)9/h4-6H,1-3H3	InChI=1S/C8H12O/c1-4-6-5(2)8(6,3)7(4)9/h4-6H,1-3H3/t4-,5+,6-,8+/m1/s1
