15
gdb 44032	3.22234	1.74859	1.55039	3.7555	70.19	-0.2329	-0.0477	0.1852	874.6848	0.112722	-416.630082	-416.6235	-416.622556	-416.661025	26.493	
O	 0.015444228	 0.0513124167	-0.3803027461	-0.261621
C	-0.0041471451	 1.2026249136	-0.0882387125	 0.347485
C	-1.1271191486	 2.207161911	 0.366757927	-0.436388
C	-0.0030478908	 3.1391798811	 0.8682917693	 0.190215
N	 0.7155930795	 2.859865188	 2.1561719474	-0.365731
C	 1.8274483883	 3.0958740452	 1.1862079511	-0.065911
C	 1.0489300283	 4.1565736436	 0.2925270846	-0.084659
N	 1.3247092505	 3.3978665281	-0.9701206746	-0.364828
C	 1.06666309	 2.3354574613	 0.0656677579	 0.123197
H	-1.7056597684	 2.5858003412	-0.4814280622	 0.143252
H	-1.8164337432	 1.8333297091	 1.1260844198	 0.15497
H	 0.6200626434	 3.6436838824	 2.8052111806	 0.216878
H	 2.8862945068	 3.0839451824	 1.4549585185	 0.101052
H	 1.0804367945	 5.2497225802	 0.3444811379	 0.088254
H	 0.5256034367	 3.479564356	-1.6065581486	 0.213835
87.8949	264.6513	317.1179	388.9165	433.8089	476.7482	573.1487	586.9313	687.9607	713.5119	771.3516	813.8865	868.1781	879.9744	912.9651	930.9547	967.0495	996.0939	1032.3725	1059.4704	1082.233	1095.1192	1152.117	1163.9368	1186.4248	1188.9594	1229.2769	1270.7581	1272.3469	1289.9146	1313.6605	1412.5879	1894.3425	3060.0753	3066.9341	3094.6638	3133.6079	3390.6851	3418.7534
O=C1CC23NC4C2NC134	O=C1C[C@]23N[C@@H]4[C@H]2N[C@]134	
InChI=1S/C6H6N2O/c9-2-1-5-3-4(7-5)6(2,5)8-3/h3-4,7-8H,1H2	InChI=1S/C6H6N2O/c9-2-1-5-3-4(7-5)6(2,5)8-3/h3-4,7-8H,1H2/t3-,4-,5+,6+/m1/s1
