15
gdb 123754	5.05692	1.05302	0.9414	3.6055	66.5	-0.2474	-0.0685	0.1789	1204.8189	0.113785	-450.041757	-450.034452	-450.033507	-450.074952	26.285	
C	-0.1677371849	 1.3238247512	-0.0356675051	-0.157352
C	 1.3559867998	 1.4731585456	-0.2682662065	-0.244711
C	 1.5015324184	 0.1966849686	 0.596581175	-0.071816
N	 0.0621876508	-0.0865287363	 0.3674489573	-0.311007
C	 2.4201130312	-0.886996264	 0.1422913452	 0.446779
N	 3.1018705757	-0.8997776725	-0.9660771105	-0.151865
O	 3.7646522859	-2.0789427549	-0.9527354997	-0.13907
N	 3.441191129	-2.7618408928	 0.2193621458	 0.042235
N	 2.6422253533	-2.0464908019	 0.8713625727	-0.208521
H	-0.5295472017	 1.971663387	 0.7744081217	 0.098363
H	-0.826644904	 1.4397587969	-0.9009635472	 0.114499
H	 1.647371262	 1.3025010441	-1.3046952161	 0.143481
H	 1.8404632862	 2.374120198	 0.1064719885	 0.115866
H	 1.7445479931	 0.4309060554	 1.6426630661	 0.095369
H	-0.4486706148	-0.4074647742	 1.182660563	 0.227751
34.3904	108.7776	148.855	228.5281	378.9044	433.499	592.4336	674.3651	684.9876	718.1778	779.5017	809.303	909.4103	947.8492	963.0657	976.4633	1018.8296	1045.3238	1062.8814	1091.0126	1121.0684	1140.8788	1209.7926	1236.2886	1260.0666	1274.355	1343.2525	1374.8747	1399.913	1486.4654	1494.4006	1527.2869	1593.4569	3001.5248	3008.5934	3077.9904	3099.9406	3158.671	3530.6232
C1CC(N1)C1=NON=N1	C1C[C@@H](N1)c1nonn1	
InChI=1S/C4H6N4O/c1-2-5-3(1)4-6-8-9-7-4/h3,5H,1-2H2	InChI=1S/C4H6N4O/c1-2-5-3(1)4-6-8-9-7-4/h3,5H,1-2H2/t3-/m1/s1
