13
gdb 31212	2.52462	1.52985	0.95842	6.9245	68.59	-0.2399	-0.0194	0.2205	1134.2705	0.089686	-452.775168	-452.76726	-452.766316	-452.8086	27.361	
C	 0.0294991232	 1.4604614108	-0.0727773971	-0.2565
O	 0.0161330629	 0.0259278575	-0.0247873218	-0.25351
C	 0.5815155629	-0.6300140787	-1.0161756057	 0.3988
C	 0.7208766064	-1.9744964898	-1.2455836824	 0.021928
N	 1.4063396236	-2.1383239064	-2.4544073558	-0.284306
C	 1.6326593968	-0.9469145774	-2.8693983266	 0.060353
O	 1.155350713	 0.0430279503	-2.0382642344	-0.189114
C	 0.2710758465	-3.0426373895	-0.4377238878	 0.224381
N	-0.105723014	-3.9039505564	 0.2385241392	-0.349088
H	 1.0559764019	 1.8371722263	-0.0797339225	 0.150059
H	-0.5012394618	 1.8222398728	-0.9577008443	 0.150015
H	-0.4836682795	 1.7828186551	 0.8319047413	 0.160231
H	 2.1358402681	-0.6161041447	-3.7627409922	 0.16675
51.6707	127.0611	161.1694	177.0454	246.3634	305.5177	437.7552	534.8831	552.3782	634.0702	654.137	730.2685	741.6132	793.7357	937.8029	1017.6536	1069.6301	1139.076	1174.5199	1197.0488	1249.4715	1312.4466	1413.1897	1488.5225	1489.1259	1497.0556	1579.6535	1669.9882	2350.2498	3047.556	3123.6116	3171.4826	3292.0467
COC1=C(N=CO1)C#N	COc1c(nco1)C#N	
InChI=1S/C5H4N2O2/c1-8-5-4(2-6)7-3-9-5/h3H,1H3	InChI=1S/C5H4N2O2/c1-8-5-4(2-6)7-3-9-5/h3H,1H3
