20
gdb 109820	3.55194	0.87626	0.81467	1.3732	81.56	-0.223	0.0474	0.2705	1462.3513	0.168091	-403.066718	-403.056312	-403.055368	-403.102622	37.385	
C	-0.6441891319	 0.8595393134	-1.6631610531	-0.315083
N	-0.1238480656	-0.2181949181	-0.8319975407	-0.088541
C	 1.2902336657	-0.2570303311	-0.4611761713	-0.062499
C	 2.2969545168	 0.7787530756	-0.9136420303	-0.07728
O	 2.6091357321	 0.6528683604	-2.2956404092	-0.418671
C	 0.2284503082	-0.0014106617	 0.565732503	-0.009259
C	 0.0768248769	 1.337824855	 1.285022693	-0.391752
C	-1.2880995012	 1.5589782119	 1.7543618731	 0.3042
C	-2.415240359	 1.7200834934	 2.1385845577	-0.437458
H	-0.2641782074	 1.8660019699	-1.4393965489	 0.100418
H	-0.3968491478	 0.6398891778	-2.7049210104	 0.134196
H	-1.7325597469	 0.8827652248	-1.5569315615	 0.130049
H	 1.705720092	-1.2681674917	-0.4943137708	 0.080533
H	 1.9280814681	 1.799399902	-0.7955402637	 0.106965
H	 3.2018007581	 0.6894720393	-0.2907048828	 0.093548
H	 2.8964617438	-0.2532111468	-2.4507684499	 0.283091
H	-0.0541603342	-0.8344973	 1.2088015304	 0.09964
H	 0.7609844371	 1.3450934963	 2.1438944539	 0.137058
H	 0.3810274248	 2.1754175582	 0.6512558734	 0.133412
H	-3.4101628596	 1.8709795212	 2.4771930783	 0.197433
49.9471	83.8406	98.6164	125.645	179.5951	234.0737	271.501	285.25	329.5136	342.2668	414.9439	506.8024	547.0397	579.5474	621.8255	641.2277	748.4814	785.2556	840.2038	963.0638	969.6804	1011.5364	1051.7702	1068.5777	1114.6468	1133.7266	1151.0317	1163.4261	1178.3613	1230.161	1236.4726	1312.4554	1350.7324	1361.1958	1397.1456	1417.0344	1445.9904	1458.78	1466.6949	1486.7325	1503.9111	1514.1604	2240.042	2974.0687	3002.0508	3025.943	3055.8617	3077.7194	3080.9213	3105.4428	3113.2318	3120.2701	3507.0998	3807.9951
CN1C(CO)C1CC#C	CN1[C@@H](CO)[C@H]1CC#C	
InChI=1S/C7H11NO/c1-3-4-6-7(5-9)8(6)2/h1,6-7,9H,4-5H2,2H3	InChI=1S/C7H11NO/c1-3-4-6-7(5-9)8(6)2/h1,6-7,9H,4-5H2,2H3/t6-,7+,8?/m1/s1
