19
gdb 17319	2.70648	2.44129	1.67782	1.5026	74.82	-0.2096	0.0705	0.2801	869.44	0.164999	-327.836257	-327.828503	-327.827559	-327.867734	30.506	
C	-0.0388098419	 1.6329448	-0.0050140297	-0.441263
C	 0.0681126045	 0.1165789316	 0.1216421344	-0.02063
N	 1.1607032758	-0.7861974859	-0.3504482512	-0.208417
C	 2.5389295903	-0.3502515916	 0.0939107905	 0.004557
C	 2.7134374491	 0.897319142	 0.9150037644	-0.307158
C	 2.1706294127	-0.3495712315	 1.5591311856	-0.127702
C	 0.748386263	-0.7552619501	 1.11080876	 0.305527
C	 0.0927951578	-1.937561407	 1.7656434803	-0.47645
H	 0.6523241481	 2.0283592169	-0.7539572049	 0.139709
H	-1.0503085627	 1.890500927	-0.3317312727	 0.116531
H	 0.1381766674	 2.153157304	 0.9394820063	 0.133777
H	-0.8549690505	-0.3602383332	-0.2078913562	 0.097014
H	 3.3660042249	-0.8225466758	-0.4205963757	 0.100563
H	 3.7572580295	 1.0710263512	 1.1662931585	 0.113289
H	 2.1519236948	 1.8081440459	 0.7852139641	 0.114727
H	 2.6619486142	-0.8412282561	 2.3886784467	 0.090278
H	-0.285494415	-1.6706832015	 2.7602447432	 0.117627
H	-0.7449894232	-2.3033374258	 1.1657866255	 0.125021
H	 0.8070188913	-2.7597291301	 1.8884446708	 0.123001
115.1793	190.4715	224.1264	253.4445	293.6236	311.1474	402.547	502.9797	564.1016	632.4233	687.7115	708.8296	745.2222	841.7397	861.629	911.9681	945.5724	952.3339	999.3125	1042.7127	1054.5933	1062.7054	1075.9475	1086.0438	1108.5388	1139.1632	1145.8409	1188.5036	1229.6758	1301.2348	1339.5922	1364.34	1410.765	1411.622	1463.0025	1480.1027	1485.9713	1494.067	1504.9744	1515.9086	3022.544	3045.0059	3081.9554	3092.6133	3112.3506	3116.3061	3120.2351	3135.8035	3185.7046	3197.4733	3266.3933
CC1N2C3CC3C12C	C[C@H]1N2[C@H]3C[C@H]3[C@@]12C	
InChI=1S/C7H11N/c1-4-7(2)5-3-6(5)8(4)7/h4-6H,3H2,1-2H3	InChI=1S/C7H11N/c1-4-7(2)5-3-6(5)8(4)7/h4-6H,3H2,1-2H3/t4-,5-,6+,7-,8?/m1/s1
