16
gdb 14073	3.73168	1.64485	1.36155	2.7296	66.72	-0.2483	0.0224	0.2707	935.8185	0.130846	-379.918638	-379.91075	-379.909806	-379.951014	28.502	
C	-0.065794682	 1.5362369196	-0.0664975127	-0.394624
C	-0.0139692132	 0.0334065573	 0.0523708693	-0.065208
N	 1.2957094143	-0.6060025518	-0.1699577293	-0.380547
C	 0.6985444632	-0.6518700137	 1.1546881213	 0.187472
C	 1.3225375346	-0.1587727277	 2.4746487168	-0.233773
N	 0.7780672013	-1.3901489438	 3.0707251882	-0.350823
C	 0.247836091	-1.9000114461	 1.9064886444	 0.384709
O	-0.3149245549	-2.9247509415	 1.6224028419	-0.376065
H	 0.8535079053	 1.9861498337	 0.3176270082	 0.127089
H	-0.1754030742	 1.8359708798	-1.1138983021	 0.128128
H	-0.9159204285	 1.942231861	 0.4919209521	 0.121316
H	-0.8875150271	-0.4984978518	-0.3228266512	 0.106935
H	 1.1854935074	-1.5137398141	-0.6192487682	 0.247804
H	 2.415215848	-0.1079998712	 2.4639789516	 0.125143
H	 0.904176934	 0.7636226616	 2.8894498276	 0.116736
H	 0.8347383806	-1.7677072715	 4.0034403121	 0.255707
90.5976	141.0103	158.1926	191.4401	250.4472	305.7706	430.1824	466.9036	541.5964	631.5264	726.1878	787.0081	816.1367	873.6722	924.1429	982.9128	1008.4226	1058.3396	1073.6134	1095.5279	1128.098	1150.4169	1166.4505	1228.1704	1243.922	1291.457	1343.6553	1386.9573	1413.9986	1477.4619	1490.3368	1511.2522	1522.5245	1889.5107	3036.6896	3044.9175	3096.4188	3101.2279	3111.8344	3129.2263	3481.9011	3634.5949
CC1NC11CNC1=O	C[C@H]1N[C@]21CNC2=O	
InChI=1S/C5H8N2O/c1-3-5(7-3)2-6-4(5)8/h3,7H,2H2,1H3,(H,6,8)	InChI=1S/C5H8N2O/c1-3-5(7-3)2-6-4(5)8/h3,7H,2H2,1H3,(H,6,8)/t3-,5+/m1/s1
