18
gdb 74803	2.74382	1.59591	1.14597	3.2854	78.72	-0.2297	-0.0512	0.1784	1102.1925	0.147043	-401.962907	-401.954207	-401.953263	-401.99606	32.454	
C	 0.041850455	 1.5125639302	 0.0126028253	-0.490071
C	-0.0325803042	 0.0237789682	-0.0602804173	 0.191927
C	-0.0507256768	-0.7825160789	-1.1341659497	-0.146574
C	-0.0400894835	-2.2265217644	-0.7420035218	-0.147535
N	 1.2050778044	-2.578195155	 0.0069161731	-0.359193
C	-0.0668666101	-2.2759761904	 0.7342719566	 0.195776
C	-0.7426487745	-3.3066406712	 1.5926352466	-0.490025
C	-0.0750212903	-0.8153687839	 1.1784829683	 0.335292
O	-0.1415827814	-0.4185900535	 2.3188322161	-0.332257
H	 0.9724040007	 1.8287229026	 0.4977504498	 0.145504
H	-0.0042282321	 1.9691590851	-0.9791590056	 0.121488
H	-0.7746752233	 1.9097850014	 0.6247823256	 0.142745
H	-0.0139729129	-0.4529891734	-2.166752982	 0.113131
H	-0.5143173932	-2.9824666027	-1.3579494838	 0.098781
H	 1.312636398	-3.5946910696	 0.003868554	 0.227811
H	-0.6990034948	-4.2976923357	 1.1296441388	 0.111712
H	-0.2620166467	-3.3570353934	 2.5745113687	 0.146876
H	-1.7947555344	-3.0519691655	 1.7551901173	 0.134613
104.0447	121.4721	164.1463	199.8255	251.0447	273.6674	290.3309	381.6122	468.4487	508.3824	555.7573	662.7392	690.7784	782.5075	802.2026	862.9147	895.0277	912.611	936.8916	986.0412	1040.197	1046.4716	1064.1561	1071.7782	1120.8313	1139.8597	1230.3505	1294.6859	1327.7944	1360.0636	1410.1769	1413.6848	1436.6651	1473.1333	1479.0883	1483.8078	1497.2658	1684.8936	1813.6323	3035.0171	3035.9054	3089.9331	3104.8875	3109.1296	3122.2449	3175.4745	3195.1172	3437.8163
CC1=CC2NC2(C)C1=O	CC1=C[C@H]2N[C@@]2(C)C1=O	
InChI=1S/C7H9NO/c1-4-3-5-7(2,8-5)6(4)9/h3,5,8H,1-2H3	InChI=1S/C7H9NO/c1-4-3-5-7(2,8-5)6(4)9/h3,5,8H,1-2H3/t5-,7-/m1/s1
