20
gdb 99638	2.27819	1.1265	0.88594	5.1817	79.71	-0.2712	0.0436	0.3148	1391.7077	0.169506	-403.149643	-403.139642	-403.138698	-403.185087	36.197	
C	-0.1117536194	 1.5423086946	 0.1800136065	-0.397672
C	-0.1667463965	 0.0137241478	 0.1697529668	-0.179515
C	-1.5609699953	-0.5553596311	-0.1842745217	-0.150195
C	-1.9674937608	-0.1263409621	-1.5298095888	 0.285149
N	-2.2578858734	 0.2094209084	-2.5971452273	-0.3382
C	-1.6065362045	-2.0761151532	-0.0920120948	-0.018488
C	-1.7043787132	-2.7424763694	 1.2664954375	-0.347695
C	-2.8725587448	-2.7735481934	 0.3109452629	 0.095529
O	-3.9755626674	-1.953509073	 0.5625393303	-0.41452
H	 0.8900542524	 1.8915557877	 0.4461395385	 0.118581
H	-0.3629075074	 1.9553357872	-0.8015371751	 0.145116
H	-0.8157777485	 1.9588566876	 0.9087982621	 0.11728
H	 0.5680016921	-0.3851441318	-0.5392467646	 0.112297
H	 0.1011417573	-0.3821552608	 1.1553242671	 0.106614
H	-2.30188038	-0.1500733714	 0.5141670751	 0.132942
H	-1.0003534311	-2.5818749818	-0.837556494	 0.106114
H	-1.1372542437	-3.6486975944	 1.4478696248	 0.118728
H	-1.8089182305	-2.0904036683	 2.128245571	 0.11767
H	-3.1044776613	-3.7143910814	-0.186561749	 0.097008
H	-4.482574254	-2.3440015513	 1.2817133527	 0.293259
49.8685	90.5176	122.7067	152.2874	175.2138	244.3976	276.3755	303.715	314.7052	386.0074	460.1781	505.2216	552.3338	617.7442	761.8712	791.1632	840.9092	853.9221	903.6083	948.5217	1001.5536	1022.4754	1042.5296	1060.5673	1105.7869	1125.0083	1135.9787	1170.4457	1175.2363	1235.4925	1257.3127	1282.7593	1297.6996	1344.3217	1364.746	1399.872	1415.0633	1427.9541	1486.4976	1488.5635	1498.0155	1507.2713	2354.1003	3035.8938	3037.8182	3056.3028	3077.1803	3106.3328	3108.3421	3116.7204	3128.8655	3155.971	3218.5317	3812.1597
CCC(C#N)C1CC1O	CC[C@@H](C#N)[C@H]1C[C@H]1O	
InChI=1S/C7H11NO/c1-2-5(4-8)6-3-7(6)9/h5-7,9H,2-3H2,1H3	InChI=1S/C7H11NO/c1-2-5(4-8)6-3-7(6)9/h5-7,9H,2-3H2,1H3/t5-,6+,7+/m0/s1
