19
gdb 107350	3.37059	1.16718	0.97914	3.147	75.18	-0.2461	-0.0192	0.2269	1246.9777	0.158099	-423.052438	-423.04383	-423.042886	-423.086091	32.486	
C	 0.1016404728	 1.4447427872	-0.3417332525	-0.383144
C	-0.0199784641	 0.0554418176	 0.2982145246	-0.277759
C	-1.4200685483	-0.5006784775	 0.2323061039	 0.418515
C	-2.5659475524	 0.1421600935	 0.9909103073	-0.39615
C	-3.6554287808	-0.9424458461	 1.0682603053	 0.395411
O	-4.7817499021	-0.7687092254	 1.4472049811	-0.298115
C	-3.0684422419	-2.2892943647	 0.6071737726	-0.355314
C	-1.7349291414	-1.9265079689	 0.003911538	-0.02799
O	-1.8528104521	-0.9712860182	-1.0604071818	-0.304424
H	 1.1373532722	 1.7949446582	-0.3156164647	 0.117229
H	-0.2221037967	 1.4150012624	-1.3862801727	 0.136808
H	-0.5126875124	 2.1845015044	 0.1816216072	 0.120374
H	 0.6520166414	-0.6446036156	-0.2103232529	 0.108181
H	 0.2961134818	 0.0962281223	 1.3484567246	 0.100812
H	-2.2730175898	 0.4264047706	 2.0096944063	 0.12886
H	-2.9637566143	 1.0359059924	 0.5026986214	 0.14358
H	-2.9597695257	-2.9511589894	 1.4756701584	 0.131087
H	-3.7481982936	-2.777869838	-0.0965638911	 0.145043
H	-0.9556793728	-2.6741981246	-0.1235911651	 0.096995
71.8927	78.2251	151.4832	218.2615	276.1627	329.7247	391.4951	429.0618	478.0638	481.6818	595.3909	660.578	713.677	778.8402	785.3755	815.9865	863.5985	907.6651	961.3708	992.2808	1013.6067	1054.412	1078.4735	1103.6856	1145.0449	1150.0278	1210.6556	1221.543	1270.1629	1283.1351	1295.6535	1343.2697	1369.3262	1409.6259	1432.7618	1438.0747	1461.4788	1475.2542	1500.5557	1509.0757	1855.0305	3026.9354	3040.1683	3041.1632	3043.4468	3070.1555	3100.2845	3101.872	3110.8635	3118.7905	3142.2247
CCC12CC(=O)CC1O2	CC[C@]12CC(=O)C[C@H]1O2	
InChI=1S/C7H10O2/c1-2-7-4-5(8)3-6(7)9-7/h6H,2-4H2,1H3	InChI=1S/C7H10O2/c1-2-7-4-5(8)3-6(7)9-7/h6H,2-4H2,1H3/t6-,7+/m1/s1
