17
gdb 31990	6.27738	0.83644	0.74821	3.3798	72.8	-0.1929	0.0454	0.2383	1481.9035	0.136092	-455.166588	-455.157291	-455.156347	-455.201531	32.367	
C	-0.0534330672	 1.3347170047	 0.045952349	-0.233966
O	-0.0278378398	-0.0894001379	-0.0632260793	-0.2738
C	 0.638108428	-0.5531091226	-1.1285952855	 0.485048
N	 1.254320311	 0.1250648767	-2.0569767017	-0.369706
C	 1.7698035924	-0.8434457606	-2.9100396378	-0.169122
C	 1.4510506245	-2.0975480377	-2.4804046754	 0.306726
C	 1.7655645513	-3.4551628285	-3.0129374245	-0.19369
O	 2.141804541	-3.3137961136	-4.3716407033	-0.403948
N	 0.7120584354	-1.9005937169	-1.3157698055	-0.416162
H	 0.9612067359	 1.7347251254	 0.1303120766	 0.139986
H	-0.5325853825	 1.7813833986	-0.8300775854	 0.140812
H	-0.6263090668	 1.5527701054	 0.947930847	 0.127292
H	 2.3319021986	-0.5772372123	-3.7899737204	 0.11698
H	 2.57671483	-3.9238479308	-2.4286048508	 0.100071
H	 0.884020732	-4.1134499037	-2.905401929	 0.089436
H	 2.5815926289	-4.1242681541	-4.6432459712	 0.291299
H	 0.2893330172	-2.598298142	-0.7275470329	 0.262742
40.8483	87.0621	145.4478	154.7895	193.5663	234.5539	266.3031	328.6419	367.5949	442.6775	564.4298	634.5902	677.1051	727.5947	737.7575	838.9852	980.0297	1032.3959	1045.5535	1077.5726	1087.0107	1170.8115	1184.4081	1203.6387	1221.6001	1234.801	1251.4304	1280.9537	1382.3629	1460.7575	1472.621	1476.9249	1494.2801	1508.2121	1520.1771	1606.7743	1643.0582	2929.4902	2945.2215	3041.7608	3112.6891	3150.1254	3273.1833	3670.152	3837.3941
COC1=NC=C(CO)N1	COc1ncc(CO)[nH]1	
InChI=1S/C5H8N2O2/c1-9-5-6-2-4(3-8)7-5/h2,8H,3H2,1H3,(H,6,7)	InChI=1S/C5H8N2O2/c1-9-5-6-2-4(3-8)7-5/h2,8H,3H2,1H3,(H,6,7)
