18
gdb 105974	4.37899	1.14923	1.13753	0.7493	74.83	-0.2081	0.063	0.2711	1149.8892	0.14625	-401.823816	-401.815768	-401.814824	-401.856255	31.464	
C	-0.0020422818	 1.5361089102	-0.0126901637	-0.384689
C	-0.0308603777	 0.0042517849	 0.0169929415	-0.330639
C	-1.4154418516	-0.5522356405	-0.0837272323	 0.393458
C	-1.9628793822	-2.0040738226	-0.0001471933	-0.245561
C	-3.1397974492	-1.4453770568	 0.7824704672	-0.107507
N	-2.5894389462	-0.0254885704	 0.7092443028	-0.212029
C	-2.6450983379	-0.101310165	-0.7993449077	-0.216041
C	-3.2252001375	-1.5501397971	-0.7211424056	 0.374624
O	-3.9945685531	-2.3063649763	-1.5581408281	-0.4478
H	 1.0170450828	 1.906979533	 0.127015675	 0.112832
H	-0.3702549183	 1.9203138537	-0.9695269563	 0.116327
H	-0.6323218402	 1.9466000135	 0.7808334524	 0.143536
H	 0.5739227474	-0.4040664129	-0.8036856572	 0.105124
H	 0.4252739605	-0.3596410772	 0.9475484863	 0.10751
H	-1.5035423754	-2.9822290269	 0.0101596339	 0.100715
H	-3.7260278287	-1.8462120767	 1.6001483251	 0.101197
H	-2.8559309335	 0.7692185131	-1.4108842733	 0.095166
H	-4.9107204075	-2.013289076	-1.4837657766	 0.293777
83.2737	159.6708	183.4428	250.6071	314.9167	342.0686	390.9036	411.6963	577.3133	634.9123	669.6576	747.4088	763.2566	799.388	838.043	852.7821	899.7939	902.0433	912.8452	951.7568	999.4624	1006.4605	1024.926	1052.9241	1084.6623	1118.8839	1125.2702	1177.3414	1212.0682	1267.3999	1290.1603	1305.1489	1360.5458	1405.6724	1426.0944	1472.8266	1483.5904	1497.9659	1512.0358	3013.2881	3041.4226	3044.7246	3109.5867	3123.9577	3170.0788	3187.3692	3222.1806	3774.4282
CCC12C3C4N1C2C34O	CC[C@@]12[C@H]3[C@H]4N1[C@@H]2[C@@]34O	
InChI=1S/C7H9NO/c1-2-6-3-4-7(3,9)5(6)8(4)6/h3-5,9H,2H2,1H3	InChI=1S/C7H9NO/c1-2-6-3-4-7(3,9)5(6)8(4)6/h3-5,9H,2H2,1H3/t3-,4-,5+,6+,7-,8?/m1/s1
