16
gdb 126808	1.99987	1.82101	1.02253	2.2435	78.85	-0.2634	-0.041	0.2224	1140.3407	0.126194	-396.972762	-396.964543	-396.963598	-397.006601	29.456	
C	-0.0407564443	 1.551788269	 0.0599301025	-0.380109
C	-0.0570565348	 0.0298839821	-0.0797068176	-0.156256
N	-1.4116616019	-0.5132658147	-0.0732437372	-0.039647
N	-2.0875419217	-0.613394715	 1.0742338579	-0.240409
C	-3.2916294592	-1.0864454466	 0.7432400819	 0.006109
C	-3.4049666322	-1.293750766	-0.6381806793	-0.318869
C	-2.1691167988	-0.9103503149	-1.1419898597	 0.295574
C	-1.6797519134	-0.897426611	-2.4685118876	 0.220372
N	-1.266648758	-0.8813658317	-3.5509138754	-0.353772
H	 0.992441108	 1.9100421395	 0.0819050373	 0.129353
H	-0.5517687507	 2.0285141711	-0.7813057415	 0.136335
H	-0.5346257524	 1.8536175352	 0.9866690721	 0.147916
H	 0.4131141754	-0.2855847429	-1.0141279905	 0.148701
H	 0.476466585	-0.4425856271	 0.7484454702	 0.142765
H	-4.0272522188	-1.2648202307	 1.5128676736	 0.128717
H	-4.2416383822	-1.6698538463	-1.2027208267	 0.13322
35.9098	129.141	148.5748	175.5672	223.0744	361.5058	385.792	514.3771	552.132	594.8078	669.3227	695.687	706.2266	798.1994	814.6606	899.1996	943.0932	977.6215	1064.0273	1079.1481	1102.1905	1178.7531	1233.8671	1276.0987	1341.1773	1357.8208	1393.4391	1410.3165	1437.1248	1472.689	1485.5769	1489.4604	1506.0744	1550.4902	2342.8416	3048.7444	3075.3317	3116.3464	3126.067	3141.3232	3255.0269	3283.7417
CCN1N=CC=C1C#N	CCn1nccc1C#N	
InChI=1S/C6H7N3/c1-2-9-6(5-7)3-4-8-9/h3-4H,2H2,1H3	InChI=1S/C6H7N3/c1-2-9-6(5-7)3-4-8-9/h3-4H,2H2,1H3
