18
gdb 55830	3.09085	1.28996	1.11221	6.6906	71.38	-0.2352	0.0349	0.2702	1123.1165	0.149239	-439.067347	-439.059584	-439.05864	-439.100314	29.646	
O	 0.7362981308	 1.3634009552	 0.0472367889	-0.334946
C	-0.3857665112	 1.8048491223	 0.0391952685	 0.375729
O	-0.695125464	 2.9279042428	 0.6884822815	-0.385187
C	-1.462887868	 1.1406280671	-0.8386525855	-0.364093
C	-2.9218434077	 0.9198879215	-0.4377285654	-0.011201
C	-3.5645528532	 0.5873203404	 0.8941635516	-0.111119
C	-3.0839686408	 1.4889746658	 2.0354818006	-0.188735
N	-3.2850915954	 2.7124777052	 1.1772010768	-0.354713
H	-3.9316300024	 3.3681449102	 1.5999684734	 0.240879
H	-1.6852642671	 3.0580207591	 0.7511433723	 0.324437
C	-3.9245085927	 1.8667543004	 0.1369003204	-0.037703
H	-1.4727600835	 1.7294088183	-1.7676043518	 0.13416
H	-1.0370270044	 0.1699343755	-1.103257121	 0.137373
H	-3.4074537302	 0.3180772901	-1.2065079913	 0.106936
H	-4.1294902494	-0.3242189211	 1.0400392717	 0.103297
H	-3.7781480701	 1.4693901271	 2.8794585242	 0.118809
H	-2.0609008165	 1.3752977615	 2.4032377773	 0.1405
H	-4.8306664044	 2.1856905384	-0.3646784721	 0.105576
60.4565	87.6462	223.7817	248.6305	296.9785	395.1946	446.1425	543.1444	606.5485	702.0062	745.7154	791.3485	798.278	830.7656	849.9427	921.0767	946.3422	975.3654	991.7217	1012.2982	1014.9751	1044.0617	1054.5884	1074.1689	1141.2025	1164.7592	1188.5993	1242.0411	1266.0664	1297.5821	1302.8567	1343.8629	1348.9918	1378.4217	1454.5052	1471.342	1497.6568	1515.6013	1838.2766	3014.2203	3056.7944	3078.8504	3099.4913	3109.7722	3113.6619	3179.0223	3195.7089	3548.0314
[O-]C(=O)CC1C2C[NH2+]C12	O=C(O)C[C@H]1[C@H]2CN[C@@H]12	
InChI=1S/C6H9NO2/c8-5(9)1-3-4-2-7-6(3)4/h3-4,6-7H,1-2H2,(H,8,9)	InChI=1S/C6H9NO2/c8-5(9)1-3-4-2-7-6(3)4/h3-4,6-7H,1-2H2,(H,8,9)/t3-,4+,6-/m0/s1
