23
gdb 119004	2.57433	1.16745	1.0245	0.4779	81.88	-0.2543	0.0866	0.3408	1338.5073	0.205063	-425.447048	-425.437147	-425.436203	-425.482364	36.794	
C	 0.0004250839	 1.3587551252	-0.3368066391	-0.383292
C	 0.0334374405	-0.0940908794	 0.1105317351	-0.053617
O	-1.2960902093	-0.5977496121	 0.0524602911	-0.294945
C	-1.4453326701	-2.0096322428	 0.1116026987	 0.493749
C	-0.8739560398	-2.6073635452	 1.3932579804	-0.455038
C	-2.9584167383	-2.2664363023	-0.1156140591	-0.283721
C	-3.0383626298	-2.8702745105	-1.535272098	-0.211527
C	-1.6490832147	-2.5601522704	-2.1070388728	-0.089726
O	-0.780381488	-2.6289408862	-0.9793072436	-0.272323
H	 1.0016570988	 1.7973604963	-0.2825863926	 0.111468
H	-0.3584013316	 1.4375575844	-1.3671174748	 0.121222
H	-0.6681516098	 1.9432186207	 0.3022129831	 0.122839
H	 0.6870532651	-0.6880567559	-0.5400484408	 0.107093
H	 0.4265198588	-0.1627891327	 1.1358912448	 0.087446
H	-1.3025993382	-2.1061386727	 2.2653610226	 0.122224
H	-1.1109796998	-3.6728402217	 1.4425791206	 0.120274
H	 0.2132086578	-2.5041785258	 1.4245529174	 0.126536
H	-3.3622355974	-2.9424683795	 0.6409266367	 0.102642
H	-3.4874539363	-1.3155349972	-0.0386399836	 0.119699
H	-3.1883605161	-3.9528285051	-1.4880897404	 0.105913
H	-3.8462151302	-2.4461755056	-2.1363805421	 0.10236
H	-1.2953596289	-3.284176941	-2.8449788969	 0.102574
H	-1.6201915267	-1.5568475206	-2.5547250164	 0.098149
48.5713	69.9696	117.7413	182.764	219.8739	233.9365	263.0935	332.6227	335.7511	391.9542	446.1936	560.3208	626.0322	665.0348	788.4813	818.8001	824.9643	869.7098	902.2929	906.5407	934.7202	963.0429	1008.496	1044.799	1065.7197	1093.0699	1122.9815	1143.9979	1175.2634	1189.8209	1215.2072	1224.715	1268.0719	1276.2054	1297.9189	1321.6604	1342.8982	1389.7966	1398.2595	1406.3534	1421.8163	1482.5313	1483.2994	1484.2674	1494.8848	1499.9365	1503.2274	1518.5559	1529.0785	2989.605	3007.4946	3041.4527	3047.5449	3052.3053	3057.7942	3079.5608	3097.535	3107.2673	3114.9615	3118.2765	3128.1998	3130.9206	3133.9167
CCOC1(C)CCCO1	CCO[C@@]1(C)CCCO1	
InChI=1S/C7H14O2/c1-3-8-7(2)5-4-6-9-7/h3-6H2,1-2H3	InChI=1S/C7H14O2/c1-3-8-7(2)5-4-6-9-7/h3-6H2,1-2H3/t7-/m1/s1
