19
gdb 126602	5.57226	0.69776	0.67384	3.2312	77.91	-0.287	-0.0206	0.2664	1713.3927	0.160691	-415.385566	-415.376643	-415.375699	-415.420966	31.11	
C	-0.0637167449	 1.5614667687	 0.0167033104	-0.382578
C	 0.0206392719	 0.0330031104	-0.0039906942	-0.167598
C	 0.7032214497	-0.5036405959	-1.2665042518	-0.176984
C	 0.7784627566	-2.0327001239	-1.2706434363	-0.152457
N	 1.4179735717	-2.5520113576	-2.4725132697	 0.149383
N	 0.8422344809	-2.5395177946	-3.6685590941	-0.251305
C	 1.8023306507	-3.0609504543	-4.4232016914	 0.076929
N	 2.9110894765	-3.3738507302	-3.7177950899	-0.209812
N	 2.6513595632	-3.0419635995	-2.4759956454	-0.12754
H	 0.9332600572	 2.0132052886	-0.0234923738	 0.120531
H	-0.6327896038	 1.937757018	-0.8401869757	 0.120385
H	-0.5551906981	 1.9182217226	 0.9266398405	 0.117975
H	 0.5662126265	-0.3168529324	 0.882216012	 0.102956
H	-0.9889548795	-0.3917343619	 0.0718426501	 0.102542
H	 0.1583525961	-0.1752069518	-2.1588232073	 0.125439
H	 1.7193610175	-0.0989092317	-1.3462096985	 0.117017
H	 1.3729192275	-2.4055955335	-0.4339856757	 0.149362
H	-0.220745613	-2.4736126922	-1.215467469	 0.139869
H	 1.7000797834	-3.2200969389	-5.4843238804	 0.145886
35.8411	77.5226	88.9535	116.6538	227.0555	245.994	324.734	357.7158	437.5801	707.722	728.1359	741.7304	775.3797	798.2731	901.7068	914.1402	939.5589	1018.8133	1029.9224	1049.0189	1063.7831	1095.0269	1132.6964	1164.1287	1218.1238	1248.8951	1289.1856	1299.6968	1319.8373	1330.875	1362.1701	1384.6002	1399.4179	1405.7154	1416.4266	1476.4818	1487.5891	1494.6757	1499.1734	1500.1549	1512.768	3016.0775	3033.3797	3037.6896	3044.7364	3071.8989	3081.4455	3102.397	3108.4602	3134.0414	3287.1695
CCCCN1N=CN=N1	CCCCn1ncnn1	
InChI=1S/C5H10N4/c1-2-3-4-9-7-5-6-8-9/h5H,2-4H2,1H3	InChI=1S/C5H10N4/c1-2-3-4-9-7-5-6-8-9/h5H,2-4H2,1H3
