18
gdb 28882	2.27852	1.81884	1.0208	3.6657	84.26	-0.1967	-0.0006	0.1961	1139.8774	0.15004	-398.193354	-398.184799	-398.183855	-398.225905	33.449	
C	 0.0847855977	 1.547377031	 0.0138818024	-0.5432
C	 0.0411296087	 0.0413782228	 0.0044851684	 0.203348
C	 0.0911177687	-0.6815447809	-1.1971152397	 0.200585
N	 0.1795404906	-0.0223313994	-2.4298793198	-0.594474
C	 0.120802277	-2.0817296454	-1.1422443996	-0.07465
N	 0.0971479434	-2.7723530892	-0.007003653	-0.273116
C	 0.0192415059	-2.093049086	 1.1326294777	-0.074645
C	-0.0158832291	-0.6934615572	 1.1985183705	 0.200561
N	-0.0380447102	-0.0465902944	 2.4407228129	-0.594453
H	 0.652514578	 1.924775259	-0.8416948738	 0.139102
H	-0.9151111891	 2.0026441901	-0.0286656052	 0.121807
H	 0.5737706173	 1.9162001065	 0.9203078757	 0.139091
H	-0.3821592168	 0.8137393741	-2.5053111247	 0.246832
H	 0.0160355945	-0.630287152	-3.2206208228	 0.246329
H	 0.1670098407	-2.65507743	-2.0671625985	 0.081862
H	-0.0169002422	-2.6755687701	 2.0522477807	 0.081867
H	-0.2714178158	-0.6622397868	 3.2076136378	 0.246326
H	-0.6045244593	 0.7889830879	 2.474029401	 0.246827
128.4821	148.0466	232.6466	269.6424	282.3855	320.6874	333.6066	366.2371	485.1737	491.2303	554.2403	582.0311	590.4051	658.7469	691.7763	694.6305	764.2902	834.0393	873.7468	905.514	948.5629	1057.1829	1074.7558	1096.6845	1185.7908	1218.1377	1226.8459	1328.8153	1339.8281	1355.5177	1409.6505	1467.9476	1493.943	1504.1705	1535.8886	1615.8856	1618.7659	1656.5317	1663.3694	3005.8736	3076.2449	3111.13	3125.2015	3130.3464	3554.7237	3554.926	3647.7837	3647.8382
CC1=C(N)C=NC=C1N	Cc1c(N)cncc1N	
InChI=1S/C6H9N3/c1-4-5(7)2-9-3-6(4)8/h2-3H,7-8H2,1H3	InChI=1S/C6H9N3/c1-4-5(7)2-9-3-6(4)8/h2-3H,7-8H2,1H3
