16
gdb 44243	3.22781	1.45953	1.19584	1.8143	69.64	-0.2506	-0.0448	0.2058	1026.5452	0.12568	-437.911449	-437.90417	-437.903226	-437.943551	27.818	
N	 0.262152388	 0.9405319308	 0.6499331865	-0.541919
C	 0.0718996746	-0.1727802498	 0.1122279841	 0.443202
O	 0.9569805255	-1.0330277521	-0.5180227962	-0.273051
C	-0.1204643644	-1.9951294081	-0.7985529357	 0.007748
C	-1.1316605175	-1.0765012879	-0.0761109135	-0.174852
C	-1.5900709252	-1.8188454795	 1.2011325954	-0.236165
C	-0.4908319766	-2.8641712828	 1.4812870059	-0.336326
C	 0.0490055658	-3.2310476183	 0.0978360711	 0.409501
O	 0.4849871929	-4.292670575	-0.2579987822	-0.298097
H	 1.240719598	 1.2281656199	 0.5960847826	 0.234747
H	-0.1959428686	-2.2133723771	-1.8630060293	 0.111575
H	-1.9466184276	-0.6420665991	-0.6537189375	 0.114809
H	-1.7474313662	-1.1247886188	 2.0291440457	 0.136342
H	-2.5417915526	-2.3217208636	 1.001956694	 0.118534
H	 0.3310849968	-2.4227726914	 2.0592029243	 0.149623
H	-0.8303657932	-3.7517725971	 2.016641105	 0.134329
83.1777	123.8935	228.8406	241.9052	420.4663	436.725	516.6861	550.7622	640.8819	708.9689	754.1287	786.145	829.6571	868.1925	884.9456	898.6663	950.1332	962.7873	1004.4024	1048.9318	1053.3266	1132.0958	1169.5264	1178.7285	1207.6427	1247.2457	1256.3233	1290.8026	1300.932	1314.911	1353.5659	1457.1403	1493.3301	1830.645	1855.7814	3042.7819	3057.4776	3115.3381	3124.9235	3129.5037	3135.4363	3479.5971
N=C1OC2C1CCC2=O	[NH][C]1O[C@@H]2[C@H]1CCC2=O	
InChI=1S/C6H7NO2/c7-6-3-1-2-4(8)5(3)9-6/h3,5,7H,1-2H2	InChI=1S/C6H7NO2/c7-6-3-1-2-4(8)5(3)9-6/h3,5,7H,1-2H2/t3-,5-/m1/s1
