17
gdb 34346	2.91721	1.63621	1.32224	4.7124	75.85	-0.2419	0.0037	0.2456	989.5699	0.137465	-380.809175	-380.80203	-380.801085	-380.840557	28.612	
N	 0.0216262367	-1.1130944546	 0.0162527547	-0.338675
C	 0.0047298123	 0.0428355313	 0.0198601521	 0.250831
C	-0.0587235389	 1.4968334541	 0.020024624	 0.192967
C	-0.4919233038	 2.1814314331	-1.3152358412	-0.310097
C	 0.8474152097	 2.967518492	-1.2473635265	-0.173824
N	 1.2528954288	 2.2423818052	 0.007974749	-0.147793
C	 0.9045662323	 2.8743527412	 1.3020305973	-0.004744
C	-0.4033589039	 3.6164045067	 1.3213187154	-0.31467
C	-0.4175230851	 2.1149797953	 1.3888638935	-0.116868
H	-0.5715576022	 1.4879015162	-2.1528024823	 0.133486
H	-1.4093881367	 2.7686184835	-1.2499037022	 0.123102
H	 1.541431638	 2.7565983751	-2.064135589	 0.121658
H	 0.7618209438	 4.0509889848	-1.1301032481	 0.115405
H	 1.6763922159	 3.0338636909	 2.0455374163	 0.108815
H	-0.6219925538	 4.0983110939	 2.2692370432	 0.127511
H	-0.7830006279	 4.1579223438	 0.4614638253	 0.118905
H	-0.8522774352	 1.5586007878	 2.2083865784	 0.113989
139.7558	158.239	233.029	309.5869	375.6269	474.1647	520.6609	555.458	573.9142	712.7754	754.0524	762.6839	809.8348	840.2936	926.0606	942.0557	948.5464	963.3877	992.5022	995.708	1017.4896	1063.3706	1072.4364	1118.0125	1138.1754	1180.786	1190.299	1206.8433	1226.4461	1254.0068	1290.2133	1303.8549	1337.1626	1476.8351	1486.704	1511.706	2352.1365	3060.142	3084.6157	3106.9899	3131.778	3144.957	3179.9921	3204.0589	3212.775
N#CC12CCN1C1CC21	N#C[C@]12CCN1[C@H]1C[C@@H]21	
InChI=1S/C7H8N2/c8-4-7-1-2-9(7)6-3-5(6)7/h5-6H,1-3H2	InChI=1S/C7H8N2/c8-4-7-1-2-9(7)6-3-5(6)7/h5-6H,1-3H2/t5-,6+,7+/m1/s1
