18
gdb 126015	2.9516	1.63293	1.09953	2.0349	78.45	-0.1868	0.0273	0.2141	1088.3428	0.151522	-398.143429	-398.135785	-398.13484	-398.175367	29.918	
C	-0.2176378777	 1.546071749	 0.0333154313	-0.395448
C	 0.0564073714	 0.04163966	 0.0439014214	-0.107677
C	 0.9119024431	-0.453275362	-1.1693554241	-0.178914
N	 1.6888870531	-1.6300437788	-0.6832650807	-0.422633
C	 1.8274532101	-1.4183498962	 0.6985604464	 0.229293
C	 2.5051789893	-1.8586272632	 1.8098829156	-0.20316
N	 1.9398853941	-1.1641647566	 2.857307764	-0.193185
N	 0.9561995488	-0.3148073133	 2.4871812644	-0.340689
C	 0.8998161434	-0.4773923063	 1.1747364404	 0.338077
H	 0.7187497367	 2.1132522448	 0.042983625	 0.11664
H	-0.7864839033	 1.8378570181	-0.8560150881	 0.10947
H	-0.7947974755	 1.8381037215	 0.9150978254	 0.132008
H	-0.9051429806	-0.491245321	 0.03694695	 0.094843
H	 0.2969101227	-0.7328015826	-2.0289868429	 0.105889
H	 1.584074907	 0.3617406314	-1.4800741805	 0.093969
H	 2.5522784978	-1.7694632649	-1.1922966396	 0.229935
H	 3.305699913	-2.5621576563	 1.968221678	 0.123053
H	 2.2167896068	-1.1937900737	 3.8227338539	 0.26853
116.7241	170.1887	214.529	264.2795	313.4861	385.7293	441.0871	510.1206	560.2341	623.1058	647.0896	691.1465	719.0779	757.6435	804.6984	906.4718	947.6664	971.1148	1007.9002	1043.892	1059.6514	1108.8586	1133.0757	1144.9943	1188.5206	1226.4368	1300.8459	1306.1098	1314.7995	1368.281	1394.6495	1411.299	1464.455	1478.092	1495.0929	1497.1119	1507.7076	1533.9442	1653.3238	2978.9087	2999.576	3034.1617	3084.5148	3102.0742	3114.6004	3268.5721	3557.9696	3686.6638
CC1CNC2=CNN=C12	C[C@H]1CNc2c[nH]nc12	
InChI=1S/C6H9N3/c1-4-2-7-5-3-8-9-6(4)5/h3-4,7H,2H2,1H3,(H,8,9)	InChI=1S/C6H9N3/c1-4-2-7-5-3-8-9-6(4)5/h3-4,7H,2H2,1H3,(H,8,9)/t4-/m0/s1
