16
gdb 81217	3.16599	1.6819	1.50914	1.6033	67.9	-0.2566	0.0047	0.2613	905.232	0.125905	-437.797381	-437.790759	-437.789815	-437.82803	27.152	
O	-0.1045499519	 1.4347245745	-0.0878187945	-0.44362
C	 0.0373063579	 0.0442393031	 0.0296772284	 0.098428
C	-0.0197267713	-0.6190387384	 1.42865451	-0.168005
C	-1.553328668	-0.1825598651	 1.4964523544	-0.31468
C	-1.2910104951	-0.7598472357	 0.0787555354	 0.373018
O	-1.8841159257	-1.2648345412	-1.1114780571	-0.287005
C	-1.0099033421	-2.3123038104	-1.3670368505	 0.086413
N	-0.1585610303	-2.6925243481	-0.4902836429	-0.303435
C	-0.5591884775	-1.9149198155	 0.7065589687	 0.012014
H	 0.7695174093	 1.8323836863	-0.0322931191	 0.289145
H	 0.8045339216	-0.3493580718	-0.6426962044	 0.091519
H	 0.6980103306	-0.536789441	 2.242417789	 0.09078
H	-2.1936128035	-0.7750398436	 2.1518151128	 0.108988
H	-1.7300244645	 0.8872319959	 1.5758383657	 0.133032
H	-1.1282419338	-2.7437317048	-2.3546701072	 0.141212
H	-1.1141021558	-2.5696377343	 1.385457981	 0.092195
220.407	246.5923	256.5627	336.0522	390.4367	496.6249	535.189	538.392	628.985	749.8718	796.8654	823.1674	868.6391	893.5823	912.8096	952.6745	959.9641	983.8259	1027.6017	1038.8919	1061.7151	1083.8524	1127.8433	1152.7893	1166.1184	1184.3527	1205.4	1239.538	1246.639	1306.3975	1319.0396	1367.616	1441.7762	1507.3265	1607.5329	3059.0485	3073.2665	3091.1383	3138.2797	3182.1589	3219.1906	3827.8297
OC1C2CC11OC=NC21	O[C@H]1[C@H]2C[C@]31O[CH][N][C@@H]23	
InChI=1S/C6H7NO2/c8-5-3-1-6(5)4(3)7-2-9-6/h2-5,8H,1H2	InChI=1S/C6H7NO2/c8-5-3-1-6(5)4(3)7-2-9-6/h2-5,8H,1H2/t3-,4-,5-,6-/m0/s1
