22
gdb 13280	6.92592	0.80607	0.76032	0.8798	79.88	-0.2426	0.0887	0.3313	1581.7276	0.199697	-350.194922	-350.185662	-350.184718	-350.229684	33.357	
C	-0.0850196417	 1.6180728697	 0.1972321963	-0.38216
C	 0.3143277064	 0.1590067381	-0.0348704624	-0.181558
C	 0.6586903576	-0.5642938428	 1.2599670492	-0.043161
O	 1.0127648041	-1.8992499948	 0.9555341326	-0.254664
C	 1.3784863133	-2.6574802515	 2.0748204087	 0.180252
C	 0.2723745888	-3.1870415308	 3.0354988236	-0.245226
C	 1.0356162409	-4.5404085506	 3.0672581457	-0.217906
C	 1.7664749601	-4.1157869836	 1.7632830003	-0.250039
H	 0.7253207208	 2.1841720254	 0.6700157522	 0.11548
H	-0.328420515	 2.1143347326	-0.7466278046	 0.116456
H	-0.9636810631	 1.6933025183	 0.8475687547	 0.11545
H	-0.4991325448	-0.38392437	-0.5297477886	 0.105377
H	 1.1796352203	 0.1023101605	-0.7052227016	 0.105724
H	 1.4948832541	-0.0565873577	 1.7726202163	 0.08091
H	-0.2015894359	-0.5398674985	 1.9499316337	 0.08575
H	 2.1700763749	-2.1428950156	 2.6440012458	 0.058953
H	 0.1042097965	-2.6646602629	 3.9801411413	 0.092481
H	-0.6761664911	-3.2746696292	 2.4970516202	 0.10591
H	 1.7197399007	-4.6033985367	 3.9179258842	 0.102981
H	 0.4399003022	-5.454436298	 3.0351022373	 0.100955
H	 1.2287504514	-4.4536303849	 0.8729808406	 0.11203
H	 2.8266350995	-4.3536878571	 1.6530781544	 0.096005
56.9544	71.357	106.9543	138.2349	183.9232	233.1039	296.4797	331.8992	442.4955	494.8338	642.6617	764.8713	768.3822	786.1683	898.7981	902.6628	908.3937	925.5217	946.8784	974.1926	1037.1741	1057.9459	1068.9823	1132.8866	1157.222	1186.1916	1192.4183	1195.5446	1245.2553	1248.0668	1259.0977	1269.3639	1272.9903	1305.5266	1315.3331	1332.6721	1382.6632	1413.4434	1444.6493	1472.04	1486.8625	1492.2043	1500.82	1507.2622	1510.113	1527.9245	2945.1124	2965.5111	2976.2213	3031.2599	3038.6939	3055.3755	3062.2909	3066.4676	3071.1591	3099.3008	3106.1966	3107.4503	3115.0755	3127.4027
CCCOC1CCC1	CCCOC1CCC1	
InChI=1S/C7H14O/c1-2-6-8-7-4-3-5-7/h7H,2-6H2,1H3	InChI=1S/C7H14O/c1-2-6-8-7-4-3-5-7/h7H,2-6H2,1H3
