17
gdb 32276	2.53013	1.49181	0.94395	1.782	78.77	-0.2136	0.0081	0.2217	1191.4125	0.137024	-421.888923	-421.880646	-421.879702	-421.921948	31.443	
O	 0.0092591912	 1.4535397207	 0.0399137253	-0.422684
C	 0.0154738944	 0.0375618573	-0.0151209701	-0.158717
C	-1.4030245605	-0.4744670724	-0.0036863464	 0.186732
C	-2.5041786935	 0.3743802229	 0.0532939593	-0.17666
C	-3.8043767509	-0.1309899251	 0.06236743	-0.129062
C	-4.0106134684	-1.5049191319	 0.0138576809	-0.104181
C	-2.9205893162	-2.3709907875	-0.0435449611	-0.239459
C	-1.626804938	-1.8571543996	-0.0521537725	 0.313718
O	-0.5175023095	-2.6574244983	-0.1074522898	-0.446567
H	 0.9220877315	 1.7529956907	 0.0316952796	 0.290307
H	 0.5246302534	-0.3269312053	-0.9221108566	 0.105536
H	 0.5634503663	-0.395176547	 0.8376235359	 0.105538
H	-2.3260149285	 1.4416465934	 0.0905965782	 0.11741
H	-4.6487071573	 0.54796765	 0.1071423308	 0.090371
H	-5.0164535784	-1.9114775675	 0.0202766651	 0.093118
H	-3.0716394644	-3.4471050642	-0.0817697757	 0.078676
H	-0.7960918314	-3.5783323564	-0.1368162429	 0.295923
62.3277	172.2301	207.5589	217.107	269.356	334.7175	371.4959	451.6531	516.7054	526.4734	554.31	600.4449	725.4925	769.7477	777.4046	847.7733	852.4783	923.4055	960.2917	1043.1301	1063.9283	1072.6529	1122.4011	1178.8824	1190.0715	1206.0269	1231.8173	1250.3605	1297.0937	1337.1186	1368.5837	1458.4817	1486.8068	1507.7868	1539.2627	1637.3105	1653.1826	2965.3156	2982.0285	3150.8873	3178.1427	3194.7435	3219.776	3824.2626	3845.7529
OCC1=CC=CC=C1O	OCc1ccccc1O	
InChI=1S/C7H8O2/c8-5-6-3-1-2-4-7(6)9/h1-4,8-9H,5H2	InChI=1S/C7H8O2/c8-5-6-3-1-2-4-7(6)9/h1-4,8-9H,5H2
