21
gdb 72719	2.55393	1.94209	1.55138	1.6178	82.45	-0.2235	0.0722	0.2957	965.9571	0.183915	-386.989093	-386.981744	-386.980799	-387.020129	31.538	
C	-0.0035348572	 1.5024045806	-0.0138150402	-0.452176
C	-0.0517224353	-0.0307932959	-0.0460495116	 0.335252
C	-1.4310121517	-0.4790691146	 0.5880564383	-0.32695
C	-0.6295611541	-0.6298464177	 1.9605446787	-0.339454
C	 0.6262356965	-0.8291398775	 1.0614970377	 0.230039
C	 2.0102866423	-0.367329349	 0.4762054945	-0.35466
C	 1.1706323491	-0.6176989753	-0.8745209849	 0.010891
O	 1.0197848823	-2.0216082531	-0.8992353032	-0.264617
C	 0.6401118463	-2.2672856788	 0.4685829484	-0.098611
H	 0.9573042006	 1.9226984974	-0.3181082913	 0.115805
H	-0.7528577636	 1.8806271428	-0.719213169	 0.118836
H	-0.2535335014	 1.9153198988	 0.969933677	 0.11457
H	-2.2178598358	 0.2793035927	 0.5697136913	 0.096271
H	-1.8469660219	-1.4196938349	 0.2299118731	 0.119111
H	-0.636692189	 0.3041166223	 2.5252459686	 0.113518
H	-0.9060748034	-1.4482301231	 2.6307789673	 0.100596
H	 2.2785285191	 0.6669810442	 0.6725461293	 0.111041
H	 2.8775255361	-1.0217390853	 0.6042152639	 0.098551
H	 1.4868917852	-0.2496030058	-1.8524549229	 0.077999
H	 1.3952927358	-2.887939455	 0.9672453041	 0.095886
H	-0.3150063897	-2.7973265126	 0.4996602809	 0.098103
177.1355	223.1527	297.2363	330.4473	360.2204	432.8626	472.3427	497.2572	532.2761	613.366	672.6	712.2128	780.2901	829.4914	834.2595	868.1412	893.1684	922.3992	937.7438	948.2044	963.1279	993.6921	1021.7419	1049.3028	1091.6037	1126.6385	1147.8591	1148.7856	1171.1653	1183.8118	1186.7826	1200.3961	1223.84	1229.0435	1238.7458	1246.1168	1296.2533	1370.9528	1413.7162	1477.3223	1485.9357	1494.8555	1499.8117	1516.6691	1539.5875	3022.0684	3027.4515	3062.1444	3066.4692	3071.2354	3080.6542	3084.6716	3105.4547	3114.4405	3120.4301	3147.1713	3174.4446
CC12CCC11CC2OC1	C[C@]12CC[C@@]31C[C@H]2OC3	
InChI=1S/C8H12O/c1-7-2-3-8(7)4-6(7)9-5-8/h6H,2-5H2,1H3	InChI=1S/C8H12O/c1-7-2-3-8(7)4-6(7)9-5-8/h6H,2-5H2,1H3/t6-,7-,8-/m1/s1
