17
gdb 53346	3.54762	1.02146	0.92269	0.5332	77.46	-0.2381	0.022	0.26	1326.4871	0.134643	-421.749622	-421.740953	-421.740008	-421.785082	30.482	
C	-0.1176477396	 1.3854320794	 0.2176674381	-0.500543
C	-0.1077070353	-0.0624954219	 0.081441405	 0.095228
C	-0.1049133196	-1.2619962706	-0.0239085516	 0.101622
C	-0.0997141716	-2.7007331386	-0.1640015214	-0.113213
O	 0.4271105027	-3.4306539597	 0.9953841088	-0.302517
C	-0.7636177181	-4.2252724602	 1.1057524825	 0.062137
C	-1.846802762	-3.5810571925	 1.9878700817	-0.091658
O	-2.3948607971	-2.8703325259	 0.8430882325	-0.28313
C	-1.4487977454	-3.4684228806	-0.044855041	 0.062082
H	 0.4459266015	 1.6976696103	 1.1037551735	 0.154483
H	 0.3356487227	 1.8722033116	-0.6526972987	 0.149934
H	-1.1391506693	 1.7668552368	 0.3223722183	 0.154225
H	 0.4594471793	-3.0037755558	-1.0602573201	 0.102569
H	-0.5641980329	-5.2951224277	 1.1801040031	 0.091291
H	-2.585525279	-4.2732619494	 2.4102618796	 0.104546
H	-1.467313704	-2.9076879062	 2.7626512	 0.120726
H	-1.8982880322	-3.8685020688	-0.9550257506	 0.092217
19.2483	64.0875	94.7421	159.5161	244.2575	326.2601	375.8343	395.9225	481.5951	547.5599	719.8579	779.6943	807.2408	860.0995	917.0439	943.8733	961.3468	1000.2895	1009.8149	1049.9342	1053.928	1071.8906	1087.2588	1159.2825	1185.266	1196.0199	1215.5628	1271.0823	1291.8447	1329.3143	1353.7622	1363.0602	1412.7431	1474.8555	1477.485	1501.1716	2369.6135	3003.173	3022.7846	3028.3923	3089.1317	3090.6347	3091.3039	3095.4871	3108.2186	19.2143	64.0881	94.7422	159.5166	244.2574	326.2607	375.8349	395.9229	481.5949	547.5593	719.8578	779.6944	807.2411	860.0995	917.0439	943.8734	961.3474	1000.2894	1009.8151	1049.9352	1053.929	1071.8909	1087.2586	1159.2821	1185.2657	1196.0197	1215.5627	1271.0813	1291.8445	1329.3139	1353.7616	1363.0596	1412.744	1474.8572	1477.4868	1501.1708	2369.6138	3003.1732	3022.7846	3028.3922	3089.1317	3090.6347	3091.3039	3095.4871	3108.2186
CC#CC1OC2COC12	CC#C[C@H]1O[C@H]2CO[C@@H]12	
InChI=1S/C7H8O2/c1-2-3-5-7-6(9-5)4-8-7/h5-7H,4H2,1H3	InChI=1S/C7H8O2/c1-2-3-5-7-6(9-5)4-8-7/h5-7H,4H2,1H3/t5-,6+,7+/m1/s1
