20
gdb 93040	2.75626	1.44653	1.10201	1.8794	79.42	-0.2395	0.0049	0.2444	1133.9794	0.17333	-403.125134	-403.117129	-403.116184	-403.157356	32.235	
O	 0.1844783844	 1.2907242454	-0.3338178551	-0.434454
C	 0.0632139405	-0.0789241585	 0.0350706405	 0.136315
C	 0.8053740525	-0.3903268141	 1.3625647982	-0.273335
C	 0.0177182396	-0.0952207849	 2.6211831061	-0.078181
C	-1.048613226	-0.806596981	 2.9928033545	-0.046615
C	-1.5486811401	-1.9573180185	 2.1865447024	-0.06698
N	-2.8988688823	-1.8420475883	 1.5922278345	-0.34183
C	-1.7114293824	-1.821008181	 0.7127908103	-0.046123
C	-1.4206458069	-0.4904012978	 0.046781842	-0.219946
H	-0.3418389364	 1.806132115	 0.2874778743	 0.27816
H	 0.591729596	-0.6156781294	-0.7611050358	 0.084762
H	 1.0822897085	-1.4510773296	 1.3517948694	 0.107653
H	 1.7393095475	 0.1780288592	 1.3466053935	 0.106779
H	 0.3464952894	 0.7342496941	 3.2428573156	 0.090539
H	-1.5842341621	-0.5700352231	 3.9092794894	 0.092048
H	-1.2733237681	-2.9432772515	 2.5633142844	 0.08995
H	-3.3368566487	-2.7595827663	 1.5660024999	 0.229363
H	-1.5180638769	-2.7102638441	 0.1152922321	 0.080852
H	-1.9822920728	 0.2691461255	 0.600656078	 0.108102
H	-1.8045271656	-0.4759742712	-0.9787832741	 0.10294
100.2225	173.3387	270.0951	296.0831	306.2912	331.5508	383.5064	425.4887	496.4771	527.0666	588.8728	721.3555	764.8245	813.4622	827.2187	843.9492	906.4165	920.4344	945.3407	979.4913	999.1053	1010.8784	1028.1113	1080.9542	1092.6761	1127.0413	1152.5359	1196.6402	1209.3596	1239.5914	1251.1286	1270.0719	1277.5684	1320.605	1344.3502	1373.3999	1393.1803	1421.1841	1431.41	1461.875	1476.551	1481.3612	1705.3641	3029.5015	3045.4687	3046.2409	3086.5758	3089.2917	3092.5773	3121.9872	3143.2637	3166.3466	3496.7643	3798.7561
OC1CC=CC2NC2C1	O[C@H]1CC=C[C@H]2N[C@H]2C1	
InChI=1S/C7H11NO/c9-5-2-1-3-6-7(4-5)8-6/h1,3,5-9H,2,4H2	InChI=1S/C7H11NO/c9-5-2-1-3-6-7(4-5)8-6/h1,3,5-9H,2,4H2/t5-,6+,7-/m0/s1
