21
gdb 59753	2.53201	1.39043	0.94713	2.4262	79.3	-0.2118	-0.0222	0.1897	1270.4107	0.182888	-420.401686	-420.392444	-420.3915	-420.435809	34.691	
C	 0.9674552683	-0.5262764641	-1.0180469317	-0.314522
N	 0.0702692317	 0.0465094702	-0.0216510333	-0.070463
C	 0.1011812351	 1.5064292916	-0.0988721331	-0.335078
C	-1.2752972477	-0.4933798046	-0.1194911139	-0.054734
C	-1.3754961954	-2.0365409031	-0.1372641371	-0.220755
N	-2.7334455682	-2.3753868651	 0.3184999381	-0.296217
C	-3.0488682233	-1.3938952856	 1.3587830049	-0.274546
C	-2.1936056329	-0.1501081702	 1.0782122595	 0.385839
O	-2.242982651	 0.8798237983	 1.6992125384	-0.308802
H	 1.9662230217	-0.1007668161	-0.8825931145	 0.121085
H	 1.0493494508	-1.6090409842	-0.8968881951	 0.122567
H	 0.6512764707	-0.3168211916	-2.0588624274	 0.088189
H	-0.2229353536	 1.8807127974	-1.0898911287	 0.082868
H	-0.5461803802	 1.935029865	 0.6639222767	 0.160216
H	 1.125915381	 1.8509317142	 0.0704845319	 0.11294
H	-1.8108335891	-0.1161562555	-1.0226234735	 0.06711
H	-1.1887851467	-2.4773469649	-1.1175531854	 0.113495
H	-0.6443347493	-2.4514924884	 0.5685670174	 0.123129
H	-3.3768357159	-2.25521637	-0.4571700772	 0.223967
H	-4.1127838302	-1.1477723917	 1.4024703375	 0.133297
H	-2.7661196558	-1.7752427817	 2.3506097965	 0.140417
63.4206	89.2114	191.4981	215.9398	250.6897	265.8501	299.9847	343.9059	384.1873	427.826	495.2819	566.0067	571.9715	660.798	725.1995	814.6983	894.5374	924.373	978.1719	996.6586	1042.9652	1062.9809	1078.6246	1108.1347	1124.8946	1132.1794	1179.6645	1189.0318	1238.1054	1278.3517	1290.8706	1307.3589	1311.7999	1330.814	1374.3915	1440.8346	1459.6255	1466.0766	1475.4058	1486.6217	1494.6797	1503.1523	1506.5249	1517.9751	1845.3221	2822.1065	2912.5684	2922.3637	3012.2189	3030.3602	3072.0003	3076.0355	3101.8594	3115.5721	3120.8464	3168.4886	3517.4959
CN(C)C1CNCC1=O	CN(C)[C@H]1CNCC1=O	
InChI=1S/C6H12N2O/c1-8(2)5-3-7-4-6(5)9/h5,7H,3-4H2,1-2H3	InChI=1S/C6H12N2O/c1-8(2)5-3-7-4-6(5)9/h5,7H,3-4H2,1-2H3/t5-/m0/s1
