18
gdb 38604	3.5666	1.71975	1.44822	2.3351	73.95	-0.2211	0.0743	0.2954	922.4041	0.150545	-401.856307	-401.850063	-401.849118	-401.886616	26.608	
C	 0.0495546285	 1.4876695605	-0.1869829611	-0.247333
C	 1.3047444881	 0.7022302319	-0.034875396	-0.004467
C	 2.1261885278	 0.7213217991	 1.2473248022	-0.289467
C	 1.3916143146	 0.0478383618	 2.4013196656	 0.003658
C	-0.1175855593	 0.3300916682	 2.6191305289	 0.008143
O	-0.241693482	-0.9578358388	 3.3259699926	-0.30676
C	 0.5792948988	-1.2548674917	 2.1365383214	 0.025854
C	-0.4243975365	-0.4361626235	 1.2841744033	 0.020409
N	-0.003758102	 0.0301342362	-0.018169356	-0.117178
H	-0.267727672	 2.106241847	 0.6502281335	 0.113936
H	-0.2470027692	 1.8613634793	-1.1629714614	 0.11744
H	 1.8710177651	 0.5028996252	-0.9416613669	 0.094139
H	 3.069911206	 0.1908158154	 1.0754031013	 0.112524
H	 2.3997340616	 1.7468635281	 1.5256153349	 0.112218
H	 1.9668226528	 0.0175505603	 3.329174305	 0.081524
H	-0.6096347902	 1.1934853751	 3.069133131	 0.090062
H	 0.9285225962	-2.2793967806	 2.0038990792	 0.09351
H	-1.4326825084	-0.8520377235	 1.2480600726	 0.091788
186.1092	252.7785	359.2511	446.5801	456.6228	512.543	571.6779	709.7299	747.3745	776.3072	817.4747	831.6935	869.6624	898.0207	905.9345	926.9967	965.1331	1002.8287	1014.0914	1046.0325	1077.0009	1093.6964	1113.7497	1118.9464	1145.544	1159.4794	1184.6111	1189.4651	1204.4925	1253.8085	1265.2118	1271.2779	1290.3411	1326.4541	1357.7608	1396.4864	1413.2591	1487.5927	1510.4881	3025.3934	3060.0026	3093.9503	3100.1946	3102.5652	3108.1203	3119.5557	3128.033	3187.1374
C1C2CC3C4OC3C4N12	C1[C@H]2C[C@H]3[C@@H]4O[C@H]3[C@@H]4N12	
InChI=1S/C7H9NO/c1-3-2-8(3)5-6-4(1)7(5)9-6/h3-7H,1-2H2	InChI=1S/C7H9NO/c1-3-2-8(3)5-6-4(1)7(5)9-6/h3-7H,1-2H2/t3-,4-,5+,6-,7+,8?/m1/s1
