20
gdb 14372	3.69363	2.23829	1.88902	0.0236	78.74	-0.2567	0.0937	0.3504	806.0854	0.180891	-311.825974	-311.819898	-311.818954	-311.855592	26.663	
C	-0.0137079193	 1.5093421522	-0.2348384057	-0.273877
C	 1.529124928	 1.5513045853	 0.0890095304	-0.349154
C	 1.2787796801	 0.3052692571	 0.9639929347	 0.360445
C	 1.7587865499	-1.1044690515	 1.3905580259	-0.325219
C	 0.3814615317	-1.067592021	 2.1705308888	-0.01032
C	 0.6899309988	 0.4340099149	 2.3975152086	-0.24802
C	-0.7352281252	-0.9506522216	 1.085618863	-0.269153
C	 0.0368661812	-0.0108944213	 0.1216546817	 0.050129
H	-0.5912598066	 2.104936242	 0.4758174267	 0.105382
H	-0.3199941805	 1.7753860956	-1.2489775823	 0.093343
H	 2.1221862797	 1.3333473754	-0.8046118602	 0.102735
H	 1.9320842101	 2.44365388	 0.5745869997	 0.094552
H	 1.8966884079	-1.8487976442	 0.6004021727	 0.086569
H	 2.5997775391	-1.1291152925	 2.0887251548	 0.093284
H	 0.2026170783	-1.7474635794	 3.0047689933	 0.058496
H	 1.4705042729	 0.6072403331	 3.1433479594	 0.089303
H	-0.152411753	 1.1095602328	 2.573335868	 0.085475
H	-0.9963037713	-1.9050655107	 0.6190623978	 0.090042
H	-1.6493671489	-0.5257153814	 1.5124531145	 0.097777
H	 0.3268001371	-0.5512122549	-0.7867491218	 0.068213
240.071	299.7775	371.3697	403.0111	507.0476	547.5716	617.3484	667.1461	769.9784	805.7079	824.2379	853.2547	877.2485	889.5066	892.8263	919.5318	956.2024	988.4283	1006.2672	1010.7269	1067.9279	1078.4831	1092.1859	1124.4534	1153.3803	1171.1247	1184.1191	1192.1394	1219.777	1232.3712	1240.7074	1243.5774	1274.8094	1288.8552	1297.4759	1308.9824	1378.4405	1479.4942	1486.1601	1490.6232	1495.3	1525.0899	3029.2495	3044.5753	3046.0353	3050.3664	3053.2952	3068.1284	3090.6286	3102.4359	3103.9697	3105.1002	3110.7328	3124.8246
C1CC23CC(C2)CC13	C1C[C@@]23C[C@@H](C2)C[C@@H]13	
InChI=1S/C8H12/c1-2-8-4-6(5-8)3-7(1)8/h6-7H,1-5H2	InChI=1S/C8H12/c1-2-8-4-6(5-8)3-7(1)8/h6-7H,1-5H2/t6-,7-,8+/m1/s1
