17
gdb 29830	3.65764	1.10058	0.85508	7.4511	80.61	-0.2342	-0.0288	0.2054	1318.7877	0.135574	-418.067273	-418.05822	-418.057275	-418.101948	31.534	
C	-0.0011348635	 1.451061464	 0.011004954	-0.343749
N	 0.0112139182	-0.0003102571	 0.0048362607	-0.027458
C	-0.002580404	-0.8114279333	-1.0949045852	-0.1745
C	 0.017406211	-2.1047185232	-0.6162105255	 0.154367
C	 0.0121299298	-3.3100706686	-1.441309525	 0.080197
O	 0.0293325033	-4.4502661453	-1.0403895244	-0.274568
N	 0.04326954	-2.093141702	 0.7646472059	-0.33103
C	 0.0390558751	-0.8306675841	 1.1113480782	 0.336051
C	 0.0609149113	-0.3111773345	 2.5088998294	-0.504234
H	 0.8935514957	 1.8471848844	 0.5007360656	 0.151178
H	-0.0231435008	 1.8122495274	-1.0178226495	 0.15154
H	-0.8838884501	 1.8319457513	 0.5333975044	 0.151177
H	-0.0248022774	-0.4122928965	-2.0965797806	 0.14368
H	-0.0103219754	-3.0845330379	-2.5343212514	 0.051338
H	 0.9431458359	 0.3102321612	 2.7027457832	 0.134248
H	-0.8238609492	 0.295168051	 2.735996625	 0.134248
H	 0.0809793704	-1.1626010367	 3.1894398151	 0.167513
41.3581	103.2323	139.2596	167.452	207.3125	222.0066	264.0067	350.2955	405.3793	500.8038	640.2494	646.7286	707.1112	726.5829	772.975	823.4134	1003.543	1030.0742	1031.6782	1060.9856	1073.8194	1150.2346	1172.2948	1220.5252	1346.1179	1376.8459	1402.6195	1415.2946	1445.7702	1471.8009	1477.5834	1488.29	1489.248	1511.7316	1566.7876	1590.07	1804.7734	2842.5116	3028.8551	3043.8845	3077.445	3104.7523	3147.2302	3154.8363	3262.1551
CN1C=C(C=O)N=C1C	Cn1cc(C=O)nc1C	
InChI=1S/C6H8N2O/c1-5-7-6(4-9)3-8(5)2/h3-4H,1-2H3	InChI=1S/C6H8N2O/c1-5-7-6(4-9)3-8(5)2/h3-4H,1-2H3
