21
gdb 109357	2.66373	1.30548	0.95984	3.196	86.47	-0.2348	-0.0435	0.1913	1296.1131	0.183451	-387.144636	-387.135668	-387.134724	-387.178491	33.917	
C	-0.1825232827	 1.5447052059	 0.0043572557	-0.375699
C	 0.0553815062	 0.0248582068	 0.0175066559	-0.274199
C	 0.7768883181	-0.4747734433	-1.2106203483	 0.215523
C	 2.0658227101	-0.8550109645	-1.2009440125	-0.142632
C	 2.8202044259	-1.3766164035	-2.3917043259	-0.249499
C	 1.8793272913	-1.8922971283	-3.486136532	-0.220621
C	 0.7595532545	-0.8809502467	-3.7487469515	-0.301
C	-0.0042780706	-0.5231886823	-2.4796598211	 0.332158
O	-1.1912222682	-0.2572700548	-2.5062060751	-0.331831
H	 0.7652588103	 2.0910632055	-0.0453029876	 0.107903
H	-0.7916693009	 1.8314793178	-0.8560264565	 0.140689
H	-0.7069137877	 1.8599459117	 0.9117995738	 0.111498
H	 0.6298143044	-0.2521218108	 0.9082980763	 0.092116
H	-0.9140023669	-0.4805775331	 0.0818863434	 0.120467
H	 2.6228217937	-0.7844321322	-0.267153644	 0.094531
H	 3.4585560769	-0.5718699609	-2.7901824956	 0.117978
H	 3.5124575614	-2.1644836785	-2.0720586099	 0.110455
H	 2.4346133394	-2.1003590572	-4.4063480756	 0.101295
H	 1.4381576168	-2.8418953718	-3.1588017553	 0.110331
H	 1.1897586304	 0.0534657559	-4.1393937731	 0.120124
H	 0.0381890377	-1.2334786858	-4.4902668011	 0.120411
79.3676	82.6719	158.1655	215.2211	236.9092	295.8121	316.5699	381.2909	448.6184	498.7812	524.5862	594.0589	688.7427	737.3749	779.64	833.1228	867.5482	880.7774	927.4563	968.7084	982.7443	1059.7225	1073.0072	1083.2892	1108.5603	1130.9458	1157.8829	1186.8822	1268.0104	1270.3202	1287.3867	1346.8278	1354.7697	1369.8327	1379.4146	1393.7576	1402.9269	1460.2321	1473.2037	1474.4248	1496.1919	1496.5182	1511.315	1696.0909	1765.323	2986.9629	3007.2174	3031.4119	3038.2615	3038.5438	3051.852	3078.2008	3080.0186	3100.4859	3104.7384	3130.3538	3132.5245
CCC1=CCCCC1=O	CCC1=CCCCC1=O	
InChI=1S/C8H12O/c1-2-7-5-3-4-6-8(7)9/h5H,2-4,6H2,1H3	InChI=1S/C8H12O/c1-2-7-5-3-4-6-8(7)9/h5H,2-4,6H2,1H3
