20
gdb 19090	3.53012	2.36261	2.30126	0.	76.84	-0.2701	0.09	0.36	751.5001	0.182869	-311.814419	-311.808919	-311.807975	-311.843531	25.076	
C	-0.0330298106	 1.5580919136	 0.0305550732	-0.2126
C	 1.5205589215	 1.4083385205	 0.0121412005	-0.018326
C	 1.2514826504	 0.1744829905	 0.929527575	-0.2126
C	-0.0042560748	-0.0024991894	 0.0194739187	-0.018325
C	 0.4562206608	-0.5076323853	-1.4159478622	-0.018326
C	 2.009807276	-0.6573909676	-1.4343601992	-0.2126
C	 1.9810371938	 0.9032018234	-1.4232782244	-0.018325
C	 0.7252972013	 0.7262279009	-2.3333297261	-0.2126
H	-0.3758163104	 1.9336101402	 0.9980946591	 0.086904
H	-0.548651311	 2.1112954494	-0.7518328634	 0.089538
H	 2.1436322005	 2.2260384281	 0.3803687262	 0.054484
H	 1.9879677548	-0.621005894	 1.0234268933	 0.089538
H	 0.9616206591	 0.4929744948	 1.9341133049	 0.086904
H	-0.865872521	-0.5585238318	 0.3948388172	 0.054483
H	-0.1668585123	-1.3253255997	-1.7841803836	 0.054484
H	 2.5254216971	-1.2106015757	-0.6519724923	 0.089539
H	 2.3526026293	-1.0329013261	-2.4018995773	 0.086904
H	 2.8426586396	 1.459220177	-1.7986408576	 0.054483
H	 1.0151472678	 0.4077331766	-3.337917745	 0.086904
H	-0.011181202	 1.5217240746	-2.4272229171	 0.089539
254.7205	476.6176	495.2158	509.9894	576.1659	594.2887	739.8879	769.5866	810.6663	842.5845	848.253	850.9896	860.7561	884.6998	887.6239	921.5855	994.9026	1017.4579	1037.2743	1039.2901	1040.7547	1045.8789	1092.2662	1097.9276	1114.2123	1130.0092	1133.0152	1133.284	1231.4282	1233.7065	1242.4093	1246.7688	1255.5157	1262.1716	1301.8287	1313.3769	1326.0329	1354.2087	1481.7522	1526.2916	1544.1739	1583.4194	3064.2106	3065.7136	3071.7155	3072.6209	3074.3326	3081.8223	3088.1983	3098.4914	3122.1311	3126.4769	3150.6764	3150.7501
C1C2CC1C1CC2C1	C1[C@H]2C[C@@H]1[C@@H]1C[C@H]2C1	
InChI=1S/C8H12/c1-5-2-6(1)8-3-7(5)4-8/h5-8H,1-4H2	InChI=1S/C8H12/c1-5-2-6(1)8-3-7(5)4-8/h5-8H,1-4H2/t5-,6+,7-,8+
