19
gdb 103802	2.66822	1.20108	1.06945	4.409	72.75	-0.251	0.0369	0.2879	1213.5683	0.158105	-456.357665	-456.347823	-456.346879	-456.392533	36.161	
C	 0.3261262276	 1.3572911814	 0.1519438619	-0.443713
C	-0.0258653761	-0.1048141976	-0.0343279472	 0.268411
C	-1.4445001557	-0.48433179	 0.3483217814	-0.094535
O	-1.6763634805	-0.2396863624	 1.7223584599	-0.419589
C	 0.7164959874	-0.902462514	-1.0683311346	-0.314754
N	 0.9391262201	-1.1316636586	 0.3508747093	-0.143575
C	 2.1061192578	-0.8586689806	 1.0721383604	 0.415064
N	 3.2547269672	-1.3499716573	 0.4928965028	-0.539481
O	 2.0859130551	-0.2720402518	 2.1356361437	-0.385553
H	 1.3722422528	 1.5562608638	-0.0925966752	 0.124082
H	-0.3040778322	 1.9721663469	-0.4991956045	 0.116968
H	 0.1530225471	 1.6600056461	 1.1860668427	 0.156249
H	-2.1685421375	 0.1263396783	-0.2023945345	 0.106267
H	-1.6185830764	-1.5395181502	 0.0877982089	 0.085578
H	-0.9405295757	-0.6360411439	 2.2062700939	 0.295722
H	 0.2260850261	-1.7114990784	-1.6052458525	 0.119835
H	 1.490888775	-0.3821487938	-1.6283373779	 0.127739
H	 3.1720026016	-2.0766562329	-0.1999609487	 0.260225
H	 4.0439149662	-1.4202893348	 1.1161282502	 0.265057
64.0272	83.0538	130.1324	157.6336	193.0042	257.6119	325.1956	365.8922	405.405	421.9271	441.0184	467.3273	523.6789	543.6951	617.4198	715.6963	781.1007	794.0867	908.1118	938.2475	966.8928	994.8191	1069.4752	1090.658	1108.654	1112.6711	1134.1622	1168.2602	1218.1181	1300.7767	1330.5805	1381.816	1411.3219	1424.0146	1442.8757	1478.4761	1494.7103	1502.956	1511.3248	1617.6426	1794.2479	2987.0877	3046.2521	3069.9353	3094.5345	3115.9075	3143.4038	3181.2307	3587.0277	3708.9229	3776.9673
CC1(CO)CN1C(N)=O	C[C@@]1(CO)CN1C(=O)N	
InChI=1S/C5H10N2O2/c1-5(3-8)2-7(5)4(6)9/h8H,2-3H2,1H3,(H2,6,9)	InChI=1S/C5H10N2O2/c1-5(3-8)2-7(5)4(6)9/h8H,2-3H2,1H3,(H2,6,9)/t5-,7?/m0/s1
