25
gdb 123254	10.069	0.38314	0.37514	0.2053	88.77	-0.2492	0.0871	0.3363	2980.7486	0.225964	-426.61255	-426.600474	-426.59953	-426.651848	40.615	
C	 0.2792639826	 1.4331895232	-0.657255394	-0.379109
C	-0.0256225376	 0.0053355732	-0.1964135449	-0.165184
C	 0.8031005705	-0.417593872	 1.020677427	-0.178976
C	 0.499165563	-1.837330855	 1.4777951878	-0.047072
O	 1.3044747356	-2.1382827013	 2.5983449392	-0.251587
C	 1.0997143991	-3.437722098	 3.1003490127	-0.068415
C	 2.0237106395	-3.623888918	 4.2939225189	-0.068241
O	 1.8189249122	-4.9239629899	 4.7964195916	-0.232537
C	 2.6258220938	-5.2128822062	 5.911599802	-0.224204
H	 1.3334081317	 1.5420748942	-0.9351151991	 0.115243
H	-0.3250878455	 1.7099474178	-1.526671155	 0.111302
H	 0.0717852424	 2.1577667372	 0.1378683752	 0.115245
H	-1.09412947	-0.0818059633	 0.0413688292	 0.09629
H	 0.158181078	-0.6929590732	-1.0237240175	 0.096284
H	 1.8733275238	-0.345488292	 0.7906016944	 0.102867
H	 0.6183087074	 0.2668096792	 1.8579209705	 0.102888
H	-0.5691562565	-1.9373961412	 1.7382207308	 0.083345
H	 0.6971064519	-2.554928099	 0.6623176461	 0.083345
H	 0.0538252054	-3.5848491855	 3.4156547757	 0.093749
H	 1.3224877121	-4.2012045272	 2.3372178337	 0.093753
H	 3.0701744181	-3.4779757628	 3.9796352	 0.093683
H	 1.8012326813	-2.8611035195	 5.0580272798	 0.09368
H	 2.3978699214	-6.2344110709	 6.2258207793	 0.125945
H	 3.6984228431	-5.1464801832	 5.6687675741	 0.10385
H	 2.423418987	-4.5289303666	 6.7512988124	 0.103857
35.5734	58.1465	66.0044	91.7942	111.8829	143.5288	151.8089	169.7305	231.3576	249.6614	263.284	303.5837	415.3198	491.3909	525.09	745.189	814.1928	835.0016	907.253	953.7869	985.3959	1021.5496	1043.7253	1069.0331	1092.1454	1150.7025	1160.3706	1167.5092	1177.6123	1186.7058	1201.8703	1233.2939	1233.7304	1254.8577	1290.2327	1293.1997	1311.508	1324.1958	1356.5383	1388.4814	1414.3288	1422.4835	1460.1255	1483.1497	1484.671	1488.0954	1496.1374	1500.6342	1504.7842	1509.4068	1518.4556	1533.1316	1539.7579	2943.8941	2960.5751	2968.7669	2969.7407	2974.1831	2984.8826	3011.0283	3013.1293	3013.3676	3028.1722	3032.3977	3039.0411	3072.5588	3098.1664	3102.8206	3112.7333
CCCCOCCOC	CCCCOCCOC	
InChI=1S/C7H16O2/c1-3-4-5-9-7-6-8-2/h3-7H2,1-2H3	InChI=1S/C7H16O2/c1-3-4-5-9-7-6-8-2/h3-7H2,1-2H3
