19
gdb 60826	3.49542	0.92538	0.87245	2.9568	72.07	-0.2433	-0.0207	0.2225	1373.777	0.156365	-460.144251	-460.134422	-460.133478	-460.180032	34.876	
C	-0.0429888439	 1.5690541536	-0.0073954633	-0.428533
C	-0.0061422873	 0.0307797152	 0.0143257388	-0.075391
C	 0.66047214	-0.4803080927	-1.2508810751	 0.144414
O	 0.113789658	-1.1545675062	-2.0863920226	-0.25147
C	 0.7473151425	-0.5337331309	 1.2500747972	 0.075667
O	 2.0745106602	-0.0510483348	 1.3302844864	-0.440506
C	 0.0008640664	-0.2397892219	 2.5458195799	 0.051122
C	 0.6834592325	-0.2875740681	 3.8417068599	-0.187124
O	 0.4034849265	 0.9705611341	 3.2018265048	-0.246082
H	 0.9675458657	 1.981509208	-0.0863081299	 0.129422
H	-0.6206607411	 1.9275553933	-0.8638533172	 0.131337
H	-0.4990770999	 1.9670868431	 0.9028554407	 0.143769
H	-1.0249340544	-0.3736987843	 0.0173894304	 0.090944
H	 1.7254207872	-0.1778514268	-1.3578072704	 0.092327
H	 0.8159448249	-1.6240701291	 1.139016371	 0.106789
H	 2.0211414092	 0.7838833593	 1.8176146066	 0.296959
H	-1.0766273683	-0.400993731	 2.519032484	 0.104966
H	 0.1097038734	-0.4783162818	 4.7458708487	 0.126818
H	 1.7356877883	-0.558322699	 3.8744097503	 0.134571
38.5558	63.0934	101.8014	170.3442	212.1316	248.5021	277.5894	286.6157	319.8095	405.8081	449.0766	508.1024	632.0054	708.1246	778.4571	847.5455	878.3954	913.7819	942.5403	982.7019	1016.2597	1047.4707	1087.0278	1110.4398	1147.1425	1163.2941	1164.6173	1171.2037	1253.1549	1278.5115	1295.559	1329.811	1358.7295	1403.6339	1414.9873	1424.9493	1441.6109	1497.9238	1506.0341	1516.795	1829.5901	2896.0627	3025.1263	3045.1384	3050.9976	3103.774	3115.5953	3119.7852	3122.8098	3199.8824	3733.5222
CC(C=O)C(O)C1CO1	C[C@@H](C=O)[C@@H](O)[C@H]1CO1	
InChI=1S/C6H10O3/c1-4(2-7)6(8)5-3-9-5/h2,4-6,8H,3H2,1H3	InChI=1S/C6H10O3/c1-4(2-7)6(8)5-3-9-5/h2,4-6,8H,3H2,1H3/t4-,5+,6+/m0/s1
