17
gdb 57007	2.58333	1.40515	1.1819	4.5148	71.59	-0.2612	0.0112	0.2724	1100.612	0.136793	-418.038725	-418.030207	-418.029263	-418.072624	30.429	
C	-0.0539644297	 1.544980622	-0.014562435	-0.39744
C	 0.0448569855	 0.0074220206	-0.0094754847	-0.162714
C	 0.7600970723	-0.4732032225	-1.1973058556	 0.286093
N	 1.3183530882	-0.8469686618	-2.1374138893	-0.324896
C	 0.6933042294	-0.5278425821	 1.2813204421	 0.095441
C	 0.8884703045	-2.0671499381	 1.3699326039	-0.213209
N	 2.3334048758	-2.2582148993	 1.5728623741	-0.250393
C	 2.8401099806	-1.1006394065	 1.5568404241	 0.130237
O	 2.0399437104	-0.0107537945	 1.3989551951	-0.231583
H	 0.9410611324	 1.988595035	 0.05462696	 0.157545
H	-0.5347611173	 1.9010322016	-0.9282717155	 0.140196
H	-0.6454139632	 1.8793816159	 0.8426453926	 0.126276
H	-0.9676896301	-0.4160040075	-0.0506044124	 0.133522
H	 0.1188251648	-0.1338559375	 2.1264520014	 0.101724
H	 0.3307741391	-2.5070123572	 2.2017001291	 0.12337
H	 0.577438562	-2.5802550405	 0.4530918149	 0.135659
H	 3.8929403454	-0.8661156075	 1.661692815	 0.150173
62.346	75.7153	152.3225	195.3456	222.3206	257.1463	374.4548	390.2428	495.5286	572.5469	675.5493	703.5834	781.1518	873.3758	885.1257	953.8959	957.8254	982.6306	1015.3009	1023.5129	1066.2429	1109.8735	1114.2627	1147.849	1216.8712	1294.3863	1310.485	1316.1504	1330.7626	1351.8114	1389.9657	1412.5672	1492.2706	1497.7429	1502.765	1717.1405	2359.731	3028.4201	3044.5137	3048.877	3054.0845	3087.3383	3128.1134	3146.5149	3226.5957
CC(C#N)C1CN=CO1	C[C@@H](C#N)[C@H]1CN=CO1	
InChI=1S/C6H8N2O/c1-5(2-7)6-3-8-4-9-6/h4-6H,3H2,1H3	InChI=1S/C6H8N2O/c1-5(2-7)6-3-8-4-9-6/h4-6H,3H2,1H3/t5-,6+/m0/s1
