19
gdb 61469	3.37492	0.87999	0.74452	5.9918	72.36	-0.2505	0.0256	0.2761	1496.7271	0.160224	-456.349089	-456.340006	-456.339062	-456.3837	33.431	
N	 0.0790802333	 0.9245968881	-0.1340500837	-0.524697
H	 0.144255273	-0.6845132256	 0.6449604259	 0.314563
H	 1.0086285778	 1.3290120597	-0.2233987986	 0.244283
H	-0.417986967	 1.1377748781	-0.9935574106	 0.247669
C	-0.6192378505	 1.5135057319	 1.0300556977	-0.038002
C	 0.0393356048	 0.9873448699	 2.3177909185	-0.328246
C	-0.0510425701	-0.5300861369	 2.53399915	 0.392937
O	 0.0610442429	-1.2822986045	 1.4303911695	-0.372105
O	-0.1932353221	-1.0145628347	 3.6253767806	-0.329199
C	-0.6611326772	 3.0292193812	 0.9971269224	 0.026964
C	-1.7551915407	 3.7336014856	 0.2821540687	-0.25682
N	-1.6767675231	 3.7725879065	 1.7530735751	-0.312118
H	-1.6529364772	 1.1430203537	 0.9894140113	 0.096998
H	 1.1037643715	 1.2628429457	 2.312425036	 0.12526
H	-0.4010620657	 1.4628728505	 3.195781991	 0.144013
H	 0.3225276614	 3.499852288	 1.0248259472	 0.092209
H	-1.5673689131	 4.682237978	-0.2121116914	 0.127433
H	-2.5312162005	 3.1282458192	-0.1816013762	 0.112055
H	-2.3560529275	 3.1288674356	 2.1542605766	 0.236805
64.0381	87.5554	113.1682	150.1459	263.3303	315.0461	338.8192	359.9508	403.3277	485.823	505.8522	613.0191	688.3785	807.2796	858.8643	874.2909	898.8973	921.9218	946.1532	956.7107	968.7108	1001.9144	1046.8108	1107.1883	1126.003	1143.491	1158.7637	1200.2285	1247.8435	1264.5748	1282.4245	1297.5444	1306.7884	1354.264	1396.9968	1431.6132	1463.7106	1487.6162	1510.4136	1649.3489	1860.3111	3011.3482	3026.2235	3099.442	3103.2674	3123.8823	3190.9402	3278.5623	3483.0634	3486.6824	3567.6786
[NH3+]C(CC([O-])=O)C1CN1	N[C@@H](CC(=O)O)[C@H]1CN1	
InChI=1S/C5H10N2O2/c6-3(1-5(8)9)4-2-7-4/h3-4,7H,1-2,6H2,(H,8,9)	InChI=1S/C5H10N2O2/c6-3(1-5(8)9)4-2-7-4/h3-4,7H,1-2,6H2,(H,8,9)/t3-,4+/m0/s1
