17
gdb 48844	2.92874	1.43476	1.18394	4.2569	69.33	-0.2505	-0.0219	0.2286	1063.0367	0.136025	-458.946089	-458.938376	-458.937432	-458.978537	29.249	
O	-0.005746254	-0.0241149098	 0.1622140319	-0.259534
C	 0.0796567034	 1.1314924068	-0.153948086	 0.12323
C	 1.3058611453	 1.9683050477	-0.0473824213	 0.342949
C	 1.0926673623	 3.4521044618	 0.2110653064	-0.358373
C	 1.5280465595	 2.9958046973	-1.1545670111	-0.129932
C	 2.9784818273	 3.1569148691	-1.6025202792	-0.105114
O	 3.7811096334	 2.0440121151	-1.2254536627	-0.218591
C	 3.6617675094	 1.7759006185	 0.1351167597	-0.002957
O	 2.3846265602	 1.2792712092	 0.4885384867	-0.277283
H	-0.7892968169	 1.6982091502	-0.5659190192	 0.067958
H	 0.0759823909	 3.805233287	 0.3454136473	 0.129639
H	 1.8263975416	 3.9422377184	 0.8427803216	 0.133115
H	 0.7849528348	 3.023161613	-1.9450922848	 0.10964
H	 3.0352260478	 3.2106458885	-2.6913328652	 0.127247
H	 3.4127604024	 4.0817420091	-1.1919090025	 0.103884
H	 4.3668463541	 0.9806762662	 0.3813850208	 0.131989
H	 3.8932345883	 2.6813688317	 0.7268350877	 0.082131
90.0608	120.61	222.447	233.4483	353.7643	375.925	408.6831	477.4342	535.0262	560.3672	739.9343	766.2193	790.7739	850.0204	905.7594	920.9174	976.3253	1024.0527	1037.326	1046.5978	1072.1194	1079.8922	1101.3231	1162.1709	1197.4933	1240.2836	1274.9703	1315.4028	1328.5364	1385.0433	1403.5142	1434.0048	1455.058	1471.3861	1496.9789	1518.5096	1838.7534	2847.2689	2927.7603	2984.0296	3108.1463	3122.6282	3130.8384	3157.3373	3218.8238
O=CC12CC1COCO2	O=C[C@]12C[C@H]1COCO2	
InChI=1S/C6H8O3/c7-3-6-1-5(6)2-8-4-9-6/h3,5H,1-2,4H2	InChI=1S/C6H8O3/c7-3-6-1-5(6)2-8-4-9-6/h3,5H,1-2,4H2/t5-,6+/m0/s1
