19
gdb 112277	2.449	1.23328	0.91792	2.1039	74.54	-0.2315	0.0294	0.261	1302.1937	0.158389	-456.313391	-456.303653	-456.302709	-456.348344	34.864	
C	-0.2002348415	 1.4557244162	-0.2649236264	-0.247867
O	 0.482732638	 0.2443458723	 0.0256220862	-0.246268
C	 0.8553708541	-0.4613333371	-1.1194661947	 0.023582
C	 1.4928320785	-1.8548852649	-0.826687099	-0.005455
C	 1.338627229	-2.3525752626	 0.5997032517	-0.079147
O	 1.5966672242	-3.7521672784	 0.562486421	-0.432193
N	 0.512468988	-2.4179832263	-1.771525591	-0.327311
C	-0.2399075334	-1.2542505051	-1.8633574145	 0.363192
N	-1.3688585455	-0.9102209327	-2.3216599695	-0.557339
H	 0.4399583775	 2.1387453216	-0.844303557	 0.10425
H	-1.1201270656	 1.2669337318	-0.8283501157	 0.155393
H	-0.4386717186	 1.9200383968	 0.6944874404	 0.123086
H	 1.4603750242	 0.1611155702	-1.7952398241	 0.089141
H	 2.5278551441	-1.986917976	-1.1574880859	 0.088425
H	 2.0476583493	-1.8220678531	 1.251948292	 0.100226
H	 0.3243610559	-2.1364846362	 0.9599529952	 0.103804
H	 1.4521262956	-4.1079515398	 1.4438885739	 0.291368
H	 0.1810501634	-3.372515565	-1.7564312395	 0.245676
H	-1.8830602771	-1.7078983215	-2.701590483	 0.207436
71.6382	102.218	127.5623	143.5982	180.725	236.2803	266.1981	295.6559	342.725	436.268	449.1831	494.1995	558.5356	687.3177	784.087	837.6627	854.2206	900.7721	969.8067	1038.4468	1051.8362	1074.154	1100.2712	1106.9732	1170.1549	1186.2219	1202.1484	1233.9159	1244.8498	1255.2412	1265.6503	1315.5208	1351.9228	1386.4186	1389.9279	1460.1186	1481.3964	1484.7886	1513.8251	1516.335	1788.3902	2988.0348	2996.7727	2997.783	3038.2139	3064.3687	3076.8538	3128.25	3446.4787	3597.0303	3833.9306
COC1C(CO)NC1=N	CO[C@H]1[C@@H](CO)N[C]1[NH]	
InChI=1S/C5H10N2O2/c1-9-4-3(2-8)7-5(4)6/h3-4,8H,2H2,1H3,(H2,6,7)	InChI=1S/C5H10N2O2/c1-9-4-3(2-8)7-5(4)6/h3-4,8H,2H2,1H3,(H2,6,7)/t3-,4+/m1/s1
