22
gdb 120696	2.66042	1.00934	0.80516	3.1054	84.49	-0.2409	0.0133	0.2542	1523.4553	0.191992	-404.363728	-404.353141	-404.352197	-404.400321	37.383	
C	-0.0378382435	 1.3403808963	-0.4153981109	-0.383213
C	-0.0897173964	-0.1804006681	-0.2522298124	-0.170478
C	-1.5102726678	-0.6964103277	 0.0178365499	-0.190305
C	-1.5744539172	-2.1957054675	 0.218287718	 0.003568
C	-2.8613017004	-2.9559487742	 0.0239007167	-0.276792
N	-1.749053413	-3.1134484684	-0.886721342	-0.074774
C	-1.7080316436	-2.8574899955	-2.2486225504	 0.374423
C	-2.7870294607	-3.5681487813	-3.0467742824	-0.471231
O	-0.8406881051	-2.1828168632	-2.7640505558	-0.342395
H	 0.9844837538	 1.6843315921	-0.5996998454	 0.113251
H	-0.6539741156	 1.6671368707	-1.2604352609	 0.116936
H	-0.4055621927	 1.853865015	 0.4808126122	 0.106639
H	 0.288544019	-0.6718439677	-1.152903837	 0.14246
H	 0.563866487	-0.4831752227	 0.5768195408	 0.087502
H	-1.9106228324	-0.2180069895	 0.9226875898	 0.096964
H	-2.1728881125	-0.4093549766	-0.8076450873	 0.099237
H	-0.899708533	-2.5754784139	 0.9859977461	 0.09965
H	-3.0995022846	-3.8097303374	 0.6539843095	 0.122229
H	-3.723485612	-2.38675235	-0.3197573691	 0.122043
H	-3.7291347855	-3.0125630779	-2.9758106263	 0.138099
H	-2.4864503321	-3.6074388189	-4.0937937705	 0.147131
H	-2.968258632	-4.5758404835	-2.6646156625	 0.139056
60.1091	68.9154	80.6785	112.4783	153.0838	168.8188	224.3152	240.1538	322.6501	399.0341	409.8341	476.6058	588.3945	628.2636	682.8736	753.4488	829.8821	874.2905	912.8739	936.824	996.6555	1020.4107	1046.3994	1049.2754	1080.5517	1085.7987	1127.1574	1135.9019	1160.4595	1195.5926	1207.8739	1264.8785	1301.8342	1334.0121	1376.9484	1388.2048	1402.7385	1411.5795	1442.6079	1468.6191	1476.2442	1479.9184	1495.4224	1499.0775	1510.1262	1515.1077	1778.6368	3010.6747	3020.0159	3026.5644	3043.9493	3057.2998	3081.6613	3092.0361	3102.0446	3105.1424	3109.117	3111.9239	3160.3994	3178.3474
CCCC1CN1C(C)=O	CCC[C@H]1CN1C(=O)C	
InChI=1S/C7H13NO/c1-3-4-7-5-8(7)6(2)9/h7H,3-5H2,1-2H3	InChI=1S/C7H13NO/c1-3-4-7-5-8(7)6(2)9/h7H,3-5H2,1-2H3/t7-,8?/m0/s1
