18
gdb 124776	2.51367	1.38684	0.95101	2.9159	73.37	-0.2539	-0.0042	0.2497	1226.3635	0.146574	-439.085994	-439.076932	-439.075988	-439.120181	33.275	
C	 0.1462034381	 1.4173122253	-0.3017407136	-0.409441
C	 0.0226986034	-0.0370552036	 0.1642582313	-0.004425
O	 0.5188857087	-0.1890010137	 1.4911748613	-0.419355
C	-1.3783367739	-0.5846610028	 0.0578815366	 0.06635
C	-2.0923557289	-1.1729086792	 1.0521853487	-0.006967
O	-3.2959333516	-1.5663995997	 0.613075985	-0.171711
N	-3.4019270843	-1.2470983901	-0.7352675089	-0.198244
C	-2.2702787314	-0.6671521852	-1.0638773924	 0.304721
C	-2.0679622598	-0.2155610817	-2.4763685251	-0.500829
H	 1.1741550441	 1.7606574561	-0.1577490308	 0.129715
H	-0.1098751368	 1.5265036897	-1.3587807394	 0.126101
H	-0.5260905413	 2.0644640239	 0.2738615261	 0.11535
H	 0.6936240991	-0.6547396509	-0.4472786405	 0.10723
H	 0.0791916673	 0.4700359873	 2.0406584374	 0.280473
H	-1.8658185202	-1.3880836184	 2.083882905	 0.153431
H	-2.0323213668	 0.8763960975	-2.547180062	 0.140548
H	-1.129437017	-0.6035742386	-2.8857076907	 0.134709
H	-2.8930212487	-0.5712359861	-3.0963465681	 0.152343
40.6845	151.4513	166.4697	195.6752	255.3525	270.296	306.7209	321.573	357.8699	477.5981	504.0017	612.3717	634.092	698.5131	735.1007	856.3133	900.9679	917.8987	954.3675	1027.7911	1031.7077	1062.3732	1067.427	1110.5923	1156.265	1193.7188	1283.062	1296.8399	1347.5001	1398.7378	1401.662	1414.2676	1431.581	1474.3933	1482.9444	1496.0578	1496.6451	1518.8445	1646.1992	3021.3716	3035.3178	3041.3597	3097.2824	3109.1199	3128.5208	3138.2972	3276.7757	3794.4092
CC(O)C1=CON=C1C	C[C@@H](O)c1conc1C	
InChI=1S/C6H9NO2/c1-4-6(5(2)8)3-9-7-4/h3,5,8H,1-2H3	InChI=1S/C6H9NO2/c1-4-6(5(2)8)3-9-7-4/h3,5,8H,1-2H3/t5-/m1/s1
