18
gdb 16068	3.28516	1.64907	1.40574	1.8434	67.16	-0.2331	0.0573	0.2904	963.6702	0.153044	-384.891769	-384.883723	-384.882779	-384.924235	30.154	
C	 0.0565963997	 1.5559272722	-0.1388829383	-0.372658
C	 0.0255646476	 0.0415006123	 0.1136291988	-0.304301
C	-1.3633619065	-0.5286903101	 0.0557539927	 0.247318
C	-2.4518603493	-0.3520788864	 1.1120071534	-0.143764
O	-2.9732548315	-1.6937939535	 0.8700352319	-0.308213
C	-1.9022736165	-1.9555708055	-0.050345506	-0.041445
C	-2.0498505888	-1.0282431403	-1.2102352453	 0.073766
O	-3.3044305454	-0.5990895751	-1.6355287591	-0.438541
H	 1.0798624052	 1.9407946743	-0.0945066903	 0.113712
H	-0.356431853	 1.7975841236	-1.1231965467	 0.12812
H	-0.5341987646	 2.0949624985	 0.6094942886	 0.118427
H	 0.6524597291	-0.466943713	-0.6294064299	 0.101447
H	 0.4748005356	-0.1792591632	 1.0914321578	 0.09951
H	-2.0650147259	-0.2789929244	 2.1345511467	 0.111487
H	-3.2066381657	 0.4226310321	 0.9377850215	 0.113155
H	-1.4500114061	-2.9416205091	-0.0293407222	 0.103151
H	-1.3674911599	-1.195343512	-2.0402910297	 0.103073
H	-3.9388411841	-0.9849320204	-1.0155614738	 0.295756
71.6096	139.0457	204.1455	236.0294	261.8755	319.7954	357.473	441.9948	494.3567	621.7928	674.2185	779.717	797.741	830.415	899.4986	939.9368	990.7521	994.3755	1013.8581	1015.5828	1049.119	1075.7446	1108.7719	1155.9122	1174.3336	1223.7443	1263.4087	1275.6669	1312.4138	1334.6394	1361.271	1398.7495	1411.2388	1467.6031	1483.3081	1498.22	1506.0775	1512.4646	3012.8772	3029.0557	3035.3744	3048.6809	3081.3756	3103.0482	3111.1313	3145.7982	3167.2476	3746.9587
CCC12COC1C2O	CC[C@]12CO[C@H]1[C@H]2O	
InChI=1S/C6H10O2/c1-2-6-3-8-5(6)4(6)7/h4-5,7H,2-3H2,1H3	InChI=1S/C6H10O2/c1-2-6-3-8-5(6)4(6)7/h4-5,7H,2-3H2,1H3/t4-,5+,6-/m1/s1
