19
gdb 69334	3.06424	1.28109	1.09282	4.1797	80.12	-0.2666	0.0267	0.2933	1172.3511	0.158809	-382.057093	-382.048198	-382.047254	-382.090261	33.844	
C	 0.0432386775	 1.5526616888	-0.0120652823	-0.485661
C	-0.0403928443	 0.0587681358	 0.0672309527	 0.353791
C	-1.3355640982	-0.7711831468	 0.0061195332	-0.343887
C	-0.7023766461	-1.7952836942	 1.0259830036	 0.140599
C	-1.3982361243	-1.8130448062	 2.3905268676	-0.448442
C	-0.5272970968	-3.1500475419	 0.503563582	 0.248196
N	-0.3756537628	-4.2089599552	 0.0631160149	-0.349689
C	 0.5904906569	-0.9350180741	 1.0067730173	-0.124656
N	 1.1062792539	-0.7465519872	-0.3359180195	-0.356575
H	 1.0569374336	 1.8884080779	 0.2197615666	 0.139118
H	-0.2037014367	 1.9021649009	-1.0214516749	 0.128101
H	-0.6545453735	 2.0264507441	 0.6862894912	 0.118294
H	-2.2041736536	-0.2726782627	 0.4432246044	 0.11754
H	-1.6067890924	-1.1621820483	-0.9786097548	 0.117475
H	-2.3974763813	-2.2511271139	 2.3175381105	 0.138874
H	-0.8209683227	-2.3949162045	 3.1150446121	 0.139083
H	-1.4928765473	-0.790818338	 2.7688179626	 0.127308
H	 1.256173877	-0.8126384867	 1.8547817376	 0.101455
H	 0.8897378911	-1.5160529279	-0.9681662947	 0.239077
96.3347	146.4938	188.4727	199.0092	246.1093	298.2321	321.0392	333.7915	416.8389	467.8657	522.4069	586.1733	620.1004	672.5167	796.1264	830.732	893.5281	909.6695	943.5849	954.8689	989.6138	1018.5295	1058.5717	1111.6369	1129.7965	1139.8038	1161.4806	1209.6781	1235.5269	1257.4285	1267.7795	1290.1181	1402.4452	1413.0776	1450.8698	1483.6841	1485.604	1491.8541	1495.0145	1497.659	2344.3461	3031.7421	3041.2668	3057.8867	3091.7541	3113.4374	3118.2995	3120.7304	3125.1154	3169.7579	3460.8934
CC12CC(C)(C#N)C1N2	C[C@]12C[C@@](C)(C#N)[C@H]1N2	
InChI=1S/C7H10N2/c1-6(4-8)3-7(2)5(6)9-7/h5,9H,3H2,1-2H3	InChI=1S/C7H10N2/c1-6(4-8)3-7(2)5(6)9-7/h5,9H,3H2,1-2H3/t5-,6+,7+/m1/s1
