17
gdb 40775	2.82215	1.33132	1.00779	1.6883	68.61	-0.2596	0.0518	0.3115	1170.2796	0.134528	-458.884086	-458.875956	-458.875012	-458.917782	29.613	
C	 0.1159704012	 1.4771849138	 0.0346638243	-0.176056
O	 0.9914952731	 0.4300337528	-0.3893189962	-0.235284
C	-0.3354345539	 0.0812202869	 0.0141736807	 0.06704
C	-0.4238174165	-0.7426501659	 1.2696399883	 0.02368
O	-1.7942959894	-0.9197382552	 1.7076620926	-0.298413
C	-1.6947336726	-2.3645106267	 1.6860320007	-0.153889
C	-0.2781003994	-2.2609028042	 1.1341877591	 0.353205
C	 0.4799983094	-3.071890504	 0.1849674946	-0.258702
O	 0.8231129673	-3.0089253897	 1.5819804329	-0.255258
H	 0.3717654128	 1.9438616267	 0.9847868954	 0.122064
H	-0.2109761279	 2.1581185486	-0.7491673624	 0.121615
H	-0.9909227203	-0.2430023815	-0.7950058221	 0.097115
H	 0.2148593474	-0.3157548788	 2.0543513999	 0.096601
H	-1.7537255738	-2.8018260552	 2.6901459893	 0.119928
H	-2.4531664207	-2.8209610096	 1.0395811299	 0.113934
H	 0.079378503	-4.0267539372	-0.1521364998	 0.121009
H	 1.1871647003	-2.5896075709	-0.4873154373	 0.141411
50.5613	86.3008	145.0145	231.5409	292.9131	324.6259	379.5353	429.6993	501.0451	602.1647	821.3653	862.3793	866.4724	883.6655	909.0862	931.7749	971.6963	1011.0874	1018.8242	1080.0124	1101.5022	1127.0542	1146.1871	1151.0314	1162.1691	1168.4795	1181.6266	1195.7549	1250.7379	1282.5183	1309.7652	1323.8962	1451.6777	1456.5595	1512.6966	1527.4341	1541.2302	3019.807	3027.6955	3070.5755	3088.0466	3088.3429	3108.1151	3177.904	3180.5734
C1OC1C1OCC11CO1	C1O[C@H]1[C@H]1OC[C@]21CO2	
InChI=1S/C6H8O3/c1-4(7-1)5-6(2-8-5)3-9-6/h4-5H,1-3H2	InChI=1S/C6H8O3/c1-4(7-1)5-6(2-8-5)3-9-6/h4-5H,1-3H2/t4-,5-,6-/m1/s1
