19
gdb 113016	5.32951	0.84237	0.76617	3.5653	80.84	-0.2439	-0.0228	0.2211	1497.7028	0.160088	-419.253152	-419.244171	-419.243227	-419.2878	32.05	
C	 0.0252041811	 1.5863290446	 0.054949645	-0.383342
C	 0.0237242455	 0.0568779027	 0.0260309855	-0.177207
C	 0.647721002	-0.5229539351	-1.2481591701	 0.045509
C	 0.7084952759	-2.0845342558	-1.2538555498	-0.231018
N	 0.0395003656	-2.4039241911	-2.5212713866	-0.080557
C	-0.1593568733	-3.6500580609	-3.0589236416	 0.151379
O	-0.7361606373	-3.8644938134	-4.1008576381	-0.312287
C	-0.4127476089	-1.2050834751	-3.0804743177	 0.085533
N	-0.1257960367	-0.140923922	-2.4489547653	-0.263292
H	 1.0471681039	 1.9799652914	 0.0195566365	 0.112942
H	-0.5173866067	 1.9881525461	-0.8040290194	 0.145404
H	-0.4448599622	 1.9610487311	 0.9689613931	 0.111721
H	 0.5754968747	-0.3374639169	 0.889409233	 0.096441
H	-1.0033529685	-0.3209150435	 0.1112302892	 0.10255
H	 1.6559556855	-0.1041521058	-1.3615781009	 0.093746
H	 1.7310269368	-2.4705312423	-1.239710083	 0.127964
H	 0.1621793581	-2.5154327842	-0.4073458548	 0.123033
H	 0.2751006946	-4.4475367484	-2.4264042754	 0.084946
H	-0.9724735201	-1.2571246914	-4.0060846997	 0.166536
35.1516	103.9925	148.9494	177.5546	234.0969	246.2017	255.0705	343.9172	385.3205	544.2942	586.1656	725.6423	780.5936	809.7841	838.4285	923.6956	954.8303	968.7967	976.2525	1006.7818	1031.7901	1078.9816	1124.032	1159.8481	1222.9676	1226.0344	1285.0282	1288.6844	1307.1214	1324.1573	1344.5693	1386.5293	1410.0116	1415.464	1440.3216	1482.1019	1496.7376	1509.3472	1519.4125	1698.8851	1799.9369	2952.2235	3014.6108	3019.8244	3036.1865	3038.3938	3056.7066	3090.347	3103.0855	3129.6629	3231.985
CCC1CN(C=O)C=N1	CC[C@H]1CN(C=O)C=N1	
InChI=1S/C6H10N2O/c1-2-6-3-8(5-9)4-7-6/h4-6H,2-3H2,1H3	InChI=1S/C6H10N2O/c1-2-6-3-8(5-9)4-7-6/h4-6H,2-3H2,1H3/t6-/m0/s1
