24
gdb 118128	2.56793	0.98412	0.84166	1.2901	86.69	-0.2432	0.0731	0.3162	1530.172	0.2152	-405.519947	-405.508819	-405.507875	-405.557107	39.767	
C	 1.016419386	 0.9930448221	-0.3883161596	-0.382315
C	 0.3288906205	-0.1301124386	 0.371858627	-0.031788
O	-0.7113046861	-0.6390004101	-0.4380039537	-0.258899
C	-1.3577579195	-1.8084203964	 0.0611725994	 0.132262
C	-2.2999088876	-1.5188108596	 1.2317560015	-0.399178
C	-2.0227902487	-2.4818005473	-1.1385652165	-0.05404
N	-3.4737186803	-2.7346918316	-1.1104511577	-0.338855
C	-2.9278695514	-1.8022809714	-2.1083111565	 0.030564
C	-3.3524518932	-0.3551576341	-2.0477444334	-0.387946
H	 1.8317210563	 1.4153120628	 0.206978381	 0.111757
H	 1.4276633978	 0.6222284722	-1.3314964267	 0.123084
H	 0.3044883128	 1.7914135742	-0.6166310397	 0.125641
H	 1.0488611661	-0.9320512583	 0.6101915483	 0.080701
H	-0.059614292	 0.2468753414	 1.3307625063	 0.088437
H	-0.5768427287	-2.4976149043	 0.4267999184	 0.058748
H	-3.0897013589	-0.8194609242	 0.9521974098	 0.131698
H	-2.780629863	-2.444149654	 1.5588744328	 0.124073
H	-1.746122683	-1.1025302206	 2.0782958474	 0.10542
H	-1.4017846267	-3.2599657353	-1.5795548112	 0.077753
H	-3.6892689522	-3.6357435471	-1.526793986	 0.227612
H	-2.8486900443	-2.1838403091	-3.1270075222	 0.075981
H	-3.4390047978	 0.0008581053	-1.0212813547	 0.129146
H	-2.619988833	 0.2753909162	-2.5602129375	 0.122274
H	-4.3236731932	-0.2252331821	-2.5384379865	 0.107871
41.6342	58.7196	96.398	120.5152	155.2918	184.6131	216.2086	253.1259	268.5626	345.7249	354.3877	391.6217	455.3285	524.6733	665.145	749.5732	793.5717	822.5516	857.5562	876.8686	952.9617	961.9808	990.7863	1018.8577	1062.2801	1065.9874	1094.6153	1118.5785	1140.3366	1151.7195	1168.4997	1188.1343	1211.1274	1255.5776	1294.9618	1298.3976	1361.7214	1380.1842	1396.969	1402.7423	1413.0204	1427.6991	1437.6471	1464.7334	1478.5623	1483.6305	1487.7677	1490.2072	1500.4799	1501.4014	1530.0501	2942.7065	2956.9659	2993.5366	3040.0891	3043.7177	3053.816	3090.0242	3104.0276	3111.7286	3117.604	3120.6354	3121.5633	3139.2198	3153.6444	3508.7928
CCOC(C)C1NC1C	CCO[C@@H](C)[C@H]1N[C@H]1C	
InChI=1S/C7H15NO/c1-4-9-6(3)7-5(2)8-7/h5-8H,4H2,1-3H3	InChI=1S/C7H15NO/c1-4-9-6(3)7-5(2)8-7/h5-8H,4H2,1-3H3/t5-,6-,7-/m0/s1
