14
gdb 33448	2.50761	1.62418	1.14331	3.6797	73.16	-0.2559	0.0008	0.2567	1036.8299	0.099526	-399.470287	-399.462441	-399.461497	-399.502658	29.357	
C	 0.0522229127	-1.1892368195	 0.0250506439	-0.412744
C	 0.0259941082	 0.0117034512	 0.0303404421	 0.252473
C	 0.0059905334	 1.4468899297	 0.0500073455	-0.026439
C	-1.0578708892	 2.0852721547	-0.6872474616	 0.225092
N	-1.8939097549	 2.6234703686	-1.2781507198	-0.331306
C	 0.4484246624	 2.2608168252	 1.2920951879	-0.168021
C	 1.6251189938	 1.5420024563	 1.9415457262	-0.114518
O	 2.3580127957	 1.5578620793	 0.6773421811	-0.27008
C	 1.3123408084	 2.2800109591	 0.0749313565	 0.085418
H	 0.073038208	-2.251173712	 0.0059700602	 0.206745
H	-0.205283935	 2.9998684001	 1.7326320725	 0.138072
H	 2.1429834723	 2.1550626402	 2.6843430713	 0.132627
H	 1.4615639078	 0.527630147	 2.3141932947	 0.137805
H	 1.5358039464	 3.0140709401	-0.6896482206	 0.144876
124.7155	144.8674	159.7503	179.7197	346.2042	356.5719	486.9595	498.589	575.4404	587.5476	605.1664	634.8778	684.5799	754.4671	847.3877	908.7927	933.4334	961.9665	995.2036	1033.1222	1070.4206	1090.5805	1149.32	1163.9142	1241.4552	1281.0257	1296.9653	1377.4781	1501.9518	2243.7267	2352.3099	3058.2084	3119.3911	3197.1055	3223.7311	3500.0141
C#CC1(C#N)C2COC12	C#C[C@@]1(C#N)[C@H]2CO[C@@H]12	
InChI=1S/C7H5NO/c1-2-7(4-8)5-3-9-6(5)7/h1,5-6H,3H2	InChI=1S/C7H5NO/c1-2-7(4-8)5-3-9-6(5)7/h1,5-6H,3H2/t5-,6+,7+/m0/s1
