15
gdb 130227	5.98616	0.95324	0.86986	3.2406	70.33	-0.2333	-0.0137	0.2196	1287.3306	0.113317	-453.912377	-453.904622	-453.903677	-453.945223	28.76	
N	-0.0754181258	 1.4123133211	-0.129999556	-0.590068
C	 0.0571392725	 0.0461967074	 0.0449165826	 0.426549
N	-0.9260083574	-0.6736700381	 0.5438363598	-0.222039
O	-0.4109803844	-1.9722662151	 0.6606315348	-0.224807
C	 0.8513397145	-1.9871254751	 0.2077484685	 0.492016
C	 1.2215079415	-0.7441023916	-0.1981499428	-0.436437
C	 1.5860943073	-3.2622663088	 0.2441298361	-0.053647
C	 1.1777541606	-4.376424433	 1.116451723	-0.173034
O	 0.9228372254	-4.4187109517	-0.283895815	-0.222306
H	 0.3925586834	 1.7739082415	-0.9484669657	 0.255932
H	-1.0373301535	 1.721454615	-0.0820980551	 0.261986
H	 2.1709238936	-0.4310904049	-0.5999603261	 0.117388
H	 2.6336629682	-3.1737816047	-0.0384652754	 0.106881
H	 1.9372062248	-5.0670628512	 1.4804441961	 0.121125
H	 0.2996869594	-4.2550001607	 1.7465337652	 0.140461
52.6656	141.262	165.8527	285.228	313.5984	344.9143	437.5195	466.7163	629.042	639.6191	711.2465	735.8221	755.2148	799.9062	846.8354	896.2122	947.5227	996.4003	1005.6805	1043.9636	1096.1824	1138.0574	1156.2875	1165.8689	1178.513	1274.0894	1339.2244	1399.6231	1500.8319	1516.6125	1551.758	1641.5104	1669.7022	3091.049	3130.9192	3188.6254	3271.8296	3557.1087	3657.1918
NC1=NOC(=C1)C1CO1	Nc1noc(c1)[C@H]1CO1	
InChI=1S/C5H6N2O2/c6-5-1-3(9-7-5)4-2-8-4/h1,4H,2H2,(H2,6,7)	InChI=1S/C5H6N2O2/c6-5-1-3(9-7-5)4-2-8-4/h1,4H,2H2,(H2,6,7)/t4-/m1/s1
