18
gdb 111488	2.38393	1.76412	1.27248	1.7617	70.56	-0.2314	-0.0348	0.1966	1022.7615	0.148347	-439.078015	-439.07002	-439.069076	-439.110711	30.753	
O	 0.1761513339	 1.475268481	-0.1324349915	-0.417363
C	 0.0708293099	 0.0833421586	 0.1158285658	-0.081004
C	-1.3735685758	-0.441435723	 0.0687590317	-0.099887
N	-2.1645644412	-0.2257245024	 1.2880979815	-0.11256
C	-2.5169841902	 1.1851747363	 1.5334032646	-0.251318
C	-3.5025738351	 0.2887464266	 0.8792092399	-0.026185
C	-3.61062942	 0.3637452981	-0.6299949963	-0.342204
C	-2.1704689746	 0.1586212024	-1.1020749348	 0.380976
O	-1.71421787	 0.4552674685	-2.1789081256	-0.330222
H	-0.027964805	 1.6008798044	-1.0667605669	 0.298735
H	 0.6755567359	-0.4906740499	-0.5991459895	 0.105569
H	 0.474756958	-0.092074817	 1.1168186404	 0.128976
H	-1.3299481635	-1.5291783322	-0.0944106242	 0.110349
H	-2.634467394	 1.435816989	 2.5832660048	 0.12203
H	-2.0224361907	 1.9472214117	 0.9376306607	 0.138033
H	-4.3442384974	-0.098188448	 1.4447283079	 0.098563
H	-4.2309185379	-0.4470209973	-1.0330006884	 0.136923
H	-4.0104553322	 1.3041805431	-1.0177135102	 0.140589
79.2072	113.1144	194.1842	229.2076	320.7756	372.707	448.4579	494.2959	510.7455	611.6529	641.7967	678.075	741.6393	790.8719	824.038	875.4324	909.6578	965.4657	979.6763	1025.1122	1063.1576	1095.0145	1108.8967	1117.8318	1144.9003	1169.7143	1181.9184	1221.9558	1275.5355	1283.0733	1300.5717	1321.1334	1386.7921	1402.3705	1424.8798	1450.4954	1490.4135	1517.0028	1829.7444	2992.2271	3017.615	3039.2531	3097.6324	3102.3163	3118.4806	3156.9163	3206.093	3794.7839
OCC1N2CC2CC1=O	OC[C@H]1N2C[C@H]2CC1=O	
InChI=1S/C6H9NO2/c8-3-5-6(9)1-4-2-7(4)5/h4-5,8H,1-3H2	InChI=1S/C6H9NO2/c8-3-5-6(9)1-4-2-7(4)5/h4-5,8H,1-3H2/t4-,5-,7?/m1/s1
