20
gdb 18050	3.43428	2.02836	1.52647	1.3015	73.7	-0.2412	0.08	0.3211	892.2934	0.180731	-349.000344	-348.993568	-348.992624	-349.031016	27.603	
C	 0.0132298362	 1.5871257498	-0.1143609976	-0.238067
C	 1.5572201233	 1.5118952409	 0.0496627918	-0.230724
C	 1.3865642914	 0.0967060285	 0.6712176173	-0.022183
C	 1.2927005532	 0.1248116796	 2.2039712439	-0.086266
O	 0.3706293962	-0.8243645104	 2.7126430955	-0.242202
C	-0.9528497273	-0.5177344236	 2.3071230612	-0.074202
C	-1.1260728319	-0.6864207579	 0.7945285848	-0.237559
C	-0.0282018113	 0.0361002976	 0.014421679	 0.042947
H	-0.4650018913	 2.0914775671	 0.7303418682	 0.10089
H	-0.3800648197	 2.0211351949	-1.0368015966	 0.094928
H	 2.0662736547	 1.4725571816	-0.9171160539	 0.100306
H	 2.0427307666	 2.2746632681	 0.6655592007	 0.093958
H	 2.0925709498	-0.6752876238	 0.3540345394	 0.06426
H	 2.2601557416	-0.1098318816	 2.6577359815	 0.104274
H	 1.003603145	 1.1326919555	 2.5495976459	 0.080463
H	-1.6106940817	-1.2011622528	 2.8519184895	 0.102784
H	-1.2083114866	 0.5102038791	 2.618436139	 0.082795
H	-1.0787518602	-1.7581737459	 0.5665374327	 0.102168
H	-2.1204874322	-0.3375230556	 0.4879603878	 0.092005
H	 0.0564263142	-0.3984254612	-0.9869006302	 0.069426
159.9365	170.6902	308.6419	340.665	381.4992	462.2948	490.1208	633.4314	644.3608	755.6112	798.4419	866.8538	883.9687	894.1861	935.7822	950.7505	972.2712	990.2417	1039.0088	1059.4323	1084.8623	1130.7596	1148.1817	1162.7995	1200.5705	1234.2627	1247.5035	1255.3018	1264.2034	1275.4182	1307.1853	1334.2915	1351.1477	1355.2588	1383.6847	1403.2134	1424.8882	1471.0783	1482.6102	1492.5885	1499.1931	1508.2448	2949.1899	2955.0452	3019.8054	3043.4785	3050.342	3057.3691	3061.8799	3064.5687	3080.848	3083.9637	3096.2139	3113.5441
C1CC2COCCC12	C1C[C@H]2COCC[C@@H]12	
InChI=1S/C7H12O/c1-2-7-5-8-4-3-6(1)7/h6-7H,1-5H2	InChI=1S/C7H12O/c1-2-7-5-8-4-3-6(1)7/h6-7H,1-5H2/t6-,7+/m1/s1
