17
gdb 123715	3.57493	1.55887	1.10003	2.4299	78.72	-0.2225	0.023	0.2454	1055.695	0.14061	-380.913552	-380.906714	-380.90577	-380.944812	27.242	
C	-0.0157033337	 1.483585532	-0.1375428917	-0.404786
C	 1.3558081217	 2.0684927765	 0.1090899427	-0.045816
C	 2.4517315838	 1.358188699	 0.3753758219	-0.038716
C	 2.51297793	-0.1466009871	 0.4763449856	-0.40889
C	 1.168207391	-0.7579317162	 0.2360949476	 0.169581
C	 0.0476992971	-0.0031789	-0.0378264397	 0.337993
N	-0.9742292412	-0.8812626395	-0.1964142567	-0.294296
N	-0.594361919	-2.1686247058	-0.0434018137	-0.230272
C	 0.70725575	-2.0943724544	 0.2193554327	-0.114839
H	-0.7335703574	 1.9019972324	 0.5848597278	 0.121936
H	-0.3835917323	 1.8022442732	-1.1251472526	 0.121914
H	 1.4211709215	 3.1521163482	 0.0588424967	 0.08815
H	 3.3902070438	 1.8829810133	 0.5368636679	 0.088001
H	 3.2574788371	-0.5271462852	-0.2392432531	 0.119478
H	 2.9075258451	-0.4269941275	 1.4647248297	 0.119487
H	-1.9376363098	-0.6818633045	-0.4057358817	 0.266244
H	 1.2678143822	-3.0031234346	 0.3873246665	 0.10483
95.0448	225.6265	273.8522	377.9577	400.3504	472.1255	491.0711	593.3241	667.8736	680.1536	693.7729	724.3195	879.3101	880.5913	908.9231	967.29	979.981	981.0561	984.2493	1014.9858	1123.5973	1179.816	1197.8461	1205.8936	1209.9594	1228.8161	1267.4596	1316.4597	1373.8124	1411.0265	1414.9348	1449.3409	1476.8578	1478.276	1532.801	1633.6554	1729.7911	2983.5586	2990.1973	2995.8298	3000.9824	3148.2946	3171.8153	3236.8337	3670.97
C1C=CCC2=C1NN=C2	C1C=CCc2c1[nH]nc2	
InChI=1S/C7H8N2/c1-2-4-7-6(3-1)5-8-9-7/h1-2,5H,3-4H2,(H,8,9)	InChI=1S/C7H8N2/c1-2-4-7-6(3-1)5-8-9-7/h1-2,5H,3-4H2,(H,8,9)
