23
gdb 57389	2.66573	1.31246	1.20877	1.3553	84.99	-0.248	0.0668	0.3148	1193.5017	0.204299	-388.270457	-388.260827	-388.259883	-388.30423	37.992	
C	-0.3069946959	 1.4554469267	-0.058103952	-0.39554
C	 0.0293523688	-0.0348436769	 0.049129374	 0.214107
C	 0.8103140779	-0.3260140154	 1.3394099153	-0.429784
O	-1.2374348637	-0.7057540752	 0.1052066461	-0.454367
C	 0.7922394777	-0.4960442272	-1.1844489565	 0.405121
C	 0.0915299524	-0.79400086	-2.4806349914	-0.324633
C	 0.8730037232	-1.8951712295	-1.8132495597	-0.134966
C	 2.3681556087	-1.7111552768	-2.0903849833	-0.217247
C	 2.2910251513	-0.277124519	-1.4695169834	-0.313257
H	 0.6054942647	 2.0523277264	-0.1483596118	 0.112728
H	-0.9292331848	 1.637359853	-0.9380677742	 0.124749
H	-0.8550425421	 1.7879169371	 0.8283926379	 0.114963
H	 0.1929049063	-0.0738004907	 2.2061346245	 0.120184
H	 1.0772130969	-1.3877270982	 1.4010271189	 0.103619
H	 1.7353495976	 0.2546833026	 1.3969465368	 0.117663
H	-1.0612420562	-1.6386036042	 0.2709046405	 0.276468
H	-0.985642062	-0.8794090347	-2.3944253347	 0.121658
H	 0.4465785273	-0.3630440054	-3.4151712251	 0.095153
H	 0.3962616498	-2.8205092374	-1.5073937899	 0.072352
H	 3.0042069199	-2.3780078322	-1.5037157389	 0.100064
H	 2.6700689065	-1.7786439862	-3.1410362306	 0.095386
H	 2.5286019609	 0.5614773132	-2.1324869764	 0.093711
H	 2.9015990847	-0.1882552802	-0.5688247558	 0.101868
63.876	149.8372	198.5919	232.229	253.3674	277.9543	315.9125	320.4122	348.4407	398.903	426.3515	479.9876	508.8663	602.4859	709.753	789.9475	820.0889	862.8616	884.5591	925.3977	929.1726	946.9642	964.8692	974.3324	1006.3863	1023.504	1030.6459	1089.0479	1096.1977	1130.0268	1146.0592	1172.4485	1206.3515	1223.5696	1237.1264	1244.0146	1280.7256	1301.5362	1356.8312	1393.943	1397.1315	1414.7497	1477.8544	1478.7175	1483.1201	1484.7063	1498.8852	1507.05	1510.7447	3029.2717	3040.3817	3042.9375	3049.0363	3093.8624	3099.3453	3100.3076	3112.0177	3115.1363	3121.0515	3124.2736	3160.4235	3212.4728	3800.0046
CC(C)(O)C12CC1CC2	CC(C)(O)[C@]12C[C@H]1CC2	
InChI=1S/C8H14O/c1-7(2,9)8-4-3-6(8)5-8/h6,9H,3-5H2,1-2H3	InChI=1S/C8H14O/c1-7(2,9)8-4-3-6(8)5-8/h6,9H,3-5H2,1-2H3/t6-,8-/m1/s1
