18
gdb 112294	2.8703	1.31407	1.00374	4.2256	72.28	-0.2425	0.0072	0.2497	1200.4642	0.148156	-439.109114	-439.100789	-439.099845	-439.14234	31.233	
C	-0.0758386154	 1.5517414433	 0.0893686797	-0.397233
C	-0.0879465843	 0.0251716784	-0.027118532	-0.174397
C	 0.7026185976	-0.5101856428	-1.2284795103	 0.005645
N	 2.1285703807	-0.1973230853	-1.1854361595	-0.336161
C	 2.9915066986	-1.2520316696	-1.3378708795	 0.435653
O	 4.1970797744	-1.1977301934	-1.4292981403	-0.379007
C	 2.1138097341	-2.4907246294	-1.3822688589	-0.100323
O	 1.3432645384	-2.6442822295	-0.1740740905	-0.244725
C	 0.721952075	-2.036076098	-1.3039972516	 0.026089
H	 0.9347939462	 1.9375072193	 0.2619727161	 0.117415
H	-0.4674752244	 2.0267463039	-0.8172411704	 0.118173
H	-0.6925480184	 1.8818155193	 0.9301137443	 0.126168
H	 0.3208444998	-0.4336023257	 0.8785818104	 0.126297
H	-1.1229176319	-0.3253244578	-0.1262404982	 0.102566
H	 0.2581312624	-0.1200748746	-2.1573241022	 0.086783
H	 2.4852475828	 0.7355559163	-1.0571333767	 0.255306
H	 2.4639570141	-3.3994421995	-1.8582218224	 0.121943
H	-0.1167254998	-2.571564635	-1.7383321481	 0.109807
90.8534	102.2161	152.7118	216.8689	253.4969	331.4276	418.129	463.7358	477.4737	504.4878	626.5051	719.5648	763.2495	819.9365	840.9364	875.2751	889.5961	918.5218	965.6163	1002.3979	1040.2047	1065.6137	1097.3992	1134.4668	1156.4204	1238.9639	1263.0172	1288.3213	1291.1182	1319.1176	1363.0362	1390.7067	1412.4061	1419.1352	1436.697	1482.9878	1500.8955	1507.9063	1836.367	2983.0078	3031.325	3033.9283	3081.6394	3103.6719	3109.5016	3164.9282	3194.1024	3653.2043
CCC1NC(=O)C2OC12	CC[C@H]1NC(=O)[C@H]2O[C@@H]12	
InChI=1S/C6H9NO2/c1-2-3-4-5(9-4)6(8)7-3/h3-5H,2H2,1H3,(H,7,8)	InChI=1S/C6H9NO2/c1-2-3-4-5(9-4)6(8)7-3/h3-5H,2H2,1H3,(H,7,8)/t3-,4+,5+/m1/s1
