22
gdb 88435	2.45376	1.24998	1.16179	3.163	82.94	-0.2181	0.0832	0.3012	1226.3395	0.192235	-404.299941	-404.290274	-404.28933	-404.334039	37.351	
C	-1.6941842331	 0.7027623547	 1.351819114	-0.41459
C	-0.805427693	-0.469082137	 1.0038029781	 0.02682
C	 0.2222895722	-0.372924739	-0.0734324443	-0.259291
N	 0.6257521355	-0.5017074483	 1.320877979	-0.151681
C	 1.3196559758	 0.5528332209	 2.0408183079	 0.308332
C	 1.7025040741	 1.830285498	 1.3249613405	-0.476137
C	 1.0320617598	 0.5959323066	 3.5336066062	-0.36069
C	 2.3077000466	-0.0423148348	 3.0304399149	 0.106007
O	 2.447163875	-1.4214070009	 3.0620506044	-0.434721
H	-1.2291483217	 1.6614024891	 1.1117118681	 0.124415
H	-2.6327377516	 0.6344695731	 0.7913355075	 0.123237
H	-1.9434349096	 0.706805697	 2.4176577631	 0.130461
H	-1.282428563	-1.4373198276	 1.1521038336	 0.092139
H	 0.4504676603	-1.2207557775	-0.7148654284	 0.116658
H	 0.3338026487	 0.5957670904	-0.5551027721	 0.115848
H	 0.8356193551	 2.4373253437	 1.0401893593	 0.11699
H	 2.3268326918	 2.4464264644	 1.9786852158	 0.12118
H	 2.2833119984	 1.6207488738	 0.4199587598	 0.125142
H	 1.0722927027	 1.5596044667	 4.0313212014	 0.106319
H	 0.279895393	-0.0865344161	 3.9145680799	 0.11355
H	 3.2475144749	 0.4789508914	 3.1923224431	 0.090419
H	 1.8286084681	-1.7362498885	 2.3781613981	 0.279591
63.1259	143.7439	169.1418	218.6369	222.101	238.9668	286.4735	331.0092	369.7762	441.7589	463.0747	493.8206	561.4553	600.5906	637.049	787.4442	815.3283	828.571	875.1089	911.84	928.1242	951.3872	1028.827	1029.5639	1044.2062	1054.9081	1098.4912	1119.8785	1124.0619	1137.6926	1164.1536	1176.4109	1192.2815	1246.3038	1288.147	1353.9889	1368.3973	1401.6295	1413.738	1422.9545	1439.4457	1478.2399	1484.0591	1488.9682	1497.9675	1500.7187	1517.2504	3026.0548	3040.7133	3087.0279	3099.7624	3099.8444	3103.7463	3105.0789	3125.2177	3131.5022	3142.0259	3182.3136	3218.7097	3608.4943
CC1CN1C1(C)CC1O	C[C@H]1CN1[C@@]1(C)C[C@H]1O	
InChI=1S/C7H13NO/c1-5-4-8(5)7(2)3-6(7)9/h5-6,9H,3-4H2,1-2H3	InChI=1S/C7H13NO/c1-5-4-8(5)7(2)3-6(7)9/h5-6,9H,3-4H2,1-2H3/t5-,6+,7-,8?/m0/s1
