16
gdb 7426	3.36159	1.54444	1.19561	3.7887	63.49	-0.2576	-0.066	0.1917	1010.4736	0.129006	-417.084539	-417.075598	-417.074654	-417.118042	32.445	
C	 0.0459674956	 1.5978110125	 0.0574682756	-0.405513
C	-0.0227447486	 0.0582390848	 0.0427368606	 0.061495
O	-1.3578189564	-0.3884374691	 0.0454212384	-0.441853
C	 0.6922105211	-0.4910374988	-1.1822203052	 0.363274
O	 0.0571999879	-0.9818631386	-2.0962807508	-0.351722
C	 2.207120964	-0.4312912879	-1.2633171582	 0.270284
N	 2.675633553	-0.7988142317	-2.4908240337	-0.53473
N	 2.8481457251	-0.053157921	-0.2209322312	-0.503467
H	 1.0760573562	 1.9420048475	 0.1656484047	 0.142042
H	-0.3845733612	 2.0097945856	-0.8610305334	 0.116592
H	-0.5467533929	 1.9576878215	 0.901876769	 0.13301
H	 0.49019438	-0.3211092487	 0.9340168482	 0.119445
H	-1.5343739201	-0.7118572481	-0.8501686466	 0.288655
H	 2.0107986003	-1.2355109356	-3.111450334	 0.273892
H	 3.6497694711	-1.0189427688	-2.6102575429	 0.256702
H	 3.859503095	-0.0670705734	-0.3695810107	 0.211895
71.6413	76.696	199.4653	216.4253	249.918	335.2539	353.0521	367.9338	375.8187	427.3951	495.4322	526.4868	541.0043	625.569	763.4742	806.1802	882.369	919.0801	1034.7195	1059.7888	1085.2835	1107.1831	1149.5053	1169.1401	1284.6701	1336.3858	1384.347	1419.1357	1445.1433	1492.331	1498.0363	1605.0906	1716.3463	1773.2927	3043.9967	3052.7894	3120.9664	3147.807	3448.3115	3583.5435	3714.3984	3721.7722
CC(O)C(=O)C(N)=N	C[C@@H](O)C(=O)C(=N)N	
InChI=1S/C4H8N2O2/c1-2(7)3(8)4(5)6/h2,7H,1H3,(H3,5,6)	InChI=1S/C4H8N2O2/c1-2(7)3(8)4(5)6/h2,7H,1H3,(H3,5,6)/t2-/m1/s1
