19
gdb 33195	6.36983	0.71151	0.64777	3.5123	78.57	-0.1977	0.0467	0.2445	1726.3039	0.160227	-419.239826	-419.230766	-419.229822	-419.27468	32.584	
C	 0.4962833211	 1.1558300034	 0.4610541188	-0.384789
C	-0.3878025671	 0.364068919	-0.5060099838	-0.190652
C	-1.3328783252	-0.5756951258	 0.2247488345	-0.054041
O	-2.114990219	-1.2699486917	-0.747661837	-0.2717
C	-3.0032118599	-2.1437135942	-0.2393503366	 0.403082
C	-3.3642330478	-2.5545009996	 1.0191246242	-0.224381
N	-4.3663322476	-3.5050485573	 0.926455579	-0.250314
C	-4.5988427975	-3.659211271	-0.3500117535	 0.005782
N	-3.7927385047	-2.8502783176	-1.112867472	-0.336618
H	 1.1677087234	 1.8248514899	-0.0839574158	 0.122082
H	-0.1046292394	 1.7695183224	 1.1408629591	 0.121284
H	 1.1148071212	 0.4905602949	 1.0731764918	 0.121284
H	-0.9812359775	 1.0467288856	-1.1247505055	 0.111086
H	 0.2313354065	-0.2250313062	-1.192054291	 0.111086
H	-0.7766847178	-1.3049928942	 0.8310261462	 0.110053
H	-2.0010183889	-0.0208976021	 0.898979748	 0.110053
H	-2.9739429828	-2.2326978097	 1.970339245	 0.103647
H	-5.3227075054	-4.325923898	-0.7933962813	 0.126123
H	-3.7626581316	-2.7685758077	-2.11520411	 0.266934
51.3677	75.6425	106.0547	138.4588	234.0492	285.0469	315.7779	335.9528	484.4808	503.8775	672.4703	683.0463	733.2369	766.3977	775.6135	784.5182	902.3029	913.806	925.5333	1021.915	1049.7778	1075.7371	1096.827	1134.7763	1147.5977	1192.35	1269.4584	1270.614	1284.5955	1315.8523	1336.1452	1391.0686	1413.9067	1422.8015	1456.4567	1492.8568	1501.0981	1508.1827	1525.6184	1530.7331	1629.693	2994.0162	3029.7705	3034.4577	3040.3109	3075.4665	3103.5923	3112.8738	3252.6653	3265.1385	3667.6618	51.3676	75.6421	106.0547	138.4588	234.0492	285.0469	315.7779	335.9528	484.4808	503.8775	672.4704	683.0462	733.2369	766.3976	775.6138	784.5179	902.3029	913.806	925.5334	1021.9151	1049.7778	1075.7371	1096.8271	1134.7763	1147.5978	1192.3501	1269.4585	1270.6142	1284.5954	1315.8524	1336.1452	1391.0687	1413.9067	1422.8015	1456.4567	1492.8568	1501.0981	1508.1827	1525.6185	1530.7333	1629.6931	2994.0163	3029.7705	3034.4577	3040.3109	3075.4665	3103.5923	3112.8738	3252.6653	3265.1385	3667.6618
CCCOC1=CN=CN1	CCCOc1cnc[nH]1	
InChI=1S/C6H10N2O/c1-2-3-9-6-4-7-5-8-6/h4-5H,2-3H2,1H3,(H,7,8)	InChI=1S/C6H10N2O/c1-2-3-9-6-4-7-5-8-6/h4-5H,2-3H2,1H3,(H,7,8)
