18
gdb 75920	2.71326	1.57303	1.12638	0.5683	73.01	-0.2469	0.0198	0.2667	1082.4006	0.150287	-435.249541	-435.241353	-435.240409	-435.282303	31.279	
N	 0.2299998124	 1.128484966	-0.6798369808	-0.520979
C	-0.0121044098	-0.1687202577	-0.0776073499	-0.16542
C	 0.4735680805	-0.3870907133	 1.3502787912	 0.401533
N	 1.4794611723	 0.1781474078	 1.8614611942	-0.549332
O	-0.3542043907	-1.2605005146	 1.9914125256	-0.24507
C	-1.4701783555	-1.615046216	 1.1441283702	-0.148016
C	-1.4796351548	-0.5586418125	 0.0551818287	 0.33175
C	-2.5790034969	 0.4150065277	-0.1384304928	-0.286142
N	-2.373877835	-0.7075619498	-1.0808113519	-0.378602
H	 0.0903541989	 1.8512459963	 0.021860537	 0.239824
H	 1.2103977296	 1.1964817417	-0.9353731987	 0.247495
H	 0.4777474767	-0.9264280706	-0.7077916159	 0.112204
H	 1.6018378065	-0.1053079928	 2.835375244	 0.224581
H	-1.3045317663	-2.6165469802	 0.728775193	 0.120913
H	-2.3721217094	-1.6309825251	 1.7594088073	 0.126188
H	-3.4773189071	 0.344544037	 0.4689006146	 0.118423
H	-2.3181842548	 1.412419621	-0.4778431716	 0.12834
H	-1.9088695065	-0.3500228149	-1.9144954143	 0.242309
74.6556	159.9305	222.8335	239.301	259.0562	295.6906	348.4905	471.1495	489.3843	530.6638	617.3772	693.8814	773.9413	851.2178	880.2311	896.7045	937.236	947.6392	971.4319	987.9674	1003.5719	1065.0063	1073.9991	1095.7115	1132.9595	1157.354	1201.4537	1231.9059	1264.232	1278.7707	1287.8431	1338.4305	1378.632	1422.3907	1439.1364	1504.2177	1519.2467	1672.4734	1778.2704	2998.0691	3035.1599	3108.4167	3114.3433	3207.9958	3470.9581	3475.2425	3496.3062	3567.5401
NC1C(=N)OCC11CN1	N[C@H]1[C]([NH])OC[C@]21CN2	
InChI=1S/C5H9N3O/c6-3-4(7)9-2-5(3)1-8-5/h3,7-8H,1-2,6H2	InChI=1S/C5H9N3O/c6-3-4(7)9-2-5(3)1-8-5/h3,7-8H,1-2,6H2/t3-,5-/m0/s1
