12
gdb 129447	4.15029	1.32445	1.00404	1.3329	62.62	-0.2667	-0.11	0.1567	1060.7718	0.078191	-464.985693	-464.978318	-464.977374	-465.01818	26.26	
N	-0.1041180131	 1.3086115104	 0.0107293401	-0.530736
C	 0.0650845079	-0.0346738107	 0.0029154897	 0.362522
O	 1.127078738	-0.6157904552	-0.0094871691	-0.329457
C	-1.2552511227	-0.8030393625	 0.0116000735	 0.32422
N	-1.2045399548	-2.1309484803	 0.0072074034	-0.226658
C	-2.4059282049	-2.6926357844	 0.015273569	 0.116629
N	-3.5766538575	-2.0411738951	 0.0263925092	-0.1584
N	-3.5455739544	-0.7219425514	 0.0300504521	-0.047744
N	-2.3879159223	-0.0870342965	 0.0228240477	-0.229943
H	 0.7117263923	 1.8972095694	 0.0033391566	 0.273456
H	-1.0290113118	 1.7068209784	 0.0180646614	 0.285095
H	-2.4642382168	-3.777850792	 0.0125152464	 0.161018
59.8152	124.9081	218.4747	293.8457	325.3141	380.5992	422.6253	484.346	621.0313	634.8546	698.6481	754.9306	817.7218	882.9896	963.0458	1007.4184	1030.3392	1098.4071	1156.7569	1241.6533	1276.579	1375.2194	1423.4187	1539.0888	1557.9872	1597.4212	1820.3758	3182.2985	3595.0663	3736.6319
NC(=O)C1=NC=NN=N1	NC(=O)c1ncnnn1	
InChI=1S/C3H3N5O/c4-2(9)3-5-1-6-8-7-3/h1H,(H2,4,9)	InChI=1S/C3H3N5O/c4-2(9)3-5-1-6-8-7-3/h1H,(H2,4,9)
