23
gdb 59199	2.74329	1.0734	1.02826	1.2314	86.81	-0.2596	0.0773	0.3369	1350.0562	0.205311	-388.237817	-388.228354	-388.22741	-388.272117	36.592	
C	 0.0256342347	 1.3382828913	-0.3146361367	-0.40411
C	 0.0724559778	-0.1905386481	-0.2555685216	 0.060644
O	 0.8994852002	-0.7223247937	-1.2940013574	-0.440085
C	 0.6995167898	-0.6780998004	 1.0427392738	 0.100404
C	-0.0618862518	-0.6398513413	 2.4068546423	-0.088164
C	-0.8910884532	-1.8661140739	 1.9224184361	-0.236924
C	 0.5799514263	-2.1646604543	 1.5088038831	-0.076296
C	 0.976288866	-1.6829686039	 2.9470213817	 0.064527
C	 2.4009447474	-1.3086666379	 3.3290848802	-0.447045
H	 1.0313693872	 1.7568476499	-0.2050719625	 0.121452
H	-0.3834213455	 1.6798858845	-1.2729430886	 0.100711
H	-0.60972365	 1.7438120428	 0.47952862	 0.118382
H	-0.9507869364	-0.5747473584	-0.3699143147	 0.062003
H	 0.5697826327	-0.3877487885	-2.1341054256	 0.277968
H	 1.7162073	-0.2783555377	 1.0720879494	 0.064309
H	-0.4351758874	 0.2430942137	 2.9312055976	 0.060996
H	-1.3100616996	-2.5032375792	 2.7065717735	 0.085695
H	-1.6190613096	-1.7054512672	 1.1275539407	 0.091358
H	 0.9521779503	-3.0449706452	 0.9828988758	 0.071263
H	 0.5513501238	-2.3200906634	 3.7317704627	 0.058889
H	 2.9058331696	-0.6748031594	 2.5967127615	 0.122204
H	 2.4089567408	-0.7772196685	 4.2874843844	 0.11463
H	 3.0074138071	-2.2126565413	 3.4543114944	 0.117188
47.506	137.8432	169.9434	180.9804	249.866	273.7016	293.5993	307.3688	389.8579	446.0959	487.7168	546.4455	581.8246	753.4747	779.3065	826.2922	865.5788	878.0792	897.8821	902.129	995.4577	1011.5256	1024.9561	1034.5324	1055.1748	1064.8961	1080.823	1119.7148	1128.716	1136.6219	1150.2472	1165.9037	1192.5226	1204.8986	1242.773	1247.1217	1262.9611	1268.6196	1360.952	1378.3911	1402.6806	1410.6443	1426.4503	1452.5326	1492.4069	1495.879	1498.6387	1505.149	1530.4437	2996.1841	3024.9743	3027.3478	3035.2648	3059.3451	3074.665	3082.7866	3087.5889	3091.2039	3104.5627	3110.7241	3121.7021	3133.5205	3814.2791
CC(O)C1C2CC1C2C	C[C@@H](O)[C@H]1[C@H]2C[C@@H]1[C@H]2C	
InChI=1S/C8H14O/c1-4-6-3-7(4)8(6)5(2)9/h4-9H,3H2,1-2H3	InChI=1S/C8H14O/c1-4-6-3-7(4)8(6)5(2)9/h4-9H,3H2,1-2H3/t4-,5-,6-,7+,8-/m1/s1
