18
gdb 57818	4.97279	0.51862	0.49409	2.5389	80.07	-0.2521	0.0197	0.2718	2181.2659	0.145266	-439.076682	-439.066012	-439.065068	-439.115459	36.13	
C	-0.0765137096	 1.4246152153	-0.3662533192	-0.386545
C	-0.0518747902	-0.0590589266	 0.0278422023	-0.023732
O	 0.7946724868	-0.2926622373	 1.1510524851	-0.411931
C	-1.4066789428	-0.5786423125	 0.2480780649	 0.101074
C	-2.5247514922	-0.9767973261	 0.4556896648	 0.00267
C	-3.8635701058	-1.4940667904	 0.7165757129	-0.287682
N	-3.973529369	-2.9204047319	 0.4283524761	-0.269616
C	-4.9894140549	-3.4286997414	-0.3191134142	 0.161556
O	-5.9206383048	-2.7868909156	-0.7565981246	-0.320675
H	 0.9471048832	 1.7756807286	-0.5197101603	 0.127959
H	-0.6497502882	 1.5745756982	-1.2855130715	 0.129638
H	-0.5403217677	 2.0233803728	 0.4244595722	 0.117882
H	 0.4139878379	-0.6298729971	-0.7845499916	 0.121474
H	 0.3734007902	 0.1115809103	 1.9179470879	 0.282116
H	-4.1425158025	-1.290580575	 1.7597373815	 0.140544
H	-4.6121338676	-1.0005578621	 0.0881598548	 0.1768
H	-3.2146833744	-3.5236545692	 0.702468773	 0.256606
H	-4.8729922985	-4.5179303701	-0.4816200641	 0.081863
14.9746	22.5725	80.6695	115.8309	172.1337	243.9821	251.4604	268.1216	279.6753	329.252	391.6478	489.6347	522.1948	544.0621	577.618	713.3939	796.4991	900.4067	969.2132	1017.3313	1031.9553	1040.0589	1066.658	1099.0585	1175.9391	1203.1983	1256.3955	1284.5439	1336.128	1371.9753	1400.0082	1417.4618	1425.5306	1485.8285	1487.6602	1491.7887	1517.613	1803.9091	2360.2511	2945.3743	3009.5039	3038.2674	3042.402	3082.6958	3115.3386	3129.5888	3642.2242	3802.1976
CC(O)C#CCNC=O	C[C@@H](O)C#CCNC=O	
InChI=1S/C6H9NO2/c1-6(9)3-2-4-7-5-8/h5-6,9H,4H2,1H3,(H,7,8)	InChI=1S/C6H9NO2/c1-6(9)3-2-4-7-5-8/h5-6,9H,4H2,1H3,(H,7,8)/t6-/m1/s1
