25
gdb 115382	3.1109	0.95666	0.85301	1.6923	88.32	-0.2551	0.0632	0.3184	1499.7559	0.230318	-389.521183	-389.511399	-389.510455	-389.555585	37.994	
C	 0.1099889649	 1.5676117381	 0.0667177259	-0.3919
C	 0.0121435209	 0.039156371	 0.0199626143	-0.18091
C	-1.4197279928	-0.518519707	-0.0226940467	 0.065038
C	-2.1762486872	-0.1441927003	-1.3113096722	-0.208364
C	-3.5971355964	-0.7292367776	-1.3417094811	-0.222991
C	-3.6047189232	-2.2533031686	-1.1461566873	 0.147466
O	-3.1026388557	-2.9388549145	-2.2931300857	-0.444918
C	-2.8413472231	-2.6381320598	 0.131392269	-0.226461
C	-1.4238984806	-2.0474205414	 0.1565563984	-0.214382
H	 1.1520372156	 1.8889983942	 0.1606800742	 0.112243
H	-0.2950522147	 2.0341002528	-0.8365340246	 0.118674
H	-0.4396538496	 1.97230547	 0.9242037465	 0.113086
H	 0.5691959325	-0.3379695176	-0.8492909345	 0.089227
H	 0.5176150172	-0.3749082027	 0.9022921157	 0.09055
H	-1.9744180285	-0.0849017082	 0.8252433482	 0.064436
H	-2.2277429557	 0.9430231053	-1.4273970601	 0.096706
H	-1.6043658973	-0.5082212056	-2.1790847899	 0.082087
H	-4.1933369309	-0.2702481916	-0.541905098	 0.091284
H	-4.0906824028	-0.4885730753	-2.2891133346	 0.098655
H	-4.6408134451	-2.5991197501	-1.0639068688	 0.076941
H	-2.1868998018	-2.6752034459	-2.4258486562	 0.278345
H	-3.4031832533	-2.2686713284	 0.9996187882	 0.090843
H	-2.8064449584	-3.7296252674	 0.2114646151	 0.09881
H	-0.8170238552	-2.5034877817	-0.6407344252	 0.082881
H	-0.9252295391	-2.3162976576	 1.0950245295	 0.092653
73.2858	103.9759	187.487	201.6835	221.3745	236.6872	268.1185	354.5476	381.8405	400.759	441.6109	483.5002	491.7736	673.8845	758.0103	776.1272	802.5741	826.3802	898.997	918.5204	937.0431	967.2425	1008.2966	1023.3764	1036.2354	1048.3976	1079.8079	1098.4413	1121.2004	1153.8488	1160.4768	1209.4874	1231.0217	1276.8331	1285.0942	1309.9418	1318.9243	1337.683	1352.4244	1371.1835	1373.9762	1385.7271	1389.2822	1399.3705	1414.2608	1430.3931	1471.2409	1483.0303	1483.6515	1491.3425	1499.8851	1503.3631	1509.1508	2970.8657	2988.9444	2996.2699	3009.6761	3018.6438	3022.5623	3032.5679	3040.0634	3051.6525	3056.2681	3070.3867	3074.5284	3077.1359	3097.6484	3106.2547	3821.4734
CCC1CCC(O)CC1	CC[C@H]1CC[C@@H](O)CC1	
InChI=1S/C8H16O/c1-2-7-3-5-8(9)6-4-7/h7-9H,2-6H2,1H3	InChI=1S/C8H16O/c1-2-7-3-5-8(9)6-4-7/h7-9H,2-6H2,1H3/t7-,8+
