17
gdb 64664	4.05824	1.0339	1.02323	3.8866	72.14	-0.2317	0.0238	0.2555	1200.6864	0.136167	-417.962123	-417.95374	-417.952795	-417.995325	31.331	
N	-0.3326982551	 1.532361763	 0.2549216988	-0.588402
C	-0.1260314973	 0.1125012204	 0.1085589202	 0.311462
C	 1.0064968872	-0.4185156339	 0.9771178715	-0.401253
C	 2.3011192174	 0.1690892908	 0.6230851816	 0.263738
N	 3.3098564178	 0.6531387925	 0.3342325841	-0.308323
C	-1.2916858958	-0.8531080832	 0.0049528889	-0.176266
C	-2.3629765403	-0.2583147484	-0.8974509586	-0.119455
O	-1.3823337568	 0.0367679132	-1.9350985193	-0.292322
C	-0.361578487	-0.6263781894	-1.1831671208	 0.041396
H	 0.5629013324	 2.0082348013	 0.1622212278	 0.244249
H	-0.8906101878	 1.855889812	-0.5321996239	 0.24883
H	 0.7971435985	-0.1916705469	 2.0289433997	 0.167176
H	 1.0801593222	-1.5072460134	 0.8859526586	 0.153682
H	-1.4203678145	-1.7043826474	 0.6616005951	 0.101506
H	-3.0846733792	-0.9967792131	-1.2612223513	 0.122092
H	-2.8890202911	 0.63639372	-0.5464998765	 0.119862
H	 0.3366947394	-1.2580348374	-1.7228639257	 0.112029
66.1354	115.8553	194.8263	236.1979	276.8461	311.6608	344.1695	392.199	439.0982	522.666	618.9779	712.2631	780.5602	825.97	870.4392	921.3255	938.11	950.7185	975.9653	986.4415	1016.8786	1038.774	1057.7396	1102.6617	1116.7623	1164.1278	1214.5905	1238.538	1261.8972	1319.0665	1334.2364	1351.1605	1447.7508	1455.2456	1516.741	1669.3455	2361.4497	3034.9888	3045.2199	3086.1777	3089.6619	3163.4846	3190.0359	3471.0857	3542.339
NC1(CC#N)C2COC12	N[C@@]1(CC#N)[C@H]2CO[C@@H]12	
InChI=1S/C6H8N2O/c7-2-1-6(8)4-3-9-5(4)6/h4-5H,1,3,8H2	InChI=1S/C6H8N2O/c7-2-1-6(8)4-3-9-5(4)6/h4-5H,1,3,8H2/t4-,5+,6-/m0/s1
