21
gdb 89418	2.65146	1.48662	1.12987	1.5182	78.15	-0.2357	0.0704	0.3061	1160.0704	0.181221	-424.222341	-424.213029	-424.212085	-424.256022	35.752	
C	 0.1168137006	 1.5552212582	-0.1084124788	-0.390131
C	 0.0744522641	 0.0464937457	 0.0311919162	 0.096685
O	 0.6993918802	-0.5567697199	-1.1152912755	-0.316201
C	 1.1791616031	-1.8349026182	-0.754119966	 0.457192
C	 0.655816435	-2.9627719	-1.5997861657	-0.470055
C	 2.5686089632	-1.7949893882	-0.1811523762	-0.361899
C	 1.3527019317	-1.856895567	 0.7395581205	-0.148438
C	 0.7972736443	-0.541633734	 1.2797333101	 0.087681
O	 1.7541909643	 0.3173834709	 1.8775944553	-0.4283
H	 1.1481913766	 1.9142749489	-0.1113281016	 0.116755
H	-0.367817346	 1.8618966576	-1.0391411296	 0.120112
H	-0.4041376159	 2.0277314578	 0.7293462406	 0.119683
H	-0.9737829892	-0.2939068477	 0.069409344	 0.06525
H	 0.9328463012	-2.8167484963	-2.6489280586	 0.130117
H	 1.0685171554	-3.9204888579	-1.2690368445	 0.115319
H	-0.4363005009	-3.0182152781	-1.5430219609	 0.12244
H	 3.1864453234	-2.6859469122	-0.2246672444	 0.114115
H	 3.1155867438	-0.8643222655	-0.3018987195	 0.109979
H	 1.2094284179	-2.7636534308	 1.3153192994	 0.092879
H	 0.0616352615	-0.7326800822	 2.067408615	 0.08601
H	 2.5843574558	 0.2152739089	 1.4016387502	 0.280805
70.2304	156.6251	184.7388	212.8841	220.149	255.7017	275.4663	336.2764	395.3842	431.8055	490.1808	541.4819	604.9965	725.5172	740.2176	790.9085	833.6635	882.6715	887.4137	957.1165	981.248	990.3791	1010.1258	1053.536	1065.969	1084.916	1115.0727	1124.4946	1140.167	1174.5293	1231.5483	1260.709	1276.2012	1309.5656	1364.2711	1379.9167	1390.2278	1410.7358	1424.3794	1435.3678	1478.9923	1481.2169	1481.9425	1490.7566	1501.5626	2957.5404	3034.4459	3050.9847	3062.2348	3100.8235	3112.3218	3117.7471	3122.5527	3134.1138	3176.8254	3206.3927	3819.4845
CC1OC2(C)CC2C1O	C[C@H]1O[C@@]2(C)C[C@H]2[C@H]1O	
InChI=1S/C7H12O2/c1-4-6(8)5-3-7(5,2)9-4/h4-6,8H,3H2,1-2H3	InChI=1S/C7H12O2/c1-4-6(8)5-3-7(5,2)9-4/h4-6,8H,3H2,1-2H3/t4-,5+,6+,7+/m1/s1
