16
gdb 44529	4.49536	1.31847	1.18743	4.5308	76.02	-0.2421	-0.0344	0.2077	1029.4676	0.126816	-400.735937	-400.729321	-400.728377	-400.766841	26.933	
O	 0.0593518742	-0.0121888415	 0.0704111076	-0.370624
C	 0.0137735814	 1.1958743262	 0.0809011964	 0.404507
N	-1.1735893593	 1.9612250144	 0.0903435328	-0.360053
C	-0.8528393031	 3.3339990149	-0.197288372	-0.005731
C	-1.0123009806	 4.6169098679	 0.6727858326	-0.093181
C	-0.2335012554	 4.5742706709	 1.9503231966	-0.266026
C	 0.5286767794	 4.7778169368	 0.6505388618	-0.157815
C	 0.6227779206	 3.39914732	 0.0549173417	 0.265589
C	 1.1502330001	 2.1796704747	 0.177134865	-0.349912
H	-2.0075897491	 1.5099668578	-0.2554148481	 0.24421
H	-1.1008888258	 3.6130198494	-1.2310133321	 0.106433
H	-1.7652035217	 5.3734137125	 0.4879999413	 0.095537
H	-0.3279235408	 5.4589694837	 2.5730949041	 0.122026
H	-0.1138023869	 3.6465014743	 2.5005269848	 0.134187
H	 1.1370906759	 5.6507918116	 0.458298706	 0.109637
H	 2.1501662609	 1.8662290263	 0.4412704115	 0.121216
127.1912	207.6702	281.4091	375.0331	501.3172	539.3595	558.6925	610.9485	692.6448	739.7159	742.9578	776.9504	848.9926	873.1261	878.3452	901.6491	918.4116	974.0081	998.8447	1026.8668	1060.027	1083.8137	1092.3669	1121.3159	1145.8015	1180.5809	1211.765	1250.7988	1273.8377	1322.3659	1362.8171	1391.462	1484.0865	1691.226	1822.066	3007.4105	3124.1242	3186.9028	3206.4263	3214.519	3239.3881	3618.7058
O=C1NC2C3CC3C2=C1	O=C1N[C@H]2[C@H]3C[C@H]3[C]2[CH]1	
InChI=1S/C7H7NO/c9-6-2-5-3-1-4(3)7(5)8-6/h2-4,7H,1H2,(H,8,9)	InChI=1S/C7H7NO/c9-6-2-5-3-1-4(3)7(5)8-6/h2-4,7H,1H2,(H,8,9)/t3-,4+,7+/m1/s1
