21
gdb 101146	3.81568	0.89549	0.76969	2.2294	81.29	-0.2306	0.0097	0.2403	1524.9458	0.181589	-424.228512	-424.218728	-424.217783	-424.263922	35.301	
C	-0.0785353783	 1.6843282504	-0.3457335372	-0.385037
C	-0.3218182271	 0.1974442209	-0.6136290352	-0.190765
C	 0.977342192	-0.5829397088	-0.8444087617	 0.015398
O	 1.8825746566	-0.4465711661	 0.26023816	-0.427378
C	 0.7793990641	-2.0381982502	-1.1656910341	 0.284858
C	-0.3390789289	-2.7530048168	-1.2682757827	-0.225843
C	-0.0134628619	-4.1800396208	-1.6046935147	-0.104224
O	 1.4087472342	-4.2426073636	-1.6392957662	-0.266705
C	 1.9589746697	-2.9471155251	-1.4220734257	-0.142635
H	 0.5963670296	 1.8169621768	 0.5034692106	 0.130196
H	 0.3807189922	 2.1706583087	-1.2134336647	 0.115347
H	-1.0161844268	 2.2044432567	-0.1292419851	 0.109662
H	-0.8578987725	-0.2542768939	 0.2324082321	 0.090569
H	-0.9667011331	 0.0720144515	-1.4914770597	 0.103067
H	 1.5206766763	-0.1145816117	-1.678065505	 0.093282
H	 1.4847073203	-0.9038278003	 1.010418569	 0.279565
H	-1.3538242969	-2.3954270061	-1.1505128493	 0.101922
H	-0.3987281779	-4.8905260689	-0.8560214654	 0.104203
H	-0.4326593861	-4.4839751476	-2.5784950149	 0.103085
H	 2.5369020117	-2.6242859031	-2.3044330913	 0.099984
H	 2.6570377129	-2.9721150822	-0.5739656587	 0.111448
49.237	89.6797	108.0922	146.2093	173.8969	228.7721	287.3587	322.2514	347.7511	378.5253	472.7483	536.2261	707.9755	773.7967	788.3679	844.219	882.1718	924.108	938.071	972.2195	980.0039	1026.8803	1058.2151	1066.0916	1086.008	1114.901	1126.17	1170.864	1198.4509	1221.0884	1250.6963	1272.8532	1314.1637	1327.0147	1360.9887	1391.2977	1399.0917	1407.6678	1417.3772	1484.5644	1496.8092	1509.6058	1517.0991	1530.0254	1722.1987	2959.6479	2966.1078	2982.2417	3003.1675	3016.8995	3017.984	3039.1896	3061.1197	3103.9029	3125.7049	3220.3902	3790.0074
CCC(O)C1=CCOC1	CC[C@@H](O)C1=CCOC1	
InChI=1S/C7H12O2/c1-2-7(8)6-3-4-9-5-6/h3,7-8H,2,4-5H2,1H3	InChI=1S/C7H12O2/c1-2-7(8)6-3-4-9-5-6/h3,7-8H,2,4-5H2,1H3/t7-/m1/s1
