23
gdb 104036	2.64124	1.40104	1.23581	1.1819	84.76	-0.2437	0.0826	0.3263	1166.9246	0.206172	-388.286653	-388.277683	-388.276739	-388.319678	35.746	
C	-0.5627265699	 0.9283456989	 0.1685934524	-0.246925
O	-0.1421469262	-0.3872502252	 0.4484846578	-0.276105
C	 0.9940062848	-0.556956057	 1.318209062	 0.368685
C	 2.1958839575	 0.2496120903	 0.816212036	-0.451083
C	 0.624710072	-0.2360464451	 2.7973926717	-0.254929
C	 0.1128955055	-1.5325964314	 3.4047911129	-0.030878
C	-0.94540412	-2.302338091	 2.6511440114	-0.286219
C	 0.5096091801	-2.6713331145	 2.4914443218	-0.034171
C	 1.2665990411	-2.0860753648	 1.3099657914	-0.240505
H	 0.1588546282	 1.4782534893	-0.4511005369	 0.107613
H	-1.4984763037	 0.8414802476	-0.3902445759	 0.125024
H	-0.7585445124	 1.5195549795	 1.0746879545	 0.104191
H	 2.0348612319	 1.3280684837	 0.9066162992	 0.114857
H	 3.0851158846	 0.0012131249	 1.402322461	 0.116371
H	 2.4006549129	 0.019615937	-0.2344187725	 0.120667
H	 1.5235151838	 0.089308515	 3.3350015182	 0.092616
H	-0.093825793	 0.5876503196	 2.8602528809	 0.09771
H	 0.1535421378	-1.6385483473	 4.4835540971	 0.074252
H	-1.5620199469	-2.9804523902	 3.2319976529	 0.09866
H	-1.4488881515	-1.8207434966	 1.8219234674	 0.128534
H	 0.8480216234	-3.6198471567	 2.8939891006	 0.074075
H	 0.9710459517	-2.5018798178	 0.3422291338	 0.107943
H	 2.3393976381	-2.2696053082	 1.4376245723	 0.089619
102.6943	142.6938	198.3293	230.1413	264.7991	314.4436	344.4519	361.6423	383.5917	419.6181	480.9413	615.5331	643.7507	765.8587	772.5746	820.9301	850.8266	866.2905	882.3097	915.6596	959.1223	999.3696	1043.0373	1053.4416	1070.1789	1088.8938	1108.6634	1110.5959	1145.9845	1162.9457	1177.9424	1183.1554	1208.028	1215.4707	1246.0959	1283.6047	1316.1382	1344.1259	1347.8254	1397.4086	1409.3775	1469.6612	1475.2112	1481.7838	1487.8305	1491.9649	1493.7974	1508.6249	1514.8762	2990.5551	3032.2045	3036.164	3040.7483	3043.6437	3074.8297	3089.0562	3104.3608	3108.8426	3114.2697	3135.0183	3158.084	3168.6585	3230.3662
COC1(C)CC2CC2C1	CO[C@@]1(C)C[C@H]2C[C@H]2C1	
InChI=1S/C8H14O/c1-8(9-2)4-6-3-7(6)5-8/h6-7H,3-5H2,1-2H3	InChI=1S/C8H14O/c1-8(9-2)4-6-3-7(6)5-8/h6-7H,3-5H2,1-2H3/t6-,7+,8+
