17
gdb 103062	2.47174	1.52974	1.13363	4.2573	73.08	-0.2602	0.0108	0.271	1093.3805	0.136224	-417.957945	-417.949556	-417.948612	-417.991289	31.191	
O	 0.2341713689	 1.0705935323	 0.9381444519	-0.410099
C	 0.061364023	 0.0105587801	 0.0214286987	-0.159467
C	-1.3418029905	-0.5886477334	 0.078399401	 0.128752
C	-2.3182558839	 0.2746540721	-0.5595052905	 0.256713
N	-3.0414271162	 1.0033719958	-1.0916624462	-0.338929
C	-1.6543340593	-2.0489713885	 0.0543182286	-0.05414
C	-0.580489377	-2.8851218092	 0.7464787057	-0.273466
C	-0.8045245219	-1.9684749029	 1.9788088492	-0.167876
N	-1.927454372	-1.2279163696	 1.2919396489	-0.153852
H	-0.3989918457	 1.7653177501	 0.7238678037	 0.301476
H	 0.2547520604	 0.3235577661	-1.0147997298	 0.118054
H	 0.8133349335	-0.7359338314	 0.2789971968	 0.123649
H	-2.4566856979	-2.4319880102	-0.5681317194	 0.117951
H	-0.915987474	-3.9082822918	 0.9225767954	 0.127164
H	 0.4094371931	-2.9201272624	 0.2843134961	 0.118188
H	-1.2118395857	-2.4926208631	 2.844112522	 0.127195
H	 0.0128186752	-1.322839684	 2.3052593379	 0.138688
54.7106	145.2357	158.9873	198.1412	287.1399	322.3806	360.0437	436.6682	453.3441	540.3701	573.4656	679.1132	783.6598	805.0649	834.8679	861.3999	942.22	975.3474	979.9333	1008.5329	1038.7246	1077.0563	1103.6037	1138.4711	1172.2725	1212.7655	1256.477	1266.3147	1282.8337	1297.2499	1377.6717	1382.41	1423.8525	1488.7522	1497.5881	1518.6009	2352.9984	3006.0667	3066.1002	3083.2569	3119.8564	3122.2121	3141.4283	3167.7824	3800.6248
OCC1(C#N)C2CCN12	OC[C@@]1(C#N)[C@H]2CCN12	
InChI=1S/C6H8N2O/c7-3-6(4-9)5-1-2-8(5)6/h5,9H,1-2,4H2	InChI=1S/C6H8N2O/c7-3-6(4-9)5-1-2-8(5)6/h5,9H,1-2,4H2/t5-,6+,8?/m1/s1
