18
gdb 109189	3.59306	1.009	0.87721	1.0054	79.81	-0.2486	0.0167	0.2653	1366.7162	0.146751	-401.938613	-401.929477	-401.928532	-401.973558	32.916	
C	 0.3879216406	 0.6884434097	-0.6568385036	-0.381008
C	-0.3482882864	 0.3195373831	 0.6412577042	-0.272083
C	-1.7257232631	-0.2059656451	 0.3957420714	 0.41394
N	-2.8160271245	 0.3087556813	 0.7934393408	-0.30687
C	-3.8980408241	-0.5536237627	 0.3176037714	-0.201852
C	-3.1796406554	-1.7010883665	-0.4713037401	-0.07735
O	-1.7751388182	-1.3550598223	-0.3447479215	-0.258159
C	-3.4249141066	-3.0371712351	 0.0486120542	 0.330135
C	-3.6648564118	-4.1308435497	 0.4843116493	-0.462471
H	 1.3939781515	 1.0527912993	-0.4320107883	 0.119975
H	 0.4756847923	-0.1786222584	-1.3162092379	 0.136896
H	-0.1448959973	 1.4762498478	-1.1979313872	 0.127102
H	 0.2201061184	-0.4498558936	 1.1774577404	 0.125719
H	-0.442674741	 1.1856403305	 1.2993311896	 0.132537
H	-4.4761456407	-0.9446808775	 1.1596893982	 0.12839
H	-4.582322274	 0.009232752	-0.3249229492	 0.11944
H	-3.4214531289	-1.6702952916	-1.5388627026	 0.119239
H	-3.869327761	-5.1006773011	 0.8663364609	 0.206421
43.5438	56.0788	154.4188	160.6183	212.2332	237.7493	307.6972	384.9951	489.2878	529.254	617.2516	619.8949	674.0025	710.8626	750.8273	796.1689	838.572	929.8068	972.1392	992.7744	1004.5578	1036.3558	1063.4163	1086.3171	1117.3845	1203.8482	1237.746	1286.3685	1310.6528	1327.3233	1357.9541	1383.9892	1411.7991	1473.8262	1497.4572	1500.5612	1509.371	1744.3226	2240.2858	3043.5321	3044.9567	3047.2775	3053.5513	3091.5593	3110.0007	3118.4282	3133.2691	3502.1022
CCC1=NCC(O1)C#C	CCC1=NC[C@@H](O1)C#C	
InChI=1S/C7H9NO/c1-3-6-5-8-7(4-2)9-6/h1,6H,4-5H2,2H3	InChI=1S/C7H9NO/c1-3-6-5-8-7(4-2)9-6/h1,6H,4-5H2,2H3/t6-/m0/s1
