16
gdb 130404	2.9858	0.95432	0.72629	1.5253	74.67	-0.2287	-0.0906	0.1381	1518.2193	0.119722	-471.178994	-471.167969	-471.167025	-471.216317	37.58	
N	 0.0263875871	 1.6150981541	-0.0762229123	-0.580447
C	 0.2727693202	 0.2984850823	 0.1600874114	 0.343494
N	-0.0716803517	-0.365721735	 1.2134508307	-0.195767
O	 0.4444819823	-1.7007699289	 1.0837692404	-0.28963
C	 1.1052376864	-1.8291914128	-0.1063789865	 0.369012
C	 1.6949974771	-2.9522649948	-0.519187324	-0.406694
N	 0.8877587848	-4.6687559321	 2.2411835589	-0.720173
H	 1.4890004704	-4.8057233536	 3.0492640822	 0.237599
H	 0.5199780327	-3.7228235977	 2.3177550375	 0.262168
H	 0.0963239505	-5.2930256363	 2.3720845626	 0.237353
C	 1.0379369239	-0.5322052511	-0.8103085017	 0.200239
O	 1.4564325657	-0.1906213118	-1.8947684052	-0.331183
H	 0.1207556082	 1.8904506065	-1.0426461441	 0.274907
H	-0.7140287826	 2.05899037	 0.4435178881	 0.27129
H	 1.685178305	-3.8529275787	 0.0875579364	 0.182595
H	 2.1883339001	-2.93935939	-1.4838717646	 0.145238
31.7514	68.2792	102.9046	116.4571	119.6409	183.5125	246.8946	284.6725	295.7377	309.9684	345.9949	438.4802	465.9209	532.9966	577.096	581.0422	737.1241	742.2564	755.1613	838.9915	894.7418	956.9175	983.18	1072.9277	1114.3016	1131.7293	1281.3317	1422.7831	1444.8842	1612.4935	1675.2597	1683.2746	1690.6285	1708.5164	1808.5028	3141.3967	3256.0245	3461.3277	3578.0107	3578.7691	3583.5208	3696.388
NC1=NOC(C[NH3+])=C1[O-]	NC1=NOC(=C)C1=O.N	
InChI=1S/C4H7N3O2/c5-1-2-3(8)4(6)7-9-2/h8H,1,5H2,(H2,6,7)	InChI=1S/C4H4N2O2.H3N/c1-2-3(7)4(5)6-8-2;/h1H2,(H2,5,6);1H3
