15
gdb 49477	3.47231	1.1007	0.93698	4.5488	72.36	-0.2613	-0.0145	0.2468	1211.1092	0.112584	-416.789221	-416.781367	-416.780423	-416.822245	28.424	
O	 0.1869069018	 0.0014062021	 0.5641379488	-0.283678
C	 0.0839653898	 1.110933149	 0.1048315857	 0.137193
N	 1.1008466954	 1.792329805	-0.5516114466	-0.065861
C	 2.4806822244	 1.7897239664	-0.1101114066	-0.028821
C	 3.3223132852	 2.2968799954	-1.288656114	-0.262297
C	 2.485867375	 3.6409413939	-1.2603277481	-0.174008
C	 1.7656320445	 4.0380638755	-2.4602150758	 0.287434
N	 1.1923403406	 4.3567479121	-3.4118065463	-0.32025
C	 1.6581377842	 3.053303004	-0.0963346797	-0.067009
H	-0.8624793114	 1.6822772776	 0.085964584	 0.099686
H	 2.7805284995	 1.1556247996	 0.7133843695	 0.138258
H	 4.3685064059	 2.4751486051	-1.0382646534	 0.130076
H	 3.2490739651	 1.7065825924	-2.2023403489	 0.143379
H	 3.1073857268	 4.4713561308	-0.9174299821	 0.137432
H	 1.216242043	 3.5962238511	 0.7301652034	 0.128465
71.5671	128.8582	168.9211	188.5978	269.4011	330.4953	406.1146	518.9125	580.2073	645.4466	751.3492	761.9348	836.1568	864.2461	921.0835	967.0836	993.8163	1029.6467	1034.576	1039.3916	1075.6741	1115.269	1172.1909	1215.024	1246.0764	1265.0818	1283.3276	1336.3893	1413.4477	1421.5972	1477.6751	1801.1673	2359.9219	2969.0467	3089.0609	3093.9644	3155.8939	3197.9684	3221.8663
O=CN1C2CC(C#N)C12	O=CN1[C@H]2C[C@@H](C#N)[C@@H]12	
InChI=1S/C6H6N2O/c7-2-4-1-5-6(4)8(5)3-9/h3-6H,1H2	InChI=1S/C6H6N2O/c7-2-4-1-5-6(4)8(5)3-9/h3-6H,1H2/t4-,5-,6+,8?/m0/s1
