16
gdb 35210	3.47332	1.24198	1.06361	1.4895	75.82	-0.2387	0.0151	0.2538	1127.2075	0.12393	-400.71194	-400.704059	-400.703115	-400.744626	29.932	
C	-0.0973526215	-1.2141260814	 0.0915417105	-0.451082
C	-0.0745799485	-0.0112775798	 0.0636279499	 0.332332
C	-0.0098794923	 1.4173253689	 0.0233636859	-0.282711
C	 0.5453141872	 2.2146236905	 1.2120787824	-0.354855
C	 1.3389872606	 2.1131242829	-0.0382010013	 0.41064
C	 2.6845628785	 1.4075615882	-0.2240200194	-0.261228
N	 3.3736860513	 2.2100097821	-1.2501840964	-0.258522
C	 2.5965694383	 3.1733703136	-1.5126484539	 0.109379
O	 1.4008702421	 3.272800145	-0.8710298591	-0.248484
H	-0.1335842626	-2.2750071941	 0.118667512	 0.200837
H	-0.7977681115	 1.916080375	-0.5333322655	 0.128047
H	 0.0599194729	 3.1593249482	 1.4286485989	 0.135058
H	 0.8861276981	 1.6539351518	 2.0756480371	 0.135057
H	 3.2819336267	 1.3900761159	 0.6946327536	 0.12286
H	 2.5636518681	 0.3727985977	-0.5601443637	 0.138846
H	 2.7871451525	 3.9697098456	-2.222722801	 0.143827
76.7881	123.2078	146.2894	288.2445	317.515	388.2702	481.9709	514.012	537.13	580.0417	607.5429	658.9166	792.2522	812.7326	860.6747	886.9326	930.2217	951.3012	961.7451	980.5976	1039.5014	1072.0118	1077.5056	1114.0225	1134.4583	1196.0155	1215.369	1290.9815	1333.5092	1342.803	1399.7431	1476.4687	1497.5367	1709.3185	2234.4326	3038.4621	3077.3124	3137.601	3154.9219	3223.338	3233.6855	3503.7473
C#CC1CC11CN=CO1	C#C[C@H]1C[C@]21CN=CO2	
InChI=1S/C7H7NO/c1-2-6-3-7(6)4-8-5-9-7/h1,5-6H,3-4H2	InChI=1S/C7H7NO/c1-2-6-3-7(6)4-8-5-9-7/h1,5-6H,3-4H2/t6-,7+/m0/s1
