19
gdb 36939	5.00357	0.81282	0.76628	2.3316	71.8	-0.2554	0.0863	0.3417	1494.6151	0.159386	-460.133289	-460.124631	-460.123687	-460.168886	30.601	
C	-0.0401515551	 1.529973268	 0.26689396	-0.251276
C	-0.1141203814	 0.0230998528	 0.3178820311	 0.10054
C	-1.2974043544	-0.7172076	-0.1329703736	-0.181192
O	-0.1258356983	-0.6483179465	-0.9476013574	-0.239226
C	 1.371909387	 2.0267187982	-0.0377261952	 0.122887
C	 1.5110066888	 3.560482281	-0.1022050641	-0.133481
O	 2.7795123918	 3.8051561242	 0.4834999855	-0.231908
C	 2.8890060234	 2.8380322603	 1.4939412222	 0.027182
O	 2.2788404415	 1.6567793496	 1.0113064431	-0.277108
H	-0.7248167688	 1.8957658	-0.5081756193	 0.105284
H	-0.3661759865	 1.9474989664	 1.2280928886	 0.10388
H	 0.533757388	-0.4440618303	 1.0592168904	 0.109826
H	-1.5192552522	-1.6969990052	 0.2877567764	 0.115548
H	-2.1612937091	-0.1698353373	-0.5095914197	 0.110063
H	 1.7253398574	 1.5642508689	-0.9678365535	 0.102124
H	 1.5146722761	 3.9592758941	-1.1182825106	 0.123608
H	 0.7096652144	 4.0514269812	 0.4740809777	 0.092409
H	 3.9488427396	 2.6531989517	 1.6952405289	 0.119382
H	 2.382008478	 3.1748781929	 2.4171701695	 0.081457
21.3349	67.3632	80.5528	141.3877	250.3344	312.1719	335.9579	454.5835	481.2712	672.1458	741.589	792.4479	833.0145	872.5173	919.7331	957.7492	975.4208	997.4485	1032.5358	1078.8195	1100.1036	1110.4911	1127.5502	1139.9404	1160.0521	1173.3062	1182.5475	1208.8571	1250.6242	1271.9645	1287.1112	1299.6103	1349.3613	1371.8989	1400.5089	1433.3068	1447.0397	1456.7515	1510.7628	1531.5095	1544.9938	2928.5814	2972.8081	3022.0078	3031.5373	3072.7299	3076.797	3079.6891	3114.0537	3121.7414	3165.5882
C(C1CO1)C1COCO1	C([C@H]1CO1)[C@H]1COCO1	
InChI=1S/C6H10O3/c1(6-3-8-6)5-2-7-4-9-5/h5-6H,1-4H2	InChI=1S/C6H10O3/c1(6-3-8-6)5-2-7-4-9-5/h5-6H,1-4H2/t5-,6-/m0/s1
