18
gdb 107086	4.56741	0.92181	0.90358	1.377	78.3	-0.2533	0.0379	0.2912	1328.1392	0.14695	-401.866575	-401.857758	-401.856813	-401.900485	33.149	
O	 0.1449167723	 1.3166144233	-0.3538444881	-0.416435
C	 0.0856090973	-0.0051494104	 0.1622118106	-0.162394
C	-1.3260221866	-0.5020926154	 0.2553571903	 0.327249
C	-2.3670233967	-0.1483287683	 1.327736356	-0.311689
C	-2.9794744078	-1.5944005612	 1.1654122705	-0.191929
C	-4.3681081741	-1.7048794414	 0.7593420769	 0.320036
C	-5.5110830022	-1.7660981158	 0.3884385606	-0.459682
C	-1.9090849941	-1.8750799231	 0.0786171695	-0.108128
N	-1.9805636653	-0.89733412	-0.9946411889	-0.365744
H	-0.2491438284	 1.2823179777	-1.2329819394	 0.289036
H	 0.6712232364	-0.7052924261	-0.4517527878	 0.097515
H	 0.5432088264	 0.0377013624	 1.1562926492	 0.107158
H	-1.9395926353	-0.0001194654	 2.3218300332	 0.115429
H	-3.0310845603	 0.6880131844	 1.0954888682	 0.112764
H	-2.7948076013	-2.1887661209	 2.0649739414	 0.110695
H	-6.5230839712	-1.8348300854	 0.0740754965	 0.199964
H	-1.4432553475	-2.834576329	-0.1160091303	 0.101948
H	-2.9188248914	-0.5147818755	-1.1051481284	 0.234208
61.1099	82.0617	133.7496	200.7084	282.3277	313.7447	387.8717	419.1603	443.2185	508.0777	609.1632	626.0347	637.8747	713.5043	741.797	816.0318	867.8282	915.8916	925.2629	972.7925	994.5168	1033.5403	1057.7027	1074.9518	1115.8389	1120.9547	1169.7715	1193.6409	1220.0947	1244.8902	1267.8218	1309.3145	1324.5803	1374.9584	1415.4079	1454.151	1487.8409	1492.0434	2229.3843	2997.1151	3063.1237	3066.5722	3075.7196	3122.2556	3177.2235	3459.3106	3502.9281	3799.6905
OCC12CC(C#C)C1N2	OC[C@]12C[C@@H](C#C)[C@H]1N2	
InChI=1S/C7H9NO/c1-2-5-3-7(4-9)6(5)8-7/h1,5-6,8-9H,3-4H2	InChI=1S/C7H9NO/c1-2-5-3-7(4-9)6(5)8-7/h1,5-6,8-9H,3-4H2/t5-,6-,7-/m1/s1
