23
gdb 78223	2.23429	1.46859	1.20266	1.068	85.56	-0.2374	0.066	0.3034	1194.4466	0.203906	-388.262229	-388.252326	-388.251382	-388.295923	38.62	
C	-0.532174838	 1.2671362142	 0.2144300525	-0.424006
C	-0.1804762044	-0.1882530276	 0.4604694827	-0.020237
C	 1.0385651704	-0.9050923054	-0.0447319559	-0.082352
C	 0.7777695834	-0.7853139544	 1.4632909573	-0.101922
C	 2.1180778768	-0.0404988493	 1.6637723809	 0.265095
C	 2.1071603631	 1.3120210924	 2.3789916182	-0.455746
C	 3.1218824623	-0.9785351559	 2.3421432786	-0.418326
C	 2.3022831912	-0.0512501795	 0.0886487305	 0.071222
O	 3.4173309704	-0.7543042535	-0.4190985353	-0.431954
H	 0.343511781	 1.9081714004	 0.0970482459	 0.122165
H	-1.1196443834	 1.3555338516	-0.7062645324	 0.114282
H	-1.1365335616	 1.6734691504	 1.0329086029	 0.116517
H	-1.0597212045	-0.827677315	 0.3810051207	 0.086461
H	 0.9950139096	-1.7764649424	-0.6870664671	 0.089185
H	 0.4370056982	-1.5601958904	 2.1435267297	 0.07433
H	 1.8120847919	 1.1914122677	 3.4278631398	 0.112878
H	 3.1070796895	 1.7636303718	 2.3727645397	 0.102676
H	 1.4171541318	 2.0255956832	 1.9253545903	 0.11442
H	 3.1729201776	-1.9454408518	 1.8379706572	 0.128092
H	 4.129852641	-0.5484939484	 2.3469555219	 0.094924
H	 2.8304811504	-1.1441583501	 3.3855943567	 0.105568
H	 2.2437213557	 0.9461030129	-0.3732005756	 0.054581
H	 4.2028431277	-0.2169178911	-0.2764292893	 0.282146
129.2449	165.42	179.6769	194.8639	228.8655	250.7091	285.9143	295.5305	323.1917	346.2433	379.013	426.777	555.3346	597.2309	619.2592	717.2009	787.819	822.4197	890.3844	917.1781	946.2782	949.5859	977.6877	995.374	1015.9424	1036.5703	1068.7542	1078.1069	1122.3932	1141.0384	1182.1468	1196.3303	1211.8588	1231.4606	1246.7304	1287.6283	1319.2972	1352.287	1395.6892	1412.408	1416.4573	1433.1614	1446.2197	1480.3252	1482.625	1495.6646	1499.4068	1505.0612	1510.1493	2971.4428	3022.7483	3029.6708	3033.6498	3077.5767	3086.2948	3087.5982	3103.3985	3125.0561	3129.453	3136.1562	3148.7046	3185.1808	3818.7111
CC1C2C1C(C)(C)C2O	C[C@H]1[C@@H]2[C@H]1C(C)(C)[C@H]2O	
InChI=1S/C8H14O/c1-4-5-6(4)8(2,3)7(5)9/h4-7,9H,1-3H3	InChI=1S/C8H14O/c1-4-5-6(4)8(2,3)7(5)9/h4-7,9H,1-3H3/t4-,5+,6-,7-/m0/s1
