22
gdb 122324	5.3879	0.65152	0.59402	1.0839	84.41	-0.2391	0.0339	0.273	1932.7749	0.194487	-404.382346	-404.372411	-404.371466	-404.418945	34.823	
C	-0.1680192002	 1.5342440004	 0.1209222443	-0.381713
C	-0.0225182823	 0.0133565622	 0.0249580127	-0.167158
C	 0.7230692252	-0.4351494461	-1.2357399807	-0.150227
C	 0.8653068923	-1.9555172559	-1.3266788151	-0.31254
C	 1.589555596	-2.4273406874	-2.5474067323	 0.425179
N	 2.075255972	-1.7081177766	-3.4745744447	-0.31373
C	 2.6846899996	-2.6261089389	-4.4472518588	-0.186442
C	 2.4353334909	-4.0411167049	-3.8619726238	-0.110443
O	 1.7204309332	-3.784009093	-2.6347625334	-0.259933
H	 0.8115515999	 2.02479851	 0.1368276045	 0.115401
H	-0.7211403849	 1.9332717551	-0.7365637794	 0.115402
H	-0.7031278661	 1.8286529752	 1.0291335861	 0.10995
H	 0.5039481048	-0.3611369522	 0.9133383144	 0.092752
H	-1.0173531158	-0.451939933	 0.0459439911	 0.092749
H	 0.204102225	-0.0688452833	-2.1287707426	 0.110524
H	 1.7190043875	 0.0212228823	-1.2648534102	 0.110515
H	 1.3938164222	-2.351920406	-0.4492651413	 0.123996
H	-0.119394052	-2.4418133842	-1.3123550499	 0.124
H	 2.2217250653	-2.4915430027	-5.4307333468	 0.114593
H	 3.750645887	-2.4003376055	-4.5588251166	 0.114591
H	 1.8109972794	-4.6749649389	-4.4984255182	 0.116264
H	 3.353915521	-4.5830876866	-3.6188675095	 0.116269
35.8133	67.9269	92.2777	102.229	122.6617	229.8939	255.5383	269.5859	310.4071	470.6608	597.4411	721.5581	732.4506	761.8705	798.2601	830.6115	903.5808	927.9858	935.2216	976.2691	1002.0975	1026.6781	1036.1454	1072.5895	1116.8131	1130.0859	1140.3711	1194.9061	1215.6046	1238.7949	1245.8862	1288.0317	1310.3139	1325.9775	1332.469	1367.0578	1390.3663	1412.8568	1423.7687	1468.1213	1483.6139	1495.8605	1501.0488	1504.4179	1511.372	1528.2972	1741.3801	3009.0263	3021.9437	3029.9133	3035.4742	3038.1411	3044.1248	3046.1543	3052.1501	3064.7986	3083.3177	3097.6438	3098.2178	3101.9647
CCCCC1=NCCO1	CCCCC1=NCCO1	
InChI=1S/C7H13NO/c1-2-3-4-7-8-5-6-9-7/h2-6H2,1H3	InChI=1S/C7H13NO/c1-2-3-4-7-8-5-6-9-7/h2-6H2,1H3
