15
gdb 36538	4.57418	0.90022	0.87379	5.8752	73.04	-0.2754	-0.0059	0.2695	1327.2074	0.112518	-416.777744	-416.76987	-416.768926	-416.811937	28.426	
N	-1.9293812692	 0.9373552436	-0.5080127867	-0.306997
C	-0.8372521457	 1.0268809927	-0.1427404782	 0.27424
C	 0.553620647	 1.1280367422	 0.3164171191	-0.303395
N	 1.0340485305	 2.5070727979	 0.2294769632	-0.346163
C	 1.8495759259	 2.7763809408	-0.6839086619	 0.508401
O	 2.4192213419	 1.9467955485	-1.6509656196	-0.279424
C	 3.2871061831	 3.0388276471	-2.0653461732	 0.096576
C	 2.4605043851	 4.1363248008	-2.6202938721	-0.288386
C	 2.6108915535	 3.9863761052	-1.0992349262	-0.228688
H	 0.5845981608	 0.8160021076	 1.3662619439	 0.158339
H	 1.1582524425	 0.4177414956	-0.2620924285	 0.16209
H	 4.3251707732	 2.8032443451	-2.2511977588	 0.135015
H	 3.0040828866	 4.9824703185	-3.0290700474	 0.137175
H	 1.5162292689	 3.9082108377	-3.1036711163	 0.147522
H	 2.9943245458	 4.7647674066	-0.4575784371	 0.133694
18.6675	90.6695	179.3358	213.8528	322.4772	378.0603	434.4762	465.7967	602.0361	695.1278	731.7011	787.531	829.0869	893.5598	927.1927	935.1768	969.3818	1010.8355	1020.3905	1040.2056	1046.3457	1061.4994	1086.1537	1131.0044	1189.1831	1260.2672	1299.9456	1331.7409	1361.1477	1475.2333	1478.7549	1834.5584	2365.1022	3026.915	3071.2905	3130.6994	3222.8255	3227.7383	3243.7508
N#CCN=C1OC2CC12	N#CCN=C1O[C@H]2C[C@@H]12	
InChI=1S/C6H6N2O/c7-1-2-8-6-4-3-5(4)9-6/h4-5H,2-3H2	InChI=1S/C6H6N2O/c7-1-2-8-6-4-3-5(4)9-6/h4-5H,2-3H2/t4-,5+/m1/s1
