21
gdb 94578	2.9836	0.93727	0.80877	2.5761	78.61	-0.2458	-0.0117	0.2341	1485.6238	0.180226	-424.236388	-424.226323	-424.225379	-424.272647	36.321	
C	-0.2502103808	 1.4711590233	 0.4094111264	-0.473969
C	 0.0007158649	-0.0020069676	 0.1345141185	 0.382076
O	 1.1137904813	-0.4343698226	-0.0567103442	-0.288515
C	-1.2334093494	-0.9002336685	 0.1092774833	-0.331693
C	-0.9115717955	-2.3745598279	-0.0995278953	-0.017931
C	-0.4524270085	-3.125650843	 1.1848574674	-0.222238
C	-1.8994988957	-3.6620879055	 1.3705327764	-0.263063
C	-2.16859449	-3.3064489372	-0.1134427496	 0.138596
O	-3.4242527929	-2.8079208081	-0.5086721554	-0.430489
H	 0.6873979005	 2.0247510384	 0.3485397513	 0.143566
H	-0.9706653653	 1.8809854184	-0.307084086	 0.137272
H	-0.6865069669	 1.6005264273	 1.4066492043	 0.137266
H	-1.7893797068	-0.7276394367	 1.0431438688	 0.103598
H	-1.8960092709	-0.5371736967	-0.6897670225	 0.129409
H	-0.2471032229	-2.4685155245	-0.9606218913	 0.083943
H	 0.2605315169	-3.9218985833	 0.9604461649	 0.109308
H	-0.0393850996	-2.5145082195	 1.9900316214	 0.100684
H	-2.0383960255	-4.7001319447	 1.680972013	 0.102686
H	-2.4867656523	-3.0239745046	 2.0413998453	 0.088856
H	-1.9842254446	-4.1689609393	-0.7606894494	 0.093018
H	-3.7010961259	-2.1474784378	 0.1344572727	 0.27762
32.0623	71.1646	115.9473	124.7821	137.1075	214.8515	296.9368	311.6538	394.7292	419.1259	477.5659	538.1855	589.3824	649.9164	753.1358	811.5589	826.9932	870.074	907.2908	929.3408	960.9209	973.7732	981.4887	1059.6317	1086.4761	1125.3957	1144.9011	1172.8267	1193.2868	1220.9309	1233.7066	1256.1365	1265.1398	1298.823	1312.4954	1329.4265	1381.8445	1398.6951	1432.0421	1450.8534	1465.5277	1478.0454	1480.6506	1497.8286	1811.7683	2999.0537	3031.0658	3036.5733	3038.9771	3066.1786	3070.4069	3091.503	3096.7246	3103.0579	3123.5212	3152.2785	3816.337
CC(=O)CC1CCC1O	CC(=O)C[C@H]1CC[C@H]1O	
InChI=1S/C7H12O2/c1-5(8)4-6-2-3-7(6)9/h6-7,9H,2-4H2,1H3	InChI=1S/C7H12O2/c1-5(8)4-6-2-3-7(6)9/h6-7,9H,2-4H2,1H3/t6-,7-/m1/s1
