19
gdb 79090	3.00328	1.60537	1.3862	1.5185	79.51	-0.2146	0.011	0.2256	1009.3491	0.159368	-385.83831	-385.830534	-385.829589	-385.869984	31.543	
C	-0.1756248285	 1.5898692671	-0.0032504126	-0.443847
C	-0.0014408171	 0.077645243	 0.0153916662	-0.044418
C	 1.223711673	-0.5975209715	-0.6506629138	-0.060091
C	 2.1769979966	-0.1757664754	 0.5271415946	-0.147823
C	 3.1429172268	-1.3219884515	 0.7442818192	-0.106933
C	 2.398168445	-2.4163588058	 0.5678930887	-0.114778
C	 1.0186108923	-1.8733567079	 0.2516872042	-0.094937
C	 0.779385197	-0.620723165	 1.16348242	 0.393364
O	 0.4330927997	-0.7112552978	 2.4941704095	-0.472055
H	 0.7548927602	 2.1260784092	 0.20474636	 0.11707
H	-0.5386506683	 1.9283736493	-0.9796931196	 0.121395
H	-0.9169164831	 1.907285128	 0.7403297861	 0.110705
H	-0.9518582669	-0.4178180493	-0.2185042701	 0.063585
H	 1.487946563	-0.6049186307	-1.7084855363	 0.07449
H	 2.5273978386	 0.8520991528	 0.6109033732	 0.059022
H	 4.1886362142	-1.2350624392	 1.0036663081	 0.098109
H	 2.6728102095	-3.4591399405	 0.6375878645	 0.100437
H	 0.1846517678	-2.5452829042	 0.0448848192	 0.061801
H	 0.2273120202	 0.1718377892	 2.8200102589	 0.284905
173.5531	187.8629	213.5085	236.8527	271.4964	326.3553	487.0883	505.2298	557.4885	615.9986	680.2224	734.4135	785.0878	787.0876	808.7165	889.1706	907.6429	911.2943	926.9474	953.6982	973.5029	997.1572	1043.9281	1052.6539	1083.1229	1122.005	1125.9832	1137.1151	1169.7876	1206.5491	1216.7052	1258.8499	1281.081	1287.3321	1330.7965	1370.344	1410.885	1424.0062	1495.0782	1503.5318	1633.1656	3024.7879	3029.8936	3082.6655	3106.3136	3109.8466	3117.6656	3128.0471	3220.2432	3247.2744	3804.3599
CC1C2C3C=CC2C13O	C[C@H]1[C@H]2[C@@H]3C=C[C@H]2[C@]13O	
InChI=1S/C8H10O/c1-4-7-5-2-3-6(7)8(4,5)9/h2-7,9H,1H3	InChI=1S/C8H10O/c1-4-7-5-2-3-6(7)8(4,5)9/h2-7,9H,1H3/t4-,5-,6+,7-,8-/m0/s1
