20
gdb 12285	3.13149	1.489	1.23166	0.3701	71.11	-0.2478	0.0542	0.302	1085.1036	0.175441	-386.130579	-386.121323	-386.120378	-386.164978	33.468	
C	 0.3241117288	 1.397936917	 0.1728963457	-0.383488
C	 0.0589285165	-0.1036985523	 0.0260678256	-0.189748
C	 0.5285597616	-0.6336015047	-1.3185032664	 0.116555
O	 1.9632028149	-0.5220703164	-1.495157974	-0.316742
C	 2.1061051499	-1.932342267	-1.7943991059	 0.119132
C	 3.1109600965	-2.6271611651	-0.8972515732	-0.401462
C	 0.5888226117	-2.1701274602	-1.5464428372	 0.043105
O	 0.1962585532	-3.0282771304	-0.5062938148	-0.421425
H	 1.3888596844	 1.6105844966	 0.0426477174	 0.138117
H	-0.2275122888	 1.9706477712	-0.5805850329	 0.115392
H	 0.019160569	 1.7595581333	 1.1592334895	 0.111567
H	 0.5723346146	-0.6414550608	 0.8336991497	 0.078231
H	-1.011244982	-0.3206825166	 0.1312505713	 0.107111
H	 0.0018229847	-0.1035509237	-2.126065865	 0.069477
H	 2.3887055634	-2.0727887632	-2.8472013547	 0.073907
H	 2.8567999094	-2.5162673924	 0.1618171108	 0.102254
H	 3.1619147998	-3.6950453617	-1.1317359813	 0.126713
H	 4.1036977156	-2.1916111016	-1.0452323015	 0.130689
H	 0.0415547328	-2.5145750464	-2.425819854	 0.094847
H	 0.6373385541	-2.7578233654	 0.3051615308	 0.28577
36.1338	91.3879	169.3168	188.2643	225.9994	256.0153	266.9505	303.8568	389.6857	439.033	515.1309	564.1329	759.4422	791.1408	810.5162	854.75	893.2275	963.8969	975.1511	1021.525	1054.9955	1083.7646	1118.2044	1136.7862	1150.5131	1180.7239	1247.1764	1264.8925	1279.1953	1292.4375	1321.0627	1348.0519	1375.8728	1401.1573	1406.5177	1419.6242	1446.9036	1469.1475	1480.8918	1497.9457	1498.5913	1508.725	2988.2281	3001.368	3018.28	3037.4988	3037.6079	3060.77	3096.7531	3104.4889	3107.6164	3116.3282	3120.4021	3821.5237
CCC1OC(C)C1O	CC[C@H]1O[C@@H](C)[C@H]1O	
InChI=1S/C6H12O2/c1-3-5-6(7)4(2)8-5/h4-7H,3H2,1-2H3	InChI=1S/C6H12O2/c1-3-5-6(7)4(2)8-5/h4-7H,3H2,1-2H3/t4-,5+,6+/m0/s1
