13
gdb 49173	3.03233	1.42597	1.03732	3.2532	65.61	-0.2541	-0.1061	0.148	1067.0629	0.088403	-456.564256	-456.55695	-456.556005	-456.596441	26.462	
O	-0.936756012	 1.1991483995	-0.1460919922	-0.261014
C	 0.1974806222	 0.8409031453	 0.0737830618	 0.086211
C	 1.3699978742	 1.7362195033	-0.0289982248	 0.08006
C	 1.3526702045	 3.0443312979	-0.3464587869	-0.14511
C	 2.7296395095	 3.6315406189	-0.266523685	-0.005998
O	 3.2773109856	 3.5296570314	 1.0631213971	-0.235274
C	 3.6458967938	 2.5396233033	 0.0906362403	-0.086111
C	 2.782168954	 1.2842921958	 0.2049627406	 0.348318
O	 3.1622920625	 0.1579098505	 0.4020517395	-0.304476
H	 0.4375462655	-0.2002207033	 0.3645728345	 0.108575
H	 0.4608239557	 3.6090346532	-0.5906003961	 0.159005
H	 3.0230584588	 4.5061681008	-0.8360454987	 0.125565
H	 4.6942685155	 2.4825501233	-0.1827007901	 0.130249
106.1625	155.3563	173.0574	218.1906	351.6657	361.0915	450.6562	556.315	621.5323	709.438	801.2253	824.6732	842.7541	867.511	923.9387	957.1187	986.7213	1052.926	1069.6037	1098.8736	1212.846	1229.6571	1294.5791	1311.4837	1384.2671	1429.5995	1646.8634	1792.5513	1833.1355	2952.0797	3179.134	3190.214	3219.0455
O=CC1=CC2OC2C1=O	O=CC1=C[C@H]2O[C@H]2C1=O	
InChI=1S/C6H4O3/c7-2-3-1-4-6(9-4)5(3)8/h1-2,4,6H	InChI=1S/C6H4O3/c7-2-3-1-4-6(9-4)5(3)8/h1-2,4,6H/t4-,6-/m1/s1
