16
gdb 53856	4.38777	0.74349	0.64101	6.0218	72.04	-0.2617	-0.0696	0.1921	1631.974	0.123143	-434.111493	-434.101829	-434.100884	-434.147356	33.683	
N	-0.0456830867	 1.3322279796	 0.1810560011	-0.534908
C	 0.081825248	-0.0184022783	 0.0568029336	 0.27095
N	 1.1330956478	-0.7444331093	-0.0254806085	-0.509367
C	-1.2656434095	-0.7266901357	 0.0419185531	 0.379349
O	-2.29094145	-0.0785096173	 0.0395656222	-0.324679
C	-1.2520517991	-2.2391832984	 0.0227006963	-0.296158
C	-2.6776376274	-2.8095550887	-0.0225050828	-0.347994
C	-2.6840868008	-4.2698750035	-0.0323774952	 0.256938
N	-2.6797209637	-5.4252963919	-0.0397973437	-0.303305
H	 0.7402812765	 1.9355350364	 0.0113784675	 0.258475
H	-0.9749844449	 1.7115097054	 0.0835249829	 0.273917
H	 1.9882531926	-0.1847509338	-0.014962372	 0.212826
H	-0.652153883	-2.5743905182	-0.8287269673	 0.169023
H	-0.7042449531	-2.5938730691	 0.9019759476	 0.165498
H	-3.2544698858	-2.4547084096	 0.8373462669	 0.165163
H	-3.2035067909	-2.4439811476	-0.9102086618	 0.164271
42.5437	67.4154	91.7004	102.3557	227.9624	282.3404	288.4669	379.9275	386.8012	409.1971	498.5518	536.8158	564.0542	614.2307	661.1476	798.3582	811.9125	878.3336	960.117	1026.9014	1030.9949	1077.6338	1112.9108	1146.3128	1172.1157	1291.5082	1295.4074	1381.048	1435.661	1437.6982	1462.787	1602.8541	1720.8365	1789.9339	2365.0771	3061.0478	3073.0356	3092.017	3110.6336	3452.266	3589.525	3722.9635
NC(=N)C(=O)CCC#N	NC(=N)C(=O)CCC#N	
InChI=1S/C5H7N3O/c6-3-1-2-4(9)5(7)8/h1-2H2,(H3,7,8)	InChI=1S/C5H7N3O/c6-3-1-2-4(9)5(7)8/h1-2H2,(H3,7,8)
