20
gdb 83547	3.08305	1.47273	1.29105	1.2296	78.01	-0.2397	0.0604	0.3001	1051.4013	0.173242	-403.105223	-403.097485	-403.096541	-403.136965	31.482	
O	 0.1534230947	 1.4882644362	-0.1156810224	-0.454018
C	 0.0510680444	 0.0946200433	-0.0284352196	 0.179691
C	 0.2147974872	-0.6499047495	 1.3397340126	-0.174205
C	-0.8858360705	 0.0113430412	 2.1981072461	-0.237626
C	-2.0594743498	 0.0153033299	 1.1545987055	-0.236677
C	-1.3358331345	-0.6258081879	-0.0483782179	-0.153356
C	-0.5807189188	-1.7668940615	 0.6479824066	 0.45068
C	-0.1134286282	-3.0617872729	 0.1323529882	-0.350293
N	-1.1602136	-2.9837513848	 1.1886329778	-0.400319
H	-0.4860527359	 1.888596515	 0.4815744956	 0.284604
H	 0.7268239368	-0.3093465903	-0.784180694	 0.092834
H	 1.1910284647	-0.8191756424	 1.7951959153	 0.062338
H	-1.1248789067	-0.5741412356	 3.0895118162	 0.102461
H	-0.6022038545	 1.0139501035	 2.5344538513	 0.094445
H	-2.9045378454	-0.5941887239	 1.4814110374	 0.118682
H	-2.4407902923	 1.0188438248	 0.9367961492	 0.089986
H	-1.9008475206	-0.7746734808	-0.9676709113	 0.067415
H	-0.4665256915	-3.4374510555	-0.8244827703	 0.121337
H	 0.8794145262	-3.4054592501	 0.4132316681	 0.112928
H	-0.7496575055	-3.2018190189	 2.0944847558	 0.229093
153.9744	202.3783	254.1688	256.2831	272.3753	277.484	459.6621	462.7072	570.2039	647.3329	715.3605	785.3695	791.8773	847.1243	864.5235	890.1174	905.8214	931.7215	964.1008	972.1969	991.5487	1003.2302	1017.3355	1055.5994	1094.6331	1127.0038	1136.3263	1158.6065	1179.0772	1185.0004	1245.1699	1248.9449	1257.0329	1258.6239	1268.153	1298.7073	1318.9409	1323.6744	1434.1012	1451.1318	1496.5698	1511.805	1528.123	3040.768	3053.139	3089.6579	3101.4687	3103.6896	3109.736	3113.8458	3128.4499	3184.9577	3481.969	3822.7548
OC1C2CCC1C21CN1	O[C@H]1[C@H]2CC[C@@H]1[C@]12CN1	
InChI=1S/C7H11NO/c9-6-4-1-2-5(6)7(4)3-8-7/h4-6,8-9H,1-3H2	InChI=1S/C7H11NO/c9-6-4-1-2-5(6)7(4)3-8-7/h4-6,8-9H,1-3H2/t4-,5+,6+,7-
