18
gdb 129632	2.99503	1.24149	0.9237	3.6802	75.14	-0.1842	0.0353	0.2194	1240.3901	0.149634	-435.275852	-435.266824	-435.26588	-435.310179	33.269	
N	-0.3796111758	 1.472958069	-0.280261966	-0.624605
C	-0.192150908	 0.0921582015	-0.0974413696	 0.089288
C	-1.1410992464	-0.9234052046	-0.0912847677	 0.312724
C	-2.6381449299	-0.9368309464	-0.1626819969	-0.33012
C	-3.2470165244	-0.2927817641	-1.4110371286	-0.068136
O	-3.1667618451	 1.1238256345	-1.2667741764	-0.404272
N	-0.4241710079	-2.0826463787	 0.0378500544	-0.258796
N	 0.8983840373	-1.8971614271	 0.1370306191	-0.234498
C	 1.0471135791	-0.5771712764	 0.0459928349	-0.045384
H	 0.0685691693	 2.0283867865	 0.4374313917	 0.234606
H	-1.3614040019	 1.7112627865	-0.3595977529	 0.24723
H	-2.9845382458	-1.976346093	-0.1139557397	 0.10073
H	-3.0752935499	-0.4279741435	 0.7073563181	 0.127161
H	-2.7101006241	-0.6312656437	-2.3069247038	 0.10564
H	-4.2994218546	-0.6006028576	-1.5043476004	 0.093149
H	-3.2542763969	 1.527645361	-2.1348951601	 0.295624
H	-0.7911001668	-3.0182789448	 0.0778592925	 0.261803
H	 2.034058232	-0.1389110889	 0.0856338014	 0.097853
32.1596	150.5658	154.3122	212.8114	235.7625	283.0254	322.265	345.4558	423.9725	436.8411	477.2914	639.7395	688.9078	697.1646	718.3223	797.4614	867.5406	871.1411	954.4363	963.1216	1048.7064	1072.6802	1103.6196	1159.0155	1176.0346	1244.1627	1254.5891	1271.7836	1291.649	1333.4695	1376.4082	1412.216	1443.5448	1448.3323	1466.8665	1515.039	1536.8902	1625.3707	1658.301	2984.8762	3013.3113	3039.7073	3061.5023	3239.111	3513.1917	3610.5691	3668.4471	3839.9064
NC1=C(CCO)NN=C1	Nc1c(CCO)[nH]nc1	
InChI=1S/C5H9N3O/c6-4-3-7-8-5(4)1-2-9/h3,9H,1-2,6H2,(H,7,8)	InChI=1S/C5H9N3O/c6-4-3-7-8-5(4)1-2-9/h3,9H,1-2,6H2,(H,7,8)
