14
gdb 16716	6.24423	1.41577	1.26156	1.7049	72.32	-0.2333	-0.0354	0.1979	930.7946	0.106933	-345.361167	-345.354504	-345.35356	-345.391849	25.897	
C	 0.0723120167	-1.173142901	 0.0751146362	-0.412997
C	-0.0154233233	 0.0283975761	 0.0359429082	 0.223058
C	-0.0590970559	 1.4399443754	-0.0227962986	 0.178207
C	-1.16041383	 2.2146871062	-0.0451562822	-0.197649
C	-0.7850905726	 3.6543202424	-0.0090335517	 0.010346
O	-0.0534715613	 4.0211393821	 1.1869187472	-0.253185
C	 0.6884241024	 3.7099200109	 0.0086144242	 0.029962
C	 1.2162376726	 2.2834345233	-0.0385104811	-0.344402
H	 0.1325142858	-2.232463371	 0.1134173291	 0.195835
H	-2.1791326032	 1.8505736517	-0.0498097229	 0.110826
H	-1.4227299962	 4.4325998714	-0.4156438638	 0.100541
H	 1.2602644464	 4.5294900789	-0.4178753474	 0.099585
H	 1.8608520248	 2.0552214725	 0.8169471685	 0.137232
H	 1.801327574	 2.0980088511	-0.9468576457	 0.122643
124.0528	159.2262	304.0297	366.9232	478.7636	523.0526	536.174	588.6501	603.1623	641.4259	718.3615	817.9829	849.4521	862.0186	884.2335	925.5258	967.4599	1017.7226	1027.4812	1107.6017	1171.4042	1186.7191	1248.3927	1275.0842	1304.5033	1338.2461	1404.9691	1459.4121	1645.6358	2220.3119	3043.1915	3084.8411	3150.7142	3171.9643	3225.317	3504.1398
C#CC1=CC2OC2C1	C#CC1=C[C@H]2O[C@H]2C1	
InChI=1S/C7H6O/c1-2-5-3-6-7(4-5)8-6/h1,3,6-7H,4H2	InChI=1S/C7H6O/c1-2-5-3-6-7(4-5)8-6/h1,3,6-7H,4H2/t6-,7+/m1/s1
