23
gdb 115391	3.2306	0.99497	0.88885	1.9272	81.75	-0.2492	0.0639	0.3131	1413.9384	0.206474	-425.437501	-425.427937	-425.426993	-425.471819	36.353	
C	 0.0570528772	 1.3604144004	-0.0958937247	-0.241587
O	-0.0062324729	-0.0256926987	 0.1435833649	-0.246698
C	-1.3071912667	-0.5874199361	 0.070600866	 0.158042
C	-1.7976252736	-0.7597544676	-1.3760964755	-0.231918
C	-3.1542972918	-1.4814929153	-1.4264638904	-0.222023
C	-3.1141922539	-2.8369939002	-0.7022470964	 0.147497
O	-2.3562824436	-3.8038524554	-1.4262298661	-0.444147
C	-2.6027829059	-2.6658938094	 0.7377018898	-0.228483
C	-1.2515134668	-1.9371661875	 0.7881204429	-0.227431
H	 1.0889900851	 1.6712335747	 0.0866955486	 0.126462
H	-0.2065440166	 1.6286621696	-1.1294072496	 0.106274
H	-0.6049783202	 1.9208796744	 0.5833925637	 0.101923
H	-2.0164137311	 0.0701276888	 0.6064078044	 0.058089
H	-1.8754417347	 0.2105471392	-1.876919222	 0.096009
H	-1.0373926403	-1.3289128517	-1.9285124469	 0.09461
H	-3.9197276312	-0.8526631879	-0.9525819044	 0.093223
H	-3.4650224657	-1.6376897288	-2.4642513903	 0.103768
H	-4.1252955028	-3.257259404	-0.6752575428	 0.079202
H	-1.4429930309	-3.5038638464	-1.4695501239	 0.280398
H	-3.347330163	-2.0955992315	 1.3087590273	 0.093459
H	-2.5228699224	-3.6503806598	 1.2092490704	 0.104228
H	-0.4677008064	-2.5439445393	 0.314305067	 0.095868
H	-0.9301921919	-1.7848233377	 1.822917478	 0.103235
74.6962	100.165	181.706	197.8112	211.4268	232.8536	292.613	362.4472	385.8119	411.8352	473.3561	492.3153	498.0047	679.9323	777.2473	804.2617	831.284	910.4768	938.7732	947.9145	988.1122	1036.1187	1041.7082	1077.532	1087.6767	1126.8328	1146.6121	1149.9061	1181.8913	1199.5771	1214.6916	1246.7689	1278.2741	1289.9586	1328.3359	1347.1961	1351.3398	1370.1437	1383.1943	1385.8604	1406.939	1430.3857	1472.6518	1479.4684	1484.784	1491.3688	1492.1298	1507.7198	1512.9914	2932.0846	2974.0781	3015.6047	3020.2422	3021.8832	3023.4349	3027.0722	3054.8468	3073.3461	3079.7384	3081.241	3082.6966	3108.8207	3821.3833
COC1CCC(O)CC1	CO[C@H]1CC[C@@H](O)CC1	
InChI=1S/C7H14O2/c1-9-7-4-2-6(8)3-5-7/h6-8H,2-5H2,1H3	InChI=1S/C7H14O2/c1-9-7-4-2-6(8)3-5-7/h6-8H,2-5H2,1H3/t6-,7+
