19
gdb 68136	3.81401	1.21408	1.08882	4.8035	80.51	-0.2414	0.024	0.2654	1154.4185	0.161191	-382.068538	-382.060577	-382.059632	-382.100595	31.707	
C	-0.0356154618	 1.5264783236	 0.0251399775	-0.499629
C	 0.0316063031	 0.0189262965	 0.0231067577	 0.294607
C	 0.9873223173	-0.7870357202	-0.9162266642	-0.294902
C	 0.6676168506	-1.9179477649	 0.1121751592	 0.21623
C	 0.6682039077	-0.8017064881	 1.193859843	-0.271156
N	-0.7862108494	-2.1733490938	-0.0349503027	-0.334566
C	-1.282063339	-0.766931823	-0.1681678664	-0.201056
C	 1.4777291426	-3.1137857242	 0.2207771374	 0.17849
N	 2.1465885245	-4.0538848101	 0.2897210981	-0.342606
H	 0.9521571568	 1.9695020062	 0.1860976368	 0.122029
H	-0.4219218071	 1.9049541174	-0.928034817	 0.12248
H	-0.6987548628	 1.8886564831	 0.8188288708	 0.124697
H	 0.6835299836	-0.9597983434	-1.9526935905	 0.099052
H	 2.0208451119	-0.4391224666	-0.8678549543	 0.11565
H	 1.6732138787	-0.4644739463	 1.4503519391	 0.115543
H	 0.0707958009	-0.9950852828	 2.0867938515	 0.117109
H	-0.9549656859	-2.6934407441	-0.8908146831	 0.227231
H	-2.0200598052	-0.5406643142	 0.6092680386	 0.109527
H	-1.7413245964	-0.5756992449	-1.1443904115	 0.10127
142.2106	147.1398	214.5747	265.7265	295.6505	359.1393	451.6467	491.8795	511.7816	558.474	569.3746	589.3285	684.2886	807.3267	848.609	862.8691	918.4537	935.3922	964.2706	995.711	1004.3985	1015.1983	1040.4892	1093.5328	1120.6602	1152.3479	1174.4535	1189.5913	1242.036	1258.4198	1271.4479	1276.9539	1370.4576	1408.4134	1417.1957	1477.4405	1492.0225	1493.2925	1506.3806	1528.2396	2359.8522	3026.9417	3031.6681	3057.3824	3071.0093	3078.1409	3091.5061	3101.3833	3129.002	3148.5658	3512.3796
CC12CC(C1)(NC2)C#N	C[C@@]12C[C@@](C1)(NC2)C#N	
InChI=1S/C7H10N2/c1-6-2-7(3-6,4-8)9-5-6/h9H,2-3,5H2,1H3	InChI=1S/C7H10N2/c1-6-2-7(3-6,4-8)9-5-6/h9H,2-3,5H2,1H3/t6-,7+
