20
gdb 98982	5.05325	0.70579	0.62887	5.554	78.49	-0.2406	-0.0164	0.2242	1820.7813	0.168098	-440.357909	-440.34702	-440.346076	-440.395877	37.051	
C	-0.1670573641	 1.4321528161	 0.2986690832	-0.371717
C	 0.040988514	-0.0404182675	-0.0443630265	-0.315052
C	 0.7894050324	-0.2311797243	-1.364196698	 0.431248
O	 1.1696875039	 0.6804737594	-2.0518100989	-0.301502
N	 0.9817033084	-1.584883299	-1.6814018826	-0.395625
C	 1.6217652695	-2.1321439664	-2.8043145662	 0.431249
O	 2.1138693185	-1.4744759503	-3.6839998468	-0.301502
C	 1.6256306712	-3.6612559422	-2.787838651	-0.315051
C	 2.322098537	-4.254276329	-4.0095902221	-0.371717
H	 0.7910109972	 1.9501160424	 0.3835912946	 0.13811
H	-0.7406217389	 1.9355880527	-0.4829785279	 0.138109
H	-0.7039274544	 1.5327171446	 1.2458855824	 0.110136
H	 0.6037800086	-0.5513121367	 0.7487561721	 0.122162
H	-0.9212728195	-0.5657855212	-0.1138961628	 0.122142
H	 0.6120627834	-2.2494470341	-1.0178185896	 0.248348
H	 2.1103718635	-3.9954330799	-1.8603994501	 0.122152
H	 0.5854448383	-4.0085809236	-2.7233008084	 0.122153
H	 1.8293439295	-3.9345833608	-4.9306692467	 0.138105
H	 3.3610027688	-3.9209661425	-4.064129944	 0.138114
H	 2.3073181431	-5.3467370078	-3.9663247705	 0.110136
36.6796	44.2013	59.5675	94.5344	117.3625	200.0562	208.6303	243.9921	297.001	324.1155	399.843	540.9684	558.7396	618.9642	635.2095	686.28	814.147	820.4477	837.3562	945.2644	999.9241	1011.4153	1083.8762	1095.8396	1097.3657	1099.5057	1163.4451	1166.9333	1284.87	1284.8727	1361.2684	1368.8957	1415.9504	1416.2373	1460.4878	1464.0503	1491.9578	1492.0122	1498.3271	1498.7547	1501.7359	1808.9677	1862.7689	3015.6797	3016.142	3047.0991	3047.4216	3055.1123	3055.2622	3127.2338	3127.3017	3134.9805	3135.0272	3612.3571
CCC(=O)NC(=O)CC	CCC(=O)NC(=O)CC	
InChI=1S/C6H11NO2/c1-3-5(8)7-6(9)4-2/h3-4H2,1-2H3,(H,7,8,9)	InChI=1S/C6H11NO2/c1-3-5(8)7-6(9)4-2/h3-4H2,1-2H3,(H,7,8,9)
