21
gdb 57289	3.57417	0.68497	0.68103	1.9574	90.	-0.2452	0.0295	0.2748	1799.1216	0.179205	-387.047691	-387.03707	-387.036125	-387.086119	38.139	
C	-0.1621515046	 1.5505874452	-0.021063259	-0.391324
C	 0.0275984975	 0.0170530168	 0.0157153467	 0.067976
C	 0.8009842043	-0.3812883008	 1.2933422812	-0.391103
C	-1.3531104942	-0.6784519465	 0.005188778	-0.390142
C	 0.7871461178	-0.4050876936	-1.1672544923	 0.187007
C	 1.4079745498	-0.7621466718	-2.137097247	-0.00676
C	 2.1428684167	-1.1536577577	-3.309051003	-0.114731
C	 3.0627080255	-2.3087848931	-3.3066414639	-0.160556
O	 1.7911986926	-2.4016324575	-3.93438414	-0.216381
H	 0.8030577345	 2.0649562111	-0.0181668038	 0.120123
H	-0.7078490642	 1.8557464104	-0.9182595999	 0.122125
H	-0.7296940058	 1.8788940662	 0.8562457898	 0.111566
H	 0.2416746424	-0.071883541	 2.1828098442	 0.111218
H	 0.9485766682	-1.4639237538	 1.3391067674	 0.12117
H	 1.7838290844	 0.0976717749	 1.3212525829	 0.119813
H	-1.9187187463	-0.4112132544	-0.8916342608	 0.123585
H	-1.2432498619	-1.7662152081	 0.0255809117	 0.123936
H	-1.9323205612	-0.3731228844	 0.883254263	 0.110569
H	 2.3464424228	-0.3551945326	-4.0222764656	 0.11376
H	 3.9229784042	-2.3046671365	-3.9753234111	 0.116675
H	 3.1786570073	-2.8850392129	-2.3906327985	 0.121474
3.6907	79.7399	88.0202	187.5892	201.735	214.3283	270.4753	272.1966	317.3828	351.2604	355.062	479.9669	498.2579	557.1245	564.6964	649.8858	798.1322	832.3931	892.5029	931.1476	931.968	965.4232	980.3801	1049.1068	1049.386	1077.7105	1117.3175	1156.0522	1167.3709	1222.4602	1222.9534	1271.9222	1299.848	1394.8419	1395.1627	1406.7078	1427.977	1474.1695	1485.0129	1485.3023	1498.0203	1498.4458	1517.5396	1519.7367	2356.4132	3032.174	3032.723	3038.9356	3082.2384	3104.4031	3105.3522	3109.5291	3111.2067	3114.7511	3118.1906	3120.102	3175.3904
CC(C)(C)C#CC1CO1	CC(C)(C)C#C[C@H]1CO1	
InChI=1S/C8H12O/c1-8(2,3)5-4-7-6-9-7/h7H,6H2,1-3H3	InChI=1S/C8H12O/c1-8(2,3)5-4-7-6-9-7/h7H,6H2,1-3H3/t7-/m0/s1
