20
gdb 109438	2.18048	1.45927	1.09109	2.0305	77.4	-0.2511	0.0197	0.2708	1214.5714	0.168305	-440.285164	-440.27522	-440.274275	-440.319866	36.176	
C	-0.1467181059	 1.4049512321	-0.2829733102	-0.24998
O	-0.2136555037	 0.1617498234	 0.40093641	-0.243028
C	-1.3827286755	-0.5494735191	 0.131401249	-0.047107
C	-1.4785663263	-1.2909077529	-1.1961575501	 0.410166
N	-1.4325764185	-0.9435374184	-2.402398754	-0.558769
O	-1.6136439725	-2.5280472744	-0.6188103572	-0.289526
C	-1.4381436025	-1.9750971969	 0.7527986982	 0.363323
C	-0.138181495	-2.4756353224	 1.3529375075	-0.422155
C	-2.6609278348	-2.2860809036	 1.5954150329	-0.437156
H	 0.8000437786	 1.86883838	 0.0011726742	 0.127979
H	-0.180676315	 1.2650775011	-1.3692166766	 0.151975
H	-0.9749902574	 2.0651865585	 0.0166274726	 0.106458
H	-2.2778745728	 0.0548975389	 0.3449829065	 0.086367
H	-1.4976220893	-1.7521846173	-3.024621582	 0.225775
H	 0.7078515	-2.2355098222	 0.707454485	 0.138387
H	 0.0338596902	-2.0059169307	 2.3257027731	 0.128757
H	-0.1869949746	-3.5597363908	 1.4924113904	 0.122755
H	-2.7491010111	-3.3641392026	 1.7605062903	 0.131051
H	-2.5816415009	-1.7956803916	 2.5709706252	 0.128517
H	-3.574438763	-1.938253771	 1.1048590449	 0.12621
72.4694	106.3182	163.274	178.3907	192.7434	222.7006	250.242	301.5078	329.9258	349.7574	406.549	447.5866	549.9371	616.1777	686.2222	820.0871	859.0479	875.6893	926.9391	949.7577	984.8372	1009.8846	1033.3281	1041.9354	1152.1173	1166.8542	1185.1709	1196.687	1240.0173	1278.3973	1291.4158	1312.0403	1386.839	1406.6989	1419.5049	1473.3261	1477.5519	1480.9319	1486.0488	1494.7772	1501.9863	1514.9111	1814.3819	2985.4497	2991.0537	3038.9371	3049.8529	3072.0995	3111.8558	3117.1717	3120.5128	3129.7336	3144.6963	3460.8071
COC1C(=N)OC1(C)C	CO[C@H]1[C]([NH])OC1(C)C	
InChI=1S/C6H11NO2/c1-6(2)4(8-3)5(7)9-6/h4,7H,1-3H3	InChI=1S/C6H11NO2/c1-6(2)4(8-3)5(7)9-6/h4,7H,1-3H3/t4-/m0/s1
