21
gdb 96337	2.01025	1.47892	0.92436	1.8411	74.53	-0.2419	0.0708	0.3127	1278.3136	0.183109	-461.355131	-461.345976	-461.345032	-461.388694	35.166	
O	-0.1444290535	 1.453309878	 0.0876228412	-0.440788
C	 0.0192480229	 0.0387206842	-0.0047112053	 0.120206
C	 0.778516729	-0.5007040518	 1.2204695613	-0.251104
C	 1.4068233394	-1.8915977277	 1.0279725231	-0.075426
O	 0.6716657152	-2.7848426112	 0.2095029641	-0.243717
C	-0.7077347216	-2.9109067878	 0.4982271746	-0.106916
C	-1.5378702224	-1.9986153942	-0.4178637421	 0.091205
O	-2.9237223859	-2.3029859255	-0.2972613772	-0.431397
C	-1.4069655059	-0.5106909841	-0.1031545406	-0.175294
H	 0.7301271283	 1.8503857135	 0.1467796173	 0.277168
H	 0.5779818484	-0.2173650732	-0.9198494126	 0.071232
H	 1.594181443	 0.1903113049	 1.4711404561	 0.086704
H	 0.1006992031	-0.487142726	 2.0815488094	 0.10988
H	 2.373258122	-1.796028394	 0.5217745422	 0.108437
H	 1.598458877	-2.3442035401	 2.0142989784	 0.091903
H	-0.9802401543	-3.9561257603	 0.299277667	 0.089253
H	-0.9350459185	-2.7111670794	 1.5551860066	 0.098378
H	-1.1845444661	-2.1814651859	-1.4454754221	 0.073725
H	-3.0614614694	-3.1995754744	-0.619532826	 0.28284
H	-1.9209238276	-0.3108491081	 0.845387281	 0.109522
H	-1.938989013	 0.0554197828	-0.8731882766	 0.11419
103.617	137.0928	181.5615	242.9	277.8775	290.6341	293.6211	352.6676	366.2886	399.9799	455.3672	494.3116	516.3268	610.6875	815.1836	862.8373	900.1866	903.4604	941.402	1015.7611	1030.9779	1052.422	1069.1017	1099.6203	1104.2483	1123.442	1172.8828	1201.2496	1235.0934	1261.0156	1277.6804	1290.1232	1308.9686	1331.219	1341.4431	1350.7141	1396.3939	1401.9886	1419.9258	1435.6514	1443.4735	1482.4869	1493.2039	1502.4094	1512.5661	2966.3423	2973.1298	2973.8185	2998.2387	3021.9804	3039.0011	3043.3332	3055.1802	3076.5063	3094.9435	3814.352	3818.5241
OC1CCOCC(O)C1	O[C@H]1CCOC[C@@H](O)C1	
InChI=1S/C6H12O3/c7-5-1-2-9-4-6(8)3-5/h5-8H,1-4H2	InChI=1S/C6H12O3/c7-5-1-2-9-4-6(8)3-5/h5-8H,1-4H2/t5-,6-/m0/s1
