19
gdb 77722	2.74419	1.63716	1.50938	1.1605	73.89	-0.2231	0.0716	0.2948	990.0653	0.159413	-422.96934	-422.961549	-422.960605	-423.001166	30.842	
C	-0.1189074827	 1.4942131912	-0.0180326433	-0.424322
C	 0.0682624362	-0.0039397725	 0.0518852861	-0.103276
C	 1.3751428911	-0.7229242341	-0.2000922921	 0.2722
C	 2.6438761443	-0.0286800012	 0.3318445086	-0.296516
C	 2.0081524433	-0.041040072	 1.7689273483	-0.296517
C	 0.7655248964	-0.7347741118	 1.1779739657	 0.272199
O	 0.3788731011	-2.0575560713	 1.4348977822	-0.284546
C	 1.1079392632	-2.8428299153	 0.4873996098	-0.00256
O	 1.3135600317	-2.0393882336	-0.6779959943	-0.284546
H	 0.7469628806	 2.0377161483	 0.3696982579	 0.12192
H	-0.2753400276	 1.814682871	-1.053239799	 0.126125
H	-0.9921456412	 1.8007476176	 0.5670464522	 0.126124
H	-0.7654441338	-0.5898089308	-0.3219622836	 0.108571
H	 3.5191697577	-0.6766053451	 0.2566855816	 0.116882
H	 2.8889249396	 0.9422384354	-0.1079098265	 0.106056
H	 2.5454675779	-0.6955376187	 2.4577818951	 0.116882
H	 1.8414455229	 0.9218727513	 2.2599700135	 0.106056
H	 2.0770960327	-3.1503501242	 0.9134843871	 0.094493
H	 0.5137005266	-3.7195396942	 0.2169862908	 0.124773
176.1094	179.1635	211.0779	221.093	240.6724	377.6424	385.3978	471.3219	542.4009	679.426	689.8922	746.7811	758.5442	763.0992	836.1856	912.3478	942.6553	949.7873	978.5367	993.1382	1019.7065	1079.1121	1101.8396	1115.5876	1157.3801	1160.6075	1186.1556	1213.6889	1230.3478	1233.0103	1261.3772	1277.5943	1298.7148	1409.8436	1411.1952	1435.3678	1465.3581	1488.5319	1494.537	1498.7108	1534.2986	2966.5895	3037.6982	3055.418	3060.9904	3100.2511	3100.9393	3110.4449	3112.4974	3128.7059	3172.3417
CC1C23CCC12OCO3	C[C@H]1[C@@]23CC[C@@]12OCO3	
InChI=1S/C7H10O2/c1-5-6-2-3-7(5,6)9-4-8-6/h5H,2-4H2,1H3	InChI=1S/C7H10O2/c1-5-6-2-3-7(5,6)9-4-8-6/h5H,2-4H2,1H3/t5-,6-,7+
