20
gdb 87253	3.5576	1.02826	0.91941	2.4715	77.46	-0.2297	0.0097	0.2394	1337.0748	0.169806	-440.277016	-440.267581	-440.266637	-440.311318	35.336	
C	 0.4065498227	 1.438710105	 0.2170759068	-0.403033
C	 0.2557240747	-0.0642602388	 0.1506280154	-0.047518
C	 1.4676215716	-0.968980226	 0.2456201591	-0.34591
C	 0.4690607319	-0.9053572301	 1.3863820098	 0.406686
O	 0.8107927786	-0.1991194801	 2.5358944416	-0.479411
C	-0.4330393249	-2.0996125268	 1.6108469647	-0.162859
O	 0.2521009665	-3.3708422246	 1.8024700041	-0.196814
C	 0.9816875744	-3.557700214	 2.8955076839	 0.153284
N	 1.2359845411	-2.6673804274	 3.7659047288	-0.481599
H	 1.1528000128	 1.7188131899	 0.9630309845	 0.137526
H	 0.7137136373	 1.8420855744	-0.7540437607	 0.109071
H	-0.537524516	 1.9183540147	 0.4971418301	 0.114421
H	-0.5301694087	-0.4099381022	-0.5174701028	 0.077012
H	 1.5143096689	-1.860786973	-0.3707334499	 0.106777
H	 2.4231733604	-0.4931196876	 0.437649784	 0.114218
H	 1.0929882008	-0.874195588	 3.1838101796	 0.292586
H	-1.0709214282	-1.9164690178	 2.4812981581	 0.130173
H	-1.0537282224	-2.2965385195	 0.7354256024	 0.118621
H	 1.3267762042	-4.5951212953	 2.9288377699	 0.118538
H	 1.8034480844	-3.0446161628	 4.5195372805	 0.23823
58.0307	131.9659	143.1957	182.1703	223.033	265.1211	287.4412	347.6498	368.1096	416.3143	453.7827	588.4648	663.5057	717.171	738.2489	820.3301	835.7688	862.7458	904.9656	920.8088	942.389	982.2643	1026.0539	1040.3305	1045.2062	1096.8116	1112.6216	1139.1949	1190.9055	1246.489	1267.3999	1318.6168	1350.4631	1383.9237	1402.8959	1412.03	1419.2695	1455.7654	1473.2274	1492.1385	1498.6105	1522.6605	1709.7814	3034.4403	3060.0258	3090.7511	3095.8474	3117.6464	3127.0742	3130.0589	3139.0446	3219.3051	3527.4941	3536.6842
CC1CC1(O)COC=N	C[C@H]1C[C@]1(O)CO[CH][NH]	
InChI=1S/C6H11NO2/c1-5-2-6(5,8)3-9-4-7/h4-5,7-8H,2-3H2,1H3	InChI=1S/C6H11NO2/c1-5-2-6(5,8)3-9-4-7/h4-5,7-8H,2-3H2,1H3/t5-,6-/m0/s1
