16
gdb 124322	4.40953	1.09279	0.88531	0.9964	74.19	-0.2635	-0.059	0.2045	1281.2993	0.123329	-434.105221	-434.096443	-434.095499	-434.139586	30.554	
C	-0.1128633254	 1.5081733154	 0.0360559886	-0.485828
C	 0.0740416293	 0.0180553925	-0.059567552	 0.433321
O	 1.126647084	-0.5526800074	-0.1804951588	-0.30041
N	-1.1249378656	-0.7481511213	 0.002143912	-0.012942
C	-1.2454197225	-2.1081280009	-0.0608919937	-0.159686
C	-2.5877795085	-2.3430223804	 0.0414913607	 0.294247
C	-3.3502148279	-3.6251852028	 0.037707816	-0.481715
N	-3.223461541	-1.1231718956	 0.1617723722	-0.233472
N	-2.3537954209	-0.1725228165	 0.1385115214	-0.137402
H	 0.8682671256	 1.9781942398	-0.0187545814	 0.149426
H	-0.7547243268	 1.8648700598	-0.7734604177	 0.169049
H	-0.6132631998	 1.7714103475	 0.9712775645	 0.169135
H	-0.3837807795	-2.7427521463	-0.1689674556	 0.171161
H	-3.9190005073	-3.7433450073	 0.9653487455	 0.1473
H	-4.0678554219	-3.6497559705	-0.7883630044	 0.147283
H	-2.6778341718	-4.479867806	-0.0649842172	 0.130532
65.2773	80.6284	115.9289	135.2722	179.14	298.9599	326.632	392.2113	516.129	579.2584	617.7595	657.5293	715.6991	717.3852	833.9432	951.2891	994.8653	1026.6065	1044.4896	1060.133	1067.7012	1078.6174	1209.5409	1251.6281	1279.0707	1384.8039	1393.2591	1420.9765	1440.4017	1458.7866	1467.5711	1476.8719	1493.3282	1615.8702	1832.6346	3045.0081	3065.2997	3102.7945	3129.8922	3132.679	3173.7684	3305.67
CC(=O)N1C=C(C)N=N1	CC(=O)n1cc(C)nn1	
InChI=1S/C5H7N3O/c1-4-3-8(5(2)9)7-6-4/h3H,1-2H3	InChI=1S/C5H7N3O/c1-4-3-8(5(2)9)7-6-4/h3H,1-2H3
