20
gdb 22191	2.42093	0.78035	0.59883	1.0885	91.25	-0.2271	-0.0193	0.2077	1896.0791	0.167297	-403.096304	-403.085038	-403.084094	-403.134618	38.469	
C	-0.1190644848	 1.5720793966	 0.0117541915	-0.39104
C	 0.0061838274	 0.0463179202	 0.0024733821	-0.160808
C	-1.3601813112	-0.6434607	 0.0114768749	-0.262431
C	-1.3271806698	-2.157408418	 0.0030812801	 0.151752
N	-0.1792254219	-2.7367447319	-0.0109879933	-0.172392
O	-0.2810222683	-4.1257284659	-0.0174272831	-0.393281
C	-2.5754263124	-2.8441910856	 0.0113791883	 0.065119
C	-3.6621847138	-3.3684963659	 0.0189961887	 0.107456
C	-4.9592292088	-4.024058998	 0.0279036926	-0.503658
H	 0.8660140217	 2.0486924837	 0.0051582304	 0.112431
H	-0.6683817796	 1.9339963533	-0.864905091	 0.112336
H	-0.6520024581	 1.9245984889	 0.9022443454	 0.112335
H	 0.5702591824	-0.2799304231	-0.8776104594	 0.109595
H	 0.5864508271	-0.2892212518	 0.8684276882	 0.109583
H	-1.937776967	-0.3250794385	 0.8905501754	 0.116667
H	-1.9539480398	-0.3157706543	-0.8532913639	 0.116672
H	 0.6437338496	-4.3962763207	-0.0276878257	 0.305413
H	-4.8523530364	-5.1139900484	 0.0217551136	 0.15711
H	-5.5352494523	-3.7482914295	 0.9183780033	 0.153568
H	-5.551598304	-3.7399348612	-0.8491176181	 0.153573
30.7025	56.7689	69.0194	78.985	155.4055	164.186	247.9675	270.0152	283.6302	330.022	339.1285	360.6486	439.1461	474.7085	633.6166	643.9362	734.5619	745.0563	877.1698	907.9657	1012.6585	1035.8672	1047.891	1052.5988	1060.3784	1121.069	1122.4314	1251.4592	1255.4733	1318.5808	1325.302	1396.1128	1399.8822	1412.3542	1413.1321	1471.4738	1473.5852	1475.1816	1487.1451	1501.093	1508.1594	1684.7254	2348.1478	3010.9631	3027.2034	3027.4999	3034.2552	3049.1859	3074.6575	3087.0246	3093.724	3100.0955	3102.1124	3811.0158
CCCC(=NO)C#CC	CCCC(=NO)C#CC	
InChI=1S/C7H11NO/c1-3-5-7(8-9)6-4-2/h9H,3,5H2,1-2H3	InChI=1S/C7H11NO/c1-3-5-7(8-9)6-4-2/h9H,3,5H2,1-2H3
