19
gdb 38760	2.3587	2.31735	1.84942	1.0765	72.9	-0.2371	0.0752	0.3124	858.3701	0.163382	-423.025979	-423.019737	-423.018793	-423.056173	26.994	
C	-0.0033954984	 1.5916657373	-0.1477205181	-0.270334
C	 1.5403662988	 1.5526863922	-0.027345031	 0.098704
O	 2.0031617544	 1.7313195118	 1.3089389328	-0.275917
C	 1.9063904303	 0.4701994421	 1.9855393794	 0.059402
C	 2.3132065097	-0.5614071071	 0.9231853893	-0.232483
C	 1.5095470904	 0.0067071987	-0.2411158748	-0.074008
C	-0.0292227272	 0.053008243	 0.0775985453	 0.106954
O	-0.3320304092	-0.3887673548	 1.3883810901	-0.269208
C	 0.4608408293	 0.1846095166	 2.4267491466	-0.088178
H	-0.540079734	 2.2226060879	 0.5642210273	 0.109598
H	-0.324555691	 1.842639078	-1.1632537061	 0.101087
H	 2.1284359367	 2.1996414648	-0.6814276406	 0.074344
H	 2.5621373537	 0.5305868618	 2.8575569663	 0.081549
H	 3.3889262941	-0.5329039913	 0.7296560311	 0.104216
H	 2.0183014006	-1.5795947232	 1.1886180385	 0.113426
H	 1.7646962299	-0.3620470501	-1.2343393134	 0.070312
H	-0.6872182638	-0.52266113	-0.5758656299	 0.081972
H	 0.4518597261	-0.5470402222	 3.241882033	 0.106658
H	 0.0127229994	 1.1181935343	 2.7966454543	 0.101906
199.4847	318.5023	359.5806	398.4804	447.1952	517.8264	578.3154	622.2027	747.8039	793.1875	821.7843	836.275	854.5771	875.0495	924.7585	936.2168	949.7528	981.8106	1011.4816	1015.1161	1046.6297	1057.8543	1103.3397	1115.1639	1140.3851	1174.476	1206.5848	1223.0432	1252.8531	1266.4143	1272.4897	1277.4424	1318.8217	1322.6243	1344.89	1370.8702	1377.0735	1404.8053	1460.0134	1477.6871	1499.8696	3002.2387	3056.7842	3062.3771	3067.8895	3086.7916	3090.3421	3092.2182	3116.9846	3117.8278	3120.1844
C1C2OC3CC2C1OC3	C1[C@H]2O[C@@H]3C[C@H]2[C@H]1OC3	
InChI=1S/C7H10O2/c1-4-3-8-6-2-7(9-4)5(1)6/h4-7H,1-3H2	InChI=1S/C7H10O2/c1-4-3-8-6-2-7(9-4)5(1)6/h4-7H,1-3H2/t4-,5+,6+,7-/m1/s1
