17
gdb 54388	2.58958	1.44471	1.2137	2.9676	74.04	-0.2425	-0.0266	0.2159	1082.121	0.134539	-421.814279	-421.805851	-421.804907	-421.848101	30.841	
C	-0.0559864682	 1.4527513181	 0.1542293096	-0.500083
C	 0.0431378477	-0.05638438	 0.0774088138	 0.250201
O	 1.0971247288	-0.6528784841	 0.07486436	-0.294446
C	-1.2590404045	-0.7947187625	 0.0559744734	 0.120251
C	-2.4299685633	-0.7364126962	-0.9987712621	-0.274264
C	-2.9471854275	-1.7757210852	 0.0574376977	-0.176641
C	-1.4832147944	-2.3395878755	 0.0668503543	-0.268976
C	-2.4320987174	-0.7596065241	 1.0793280027	 0.428681
O	-2.7401903666	-0.2041476202	 2.0851762942	-0.321953
H	 0.9420733781	 1.8904916967	 0.1904360063	 0.144039
H	-0.6038462292	 1.8480848616	-0.7086396395	 0.138702
H	-0.6242675931	 1.734897407	 1.0487825031	 0.162314
H	-2.9796654415	 0.2004165023	-1.104264754	 0.121068
H	-2.1688528515	-1.1724333428	-1.9657727157	 0.122046
H	-3.8799877228	-2.3337887143	 0.0388345843	 0.104173
H	-1.1877121285	-2.8386159944	-0.8579705064	 0.119164
H	-1.1536164562	-2.8878507763	 0.9496598983	 0.125725
41.9517	121.32	151.2939	170.0084	195.4121	346.9056	385.4315	511.8759	524.5554	583.714	629.1513	734.7953	754.5748	792.7481	810.6474	908.4341	928.3674	967.2772	999.729	1016.3132	1035.5862	1042.5543	1077.4591	1127.9734	1139.5861	1146.4171	1187.0969	1198.7758	1239.8666	1345.9094	1387.5689	1464.56	1472.8511	1495.5515	1531.1041	1797.2319	1915.7155	3033.0145	3066.3625	3078.3024	3094.2498	3141.2765	3152.6627	3154.432	3154.9727
CC(=O)C12CC(C1)C2=O	CC(=O)[C@@]12C[C@@H](C1)C2=O	
InChI=1S/C7H8O2/c1-4(8)7-2-5(3-7)6(7)9/h5H,2-3H2,1H3	InChI=1S/C7H8O2/c1-4(8)7-2-5(3-7)6(7)9/h5H,2-3H2,1H3/t5-,7+
