20
gdb 38182	3.80231	1.19693	1.12605	2.3086	77.9	-0.2265	0.0781	0.3046	1162.2863	0.172491	-403.076665	-403.06877	-403.067826	-403.109651	30.205	
C	 0.2011410633	 1.53208764	 0.0028760722	-0.247686
C	 1.3612499717	 0.6284605676	-0.0872499804	-0.016539
C	 1.7226854895	 0.055912175	 1.2828374696	-0.279059
C	 0.2639599954	-0.4816708789	 1.3228502288	 0.027532
C	-0.6705484607	-0.1116712495	 2.4544651677	 0.136548
C	-0.3705958285	-0.7118033388	 3.8473711016	-0.294148
C	-0.3900002207	 0.7520792589	 4.3270832164	-0.061981
O	-0.510524568	 1.2370964332	 2.9736135128	-0.286315
N	-0.0523392885	 0.0711726512	-0.0478157683	-0.160343
H	 0.0045944523	 2.0799275015	 0.9183493875	 0.149723
H	-0.1180371208	 2.0243184231	-0.9107984828	 0.114756
H	 1.9723335276	 0.5447986219	-0.9801103577	 0.091175
H	 2.4702706531	-0.7382515159	 1.2514271078	 0.105049
H	 2.0035383822	 0.7892046115	 2.0431141189	 0.111469
H	 0.2378679247	-1.5742782117	 1.2381667186	 0.086076
H	-1.7059489554	-0.2682524431	 2.1190986927	 0.086858
H	-1.1272780996	-1.3775363492	 4.2640160446	 0.113157
H	 0.6089528793	-1.1908835703	 3.9158233484	 0.113419
H	-1.2619470055	 1.027351994	 4.9341376627	 0.103801
H	 0.5162694886	 1.1242670398	 4.8177455491	 0.106506
74.9503	90.1174	160.5905	205.4904	278.8452	358.3014	462.7666	596.2947	693.1173	745.7651	767.2692	783.0041	811.3139	856.5417	906.7968	925.6043	956.823	967.1601	994.1512	995.3586	1033.8566	1058.0913	1087.7838	1111.232	1120.0382	1137.989	1152.8327	1168.916	1172.2353	1215.8869	1227.0026	1254.077	1269.1071	1279.9374	1281.2781	1345.4092	1360.9531	1377.0002	1391.0501	1484.7346	1490.317	1508.1412	1530.1987	3002.4471	3016.6176	3039.1546	3060.4691	3066.1566	3075.8414	3122.7124	3126.2692	3133.573	3163.334	3219.6808
C1C2CC(C3CCO3)N12	C1[C@H]2C[C@@H]([C@H]3CCO3)N12	
InChI=1S/C7H11NO/c1-2-9-7(1)6-3-5-4-8(5)6/h5-7H,1-4H2	InChI=1S/C7H11NO/c1-2-9-7(1)6-3-5-4-8(5)6/h5-7H,1-4H2/t5-,6+,7-,8?/m1/s1
