16
gdb 36048	2.5099	1.3066	1.00866	3.0035	68.32	-0.2763	0.0212	0.2975	1174.4745	0.122807	-437.848425	-437.839889	-437.838944	-437.882602	30.474	
N	-0.3201929986	-0.4166292476	 1.7831570729	-0.306989
C	-0.1296473075	 0.1586428744	 0.7994309475	 0.26279
C	 0.141806761	 0.9000725536	-0.4303707518	-0.413314
C	 1.2926484567	 1.8926864727	-0.2676032592	 0.377464
C	 2.6742451571	 1.4603585285	-0.5133607321	-0.21625
O	 1.9442440241	 2.2128962184	-1.4914006246	-0.267893
C	 1.0095235621	 3.038513261	 0.6612728546	-0.012802
C	 1.387033557	 4.4114364248	 0.3143197951	-0.16883
O	 0.0311118024	 3.9689384539	 0.1917750631	-0.23684
H	 0.3823772547	 0.1988359159	-1.2347907888	 0.163068
H	-0.7582621508	 1.4500489498	-0.7270319311	 0.179014
H	 3.4944149567	 1.9925522398	-0.035761802	 0.127917
H	 2.8766418373	 0.4235313067	-0.7759055574	 0.12887
H	 0.9010748931	 2.7613373353	 1.7104334659	 0.123538
H	 1.5720570009	 5.1302734567	 1.110519517	 0.121978
H	 1.9007341539	 4.5899422161	-0.6264998292	 0.138278
51.5486	77.3047	125.4396	203.1454	249.5139	326.4398	372.2715	393.3853	450.1528	493.7053	624.3327	713.0756	846.8197	869.8363	886.231	919.7681	939.2387	956.4744	1020.0636	1040.7809	1100.2971	1126.9384	1160.9331	1168.6587	1170.9665	1189.0329	1252.4594	1289.0941	1317.4316	1401.9468	1446.2345	1461.002	1519.2243	1531.2931	2364.1412	3055.1025	3093.9316	3098.7421	3103.6313	3112.5403	3184.8429	3198.0679
N#CCC1(CO1)C1CO1	N#CC[C@]1(CO1)[C@H]1CO1	
InChI=1S/C6H7NO2/c7-2-1-6(4-9-6)5-3-8-5/h5H,1,3-4H2	InChI=1S/C6H7NO2/c7-2-1-6(4-9-6)5-3-8-5/h5H,1,3-4H2/t5-,6+/m1/s1
