16
gdb 34058	4.00934	1.44329	1.24005	1.1042	84.11	-0.2178	-0.0522	0.1656	1004.3007	0.123419	-363.448181	-363.440972	-363.440028	-363.479412	29.213	
C	-0.0886287227	-1.1367905465	-0.0759723813	-0.366688
C	-0.0253596549	 0.0645145389	-0.0477263317	 0.252249
C	-0.0366332158	 1.4858274375	 0.0215525646	 0.098818
C	-1.3750456848	 2.3173732827	 0.3122731805	-0.315305
C	-0.527723137	 3.4830772515	-0.2064739378	 0.001345
C	 0.1800058611	 4.1266132674	 0.7423843572	-0.102313
C	 1.5346873479	 3.4414527825	 0.8567803808	-0.18421
N	 1.3510616628	 2.1760492162	 0.0862684006	-0.148526
C	 0.4151754311	 2.5131761328	-0.956438801	-0.129167
H	-0.1223424729	-2.197493064	-0.1100761805	 0.189407
H	-2.147751502	 1.9171986079	-0.3520076388	 0.124011
H	-1.7486068033	 2.3881148267	 1.3361615365	 0.114812
H	-0.2829394386	 4.5762309958	 1.6159857329	 0.108351
H	 2.4108986741	 3.9451894773	 0.4278623368	 0.124555
H	 1.7484509792	 3.2467118717	 1.913627714	 0.12692
H	 0.6309726558	 2.4302188517	-2.0153007928	 0.105741
138.601	154.7225	269.9741	365.583	398.8675	484.4042	506.1532	528.0298	586.5781	605.3828	652.6381	685.9847	751.1091	779.0927	848.4445	871.022	893.8996	919.0952	981.7843	1001.4125	1006.8927	1034.2245	1071.214	1082.5396	1127.0623	1185.5441	1198.8841	1211.6099	1281.5711	1300.6954	1353.5671	1469.4908	1500.9326	1584.667	2233.2301	3019.853	3044.9567	3072.7527	3115.8072	3169.3705	3184.0983	3503.0404
C#CC12CC3=CCN1C23	C#C[C@@]12C[C]3[CH]CN1[C@@H]23	
InChI=1S/C8H7N/c1-2-8-5-6-3-4-9(8)7(6)8/h1,3,7H,4-5H2	InChI=1S/C8H7N/c1-2-8-5-6-3-4-9(8)7(6)8/h1,3,7H,4-5H2/t7-,8+,9?/m1/s1
