14
gdb 5699	4.81756	2.10548	1.49545	0.8704	63.19	-0.1923	0.0178	0.2101	791.7899	0.109772	-382.54932	-382.543257	-382.542313	-382.579705	23.022	
C	 0.0527202862	 1.3881530755	-0.1099668088	-0.086666
C	 1.5564158824	 1.816455781	 0.0695914903	-0.376771
C	 2.046331376	 0.5488962447	 0.6769667434	 0.226513
C	 1.1247573183	-0.4320673522	 0.6145259259	 0.328105
O	-0.0654003557	-0.0584262612	 0.0694392371	-0.288933
C	 1.7225927403	-1.6245714042	 1.1158294487	-0.35228
C	 2.9964634332	-1.2405694063	 1.4398599402	-0.002314
O	 3.2205594884	 0.082075083	 1.1733963468	-0.1904
H	-0.5728544328	 1.8647027143	 0.6517669341	 0.120893
H	-0.344657453	 1.6285467019	-1.0976474722	 0.123259
H	 2.0375281103	 2.0547118603	-0.8884451701	 0.120996
H	 1.6345875846	 2.7041714704	 0.7058525309	 0.122679
H	 1.3009128514	-2.6097522177	 1.2296949892	 0.120257
H	 3.8291183605	-1.7718128594	 1.8702125245	 0.134661
102.3846	172.0849	315.8966	433.3913	604.3229	607.7437	676.3364	716.3592	721.8088	767.6935	806.5442	841.49	915.3828	928.5422	970.6368	1045.4432	1076.6012	1111.4741	1163.93	1187.7939	1239.6306	1260.2521	1289.476	1360.9415	1381.7503	1489.7433	1500.2375	1510.769	1518.0768	1682.864	3009.2848	3045.8782	3062.5044	3117.8155	3263.4249	3285.9754
C1CC2=C(O1)C=CO2	C1Cc2c(O1)cco2	
InChI=1S/C6H6O2/c1-3-7-6-2-4-8-5(1)6/h1,3H,2,4H2	InChI=1S/C6H6O2/c1-3-7-6-2-4-8-5(1)6/h1,3H,2,4H2
