16
gdb 48392	2.27608	1.667	1.20486	3.8576	75.56	-0.2352	-0.0244	0.2109	1050.4406	0.122208	-400.667501	-400.659104	-400.658159	-400.700729	31.324	
O	-0.1140473194	 0.0291742102	-0.1729524308	-0.238556
C	 0.0003906793	 1.2200956564	-0.0862305019	 0.131414
C	 1.338539214	 1.9596858275	-0.0495700895	 0.068446
C	 2.5871684652	 1.1528527362	-0.5785304032	-0.281831
C	 2.6949504382	 2.1553721714	-1.7316162923	-0.024182
N	 1.4055791353	 2.1080205218	-2.4614841045	-0.330959
C	 1.5327019063	 2.9394770911	-1.2444945477	-0.114648
C	 1.5027436632	 2.5817703894	 1.2492160284	 0.221814
C	 1.5996334986	 3.0972793429	 2.3316906713	-0.420782
H	-0.8811862238	 1.894707374	-0.0170881212	 0.085272
H	 3.4222489814	 1.2028139841	 0.1199292529	 0.123052
H	 2.3726007132	 0.1195565593	-0.8538950772	 0.137502
H	 3.5960891703	 2.5003920274	-2.2217467637	 0.102407
H	 1.4802635548	 2.7352211568	-3.261689372	 0.235362
H	 1.334586589	 4.0033073387	-1.241601277	 0.106069
H	 1.6983264344	 3.5481551628	 3.2882419085	 0.199621
73.349	118.9946	157.5639	177.1559	223.3794	369.7896	462.4395	471.0219	509.4711	526.4683	628.3813	636.4104	658.6109	775.3077	818.0183	843.2651	903.0899	930.8361	945.5657	982.5994	1001.776	1039.4942	1081.6346	1103.8113	1137.8637	1165.3676	1222.9126	1232.0131	1283.5754	1312.0006	1370.7543	1414.1747	1472.2008	1839.0403	2229.0823	2890.0502	3091.9566	3157.82	3195.1405	3208.9874	3481.0375	3500.7455
O=CC1(CC2NC12)C#C	O=C[C@]1(C[C@H]2N[C@@H]12)C#C	
InChI=1S/C7H7NO/c1-2-7(4-9)3-5-6(7)8-5/h1,4-6,8H,3H2	InChI=1S/C7H7NO/c1-2-7(4-9)3-5-6(7)8-5/h1,4-6,8H,3H2/t5-,6-,7-/m1/s1
