20
gdb 81593	3.61024	1.18313	1.03554	2.1591	79.6	-0.2241	0.0793	0.3034	1206.4946	0.171641	-403.050037	-403.041953	-403.041009	-403.08303	31.794	
O	-0.0071351295	 1.5024473111	 0.0356485843	-0.442557
C	 0.0507889232	 0.0972887097	 0.0871715076	 0.159123
C	-0.1128054749	-0.6294039244	 1.4703472925	-0.142786
C	-1.5874848013	-0.1294730783	 1.4563372861	-0.239397
C	-1.3168430325	-0.6200224931	 0.0017647789	-0.092207
C	-0.6312989645	-1.859487394	 0.6503634795	 0.075171
N	 0.2269682563	-2.7044722234	-0.1647022792	-0.100015
C	 1.6694859971	-2.7231954124	 0.0690998098	-0.218606
C	 0.8192175536	-3.8680730158	 0.4851315208	-0.226096
H	 0.8798742116	 1.8439901311	 0.1819005933	 0.282856
H	 0.8336746261	-0.287194542	-0.5727004299	 0.077492
H	 0.5757058538	-0.6244228029	 2.3181119306	 0.063459
H	-2.3050792738	-0.7091995818	 2.0431251486	 0.085147
H	-1.7254105751	 0.9422575472	 1.5788330156	 0.117288
H	-2.0049111204	-0.6209466207	-0.8438461534	 0.073891
H	-1.3328580724	-2.4959352032	 1.1977562123	 0.074959
H	 2.2901400735	-2.7851209038	-0.8211839859	 0.115924
H	 2.0721146935	-2.0953094539	 0.861108932	 0.113454
H	 0.6523860707	-3.9963163483	 1.5541552382	 0.108212
H	 0.8053042448	-4.7901031313	-0.0901382417	 0.114688
46.4737	164.4128	196.0676	245.9405	317.4622	331.5875	399.8164	420.8817	520.4051	637.2919	765.6224	795.9436	819.2446	841.4861	883.0061	894.6736	904.8822	908.5694	937.0517	1019.5969	1029.1708	1045.6981	1062.2335	1093.8282	1099.4868	1108.0754	1125.721	1126.6518	1156.2662	1177.6783	1182.5258	1191.5043	1197.6072	1225.2491	1245.9403	1262.6349	1312.8375	1334.7757	1409.4184	1442.5421	1493.7867	1512.3072	1521.1455	3059.4695	3065.7451	3067.7496	3087.3182	3088.2771	3099.871	3116.1128	3166.9437	3169.6283	3186.4999	3826.7873
OC1C2CC1C2N1CC1	O[C@H]1[C@H]2C[C@@H]1[C@H]2N1CC1	
InChI=1S/C7H11NO/c9-7-4-3-5(7)6(4)8-1-2-8/h4-7,9H,1-3H2	InChI=1S/C7H11NO/c9-7-4-3-5(7)6(4)8-1-2-8/h4-7,9H,1-3H2/t4-,5+,6-,7-
