21
gdb 84249	3.27517	1.59727	1.37176	0.6702	88.09	-0.2137	0.0035	0.2172	1029.7646	0.184581	-349.90914	-349.901852	-349.900907	-349.940292	30.751	
C	 0.0702735442	 1.568461535	-0.125932582	-0.402833
C	 0.0004243362	 0.0435982712	-0.0093462613	-0.004085
C	 0.7617795659	-0.6786792701	-1.1308303364	-0.162316
C	 1.3141699033	-1.7998663745	-0.6612770889	 0.152983
C	 2.7590219789	-2.2496093351	-0.5433657125	-0.291922
C	 2.5715710574	-1.8675223757	 0.9757197316	-0.025149
C	 2.2954564784	-0.3581231706	 1.3217946827	-0.244912
C	 0.7240114371	-0.5588954828	 1.2285003959	-0.031751
C	 1.0277168531	-2.0145625731	 0.8224727022	-0.073323
H	 1.1062745	 1.9190999418	-0.1854926753	 0.115681
H	-0.4510833219	 1.9207779211	-1.022268455	 0.113435
H	-0.3965136139	 2.0479820417	 0.7411746009	 0.111501
H	-1.0624319857	-0.2430772852	 0.0311099034	 0.073047
H	 1.0376441568	-0.1759721578	-2.0528177858	 0.083858
H	 2.92458463	-3.3302482258	-0.6216484108	 0.104433
H	 3.4994792062	-1.7212549923	-1.1503831147	 0.10049
H	 3.1681263702	-2.4266631097	 1.7001497539	 0.066007
H	 2.6125390722	-0.1223847836	 2.3402228594	 0.101832
H	 2.737902454	 0.3809349593	 0.6496835752	 0.098946
H	 0.2063881118	-0.3769547736	 2.1754933624	 0.051881
H	 0.4517844459	-2.8821004101	 1.1481828053	 0.062197
152.4208	225.3858	239.5217	330.825	354.4368	369.6029	493.4262	566.0761	638.0351	686.2937	729.5913	785.3359	814.7461	848.6042	865.555	879.6704	904.5809	918.172	942.6244	957.1526	982.3695	1013.3801	1039.3623	1068.3995	1077.7626	1110.0857	1118.0964	1140.6296	1147.6999	1191.811	1217.7811	1223.2015	1238.9508	1266.8016	1279.462	1288.9932	1295.2002	1330.6846	1355.3609	1406.6426	1464.82	1482.8117	1495.6887	1500.0586	1677.6854	2969.7948	3028.5604	3033.7677	3055.1938	3063.7932	3076.586	3096.0291	3096.3272	3097.5993	3098.3149	3115.9947	3174.041
CC1C=C2CC3CC1C23	C[C@H]1[CH][C]2C[C@H]3C[C@@H]1[C@@H]23	
InChI=1S/C9H12/c1-5-2-6-3-7-4-8(5)9(6)7/h2,5,7-9H,3-4H2,1H3	InChI=1S/C9H12/c1-5-2-6-3-7-4-8(5)9(6)7/h2,5,7-9H,3-4H2,1H3/t5-,7-,8-,9-/m0/s1
