22
gdb 111060	2.40047	1.33027	1.01811	1.7555	82.92	-0.2389	0.081	0.32	1282.5891	0.193823	-404.265604	-404.256224	-404.255279	-404.300205	34.989	
C	 0.1647464082	 1.6363600817	 0.012676805	-0.37271
C	-0.244400302	 0.1625583496	-0.1138984347	-0.244086
C	 0.4942848937	-0.532859962	-1.2462119343	 0.020261
N	 2.0354656156	-0.6494657479	-1.1500831681	-0.153844
C	 1.8098098333	-1.8555122001	-0.2254768658	-0.252944
C	 0.7630220787	-2.070946921	-1.3535447257	 0.366832
C	 1.9017138617	-1.6675490487	-2.2954502727	-0.221522
O	-0.0987696702	-3.1221859211	-1.5856614873	-0.281172
C	-1.0211597369	-3.3705747704	-0.5401087234	-0.264653
H	 1.2334722007	 1.7231471531	 0.226741416	 0.138943
H	-0.0310116571	 2.180682237	-0.9175230361	 0.115409
H	-0.3910128003	 2.132081351	 0.8142427157	 0.109159
H	-0.0954547357	-0.3436481999	 0.8448174834	 0.098122
H	-1.318953747	 0.0961077931	-0.3282312541	 0.102135
H	 0.2152680042	-0.0641852197	-2.1978715528	 0.070349
H	 2.664182529	-2.536277297	-0.1945459378	 0.10278
H	 1.4845285162	-1.5926308393	 0.7806201658	 0.10243
H	 1.6425327611	-1.2155963464	-3.2560282873	 0.102868
H	 2.7594401791	-2.3389042583	-2.3781999375	 0.102129
H	-0.5098122204	-3.581371102	 0.4098018688	 0.1124
H	-1.7049843213	-2.524297231	-0.3887830572	 0.116247
H	-1.6038368308	-4.2474795808	-0.8296545601	 0.130869
67.8286	77.0327	130.8778	172.0792	208.4618	221.801	301.6228	359.4308	421.7559	478.5981	578.2105	595.6378	641.3351	742.3132	795.3568	822.4266	871.0311	887.5927	960.6944	981.3514	993.5345	1048.0024	1063.3598	1078.815	1108.5498	1124.9526	1162.9655	1167.4927	1177.0412	1180.5308	1185.6958	1193.3016	1235.2427	1250.9867	1292.2076	1304.4482	1347.4414	1407.5518	1438.5649	1482.066	1484.7549	1491.2408	1495.5345	1504.8341	1506.254	1518.1804	1556.6307	2994.1854	3026.1329	3030.5277	3037.7238	3048.6786	3059.0434	3069.3471	3076.6217	3104.65	3120.6308	3123.647	3128.8403	3142.7464
CCC1N2CC1(C2)OC	CC[C@H]1N2C[C@@]1(C2)OC	
InChI=1S/C7H13NO/c1-3-6-7(9-2)4-8(6)5-7/h6H,3-5H2,1-2H3	InChI=1S/C7H13NO/c1-3-6-7(9-2)4-8(6)5-7/h6H,3-5H2,1-2H3/t6-/m1/s1
