17
gdb 31830	5.0424	1.02323	0.85791	2.4352	82.36	-0.1873	-0.0237	0.1636	1321.0186	0.138703	-414.244382	-414.236087	-414.235143	-414.277179	31.499	
C	 0.0327537082	 1.4353817708	-0.1129387631	-0.325013
N	-0.0009089628	 0.0121139916	 0.1652775966	-0.379498
C	-1.2081234164	-0.6831000551	 0.0928087019	 0.259437
C	-2.4691863406	-0.0776690822	 0.1100868912	-0.058254
N	-3.6089923789	-0.7692334019	 0.0980081423	-0.309552
C	-3.5039013499	-2.1008430103	 0.0619542505	 0.409896
N	-4.671549015	-2.8305141165	 0.1181621632	-0.559537
N	-2.3550998205	-2.7955482099	 0.0085822131	-0.303166
C	-1.2379210221	-2.0835825227	 0.0283498636	-0.054104
H	 1.0714396811	 1.7726330427	-0.0981429853	 0.126394
H	-0.4095739627	 1.7073335806	-1.0852967619	 0.113979
H	-0.5034444494	 1.9890552463	 0.6656903706	 0.13718
H	 0.7721248742	-0.4955960326	-0.239144221	 0.235264
H	-2.5699466447	 1.0040649578	 0.1323068523	 0.101656
H	-5.5011101536	-2.3268801363	-0.1523751234	 0.254629
H	-4.5999299916	-3.7757327024	-0.2229555637	 0.254529
H	-0.3033285154	-2.6443172999	-0.014854257	 0.096161
82.6208	128.5615	199.8504	232.3226	347.5962	386.2484	420.7237	428.6514	467.5183	483.6221	498.0891	560.7778	609.2087	663.4411	792.0503	821.7848	889.7832	937.8225	967.5257	1036.0898	1077.4912	1086.4464	1151.625	1173.0378	1259.6443	1326.7198	1339.9673	1393.8348	1414.9648	1467.1117	1484.5395	1498.2108	1515.3926	1528.9424	1595.6094	1624.1902	1659.6238	2970.7813	3060.7156	3117.4668	3120.8585	3163.6469	3591.9671	3593.3146	3713.3602
CNC1=CN=C(N)N=C1	CNc1cnc(N)nc1	
InChI=1S/C5H8N4/c1-7-4-2-8-5(6)9-3-4/h2-3,7H,1H3,(H2,6,8,9)	InChI=1S/C5H8N4/c1-7-4-2-8-5(6)9-3-4/h2-3,7H,1H3,(H2,6,8,9)
