16
gdb 127639	2.50678	1.84008	1.06817	3.5506	77.9	-0.1973	-0.0359	0.1613	1069.2088	0.126089	-434.082189	-434.074295	-434.073351	-434.114432	30.224	
C	-0.4287449253	 1.3219634704	-0.0116379782	-0.303965
N	 0.0437866095	-0.0548489574	-0.0108565802	-0.050452
N	 0.251988712	-0.6069991546	-1.2206839914	-0.218401
C	 0.6743545893	-1.8360164298	-1.2552890783	 0.003399
C	 0.9248453107	-2.6181638536	-0.0891604178	-0.282592
C	 0.711134329	-2.0499961205	 1.1228630118	 0.32904
O	 0.8981678308	-2.6487014278	 2.3194899551	-0.423502
C	 0.2359722991	-0.6702863747	 1.2276750031	 0.338283
N	-0.0069900799	-0.0105173354	 2.3039824238	-0.578307
H	 0.2756084364	 1.960965022	 0.5282622815	 0.147452
H	-0.5196640209	 1.6321549882	-1.0507462417	 0.140012
H	-1.3911381705	 1.388858026	 0.5033682046	 0.147483
H	 0.8313093151	-2.2488635196	-2.2451658538	 0.121148
H	 1.2774004971	-3.6410165671	-0.1843790246	 0.097512
H	 1.2095426929	-3.5507549582	 2.1847162146	 0.306641
H	 0.1823893748	-0.5986074179	 3.1122674315	 0.226248
103.5255	161.9556	213.8845	260.8573	329.4912	356.844	413.8155	480.9451	502.6752	540.4837	562.0403	613.1616	720.4241	750.3877	808.7161	841.1257	883.44	903.3244	956.229	1041.5436	1097.7517	1152.6542	1181.6063	1232.2606	1293.9172	1321.3801	1375.0639	1410.5202	1441.0989	1460.994	1468.9641	1505.3957	1590.5307	1639.0344	1688.3529	3052.4191	3110.4268	3166.6728	3178.2014	3198.7183	3521.8999	3814.0611
CN1N=CC=C(O)C1=N	CN1N=CCC(=C1[NH])O	
InChI=1S/C5H7N3O/c1-8-5(6)4(9)2-3-7-8/h2-3,6,9H,1H3	InChI=1S/C5H8N3O/c1-8-5(6)4(9)2-3-7-8/h3,6,9H,2H2,1H3
