20
gdb 98325	3.53016	0.86284	0.76775	3.2342	83.41	-0.2421	0.0266	0.2688	1549.6053	0.16785	-403.144728	-403.133893	-403.132949	-403.181662	37.824	
C	 0.2058185207	 1.5644689407	-0.3256916634	-0.371103
C	 0.0445631595	 0.0701844552	-0.0497502947	-0.314192
C	 0.7476236581	-0.3471911023	 1.2426133196	 0.434502
O	 1.3241766615	 0.473110805	 1.9389033148	-0.378385
N	 0.6982585995	-1.6793582325	 1.5860948036	-0.095924
C	 0.1119632008	-2.7364408806	 0.7824538175	-0.345287
C	 1.4106337191	-2.1028754149	 2.7907949292	-0.318309
C	 0.5420456477	-2.755201501	 3.7694685431	 0.311914
C	-0.1687848708	-3.3069766254	 4.566097441	-0.459311
H	 1.2605751045	 1.8320066802	-0.4211984873	 0.132011
H	-0.3097461467	 1.8370766763	-1.2511550834	 0.103545
H	-0.2057196856	 2.1583195478	 0.4931792477	 0.135166
H	-1.0191101156	-0.189897911	 0.0215388725	 0.125914
H	 0.4418660917	-0.5185354778	-0.8856602363	 0.12021
H	-0.5874732456	-2.333215675	 0.0532049511	 0.140154
H	 0.880385588	-3.312125678	 0.2463168399	 0.122288
H	-0.4368607016	-3.4247340552	 1.4329252714	 0.145513
H	 2.2273970592	-2.7869975422	 2.5171668948	 0.128907
H	 1.8597483647	-1.2011838861	 3.214094463	 0.180491
H	-0.7926594291	-3.7807450933	 5.2831526857	 0.201896
36.1685	68.9529	91.0012	109.6167	150.0292	210.3904	224.2286	255.7822	330.9083	348.8419	363.8989	413.158	562.5592	583.4887	611.9307	635.0077	666.8268	772.4535	825.5599	912.944	964.8903	1000.7992	1029.2512	1080.6662	1096.7442	1140.8974	1153.9141	1224.1952	1280.804	1292.9708	1351.1327	1374.7064	1414.1211	1428.9394	1463.9054	1471.7447	1481.3033	1489.769	1493.8403	1498.4252	1525.3377	1750.4295	2237.6293	2996.8163	3002.3185	3026.2909	3053.0962	3060.0591	3080.6803	3105.4175	3124.3007	3136.5183	3167.8105	3504.2668
CCC(=O)N(C)CC#C	CCC(=O)N(C)CC#C	
InChI=1S/C7H11NO/c1-4-6-8(3)7(9)5-2/h1H,5-6H2,2-3H3	InChI=1S/C7H11NO/c1-4-6-8(3)7(9)5-2/h1H,5-6H2,2-3H3
