15
gdb 28290	5.32241	1.33738	1.07597	4.4358	74.13	-0.2152	0.0088	0.224	1070.7825	0.115021	-416.853192	-416.846257	-416.845312	-416.884447	26.754	
C	 0.1037730917	 1.4576382423	 0.0381470014	-0.489849
C	-0.0754374052	-0.0128367625	 0.0132322886	 0.317807
C	-1.1531901133	-0.8058904393	-0.1783067921	-0.234616
N	-0.6923377274	-2.1197366185	-0.0879725789	-0.024326
C	-1.0176899152	-3.4663939838	-0.1401533325	-0.164278
C	 0.1792099194	-4.1096327892	 0.0803586186	-0.089186
N	 1.2354989095	-3.2290428561	 0.2675700848	-0.39717
C	 0.6494405024	-2.0725991446	 0.1553083428	 0.482509
O	 1.0587519049	-0.7852577248	 0.2230151809	-0.245207
H	 0.8094675751	 1.7842021746	-0.7334981723	 0.150585
H	-0.8542997148	 1.9513844209	-0.1383113294	 0.14097
H	 0.4938891123	 1.793325046	 1.0052180914	 0.150581
H	-2.1793259982	-0.5431848662	-0.3658850159	 0.15805
H	-2.0174914313	-3.8199985288	-0.3197916268	 0.131666
H	 0.3446563802	-5.1756774199	 0.1158286994	 0.112465
140.1058	154.6411	275.0869	275.1944	334.3872	520.7227	577.7126	603.7594	614.4059	678.206	733.1192	750.0045	778.3403	831.2916	840.8467	952.0973	958.0294	1023.7939	1066.5736	1090.8651	1150.3807	1176.053	1205.0739	1283.1916	1306.1423	1411.412	1427.5303	1459.7027	1467.5774	1491.4655	1504.5512	1617.2673	1692.0141	3035.6143	3089.4352	3132.5705	3251.8236	3292.6193	3294.913
CC1=CN2C=CN=C2O1	Cc1cn2ccnc2o1	
InChI=1S/C6H6N2O/c1-5-4-8-3-2-7-6(8)9-5/h2-4H,1H3	InChI=1S/C6H6N2O/c1-5-4-8-3-2-7-6(8)9-5/h2-4H,1H3
