22
gdb 13279	6.53155	0.74788	0.71025	1.9953	78.61	-0.2412	0.0793	0.3205	1649.2123	0.199955	-350.191272	-350.181874	-350.180929	-350.22674	33.035	
C	 0.0556765273	 1.552028883	 0.127389859	-0.380319
C	-0.0159342678	 0.0276527547	 0.0049751314	-0.163816
C	 0.7098372787	-0.5129440248	-1.231741155	-0.159862
C	 0.6387642364	-2.0387279854	-1.3636681219	-0.209483
C	 1.3727778057	-2.5740293037	-2.5869381946	-0.021263
C	 2.9200163338	-2.5848911185	-2.5499995892	-0.073805
O	 2.963660294	-4.0143546968	-2.731045683	-0.272332
C	 1.5247757765	-4.1067301828	-2.7182468628	-0.09056
H	 1.0939516643	 1.895707267	 0.1949554707	 0.114011
H	-0.3967990526	 2.0409841045	-0.7426052569	 0.11354
H	-0.4703900857	 1.9069194717	 1.0190978128	 0.112083
H	 0.4118897156	-0.4334430908	 0.9050194787	 0.095796
H	-1.0668938861	-0.2892743403	-0.0262290604	 0.094855
H	 0.2846331916	-0.050811437	-2.1337917138	 0.09242
H	 1.7622760502	-0.1975008055	-1.1993826349	 0.095917
H	 1.0568413758	-2.505661426	-0.460678662	 0.097035
H	-0.4135567455	-2.3519791166	-1.4094010279	 0.095191
H	 0.9769117126	-2.1100764593	-3.4954759593	 0.076105
H	 3.4354718996	-2.053178366	-3.3591216799	 0.098844
H	 3.360297479	-2.2793942218	-1.5901924766	 0.093537
H	 1.1576205214	-4.6826349413	-1.8572049869	 0.094395
H	 1.1344004052	-4.5595456143	-3.6380456577	 0.097711
44.2521	69.1189	87.7767	121.4802	155.0221	247.0355	276.579	306.7846	416.8025	455.9959	735.5815	756.5103	798.7324	874.8073	892.1556	900.826	915.4498	977.2873	1004.037	1022.695	1041.0646	1054.7717	1070.6604	1117.5657	1142.9423	1156.7564	1164.8094	1206.5629	1246.6911	1260.8991	1290.3	1310.5723	1319.8785	1335.105	1347.6311	1378.0087	1399.1813	1404.4787	1414.4862	1481.4637	1486.18	1499.2216	1500.3252	1511.3025	1512.6498	1537.2524	2992.5247	2998.8737	3003.8722	3007.6467	3017.1857	3023.372	3029.6388	3036.5997	3041.1079	3044.3508	3056.7298	3070.6468	3096.0258	3101.8787
CCCCC1COC1	CCCCC1COC1	
InChI=1S/C7H14O/c1-2-3-4-7-5-8-6-7/h7H,2-6H2,1H3	InChI=1S/C7H14O/c1-2-3-4-7-5-8-6-7/h7H,2-6H2,1H3
