18
gdb 99823	1.85475	1.58076	1.25633	4.8609	73.61	-0.2537	0.0128	0.2665	1123.6338	0.144941	-439.076471	-439.066528	-439.065584	-439.111014	36.385	
C	-0.1631146134	-0.7175270664	 1.0951736869	-0.339138
N	 0.7185703896	 0.1107538639	 0.2632835645	-0.337152
H	-0.4770721943	 1.1931314064	-0.7102340544	 0.306899
H	 1.5821109452	 0.3014434048	 0.759881201	 0.235033
C	 1.0374601144	-0.4190067603	-1.0799035408	-0.129078
C	 2.265121706	 0.3480578148	-1.6244658047	-0.424743
C	 1.3021829008	-1.8595312595	-1.1046511296	 0.376972
C	 1.5488520961	-3.0350521368	-1.0721000782	-0.468365
C	-0.150308465	-0.0613318335	-2.0335003779	 0.459883
O	-0.8647681961	 0.9803969158	-1.5898033857	-0.378201
O	-0.3551624313	-0.6153187895	-3.0751834322	-0.336977
H	-1.136672304	-0.8184938512	 0.6059054701	 0.145988
H	 0.2320723074	-1.7236874502	 1.2814822076	 0.134405
H	-0.3171361763	-0.2082355905	 2.0498481761	 0.128262
H	 3.150060548	 0.1130731014	-1.0257764693	 0.127958
H	 2.4551918235	 0.0521937471	-2.6570711456	 0.162341
H	 2.0805502819	 1.425465004	-1.5875368662	 0.13201
H	 1.7520423376	-4.0777783003	-1.0715625116	 0.203904
69.4837	135.5666	142.8274	167.9036	205.4261	238.9063	256.2295	276.9878	331.4993	420.8479	435.0477	497.2957	571.0976	624.5802	641.9255	661.5207	724.1185	760.0029	760.4834	882.972	922.4342	933.1976	1059.0934	1089.8892	1144.4062	1158.1885	1165.5838	1220.5991	1250.9422	1396.113	1407.9286	1459.8182	1468.8749	1487.9508	1490.8713	1498.8165	1520.2753	1880.9252	2234.0171	3023.4264	3045.1501	3093.3294	3120.1205	3121.3894	3150.3333	3443.3483	3499.332	3530.7933
C[NH2+]C(C)(C#C)C([O-])=O	CN[C@@](C)(C#C)C(=O)O	
InChI=1S/C6H9NO2/c1-4-6(2,7-3)5(8)9/h1,7H,2-3H3,(H,8,9)	InChI=1S/C6H9NO2/c1-4-6(2,7-3)5(8)9/h1,7H,2-3H3,(H,8,9)/t6-/m0/s1
