18
gdb 123858	3.38948	1.52692	1.09921	4.6959	77.02	-0.2361	0.0059	0.2419	1079.4359	0.1525	-398.158605	-398.151648	-398.150703	-398.189932	27.782	
C	-0.021169098	 1.5323838217	-0.0505044115	-0.192708
C	 1.4077048633	 2.1026335631	 0.0294098616	-0.200879
C	 2.1046534459	 1.7544346293	 1.3622812022	-0.316651
C	 1.87068565	 0.3108264277	 1.674820466	 0.263929
C	 0.9095243502	-0.4574300174	 1.0609075727	 0.315375
C	-0.0388640706	-0.0124957296	-0.002360075	-0.33683
N	 1.0544562546	-1.6718308116	 1.6427322223	-0.285757
N	 2.0447048154	-1.6632379188	 2.5645516166	-0.126817
N	 2.5384793671	-0.4580173826	 2.5819220445	-0.275755
H	-0.6109199835	 1.9209387175	 0.7891427211	 0.108622
H	-0.5137019524	 1.8729674676	-0.9666949347	 0.100521
H	 2.0002291263	 1.7006521291	-0.8027534031	 0.103639
H	 1.3798083397	 3.1889558287	-0.1022115588	 0.100227
H	 3.1769092391	 1.9683722694	 1.3058363721	 0.120774
H	 1.7080824489	 2.385982439	 2.1686915217	 0.115402
H	-1.0559431286	-0.3771460871	 0.1845139465	 0.112896
H	 0.2621699224	-0.4214408072	-0.9768311416	 0.120864
H	 0.5450611699	-2.5257671788	 1.4808829674	 0.273148
111.2956	217.1033	295.638	310.8471	371.8318	438.6889	491.8295	556.204	674.8429	681.336	712.4097	730.2048	834.1972	850.992	920.2125	938.0371	969.8673	1026.4392	1053.7664	1067.2925	1101.7683	1157.59	1166.2058	1206.5659	1236.0691	1261.7191	1271.2279	1306.1754	1334.9337	1368.8308	1374.8441	1378.5719	1400.0064	1477.6421	1483.7891	1488.2417	1500.2559	1513.6781	1628.9165	3010.4979	3016.9068	3025.0662	3031.879	3053.4746	3073.0537	3079.3027	3083.1182	3656.2001
C1CCC2=C(C1)NN=N2	C1CCc2c(C1)[nH]nn2	
InChI=1S/C6H9N3/c1-2-4-6-5(3-1)7-9-8-6/h1-4H2,(H,7,8,9)	InChI=1S/C6H9N3/c1-2-4-6-5(3-1)7-9-8-6/h1-4H2,(H,7,8,9)
