17
gdb 122045	2.28649	0.93063	0.6888	4.4171	71.11	-0.259	-0.0551	0.204	1564.6229	0.133767	-455.135025	-455.124855	-455.123911	-455.172033	34.183	
O	-0.2211110079	 1.3487457067	 0.3278069897	-0.422527
C	 0.0813831536	 0.0538399286	-0.1803756207	-0.089012
C	-1.2288538293	-0.7116559531	-0.2497259999	-0.130901
N	-2.1382644476	-0.0159875387	-1.1634179709	-0.315829
C	-3.5000467251	-0.534142292	-1.1926217473	-0.18408
C	-4.2737440433	 0.2946323794	-2.2426272307	 0.161437
O	-5.2146423713	 0.9836648192	-1.9698298723	-0.222645
C	-3.5140486881	-1.9411690645	-1.6164438619	 0.292891
N	-3.5501760938	-3.04244683	-1.9643438253	-0.317381
H	 0.5521394258	 1.9098452823	 0.2226589826	 0.296236
H	 0.5209755021	 0.1142785427	-1.1858885334	 0.106922
H	 0.7836234034	-0.4815362938	 0.475118532	 0.099695
H	-1.0423286277	-1.723276021	-0.6248252424	 0.132603
H	-1.6432965005	-0.8029460513	 0.7689550687	 0.101603
H	-2.1678909119	 0.9592515475	-0.8782054983	 0.246577
H	-4.0479942666	-0.4591373289	-0.2382878338	 0.127242
H	-3.8437383518	 0.2247933767	-3.2618349261	 0.117168
37.357	54.3526	78.2247	126.9322	148.0131	216.9576	254.2443	267.3921	317.4064	369.677	458.464	506.5663	521.0294	631.7167	800.2362	872.7316	902.4362	965.2684	996.3873	1037.3502	1073.975	1101.4433	1141.8544	1151.4019	1215.0548	1247.4784	1271.6242	1302.8257	1346.4992	1387.8346	1402.606	1455.9361	1494.3635	1507.319	1513.0816	1847.9586	2358.2915	2940.7297	2961.6258	2970.203	2992.7552	3034.7427	3078.8431	3513.8501	3841.733
OCCNC(C=O)C#N	OCCN[C@@H](C=O)C#N	
InChI=1S/C5H8N2O2/c6-3-5(4-9)7-1-2-8/h4-5,7-8H,1-2H2	InChI=1S/C5H8N2O2/c6-3-5(4-9)7-1-2-8/h4-5,7-8H,1-2H2/t5-/m1/s1
