16
gdb 39800	3.55797	1.46538	1.20037	0.5756	69.57	-0.2488	0.0699	0.3187	1017.6032	0.124064	-437.744693	-437.737634	-437.73669	-437.776057	27.995	
C	-0.0150304203	 1.5236001348	 0.0103578894	-0.299579
O	 1.195118247	 0.7122364157	-0.0059296549	-0.293254
C	-0.047242758	 0.0773017098	 0.0029491467	 0.60933
C	-0.5675987537	-1.02015172	 0.9435959625	-0.294946
N	-1.7864184368	-1.0468937069	 0.0141193595	-0.330118
C	-0.5861892009	-1.0100937658	-0.9389082113	-0.294945
C	 0.1285093256	-2.0157299651	-0.0099672793	 0.555932
C	 1.3142523082	-2.8557448424	-0.0261653863	-0.296149
O	-0.03222102	-3.4072948268	-0.0158169295	-0.299712
H	-0.1868793338	 2.0693878019	 0.9356130508	 0.127824
H	-0.2050657078	 2.0792284482	-0.9054349699	 0.127824
H	-0.6563592147	-1.0285356087	 2.0286327627	 0.098943
H	-2.1569121852	-2.0016148183	 0.0126773358	 0.233924
H	-0.6963621172	-1.0068976008	-2.0220079722	 0.098943
H	 1.8637718924	-3.0085432076	-0.9528813989	 0.127992
H	 1.8819403351	-3.0183786481	 0.887838395	 0.127992
118.6937	236.7564	258.4657	270.7371	363.1913	416.1908	481.5394	524.9486	668.3401	714.3723	758.0684	785.859	839.9792	873.2297	879.0958	913.8531	984.468	1041.0846	1055.0903	1091.5698	1103.4755	1107.1544	1107.564	1118.7184	1137.7212	1162.5212	1167.0235	1185.2737	1214.0044	1285.3098	1287.1957	1450.9032	1474.6136	1545.822	1578.9657	3095.0088	3097.9027	3138.3598	3141.6493	3184.4893	3187.2783	3411.1894
C1OC11C2NC1C21CO1	C1O[C@]21[C@H]1N[C@@H]2[C@]21CO2	
InChI=1S/C6H7NO2/c1-5(8-1)3-6(2-9-6)4(5)7-3/h3-4,7H,1-2H2	InChI=1S/C6H7NO2/c1-5(8-1)3-6(2-9-6)4(5)7-3/h3-4,7H,1-2H2/t3-,4+,5-,6-
