19
gdb 17662	3.79439	1.54343	1.47199	2.7831	70.92	-0.234	0.0645	0.2985	955.6263	0.16604	-365.022379	-365.014438	-365.013494	-365.054506	30.612	
O	-0.3568539197	 1.5108895755	 0.3262717042	-0.489003
C	 0.058315242	 0.1699373659	 0.1700040759	 0.37747
C	 0.980062787	-0.1617170743	-1.046373683	-0.276161
C	 1.8257361587	-1.0708901491	-0.1136898253	-0.213419
C	 1.1815392895	-0.3669098395	 1.1117210751	-0.266683
C	-1.1892660434	-0.6891960602	 0.2052347495	 0.00923
C	-2.3553334433	-0.3149174059	 1.0383655896	-0.250747
N	-2.4258313151	-0.225316279	-0.4359301559	-0.338131
H	 0.4114121581	 2.0795000423	 0.2223177938	 0.280034
H	 0.5094960146	-0.6070692455	-1.9259587503	 0.112677
H	 1.539731059	 0.7259323797	-1.3614675125	 0.088189
H	 1.5365336912	-2.1219825092	-0.1868527217	 0.111847
H	 2.9110005991	-1.006999933	-0.2098700299	 0.10153
H	 1.7999988428	 0.4578189695	 1.4809281244	 0.091146
H	 0.8728250237	-0.978849204	 1.9628496249	 0.104833
H	-0.9863992773	-1.7471633527	 0.0493823889	 0.085471
H	-2.9761914061	-1.0893159229	 1.480322279	 0.109669
H	-2.2928201734	 0.610039123	 1.6018499094	 0.124189
H	-2.2923370774	 0.7507139394	-0.694247416	 0.237857
86.4505	137.2491	208.3783	260.777	271.4083	344.2307	362.9328	471.0411	504.8155	665.1283	709.9825	784.335	806.59	861.709	887.3646	918.6592	930.3282	970.4615	981.8643	1000.7487	1031.4371	1063.7348	1101.997	1115.4903	1147.2081	1171.2532	1196.668	1213.7162	1231.9138	1243.588	1269.494	1276.4859	1291.3922	1313.0863	1362.5501	1449.7817	1469.2147	1485.1041	1504.0283	1505.2198	3042.4246	3049.3169	3070.2165	3102.5518	3107.316	3115.6874	3121.9624	3127.7023	3209.7444	3492.8927	3835.3503
OC1(CCC1)C1CN1	OC1(CCC1)[C@H]1CN1	
InChI=1S/C6H11NO/c8-6(2-1-3-6)5-4-7-5/h5,7-8H,1-4H2	InChI=1S/C6H11NO/c8-6(2-1-3-6)5-4-7-5/h5,7-8H,1-4H2/t5-/m1/s1
