15
gdb 47453	2.81758	1.53727	1.22357	3.3498	60.43	-0.2728	-0.0021	0.2707	1010.2289	0.112934	-494.904637	-494.897086	-494.896142	-494.937336	27.151	
O	-0.135143833	-0.0021505441	 0.144805385	-0.335352
C	 0.0133780881	 1.173533812	 0.0037633136	 0.437336
O	-0.9976867998	 2.0764360286	-0.0231716719	-0.214366
C	-0.4502781732	 3.3897546382	-0.1122956056	 0.030408
O	 0.8931408352	 3.2555089453	-0.5306642033	-0.254172
C	 1.3190281712	 1.9565099965	-0.1675176973	-0.097121
C	 2.1311149703	 1.9297423322	 1.1160887873	 0.062973
C	 2.8486425171	 3.1177615855	 1.5845223908	-0.174945
O	 1.6079804024	 2.7165945761	 2.1836319148	-0.234881
H	-1.0047164781	 3.9543136879	-0.8664508841	 0.133032
H	-0.5165567098	 3.8643665152	 0.8731709479	 0.134712
H	 1.9046872465	 1.5236067106	-0.9857921044	 0.130598
H	 2.482476477	 0.9368683326	 1.3974593891	 0.122346
H	 3.7272158361	 2.9971104606	 2.2150947915	 0.125623
H	 2.7994832301	 4.0292701327	 0.9949896868	 0.133808
91.3968	107.2027	175.3256	193.336	251.9868	363.4003	489.2612	591.8623	657.0002	728.6007	750.5075	805.5945	894.0899	916.5021	949.404	979.8493	1023.8652	1072.7591	1098.6871	1128.675	1149.1707	1166.0895	1168.9221	1221.9635	1233.4931	1274.9017	1280.2114	1348.2642	1417.8657	1448.0202	1519.9023	1541.0349	1900.6615	3041.1807	3061.3299	3102.2784	3106.7579	3120.6659	3200.2385
O=C1OCOC1C1CO1	O=C1OCO[C@H]1[C@H]1CO1	
InChI=1S/C5H6O4/c6-5-4(3-1-7-3)8-2-9-5/h3-4H,1-2H2	InChI=1S/C5H6O4/c6-5-4(3-1-7-3)8-2-9-5/h3-4H,1-2H2/t3-,4+/m1/s1
