19
gdb 103156	1.91998	1.58617	1.17733	2.4361	71.73	-0.244	-0.0323	0.2117	1148.6068	0.155653	-460.165581	-460.155493	-460.154549	-460.200368	36.739	
C	-0.3108950603	 1.4608732497	 0.0668777866	-0.404543
C	-0.1973169913	-0.0577254073	-0.0856109508	-0.204593
C	 0.7773573629	-0.4652014752	-1.2014177438	 0.283619
O	 2.0651679252	 0.0649761284	-0.9765015766	-0.485705
C	 0.7216887059	-1.9928707376	-1.5433916022	 0.066872
O	 0.2042969993	-2.7911922374	-0.5116068462	-0.42627
C	-0.1982141039	-1.6886654529	-2.7762165953	-0.39784
C	 0.2431479391	-0.2330214	-2.6248206384	 0.347862
O	 0.3726198804	 0.6968934119	-3.3730912342	-0.319392
H	 0.6649800501	 1.8970176532	 0.2956662512	 0.12717
H	-0.6853091177	 1.9310993266	-0.8485328391	 0.12564
H	-0.9952928525	 1.7162882662	 0.8809641981	 0.113897
H	 0.1684316336	-0.5128190461	 0.8408491764	 0.123194
H	-1.1801291416	-0.5023026731	-0.2753967137	 0.102109
H	 2.1928116049	 0.7765493447	-1.6161612135	 0.29458
H	 1.7179764229	-2.3207176	-1.864161976	 0.092091
H	 0.234607272	-3.7109511576	-0.7917715465	 0.291793
H	 0.0137339594	-2.1688871965	-3.7334877177	 0.129544
H	-1.2536517885	-1.8284816969	-2.5204054281	 0.139972
75.4165	104.5112	138.1961	197.2943	218.6941	223.5687	234.7674	270.8164	314.9224	329.9143	440.1117	477.3217	501.5163	599.9521	680.3679	702.905	777.4536	814.404	899.2799	920.9024	998.6192	1030.2483	1045.6021	1095.0069	1097.866	1126.7923	1161.0835	1195.5314	1202.5629	1238.1107	1292.8062	1323.9288	1351.8635	1372.7507	1409.5359	1421.916	1442.4798	1474.359	1496.9343	1512.7371	1875.007	3034.381	3041.3065	3048.0467	3060.8377	3083.6717	3109.5969	3122.6949	3127.9518	3779.9129	3827.1607
CCC1(O)C(O)CC1=O	CC[C@@]1(O)[C@@H](O)CC1=O	
InChI=1S/C6H10O3/c1-2-6(9)4(7)3-5(6)8/h4,7,9H,2-3H2,1H3	InChI=1S/C6H10O3/c1-2-6(9)4(7)3-5(6)8/h4,7,9H,2-3H2,1H3/t4-,6+/m0/s1
