20
gdb 96459	2.50133	1.6725	1.14622	3.2543	75.56	-0.2466	0.0659	0.3125	1109.6894	0.172729	-440.255785	-440.247694	-440.246749	-440.288304	31.565	
C	 0.4786751416	 1.5870501654	-0.0666095073	-0.39956
C	-0.0397684096	 0.1513591013	-0.0533152948	 0.108552
O	 0.4140504702	-0.4424221806	-1.2575463065	-0.231218
C	-0.0888191459	-1.7085499123	-1.5697987801	 0.020052
O	 0.6185040076	-2.7688128866	-0.9907140988	-0.214643
C	 0.2597997798	-3.0956072376	 0.3318042654	-0.104797
C	 0.5465739896	-2.0411017364	 1.3841381479	-0.044537
N	 1.7346218591	-1.1904053826	 1.2433644139	-0.317531
C	 0.4020447104	-0.571978969	 1.2128277632	-0.026304
H	 1.5720139183	 1.5826979694	-0.0459242792	 0.139245
H	 0.1490884518	 2.0976031016	-0.9746938073	 0.122519
H	 0.1110901497	 2.1432462229	 0.8009176876	 0.107874
H	-1.1451675647	 0.1628880908	-0.0515628274	 0.064717
H	-1.1613710209	-1.773294185	-1.3054880546	 0.068507
H	 0.0391915843	-1.8231231501	-2.6490318166	 0.112472
H	-0.8127975988	-3.3535452772	 0.3892906276	 0.087586
H	 0.8265022701	-4.0018283566	 0.5730731787	 0.114407
H	 0.310516609	-2.4132502981	 2.383247214	 0.080875
H	 2.18565243	-1.0430311789	 2.1413578452	 0.231843
H	 0.0787852484	-0.0352032502	 2.106462599	 0.079941
85.6886	190.1602	219.1873	244.0977	285.5232	300.4491	394.3328	407.9699	457.5146	603.0686	651.1055	668.4548	763.4143	776.5478	857.7988	893.9145	944.4295	971.4227	1003.7123	1029.4305	1054.7228	1084.0621	1109.8315	1121.3184	1140.4238	1161.3663	1192.8348	1208.7877	1244.7302	1274.9849	1304.1431	1341.4984	1348.962	1386.8346	1404.8729	1408.6056	1414.9508	1453.3578	1482.9795	1485.0602	1490.8002	1497.2885	1502.3484	2923.3523	2936.9718	2951.9713	3045.6903	3062.785	3080.8049	3092.5726	3098.6132	3120.9435	3129.8271	3512.6033
CC1OCOCC2NC12	C[C@H]1OCOC[C@H]2N[C@@H]12	
InChI=1S/C6H11NO2/c1-4-6-5(7-6)2-8-3-9-4/h4-7H,2-3H2,1H3	InChI=1S/C6H11NO2/c1-4-6-5(7-6)2-8-3-9-4/h4-7H,2-3H2,1H3/t4-,5-,6+/m1/s1
