18
gdb 41663	3.4216	1.92514	1.90035	1.9384	72.29	-0.2406	0.0935	0.3341	822.189	0.152933	-401.944215	-401.938591	-401.937647	-401.973852	24.746	
C	-0.0134851546	 1.5530692213	 0.0198069548	-0.079238
O	 1.3656949908	 1.9704761423	 0.0143493317	-0.284135
C	 2.1299487285	 0.7686184573	-0.0703531352	 0.109213
C	 1.8971297867	 0.0959634655	-1.4247913583	-0.066168
C	 1.6048786043	-1.344651731	-1.2014352874	-0.044512
C	 1.7997439236	-1.6435175649	 0.2774671632	-0.257193
C	 1.3630987984	-0.2704227318	 0.7858975405	-0.08119
C	 0.0608273601	 0.0247690388	 0.0046678944	-0.019138
N	 0.4830724812	-0.3866387553	-1.3711704058	-0.125473
H	-0.5061653998	 1.9401979094	 0.9203030122	 0.098626
H	-0.5302755688	 1.9400603625	-0.8655369789	 0.112676
H	 3.1638906786	 0.9907552798	 0.1942596449	 0.080793
H	 2.2479160863	 0.5212187636	-2.3568382491	 0.096793
H	 1.7167809407	-2.0950055228	-1.9746124662	 0.094947
H	 1.1616653054	-2.4581369518	 0.6354726045	 0.106268
H	 2.8391073054	-1.8834116328	 0.5241631994	 0.106098
H	 1.3572887421	-0.087426336	 1.8585371843	 0.076746
H	-0.8488268691	-0.4903514639	 0.3162254409	 0.074888
254.8161	362.2231	381.3786	465.6115	595.2896	648.7355	717.2482	776.4505	788.103	825.8176	882.6322	901.2897	917.8793	923.378	942.6065	955.8608	968.2216	979.8715	1009.6021	1026.6827	1052.2767	1060.602	1078.7105	1093.0868	1145.5171	1184.9374	1205.5758	1223.9166	1226.1216	1262.8935	1273.6213	1282.0764	1306.782	1314.6745	1340.2735	1374.7878	1388.4661	1495.0469	1515.8274	3022.0357	3046.9454	3067.3221	3089.7995	3107.8669	3120.494	3144.0328	3185.7241	3196.7685
C1OC2C3C4CC2C1N34	C1O[C@@H]2[C@H]3[C@H]4C[C@@H]2[C@@H]1N34	
InChI=1S/C7H9NO/c1-3-5-2-9-7(3)6-4(1)8(5)6/h3-7H,1-2H2	InChI=1S/C7H9NO/c1-3-5-2-9-7(3)6-4(1)8(5)6/h3-7H,1-2H2/t3-,4-,5-,6-,7+,8?/m1/s1
