17
gdb 25962	4.8845	0.97364	0.81602	5.0724	80.36	-0.1845	0.0132	0.1978	1371.3927	0.136345	-418.075091	-418.066021	-418.065077	-418.111326	32.347	
C	-0.2082867471	 1.5553473238	-0.0066219462	-0.492741
C	 0.1051013467	 0.067294382	-0.0425961115	 0.405767
O	 1.2370408006	-0.3576477088	-0.1579112858	-0.350226
N	-0.9982024945	-0.7500162764	 0.0532039049	-0.449398
C	-0.9797374682	-2.148315587	 0.0181193067	 0.415752
C	 0.0419016149	-3.0588869221	-0.1327456175	-0.218278
C	-0.5543425042	-4.3533631476	-0.086095635	-0.131887
C	-1.9046705774	-4.1967893442	 0.0897154734	-0.099558
N	-2.1599624773	-2.8410681804	 0.1525910127	-0.333293
H	 0.4490971871	 2.0315762021	 0.7243955202	 0.157257
H	 0.0221662861	 1.9891702971	-0.9842675433	 0.155963
H	-1.2472297386	 1.7874506305	 0.2434089655	 0.108179
H	-1.8974370377	-0.304963685	 0.1354230175	 0.242749
H	 1.0788811174	-2.8064151762	-0.25830075	 0.129022
H	-0.0354064529	-5.2953252544	-0.1744807698	 0.093886
H	-2.706642129	-4.9110346703	 0.1749204693	 0.114643
H	-3.0677151858	-2.4325362231	 0.2891751189	 0.252164
14.4534	33.3261	99.7187	163.8732	301.2359	338.2728	351.1444	365.1675	422.6717	570.9902	606.0071	626.2613	654.254	693.6828	776.2288	797.6136	860.3645	892.089	955.2188	980.5013	1022.5347	1046.5965	1051.3791	1116.6209	1144.5845	1241.6596	1259.8008	1282.8728	1397.3156	1419.2241	1453.1437	1468.3156	1489.0979	1515.9779	1574.6364	1622.9683	1784.8321	3046.2463	3118.2582	3132.8625	3249.2113	3276.9231	3308.6917	3642.7322	3679.1363
CC(=O)NC1=CC=CN1	CC(=O)Nc1ccc[nH]1	
InChI=1S/C6H8N2O/c1-5(9)8-6-3-2-4-7-6/h2-4,7H,1H3,(H,8,9)	InChI=1S/C6H8N2O/c1-5(9)8-6-3-2-4-7-6/h2-4,7H,1H3,(H,8,9)
