21
gdb 66159	3.77419	0.7974	0.76026	3.0198	79.67	-0.2541	-0.0256	0.2285	1570.0439	0.179335	-424.21847	-424.208513	-424.207569	-424.254506	35.815	
C	 0.129663841	 1.6656769937	 0.141542733	-0.448781
C	-0.0058778847	 0.1489325526	 0.0309227187	 0.443182
C	 0.9905844864	-0.5004067054	-0.9832047335	-0.268475
C	 1.9071476691	-0.866298431	 0.2167840542	-0.219983
C	 0.707628385	-0.6188393613	 1.1706725486	-0.265876
O	-1.3635188818	-0.2558054352	-0.0762031469	-0.300643
C	-2.0396320265	 0.1372473119	-1.2435873308	-0.171254
C	-3.3338649244	-0.6558714904	-1.3222933258	 0.141928
O	-4.1909044219	-0.4565871097	-2.1411833404	-0.239552
H	 1.1707158195	 1.9446925855	 0.3302726115	 0.121587
H	-0.1822864716	 2.1711285181	-0.7781811533	 0.11804
H	-0.4810860486	 2.0400392849	 0.9692852068	 0.124591
H	 0.5485765756	-1.3908739349	-1.4384399033	 0.105877
H	 1.4059914359	 0.1360170511	-1.7686285209	 0.096623
H	 2.3424245815	-1.8669518752	 0.2180857348	 0.105014
H	 2.7126170673	-0.1415781717	 0.3595261135	 0.106608
H	 0.8894761708	-0.0747207679	 2.1005909202	 0.097479
H	 0.1627496276	-1.5389805351	 1.3932483596	 0.111699
H	-2.2852733646	 1.2096113535	-1.2628488485	 0.125206
H	-1.4540311429	-0.0772809158	-2.1533854643	 0.122633
H	-3.4130632228	-1.4520333378	-0.5492787034	 0.094096
48.5966	52.5389	103.5754	132.5977	156.8247	252.0438	288.755	308.9645	379.0636	392.172	446.674	554.4954	660.5633	724.6079	740.7545	797.3	864.2265	906.0538	928.1759	937.8252	945.4982	989.2811	1040.0406	1061.6706	1115.5625	1122.2289	1172.2101	1192.7848	1203.4676	1221.8732	1238.5969	1251.2003	1277.0747	1290.7443	1302.2349	1355.6514	1402.2893	1409.3434	1469.6767	1478.3118	1481.6668	1490.8809	1498.4936	1507.0008	1844.2514	2897.067	2971.0855	3012.4731	3035.6463	3056.5395	3064.6652	3070.6163	3104.488	3106.8845	3111.7676	3118.2392	3131.5699
CC1(CCC1)OCC=O	CC1(CCC1)OCC=O	
InChI=1S/C7H12O2/c1-7(3-2-4-7)9-6-5-8/h5H,2-4,6H2,1H3	InChI=1S/C7H12O2/c1-7(3-2-4-7)9-6-5-8/h5H,2-4,6H2,1H3
