20
gdb 87775	3.77557	1.05164	1.03689	2.102	80.2	-0.2293	0.0794	0.3086	1259.2818	0.169921	-403.090019	-403.081215	-403.08027	-403.123089	34.447	
C	-0.113510351	 1.4994823415	-0.0472248105	-0.3909
C	-0.0353982491	-0.002771096	 0.0746924762	-0.076852
N	 1.3091331837	-0.608224887	-0.0985447719	-0.397482
C	 0.641539105	-0.6907312699	 1.1972778305	 0.382535
C	 1.2927424807	-0.1432951097	 2.4872791358	-0.376963
C	 0.8382534357	-1.4333178848	 3.1949744831	 0.403025
O	 1.6143644137	-2.1368080469	 4.0974904464	-0.460531
C	-0.6484955003	-1.6172428904	 3.0907032679	-0.341994
C	 0.2340265665	-1.9684578	 1.9039850488	-0.211551
H	 0.7537039753	 1.9690712288	 0.424498244	 0.1267
H	-0.1303447614	 1.8059170471	-1.0988517809	 0.118925
H	-1.0207059725	 1.8848820284	 0.4313568977	 0.111452
H	-0.8717167135	-0.5427379986	-0.3697458978	 0.078678
H	 1.2382776998	-1.4974927213	-0.5886738873	 0.226042
H	 2.3789929608	-0.1006270118	 2.3809538334	 0.122432
H	 0.9219311069	 0.8048483421	 2.8914506627	 0.089938
H	 1.4157437867	-1.8144964907	 4.9836639885	 0.2854
H	-1.0251247818	-2.4795667188	 3.6324513545	 0.112653
H	-1.3297360586	-0.7705023803	 3.0424683258	 0.105321
H	 0.2629747534	-2.9684101317	 1.4864702531	 0.093174
95.7055	144.1524	186.3833	211.8036	252.9699	314.388	382.5093	402.1196	438.5137	451.654	484.3722	535.7702	669.258	770.3793	792.1145	843.291	870.1898	904.1374	950.2681	956.2255	980.1384	1006.0342	1036.1793	1042.5986	1062.2461	1073.5674	1089.2997	1113.168	1143.5331	1210.6183	1216.1498	1236.0283	1249.368	1285.6001	1309.0378	1358.0469	1401.6072	1410.9273	1468.8594	1474.0829	1489.7545	1497.8744	1511.767	3031.3064	3042.8452	3092.6116	3099.0566	3102.2033	3116.3131	3122.2531	3179.5836	3200.5081	3485.5029	3792.0109
CC1NC11CC2(O)CC12	C[C@H]1N[C@]21C[C@@]1(O)C[C@@H]21	
InChI=1S/C7H11NO/c1-4-7(8-4)3-6(9)2-5(6)7/h4-5,8-9H,2-3H2,1H3	InChI=1S/C7H11NO/c1-4-7(8-4)3-6(9)2-5(6)7/h4-5,8-9H,2-3H2,1H3/t4-,5-,6+,7+/m1/s1
