16
gdb 26630	3.30984	1.26843	0.92389	5.965	80.7	-0.1984	-0.0014	0.197	1209.378	0.125753	-396.990511	-396.981594	-396.980649	-397.024068	32.431	
C	-0.0473029256	 1.521945089	 0.0814131326	-0.513954
C	 0.0005432271	 0.0348506779	-0.0124370701	 0.283595
C	-0.0368176788	-0.7902067138	-1.1155594374	 0.072478
N	-0.1737212164	-0.3944526899	-2.4546557055	-0.622931
C	 0.0203248137	-2.1451357004	-0.6374509252	 0.132054
C	 0.0913141664	-2.0946314995	 0.7465606221	-0.183608
N	 0.0906967614	-0.7866467529	 1.1017012087	-0.303773
C	 0.0145659405	-3.2966633072	-1.4539456513	 0.186886
N	 0.0134368244	-4.2090958102	-2.170566997	-0.371834
H	 0.9420691853	 1.9797881217	 0.2147770138	 0.130287
H	-0.4803369594	 1.9305362117	-0.8360618139	 0.148238
H	-0.6763650633	 1.8548312921	 0.9152604605	 0.12719
H	 0.5004644618	 0.3051596117	-2.737692567	 0.24631
H	-0.1192647805	-1.1811104218	-3.0899417035	 0.257211
H	 0.1424056232	-2.8898066212	 1.4709659526	 0.144653
H	 0.1275361702	-0.4517996073	 2.0490506705	 0.267199
110.2492	122.8091	130.7301	157.004	249.1452	254.0723	301.4019	411.0452	475.1213	508.5682	548.4116	586.6111	632.5035	690.3225	708.4467	736.0966	752.564	785.5653	964.8334	1002.5817	1062.3442	1129.7044	1211.9613	1237.856	1259.091	1355.1882	1410.4262	1434.733	1483.8038	1491.2919	1509.9382	1548.9846	1651.1273	1660.3979	2330.7847	3010.751	3062.7629	3110.1235	3280.6043	3533.1415	3618.4596	3677.527
CC1=C(N)C(=CN1)C#N	Cc1c(N)c(c[nH]1)C#N	
InChI=1S/C6H7N3/c1-4-6(8)5(2-7)3-9-4/h3,9H,8H2,1H3	InChI=1S/C6H7N3/c1-4-6(8)5(2-7)3-9-4/h3,9H,8H2,1H3
