18
gdb 88642	3.01505	1.25732	1.08871	4.5953	71.57	-0.2658	0.0152	0.2811	1151.2038	0.147875	-439.084082	-439.075689	-439.074745	-439.117746	31.21	
C	 1.2662594192	 0.9798103363	-0.4439153442	-0.398864
C	 0.1209881895	 0.2062355326	 0.1646239832	 0.015173
N	 0.2496470112	-1.2500782939	 0.2835272423	-0.334901
C	 0.1169191504	-0.4416731974	 1.5112449877	-0.053768
C	 1.2631003397	-0.444207033	 2.4997937508	 0.128576
C	 2.6125562602	-1.0809985469	 2.1255804058	-0.435717
C	 3.1583615944	 0.3280273747	 2.3457275225	 0.443952
O	 4.205990648	 0.8881377272	 2.3145081587	-0.319785
O	 1.9306486532	 0.8687736525	 2.6437030161	-0.254693
H	 2.2355060218	 0.5352506057	-0.2141389005	 0.132871
H	 1.1619476885	 0.9982107291	-1.5340809015	 0.119444
H	 1.2704632636	 2.0120681591	-0.0829962893	 0.136488
H	-0.8578361455	 0.5804796755	-0.1360767893	 0.090305
H	-0.6225200622	-1.7245979924	 0.0690882437	 0.236622
H	-0.8559890149	-0.4576984974	 1.9985914808	 0.089255
H	 0.8984452406	-0.7445785733	 3.4854049312	 0.097524
H	 3.0031615256	-1.8309015291	 2.8149725744	 0.140459
H	 2.6772613769	-1.4482905194	 1.1016017177	 0.167058
55.481	84.0139	174.4743	220.2526	233.3445	330.0418	379.6231	464.3635	525.6184	547.4737	640.5597	679.7629	784.8036	794.3569	853.0159	905.2917	929.2732	971.882	980.9629	1013.4917	1034.9896	1063.7273	1094.6118	1109.2195	1136.3248	1159.7918	1202.6173	1225.5676	1253.3051	1281.3541	1316.7062	1390.5693	1410.5299	1432.1407	1461.1049	1467.4934	1489.8083	1504.3611	1938.107	3046.2761	3072.6131	3098.3513	3099.213	3110.6935	3122.8997	3146.6074	3160.819	3511.897
CC1NC1C1CC(=O)O1	C[C@H]1N[C@H]1[C@H]1CC(=O)O1	
InChI=1S/C6H9NO2/c1-3-6(7-3)4-2-5(8)9-4/h3-4,6-7H,2H2,1H3	InChI=1S/C6H9NO2/c1-3-6(7-3)4-2-5(8)9-4/h3-4,6-7H,2H2,1H3/t3-,4-,6-/m1/s1
