16
gdb 7474	4.16262	1.39287	1.30223	2.0247	65.91	-0.2502	0.0318	0.282	973.5452	0.128398	-383.680071	-383.671911	-383.670967	-383.712749	30.129	
O	 0.0079768945	 1.4768220065	-0.1085528611	-0.472764
C	 0.0062963514	 0.0814502339	 0.0136819921	 0.352888
C	 0.9334559209	-0.5832491644	-1.0216584264	-0.400927
C	 2.3027197961	-0.0996587965	-0.8892765452	 0.256584
C	 3.402973282	 0.363296221	-0.7392860436	-0.421007
C	 0.124854947	-0.5221365486	 1.4394814281	-0.121174
O	-1.0891725159	-1.2780467111	 1.2402524355	-0.274529
C	-1.4084288961	-0.525092244	 0.0524341566	-0.115833
H	 0.9272208873	 1.7657716691	-0.1788813331	 0.285691
H	 0.8947962049	-1.671490072	-0.8967109281	 0.14517
H	 0.5552426689	-0.3573668141	-2.0264953672	 0.139706
H	 4.3895858563	 0.7401862956	-0.6256266948	 0.204911
H	 0.9846580346	-1.1648172668	 1.6580996875	 0.10582
H	 0.0158324408	 0.2391046841	 2.2223988668	 0.103009
H	-2.1784762099	 0.235522112	 0.2321135023	 0.110259
H	-1.7095432429	-1.1694520647	-0.7816052192	 0.102196
78.3114	104.1804	135.1141	288.1441	332.8874	369.4429	383.9571	400.0518	434.3497	523.0817	632.7337	661.5179	713.2478	821.6678	893.675	918.4337	961.8516	977.8908	1003.2671	1024.6241	1065.0028	1140.1893	1148.7567	1165.5651	1237.768	1286.2744	1299.5909	1305.3954	1359.4948	1421.6541	1463.8945	1501.2493	1527.4433	2230.8001	3012.1916	3022.8121	3030.3064	3069.8948	3071.5386	3076.9563	3502.9866	3761.9391
OC1(CC#C)COC1	OC1(CC#C)COC1	
InChI=1S/C6H8O2/c1-2-3-6(7)4-8-5-6/h1,7H,3-5H2	InChI=1S/C6H8O2/c1-2-3-6(7)4-8-5-6/h1,7H,3-5H2
