18
gdb 26291	3.7071	1.26477	0.95463	3.9678	84.04	-0.2165	-0.0148	0.2017	1216.3921	0.149744	-398.185207	-398.176539	-398.175595	-398.219466	30.777	
C	-0.0336914914	 1.4289930387	 0.0408048661	-0.339811
N	-0.0027103846	-0.0201480518	-0.0056098892	-0.134597
C	-0.1363875096	-0.7357025089	 1.2536034516	-0.351
C	 0.0149275461	-0.673571002	-1.203010564	 0.471579
N	 0.0130863373	-2.0206587947	-1.1902522701	-0.345545
C	 0.0477960713	-2.6399441908	-2.3644504312	 0.07589
N	 0.0820503013	-2.0974669906	-3.5807038881	-0.281212
C	 0.0753042072	-0.7554762091	-3.5823482822	 0.020952
C	 0.0402010992	 0.0150111425	-2.4382760619	-0.24957
H	 0.802069281	 1.8672357104	-0.5166270568	 0.137254
H	-0.9690352504	 1.8413651168	-0.3627457278	 0.130269
H	 0.0548611711	 1.7474343868	 1.0806383324	 0.133881
H	-1.1056214042	-0.5270208568	 1.7261121036	 0.120678
H	-0.0592782692	-1.8030078688	 1.0594173214	 0.175173
H	 0.6563338053	-0.4341987564	 1.9482274408	 0.121849
H	 0.0470314284	-3.7279204296	-2.3221374566	 0.110023
H	 0.0963790227	-0.2752615695	-4.5586594752	 0.108
H	 0.0262889383	 1.0939084637	-2.5031939228	 0.096188
43.5652	85.4253	135.5506	157.4095	240.7719	262.5308	379.8443	397.4187	502.1987	540.3297	558.5058	686.362	782.0834	800.2617	831.9414	984.4751	985.2591	997.7555	1021.559	1086.0386	1106.6752	1133.7767	1169.1115	1196.423	1218.6455	1241.3421	1301.4144	1372.697	1413.8662	1431.26	1439.5379	1472.8562	1489.151	1499.1959	1505.0694	1517.2967	1552.7457	1584.6511	1637.0802	3002.1924	3011.2851	3060.3532	3061.9098	3131.7571	3146.5253	3150.2993	3179.0894	3224.6386
CN(C)C1=NC=NC=C1	CN(C)c1ncncc1	
InChI=1S/C6H9N3/c1-9(2)6-3-4-7-5-8-6/h3-5H,1-2H3	InChI=1S/C6H9N3/c1-9(2)6-3-4-7-5-8-6/h3-5H,1-2H3
