20
gdb 93762	2.9443	1.28682	0.92789	5.2855	85.	-0.2121	-0.0224	0.1897	1285.2143	0.171556	-403.203938	-403.194803	-403.193859	-403.237599	34.4	
C	-0.2012672119	 1.5066329222	-0.0157788611	-0.396109
C	 0.0475569615	 0.0000505727	 0.0083920075	-0.097603
C	 0.8160935669	-0.4819268714	-1.2243379099	-0.182214
N	 1.0751489799	-1.9141102919	-1.1349124645	-0.348615
C	 1.5704843547	-2.4111052729	 0.0413369871	 0.372256
C	 2.1951158438	-3.7750741462	-0.0427084199	-0.488807
C	 1.476754215	-1.7123621716	 1.2063953019	-0.292809
C	 0.7692089334	-0.4466139571	 1.2975983746	 0.374478
O	 0.6784163556	 0.2037396046	 2.3267029676	-0.36961
H	 0.7400127372	 2.0566132618	-0.1258485431	 0.116155
H	-0.8598272528	 1.7878047923	-0.8437429918	 0.101794
H	-0.6546918339	 1.8206984086	 0.9254177296	 0.144513
H	-0.9196956446	-0.5263864577	 0.0227931889	 0.101648
H	 0.2466497602	-0.2842172104	-2.1375487083	 0.109695
H	 1.7658868638	 0.0764412997	-1.2941525992	 0.102885
H	 1.4022072981	-2.3612339495	-1.9776137958	 0.240732
H	 3.0725805776	-3.7654111704	-0.7010843518	 0.133315
H	 2.507230713	-4.1233987138	 0.9421722562	 0.146491
H	 1.4840750495	-4.4986694592	-0.4578327983	 0.141669
H	 1.8775283429	-2.1280206698	 2.1224882302	 0.090136
91.8174	118.9418	171.7424	190.8068	223.9826	275.8385	316.8635	356.5886	409.6008	476.5977	507.7249	544.6218	589.1919	678.5146	704.4803	755.8025	838.8216	895.0947	922.2233	989.059	1025.8986	1060.2987	1082.1054	1101.963	1129.4433	1155.1092	1187.4939	1225.5594	1257.9327	1305.0629	1348.5811	1369.2223	1395.4324	1406.9567	1416.6967	1478.7238	1480.653	1489.8536	1496.0283	1500.15	1546.9027	1658.2646	1748.9985	2954.0927	2993.1569	3028.2863	3037.6686	3074.8708	3081.0893	3099.0308	3142.6511	3146.7142	3208.3335	3612.7688
CC1CNC(C)=CC1=O	C[C@H]1CNC(=CC1=O)C	
InChI=1S/C7H11NO/c1-5-4-8-6(2)3-7(5)9/h3,5,8H,4H2,1-2H3	InChI=1S/C7H11NO/c1-5-4-8-6(2)3-7(5)9/h3,5,8H,4H2,1-2H3/t5-/m0/s1
