15
gdb 56045	3.88673	0.90057	0.81654	4.6939	71.26	-0.247	-0.041	0.2061	1364.7277	0.112852	-450.172257	-450.163104	-450.162159	-450.206801	32.795	
N	 0.6361948719	 0.619676003	-0.6039742297	-0.498001
C	-0.0219719372	-0.0000538162	 0.4037192995	 0.417704
O	 0.4118946388	-0.0313779545	 1.549123999	-0.372659
C	-1.3467828634	-0.6713918407	 0.0222234773	-0.27931
N	-1.2158754812	-2.1158185435	-0.1336397632	-0.285681
C	-1.0677072566	-2.8216670522	 0.9268945392	 0.263942
N	-0.959032645	-2.4040370851	 2.2263535642	-0.553409
C	-1.0639536559	-4.2652733338	 0.7496176805	 0.277656
N	-1.055784228	-5.416335535	 0.6469723054	-0.320147
H	 1.5539856997	 0.9928936235	-0.4191116542	 0.269495
H	 0.3296537027	 0.5462299364	-1.5581930023	 0.274563
H	-2.0634800273	-0.4149117084	 0.8162451003	 0.134053
H	-1.7252279412	-0.266665246	-0.9209637958	 0.110988
H	-0.5353613913	-1.4860653358	 2.3600040921	 0.292216
H	-0.7516818061	-3.1023994315	 2.9222116776	 0.26859
47.7953	85.4551	151.7214	178.0053	236.246	287.2566	321.1155	411.6572	415.7223	488.4003	508.8705	559.6474	588.644	624.6321	677.3697	730.0363	759.9757	844.022	885.5511	999.8092	1012.9775	1118.4635	1163.9358	1250.1301	1329.1631	1374.4167	1399.9682	1494.6736	1622.8058	1645.7992	1707.2753	1766.2013	2359.3784	3001.7569	3077.3245	3414.0485	3598.1533	3663.2747	3734.4484
NC(=O)CN=C(N)C#N	NC(=O)CN=C(N)C#N	
InChI=1S/C4H6N4O/c5-1-3(6)8-2-4(7)9/h2H2,(H2,6,8)(H2,7,9)	InChI=1S/C4H6N4O/c5-1-3(6)8-2-4(7)9/h2H2,(H2,6,8)(H2,7,9)
