17
gdb 77633	2.13424	1.44152	1.30254	4.1724	75.65	-0.2268	0.0067	0.2335	1092.1089	0.135259	-417.970228	-417.961277	-417.960333	-418.003691	32.962	
C	-0.0122164862	 1.5321891072	 0.0044291487	-0.422737
C	 0.0779814886	 0.0261405882	-0.1097379702	-0.138341
C	 0.6893451428	-0.7419287116	-1.2394696412	 0.319253
O	 0.0583247504	-1.702372708	-1.9871177503	-0.439946
C	 1.9804760812	-0.1072864854	-1.7466017396	-0.22804
N	 2.5094350881	 0.0270731775	-0.3454149743	-0.364628
C	 1.3622238559	-0.7551458678	 0.169281283	 0.15376
C	 1.4833261627	-1.7573769596	 1.165890711	 0.180927
N	 1.5893324206	-2.5917544192	 1.9635462203	-0.354436
H	 0.9441202039	 1.9972963615	-0.2422131144	 0.152022
H	-0.7829486336	 1.9297427628	-0.6640551845	 0.120133
H	-0.2702379374	 1.8210455927	 1.0277890304	 0.131535
H	-0.7774470824	-0.5151814866	 0.2964947448	 0.106799
H	-0.8878661434	-1.6761961626	-1.812036411	 0.298397
H	 2.5470434579	-0.8248515669	-2.34655199	 0.130145
H	 1.8978966324	 0.8405431321	-2.2880418946	 0.115212
H	 3.3724988886	-0.4956723744	-0.2356736382	 0.239947
105.4252	142.6436	159.998	175.8474	225.866	227.3459	294.7762	377.3469	421.5241	495.7671	549.5966	587.2954	649.2091	704.022	748.5387	766.7567	816.7893	974.2028	981.8821	998.9925	1039.6236	1099.906	1109.3274	1123.8537	1159.7729	1203.7182	1244.7453	1283.8626	1316.8975	1356.7659	1404.2111	1413.0453	1474.7058	1489.1163	1504.6132	1515.5215	2330.5354	3042.2089	3048.4151	3103.6436	3104.8379	3110.6001	3138.3969	3528.5107	3821.0009
CC1C2(O)CNC12C#N	C[C@H]1[C@@]2(O)CN[C@@]12C#N	
InChI=1S/C6H8N2O/c1-4-5(2-7)6(4,9)3-8-5/h4,8-9H,3H2,1H3	InChI=1S/C6H8N2O/c1-4-5(2-7)6(4,9)3-8-5/h4,8-9H,3H2,1H3/t4-,5+,6+/m1/s1
