13
gdb 131971	2.93009	1.65423	1.06436	1.9065	65.06	-0.2925	-0.1061	0.1864	1020.0711	0.089771	-485.972258	-485.964843	-485.963898	-486.004803	26.097	
C	-0.0338968832	 1.4835412093	 0.0073532091	-0.325474
N	-0.0130834169	 0.0291312923	 0.094342132	-0.029712
N	-0.0337558815	-0.6970916099	-1.0296879957	-0.113583
N	-0.0092226086	-1.9703425675	-0.7089746406	-0.180465
C	 0.0281740012	-2.0824976145	 0.6352385915	-0.079417
C	 0.0261231704	-0.8102415334	 1.1627883492	 0.415971
N	 0.0574033148	-0.3933467157	 2.532149169	 0.355473
O	 0.0911670783	-1.2832238898	 3.3704952402	-0.348112
O	 0.0484162205	 0.8131937697	 2.764864852	-0.373178
H	 0.8600276371	 1.9010011299	 0.4712738827	 0.169845
H	-0.0653429837	 1.7216959512	-1.0551007365	 0.170588
H	-0.9120403711	 1.8784904681	 0.5186942015	 0.169845
H	 0.0539164225	-3.0270360898	 1.1513150456	 0.168218
66.7538	165.1332	204.9662	220.4027	241.9158	351.8615	440.0491	548.8402	632.2643	708.9103	722.2383	782.3081	846.0255	897.9608	971.652	1041.0877	1136.248	1154.3934	1191.7077	1246.3963	1298.481	1330.619	1404.4968	1441.9497	1476.673	1491.9153	1507.3837	1539.6247	1628.8179	3078.5426	3159.405	3181.4737	3294.3305
CN1N=NC=C1N(=O)=O	Cn1nncc1N(=O)=O	
InChI=1S/C3H4N4O2/c1-6-3(7(8)9)2-4-5-6/h2H,1H3	InChI=1S/C3H4N4O2/c1-6-3(7(8)9)2-4-5-6/h2H,1H3
