16
gdb 36225	3.68132	1.0709	0.95815	3.4636	74.08	-0.2588	-0.017	0.2418	1225.2559	0.124861	-400.75105	-400.743352	-400.742408	-400.784023	28.704	
N	-0.1005758172	-1.0912692945	 0.5427429255	-0.307903
C	-0.062069529	 0.0215956847	 0.2345324637	 0.262758
C	 0.010733208	 1.4370933224	-0.1423175122	-0.454984
C	 1.4216513552	 1.9650275567	-0.121604824	 0.341353
C	 2.0657135128	 2.5726746356	-1.1224319653	-0.184879
C	 3.4681114053	 2.9938694218	-0.7362010499	-0.287055
C	 3.5520829111	 2.5975361717	 0.7340463018	 0.047742
O	 2.6124015353	 3.2655156689	 1.5782594555	-0.25524
C	 2.2875510949	 1.9397890935	 1.1018199658	-0.069248
H	-0.4284238443	 1.5583822262	-1.1378217902	 0.15937
H	-0.6208337632	 2.0018554667	 0.5566843093	 0.168513
H	 1.6409281955	 2.7849660543	-2.0978269858	 0.105347
H	 4.2266203749	 2.4710332585	-1.3324675313	 0.121738
H	 3.6340087359	 4.0683874749	-0.8782662172	 0.13161
H	 4.505845442	 2.3566167324	 1.1945763646	 0.104119
H	 2.1877543127	 1.1768063963	 1.8677878597	 0.11676
52.8472	100.0821	208.8765	287.5348	327.4419	386.4875	394.0742	464.3156	593.934	675.9525	764.2404	818.2285	825.397	863.9258	878.5779	920.8658	939.9778	942.7467	971.6026	1016.7516	1042.9458	1102.6417	1181.9863	1185.5408	1210.458	1253.0051	1278.9962	1307.6606	1327.6875	1370.5143	1410.6975	1453.9542	1458.897	1702.108	2362.6437	3024.949	3031.6915	3067.8689	3083.2311	3155.4738	3170.0776	3190.5394
N#CCC1=CCC2OC12	N#CCC1=CC[C@H]2O[C@@H]12	
InChI=1S/C7H7NO/c8-4-3-5-1-2-6-7(5)9-6/h1,6-7H,2-3H2	InChI=1S/C7H7NO/c8-4-3-5-1-2-6-7(5)9-6/h1,6-7H,2-3H2/t6-,7+/m1/s1
