23
gdb 121286	2.87359	1.03171	0.80777	0.9981	89.77	-0.2295	0.0301	0.2595	1512.2522	0.204913	-388.30832	-388.298251	-388.297307	-388.344026	36.787	
C	 0.1300521315	 1.5774967644	 0.0217965565	-0.38382
C	 0.0530946357	 0.060500173	-0.0312867539	-0.039654
O	 0.5571116129	-0.4515602311	 1.187637294	-0.262113
C	 0.6385371351	-1.8713599539	 1.2689379539	 0.051383
C	 1.9283569886	-2.2835783774	 2.00839099	-0.236728
C	 1.5431262674	-3.5133258995	 2.8627110544	-0.256673
C	 0.0418665607	-3.3930698109	 2.9590367759	-0.171017
C	-0.4660650915	-2.5030060064	 2.104842644	 0.332591
C	-1.9029662129	-2.1372748869	 1.910318443	-0.502267
H	 1.1638255188	 1.9029095934	 0.1689037723	 0.125464
H	-0.2442864351	 2.012301795	-0.9099807668	 0.111978
H	-0.4698910661	 1.964029092	 0.850788206	 0.125114
H	-0.987633551	-0.2612223453	-0.1959730688	 0.084813
H	 0.6456986934	-0.3247920583	-0.8779412939	 0.085891
H	 0.6148768746	-2.2815466708	 0.2449493292	 0.062844
H	 2.7666260604	-2.4658817477	 1.331524313	 0.092561
H	 2.2002539241	-1.4447486662	 2.6560862703	 0.118021
H	 1.8306740493	-4.4530293306	 2.3702718887	 0.103218
H	 2.0353304217	-3.520553282	 3.842123549	 0.101423
H	-0.5495353122	-4.0000567624	 3.6378752716	 0.083035
H	-2.5505344715	-2.6589031166	 2.6204396934	 0.119018
H	-2.0476682578	-1.0587239708	 2.0414362082	 0.135496
H	-2.246525106	-2.3819283209	 0.89643205	 0.119422
57.9042	66.8839	80.8004	202.9696	206.4703	223.2323	247.0755	255.9295	360.1554	366.0924	415.9289	587.5541	594.4689	671.0298	801.0003	820.2812	853.7988	884.6503	901.2999	930.5318	955.8883	1002.6595	1035.896	1051.7984	1065.744	1080.4826	1121.116	1150.1841	1177.6971	1188.6905	1199.869	1245.9569	1279.2716	1294.8675	1302.7413	1327.1244	1348.1241	1368.5138	1401.9385	1408.0496	1438.4644	1478.2823	1482.2811	1483.3696	1492.8444	1500.2167	1501.5859	1530.6834	1724.2422	2946.9737	2963.1366	2988.7103	3007.8387	3016.8549	3043.3162	3047.489	3063.6026	3069.5848	3109.1492	3109.4954	3117.0876	3120.1516	3176.2803
CCOC1CCC=C1C	CCO[C@H]1CCC=C1C	
InChI=1S/C8H14O/c1-3-9-8-6-4-5-7(8)2/h5,8H,3-4,6H2,1-2H3	InChI=1S/C8H14O/c1-3-9-8-6-4-5-7(8)2/h5,8H,3-4,6H2,1-2H3/t8-/m0/s1
