16
gdb 5716	4.6815	1.95306	1.42828	1.2248	70.01	-0.214	0.0203	0.2343	850.6709	0.134099	-346.641374	-346.635287	-346.634343	-346.67145	24.351	
C	 0.104228622	 1.4434180093	-0.3320125697	-0.198838
C	 1.4061481984	 2.0180983243	 0.3074170113	-0.350709
C	 2.148127305	 0.7674105699	 0.6849156098	 0.240605
C	 3.3729822	 0.3085317056	 1.0377661939	-0.173435
O	 3.3120352762	-1.040240534	 1.2572071319	-0.15383
C	 2.0206984777	-1.4360731391	 1.0408251449	-0.173435
C	 1.2702822326	-0.3651126807	 0.6869013463	 0.240605
C	-0.1265584802	 0.0407265898	 0.3108847	-0.35071
H	-0.7541746971	 2.10900237	-0.2090586469	 0.097686
H	 0.2660468932	 1.3161026261	-1.407549837	 0.11017
H	 1.9488039719	 2.672607542	-0.3808327642	 0.110861
H	 1.1707517812	 2.6172011538	 1.1967639479	 0.112674
H	 4.34561188	 0.7529795736	 1.1688370966	 0.132411
H	 1.8330531815	-2.4885163591	 1.1745206423	 0.132411
H	-0.7639236469	 0.1212421007	 1.201141135	 0.112674
H	-0.6262403356	-0.6495024621	-0.3750068622	 0.110861
151.306	239.0259	284.2096	435.6895	563.8562	607.7091	636.3752	698.7685	704.7472	732.1713	760.0943	848.3508	888.7053	905.4939	928.8056	991.5534	1056.0865	1061.9885	1100.9555	1137.0745	1151.0342	1210.4396	1230.7852	1255.0141	1289.9761	1305.0255	1313.1773	1339.3926	1399.7541	1485.7089	1485.8373	1503.363	1597.5821	1664.8	3020.8509	3021.0872	3048.1177	3078.7898	3080.235	3102.4463	3270.777	3275.5379
C1CC2=COC=C2C1	C1Cc2cocc2C1	
InChI=1S/C7H8O/c1-2-6-4-8-5-7(6)3-1/h4-5H,1-3H2	InChI=1S/C7H8O/c1-2-6-4-8-5-7(6)3-1/h4-5H,1-3H2
