19
gdb 37753	3.29756	2.05435	1.70158	1.2488	84.29	-0.191	-0.0346	0.1564	863.4367	0.162095	-348.628061	-348.621953	-348.621009	-348.657896	27.301	
C	-0.0700391452	 1.5835813609	 0.0764454344	-0.327894
C	 1.4897602244	 1.3542783812	 0.0184475493	-0.090734
C	 1.350132646	 0.0950998953	 0.9007330679	-0.058146
C	 2.1373763446	-1.0846859615	 0.3772105216	-0.123992
C	 1.8718237256	-1.0421021431	-0.951299886	-0.005093
C	 0.7456485144	-1.9865204277	-1.390544125	-0.24679
C	-0.504859274	-1.2614191601	-0.6464776637	-0.34123
C	 0.1109805509	 0.0624045341	-0.1593321477	 0.321481
C	 1.2769129099	 0.3524325066	-1.1438355097	-0.028755
H	-0.4820177105	 1.9053419149	 1.0381152327	 0.093337
H	-0.5072095855	 2.1594337136	-0.7449123786	 0.095513
H	 2.2630284029	 2.122119952	 0.1052207365	 0.068389
H	 1.1688634155	 0.2039392932	 1.9720968252	 0.064633
H	 2.2713479729	-1.9958802462	 0.9524613752	 0.094776
H	 0.5715449873	-2.0093797282	-2.470361068	 0.101734
H	 0.8797576606	-3.0112711459	-1.0379245428	 0.107116
H	-1.2958596827	-1.0657920267	-1.3763964782	 0.11251
H	-0.9236972663	-1.8858643203	 0.147798692	 0.103393
H	 1.0330560591	 0.7061477981	-2.147666145	 0.05975
247.2962	328.8148	401.8625	425.4238	472.3059	567.3533	647.221	675.1487	711.7611	739.7887	786.6664	807.5423	835.4761	858.4648	881.7875	895.0916	925.7221	958.5562	984.7035	999.7336	1034.7381	1055.1784	1061.4449	1073.7331	1099.3207	1129.0632	1165.5367	1178.7088	1187.4242	1207.263	1220.1527	1240.5833	1250.3241	1259.6627	1286.4013	1297.0084	1322.7414	1470.98	1491.8074	1508.1536	1563.5382	3039.7444	3047.9387	3056.236	3071.9125	3093.4202	3097.8433	3099.0447	3101.6041	3118.9157	3170.5169
C1C2C3C=C4CCC13C24	C1[C@H]2[C@@H]3[CH][C]4CC[C@@]13[C@@H]24	
InChI=1S/C9H10/c1-2-9-4-6-7(9)3-5(1)8(6)9/h3,6-8H,1-2,4H2	InChI=1S/C9H10/c1-2-9-4-6-7(9)3-5(1)8(6)9/h3,6-8H,1-2,4H2/t6-,7-,8+,9+/m0/s1
