19
gdb 79603	2.1594	1.82819	1.42625	3.2133	78.61	-0.2319	-0.0205	0.2114	1016.763	0.160804	-385.882193	-385.874529	-385.873585	-385.914193	30.663	
C	-0.0734590887	 1.5700111288	 0.0609093764	-0.430542
C	 0.0403417523	 0.0586924643	-0.0525415234	-0.010384
C	 0.5868566039	-0.8196514229	-1.1583179303	-0.076425
C	 1.5365755579	-0.351931515	-2.2601756657	-0.038143
C	 1.9484583491	 1.0848535545	-2.3683777999	-0.306197
C	 2.8242507549	 0.1000409414	-1.6050909336	-0.146756
C	 2.6677296756	-0.124818129	-0.1134439493	 0.393429
O	 3.5491545046	 0.0109730291	 0.7000851397	-0.329986
C	 1.3108168905	-0.7438377817	 0.1743603503	-0.184594
H	 0.8910450191	 2.0798096973	 0.0354521514	 0.138135
H	-0.7119730968	 1.992241451	-0.7224770024	 0.125051
H	-0.5302025099	 1.8188440621	 1.0242744608	 0.121665
H	-0.8101376779	-0.4295313407	 0.4202310136	 0.097458
H	-0.0093271448	-1.690283434	-1.4076457794	 0.091543
H	 1.5530651709	-0.9597027827	-3.1573512943	 0.093436
H	 2.3612658931	 1.4019659088	-3.3208178859	 0.120824
H	 1.404736415	 1.8615538758	-1.8551842704	 0.127451
H	 3.8118017833	-0.1007147394	-2.0035004498	 0.108973
H	 1.3119574079	-1.5256176978	 0.9256676822	 0.105063
103.3259	153.5717	188.2349	294.2155	344.8271	388.3294	456.1068	564.0324	579.3851	651.7949	686.4574	721.3556	769.3639	786.4013	829.2694	870.6814	930.5464	941.1642	970.732	993.9204	1027.934	1047.1703	1057.9727	1077.3057	1095.3269	1108.844	1118.4333	1141.5433	1182.3766	1200.1383	1243.9443	1309.2959	1334.5043	1362.8083	1373.2856	1420.2807	1434.368	1485.9963	1501.3586	1521.8693	1817.9149	3037.8744	3093.048	3111.9695	3131.9816	3150.362	3162.6776	3173.242	3178.1686	3186.3167	3272.9247
CC1C2C3CC3C(=O)C12	C[C@H]1[C@H]2[C@H]3C[C@H]3C(=O)[C@@H]12	
InChI=1S/C8H10O/c1-3-6-4-2-5(4)8(9)7(3)6/h3-7H,2H2,1H3	InChI=1S/C8H10O/c1-3-6-4-2-5(4)8(9)7(3)6/h3-7H,2H2,1H3/t3-,4-,5+,6-,7-/m0/s1
