18
gdb 83489	2.98628	1.49811	1.456	4.3663	71.11	-0.231	0.0198	0.2508	990.2823	0.150116	-439.121295	-439.11389	-439.112946	-439.152834	29.515	
C	-0.0886617537	 1.5519264294	 0.0282361071	-0.432266
C	 0.0397294595	 0.0337136779	 0.0125663835	 0.016632
C	 1.0520901141	-0.5921772843	-0.9902168197	-0.057577
C	 2.3800996155	-0.0570749546	-0.4203691333	-0.08037
O	 2.1577669842	-0.1017740253	 0.9993943602	-0.279088
C	 0.8047097575	-0.5912603635	 1.1892679768	-0.036871
C	 0.8650484666	-2.0786073785	 0.7814432154	 0.427897
O	 0.909932798	-3.0716696156	 1.4649416362	-0.381767
N	 0.9375265882	-2.0024625069	-0.6026676712	-0.304869
H	 0.8443406009	 2.0355617439	 0.3264211408	 0.140403
H	-0.3775793793	 1.9330136915	-0.9571569122	 0.117852
H	-0.86189447	 1.8578778101	 0.739566999	 0.126405
H	-0.9365798267	-0.4388768455	-0.1238792474	 0.095714
H	 0.8768264581	-0.424506187	-2.0523995364	 0.08755
H	 3.2295506612	-0.6958127453	-0.6864567555	 0.106242
H	 2.5955404085	 0.971367129	-0.7348416399	 0.106592
H	 0.4974795116	-0.3937635015	 2.2131384086	 0.097374
H	 1.3683328058	-2.7500136838	-1.127087902	 0.250147
150.4766	180.2135	250.8136	273.8084	298.3926	437.2308	442.906	492.6877	545.3299	639.2155	706.072	762.6823	786.7579	867.1621	882.7013	895.0058	930.4905	965.207	994.6908	1014.399	1057.4805	1073.2361	1092.1325	1116.6227	1173.4454	1211.7863	1217.9633	1244.2667	1282.5914	1294.1284	1327.4218	1363.4994	1375.1715	1402.7745	1415.1806	1492.5505	1504.9248	1526.293	1855.5194	3024.7683	3040.7442	3068.9706	3079.0305	3102.4671	3126.9446	3129.0445	3163.3271	3614.7267
CC1C2COC1C(=O)N2	C[C@H]1[C@H]2CO[C@@H]1C(=O)N2	
InChI=1S/C6H9NO2/c1-3-4-2-9-5(3)6(8)7-4/h3-5H,2H2,1H3,(H,7,8)	InChI=1S/C6H9NO2/c1-3-4-2-9-5(3)6(8)7-4/h3-5H,2H2,1H3,(H,7,8)/t3-,4+,5-/m0/s1
