18
gdb 117733	1.99086	1.12617	0.95781	3.4187	73.18	-0.2791	-0.06	0.2192	1354.2322	0.143498	-439.102318	-439.09171	-439.090766	-439.13874	36.46	
C	 0.1139057118	 1.6142964768	-0.0782802802	-0.383647
C	-0.0180853362	 0.0886165062	-0.0761505527	-0.211941
C	 0.7842808321	-0.5629022454	-1.2063805428	-0.192072
C	 0.6909298526	-2.0985178603	-1.2466789837	 0.114168
O	-0.612628291	-2.5851205429	-1.5164364071	-0.448908
C	 1.5502067641	-2.6700991462	-2.4071057138	 0.156882
O	 2.5435788953	-2.1468971865	-2.8204302776	-0.22673
C	 1.2105664774	-2.6974003639	 0.0037627739	 0.252163
N	 1.595732815	-3.1742816964	 0.9841335631	-0.32959
H	 1.1577073548	 1.9186658213	 0.0516418925	 0.126148
H	-0.2425127246	 2.0427870817	-1.0211293609	 0.121504
H	-0.4682072167	 2.0601699699	 0.7332630194	 0.121369
H	 0.3177939233	-0.3087077711	 0.8893759701	 0.126383
H	-1.0788672495	-0.1783142079	-0.1747266857	 0.09249
H	 0.4310705818	-0.2029264565	-2.1793076016	 0.118987
H	 1.8435776646	-0.2961686129	-1.1347312909	 0.137127
H	-1.1816600649	-2.3899380913	-0.7640692996	 0.304044
H	 1.1330045401	-3.6123685846	-2.8161092724	 0.121623
57.805	75.7629	87.8746	123.6731	172.2927	192.7134	246.0611	254.1387	271.8978	329.7066	378.9746	419.66	495.8238	601.3591	664.0043	725.6564	751.5754	868.5059	910.04	942.6953	998.4351	1043.6638	1053.2067	1124.3995	1156.0125	1186.8343	1279.0209	1299.2169	1336.2769	1346.3661	1388.0447	1396.1858	1414.4423	1468.7309	1492.0619	1499.5764	1508.7646	1853.9264	2343.397	2941.9336	3014.4291	3035.4806	3046.0358	3056.6625	3096.9667	3106.0104	3111.8204	3820.3506
CCCC(O)(C=O)C#N	CCC[C@@](O)(C=O)C#N	
InChI=1S/C6H9NO2/c1-2-3-6(9,4-7)5-8/h5,9H,2-3H2,1H3	InChI=1S/C6H9NO2/c1-2-3-6(9,4-7)5-8/h5,9H,2-3H2,1H3/t6-/m0/s1
