18
gdb 8504	3.79042	2.08126	1.62327	1.4829	72.43	-0.2189	0.0779	0.2968	852.3276	0.153913	-343.882961	-343.875606	-343.874662	-343.913925	29.043	
C	 0.0184182687	 1.4348011835	-0.0732062312	-0.530266
C	 0.0087825954	-0.0615702054	-0.0445616846	 0.379375
N	 0.5974303893	-0.9358828927	-1.117379906	-0.411296
C	 0.0586032852	-1.9214255747	-0.1183282893	 0.34598
C	 0.1574978201	-3.4076826758	-0.280940413	-0.528275
C	 0.5058472765	-1.017332887	 1.0812414677	-0.099236
N	-0.8247904044	-0.9943719888	 1.7718290657	-0.349988
C	-1.167410688	-1.0328408932	 0.3124680579	-0.131389
H	 1.0399504299	 1.8121434416	-0.182418826	 0.130676
H	-0.5772158617	 1.8197451341	-0.9083481819	 0.117764
H	-0.4040256245	 1.8243127555	 0.8578803684	 0.142517
H	-0.0008516279	-0.9176324559	-1.9496545769	 0.197309
H	 1.199451366	-3.7112210734	-0.4223321845	 0.136061
H	-0.2334839805	-3.919991268	 0.6055054989	 0.118988
H	-0.4179296319	-3.7516581287	-1.147529515	 0.122822
H	 1.463719779	-1.0023015945	 1.6030021323	 0.082015
H	-1.0134120587	-1.9029813994	 2.204256468	 0.205715
H	-2.1925848224	-1.0356500872	-0.0677910206	 0.071227
201.1391	211.8616	218.19	221.0134	264.5201	358.1139	488.3247	535.14	590.1133	687.8408	727.5526	771.7368	810.2801	845.4012	869.6649	895.8262	924.083	1005.1593	1044.5982	1084.2089	1091.5982	1095.6522	1109.5075	1152.3373	1163.9157	1189.8026	1238.8614	1261.4894	1278.8584	1285.6623	1318.7588	1391.3375	1405.5714	1438.7372	1478.666	1483.7658	1488.5158	1492.2212	3027.6271	3033.459	3079.5132	3091.8039	3098.9948	3105.3761	3111.0514	3116.9507	3377.873	3397.1474
CC12NC3(C)C1NC23	C[C@@]12N[C@@]3(C)[C@@H]1N[C@@H]23	
InChI=1S/C6H10N2/c1-5-3-6(2,8-5)4(5)7-3/h3-4,7-8H,1-2H3	InChI=1S/C6H10N2/c1-5-3-6(2,8-5)4(5)7-3/h3-4,7-8H,1-2H3/t3-,4+,5-,6+
