18
gdb 78566	2.33817	1.82458	1.28413	2.6912	76.19	-0.2307	-0.0038	0.2269	1041.045	0.1468	-401.911782	-401.903611	-401.902667	-401.944216	31.349	
C	 0.0494637052	 1.5823184777	-0.0492114827	-0.422787
C	 0.0523388479	 0.0684090967	-0.1229620144	 0.071112
C	 0.7041400157	-0.6668298223	-1.309052368	-0.263388
C	 2.1539022663	-0.1402452857	-1.2654291575	 0.435492
O	 2.9036767822	 0.3086199663	-2.0863084204	-0.342975
C	 2.3257080293	-0.7058338003	 0.1109561813	-0.226434
N	 0.9934014113	-0.6730647692	 0.8132884435	-0.184281
C	 1.2251127872	-1.6950861886	-0.2163285938	 0.353106
C	 1.1588361012	-3.1765155901	-0.0654444505	-0.529786
H	 1.0385114682	 2.0035962363	-0.2531539551	 0.136245
H	-0.6504673231	 1.9968253687	-0.7824277081	 0.125967
H	-0.2649239783	 1.911727427	 0.9458209437	 0.131834
H	-0.9438816391	-0.329564068	 0.0934265343	 0.089413
H	 0.214138539	-0.8636200823	-2.2593802777	 0.091477
H	 3.2102515247	-0.8299996276	 0.7202995965	 0.117961
H	 0.1219491763	-3.5284933335	-0.0795870829	 0.134854
H	 1.6984859278	-3.6765128532	-0.8759698899	 0.13836
H	 1.6074219584	-3.475844572	 0.8860630716	 0.14383
124.4701	165.4528	191.3411	204.1342	224.4063	304.59	383.4499	446.0396	545.6049	598.7034	640.8253	679.1887	752.6692	762.7089	818.6985	866.7644	883.723	931.5548	982.9208	1029.8391	1042.9468	1067.5173	1101.1143	1105.7081	1111.1359	1148.1334	1176.74	1213.3579	1233.6784	1292.8329	1374.9856	1401.2155	1413.191	1436.7967	1479.6807	1487.6834	1490.3104	1493.9485	1878.0567	3036.302	3038.2776	3058.021	3101.4391	3108.4905	3116.1201	3117.7812	3155.3594	3219.9004
CC1C2C(=O)C3N1C23C	C[C@H]1[C@H]2C(=O)[C@H]3N1[C@@]23C	
InChI=1S/C7H9NO/c1-3-4-5(9)6-7(4,2)8(3)6/h3-4,6H,1-2H3	InChI=1S/C7H9NO/c1-3-4-5(9)6-7(4,2)8(3)6/h3-4,6H,1-2H3/t3-,4-,6+,7-,8?/m0/s1
