17
gdb 6792	3.37401	1.43396	1.1348	6.4149	61.44	-0.24	0.0326	0.2726	1053.8814	0.142077	-438.155443	-438.146992	-438.146048	-438.188992	30.242	
N	 0.7232221774	 1.5099632266	 0.3992982499	-0.498396
H	 0.4411670849	 0.6635511758	-0.0859067091	 0.243361
H	 2.2915134401	 1.5460287408	 1.3429518713	 0.334452
H	 0.7071050185	 2.2688056928	-0.2738942709	 0.251048
C	-0.1677032798	 1.7899640098	 1.5310438393	-0.186889
C	-0.1211962813	 0.6263124385	 2.5256522155	-0.06615
O	 1.1867838671	 0.2011116863	 2.8475286363	-0.23234
C	 1.9173149105	 1.004807845	 3.751107328	-0.217606
C	 3.0061684183	 1.8953881669	 3.1290115656	 0.370585
O	 3.0509966315	 1.9904959169	 1.8034852873	-0.38047
O	 3.7841484332	 2.4689335631	 3.8480717723	-0.334485
H	 0.1858029975	 2.7112068363	 2.0082898065	 0.128066
H	-1.2186672725	 1.9565924336	 1.2477892052	 0.103714
H	-0.6867229665	 0.8963352906	 3.4302355444	 0.104957
H	-0.6076598689	-0.251269748	 2.0827481471	 0.11107
H	 1.2588625859	 1.6519579792	 4.3469007556	 0.122814
H	 2.4327747942	 0.3399112659	 4.4513510558	 0.146269
59.8443	84.9127	166.9086	185.5655	248.3983	309.6877	357.1744	395.9886	494.3806	536.2257	581.6889	654.9375	820.9151	863.0849	871.3163	901.4789	941.8094	992.7748	1034.7158	1060.6863	1087.3813	1158.7787	1229.5332	1270.4452	1287.1928	1301.7531	1334.7977	1370.4826	1393.3213	1421.1103	1425.7015	1463.0846	1489.865	1510.3946	1652.2587	1846.932	2984.1711	3000.0561	3018.1121	3050.5928	3072.8643	3085.6615	3258.8099	3502.3209	3586.3521
[NH3+]CCOCC([O-])=O	NCCOCC(=O)O	
InChI=1S/C4H9NO3/c5-1-2-8-3-4(6)7/h1-3,5H2,(H,6,7)	InChI=1S/C4H9NO3/c5-1-2-8-3-4(6)7/h1-3,5H2,(H,6,7)
