17
gdb 44947	2.65963	1.83887	1.61921	3.0434	68.2	-0.2348	0.0264	0.2612	904.5261	0.14	-455.156294	-455.149604	-455.148659	-455.187177	27.205	
N	-0.0437044626	 1.2757689324	-0.0237448448	-0.559067
C	-0.0065360683	 0.0184431057	-0.0076083445	 0.452679
O	 1.1087456735	-0.7747237131	-0.0421014853	-0.244661
C	 0.6399921062	-2.1304503766	 0.054000893	 0.188876
C	 0.5021673059	-2.5532015458	 1.5200283639	-0.180099
N	-0.3469487601	-1.5815535593	 2.2031475156	-0.310252
C	-1.5788755504	-1.246632175	 1.4880770084	-0.167053
C	-1.1974586382	-0.9284491242	 0.0384546918	-0.027678
O	-0.6354712452	-2.1147964303	-0.5457894528	-0.259336
H	 0.8983292167	 1.6699904636	-0.03364168	 0.226253
H	 1.3097109143	-2.7744347032	-0.5177229259	 0.104023
H	 0.1059022234	-3.5843559792	 1.5106126619	 0.094578
H	 1.486014386	-2.5702504321	 2.0006214165	 0.116068
H	-0.5312706031	-1.8588911224	 3.1580639307	 0.229297
H	-2.3259424967	-2.0589171349	 1.4629302962	 0.094076
H	-2.0337101469	-0.3684844452	 1.9572383801	 0.12665
H	-2.0405506444	-0.5926359603	-0.5622492248	 0.115645
140.2196	246.0498	279.2642	375.1692	432.637	452.3354	484.1215	584.724	678.903	690.8204	774.9898	829.7197	864.9872	874.2352	903.8879	924.8394	935.0718	985.5003	1025.9175	1038.8632	1052.1803	1095.8579	1146.241	1168.0332	1213.9725	1246.7804	1265.3358	1275.0427	1317.365	1338.9499	1372.7283	1389.1446	1417.0568	1484.4651	1489.7628	1501.0874	1806.2681	2946.2455	2953.5256	3069.7371	3078.3264	3115.8657	3145.2751	3476.2681	3565.2463
N=C1OC2CNCC1O2	[NH][C]1O[C@H]2CNC[C@@H]1O2	
InChI=1S/C5H8N2O2/c6-5-3-1-7-2-4(8-3)9-5/h3-4,6-7H,1-2H2	InChI=1S/C5H8N2O2/c6-5-3-1-7-2-4(8-3)9-5/h3-4,6-7H,1-2H2/t3-,4-/m0/s1
