17
gdb 120182	5.17783	0.83742	0.81229	3.361	70.55	-0.2607	-0.0137	0.247	1428.8576	0.133818	-458.881523	-458.872944	-458.872	-458.915621	30.664	
C	-0.1560262354	 1.3487815078	-0.0522995685	-0.226408
O	-0.1178661141	-0.0581985051	-0.1138290917	-0.239031
C	 0.8099607873	-0.5396517054	-1.0640122029	-0.105329
C	 0.7549930337	-2.0533591254	-1.0193291465	-0.004891
C	-0.4876169818	-2.728593652	-1.6663573382	-0.077786
O	 0.0607169709	-2.3852270975	-3.0085127942	-0.30212
C	 1.2704781912	-2.8280000627	-2.2637109913	-0.106188
C	 0.3657831894	-4.015800501	-1.8243506552	 0.477993
O	 0.315334821	-5.1984179754	-1.7822429575	-0.305188
H	 0.8169341742	 1.7709104875	 0.2451318972	 0.105737
H	-0.4405535757	 1.791688958	-1.0194886472	 0.108611
H	-0.9031197146	 1.6224015557	 0.6963480299	 0.130536
H	 0.5667449175	-0.1780226118	-2.0725876923	 0.112925
H	 1.8292207752	-0.1964826357	-0.8171188393	 0.090289
H	 1.0551622903	-2.4440693	-0.0421832571	 0.101104
H	-1.546393907	-2.5570936662	-1.4906044531	 0.123143
H	 2.2278068779	-2.7818438406	-2.7788429621	 0.116602
67.307	94.6573	106.879	163.2582	228.5334	298.1326	340.5855	399.1983	487.6766	587.0882	693.3572	766.3662	786.7822	801.332	850.438	899.267	964.8416	990.5075	1048.522	1085.3988	1102.5331	1133.8697	1142.5305	1160.1873	1180.1435	1183.1789	1197.3998	1231.7337	1254.5497	1264.2142	1373.258	1426.612	1479.6308	1485.8011	1501.6987	1527.6055	1942.0396	2959.1103	2974.1035	3017.6678	3028.5087	3074.8667	3117.7681	3151.738	3168.5713
COCC1C2OC1C2=O	COC[C@H]1[C@H]2O[C@@H]1C2=O	
InChI=1S/C6H8O3/c1-8-2-3-5-4(7)6(3)9-5/h3,5-6H,2H2,1H3	InChI=1S/C6H8O3/c1-8-2-3-5-4(7)6(3)9-5/h3,5-6H,2H2,1H3/t3-,5+,6-
