17
gdb 35741	2.83097	1.37663	1.16992	4.8494	71.74	-0.2616	0.0165	0.2781	1087.1457	0.137296	-417.989722	-417.981717	-417.980773	-418.023073	29.695	
N	 0.298092954	-1.1458355804	 0.3444790691	-0.319738
C	 0.1208303199	-0.0106130516	 0.2217977124	 0.274713
C	-0.124772502	 1.4420478037	 0.0637752702	-0.035701
C	-0.7622089101	 2.052865208	 1.3271277949	-0.319359
C	 0.4744957287	 2.3470256095	 2.1632022306	 0.303047
C	 0.4182245871	 2.9391583009	 3.5168421104	-0.305243
N	 0.8353024876	 1.5365073028	 3.3334370511	-0.335466
C	 1.5808953271	 2.6112359109	 1.1453365714	-0.121553
O	 1.0808984447	 2.1596563492	-0.125921731	-0.256289
H	-0.7379048774	 1.5811430719	-0.831554282	 0.132901
H	-1.2732587461	 2.9782121145	 1.0424875245	 0.126191
H	-1.4789510628	 1.393139286	 1.8206019778	 0.126432
H	 1.2052548778	 3.6093577996	 3.8531713869	 0.126106
H	-0.5611859343	 3.1485834611	 3.9411420619	 0.117145
H	 0.0806705555	 0.9021102201	 3.5842468447	 0.23743
H	 1.8173723496	 3.6755404389	 1.0397429859	 0.114988
H	 2.4884753606	 2.0638191749	 1.4193356412	 0.134399
48.7623	84.179	182.3246	264.2813	282.6942	380.9929	400.3179	453.9009	526.8295	581.47	758.0168	772.6437	822.2158	852.6993	913.8759	930.3523	946.0913	954.0483	984.4795	1011.3963	1067.9127	1086.6015	1101.2253	1140.7208	1189.0236	1229.555	1247.6703	1265.8916	1295.2295	1325.0478	1349.5959	1368.6556	1424.3896	1476.8001	1516.4081	1518.1442	2353.5522	3038.7966	3054.4964	3075.3673	3087.3217	3100.735	3118.2247	3184.1028	3498.8001
N#CC1CC2(CN2)CO1	N#C[C@H]1C[C@]2(CN2)CO1	
InChI=1S/C6H8N2O/c7-2-5-1-6(3-8-6)4-9-5/h5,8H,1,3-4H2	InChI=1S/C6H8N2O/c7-2-5-1-6(3-8-6)4-9-5/h5,8H,1,3-4H2/t5-,6+/m1/s1
