17
gdb 70799	2.88199	1.70951	1.44577	3.7886	66.85	-0.239	0.0649	0.3039	935.2878	0.135627	-458.908813	-458.901386	-458.900441	-458.940089	30.318	
O	-0.1336335965	 1.3609371501	 0.0740706796	-0.485172
C	-0.0038955822	-0.0191163831	-0.0059344585	 0.371692
C	 0.387582161	-0.7629842946	-1.3189884762	-0.392024
C	-0.4285647418	-1.9104029925	-0.6946898742	 0.395744
O	-0.9548428763	-2.9799883015	-1.3946807975	-0.473735
C	-0.0007922776	-2.0913528601	 0.8356805337	-0.006403
C	 0.8069491444	-0.8000628957	 1.056186247	-0.286182
O	-1.329809938	-1.6706857638	 1.2626961506	-0.289374
C	-1.3297761825	-0.9111643478	 0.0513666886	 0.014739
H	 0.744829967	 1.7558076248	 0.0545799495	 0.281851
H	-0.1385844772	-0.3613131672	-2.1892075888	 0.113496
H	 1.4508859531	-0.8989847211	-1.5395645196	 0.08649
H	-0.2340148458	-3.5642724428	-1.6540779714	 0.283935
H	 0.3245038711	-3.0401381884	 1.2623964237	 0.081999
H	 1.8710756115	-0.8719219886	 0.8119732387	 0.089617
H	 0.6725387521	-0.4276864373	 2.0740092547	 0.115041
H	-2.2820217524	-0.4996248404	-0.2769030299	 0.098285
207.5182	213.6514	247.5619	282.7906	315.9933	397.9927	441.3229	473.3963	561.3111	603.0471	612.1516	688.9188	746.2384	817.116	869.2014	898.9075	928.7486	936.2025	963.5256	1000.8017	1038.8545	1057.9992	1097.6211	1102.6942	1137.66	1160.4173	1165.6637	1190.1259	1218.341	1247.0283	1295.3312	1304.8526	1328.6953	1364.7208	1416.36	1476.0656	1506.6136	3046.6787	3056.6624	3113.8221	3122.0169	3122.9295	3151.9761	3800.8588	3802.8336
OC12CC3(O)C(C1)OC23	O[C@@]12C[C@@]3(O)[C@@H](C1)O[C@@H]23	
InChI=1S/C6H8O3/c7-5-1-3-6(8,2-5)4(5)9-3/h3-4,7-8H,1-2H2	InChI=1S/C6H8O3/c7-5-1-3-6(8,2-5)4(5)9-3/h3-4,7-8H,1-2H2/t3-,4+,5-,6-/m1/s1
