22
gdb 97370	3.39109	0.7413	0.64278	2.8928	84.08	-0.2458	0.0269	0.2726	1800.5595	0.190135	-441.485605	-441.474256	-441.473312	-441.522784	40.067	
C	-0.0210613865	 1.3965446692	-0.0717242809	-0.314638
N	 0.0507462104	-0.04855869	-0.0316252559	-0.211621
C	-1.0363237854	-0.6798749193	-0.0066797961	 0.134022
O	-1.0538055065	-2.0252257326	 0.0640782734	-0.213896
C	-2.3306471089	-2.6726969039	-0.045198903	 0.101326
C	-2.6929208981	-2.8907009526	-1.5094579044	-0.395817
C	-2.2237745595	-3.9912059575	 0.7446070973	 0.120259
C	-1.8255494609	-3.7770891311	 2.2016863242	-0.420158
O	-3.4417609559	-4.7198949878	 0.6289035277	-0.427998
H	 0.5043332057	 1.7671792864	-0.9593853787	 0.127351
H	-1.0491593256	 1.7956181461	-0.0878240602	 0.093454
H	 0.4946988409	 1.8163907944	 0.7996964279	 0.126764
H	-2.0347463179	-0.2124953833	-0.0219592534	 0.071335
H	-3.0923917078	-2.0425695528	 0.4424872193	 0.068236
H	-3.6187601029	-3.4648663693	-1.5813635056	 0.136701
H	-2.8238626436	-1.9359111151	-2.0273423044	 0.114135
H	-1.8957297814	-3.4463450167	-2.0128206334	 0.131662
H	-1.4696101449	-4.6146239629	 0.2494351934	 0.103206
H	-2.5671439091	-3.1536635924	 2.7193093472	 0.10131
H	-1.7679641646	-4.7389383167	 2.7179985342	 0.125802
H	-0.8583294126	-3.275751563	 2.2726750314	 0.148683
H	-4.079545325	-4.3239350989	 1.23318025	 0.279881
40.5359	68.8621	88.1793	148.0616	204.749	216.4819	224.4304	246.6611	287.8926	295.7526	330.063	353.1345	371.9682	427.8704	499.5548	512.6039	632.972	829.4203	905.8435	940.7951	984.5329	988.7284	1045.2734	1072.6335	1086.895	1120.8746	1140.0596	1145.0723	1154.6712	1194.6861	1244.9402	1287.1881	1329.5113	1359.2782	1391.8985	1399.0021	1401.9244	1417.0778	1422.1354	1450.2594	1480.8997	1488.1689	1491.2772	1495.1569	1499.3865	1505.4843	1777.4984	2962.067	2968.9566	2984.0962	3020.6864	3044.9419	3048.7851	3055.8925	3075.5157	3102.6546	3114.6056	3140.374	3140.9135	3799.6493
CN=COC(C)C(C)O	CN=CO[C@@H](C)[C@@H](C)O	
InChI=1S/C6H13NO2/c1-5(8)6(2)9-4-7-3/h4-6,8H,1-3H3	InChI=1S/C6H13NO2/c1-5(8)6(2)9-4-7-3/h4-6,8H,1-3H3/t5-,6+/m1/s1
