20
gdb 93417	2.98759	1.21939	0.90885	3.6627	83.13	-0.2137	-0.0506	0.1631	1294.8507	0.17199	-403.169981	-403.161214	-403.16027	-403.203859	33.379	
C	-0.0757119301	 1.5901837288	 0.119768094	-0.382612
C	 0.0188818659	 0.0635540034	 0.0165247463	 0.031407
C	 0.342138467	-0.3526507361	-1.4282963156	-0.254227
C	 0.5463017753	-1.8089536896	-1.720553711	-0.047647
C	 0.7245603458	-2.8688795418	-0.9189045305	-0.141585
C	 0.786555759	-2.9925783268	 0.5573941168	 0.336248
O	 0.8807733496	-4.1022526405	 1.0494610198	-0.323958
C	 0.7338486936	-1.7808176692	 1.5018203069	-0.28471
N	 0.9664034112	-0.4407409578	 1.0065023365	-0.284894
H	 0.8943546013	 2.0521279394	-0.0987996875	 0.110874
H	-0.8063496074	 1.9952659026	-0.5881948587	 0.109474
H	-0.3649280656	 1.8825663776	 1.1316139659	 0.124094
H	-0.9582855663	-0.3615127582	 0.2817951975	 0.085414
H	-0.4462530194	 0.018645369	-2.0985109341	 0.115088
H	 1.2503158923	 0.180721012	-1.7572487874	 0.114863
H	 0.5612494621	-2.0244135444	-2.7892585656	 0.106461
H	 0.8472243815	-3.8427113051	-1.3873742369	 0.105015
H	-0.2584111314	-1.8112771817	 1.9737595111	 0.134263
H	 1.4449481935	-2.0001323474	 2.3050812227	 0.131379
H	 1.921857762	-0.3262638841	 0.6859493197	 0.215054
39.4473	113.0742	209.406	223.4316	309.1987	318.2039	344.1719	356.8126	426.9032	486.3842	534.3295	635.9069	651.4564	699.0644	754.1286	824.6501	855.6447	904.7005	916.4561	976.7494	996.5966	1043.9104	1088.3516	1114.7409	1153.4647	1174.4816	1215.3604	1228.2841	1293.4957	1301.3635	1329.7131	1349.621	1388.7442	1395.1426	1409.7462	1424.6641	1442.573	1453.2066	1481.512	1494.1829	1510.5288	1696.2463	1748.5525	2972.8718	3014.9378	3018.2348	3029.1328	3031.7858	3079.9096	3095.8231	3121.9322	3126.6675	3162.1943	3526.5974
CC1CC=CC(=O)CN1	C[C@H]1CC=CC(=O)CN1	
InChI=1S/C7H11NO/c1-6-3-2-4-7(9)5-8-6/h2,4,6,8H,3,5H2,1H3	InChI=1S/C7H11NO/c1-6-3-2-4-7(9)5-8-6/h2,4,6,8H,3,5H2,1H3/t6-/m0/s1
