19
gdb 72845	3.46767	1.25049	1.08598	1.6198	81.37	-0.2412	0.0441	0.2853	1165.0185	0.157722	-385.829515	-385.820852	-385.819907	-385.862797	33.359	
C	-0.1811033947	 1.6226415137	 0.4667569515	-0.478179
C	 0.0848840209	 0.1926204071	 0.0788306941	 0.458618
C	-1.1051588143	-0.7777756706	-0.1532923925	-0.291625
C	-0.4123247931	-1.8424388415	 0.7756401828	-0.173438
C	-0.1927037331	-3.1754649895	 0.2533786935	 0.327558
C	 0.0001024195	-4.2739057009	-0.1982493914	-0.466241
C	 0.8191651716	-0.8899125646	 0.9312826436	-0.148829
C	 1.8230051304	-0.9145050293	-0.2282538111	-0.094718
O	 1.0700091944	 0.0721626173	-0.975658171	-0.327159
H	 0.7476224753	 2.1308909147	 0.7423010921	 0.124205
H	-0.6260637756	 2.162636795	-0.3769058641	 0.131505
H	-0.876946072	 1.6784077809	 1.3102170084	 0.115496
H	-2.072042826	-0.436080329	 0.2237858848	 0.10365
H	-1.2045033624	-1.0767359548	-1.1973338056	 0.12181
H	-0.9437890199	-1.909994573	 1.7299754544	 0.10551
H	 0.1626183841	-5.2470560642	-0.5907214729	 0.196481
H	 1.2032200477	-0.7382905799	 1.9393911263	 0.078808
H	 2.8220848704	-0.5403182675	 0.0267796648	 0.100333
H	 1.9185583668	-1.8657013139	-0.7639043875	 0.116216
57.6562	137.1016	186.9081	211.0568	254.433	326.4942	354.3272	402.9118	495.3558	541.6919	616.7647	626.0868	642.9026	649.9819	759.6179	835.0973	871.2166	904.6643	922.6617	948.0284	1001.0758	1004.3957	1038.5722	1071.086	1114.9108	1129.6461	1166.1446	1175.7419	1197.0079	1221.9514	1241.3322	1303.8662	1315.8146	1336.8432	1364.6407	1408.7927	1465.5814	1479.4373	1488.666	1522.3025	2229.9108	3018.1244	3030.9775	3050.8497	3068.1765	3070.1817	3099.2655	3112.0997	3116.184	3139.7955	3503.4111
CC12CC(C#C)C1CO2	C[C@]12C[C@@H](C#C)[C@H]1CO2	
InChI=1S/C8H10O/c1-3-6-4-8(2)7(6)5-9-8/h1,6-7H,4-5H2,2H3	InChI=1S/C8H10O/c1-3-6-4-8(2)7(6)5-9-8/h1,6-7H,4-5H2,2H3/t6-,7-,8+/m1/s1
