17
gdb 39739	3.84966	1.58809	1.39081	1.8517	79.26	-0.2171	-0.0553	0.1618	947.4539	0.136853	-380.707864	-380.701178	-380.700234	-380.738568	27.803	
C	-0.2913278158	 1.3637337019	-0.3312385807	-0.324441
N	 1.0609157189	 0.9353436446	 0.1219730445	-0.376174
C	 0.0305690445	-0.0526185342	-0.1046064016	 0.340115
C	-0.285461215	-1.0714902805	 1.042678199	-0.09291
C	 0.2140675884	-2.1986106294	 0.2264522583	-0.08271
N	-1.1235024491	-2.3140336455	 0.7735720625	-0.127278
C	-2.0166982318	-2.3701033284	-0.4148677222	-0.178589
C	-1.2940330076	-1.5026729842	-1.436189347	-0.082115
C	-0.0288436604	-1.2915316268	-1.0084068833	-0.123742
H	-0.8548308499	 1.9342086343	 0.4023577774	 0.12313
H	-0.412709925	 1.698890266	-1.3587304665	 0.117107
H	 1.7247344353	 0.9508345772	-0.6475092794	 0.238742
H	-0.1031546546	-0.8611848121	 2.0904968437	 0.115495
H	 1.0048098939	-2.9162301218	 0.406846482	 0.097066
H	-2.1605445824	-3.4295140867	-0.6611452223	 0.123837
H	-3.0027547119	-1.9374773555	-0.2094910936	 0.122418
H	-1.8447269473	-0.7735897889	-2.023989521	 0.110049
147.0055	251.1813	281.3835	356.5181	400.6462	481.7302	555.4222	661.6632	732.7733	772.5629	788.6037	797.2675	825.1327	869.5635	885.2752	893.4182	919.3454	937.0186	958.9994	967.0368	1008.4414	1025.2227	1053.8687	1085.0922	1119.9328	1187.0249	1189.9179	1206.882	1213.813	1252.7098	1271.2416	1281.0768	1316.5791	1399.8256	1470.021	1510.3263	1552.894	3026.1045	3070.7087	3102.6364	3168.0951	3181.8249	3186.8887	3194.6486	3513.0796
C1NC11C2C3N2CC=C13	C1N[C@]21[C@@H]1[C@H]3N1C[CH][C]23	
InChI=1S/C7H8N2/c1-2-9-5-4(1)7(3-8-7)6(5)9/h1,5-6,8H,2-3H2	InChI=1S/C7H8N2/c1-2-9-5-4(1)7(3-8-7)6(5)9/h1,5-6,8H,2-3H2/t5-,6-,7-,9?/m0/s1
