21
gdb 37374	2.76812	1.96785	1.77625	0.2064	83.27	-0.2399	0.0858	0.3257	906.7879	0.18818	-349.958622	-349.952412	-349.951467	-349.988605	28.159	
C	 0.0224481256	 1.5552107119	 0.1882118952	-0.32089
C	 1.3030495191	 0.7773169178	-0.0154676338	-0.023861
C	-0.0264591069	 0.0609550864	-0.0265890507	-0.015367
C	-0.3328382191	-0.5952436082	-1.3756484423	-0.052666
C	-0.279829533	 0.4245489512	-2.5314712558	-0.2354
C	 1.2121541969	 0.7110253008	-2.6460095255	-0.059881
C	 1.9400257542	-0.527958108	-2.1621234561	-0.055664
C	 0.8719975967	-1.5206537207	-1.7060898478	-0.212095
C	 1.9991518866	 0.7551899508	-1.3488174899	-0.045292
H	-0.1907887191	 1.9096189288	 1.1912225436	 0.102955
H	-0.3021792191	 2.2311592551	-0.5934682146	 0.112908
H	 1.9530583383	 0.6560422403	 0.8465934055	 0.076072
H	-0.2841944333	-0.5432102097	 0.8386085386	 0.077168
H	-1.2834931286	-1.1333928441	-1.3413146707	 0.060577
H	-0.6339995561	-0.0412622424	-3.4594614374	 0.091164
H	-0.9023792687	 1.3058117384	-2.3562721726	 0.096244
H	 1.5797141235	 1.2857609776	-3.489018574	 0.074618
H	 2.8345874023	-0.8934507116	-2.6532755243	 0.073787
H	 1.1761928601	-2.1225297544	-0.8424417023	 0.090263
H	 0.6270266663	-2.2083447652	-2.5244000356	 0.089654
H	 2.9349524244	 1.303933435	-1.4025581397	 0.075706
254.9594	301.9301	381.4029	454.8053	479.2613	536.0905	606.7827	668.8638	718.9678	772.9476	781.1785	825.3893	826.7841	873.5677	899.9043	910.6859	918.9462	959.7326	962.9089	1007.3136	1030.9722	1036.2967	1048.5262	1068.2275	1090.4254	1098.6362	1105.6044	1124.7254	1131.8043	1150.4225	1175.5	1196.1429	1221.1367	1231.1141	1301.9587	1310.1962	1325.2484	1346.134	1362.3747	1381.5773	1406.8624	1422.3497	1481.1014	1495.2487	1512.574	3027.6371	3031.2028	3068.9429	3072.7148	3085.2185	3131.7076	3135.3678	3142.2358	3148.0004	3163.5511	3176.2126	3221.2371
C1C2C1C1CC3C(C1)C23	C1[C@H]2[C@@H]1[C@H]1C[C@@H]3[C@H](C1)[C@H]23	
InChI=1S/C9H12/c1-4-2-7-6(1)9(7)8-3-5(4)8/h4-9H,1-3H2	InChI=1S/C9H12/c1-4-2-7-6(1)9(7)8-3-5(4)8/h4-9H,1-3H2/t4-,5-,6+,7-,8-,9+/m0/s1
