21
gdb 73146	2.5497	1.6087	1.35582	1.6583	82.12	-0.2215	0.0773	0.2988	1072.7216	0.181722	-387.048985	-387.040513	-387.039568	-387.081787	33.574	
C	 0.0915281355	 1.665658574	 0.057894034	-0.499757
C	 0.032614101	 0.15635549	 0.0727386972	 0.198498
C	-1.3565114525	-0.5451772613	-0.0496292658	-0.284279
C	-1.0365783866	-1.4156537181	 1.2061252024	-0.229619
C	 0.3589304282	-0.7624907992	 1.2937873374	 0.078466
O	 1.3610640327	-1.4801431898	 0.5386296769	-0.330675
C	 1.1508609604	-0.6399107771	-0.6013623592	 0.441264
C	 1.2862135392	-1.1563961972	-1.9940991603	-0.336058
C	 2.3005075109	-0.1668258916	-1.4290661899	-0.3486
H	 1.0876292697	 2.0296527345	 0.3291737585	 0.123823
H	-0.1491480264	 2.0590511619	-0.9377289122	 0.118243
H	-0.6312029923	 2.0953010828	 0.7599416257	 0.115697
H	-2.1956690495	 0.1393776949	 0.0984893738	 0.098087
H	-1.5150819544	-1.0892061933	-0.9839174299	 0.102247
H	-1.6771957931	-1.1916127064	 2.0635150746	 0.099184
H	-1.0063829465	-2.4970286924	 1.0585361829	 0.110829
H	 0.7385090639	-0.4239868632	 2.2617085541	 0.072624
H	 1.6051539549	-2.1867152345	-2.1099898391	 0.122821
H	 0.5894944434	-0.8088309366	-2.7509951062	 0.112195
H	 2.2944578387	 0.851445711	-1.8046494454	 0.112105
H	 3.2814001827	-0.5507091785	-1.1693105696	 0.122905
70.5868	183.9774	200.1335	217.443	236.6969	322.7382	363.0337	412.2916	485.3348	555.533	623.5738	730.3494	752.5118	762.1616	855.6619	858.9232	868.1665	891.8548	916.9576	948.5476	958.8687	980.1492	1013.0081	1027.9188	1043.198	1064.0227	1114.6885	1155.8078	1165.44	1186.4188	1203.7308	1219.3272	1222.9111	1248.3034	1272.156	1308.5559	1338.8067	1393.7979	1411.0253	1446.5891	1462.6662	1484.6665	1490.3509	1492.9944	1500.0643	3021.1605	3055.9803	3060.4382	3073.7555	3082.4888	3100.5519	3105.4384	3123.4073	3125.9604	3126.9938	3207.0822	3221.4999
CC12CCC1OC21CC1	C[C@]12CC[C@H]1OC12CC1	
InChI=1S/C8H12O/c1-7-3-2-6(7)9-8(7)4-5-8/h6H,2-5H2,1H3	InChI=1S/C8H12O/c1-7-3-2-6(7)9-8(7)4-5-8/h6H,2-5H2,1H3/t6-,7+/m1/s1
