17
gdb 17255	4.31468	1.87312	1.83891	1.0006	67.31	-0.2367	0.0717	0.3084	795.3858	0.144666	-363.807478	-363.80129	-363.800346	-363.837553	25.383	
C	-0.0086155483	 1.4765187015	-0.0326236797	-0.316553
N	 1.239530763	 0.6782203188	 0.0375737837	-0.374079
C	-0.0594728078	 0.004303281	-0.0014021253	 0.398341
C	-0.5312899444	-0.89247349	 1.1607103589	-0.297213
C	-1.0964390061	-2.0286848661	 0.2787336111	 0.074862
C	-0.0019227458	-2.2663425171	-0.7870600428	-0.235029
C	-0.5193008229	-0.861837769	-1.1741464227	-0.016702
O	-1.850151475	-1.2736594246	-0.7313408504	-0.293928
H	-0.231238589	 2.0480803416	 0.8644889462	 0.120445
H	-0.2530729662	 1.983922582	-0.9631194136	 0.111839
H	 1.6809952181	 0.6494852008	-0.88001174	 0.227314
H	 0.2918058652	-1.2011676543	 1.8099504974	 0.113075
H	-1.3166303222	-0.4310333383	 1.7636702671	 0.112484
H	-1.6617934848	-2.8333159224	 0.7474896317	 0.083036
H	 1.0376274015	-2.3856652897	-0.4712046094	 0.104581
H	-0.2982849945	-3.0234871344	-1.5132268075	 0.111809
H	-0.4792503608	-0.4479936598	-2.1829226547	 0.075716
138.3371	277.0502	315.3775	416.1793	468.8276	518.9824	579.9959	763.8413	816.0644	831.503	854.2816	870.734	886.4853	928.0532	934.9236	952.2516	974.3154	995.6905	1030.6508	1044.2299	1080.3084	1103.0217	1133.6902	1159.5343	1195.6168	1224.756	1247.7308	1250.1651	1262.959	1290.1804	1310.9442	1325.1986	1425.8868	1476.093	1490.5826	1517.4611	3067.3548	3069.9492	3101.459	3111.2463	3121.3297	3129.0944	3147.9593	3186.0729	3474.4642
C1NC11CC2CC1O2	C1N[C@]21C[C@@H]1C[C@H]2O1	
InChI=1S/C6H9NO/c1-4-2-6(3-7-6)5(1)8-4/h4-5,7H,1-3H2	InChI=1S/C6H9NO/c1-4-2-6(3-7-6)5(1)8-4/h4-5,7H,1-3H2/t4-,5+,6-/m0/s1
