18
gdb 97112	3.08912	1.19082	0.99469	1.9622	75.07	-0.2557	0.0163	0.2721	1236.0573	0.147153	-439.049919	-439.041115	-439.040171	-439.084341	30.895	
C	-0.0395953497	 1.4754242434	-0.1100783591	-0.342271
N	-0.1684993523	 0.0290726763	-0.2217892833	-0.328992
C	 0.5966466136	-0.603244109	-0.9796762758	 0.416959
O	 1.6289387876	-0.1742946543	-1.8046621665	-0.276882
C	 1.8901824849	-1.5436343268	-2.2413406947	-0.142092
C	 0.7550737747	-2.0595078315	-1.3410168778	 0.102556
C	 0.9247377142	-3.1681264958	-0.283921872	-0.125916
O	-0.1402358128	-3.9482439174	-0.8593167633	-0.2717
C	-0.4167613996	-2.9285304513	-1.8378642766	-0.125924
H	 0.7549776148	 1.9037694467	-0.7317100403	 0.128459
H	-0.9922817797	 1.9406926244	-0.3854309146	 0.130336
H	 0.1518916587	 1.73666165	 0.936352928	 0.13035
H	 1.7357654763	-1.6491405468	-3.318931127	 0.122618
H	 2.9017113245	-1.8574074824	-1.968334761	 0.12262
H	 1.8860855857	-3.6970181252	-0.3042250516	 0.105306
H	 0.6994584707	-2.849066131	 0.740297058	 0.124631
H	-1.403845462	-2.4734044876	-1.6960888104	 0.124634
H	-0.3251960596	-3.3020829517	-2.865678812	 0.105307
79.1688	79.2956	112.4264	131.8554	190.1459	262.5738	292.6172	365.5245	460.2062	600.5742	693.3721	751.0102	855.7083	878.6494	894.6065	971.3479	978.668	989.7482	1039.7423	1046.3101	1094.2513	1130.2079	1144.8706	1152.1274	1163.4719	1168.7341	1172.1465	1239.3077	1256.8755	1310.2114	1361.4124	1384.7797	1440.2345	1494.4708	1497.2517	1500.3336	1512.4113	1527.0977	1848.5099	3009.2578	3019.2229	3020.2883	3051.0858	3067.0226	3067.9954	3085.692	3090.6358	3109.3857
CN=C1OCC11COC1	CN=C1OCC21COC2	
InChI=1S/C6H9NO2/c1-7-5-6(4-9-5)2-8-3-6/h2-4H2,1H3	InChI=1S/C6H9NO2/c1-7-5-6(4-9-5)2-8-3-6/h2-4H2,1H3
