15
gdb 20958	7.54982	1.20031	1.04923	2.8188	63.13	-0.2327	0.0143	0.2469	1094.3149	0.120644	-396.004563	-395.997173	-395.996228	-396.036803	26.257	
C	-0.0790903888	 1.4668921182	 0.011339107	-0.39219
C	-0.0057192586	-0.0475576708	 0.0031878978	-0.035604
O	-1.3521461778	-0.5450782899	 0.0114422311	-0.254349
C	-1.4857467541	-1.8695717638	 0.0063299475	 0.451609
N	-0.4697844155	-2.7231122184	-0.0058385778	-0.31832
N	-1.1305422499	-3.9176943614	-0.0061508974	-0.198574
C	-2.4591753906	-3.7154022925	 0.0053900336	 0.032041
N	-2.7296943945	-2.4248459957	 0.0136358422	-0.329652
H	 0.9306483541	 1.8880760124	 0.0051533107	 0.119277
H	-0.6136868935	 1.8340768756	-0.8690091866	 0.131955
H	-0.5991620892	 1.825275405	 0.9039283364	 0.131948
H	 0.5118189581	-0.4261842693	-0.8861457802	 0.116717
H	 0.5259198165	-0.4350395439	 0.8802980152	 0.116733
H	-0.6087295593	-4.777410244	-0.014298165	 0.280326
H	-3.1809705269	-4.5185787415	 0.0073616154	 0.148083
67.0896	107.888	167.6624	250.8988	348.03	357.2589	466.9152	493.1648	666.7095	761.2686	777.0772	814.0738	859.2862	923.09	991.2575	1013.874	1088.8256	1099.6981	1133.4561	1184.4889	1186.8749	1292.4947	1302.5981	1352.7826	1396.3339	1421.3225	1477.0605	1484.6915	1498.1225	1516.0234	1539.4716	1588.6596	3030.0061	3047.453	3067.137	3121.9801	3127.0524	3257.3455	3676.9881
CCOC1=NNC=N1	CCOc1n[nH]cn1	
InChI=1S/C4H7N3O/c1-2-8-4-5-3-6-7-4/h3H,2H2,1H3,(H,5,6,7)	InChI=1S/C4H7N3O/c1-2-8-4-5-3-6-7-4/h3H,2H2,1H3,(H,5,6,7)
