17
gdb 51743	3.07914	1.07327	0.88292	2.8023	70.65	-0.2449	-0.0014	0.2435	1300.7078	0.134007	-458.941448	-458.932883	-458.931939	-458.975922	30.687	
O	-0.1700990084	 0.1323060099	-0.3414281118	-0.267914
C	-0.08879632	 1.3118792055	-0.1888620921	 0.169318
O	 1.0874642299	 1.9392232645	 0.0275637851	-0.183311
C	 1.0851938966	 3.3478680627	 0.1968033679	-0.029594
C	 1.8932234402	 3.8644486368	 1.4023445604	-0.101341
O	 2.7121134138	 4.6857733957	 0.5392987504	-0.303344
C	 2.115714248	 4.1105691169	-0.6254828159	 0.440701
C	 2.9101494678	 3.625287129	-1.7895779034	-0.322985
C	 1.997567665	 4.8382165478	-1.919784696	-0.342225
H	-0.9487198617	 2.0097526781	-0.2072483252	 0.082415
H	 0.0636707985	 3.7362648705	 0.1267813256	 0.102267
H	 1.3511884787	 4.4591878219	 2.1439150407	 0.115372
H	 2.4696706454	 3.0749452759	 1.8972619695	 0.125139
H	 3.9789230327	 3.8061573569	-1.7586220264	 0.132873
H	 2.6142736453	 2.691767685	-2.2559236268	 0.131914
H	 1.0781911095	 4.744171046	-2.4894559194	 0.11817
H	 2.4682657387	 5.8138434469	-1.9748311325	 0.132546
43.8122	72.4142	139.0675	182.3011	230.7633	291.3923	386.591	393.1592	476.0473	568.7956	655.0814	756.6823	847.996	868.0003	886.7714	916.7805	984.3803	1003.1534	1012.4232	1042.2231	1050.9996	1069.3652	1082.3912	1126.4166	1166.1413	1185.023	1194.6795	1220.2044	1243.2851	1339.7194	1368.3474	1401.1364	1443.7865	1449.0341	1493.4888	1520.1497	1872.5841	2947.4716	3036.0351	3050.6576	3093.8802	3127.7038	3136.9488	3214.1576	3230.9272
O=COC1COC11CC1	O=CO[C@H]1COC21CC2	
InChI=1S/C6H8O3/c7-4-8-5-3-9-6(5)1-2-6/h4-5H,1-3H2	InChI=1S/C6H8O3/c7-4-8-5-3-9-6(5)1-2-6/h4-5H,1-3H2/t5-/m0/s1
