17
gdb 69286	4.08225	1.12089	0.98164	1.9438	83.85	-0.2306	-0.0299	0.2007	1223.1126	0.134277	-384.658414	-384.650128	-384.649184	-384.690936	32.098	
C	 0.0678845206	 1.5048712842	-0.027670463	-0.487869
C	-0.0683515415	 0.0151290873	 0.1212339716	 0.414357
C	-1.372171313	-0.6945762442	-0.2544230363	-0.319535
C	-1.3643007164	-1.9383410839	 0.6006721689	-0.198026
C	-0.2939246165	-1.995468588	 1.4147433308	 0.231694
C	 0.019162166	-2.9972011136	 2.3615176485	 0.212461
C	 0.3199867957	-3.8199103459	 3.189216807	-0.425304
C	 0.5908940787	-0.8062594035	 1.153608452	-0.16967
O	 1.0914232367	-0.7677538409	-0.1985997912	-0.290252
H	 1.0455327792	 1.8371020386	 0.329612899	 0.133283
H	-0.0269824889	 1.7987495155	-1.0790398938	 0.129364
H	-0.7104762101	 2.027244845	 0.5382640361	 0.123597
H	-2.2471566284	-0.0653562272	-0.042633117	 0.115953
H	-1.4037059708	-0.9286631479	-1.3258204749	 0.129735
H	-2.1295923907	-2.7024338143	 0.5367457523	 0.109208
H	 0.5779868848	-4.5574589151	 3.9080881109	 0.193271
H	 1.2621857546	-0.4211361463	 1.9151371888	 0.097732
112.8328	140.0985	189.1696	229.6145	300.7092	361.1026	385.3819	441.8514	504.2253	534.9544	586.8571	626.1334	640.8125	664.4792	758.0258	826.8025	845.6529	886.3998	919.8384	953.0827	990.746	1013.0391	1062.1586	1092.7143	1179.807	1191.6074	1224.5213	1256.5684	1313.9745	1329.3655	1408.6338	1439.0772	1459.5482	1485.5975	1496.1653	1653.229	2223.0464	3020.561	3035.5409	3056.4048	3097.0672	3125.5859	3165.2896	3209.4183	3502.9002
CC12CC=C(C#C)C1O2	C[C@]12CC=C(C#C)[C@H]1O2	
InChI=1S/C8H8O/c1-3-6-4-5-8(2)7(6)9-8/h1,4,7H,5H2,2H3	InChI=1S/C8H8O/c1-3-6-4-5-8(2)7(6)9-8/h1,4,7H,5H2,2H3/t7-,8+/m1/s1
