19
gdb 80055	2.40594	1.93401	1.46051	1.0485	78.62	-0.2101	0.0146	0.2247	971.8313	0.1596	-385.859567	-385.851783	-385.850839	-385.891191	31.719	
C	-0.0447649973	 1.6335649017	-0.0023302441	-0.427453
C	 0.0770757129	 0.1163093516	 0.0067623409	-0.030028
C	 1.1301748421	-0.6610096535	-0.9069804851	-0.124837
C	 2.4082499258	 0.1452313629	-0.9859789434	-0.090189
C	 2.9928793618	 0.1527146643	 0.2165187025	-0.084629
C	 2.2275783927	-0.7313965946	 1.1419564504	-0.156409
C	 1.3421150349	-1.6305437771	 0.3062851895	-0.131279
C	 0.6728153183	-0.6302572296	 1.1979697995	 0.370871
O	 0.0035813413	-0.8992756435	 2.3793175259	-0.466776
H	 0.9189882329	 2.1181955418	 0.1730486482	 0.118458
H	-0.4386033424	 1.9953983814	-0.9588863698	 0.111345
H	-0.737941367	 1.9620000081	 0.7808331144	 0.109129
H	-0.8997639231	-0.3395620905	-0.186350826	 0.08417
H	 0.7365570123	-1.0552843442	-1.8427735144	 0.066198
H	 2.6968274931	 0.7351960305	-1.8469342005	 0.094447
H	 3.8640006484	 0.7248018412	 0.5116795159	 0.093713
H	 2.6638553716	-1.1284935321	 2.05169316	 0.083651
H	 1.3368427844	-2.713398738	 0.3161457916	 0.093174
H	 0.1458524071	-0.1626119006	 2.9834586244	 0.286443
175.2509	192.2416	216.642	234.367	289.2369	355.5065	444.3433	482.7102	583.817	603.2642	681.2937	709.9109	752.8373	795.3494	805.6262	851.195	878.2758	906.0959	927.5262	942.937	951.9991	1007.0458	1019.4108	1068.013	1096.5255	1116.1453	1120.532	1144.8275	1174.8439	1206.6473	1252.6901	1268.2221	1286.7442	1308.3503	1358.9662	1379.1304	1400.8698	1442.3058	1491.502	1501.1618	1643.9291	3027.7261	3051.6897	3085.5452	3116.4392	3118.7579	3177.8519	3190.8913	3197.2266	3222.1188	3799.6234
CC1C2C=CC3C2C13O	C[C@H]1[C@H]2C=C[C@@H]3[C@H]2[C@]13O	
InChI=1S/C8H10O/c1-4-5-2-3-6-7(5)8(4,6)9/h2-7,9H,1H3	InChI=1S/C8H10O/c1-4-5-2-3-6-7(5)8(4,6)9/h2-7,9H,1H3/t4-,5+,6+,7-,8-/m0/s1
