16
gdb 127253	3.03992	1.29943	0.91676	3.0175	84.41	-0.1961	0.0001	0.1962	1234.4999	0.124308	-396.914963	-396.905947	-396.905003	-396.949049	32.882	
C	 0.0088599894	 1.4096838475	 0.0772194275	-0.324407
N	-0.0345104357	-0.0336102174	-0.0119232411	 0.049302
C	-0.046464541	-0.7888362756	-1.1510626494	-0.113936
C	-0.0187866539	-2.1095690267	-0.7494005213	 0.089552
N	-0.0916338044	-3.2711005672	-1.5194646279	-0.621078
C	 0.0116183513	-2.0427951568	 0.6726537246	 0.194556
N	 0.001130388	-0.766985656	 1.0998542858	-0.334331
C	 0.0467646411	-3.1518931246	 1.5484286114	 0.242504
C	 0.0876418314	-4.145451744	 2.2296308496	-0.434199
H	 1.0005213549	 1.7945563645	-0.1854207125	 0.140199
H	-0.7334375366	 1.8518541071	-0.5930727115	 0.139417
H	-0.2207966348	 1.6821149236	 1.1067432381	 0.164946
H	-0.0808911139	-0.3380916814	-2.1296747995	 0.123843
H	 0.4255604263	-3.2221835508	-2.3867331707	 0.244838
H	 0.1877672883	-4.089258114	-0.9926774893	 0.250895
H	 0.1123604796	-5.004347908	 2.8529874761	 0.187898
45.5734	128.8428	142.4686	185.2801	227.7384	283.3672	332.6056	394.5243	477.7457	534.4708	549.5089	603.0359	621.8036	627.2242	675.3433	710.5741	713.6628	774.1865	834.7459	1025.5015	1078.8439	1108.8968	1147.9108	1213.1961	1237.5731	1354.5723	1390.9282	1441.9907	1465.6642	1486.7715	1496.8978	1518.4026	1618.4848	1654.38	2225.6651	3035.9955	3100.5391	3164.7748	3262.0688	3503.8332	3538.0819	3631.3946
CN1C=C(N)C(=N1)C#C	Cn1cc(N)c(n1)C#C	
InChI=1S/C6H7N3/c1-3-6-5(7)4-9(2)8-6/h1,4H,7H2,2H3	InChI=1S/C6H7N3/c1-3-6-5(7)4-9(2)8-6/h1,4H,7H2,2H3
