17
gdb 27301	3.19345	1.3287	0.94536	6.595	80.59	-0.206	-0.0003	0.2056	1205.6652	0.137708	-418.076795	-418.068293	-418.067349	-418.109553	32.472	
C	-0.0089167088	 1.515107635	 0.0145579948	-0.473044
C	-0.0113227449	 0.0165811064	-0.0210221133	 0.135693
C	-0.055068859	-0.6892454213	-1.1708564303	-0.074114
N	-0.0389406292	-2.0692535391	-1.1865752546	-0.379116
C	 0.0047318001	-2.7917273349	-0.0226838995	 0.417772
N	-0.0663420952	-4.1765010789	-0.1949702837	-0.587696
C	 0.0578077801	-2.1461157922	 1.1749180702	-0.325691
C	 0.0376893648	-0.696457198	 1.2744604564	 0.326502
O	 0.0780216035	-0.0867050383	 2.3427327123	-0.404513
H	 0.8900127646	 1.8852326931	 0.5188163484	 0.139899
H	-0.0565777778	 1.9483418253	-0.9887125117	 0.100963
H	-0.8555195079	 1.8839841119	 0.6028664805	 0.141188
H	-0.0985148034	-0.2248994432	-2.1496042425	 0.120469
H	-0.2467810202	-2.5545832102	-2.0437855933	 0.258498
H	 0.5871077351	-4.5378718462	-0.8802362529	 0.250234
H	 0.0388168566	-4.6752212329	 0.6779097344	 0.261621
H	 0.1317298015	-2.7141056065	 2.0949900148	 0.091336
119.3137	135.8612	181.8665	275.3416	280.576	320.7581	343.9895	412.3769	444.0671	472.9688	526.033	583.6932	637.9947	734.7547	738.8982	763.5083	788.7131	855.5395	876.751	957.1938	1026.3736	1064.3432	1127.5475	1158.8174	1214.9645	1243.593	1282.3513	1388.6892	1407.576	1413.2502	1464.0657	1487.2094	1551.3121	1635.5239	1665.1215	1699.6069	1718.5306	3034.7077	3092.0903	3112.856	3191.3451	3199.455	3531.7482	3636.2838	3649.3222
CC1=CNC(N)=CC1=O	Cc1c[nH]c(N)cc1=O	
InChI=1S/C6H8N2O/c1-4-3-8-6(7)2-5(4)9/h2-3H,1H3,(H3,7,8,9)	InChI=1S/C6H8N2O/c1-4-3-8-6(7)2-5(4)9/h2-3H,1H3,(H3,7,8,9)
