15
gdb 5912	4.10977	1.2844	1.21971	4.5874	67.36	-0.2851	0.0104	0.2955	1015.5773	0.115468	-362.641525	-362.632549	-362.631604	-362.674759	32.415	
C	 0.0657048635	 1.5824285665	 0.0139304515	-0.402143
C	 0.016927551	 0.0501038457	-0.0026036865	 0.144998
O	 0.6798699787	-0.3760088842	 1.1813074429	-0.43312
C	-1.4567572827	-0.4706892843	-0.0067366403	-0.357766
C	-2.2123368073	-0.0319033655	 1.1630908812	 0.272585
N	-2.8212242273	 0.3189900778	 2.0800148823	-0.309783
C	 0.6831283154	-0.4885441974	-1.1973167589	 0.302268
C	 1.2199286043	-0.9680200972	-2.159865017	-0.451759
H	 1.1060774066	 1.9117767466	 0.0108400158	 0.142027
H	-0.4407862305	 1.9961566504	-0.8612502362	 0.126926
H	-0.4199570431	 1.951204902	 0.9206068684	 0.155348
H	 0.8638483202	-1.3190553881	 1.1060963401	 0.289857
H	-1.9663558291	-0.1325676039	-0.9148360444	 0.161251
H	-1.447430842	-1.5654319741	-0.0347651975	 0.151086
H	 1.7070286422	-1.3764607444	-3.0114234415	 0.208224
75.6004	119.4766	176.8852	186.2274	244.8365	295.7502	338.065	369.8457	400.3277	406.9131	496.4471	560.8665	582.5419	651.6757	676.8025	763.3741	880.6807	927.1744	960.6547	973.5154	1079.6133	1158.1566	1172.4572	1243.2743	1318.5722	1379.0297	1412.8331	1457.0163	1482.5804	1496.0584	2233.0881	2365.2723	3053.1844	3058.5366	3096.1116	3139.5207	3147.3667	3497.2102	3806.9792
CC(O)(CC#N)C#C	C[C@@](O)(CC#N)C#C	
InChI=1S/C6H7NO/c1-3-6(2,8)4-5-7/h1,8H,4H2,2H3	InChI=1S/C6H7NO/c1-3-6(2,8)4-5-7/h1,8H,4H2,2H3/t6-/m0/s1
