21
gdb 56829	2.98325	1.15784	0.9842	0.6508	88.87	-0.2561	0.0576	0.3137	1292.0678	0.182212	-349.870115	-349.86135	-349.860406	-349.903879	34.199	
C	-0.1666167872	 1.4712959521	-0.0091976993	-0.389619
C	-0.1239639787	-0.0703514724	 0.0549993798	-0.220704
C	-1.4749274329	-0.6309015336	 0.0999264965	 0.343681
C	-2.5879836499	-1.0861160975	 0.1128489139	-0.48625
C	 0.6419616465	-0.6434000339	-1.1477361834	 0.089153
C	 2.2032447231	-0.5800133202	-1.2356623399	-0.067938
C	 2.2688232952	-1.743982589	-0.2025100578	-0.226904
C	 1.1289262454	-2.126085996	-1.1931302605	-0.055296
C	 2.0902537053	-1.6784934954	-2.333274846	-0.222561
H	 0.8486889762	 1.8790546749	 0.0008276566	 0.116544
H	-0.6636993042	 1.8061237517	-0.9246977739	 0.124969
H	-0.7143797431	 1.882318351	 0.8427013139	 0.123953
H	 0.3831625731	-0.3503693653	 0.9855800621	 0.103336
H	-3.5689835248	-1.4914065746	 0.1363490912	 0.192684
H	 0.1354839911	-0.3236113802	-2.066194004	 0.067963
H	 2.8284240662	 0.314185943	-1.2653101043	 0.06834
H	 3.1663506491	-2.3673872163	-0.2406086619	 0.090034
H	 1.998225773	-1.5298974737	 0.8325660846	 0.093549
H	 0.5028365548	-3.0185851581	-1.1701987768	 0.076159
H	 1.6294244549	-1.3840473753	-3.2802633655	 0.089581
H	 2.9771363568	-2.2974190112	-2.4918786152	 0.089325
45.4631	111.8311	188.395	206.45	228.85	311.4461	375.3884	448.9001	537.3878	571.7055	581.9088	624.3108	630.3727	774.6232	804.6646	851.5483	874.803	885.8699	899.3397	903.9486	988.7785	1005.6252	1012.9061	1030.167	1058.4068	1094.9554	1097.7861	1111.346	1128.9043	1145.5468	1168.0498	1190.5778	1215.0413	1243.3131	1250.123	1265.4956	1293.9477	1324.3336	1402.5163	1422.433	1492.6258	1499.2877	1504.0936	1542.779	2231.6674	3027.5657	3039.8241	3042.8229	3049.493	3061.6357	3094.5813	3109.8269	3114.0296	3115.5203	3121.0166	3122.8203	3504.6223
CC(C#C)C1C2CC1C2	C[C@@H](C#C)[C@H]1[C@H]2C[C@@H]1C2	
InChI=1S/C9H12/c1-3-6(2)9-7-4-8(9)5-7/h1,6-9H,4-5H2,2H3	InChI=1S/C9H12/c1-3-6(2)9-7-4-8(9)5-7/h1,6-9H,4-5H2,2H3/t6-,7-,8+,9-/m0/s1
