20
gdb 22744	4.09632	0.98933	0.89733	0.8454	82.76	-0.2372	0.0127	0.2499	1341.7365	0.171108	-403.114716	-403.106171	-403.105227	-403.148004	33.417	
O	-0.2022548232	 1.2727934957	 0.3663794141	-0.398579
N	-0.0327503372	-0.1216138616	 0.2374935107	-0.230488
C	-1.1342277309	-0.6897074521	-0.0461634948	 0.410105
C	-2.4983896372	-0.0485655679	-0.2085121295	-0.291593
C	-3.4151580922	-1.2118960105	-0.6459217216	-0.302993
C	-2.7266964877	-2.45245793	-0.0836840825	 0.385008
C	-3.2591168466	-3.1200363502	 1.1607527063	-0.302594
C	-3.3225399339	-3.8242539949	-0.1776035359	-0.335566
C	-1.230909722	-2.1906358411	-0.2354020878	-0.372549
H	 0.6894890924	 1.5637213119	 0.5831804508	 0.303894
H	-2.8077482668	 0.3733457871	 0.7553797038	 0.128986
H	-2.4689792549	 0.7869512734	-0.9132019935	 0.12603
H	-4.4447936465	-1.1022664241	-0.2948911897	 0.098883
H	-3.4490990166	-1.2695713026	-1.7413138545	 0.10259
H	-2.5473934336	-3.4843182208	 1.8945727277	 0.112332
H	-4.1868524497	-2.7505831565	 1.5860755962	 0.109717
H	-4.2927706431	-3.9297708015	-0.6528050537	 0.110208
H	-2.6561507516	-4.6649116233	-0.3429009429	 0.11134
H	-0.8991444215	-2.4574009079	-1.2491910254	 0.116467
H	-0.6035269172	-2.7438558928	 0.4674089122	 0.118801
55.6232	131.0921	200.5203	270.3377	286.6456	335.6788	371.5626	381.7513	445.307	499.2377	561.5186	660.176	738.3967	779.3314	790.5081	844.36	890.8785	904.9936	931.7574	975.2717	980.6867	986.5743	994.9166	1033.631	1053.5713	1080.8322	1165.794	1170.9174	1185.9021	1196.0805	1222.8374	1273.6888	1288.1187	1305.3944	1323.1957	1391.6745	1400.0592	1463.5738	1465.1542	1471.4882	1497.7175	1507.0422	1756.4098	3006.0105	3026.4263	3042.6054	3086.7031	3095.3098	3096.9841	3121.5465	3125.9729	3199.136	3214.0776	3822.9273
ON=C1CCC2(CC2)C1	ON=C1CCC2(CC2)C1	
InChI=1S/C7H11NO/c9-8-6-1-2-7(5-6)3-4-7/h9H,1-5H2	InChI=1S/C7H11NO/c9-8-6-1-2-7(5-6)3-4-7/h9H,1-5H2
