16
gdb 45852	2.55136	1.87853	1.23182	2.756	72.48	-0.2417	-0.0199	0.2217	990.3569	0.126388	-434.061865	-434.054404	-434.05346	-434.093912	28.671	
N	 0.1284851033	 0.8318071441	 1.1874151592	-0.521352
C	 0.075907168	-0.1496592872	 0.3796750626	 0.351353
N	 1.1032082233	-0.5985542273	-0.4448844561	-0.366782
C	 0.9927754664	-1.7159479231	-1.2694977702	 0.097713
N	 0.0603476524	-2.5742495654	-1.2524728434	-0.243061
C	-0.9798096968	-2.3813620516	-0.2454390823	-0.241396
C	-1.1901592906	-0.9402754093	 0.1760842548	 0.323939
C	-2.4261200564	-0.4920180244	 0.8190556359	-0.222185
O	-2.1907114064	-0.2142567766	-0.5640503084	-0.266716
H	 1.0388027258	 1.2963940674	 1.1700907708	 0.207395
H	 1.947164947	-0.0474242469	-0.4931174022	 0.250315
H	 1.8201337222	-1.8227391635	-1.9701937806	 0.123192
H	-1.9257637794	-2.7717503665	-0.6319005695	 0.12763
H	-0.7168891921	-2.9890509924	 0.6339550421	 0.121833
H	-3.207735846	-1.2240298124	 1.0199305517	 0.111396
H	-2.3845474408	 0.3675080151	 1.4819399555	 0.146724
83.3456	136.2195	257.7262	303.7466	341.7718	425.8097	463.0609	500.9158	550.2362	571.6214	680.6766	709.0456	807.0917	863.4542	873.3521	921.8187	948.0851	968.2956	1001.2402	1028.5366	1055.8402	1132.9472	1159.8443	1170.5397	1216.8134	1270.9894	1324.8318	1337.9371	1416.1052	1454.8003	1460.8789	1467.1789	1518.5124	1735.7302	1747.668	2998.0421	3082.6154	3091.7429	3140.3984	3198.0736	3447.5917	3612.977
N=C1NC=NCC11CO1	[NH][C]1NC=NC[C@]21CO2	
InChI=1S/C5H7N3O/c6-4-5(2-9-5)1-7-3-8-4/h3H,1-2H2,(H2,6,7,8)	InChI=1S/C5H7N3O/c6-4-5(2-9-5)1-7-3-8-4/h3H,1-2H2,(H2,6,7,8)/t5-/m1/s1
