17
gdb 52217	2.80746	0.96625	0.75827	3.273	72.77	-0.2603	-0.0122	0.2481	1447.5223	0.134666	-455.126173	-455.11695	-455.116006	-455.161829	31.62	
N	-0.4835798894	 0.772300919	 0.8793768287	-0.43623
C	-0.4141914166	-0.4305356799	 0.5081517068	 0.127033
O	-1.0715743985	-0.8264101775	-0.6060430637	-0.182844
C	-1.1400183663	-2.227917723	-0.8454858576	-0.110955
C	-2.3161358702	-2.8469066971	-0.1316810676	-0.013763
C	-2.3024483938	-4.2809997017	 0.3141872204	-0.247531
N	-2.1215127879	-3.206748813	 1.2660463887	-0.077813
C	-3.0424684878	-2.9348500383	 2.2745418718	 0.135911
O	-3.609796531	-3.7731343251	 2.926905734	-0.274436
H	 0.09432814	 0.9145251328	 1.7052133972	 0.232176
H	 0.1536236911	-1.2373256858	 0.989555589	 0.097291
H	-1.248772108	-2.3429699076	-1.9275595172	 0.130882
H	-0.2119250042	-2.7239197893	-0.5328832232	 0.115277
H	-3.2844344042	-2.4249947179	-0.3960649606	 0.123096
H	-3.2469737457	-4.8162826169	 0.3489306913	 0.147416
H	-1.4273934262	-4.8948706117	 0.118973806	 0.131264
H	-3.1431083311	-1.847652117	 2.4506851461	 0.103225
43.9165	68.2568	106.6806	128.0192	145.4393	254.5475	328.6992	343.9634	391.0609	449.1589	627.7855	656.0518	819.9826	824.3945	872.3976	932.668	970.7179	1012.072	1035.3356	1041.8381	1086.0455	1120.9964	1123.6108	1139.2661	1162.8563	1189.3104	1253.6073	1313.2865	1335.3613	1384.1812	1413.5749	1419.0944	1454.2036	1488.3934	1512.5645	1745.4569	1808.2947	2968.4593	3024.8501	3038.7151	3098.6698	3116.9871	3134.4881	3207.1948	3519.0038
N=COCC1CN1C=O	[NH][CH]OC[C@H]1CN1C=O	
InChI=1S/C5H8N2O2/c6-3-9-2-5-1-7(5)4-8/h3-6H,1-2H2	InChI=1S/C5H8N2O2/c6-3-9-2-5-1-7(5)4-8/h3-6H,1-2H2/t5-,7?/m1/s1
