21
gdb 97917	5.983	0.51904	0.49321	2.9653	85.29	-0.2511	0.0432	0.2943	2252.6488	0.18009	-424.202259	-424.191113	-424.190169	-424.240648	38.958	
C	 0.0602995635	 1.4931019431	-0.088236991	-0.36345
C	 0.1221359194	-0.0428092402	 0.0022122336	-0.316038
C	 0.7547810375	-0.515501738	 1.2309381132	 0.132816
C	 1.2744943819	-0.8504632123	 2.2665387586	-0.022485
C	 1.9126342061	-1.3457597545	 3.4822718326	-0.364572
C	 1.9732291068	-2.8870654367	 3.4917831799	 0.109019
O	 2.6438510355	-3.3825260302	 2.3407834905	-0.447886
C	 2.7543540508	-3.4344615375	 4.6820929759	-0.046849
O	 2.8103541987	-4.8442380493	 4.6519155471	-0.429656
H	 1.0643452302	 1.9245270096	-0.0574817544	 0.129825
H	-0.4194351528	 1.8000379666	-1.0222570196	 0.116461
H	-0.511047781	 1.9085763376	 0.7461459968	 0.129741
H	-0.892594236	-0.4551096912	-0.0678990341	 0.130331
H	 0.6673046163	-0.4374850443	-0.8647753303	 0.128413
H	 2.9341131197	-0.9507027135	 3.5557102124	 0.132035
H	 1.3685367825	-0.9986088481	 4.3699737761	 0.127579
H	 0.9465695256	-3.2827084939	 3.5321771617	 0.080875
H	 2.1950058026	-3.0215780842	 1.5669545203	 0.289761
H	 3.7631924346	-2.9882688766	 4.6765650675	 0.087295
H	 2.262912132	-3.1487576923	 5.6181492064	 0.104115
H	 3.074221226	-5.0741808741	 3.7526271867	 0.29267
14.9649	57.6314	62.8752	134.6798	149.0674	182.9292	226.2266	266.8397	326.0162	378.3032	393.61	409.5305	451.8132	469.0474	511.5994	584.0283	742.7003	787.2411	860.6686	900.993	961.296	1021.1681	1072.3968	1078.4364	1085.904	1105.96	1117.0985	1162.6634	1195.3229	1241.7851	1276.5368	1286.6362	1304.6864	1350.0202	1372.2171	1380.7852	1409.1774	1429.6833	1450.4893	1463.9778	1477.8603	1494.0308	1498.8775	1505.6216	2357.9988	2964.3096	2989.4912	3019.1501	3020.3614	3045.5106	3047.1693	3056.9293	3076.0608	3119.2181	3125.0805	3785.6029	3790.1563
CCC#CCC(O)CO	CCC#CC[C@@H](O)CO	
InChI=1S/C7H12O2/c1-2-3-4-5-7(9)6-8/h7-9H,2,5-6H2,1H3	InChI=1S/C7H12O2/c1-2-3-4-5-7(9)6-8/h7-9H,2,5-6H2,1H3/t7-/m1/s1
