18
gdb 75088	3.18351	1.40612	1.06377	3.3979	80.05	-0.2042	0.004	0.2082	1136.2103	0.149659	-401.996909	-401.989005	-401.988061	-402.029157	30.915	
C	-0.0889077212	 1.5085465622	 0.0718756933	-0.484802
C	 0.0078466799	 0.0122908243	-0.0017228882	 0.2821
C	 0.0518659024	-0.6504453811	-1.1638914596	-0.092391
N	 0.1090222397	-2.0463857675	-1.2492224702	-0.353168
C	 0.0019572855	-2.9158074717	-0.1809464908	 0.417021
O	-0.173990962	-4.1082582958	-0.3465144739	-0.377721
C	 0.0998224968	-2.2788051987	 1.1642193492	-0.151084
C	 1.3488706746	-1.5277616009	 1.5728581774	-0.29428
C	 0.0900169415	-0.7529589306	 1.2681470609	-0.141147
H	 0.77140298	 1.9426749984	 0.5976711532	 0.126324
H	-0.137325626	 1.9572526693	-0.9242686511	 0.120707
H	-0.9840120632	 1.8229049424	 0.6246318846	 0.124825
H	 0.0439791356	-0.1432619667	-2.1216947184	 0.11002
H	 0.0183853312	-2.4872485467	-2.1520098631	 0.252536
H	-0.3929372445	-2.8620348633	 1.9324438618	 0.113795
H	 1.652769748	-1.6286340487	 2.6082681172	 0.125061
H	 2.1636229794	-1.4618982282	 0.8606076634	 0.129914
H	-0.4333143076	-0.3249084769	 2.1186168542	 0.092288
96.1848	184.986	196.2777	268.4152	299.6961	343.054	429.803	475.0728	517.106	582.2128	605.7492	737.9172	747.3456	767.5749	814.9745	835.8031	859.5348	948.8063	961.7097	1004.1701	1045.5646	1064.0786	1077.2269	1092.5536	1124.4229	1175.1677	1200.8849	1211.9754	1285.4187	1361.1044	1390.3521	1419.237	1420.511	1462.6204	1475.2982	1481.992	1498.1306	1738.2658	1789.6368	3011.1332	3054.4616	3106.7695	3138.8768	3144.0285	3190.9873	3197.3313	3230.9334	3627.2674
CC1=CNC(=O)C2CC12	CC1=CNC(=O)[C@H]2C[C@@H]12	
InChI=1S/C7H9NO/c1-4-3-8-7(9)6-2-5(4)6/h3,5-6H,2H2,1H3,(H,8,9)	InChI=1S/C7H9NO/c1-4-3-8-7(9)6-2-5(4)6/h3,5-6H,2H2,1H3,(H,8,9)/t5-,6-/m0/s1
