19
gdb 63568	2.50818	1.51685	1.17411	3.2415	78.06	-0.2344	-0.0265	0.2079	1115.2267	0.157083	-423.028958	-423.020003	-423.019059	-423.062331	34.293	
C	-0.0723074709	 1.5203806679	-0.1540233556	-0.429659
C	 0.0654732331	 0.0234529823	-0.0555503659	 0.387354
O	-1.0642085774	-0.6171903926	-0.5516898731	-0.468486
C	 1.4019575992	-0.6257383729	-0.1801601542	-0.405504
C	 0.7338276721	-0.5952646027	 1.1894503329	 0.138839
C	 1.1566110159	-0.0130193633	 2.5488680165	-0.336913
C	 0.4799039318	-1.2424842113	 3.2504117461	-0.337277
C	 0.0891940258	-1.7531147812	 1.8539128609	 0.372983
O	-0.5614481482	-2.6785135928	 1.4272954457	-0.355124
H	 0.8145006338	 2.0266746028	 0.2348357768	 0.11778
H	-0.2065723867	 1.8107263755	-1.2009120539	 0.136358
H	-0.9484657489	 1.8611639974	 0.4056445826	 0.129795
H	-1.081512797	-1.5271724714	-0.214136689	 0.301662
H	 1.4588770513	-1.5962116334	-0.6647242278	 0.129159
H	 2.2775344647	 0.004761074	-0.3012245245	 0.12244
H	 2.2363179497	 0.0516163219	 2.7021380076	 0.111932
H	 0.7052627832	 0.9495146938	 2.7999466746	 0.114429
H	 1.1635873909	-1.9083480496	 3.7843037961	 0.135292
H	-0.3694513523	-1.0210408742	 3.9024149041	 0.13494
94.613	117.513	164.5463	195.4237	220.1194	311.3401	380.7094	411.7772	447.7275	480.2129	504.9673	546.3058	633.3194	682.0691	723.9227	762.1115	819.3109	892.9497	917.4351	926.5705	994.9982	1040.0044	1040.0909	1061.9216	1083.1197	1105.2265	1165.2626	1174.7839	1206.2961	1229.3586	1243.6898	1298.6223	1349.1997	1405.0733	1438.5331	1450.3169	1477.1752	1477.9794	1491.9935	1506.4382	1831.3313	3042.4076	3062.8826	3068.6181	3108.7141	3109.2874	3117.0727	3124.525	3127.2845	3210.2197	3676.2608
CC1(O)CC11CCC1=O	C[C@@]1(O)C[C@]21CCC2=O	
InChI=1S/C7H10O2/c1-6(9)4-7(6)3-2-5(7)8/h9H,2-4H2,1H3	InChI=1S/C7H10O2/c1-6(9)4-7(6)3-2-5(7)8/h9H,2-4H2,1H3/t6-,7-/m1/s1
