18
gdb 40086	3.92526	1.33068	1.10521	1.7011	79.17	-0.2198	0.0106	0.2304	1113.9276	0.150605	-398.079522	-398.07219	-398.071245	-398.111298	28.589	
C	-0.1519781302	 1.4599931992	-0.1169441034	-0.297458
N	 1.1876530645	 0.8544178878	-0.0143587162	-0.358586
C	 0.0094361914	-0.0019757126	 0.0110130691	 0.222489
C	-0.349893391	-1.0126494546	 1.1309086405	-0.246372
N	-0.4371116867	-2.0487054281	 0.0573688681	-0.095152
C	-1.5014016885	-2.965290427	-0.3585364431	-0.198159
C	-1.4590392523	-2.7043226292	-1.9057735242	-0.169901
N	-0.9489400523	-1.3089452678	-2.071587095	-0.35685
C	-0.4075005487	-1.081475786	-0.9451687956	 0.308026
H	-0.4533599757	 2.0437869018	 0.748394852	 0.127259
H	-0.4914048078	 1.8416750862	-1.075968024	 0.137081
H	 1.6299589542	 0.8085817873	-0.9293886572	 0.248674
H	 0.418020118	-1.2112491492	 1.8811881288	 0.126495
H	-1.3124592052	-0.7976574719	 1.6117293377	 0.111796
H	-1.2954654383	-4.0040924207	-0.0908184193	 0.11372
H	-2.4723906271	-2.6735552315	 0.071892481	 0.09881
H	-0.7773760547	-3.4105316211	-2.3971880014	 0.114318
H	-2.4394201899	-2.8038752827	-2.3774079379	 0.11381
114.4285	167.0617	222.0654	254.2055	314.3594	385.4528	505.0455	514.9848	644.5244	746.7973	787.8281	827.8271	851.7271	863.9907	903.616	928.4679	970.7549	985.0108	1008.1576	1049.6821	1064.6643	1096.7199	1125.7674	1131.7214	1153.8151	1188.6173	1211.6559	1237.0107	1255.6725	1269.3275	1287.3687	1320.662	1361.4448	1431.0045	1490.7146	1498.7925	1512.3245	1516.9606	1748.7727	2982.3344	3026.1178	3027.6733	3094.918	3102.3173	3110.6095	3111.3228	3200.4895	3502.9915
C1NC11CN2CCN=C12	C1N[C@]21CN1CC[N][C]21	
InChI=1S/C6H9N3/c1-2-9-4-6(3-8-6)5(9)7-1/h8H,1-4H2	InChI=1S/C6H9N3/c1-2-9-4-6(3-8-6)5(9)7-1/h8H,1-4H2/t6-/m1/s1
