20
gdb 88840	3.01693	1.17206	0.92425	3.2607	76.61	-0.2212	0.055	0.2762	1298.5244	0.169557	-440.217697	-440.208226	-440.207281	-440.253136	34.116	
C	 3.0151042962	-0.7059374907	 0.4455081559	-0.31446
N	 1.6212712815	-1.1284744152	 0.4313631511	-0.088577
C	 1.219402615	-2.2046849576	 1.3212337287	-0.257209
C	 0.7413153681	-0.8093245144	 1.5586590861	 0.023353
C	 1.2202689006	-0.045967285	 2.7595171488	 0.097053
O	 1.2127219533	 1.3921416421	 2.5499539463	-0.296548
C	 0.3063491548	 1.607656666	 3.6483461309	-0.096636
C	 0.2349179108	 0.0934831542	 3.9489659514	 0.038053
O	-0.9962743606	-0.5477388807	 3.7166463819	-0.418032
H	 3.5449916783	-0.8929062812	 1.3926108482	 0.097484
H	 3.5479392224	-1.2468585962	-0.3431680707	 0.119962
H	 3.0690683375	 0.3647629371	 0.2278203597	 0.137344
H	 0.5470416045	-2.9531070969	 0.9104767225	 0.116218
H	 1.9644431489	-2.5973835389	 2.0146434971	 0.099482
H	-0.2690544487	-0.5512146514	 1.2547178467	 0.101722
H	 2.2172304756	-0.3798837547	 3.0692537536	 0.073875
H	 0.7476962696	 2.2366338348	 4.4319956084	 0.096659
H	-0.6481202416	 2.0400731534	 3.3226444979	 0.103043
H	 0.6613027211	-0.1999865018	 4.9162081844	 0.077099
H	-1.5727281373	-0.3828737129	 4.4691393909	 0.290116
39.2736	51.8988	124.0309	184.2174	222.0973	229.6658	257.502	365.3949	401.2895	426.776	486.7608	560.1702	751.8753	782.0568	846.3301	892.864	908.4017	927.9823	1003.2057	1026.5165	1032.5359	1064.6578	1082.7809	1119.1039	1125.1507	1145.3579	1158.8105	1167.5871	1189.8794	1202.6417	1223.8606	1278.0392	1304.6028	1318.145	1337.3511	1343.0302	1433.9966	1442.3518	1449.1651	1487.7901	1502.4097	1511.5985	1513.9929	2975.2906	3007.6942	3017.8298	3039.8921	3059.6401	3067.6589	3079.6789	3109.7915	3149.7176	3172.4269	3823.9601
CN1CC1C1OCC1O	CN1C[C@H]1[C@H]1OC[C@H]1O	
InChI=1S/C6H11NO2/c1-7-2-4(7)6-5(8)3-9-6/h4-6,8H,2-3H2,1H3	InChI=1S/C6H11NO2/c1-7-2-4(7)6-5(8)3-9-6/h4-6,8H,2-3H2,1H3/t4-,5+,6+,7?/m0/s1
