21
gdb 99113	3.76038	0.88821	0.86317	3.3623	80.73	-0.238	0.0638	0.3017	1479.2776	0.181435	-420.435999	-420.425592	-420.424648	-420.471731	37.721	
C	 1.4925438051	-2.2828763055	 2.9250649577	-0.322502
N	 0.6587405565	-1.9480528256	 1.7853294884	-0.362226
C	-0.4536973892	-2.7173267174	 1.497775917	 0.487605
O	-0.8838971936	-3.5767105007	 2.2465553623	-0.405886
N	-1.0329990528	-2.4135773863	 0.2725174728	-0.419862
C	-2.32418709	-2.9587196745	-0.0718697428	 0.375173
C	-3.4973194341	-2.4385482671	 0.7363335203	-0.452537
C	-2.5074122588	-3.2705526323	-1.5385296004	-0.323267
C	-2.326976033	-4.3882614	-0.5397465856	-0.258432
H	 2.2951783857	-2.9894806017	 2.6737107576	 0.117753
H	 1.9410444896	-1.3759071165	 3.3411345578	 0.117827
H	 0.8548982537	-2.7483489829	 3.6767999982	 0.16661
H	 1.1161305372	-1.4987298787	 1.0076366306	 0.233407
H	-0.8474471159	-1.4885404206	-0.0893658063	 0.229605
H	-3.5984262956	-1.3516976287	 0.6295468824	 0.101724
H	-4.4347341204	-2.8956099113	 0.4050812641	 0.110606
H	-3.3534239805	-2.6731076866	 1.7943242969	 0.148817
H	-3.4901573491	-3.1093360226	-1.9680107539	 0.110961
H	-1.6807093176	-3.0551182891	-2.2063513909	 0.107676
H	-1.380566816	-4.9137546207	-0.532048932	 0.121743
H	-3.1853567714	-4.9977577911	-0.2814274242	 0.115206
70.7384	73.7717	89.1374	141.2709	153.9438	243.5242	272.4878	307.7093	334.2668	391.4391	416.4781	438.8142	492.5402	504.8698	730.2335	764.5072	770.2876	776.62	877.1498	915.6779	940.1284	984.6417	1010.3115	1042.8501	1071.1415	1078.7722	1124.5708	1146.8264	1156.2435	1171.6024	1187.2325	1245.1356	1306.4429	1348.6226	1410.6778	1439.3424	1458.5031	1474.1772	1489.4135	1493.3923	1498.4001	1505.792	1514.9749	1555.8567	1785.9281	3011.3069	3027.111	3082.3998	3093.7705	3122.2614	3133.4885	3148.1882	3156.4189	3217.7534	3239.2373	3581.2585	3621.3173
CNC(=O)NC1(C)CC1	CNC(=O)NC1(C)CC1	
InChI=1S/C6H12N2O/c1-6(3-4-6)8-5(9)7-2/h3-4H2,1-2H3,(H2,7,8,9)	InChI=1S/C6H12N2O/c1-6(3-4-6)8-5(9)7-2/h3-4H2,1-2H3,(H2,7,8,9)
