19
gdb 112452	2.55592	1.19192	0.92014	3.6379	71.55	-0.2348	-0.0115	0.2232	1280.3191	0.158133	-460.186666	-460.177411	-460.176467	-460.220979	34.289	
O	-0.1505069574	 1.4684803389	 0.127094581	-0.42723
C	 0.0314860911	 0.0588028728	 0.0792765264	-0.099928
C	-1.3498030769	-0.5728219762	 0.0097348519	 0.017923
C	-2.1563825892	-0.2376406641	-1.25717762	-0.315901
C	-3.1297904442	-1.4071132119	-1.4292625917	 0.407259
O	-4.0336690171	-1.473502979	-2.2199724738	-0.313189
C	-2.7543637767	-2.4916022204	-0.4070273815	-0.349461
C	-1.3393984686	-2.1163848973	 0.0460745087	 0.080168
O	-0.3642561741	-2.5506718184	-0.8994712004	-0.439189
H	 0.7142784997	 1.884540714	 0.0693899115	 0.287989
H	 0.6188525085	-0.2447796675	-0.7972923621	 0.107858
H	 0.5608966457	-0.3053211371	 0.9751593767	 0.082735
H	-1.9141990373	-0.2324609547	 0.8873548076	 0.086489
H	-2.6846055001	 0.7163856108	-1.2194973336	 0.136441
H	-1.5069847545	-0.2136956135	-2.1407332437	 0.138921
H	-3.4612586614	-2.4236997038	 0.4307101647	 0.128917
H	-2.8448516976	-3.4962355409	-0.8292754899	 0.115829
H	-1.0983351154	-2.4965626875	 1.0484162427	 0.067127
H	-0.4185310147	-3.5086512342	-0.9709324844	 0.28724
71.549	100.9292	128.7656	171.4641	261.6185	293.0913	300.3888	351.6077	412.1704	468.0215	480.6911	492.1543	604.1849	712.4414	780.8371	820.5883	851.6571	903.5283	966.6757	979.2812	1026.4185	1062.8565	1083.8442	1117.8431	1143.0739	1167.1417	1178.2564	1224.6699	1242.621	1261.5925	1272.4709	1284.6514	1320.9642	1361.5408	1378.667	1413.9763	1439.6275	1448.8006	1459.8515	1522.5024	1851.4906	2967.217	3001.8946	3023.2864	3034.6271	3042.234	3051.3659	3098.7002	3123.6392	3822.0598	3832.7684
OCC1CC(=O)CC1O	OC[C@H]1CC(=O)C[C@H]1O	
InChI=1S/C6H10O3/c7-3-4-1-5(8)2-6(4)9/h4,6-7,9H,1-3H2	InChI=1S/C6H10O3/c7-3-4-1-5(8)2-6(4)9/h4,6-7,9H,1-3H2/t4-,6-/m1/s1
