23
gdb 74280	2.42221	1.33244	1.07845	1.2304	89.02	-0.2349	0.0265	0.2614	1274.8553	0.20502	-388.312393	-388.302751	-388.301807	-388.346039	37.386	
C	 0.0568341673	 1.5333865625	-0.0345186923	-0.477211
C	-0.0221712747	 0.0338011152	 0.0196937075	 0.257062
C	-1.1656352537	-0.6516730735	-0.0020936609	-0.162368
C	-1.2369982038	-2.1644174648	 0.007313339	 0.229984
C	-1.6300728613	-2.6648138749	 1.4127050383	-0.409393
C	-2.2652329072	-2.6482287637	-1.0296868293	-0.426115
C	 0.1576750674	-2.6965884163	-0.3692253265	-0.109839
O	 1.1751746924	-2.0713257469	 0.3921390796	-0.25129
C	 1.2979033432	-0.6970801975	 0.0907111251	-0.15378
H	 0.6546042111	 1.8701854945	-0.8917744352	 0.123634
H	-0.9361754278	 1.9824165023	-0.1191455687	 0.123711
H	 0.5413133481	 1.9414942587	 0.8620372853	 0.124198
H	-2.1154320155	-0.1182998473	-0.0314449942	 0.0716
H	-2.5591347834	-2.1955133354	 1.7531462439	 0.106441
H	-1.7826129973	-3.7506961719	 1.4120158897	 0.104439
H	-0.8428389877	-2.4262464199	 2.1323809852	 0.1273
H	-2.0242082537	-2.2808400971	-2.0327130825	 0.113953
H	-2.2999689117	-3.7430953175	-1.0668853308	 0.111066
H	-3.2699167078	-2.293442186	-0.775349944	 0.112926
H	 0.2367592252	-3.7689258879	-0.1627976991	 0.099981
H	 0.3365107083	-2.5411382462	-1.4465585286	 0.080271
H	 1.8462782267	-0.5569060741	-0.8610583429	 0.091991
H	 1.9269597057	-0.2663965627	 0.8798184715	 0.11144
116.5648	133.6261	182.9344	237.6161	247.3879	254.9818	283.9156	320.7859	354.2936	398.2435	403.8784	487.7404	500.4937	512.0526	604.1234	807.0228	860.9515	885.7234	921.5565	934.4421	948.5478	979.5469	993.3557	1011.8051	1040.1803	1054.6607	1091.8753	1135.3393	1165.1147	1197.3002	1233.2093	1263.7506	1293.7798	1324.9725	1347.3508	1388.7134	1393.3452	1410.2814	1413.9916	1427.2988	1478.6714	1481.5296	1486.1956	1486.7407	1491.1641	1498.6823	1501.7338	1509.9858	1741.0031	2918.6597	2963.2842	3013.4427	3022.2279	3026.7949	3042.1103	3058.5795	3072.4886	3088.5504	3093.6819	3098.301	3111.8815	3119.0563	3125.8765
CC1=CC(C)(C)COC1	CC1=CC(C)(C)COC1	
InChI=1S/C8H14O/c1-7-4-8(2,3)6-9-5-7/h4H,5-6H2,1-3H3	InChI=1S/C8H14O/c1-7-4-8(2,3)6-9-5-7/h4H,5-6H2,1-3H3
