21
gdb 77446	1.87505	1.49442	1.4197	3.398	84.4	-0.2323	-0.0024	0.2299	1149.8922	0.18011	-387.101829	-387.09197	-387.091025	-387.136043	36.677	
C	 0.0166097853	 1.5729977997	 0.0009788184	-0.424881
C	 0.1179674792	 0.0625719747	-0.0944591051	-0.097481
C	 0.6935041342	-0.7265473912	-1.2237603454	 0.287081
C	-0.030056719	-1.8407786857	-1.9233092669	-0.494789
C	 1.9028954862	 0.0129304355	-1.8200449388	-0.424172
C	 2.5650563466	-0.098592082	-0.4240798381	 0.371769
O	 3.69567878	 0.0559129015	-0.0482411247	-0.327373
C	 1.3753553533	-0.7569650847	 0.2006744699	 0.150525
C	 1.4408730219	-1.7974688453	 1.2829804698	-0.499132
H	 0.8920763164	 2.081714654	-0.4090065305	 0.130266
H	-0.8653612842	 1.9370899671	-0.5377703353	 0.119505
H	-0.0820798274	 1.8832968613	 1.0464610128	 0.125386
H	-0.7474932432	-0.4377401211	 0.3420974954	 0.088124
H	-0.6492958202	-1.4542477538	-2.7417863516	 0.127722
H	 0.6711333893	-2.564095701	-2.3542336595	 0.123157
H	-0.6925336579	-2.3780921559	-1.236772848	 0.121082
H	 2.4663203536	-0.5903108822	-2.5394792271	 0.124523
H	 1.7394212705	 1.0068818764	-2.2456008902	 0.114682
H	 1.5893102676	-1.334618725	 2.2648542013	 0.134966
H	 0.5141057448	-2.3787618031	 1.3294637541	 0.117877
H	 2.2724578931	-2.4896844793	 1.1172372794	 0.131163
92.967	139.4244	163.8377	171.4114	197.3609	209.3642	241.6276	263.3769	327.3399	423.4751	491.8612	517.6577	573.5084	616.0081	657.5349	670.1038	743.8637	837.1734	919.6719	956.5412	1002.6956	1012.0454	1047.6294	1070.4501	1084.8223	1111.3714	1116.0522	1130.6495	1191.3918	1203.7828	1267.8935	1321.4116	1344.6657	1410.9022	1415.1693	1418.8336	1454.8389	1477.4472	1483.7448	1486.1711	1494.1535	1496.2793	1500.4788	1508.1684	1863.2086	3021.9943	3030.112	3035.302	3052.2212	3081.2517	3092.1048	3093.7639	3095.828	3098.0646	3101.6659	3103.8169	3124.8724
CC1C2(C)CC(=O)C12C	C[C@H]1[C@@]2(C)CC(=O)[C@@]12C	
InChI=1S/C8H12O/c1-5-7(2)4-6(9)8(5,7)3/h5H,4H2,1-3H3	InChI=1S/C8H12O/c1-5-7(2)4-6(9)8(5,7)3/h5H,4H2,1-3H3/t5-,7+,8+/m0/s1
