19
gdb 52740	2.11064	1.00614	0.71544	2.9033	86.28	-0.2393	-0.0233	0.216	1603.0291	0.156136	-385.860678	-385.850264	-385.84932	-385.89863	35.439	
C	 0.0829571214	 1.4386289772	 0.0529743859	-0.498584
C	 0.0564144523	-0.0165136147	 0.0231325392	 0.089227
C	 0.0535333456	-1.2210379727	 0.0087491994	 0.049097
C	-0.0161496186	-2.6789408445	-0.0300569634	-0.276834
C	-1.4831988217	-3.1244500002	-0.0165366644	 0.175526
O	-1.9312330355	-3.9469172359	 0.7356130337	-0.248933
C	 0.6567416982	-3.2646441276	-1.2732471507	 0.022794
C	 2.1172076902	-3.62965439	-1.2329819304	-0.265819
C	 1.0692386925	-4.7143855337	-1.2781909821	-0.275164
H	 1.1113428046	 1.8162350512	 0.0451385736	 0.1515
H	-0.4323907527	 1.8634847441	-0.8153334637	 0.150085
H	-0.4067668322	 1.8270562419	 0.9526053872	 0.152155
H	 0.4471225642	-3.1141859181	 0.8635883271	 0.114219
H	-2.1110973972	-2.6301427284	-0.7910014339	 0.084164
H	 0.2840968906	-2.8532208364	-2.2065621686	 0.095664
H	 2.7126004133	-3.4474869512	-2.1205426791	 0.117471
H	 2.6502709982	-3.4749759517	-0.3009346014	 0.119588
H	 0.8922827281	-5.2898919575	-0.3757937114	 0.127628
H	 0.9467236488	-5.2787127918	-2.1956224871	 0.116214
22.4482	52.6127	57.8287	96.3962	118.6493	204.6958	271.1188	281.2798	336.7773	386.0306	463.8645	477.1989	510.6547	770.3132	795.166	825.2196	861.6422	931.7205	949.3234	1030.1091	1051.6732	1053.6593	1055.8863	1061.52	1081.7113	1135.8556	1151.9571	1175.3284	1195.5548	1221.4461	1249.7913	1293.8928	1394.9783	1414.7578	1418.0916	1471.1163	1477.5319	1478.1411	1504.8021	1836.0022	2366.8491	2885.5403	3028.6471	3039.9827	3090.141	3090.5191	3134.4182	3138.5211	3153.0332	3213.4584	3227.908
CC#CC(C=O)C1CC1	CC#C[C@@H](C=O)C1CC1	
InChI=1S/C8H10O/c1-2-3-8(6-9)7-4-5-7/h6-8H,4-5H2,1H3	InChI=1S/C8H10O/c1-2-3-8(6-9)7-4-5-7/h6-8H,4-5H2,1H3/t8-/m0/s1
