23
gdb 96340	2.12736	1.61242	1.18972	1.8331	81.12	-0.2472	0.0729	0.3201	1162.6475	0.205778	-425.440982	-425.43149	-425.430546	-425.474229	37.388	
C	-0.1008722297	 1.5770729456	-0.0007767752	-0.422014
C	-0.0146967723	 0.0400999448	 0.0217970839	 0.252974
C	-1.4277132966	-0.5636774407	 0.0031860964	-0.433475
C	 0.7641278972	-0.4586460839	-1.2139803646	-0.104879
O	 2.1151940358	-0.03198407	-1.2263705558	-0.244
C	 2.8408582867	-0.5546441973	-0.1290660634	-0.078597
C	 2.2384241294	-0.1061440811	 1.2055783419	-0.255896
C	 0.7492831884	-0.4686445641	 1.2657352873	 0.12439
O	 0.1147764638	 0.0545221084	 2.4260813129	-0.446021
H	 0.8798740079	 2.0301980248	-0.1639494763	 0.120853
H	-0.754207985	 1.9045493528	-0.8166998847	 0.103429
H	-0.5087444652	 1.9546853729	 0.9392146633	 0.129644
H	-1.9771712641	-0.2469244583	-0.8901075868	 0.106621
H	-1.3941988286	-1.6594246169	 0.0061237962	 0.104276
H	-1.9919104931	-0.2434860603	 0.8824587188	 0.134006
H	 0.7194322894	-1.5613297793	-1.2617030869	 0.078651
H	 0.3097758018	-0.065405721	-2.128888337	 0.10457
H	 2.8582094268	-1.6578006531	-0.1811394217	 0.084077
H	 3.86940236	-0.1995203705	-0.238828637	 0.107643
H	 2.7767505138	-0.5878682531	 2.0330420665	 0.082658
H	 2.3562770242	 0.9756442947	 1.3245368749	 0.1158
H	 0.6680772956	-1.5706295019	 1.2641994983	 0.055315
H	 0.6087358937	-0.2435307324	 3.1962619391	 0.279975
130.3904	188.7301	213.4305	229.6677	246.541	257.7331	286.3847	317.5573	360.0059	389.4926	423.444	442.8088	506.7599	540.9729	641.4216	717.9863	861.3944	879.851	907.2076	932.4014	955.2363	992.1857	1001.1442	1025.492	1045.4182	1103.6221	1117.2982	1143.1154	1181.0443	1210.3227	1230.0635	1240.6201	1274.0197	1304.7433	1331.5485	1352.0073	1372.4088	1391.9274	1395.7163	1405.4162	1416.1841	1443.0673	1478.9934	1484.8724	1491.5278	1494.1217	1502.734	1505.399	1519.106	2930.0758	2946.6356	2954.3914	3019.8985	3027.4519	3043.2958	3075.6571	3080.1967	3088.4359	3090.4396	3109.9208	3121.5546	3135.881	3818.5697
CC1(C)COCCC1O	CC1(C)COCC[C@H]1O	
InChI=1S/C7H14O2/c1-7(2)5-9-4-3-6(7)8/h6,8H,3-5H2,1-2H3	InChI=1S/C7H14O2/c1-7(2)5-9-4-3-6(7)8/h6,8H,3-5H2,1-2H3/t6-/m1/s1
