20
gdb 68605	2.30409	1.86815	1.47395	1.593	78.2	-0.2467	0.0666	0.3133	1003.6916	0.171863	-403.105578	-403.097633	-403.096689	-403.137507	31.915	
C	 0.0574076609	 1.5351385304	 0.1405453114	-0.502671
C	-0.013849486	 0.0391579715	 0.0340387207	 0.314433
C	 0.7784705083	-0.7006636077	-1.0748327837	-0.252256
C	 0.5282264842	-2.1648105647	-0.5876250807	-0.222193
C	-0.3224767764	-1.8179176251	 0.6504501334	-0.001596
O	 0.4166610278	-0.6961741036	 1.2316198741	-0.334884
C	-1.3086903275	-0.7895040263	 0.1025920611	 0.381631
C	-2.656750835	-0.4009979836	 0.5246079455	-0.339847
N	-2.4027367077	-0.9857027281	-0.8244776976	-0.392144
H	 1.0966951233	 1.8625384213	 0.2461746163	 0.133417
H	-0.3505670212	 2.0036554867	-0.7617376679	 0.118204
H	-0.5061456803	 1.8923203537	 1.0065969333	 0.13112
H	 0.3851088079	-0.5046812013	-2.076735928	 0.095086
H	 1.8338987581	-0.4189151906	-1.0534328642	 0.104109
H	-0.0220296165	-2.77268865	-1.3100141773	 0.112076
H	 1.4490887542	-2.6821219821	-0.3114801219	 0.104854
H	-0.5890246794	-2.5982473205	 1.3619947801	 0.081869
H	-3.2329690297	-1.036633164	 1.1912813887	 0.124247
H	-2.8937476757	 0.6580357449	 0.5925971403	 0.114513
H	-2.4170606592	-0.2522738608	-1.5307876435	 0.230031
162.7171	171.2886	217.7433	235.8711	246.6043	324.0283	418.0483	449.8212	579.1673	613.0635	626.4787	749.9385	803.852	831.4099	866.8498	877.9238	888.0565	916.9815	938.1885	954.0068	975.6627	994.6466	1000.653	1047.4872	1091.7104	1123.2703	1136.9034	1179.324	1192.681	1235.0685	1248.7219	1263.2168	1271.1122	1280.2554	1306.2628	1346.5161	1414.6399	1451.8025	1471.979	1481.8092	1492.9727	1495.6968	1532.9269	3036.6799	3057.5096	3072.5709	3102.2775	3105.2911	3105.8759	3118.4493	3126.6069	3135.456	3189.434	3481.5349
CC12CCC(O1)C21CN1	C[C@@]12CC[C@@H](O1)[C@]12CN1	
InChI=1S/C7H11NO/c1-6-3-2-5(9-6)7(6)4-8-7/h5,8H,2-4H2,1H3	InChI=1S/C7H11NO/c1-6-3-2-5(9-6)7(6)4-8-7/h5,8H,2-4H2,1H3/t5-,6+,7+/m1/s1
