17
gdb 70238	4.06732	1.08106	0.95262	1.3943	84.78	-0.2198	-0.0204	0.1994	1234.0816	0.134881	-384.654852	-384.646623	-384.645679	-384.687238	32.491	
O	-0.0800269325	 1.4463090932	 0.0170444378	-0.465513
C	-0.0022914367	 0.0550875876	 0.0450402345	 0.384852
C	-0.3650639281	-0.7596180507	-1.1798811909	-0.340919
C	-1.2537555304	-0.8007895805	 0.0458789927	-0.099737
C	-1.047703944	-1.926772375	 1.0506746459	-0.336489
C	 0.3850601238	-1.7177993691	 1.5411990718	 0.182256
C	 0.9261262719	-0.6102785881	 1.0034342166	-0.265675
C	 1.0087722705	-2.6218761963	 2.4317944774	 0.214763
C	 1.496032851	-3.4174672108	 3.1954117755	-0.421626
H	 0.5700792671	 1.7711921723	-0.6147439046	 0.285173
H	-0.7594337509	-0.202513406	-2.0241740433	 0.113398
H	 0.2419956947	-1.6225293744	-1.4355166074	 0.114909
H	-2.2221760407	-0.3221840577	-0.029153216	 0.099993
H	-1.7543329848	-1.8696759952	 1.8872573131	 0.121335
H	-1.1719077689	-2.9191803	 0.6017011659	 0.121319
H	 1.9227575793	-0.2390431998	 1.2104715626	 0.101024
H	 1.9387788087	-4.1079156694	 3.8694538586	 0.190938
110.7467	146.0781	219.4531	269.409	293.8252	360.4583	412.3756	485.007	523.2807	526.9084	541.8111	585.8284	617.1398	637.6057	760.1979	836.6843	859.7822	887.7498	900.4979	923.0633	954.5634	1011.8343	1054.9619	1079.5869	1084.7651	1147.5372	1189.3493	1227.6325	1236.0082	1307.0131	1316.1166	1339.3702	1397.2963	1467.5769	1482.3801	1655.7056	2219.0783	3033.3059	3065.8487	3119.1133	3191.7451	3206.7412	3213.0627	3503.9248	3803.6196
OC12CC1CC(=C2)C#C	O[C@]12C[C@H]1CC(=C2)C#C	
InChI=1S/C8H8O/c1-2-6-3-7-5-8(7,9)4-6/h1,4,7,9H,3,5H2	InChI=1S/C8H8O/c1-2-6-3-7-5-8(7,9)4-6/h1,4,7,9H,3,5H2/t7-,8-/m1/s1
