18
gdb 90358	2.24946	1.66653	1.38391	4.186	72.14	-0.2352	0.0019	0.237	1026.071	0.14655	-439.076606	-439.068132	-439.067188	-439.109508	32.374	
C	 0.0375252934	 1.5669096214	-0.0278878965	-0.482288
C	-0.0285731282	 0.0575479134	-0.0324945381	 0.354634
C	-1.4148822832	-0.6272557817	 0.0140679562	-0.436154
C	-0.8287816422	-1.4427046807	 1.1836884132	 0.395499
O	-1.1391453773	-2.4276281077	 1.7863294821	-0.321061
N	 0.3708515638	-0.6704070237	 1.2388320361	-0.174983
C	 1.5541327247	-1.2971012557	 0.5671319404	-0.223069
C	 1.1016193584	-0.6991593784	-0.8031430163	 0.039639
O	 0.5744460508	-1.6176394416	-1.7313074634	-0.421699
H	 1.0529600814	 1.921601837	 0.17698843	 0.122422
H	-0.2704518287	 1.9649969411	-1.0013861621	 0.127566
H	-0.6251384298	 1.9814578515	 0.7377266753	 0.128672
H	-2.2451088685	 0.038864714	 0.2624209042	 0.126995
H	-1.6800022197	-1.2461252363	-0.8436219815	 0.156418
H	 2.4980675216	-0.9025240702	 0.9523622458	 0.115152
H	 1.5581627022	-2.3888930057	 0.6254784646	 0.128076
H	 1.8363111173	-0.031130901	-1.272868063	 0.072117
H	 1.294655894	-2.1566704557	-2.0744939071	 0.292064
70.5628	167.4663	218.8922	256.5006	262.4037	286.0214	308.0301	414.0184	448.7745	516.7267	549.5461	608.3198	677.941	791.68	823.4151	842.115	877.3678	931.9169	947.6458	1012.42	1032.1659	1079.7487	1101.4535	1122.9399	1151.127	1184.0598	1193.1325	1214.2723	1257.0269	1286.8259	1297.6444	1318.065	1411.3772	1414.9138	1439.2011	1486.2713	1487.1915	1491.5685	1891.5227	3005.7869	3031.3572	3055.1556	3076.8881	3098.9945	3109.9425	3114.7196	3148.3561	3814.7081
CC12CC(=O)N1CC2O	C[C@]12CC(=O)N1C[C@H]2O	
InChI=1S/C6H9NO2/c1-6-2-5(9)7(6)3-4(6)8/h4,8H,2-3H2,1H3	InChI=1S/C6H9NO2/c1-6-2-5(9)7(6)3-4(6)8/h4,8H,2-3H2,1H3/t4-,6-/m1/s1
