21
gdb 38315	3.23877	1.64768	1.48052	1.4483	80.61	-0.2418	0.0909	0.3327	978.3861	0.18755	-387.08643	-387.079811	-387.078867	-387.117174	28.211	
C	-0.0623724915	 1.595881694	 0.1706028187	-0.237118
C	 1.4828747046	 1.4230911093	 0.0753856626	-0.026465
C	 1.2780331006	 0.1300217541	 0.9208218829	-0.228679
C	-0.0337616646	 0.0407535158	 0.0841758771	-0.026465
C	 0.5300590343	-0.2314850226	-1.3283990536	-0.016999
C	-0.3387161929	 0.1763525997	-2.5275902178	-0.111845
O	-0.0228872403	 1.5335239937	-2.8230551271	-0.243952
C	 1.3595107501	 1.7242001397	-2.5374330192	-0.111845
C	 1.6928821236	 0.8283694854	-1.3351385805	-0.016999
H	-0.3705524565	 1.9402994075	 1.1608824342	 0.089767
H	-0.5781103901	 2.1567707809	-0.6085440628	 0.119176
H	 2.1704871772	 2.2120753199	 0.3841339585	 0.05637
H	 2.0121784432	-0.6760910784	 0.819749946	 0.083813
H	 1.0914897249	 0.3414020067	 1.9765649853	 0.094163
H	-0.8809563703	-0.5691612908	 0.4018196748	 0.05637
H	 0.8793129043	-1.2629270787	-1.423338592	 0.068211
H	-0.1202769285	-0.4658786037	-3.3963470397	 0.086541
H	-1.4142212127	 0.1264717713	-2.3290651573	 0.1056
H	 1.9732875894	 1.4422985536	-3.4084810127	 0.086541
H	 1.5098480539	 2.7916122359	-2.3460133829	 0.1056
H	 2.6870034413	 0.3846914568	-1.4338154544	 0.068211
150.1355	228.0123	283.7173	351.6087	447.7653	530.1913	562.7363	733.548	781.1748	781.8414	817.3234	844.4813	856.419	860.8522	900.0567	929.2776	944.5872	987.5069	1009.317	1021.559	1036.9361	1043.6807	1072.5894	1083.6573	1107.8088	1116.0802	1125.0731	1130.2257	1189.6638	1216.0717	1230.807	1248.1606	1253.7701	1276.3563	1286.0648	1293.8584	1306.7907	1343.49	1351.4484	1356.6089	1404.6567	1490.3327	1505.4877	1516.376	1524.4968	2964.84	2971.4135	3043.6697	3062.9871	3070.5944	3072.252	3073.7231	3076.3612	3098.8983	3103.1949	3111.3877	3143.0837
C1C2CC1C1COCC21	C1[C@H]2C[C@@H]1[C@H]1COC[C@@H]21	
InChI=1S/C8H12O/c1-5-2-6(1)8-4-9-3-7(5)8/h5-8H,1-4H2	InChI=1S/C8H12O/c1-5-2-6(1)8-4-9-3-7(5)8/h5-8H,1-4H2/t5-,6+,7-,8+
