19
gdb 96284	2.07024	1.70231	1.03066	4.2617	72.22	-0.2521	0.0132	0.2652	1175.3113	0.159401	-460.193737	-460.185119	-460.184175	-460.227344	32.192	
C	-0.2281024453	 1.4771270579	 0.1819026667	-0.400382
C	-0.016454462	-0.0188757282	-0.0076899637	 0.162007
C	 0.6989688654	-0.358413865	-1.3185358475	-0.257843
C	 0.4261223474	-1.8080817617	-1.750956316	-0.091088
O	 0.2134393363	-2.6666183801	-0.644768339	-0.225761
C	 1.2878633832	-2.7244923977	 0.2570673413	-0.222145
C	 1.4147690206	-1.5954912111	 1.2922053648	 0.370801
O	 2.1164590605	-1.7621461155	 2.2543730711	-0.318766
O	 0.759075654	-0.4275096316	 1.1489736651	-0.239046
H	 0.722715363	 2.014321294	 0.112284996	 0.129464
H	-0.9048664934	 1.8620859153	-0.5867084523	 0.117595
H	-0.6638284271	 1.677809947	 1.1635072474	 0.136014
H	-0.9790771752	-0.5396007113	 0.0356700493	 0.107052
H	 0.3642800457	 0.3210994508	-2.1095070847	 0.114784
H	 1.7702054286	-0.1699566794	-1.1826196002	 0.120843
H	-0.4995963576	-1.8643586765	-2.3310732373	 0.117364
H	 1.2436403577	-2.1873729427	-2.3834344643	 0.101647
H	 1.1717163485	-3.6396876662	 0.8425722867	 0.153166
H	 2.2568692098	-2.7957392283	-0.2624082835	 0.124295
68.5608	93.7819	176.279	239.219	275.2677	303.1	364.4765	366.8631	449.4188	514.1224	553.8164	568.5325	677.1114	763.0914	833.07	855.4451	948.9839	978.1127	1000.9452	1020.2234	1043.3994	1101.6716	1148.5893	1152.9181	1163.3967	1252.8496	1256.9388	1278.4575	1316.9654	1337.2211	1365.0886	1377.3389	1398.9406	1412.2537	1415.3465	1460.385	1479.372	1486.2973	1499.9407	1504.2645	1827.2354	2987.1548	2989.3942	3040.35	3045.2141	3053.5563	3073.9161	3094.1394	3107.1011	3119.1525	3129.4977
CC1CCOCC(=O)O1	C[C@H]1CCOCC(=O)O1	
InChI=1S/C6H10O3/c1-5-2-3-8-4-6(7)9-5/h5H,2-4H2,1H3	InChI=1S/C6H10O3/c1-5-2-3-8-4-6(7)9-5/h5H,2-4H2,1H3/t5-/m0/s1
