19
gdb 67713	2.19588	1.96087	1.68089	0.9086	73.18	-0.2358	0.0776	0.3134	937.2741	0.161771	-423.023507	-423.016254	-423.01531	-423.054892	29.611	
O	-0.0535152064	 1.3462417691	-0.0660118129	-0.472874
C	 0.0230485452	-0.0369008524	-0.0114916286	 0.375735
C	-1.1927723376	-0.9110541614	 0.0076494538	-0.089264
C	-1.0701271783	-2.0134210758	-1.0446431689	-0.241228
C	 0.2362438143	-1.671829329	-1.8077625763	-0.212005
C	 1.0688527143	-0.8452551476	-0.8121517571	 0.016978
O	 1.7386099977	-1.689025954	 0.1304343049	-0.275547
C	 0.8885100955	-1.9320007752	 1.2547876185	-0.096609
C	-0.2177133054	-0.8967599457	 1.1952958722	-0.162884
H	 0.6981023162	 1.7096735419	 0.4157912743	 0.284655
H	-2.1615549433	-0.4667890213	 0.2072381672	 0.091559
H	-1.0214304075	-3.0080014432	-0.587258728	 0.106151
H	-1.9383400745	-2.017037384	-1.7091198793	 0.101723
H	 0.7840906616	-2.5478049988	-2.1639962976	 0.103136
H	 0.0007281061	-1.0424047611	-2.6736907472	 0.102507
H	 1.8238138227	-0.2184270378	-1.2937011176	 0.077871
H	 0.5087328399	-2.9643913164	 1.2237065095	 0.095741
H	 1.4845156504	-1.8257066378	 2.1694967894	 0.101478
H	-0.5862828009	-0.4591348596	 2.1160736637	 0.092877
115.3046	236.04	242.3048	303.4304	336.0152	403.5532	488.8595	568.6657	607.8756	692.2644	712.1377	743.6684	812.333	849.495	887.9215	912.4432	934.0493	960.5012	986.5645	1003.5478	1029.0666	1060.3428	1069.4816	1090.7122	1113.2868	1171.4668	1187.0264	1201.9153	1224.3518	1249.0407	1288.4888	1305.0836	1308.9185	1318.7794	1344.8544	1352.9608	1385.7609	1468.1062	1477.4723	1502.3766	1530.1719	2986.4029	3039.937	3041.6879	3042.1712	3081.8657	3087.4443	3106.6718	3173.1907	3183.3758	3789.7783
OC12C3CCC1OCC23	O[C@@]12[C@H]3CC[C@@H]1OC[C@@H]23	
InChI=1S/C7H10O2/c8-7-4-1-2-6(7)9-3-5(4)7/h4-6,8H,1-3H2	InChI=1S/C7H10O2/c8-7-4-1-2-6(7)9-3-5(4)7/h4-6,8H,1-3H2/t4-,5+,6-,7+/m0/s1
