14
gdb 49860	2.86725	1.50599	1.16626	4.8375	62.08	-0.256	-0.0461	0.2099	1014.4504	0.100736	-473.839195	-473.83176	-473.830816	-473.871608	27.226	
O	-0.1331513794	-0.0350488187	 0.0684408285	-0.236581
C	-0.0671597801	 1.159377918	-0.0400384417	 0.172366
C	 1.247853046	 1.9280576943	-0.0478277869	-0.105756
N	 2.4043088528	 1.0613720273	-0.1137571748	-0.32863
C	 3.2563315171	 1.2954405685	-1.1739083337	 0.442568
O	 4.2614740464	 0.6838264085	-1.4409252123	-0.362144
C	 2.6643123513	 2.4725750413	-1.9313707702	-0.092755
O	 1.383986491	 2.1226589503	-2.4945402289	-0.235197
C	 1.4105909748	 2.8396073115	-1.2657232541	 0.01253
H	-0.9747642679	 1.7978692616	-0.1073904275	 0.094702
H	 1.2513379616	 2.5528744949	 0.8621735725	 0.117633
H	 2.3696619963	 0.1450425113	 0.3089056927	 0.269357
H	 3.2888409521	 3.1378777983	-2.5162469114	 0.131707
H	 0.9883486081	 3.8390557029	-1.2705047822	 0.1202
89.9133	114.482	189.8708	232.1815	315.7203	451.4633	475.936	510.0637	617.2727	694.2465	710.0223	765.5293	844.6884	861.2549	895.5809	913.8674	979.2274	1019.3942	1057.3607	1100.4752	1155.009	1236.377	1255.7047	1276.1263	1316.0345	1349.0369	1399.8878	1422.9193	1425.418	1838.7579	1847.8924	2899.4333	2962.5127	3173.9588	3196.8259	3623.3578
O=CC1NC(=O)C2OC12	O=C[C@H]1NC(=O)[C@H]2O[C@@H]12	
InChI=1S/C5H5NO3/c7-1-2-3-4(9-3)5(8)6-2/h1-4H,(H,6,8)	InChI=1S/C5H5NO3/c7-1-2-3-4(9-3)5(8)6-2/h1-4H,(H,6,8)/t2-,3+,4+/m1/s1
