17
gdb 76942	2.29633	1.1614	0.97042	3.2941	72.37	-0.2578	-0.0506	0.2072	1254.9271	0.132208	-458.963512	-458.953855	-458.952911	-458.998259	34.202	
C	-0.0877115123	 1.5913034908	-0.0387073439	-0.474643
C	-0.0347262516	 0.0805551554	 0.0519539809	 0.160416
C	-1.2665457482	-0.6334203756	-0.4012372615	 0.133358
O	-2.2536939168	-0.0847515677	-0.8177805192	-0.253288
C	 1.2521838014	-0.6636819052	-0.1801278065	 0.046209
O	 2.3530832462	 0.1188927159	-0.5104936687	-0.409571
C	 0.6863495238	-0.6464311563	 1.2264676736	-0.21509
C	 1.3330129761	 0.1445355668	 2.3020637715	 0.157522
O	 1.3039053218	-0.1797665767	 3.4649334696	-0.265084
H	 0.9042327493	 2.0341744784	 0.0464486322	 0.142554
H	-0.5109064553	 1.8732923877	-1.0059164256	 0.146122
H	-0.7372681484	 2.0078315927	 0.7358100803	 0.137516
H	-1.2102321389	-1.7445682563	-0.3275259836	 0.073479
H	 1.1910344027	-1.6187054324	-0.7028101319	 0.110893
H	 3.1520582456	-0.3569547719	-0.2584915759	 0.302901
H	 0.221984037	-1.5605114118	 1.5848400987	 0.113851
H	 1.8680220577	 1.0569181962	 1.9724869099	 0.092856
71.6487	101.4994	147.226	173.8045	209.0848	227.0743	282.6846	291.8135	314.8885	395.3897	434.5082	480.4667	569.4657	605.8484	742.9133	809.2591	891.5768	962.4475	1007.2821	1023.4683	1060.7954	1083.5274	1106.0773	1125.8152	1171.9822	1235.4962	1263.1734	1334.7115	1337.2836	1409.3943	1437.8364	1446.0314	1454.7103	1492.6682	1499.0125	1806.5635	1824.2751	2859.7194	2937.0737	3060.3274	3096.7778	3123.997	3156.9296	3158.963	3806.9721
CC1(C=O)C(O)C1C=O	C[C@@]1(C=O)[C@@H](O)[C@H]1C=O	
InChI=1S/C6H8O3/c1-6(3-8)4(2-7)5(6)9/h2-5,9H,1H3	InChI=1S/C6H8O3/c1-6(3-8)4(2-7)5(6)9/h2-5,9H,1H3/t4-,5+,6+/m1/s1
