19
gdb 50097	4.03312	0.77249	0.72376	2.76	77.5	-0.2594	-0.0402	0.2192	1588.1996	0.15729	-422.99628	-422.987159	-422.986215	-423.031543	32.86	
O	-0.1462706953	 0.354154939	 0.7840353987	-0.245547
C	 0.3821346809	 0.8203170892	-0.1932383336	 0.141384
C	 1.3074860265	 1.9910206349	-0.1411893368	-0.060146
O	 2.2132766422	 2.1285614552	-1.2439280444	-0.240745
C	 1.2028041123	 3.1168594721	-1.1055551302	 0.087792
C	 0.1623873039	 3.2376005876	-2.1980009528	-0.265269
C	 0.6601240337	 4.0794312581	-3.3571290229	 0.031723
C	 1.5494273635	 3.4649794431	-4.4085678576	-0.247103
C	 0.1301746806	 3.847984264	-4.748931268	-0.281393
H	 0.2279745684	 0.3989708929	-1.209774171	 0.089986
H	 1.721808473	 2.1924076426	 0.8459233272	 0.116151
H	 1.5788479882	 4.0730247462	-0.7330377347	 0.103411
H	-0.112774945	 2.2415680209	-2.5583899412	 0.105177
H	-0.744216987	 3.685378658	-1.769394594	 0.113734
H	 0.8749483817	 5.1130054146	-3.0958828462	 0.085724
H	 2.3566282049	 4.0633238076	-4.8156684464	 0.114434
H	 1.7850166914	 2.4108937631	-4.3112306746	 0.123029
H	-0.5924612113	 3.0506638737	-4.8899801079	 0.112705
H	-0.0333522426	 4.7095838073	-5.3865189533	 0.114951
46.8777	70.8057	79.0076	145.4517	247.4198	280.9201	343.1375	358.7236	447.2581	472.9492	530.1123	771.9878	793.2485	818.7255	839.516	858.6447	907.5309	953.9114	962.1676	1005.6961	1045.6414	1054.0836	1066.2153	1079.6398	1109.5243	1138.004	1171.5174	1179.0144	1196.8411	1230.6272	1266.0456	1272.152	1321.977	1343.5082	1410.0611	1415.0101	1465.735	1469.1241	1475.4072	1509.1265	1822.6503	2904.0824	3024.2388	3075.1168	3089.2037	3130.6429	3131.4525	3133.7978	3140.1838	3210.7991	3226.8202
O=CC1OC1CC1CC1	O=C[C@H]1O[C@H]1CC1CC1	
InChI=1S/C7H10O2/c8-4-7-6(9-7)3-5-1-2-5/h4-7H,1-3H2	InChI=1S/C7H10O2/c8-4-7-6(9-7)3-5-1-2-5/h4-7H,1-3H2/t6-,7+/m0/s1
