12
gdb 23726	5.64755	1.51558	1.19491	2.7441	60.5	-0.2174	-0.0501	0.1673	886.4996	0.085296	-422.687683	-422.681603	-422.680659	-422.717948	23.378	
F	 0.0087974129	-0.0219354739	 0.0033872076	-0.081366
C	-0.0250375618	 1.3157362477	 0.0104621133	 0.210643
C	-1.210221487	 1.9741670553	 0.0296999508	-0.082906
N	-1.2091152189	 3.3396800157	 0.0364416299	-0.35449
C	-0.0682151075	 4.1656555801	 0.0251439441	 0.428607
O	-0.1858670991	 5.3796312161	 0.0327409106	-0.398468
C	 1.1728577388	 3.4070539358	 0.0046605633	-0.232859
C	 1.1910402991	 2.0462152423	-0.0023185127	-0.162121
H	-2.1657876807	 1.4669513419	 0.0400734283	 0.148371
H	-2.0853257743	 3.8427395772	 0.0507457617	 0.267257
H	 2.0850072275	 3.9901146736	-0.0047507258	 0.128447
H	 2.124830151	 1.4934634081	-0.0176432879	 0.128885
130.1617	333.5046	357.4345	402.4019	457.4693	480.2481	497.1469	637.8578	678.0187	749.7458	786.913	823.7667	853.159	870.4875	994.743	996.003	1110.2894	1191.6434	1225.9451	1284.4774	1342.19	1448.5065	1476.6999	1584.1801	1693.3047	1786.2716	3188.6864	3222.1	3225.8148	3611.5613
FC1=CNC(=O)C=C1	Fc1c[nH]c(=O)cc1	
InChI=1S/C5H4FNO/c6-4-1-2-5(8)7-3-4/h1-3H,(H,7,8)	InChI=1S/C5H4FNO/c6-4-1-2-5(8)7-3-4/h1-3H,(H,7,8)
