21
gdb 93930	3.03422	1.08938	1.01545	2.9377	78.74	-0.2303	-0.0128	0.2175	1314.3525	0.18124	-424.257382	-424.247637	-424.246693	-424.292866	35.066	
C	-0.3909135891	 1.2518909355	-0.0994386561	-0.418437
C	 0.1202385082	-0.1760287806	 0.0754448833	 0.017574
C	 0.9585994325	-0.6961648938	-1.1046205666	-0.065712
O	 1.9165006414	-1.6155994579	-0.5747762576	-0.256657
C	 1.8339741898	-1.6615326701	 0.8352168834	 0.009845
C	 1.0891064165	-0.3761838156	 1.2550484287	-0.256936
C	 1.0574208492	-2.9026926821	 1.3090666572	 0.38195
C	 1.4550278012	-3.4610805856	 2.6632916821	-0.487207
O	 0.1737230752	-3.3831708451	 0.639966663	-0.302238
H	 0.4400811684	 1.9557142057	-0.2247198753	 0.115681
H	-1.0361097175	 1.3367670953	-0.9802170279	 0.120773
H	-0.9752749863	 1.5735479587	 0.768556442	 0.117663
H	-0.7295997973	-0.8525513916	 0.2133470294	 0.101548
H	 0.3478790344	-1.2092342564	-1.8547627127	 0.112151
H	 1.4966841987	 0.1253918577	-1.6008240906	 0.088384
H	 2.8525489206	-1.6986948822	 1.2411081661	 0.082284
H	 1.7996769222	 0.4555150578	 1.3178034833	 0.105735
H	 0.5808230323	-0.4587546761	 2.2199191009	 0.107292
H	 1.5786842423	-2.6634896871	 3.4039814962	 0.134122
H	 0.7113866438	-4.1813951794	 3.0060260455	 0.1439
H	 2.4266426335	-3.962197467	 2.5739658257	 0.148283
50.0715	65.0064	101.9991	133.5495	208.4505	237.8163	275.8745	309.0719	351.9076	422.4612	527.0746	589.9084	615.2568	728.6036	794.8043	857.3747	904.1753	923.5088	939.0394	955.8418	989.2007	993.7318	1026.3349	1076.5431	1129.6472	1138.7624	1160.6192	1183.9089	1202.6416	1253.7274	1260.8571	1308.558	1341.2611	1361.4202	1374.833	1385.0195	1406.3622	1417.1188	1462.6079	1474.3985	1487.3093	1497.4059	1502.1921	1524.5387	1818.9886	2990.9714	3026.7602	3028.1347	3034.3506	3043.9678	3052.6599	3069.2405	3091.8037	3094.5437	3099.645	3101.6623	3151.8032
CC1COC(C1)C(C)=O	C[C@H]1CO[C@@H](C1)C(=O)C	
InChI=1S/C7H12O2/c1-5-3-7(6(2)8)9-4-5/h5,7H,3-4H2,1-2H3	InChI=1S/C7H12O2/c1-5-3-7(6(2)8)9-4-5/h5,7H,3-4H2,1-2H3/t5-,7+/m1/s1
