17
gdb 52429	2.52772	0.86923	0.75561	5.9954	71.48	-0.2641	0.0006	0.2647	1523.4363	0.134369	-455.131461	-455.121715	-455.120771	-455.168207	32.75	
N	-0.4119406025	 0.7569668862	-1.3417128672	-0.437358
C	-0.5557163264	-0.4434533114	-0.9854809996	 0.136176
O	-1.00260735	-0.7209714659	 0.2607796554	-0.180353
C	-1.256162015	-2.0820630958	 0.5726011573	-0.097474
C	-2.6702242113	-2.5003652075	 0.2099238868	-0.077484
O	-2.7597824775	-2.5649832991	-1.2076830229	-0.232568
C	-4.0236470314	-2.9352768823	-1.693252791	-0.186447
C	-5.0751054543	-1.934658667	-1.4220074937	 0.252797
N	-5.9008200825	-1.1586336114	-1.1979520208	-0.294381
H	-0.0469151864	 0.7949814209	-2.2910081483	 0.229151
H	-0.3413032973	-1.3387814316	-1.5817460836	 0.0924
H	-0.5346759727	-2.7405139124	 0.0712699622	 0.117467
H	-1.1193162548	-2.1793130957	 1.6530903081	 0.130326
H	-2.8868392259	-3.4865320445	 0.6516442148	 0.099915
H	-3.3883600384	-1.7725337241	 0.6110842921	 0.139726
H	-3.9246967789	-3.0567779878	-2.7758414629	 0.165758
H	-4.3539311947	-3.8985485802	-1.273608627	 0.142348
29.8365	62.4969	78.3669	123.6692	147.2075	231.4063	249.9026	333.4369	368.9789	376.8806	488.3384	612.9038	635.829	817.1648	840.924	903.9258	916.3264	995.5238	1026.5451	1037.8331	1062.9763	1132.7781	1146.8247	1162.6672	1249.78	1276.693	1298.7484	1346.2111	1387.7741	1403.7715	1422.3539	1432.9184	1469.2384	1488.0569	1505.1337	1748.0343	2360.3947	2980.4105	2991.7016	3024.5558	3045.5378	3049.9574	3094.0545	3103.1436	3520.0743
N=COCCOCC#N	[NH][CH]OCCOCC#N	
InChI=1S/C5H8N2O2/c6-1-2-8-3-4-9-5-7/h5,7H,2-4H2	InChI=1S/C5H8N2O2/c6-1-2-8-3-4-9-5-7/h5,7H,2-4H2
