14
gdb 130361	5.58161	0.9859	0.84025	4.8876	79.86	-0.2204	-0.059	0.1614	1282.4581	0.102644	-429.067814	-429.05989	-429.058946	-429.101043	27.916	
N	-0.0406411659	 1.3546214412	 0.0295486198	-0.490495
C	-0.0638128183	 0.0126865103	-0.0606360425	 0.14762
N	-1.1528558217	-0.6547133544	 0.1072867653	-0.358624
C	-1.0804576699	-2.0377010974	 0.0666261396	 0.393108
C	-2.2785907752	-2.7718085804	-0.0637818553	-0.039549
N	-2.275285719	-4.0895464181	-0.093811796	-0.23175
C	-1.0591438845	-4.6509535967	 0.0046360734	 0.092436
N	 0.0981856973	-4.0145809644	 0.1380622009	-0.184729
N	 0.0858808574	-2.6846057446	 0.1803892195	-0.272679
H	 0.8034181885	 1.8737750391	-0.1271129413	 0.275009
H	-0.8881087346	 1.8511629324	 0.2528762954	 0.272952
H	 0.8975691329	-0.4558818544	-0.284439541	 0.141938
H	-3.2277021142	-2.2469874879	-0.1406328249	 0.126458
H	-1.0048188929	-5.7347295348	-0.0194807328	 0.128306
57.3468	125.5282	160.3991	166.1961	248.8142	401.8196	411.8198	455.2555	568.8169	636.9841	639.0171	707.1808	800.6173	869.543	940.3493	999.6128	1039.6007	1059.9839	1069.5431	1126.7452	1175.3676	1224.1187	1297.2514	1323.9874	1383.3655	1412.2271	1462.5544	1527.7361	1605.9315	1623.332	1708.682	3109.6618	3163.1171	3189.1594	3610.5529	3753.1876
NC=NC1=CN=CN=N1	NC=Nc1cncnn1	
InChI=1S/C4H5N5/c5-2-7-4-1-6-3-8-9-4/h1-3H,(H2,5,7,9)	InChI=1S/C4H5N5/c5-2-7-4-1-6-3-8-9-4/h1-3H,(H2,5,7,9)
