18
gdb 32474	5.01562	0.90828	0.79792	4.115	79.03	-0.1784	0.0452	0.2235	1456.0237	0.147377	-435.270481	-435.260892	-435.259948	-435.305624	33.851	
C	 0.2528007807	 1.3475670728	-0.2350639572	-0.332216
N	-0.3469513047	 0.1482843185	 0.3631246528	-0.392242
C	 0.4810996351	-0.6426054234	 1.1523156934	 0.315028
C	 0.8573277752	-1.9272483166	 1.0734174588	-0.140828
O	 1.6180362468	-2.2638317336	 2.1958741246	-0.227595
C	 1.7091302885	-1.144685557	 2.9941444763	 0.516821
N	 1.068552594	-0.1162867496	 2.3094449651	-0.406455
N	 2.2571274076	-1.0551617784	 4.1270448661	-0.384702
C	 2.8663615866	-2.2501234959	 4.6849672625	-0.318231
H	 1.0752876089	 1.1239220486	-0.9301659113	 0.120255
H	-0.5243188952	 1.9003746458	-0.7680279135	 0.130508
H	 0.6447997072	 1.9939095999	 0.5537266816	 0.139755
H	-0.8159209548	-0.4172621875	-0.3322903895	 0.241598
H	 0.7085212149	-2.6956188463	 0.3368483565	 0.132791
H	 0.6861651142	 0.6614843097	 2.8213448031	 0.269354
H	 2.2670999538	-3.1573648664	 4.5256417339	 0.110895
H	 3.8594848408	-2.4373188299	 4.2520839471	 0.112593
H	 3.0005918204	-2.111658841	 5.7615898398	 0.112671
57.7988	76.8241	98.4837	153.0354	189.6377	213.6833	262.7266	364.4658	410.896	424.1669	519.7959	604.8103	633.8122	675.7098	727.2796	733.6522	769.2337	901.1807	985.1457	1058.3819	1078.4323	1087.3994	1125.4101	1145.3513	1149.3221	1156.8428	1213.8293	1293.7206	1341.382	1420.5325	1447.3088	1459.7487	1488.5236	1490.0789	1493.612	1501.7538	1515.7177	1729.4903	1810.9444	2990.7521	2997.5993	3036.9397	3089.9893	3093.6278	3131.8525	3302.9424	3574.8596	3662.2036
CNC1=COC(N1)=NC	CNc1coc(=NC)[nH]1	
InChI=1S/C5H9N3O/c1-6-4-3-9-5(7-2)8-4/h3,6H,1-2H3,(H,7,8)	InChI=1S/C5H9N3O/c1-6-4-3-9-5(7-2)8-4/h3,6H,1-2H3,(H,7,8)
