24
gdb 101022	2.60884	1.05665	0.84002	1.7687	85.29	-0.2364	0.0562	0.2926	1495.3031	0.216103	-405.527661	-405.516827	-405.515882	-405.563482	40.2	
C	-0.1172656179	 1.5723268252	 0.068514334	-0.383961
C	-0.1718568141	 0.042106892	 0.1303362637	-0.215337
C	 0.8016104506	-0.56148604	 1.1519010962	 0.053863
O	 0.5417305222	-0.0504264788	 2.4610284929	-0.437609
C	 0.8191499074	-2.1008493715	 1.1555932768	 0.322385
C	 1.1018196528	-2.7306653995	-0.2048756895	-0.236196
C	 1.395675647	-4.2334140402	-0.1907773624	-0.402416
C	 1.2434318487	-2.7598298886	 2.4164518278	-0.282563
N	-0.172110043	-2.8041265078	 1.9874828867	-0.354137
H	 0.8784530339	 1.9146699715	-0.233178654	 0.121523
H	-0.8392292891	 1.9600802578	-0.6561103374	 0.115472
H	-0.3360529616	 2.0283564786	 1.0385642519	 0.116034
H	-1.1906763262	-0.2949512949	 0.3744768607	 0.09591
H	 0.0487934344	-0.3660043327	-0.8601320401	 0.113547
H	 1.8185128589	-0.2245443202	 0.9028966084	 0.086558
H	-0.3875143466	 0.1937354388	 2.5101420309	 0.284511
H	 0.2332831797	-2.5544666037	-0.8509608182	 0.104037
H	 1.9426496566	-2.1963478662	-0.6687186917	 0.091748
H	 2.3509451247	-4.4577342141	 0.2934354094	 0.114713
H	 0.6058571977	-4.7741446093	 0.3380088129	 0.142443
H	 1.4474932025	-4.6189357096	-1.2134615692	 0.106899
H	 1.7551487127	-3.7160911371	 2.3923857633	 0.1094
H	 1.4942546298	-2.1177761499	 3.2536551815	 0.122747
H	-0.6832235612	-2.1207017	 2.5428848051	 0.210427
67.4222	80.8041	116.1719	166.3638	192.7687	212.9392	235.4547	281.1477	318.6058	334.7717	354.7556	377.9496	443.0566	496.2044	585.1993	729.055	778.5601	789.7271	851.5163	884.895	906.2847	961.4707	985.9868	991.2778	1015.4595	1058.3799	1069.8255	1084.1711	1097.2612	1129.4739	1133.8576	1161.849	1251.7545	1259.7233	1276.6826	1315.2266	1325.6433	1338.1858	1363.1063	1380.6877	1399.0775	1404.4369	1412.9685	1418.136	1481.3901	1485.2113	1495.7303	1497.4542	1505.7107	1507.1277	1516.1674	2995.1375	3008.9666	3012.3705	3038.5433	3041.1118	3048.3987	3084.5252	3105.518	3106.3592	3113.9314	3121.3579	3131.0631	3219.3923	3481.6122	3823.0148
CCC(O)C1(CC)CN1	CC[C@@H](O)[C@@]1(CC)CN1	
InChI=1S/C7H15NO/c1-3-6(9)7(4-2)5-8-7/h6,8-9H,3-5H2,1-2H3	InChI=1S/C7H15NO/c1-3-6(9)7(4-2)5-8-7/h6,8-9H,3-5H2,1-2H3/t6-,7-/m1/s1
