21
gdb 111858	2.22633	1.51109	1.19161	1.0809	78.32	-0.2328	0.0773	0.31	1159.2045	0.182534	-424.210529	-424.201447	-424.200502	-424.244054	34.577	
C	-0.4687164683	 1.0072298605	-0.0149942292	-0.235232
O	 0.4059866897	-0.0800491407	-0.2476321327	-0.239936
C	 0.9206231382	-0.6182288461	 0.9302750177	 0.047758
C	 0.2051757919	-1.6930471162	 1.7398313	-0.138682
C	-0.9470227084	-2.4610364108	 1.1050927271	-0.217299
C	-0.4364603786	-2.9113467831	-0.2875659124	-0.215706
C	 1.102006837	-2.9749108643	-0.1627842158	-0.271429
C	 1.4677540452	-2.0126040081	 0.9606204788	 0.33379
O	 2.6589354757	-2.2456066899	 1.6567005056	-0.471716
H	 0.0489478552	 1.8376382373	 0.4890569853	 0.107088
H	-0.8228906767	 1.351201998	-0.9896493674	 0.125916
H	-1.3302497009	 0.7139836146	 0.6007812397	 0.113687
H	 1.4825625534	 0.0962566122	 1.5360350124	 0.083775
H	 0.2434441324	-1.5955644793	 2.819666731	 0.088579
H	-1.1716446652	-3.3297559884	 1.7351489688	 0.10207
H	-1.8703008264	-1.8765930094	 1.0321215133	 0.096142
H	-0.8635312384	-3.8713816919	-0.5902100534	 0.091205
H	-0.7128337379	-2.1723710891	-1.0403193017	 0.118842
H	 1.4370652943	-3.969600204	 0.1527519154	 0.105005
H	 1.6034714467	-2.7414463483	-1.1083356252	 0.095998
H	 3.3896083711	-1.9570553129	 1.0984562727	 0.280146
98.2874	136.0105	163.8155	214.2871	221.8079	249.9858	284.4646	330.5988	386.6215	498.676	547.0885	570.3666	671.5035	730.8908	790.0746	857.444	876.4342	908.8185	938.0344	982.2522	994.6317	1030.6828	1068.6562	1075.8184	1109.3953	1130.0027	1173.5725	1182.5214	1195.1466	1232.3374	1243.5996	1254.4059	1272.3859	1315.8022	1327.0415	1338.0707	1350.1866	1361.1047	1451.6911	1483.927	1485.3992	1486.6369	1491.0279	1509.2488	1514.9343	2984.2528	3032.9699	3036.0696	3038.7938	3067.3508	3070.0766	3074.9266	3078.4318	3117.5305	3127.319	3167.5689	3792.1167
COC1C2CCCC12O	CO[C@H]1[C@H]2CCC[C@@]12O	
InChI=1S/C7H12O2/c1-9-6-5-3-2-4-7(5,6)8/h5-6,8H,2-4H2,1H3	InChI=1S/C7H12O2/c1-9-6-5-3-2-4-7(5,6)8/h5-6,8H,2-4H2,1H3/t5-,6+,7+/m1/s1
