16
gdb 54022	2.23539	1.57068	1.02193	2.6967	70.03	-0.2441	-0.026	0.2181	1139.0044	0.125529	-467.427284	-467.418511	-467.417567	-467.461089	32.955	
N	 0.567912872	 0.5316950775	 0.967527832	-0.498578
C	 0.0507992966	 0.1827904496	-0.2489393754	 0.366971
N	 0.4831888169	 0.6579609349	-1.3476105453	-0.513231
N	-1.1273749828	-0.678199267	-0.1737297286	-0.168089
C	-2.2526664729	-0.1851592072	-0.8150652819	 0.16916
O	-3.3235282281	-0.7431804852	-0.9420313583	-0.341045
C	-1.1031289172	-1.9037272862	 0.5663870746	 0.451317
N	-2.0848547893	-2.7876299965	 0.2230219558	-0.553088
N	-0.1597053635	-2.078133005	 1.4146185847	-0.571323
H	 1.4734073821	 0.9721894649	 0.8834828779	 0.259381
H	 0.514111135	-0.2218319229	 1.6489370962	 0.282154
H	-0.0306232388	 0.3007915724	-2.1476576886	 0.223213
H	-2.0657526107	 0.8228710967	-1.2133372939	 0.132581
H	-2.8960840948	-2.4088407335	-0.2547249082	 0.289517
H	-2.2340829748	-3.5485048003	 0.8652286274	 0.254202
H	-0.2228531096	-2.9928500722	 1.8540053717	 0.216859
58.6765	80.3081	165.9315	257.9973	302.84	323.9892	402.6557	445.9647	455.1354	475.9958	522.1952	585.1953	627.4681	655.5307	683.5156	722.7042	781.9286	788.7352	808.4882	820.7295	1042.9529	1064.1134	1121.4675	1136.0574	1175.0939	1185.9184	1287.0309	1382.019	1418.2374	1459.5532	1623.0312	1629.6684	1714.8781	1753.4671	1786.1023	3033.8062	3462.7313	3485.0053	3521.1994	3539.0853	3636.1601	3677.4756
NC(=N)N(C=O)C(N)=N	NC(=N)N(C=O)C(=N)N	
InChI=1S/C3H7N5O/c4-2(5)8(1-9)3(6)7/h1H,(H3,4,5)(H3,6,7)	InChI=1S/C3H7N5O/c4-2(5)8(1-9)3(6)7/h1H,(H3,4,5)(H3,6,7)
