22
gdb 115203	3.87175	0.94774	0.80277	3.4062	84.36	-0.2527	0.0238	0.2765	1478.3331	0.195745	-404.379648	-404.370471	-404.369527	-404.413879	34.604	
C	 0.0291472043	 1.6052188441	 0.099578925	-0.394028
C	 0.0423827233	 0.0745879666	 0.0185576073	-0.187581
C	 0.6850637905	-0.5002141594	-1.2533245221	 0.016873
C	 0.8231719229	-2.026160059	-1.1928946723	-0.2272
C	 1.4738357441	-2.546000576	-2.4791995717	-0.277528
C	 0.818181101	-2.0173837198	-3.7335055455	 0.37948
N	 0.742660313	-2.7173642458	-4.7859238254	-0.501404
O	 0.4125086857	-0.710580956	-3.7170058559	-0.257402
C	-0.1174782743	-0.1498489562	-2.5062903315	-0.075264
H	 1.0399566546	 2.0149350432	-0.0045453459	 0.118584
H	-0.592932325	 2.0548708438	-0.6805469437	 0.121236
H	-0.3665477646	 1.9397596066	 1.0632644907	 0.118096
H	 0.5891617559	-0.324363393	 0.881976536	 0.099813
H	-0.9827893473	-0.3098861194	 0.1091561202	 0.098167
H	 1.6901106483	-0.0667631244	-1.3637849188	 0.077946
H	 1.4175606751	-2.3265027299	-0.3232680825	 0.099539
H	-0.1715243583	-2.4751170332	-1.0657838877	 0.102821
H	 2.5221378896	-2.2177007148	-2.5036254931	 0.123951
H	 1.4789775858	-3.6355901894	-2.5355892018	 0.129863
H	 0.3042450273	-2.1705225994	-5.5309270067	 0.215446
H	-1.1557481201	-0.495721488	-2.3846548497	 0.10179
H	-0.1426497317	 0.9265564896	-2.688852075	 0.116799
67.1294	91.1504	162.2408	178.6161	204.7551	262.8912	348.6186	408.5378	418.5287	457.0177	489.0246	562.4694	691.3628	764.001	783.7677	828.1055	907.1853	926.0522	931.9111	956.4479	972.2777	1027.8417	1050.1655	1056.7574	1113.4424	1129.2179	1137.9063	1164.3864	1209.9696	1239.3894	1275.4282	1304.9915	1310.8357	1327.6621	1350.627	1372.2419	1386.1418	1393.6194	1415.8456	1431.2567	1473.1086	1485.1915	1496.6484	1501.1802	1507.7974	1513.5058	1747.7211	2986.0671	3000.2656	3013.1242	3019.0559	3025.6722	3034.9295	3049.761	3070.0253	3099.9432	3103.6071	3109.6712	3120.7781	3454.2739
CCC1CCC(=N)OC1	CC[C@H]1CC[C]([NH])OC1	
InChI=1S/C7H13NO/c1-2-6-3-4-7(8)9-5-6/h6,8H,2-5H2,1H3	InChI=1S/C7H13NO/c1-2-6-3-4-7(8)9-5-6/h6,8H,2-5H2,1H3/t6-/m0/s1
