15
gdb 28724	4.58338	0.95944	0.81613	3.0356	71.75	-0.2332	-0.004	0.2293	1357.9417	0.112038	-453.973807	-453.965359	-453.964415	-454.008321	29.251	
C	 0.0529864285	 1.453880452	 0.1234496652	-0.486057
C	 0.0334029548	-0.0239460655	-0.0154701989	 0.39204
N	-0.2499903956	-0.7400580777	-1.054599688	-0.291134
C	-0.1341847167	-2.0618325019	-0.6328694526	-0.216983
C	 0.2274010678	-2.0617653852	 0.6678749933	 0.375774
O	 0.5558229641	-3.0406234601	 1.5289508912	-0.212345
C	-0.0734207024	-3.0537575087	 2.7495824538	 0.113465
N	 0.2973378366	-3.8923083329	 3.6059385743	-0.415143
O	 0.3468381432	-0.7675399497	 1.0918951177	-0.211093
H	 1.0441440531	 1.8111035313	 0.4214340635	 0.149311
H	-0.2119359444	 1.897123485	-0.8367499686	 0.161265
H	-0.661672296	 1.79134059	 0.8815838101	 0.144725
H	-0.3117804286	-2.9007699819	-1.2841358189	 0.135746
H	-0.8613898087	-2.2988932203	 2.8299390806	 0.117459
H	-0.2612553158	-3.8024499843	 4.4521455274	 0.24297
40.2585	88.0941	113.7851	130.5627	230.6247	305.126	391.4049	457.9004	493.2582	667.2089	687.6527	695.1063	803.868	828.3548	840.4738	964.6828	972.7181	1014.4493	1041.4408	1057.6816	1065.7653	1144.2438	1233.3877	1250.3857	1289.4504	1352.9447	1409.8325	1415.0339	1474.5458	1481.6052	1629.2753	1660.4268	1761.8024	3043.0478	3081.6297	3097.2358	3157.5322	3281.2542	3524.9199
CC1=NC=C(OC=N)O1	Cc1ncc(O[CH][NH])o1	
InChI=1S/C5H6N2O2/c1-4-7-2-5(9-4)8-3-6/h2-3,6H,1H3	InChI=1S/C5H6N2O2/c1-4-7-2-5(9-4)8-3-6/h2-3,6H,1H3
