21
gdb 103668	3.62348	0.90751	0.85566	5.0867	83.64	-0.2476	0.0196	0.2672	1442.0076	0.181903	-383.273053	-383.263318	-383.262374	-383.30768	36.314	
C	 0.0090410075	 1.6070567466	-0.0625172658	-0.396483
C	-0.0296152838	 0.0778506857	-0.1617462546	-0.225044
C	-1.4200892443	-0.556123857	 0.0272022381	 0.354072
C	-2.4228083975	-0.1089358994	-1.0300611834	-0.442356
C	-1.3180183215	-2.0948580246	 0.2585579119	-0.297889
C	-1.4801836027	-1.782719961	 1.7732941559	-0.112426
N	-1.9635091906	-0.4327949702	 1.4190683753	-0.342859
C	-2.4237494086	-2.5976004834	 2.5414207283	 0.290618
N	-3.1572676371	-3.2564499846	 3.1445279235	-0.32548
H	 1.0381605265	 1.9701673604	-0.1380472177	 0.121975
H	-0.5682901156	 2.0827587302	-0.8601457381	 0.127915
H	-0.3902626811	 1.9647418219	 0.8937428292	 0.114039
H	 0.3595230028	-0.2337393778	-1.1399608855	 0.103308
H	 0.6544838741	-0.3477976757	 0.5843377417	 0.094191
H	-2.0600120065	-0.3437102628	-2.0372989949	 0.112894
H	-3.3810945944	-0.6109603742	-0.8761997676	 0.12643
H	-2.602930055	 0.9691942178	-0.9780545811	 0.121934
H	-2.1653900702	-2.6480059082	-0.1473558188	 0.127742
H	-0.3859830067	-2.5803605542	-0.0323198063	 0.115621
H	-0.5152275603	-1.8044224631	 2.29711575	 0.111811
H	-1.5863672452	 0.3211642436	 1.98438491	 0.219987
60.9527	100.9209	142.8446	201.1401	221.2667	246.6578	257.9103	328.2888	349.7895	407.3795	465.2184	536.4933	564.4684	600.0793	717.7583	779.4114	790.7744	866.26	910.0767	955.7023	973.2992	1006.9502	1008.9965	1023.9029	1068.4397	1074.3314	1114.0637	1183.3442	1205.89	1223.5993	1267.2419	1270.9383	1325.1215	1352.6194	1370.779	1399.6744	1410.7167	1416.635	1475.8463	1484.9773	1488.1699	1495.6136	1502.3767	1508.6577	2356.1574	3008.5025	3014.4666	3033.1074	3035.7904	3047.1641	3088.274	3097.8267	3101.9441	3115.0744	3122.1084	3149.5616	3520.438
CCC1(C)CC(N1)C#N	CC[C@@]1(C)C[C@@H](N1)C#N	
InChI=1S/C7H12N2/c1-3-7(2)4-6(5-8)9-7/h6,9H,3-4H2,1-2H3	InChI=1S/C7H12N2/c1-3-7(2)4-6(5-8)9-7/h6,9H,3-4H2,1-2H3/t6-,7+/m1/s1
