14
gdb 123620	3.11166	1.47347	1.09527	2.9639	75.78	-0.2382	-0.069	0.1692	1040.5907	0.101777	-432.837565	-432.830334	-432.82939	-432.869613	26.814	
C	 0.045452355	 1.4818088741	-0.037786232	-0.240322
C	 1.2956763154	 0.6888483133	 0.1564825877	-0.132056
N	-0.006615505	 0.0238201002	-0.0410100186	-0.092924
C	-0.0331999043	-0.5722378913	-1.3948199145	-0.25938
C	 1.2594216988	-0.1170573326	-2.0452198326	 0.169735
C	 2.1491323381	 0.549230472	-1.0835782923	 0.343582
O	 3.2987817845	 0.8974428956	-1.2208158156	-0.351675
N	 1.9398137509	-0.5423093897	-4.3381545916	-0.227703
N	 1.608291588	-0.3496910136	-3.2705511913	 0.137105
H	-0.4214413622	 1.9535562335	 0.8213242153	 0.135395
H	-0.0738631364	 2.0120302993	-0.9808088233	 0.12701
H	 1.781885409	 0.6180566206	 1.1230660236	 0.124715
H	-0.0741399349	-1.6627781961	-1.2901502427	 0.135476
H	-0.934329947	-0.2500731253	-1.9276928121	 0.131041
91.5921	141.8601	192.2732	279.8635	376.9345	407.2011	523.8261	558.5983	594.9168	633.0471	723.9288	745.0032	790.1994	861.4188	945.4341	992.1314	1023.1638	1068.502	1107.0652	1119.0338	1153.5976	1215.2067	1217.1964	1260.1143	1305.5013	1347.8375	1405.308	1496.8205	1507.7605	1798.9901	2210.8362	3028.2198	3069.2705	3103.0862	3180.6669	3198.558
C1C2N1CC1=C2ON=N1	C1[C@H]2N1C[C](C2=O)[N][N]	
InChI=1S/C5H5N3O/c1-3-5(9-7-6-3)4-2-8(1)4/h4H,1-2H2	InChI=1S/C5H5N3O/c6-7-3-1-8-2-4(8)5(3)9/h4H,1-2H2/t4-,8?/m1/s1
