21
gdb 39146	2.7755	1.92503	1.31504	0.7757	88.08	-0.205	0.007	0.212	1020.0508	0.186038	-349.930862	-349.923627	-349.922683	-349.962577	29.619	
C	-0.1122324447	 1.6080740395	 0.0551844638	-0.241363
C	 1.4754263512	 1.7202375347	 0.0271173782	-0.046332
C	 2.2737259122	 2.3175847384	 1.2199893752	-0.231758
C	 2.4309202326	 1.1420925016	 2.2613642623	-0.30203
C	 1.657758329	 0.001112324	 1.6261379903	 0.194953
C	 1.3939793274	 0.2568666808	 0.3426481487	 0.065222
C	-0.0461366542	 0.0185153065	 0.0007344622	-0.046333
C	-0.5690166458	-0.8617159804	 1.1707112501	-0.231757
C	 0.6005217125	-0.9050950867	 2.2296048398	-0.30203
H	-0.5222082317	 1.9598884995	 1.0067707329	 0.100675
H	-0.6370565712	 2.0902153305	-0.7754201734	 0.096726
H	 1.8381923873	 2.0479642131	-0.9508383342	 0.065812
H	 3.2514650335	 2.6732068251	 0.8807167522	 0.101505
H	 1.7674114086	 3.1824515888	 1.662722696	 0.098681
H	 3.4867918009	 0.9178593554	 2.4562644456	 0.106075
H	 1.9948556977	 1.3978516879	 3.2347067621	 0.099942
H	-0.3162471634	-0.3615715741	-0.988191803	 0.065811
H	-1.4916417495	-0.4624319681	 1.6062540215	 0.098681
H	-0.8081604657	-1.8669526397	 0.8103566164	 0.101503
H	 0.9381349675	-1.93266293	 2.4119584695	 0.106076
H	 0.2827754657	-0.5171168268	 3.2050373939	 0.099941
95.8347	107.1063	294.4192	321.2684	337.8124	505.2751	614.6865	647.6544	660.7453	700.1239	756.1102	774.5597	801.0308	814.6353	866.9177	899.699	913.2748	927.8147	950.0099	994.2845	1020.3861	1053.9721	1065.5895	1095.9162	1110.4492	1160.1293	1167.7243	1182.2449	1194.2735	1219.8853	1240.8251	1253.7629	1264.2635	1277.0454	1277.9305	1310.555	1317.7844	1342.0497	1353.1221	1461.817	1476.7217	1479.5659	1493.2483	1500.3889	1685.9862	3020.1842	3024.0235	3037.2384	3041.1734	3041.857	3047.3761	3048.9592	3063.0868	3066.288	3086.4238	3086.9542	3108.88
C1C2CCC3=C2C1CC3	C1[C@H]2CC[C]3[C]2[C@H]1CC3	
InChI=1S/C9H12/c1-3-7-5-8-4-2-6(1)9(7)8/h7-8H,1-5H2	InChI=1S/C9H12/c1-3-7-5-8-4-2-6(1)9(7)8/h7-8H,1-5H2/t7-,8+
