19
gdb 45467	3.31078	1.36891	1.06161	3.7242	82.31	-0.2333	-0.0467	0.1865	1138.8154	0.161805	-385.917376	-385.909945	-385.909001	-385.94935	29.602	
O	 0.0014242086	-0.1036565446	 0.0098498642	-0.331076
C	-0.0036242733	 1.111132271	 0.0228469586	 0.363744
C	-1.2925863587	 1.9190821813	 0.1381189675	-0.328376
C	-1.2798405144	 3.2230847063	-0.6739705065	-0.029938
C	-2.0081461083	 4.4155959046	 0.012677089	-0.232094
C	-0.6395504296	 4.9136272855	 0.5538919036	-0.23655
C	 0.0548896342	 4.0075587355	-0.5204113368	-0.022085
C	 1.2741146379	 3.2209502865	-0.1832207378	-0.065689
C	 1.2520055659	 1.8966338555	 0.021165263	-0.15661
H	-2.1343476636	 1.2763918446	-0.131311079	 0.121871
H	-1.400754335	 2.1496316226	 1.2078314171	 0.119951
H	-1.5702948913	 3.0151164433	-1.7072369891	 0.077129
H	-2.4332594419	 5.1093705574	-0.717555333	 0.104539
H	-2.7786035947	 4.1666893104	 0.74681391	 0.102038
H	-0.4339784021	 5.9849664431	 0.5096184783	 0.103885
H	-0.4397469062	 4.5615515636	 1.5690917353	 0.109813
H	 0.2506496701	 4.6084860415	-1.4159188704	 0.088198
H	 2.2209756773	 3.7578860651	-0.1417596809	 0.104206
H	 2.1598312852	 1.3277218371	 0.1972543271	 0.107044
89.9334	151.5152	222.9169	307.9094	384.3733	442.2543	456.0353	506.2035	628.8971	643.0673	712.6663	758.1955	783.0577	835.9057	869.1453	914.7835	941.113	953.9939	976.8333	1019.2544	1031.9213	1070.6056	1079.4823	1118.568	1145.8176	1195.2414	1230.3916	1248.6265	1251.2958	1258.2651	1267.5156	1284.4379	1313.8307	1353.1377	1371.222	1409.847	1465.1444	1484.4782	1500.0488	1675.8857	1778.4408	3012.2409	3035.1527	3056.0255	3065.4341	3069.294	3101.6052	3106.0766	3125.5143	3135.3299	3185.3351
O=C1CC2CCC2C=C1	O=C1C[C@H]2CC[C@H]2C=C1	
InChI=1S/C8H10O/c9-8-4-3-6-1-2-7(6)5-8/h3-4,6-7H,1-2,5H2	InChI=1S/C8H10O/c9-8-4-3-6-1-2-7(6)5-8/h3-4,6-7H,1-2,5H2/t6-,7+/m0/s1
