20
gdb 42070	2.05791	1.91517	1.14443	2.0242	81.66	-0.249	-0.0021	0.247	1105.5753	0.173128	-403.143824	-403.135761	-403.134816	-403.176214	31.66	
C	-0.1083352246	 1.501765246	 0.0350731614	-0.184948
C	 1.2844277993	 2.1741664457	 0.0170540712	-0.248214
C	 2.1475230156	 1.8210239946	 1.1963957537	-0.024014
C	 3.1188202343	 0.9058790901	 1.2383764785	-0.055797
C	 3.5389291961	 0.0109309228	 0.0969304837	-0.140408
O	 2.5394547201	-1.0049147198	-0.1630848715	-0.229616
C	 1.7673723829	-0.8173367597	-1.2789862583	 0.094177
N	 0.5622152749	-0.4508154496	-1.2963201283	-0.208329
C	-0.0662595082	-0.035029422	-0.0467864084	-0.154895
H	-0.6439039863	 1.7795059896	 0.9509832691	 0.096491
H	-0.6875613572	 1.8907621582	-0.809672828	 0.108573
H	 1.7839254741	 1.912698715	-0.9216057621	 0.108259
H	 1.1352944751	 3.2604176277	-0.0012597561	 0.102063
H	 1.9212073018	 2.3583340151	 2.1167328425	 0.091179
H	 3.6359456066	 0.7392256075	 2.1798195657	 0.092698
H	 3.7234059033	 0.5813461396	-0.8216912207	 0.114081
H	 4.4602314148	-0.5200507354	 0.3506268493	 0.116245
H	 2.274028224	-1.0595426712	-2.2177400599	 0.10645
H	 0.4477290679	-0.4372078506	 0.8332401028	 0.113521
H	-1.0948517247	-0.4103213134	-0.0491255848	 0.102484
105.9617	167.7708	206.9453	239.263	296.8724	343.7948	380.8119	402.8732	530.3029	591.1331	610.7636	684.3429	753.9817	804.3321	847.4383	886.9825	915.3871	948.4269	974.1294	993.7896	1011.4123	1021.3262	1063.5719	1084.666	1114.2636	1118.1844	1211.0901	1233.5587	1283.6816	1293.2625	1297.3158	1339.9288	1369.1567	1379.2847	1384.2552	1407.9209	1428.2171	1474.233	1494.0157	1501.5089	1507.1384	1714.6938	1731.9392	3028.3117	3028.6128	3033.4869	3039.3734	3071.1175	3080.3886	3086.958	3090.6471	3091.2545	3130.5389	3163.9583
C1CC=CCOC=NC1	C1CC=CCOC=NC1	
InChI=1S/C7H11NO/c1-2-4-6-9-7-8-5-3-1/h2,4,7H,1,3,5-6H2/b4-2-,8-7-	InChI=1S/C7H11NO/c1-2-4-6-9-7-8-5-3-1/h2,4,7H,1,3,5-6H2/b4-2-,8-7-
