18
gdb 41100	3.04463	1.94138	1.81006	0.95	74.1	-0.2073	0.046	0.2533	858.7526	0.14918	-401.822944	-401.81646	-401.815516	-401.853292	27.536	
C	 0.0162218862	 1.4472642989	 0.0885897409	-0.174104
C	 1.547900621	 1.4511692716	-0.0890193401	 0.012305
O	 1.9365796866	 1.2981939843	-1.4924380155	-0.345959
C	 1.6032202624	-0.1115163588	-1.4008860675	 0.357234
C	 2.7384791615	-1.1630556832	-1.3016721764	-0.308795
C	 2.4372576919	-1.2500201082	 0.2524135087	-0.357264
C	 1.4444781615	-0.0790526896	 0.0919750402	 0.261293
N	-0.0961110357	-0.0573827729	-0.0237506955	-0.212947
C	 0.0907212069	-0.4201847727	-1.4949310692	-0.24016
H	-0.2627247526	 1.7423213317	 1.1056001948	 0.113278
H	-0.5723890722	 2.0110854756	-0.6404063028	 0.109107
H	 2.1641961587	 2.1799776135	 0.4417643674	 0.081691
H	 2.6124836654	-2.0869712576	-1.8711297263	 0.108758
H	 3.7123039172	-0.7284453195	-1.534034772	 0.124071
H	 1.9329005681	-2.1733455574	 0.547631511	 0.128819
H	 3.2819316841	-1.0883577817	 0.9255296006	 0.118132
H	-0.5073138498	 0.167226787	-2.1969946089	 0.113187
H	-0.1211142609	-1.483955781	-1.6376554594	 0.111354
189.6136	273.0848	300.1306	381.6255	436.3973	491.9062	581.5043	665.8085	701.1739	715.9937	796.0088	808.5083	818.8274	852.05	877.6385	897.233	933.5897	956.4749	975.5977	988.108	1046.1622	1114.0362	1136.5164	1161.8761	1183.3891	1187.7957	1203.2577	1213.5934	1236.15	1251.6614	1256.4893	1269.7304	1290.2903	1311.264	1322.9523	1456.2	1464.3412	1470.9734	1481.3858	3041.0399	3048.0553	3066.1633	3070.2879	3088.0271	3105.5105	3109.6024	3117.6732	3136.5672
C1C2OC34CCC23N1C4	C1[C@@H]2O[C@@]34CC[C@@]23N1C4	
InChI=1S/C7H9NO/c1-2-7-5-3-8(7)4-6(1,7)9-5/h5H,1-4H2	InChI=1S/C7H9NO/c1-2-7-5-3-8(7)4-6(1,7)9-5/h5H,1-4H2/t5-,6+,7+/m0/s1
