19
gdb 113512	3.53005	1.0189	0.91748	3.43	79.18	-0.2445	0.0155	0.26	1344.2358	0.158664	-419.171021	-419.162185	-419.161241	-419.204829	32.737	
C	-0.2856041774	 1.5279954417	 0.237517746	-0.378597
C	 0.2580505714	 0.1418744993	-0.0948866449	-0.122156
N	 0.8191695828	-0.4854910205	 1.1012092315	-0.1128
C	-0.086566123	-1.2746892188	 1.9277688672	-0.310685
C	 0.9592870247	-1.9239674474	 1.0960361688	 0.203933
C	 0.8189110661	-2.9382021962	-0.0439146504	-0.155535
O	 2.0034427541	-3.6274866074	 0.462715336	-0.266856
C	 2.1749576706	-2.7079415331	 1.4895796023	 0.391769
N	 3.0394782521	-2.6355307328	 2.3912081764	-0.550632
H	 0.5014415102	 2.1549629118	 0.6647402753	 0.136011
H	-0.6717955361	 2.0145392854	-0.6630689879	 0.116215
H	-1.1010499123	 1.4647233394	 0.9651508465	 0.121462
H	-0.5388170286	-0.4743229756	-0.5491794852	 0.082925
H	 1.0634789153	 0.2222098148	-0.8339687995	 0.112596
H	 0.0539707578	-1.1938201354	 3.001600527	 0.140449
H	-1.1181515828	-1.3948992279	 1.5947058161	 0.112308
H	-0.0559282887	-3.5926990113	-0.0228606835	 0.124352
H	 0.988900369	-2.5572463498	-1.0546746801	 0.124675
H	 3.7213703049	-3.392195046	 2.3208800084	 0.230567
82.4558	111.8964	144.1697	170.1232	237.2659	257.7111	303.5357	390.8801	428.7616	535.702	621.5697	675.8966	765.3743	803.8215	820.496	857.1881	887.0919	913.2241	963.0198	979.081	994.3658	1060.8049	1069.5621	1105.4429	1116.6528	1140.5515	1151.2492	1185.5821	1210.1299	1245.9159	1310.1993	1326.3291	1388.0518	1412.2269	1438.735	1487.9834	1489.134	1504.3606	1511.6261	1516.8627	1833.2625	2938.4909	3042.3304	3053.9724	3057.1424	3083.1285	3111.9622	3113.9395	3125.0484	3187.3608	3483.8021
CCN1CC11COC1=N	CCN1C[C@]21CO[C]2[NH]	
InChI=1S/C6H10N2O/c1-2-8-3-6(8)4-9-5(6)7/h7H,2-4H2,1H3	InChI=1S/C6H10N2O/c1-2-8-3-6(8)4-9-5(6)7/h7H,2-4H2,1H3/t6-,8?/m0/s1
