16
gdb 29138	2.99895	1.44056	0.98491	2.9514	77.03	-0.2393	-0.0708	0.1685	1167.8762	0.12335	-437.948657	-437.940283	-437.939339	-437.981666	30.759	
C	 0.114200763	 1.5190597248	 0.0164531967	-0.469807
C	 0.0259481331	 0.0222518208	-0.0243986915	 0.235852
C	-0.1286601637	-0.674094461	-1.1668580878	-0.000818
O	-0.2067320651	-2.024904518	-1.1866687525	-0.198262
C	-0.1293930393	-2.7508867122	-0.0147860349	 0.379474
O	-0.2014038754	-3.9499101659	-0.057312147	-0.326694
C	 0.0403422552	-1.9340895894	 1.2087516951	 0.17348
C	 0.1284456401	-2.6898647777	 2.4982981842	-0.462284
N	 0.1110860004	-0.6435471442	 1.1892755293	-0.320153
H	 1.0630927975	 1.8362936066	 0.4614339604	 0.142
H	 0.0383309931	 1.9519875515	-0.9841542224	 0.124321
H	-0.6868205657	 1.9347387665	 0.6366471022	 0.141992
H	-0.2046617036	-0.2462243347	-2.1586512396	 0.14168
H	 0.9677731993	-3.3932257939	 2.4733476992	 0.150195
H	 0.251530198	-1.9926873111	 3.327335896	 0.138821
H	-0.7714527969	-3.2957644421	 2.6492851125	 0.150203
91.7365	145.4102	161.2477	207.152	265.6751	323.4804	334.3674	416.6337	475.1208	521.8042	582.0739	586.7982	653.1146	787.9516	797.9501	865.3351	953.8779	987.919	1046.5801	1046.8682	1050.4239	1068.9493	1206.7555	1289.7378	1295.6603	1370.9799	1404.771	1420.1503	1463.8585	1467.268	1472.4786	1491.3657	1609.1915	1683.6996	1827.9014	3038.4624	3042.5796	3095.6384	3096.7578	3124.2995	3156.0728	3216.1817
CC1=COC(=O)C(C)=N1	Cc1coc(=O)c(C)n1	
InChI=1S/C6H7NO2/c1-4-3-9-6(8)5(2)7-4/h3H,1-2H3	InChI=1S/C6H7NO2/c1-4-3-9-6(8)5(2)7-4/h3H,1-2H3
