21
gdb 119408	3.94114	0.96706	0.92094	1.6628	78.48	-0.2359	0.0825	0.3185	1352.1305	0.183277	-424.202474	-424.193892	-424.192947	-424.236123	33.077	
O	-0.066230724	 1.424447662	-0.0523332788	-0.421593
C	 0.0171022175	 0.0081388232	 0.0312183792	-0.077391
C	-1.4016298075	-0.5397781812	-0.0880107605	-0.295367
C	-1.4732770126	-2.038142478	 0.035538192	 0.457827
C	-1.0960625776	-2.8621485095	 1.302397188	-0.2693
C	-1.8208367723	-3.9810179922	 0.4932032167	-0.077153
C	-2.7896933624	-2.8610242133	 0.0026855919	-0.275807
C	-0.8897551088	-4.0775321341	-0.7203916502	-0.073588
O	-0.6814667156	-2.675257554	-0.9961567541	-0.320443
H	 0.8284646507	 1.7761995301	-0.053471617	 0.284358
H	 0.6388154968	-0.4105825299	-0.7714221923	 0.108556
H	 0.4593692982	-0.3067602765	 0.9905291372	 0.082604
H	-2.0253522085	-0.0840901874	 0.6889320101	 0.105288
H	-1.8170462516	-0.2363082812	-1.0558419479	 0.113667
H	-0.0330241878	-2.9880319525	 1.5239307416	 0.095318
H	-1.6479654985	-2.5582040789	 2.1936371727	 0.100251
H	-2.1675046227	-4.9099121319	 0.944052349	 0.071469
H	-3.5078781773	-2.5566274848	 0.766074411	 0.099572
H	-3.2759528614	-2.9806278717	-0.9690937598	 0.096939
H	 0.0673689067	-4.5659920758	-0.5005505648	 0.096549
H	-1.3490246415	-4.5682478823	-1.5869808141	 0.098244
76.08	82.1189	129.3144	258.2311	292.6134	334.9843	343.7638	389.6375	490.0492	516.7024	645.5525	716.8017	787.558	831.767	858.8028	879.4801	910.8239	931.6442	957.5737	970.3781	989.9568	1014.6393	1034.3227	1060.6551	1078.4954	1097.0739	1114.9911	1147.0003	1175.6382	1188.7659	1208.8671	1241.2213	1243.4227	1262.289	1294.0084	1301.7404	1317.1681	1358.6121	1387.1669	1459.6951	1473.8162	1478.1331	1506.912	1528.8905	1532.9888	2968.3615	3018.4307	3027.6508	3041.2136	3057.0956	3061.0851	3066.7078	3086.1538	3126.9837	3127.8401	3134.8947	3832.3358
OCCC12CC(C1)CO2	OCC[C@@]12C[C@@H](C1)CO2	
InChI=1S/C7H12O2/c8-2-1-7-3-6(4-7)5-9-7/h6,8H,1-5H2	InChI=1S/C7H12O2/c8-2-1-7-3-6(4-7)5-9-7/h6,8H,1-5H2/t6-,7+
