22
gdb 103744	2.59456	1.10619	0.8927	4.1047	79.59	-0.2321	0.0643	0.2964	1380.6523	0.190965	-441.447695	-441.43642	-441.435476	-441.484217	40.411	
C	-0.0587385018	 1.5453116123	-0.0287614963	-0.453975
C	-0.0955849903	 0.0300871924	 0.0973534436	 0.28505
C	-1.334127862	-0.5556301733	-0.5568435837	-0.161028
O	-1.2742680367	-0.2473660479	-1.9466167979	-0.415968
N	 1.1996923696	-0.6525788239	-0.0956449727	-0.39031
C	 0.584893951	-0.6611527835	 1.2470887945	 0.284783
C	 1.3236637213	 0.1409293092	 2.3072506065	-0.45377
C	 0.0620794837	-1.9740039776	 1.8022049118	-0.160772
O	 1.1864626827	-2.7464651064	 2.2134092929	-0.416
H	 0.9192150953	 1.946015545	 0.2343931746	 0.126651
H	-0.2751432634	 1.8259995461	-1.062333803	 0.139508
H	-0.8139170248	 2.0092899783	 0.6166471996	 0.104287
H	-1.3915319543	-1.6418978904	-0.4155319783	 0.080647
H	-2.2314748954	-0.1126732209	-0.0945751472	 0.088424
H	-2.1084140268	-0.5099561726	-2.346378636	 0.287966
H	 1.0641378131	-1.5509184306	-0.5555466115	 0.227182
H	 1.882992188	 0.9661549452	 1.8686827012	 0.126521
H	 0.6243257912	 0.5452228523	 3.0486100023	 0.104258
H	 2.029770942	-0.5119944434	 2.8258678045	 0.139592
H	-0.6049411414	-1.7665124422	 2.6549656564	 0.088386
H	-0.5196859486	-2.5267242232	 1.0543446781	 0.080601
H	 0.8606767377	-3.5269627847	 2.6708507205	 0.287967
59.6258	67.6386	124.3997	146.0359	153.6136	191.7578	241.1175	244.867	293.5723	307.1234	351.2374	377.3755	385.934	408.7935	510.7045	633.7774	693.2511	737.8773	854.0072	921.4114	951.7954	955.7692	1033.47	1037.6155	1057.4484	1058.2638	1067.278	1100.6091	1129.1705	1161.8721	1234.2195	1238.7824	1263.0676	1267.2686	1300.7693	1327.3173	1404.1348	1410.2086	1428.5002	1445.8532	1471.4123	1474.169	1495.2754	1495.5382	1505.059	1517.0397	1519.7397	2966.4302	2970.9306	3017.9847	3037.5535	3041.6469	3046.2241	3112.7232	3114.9881	3148.6413	3161.9142	3485.4013	3831.8504	3832.0956
CC1(CO)NC1(C)CO	C[C@@]1(CO)N[C@]1(C)CO	
InChI=1S/C6H13NO2/c1-5(3-8)6(2,4-9)7-5/h7-9H,3-4H2,1-2H3	InChI=1S/C6H13NO2/c1-5(3-8)6(2,4-9)7-5/h7-9H,3-4H2,1-2H3/t5-,6+
