15
gdb 24013	4.12017	1.2556	1.04673	3.802	78.51	-0.2202	0.0098	0.2301	1106.1531	0.114143	-379.631517	-379.62422	-379.623276	-379.663681	27.631	
C	-0.5386729714	-1.3377422685	-0.0738490399	-0.42818
C	-0.2708523116	-0.1677593238	-0.0220470114	 0.339518
C	 0.0317344436	 1.2471345548	 0.0423821513	-0.173687
C	-0.1733298075	 1.9872636965	 1.434870662	-0.397916
C	 1.3152891767	 2.2863293257	 1.3550706838	 0.292406
C	 2.5447943789	 2.8061466895	 1.6681192644	-0.221603
N	 3.4354171762	 2.4302319377	 0.6792379287	-0.260631
C	 2.7730394134	 1.7163889196	-0.2129175615	-0.027596
N	 1.4737759956	 1.6077546357	 0.1821215128	 0.010672
H	-0.7700078959	-2.3736513223	-0.1191734963	 0.211477
H	-0.4324382185	 1.7809544863	-0.7923070432	 0.134602
H	-0.8490255576	 2.8437959743	 1.3850211599	 0.133597
H	-0.4875289806	 1.3183085257	 2.2379118684	 0.13982
H	 2.8609118153	 3.4048923773	 2.5069287694	 0.11035
H	 3.1823705036	 1.2701355515	-1.1047852585	 0.137173
68.1386	134.5589	202.4957	262.2653	384.9445	484.6547	546.5739	635.0095	655.5554	663.8021	674.2598	734.3756	756.7325	783.9779	827.183	858.8062	955.9352	1002.4934	1038.4766	1092.0817	1114.5115	1118.9928	1189.4786	1228.6061	1232.9759	1272.9866	1340.8752	1378.4195	1388.5709	1465.2185	1490.7042	1570.0468	2242.2492	3065.3644	3076.3816	3130.0357	3263.7994	3270.1479	3501.3115
C#CC1CC2=CN=CN12	C#C[C@H]1Cc2cncn12	
InChI=1S/C7H6N2/c1-2-6-3-7-4-8-5-9(6)7/h1,4-6H,3H2	InChI=1S/C7H6N2/c1-2-6-3-7-4-8-5-9(6)7/h1,4-6H,3H2/t6-/m0/s1
