19
gdb 6401	4.33627	1.04047	1.0357	5.1864	68.72	-0.2437	0.0204	0.2642	1227.5663	0.164413	-402.22688	-402.217699	-402.216755	-402.261246	32.629	
C	-0.1108972443	 1.5390975403	 0.2183451014	-0.396012
C	-0.0610437353	 0.0220556805	 0.0463782514	-0.116885
N	-1.361842779	-0.5673413164	-0.2990591467	-0.092966
H	-3.012391995	-0.7310730014	 0.7159023443	 0.295417
C	-1.8358677858	-0.1699058852	-1.6269051087	-0.338624
C	-1.3973285514	-2.0219626776	-0.14816476	-0.298407
C	-2.7968840522	-2.5129356807	 0.2567340805	 0.41016
O	-3.5625787487	-1.5424253682	 0.7795846233	-0.361134
O	-3.1552963605	-3.6532345532	 0.1513969877	-0.331419
H	 0.8515223965	 1.8987941634	 0.5939699634	 0.125108
H	-0.3075446812	 2.0598851913	-0.7226701046	 0.126103
H	-0.8876460248	 1.8206089769	 0.9358341725	 0.126202
H	 0.7038971491	-0.2431002547	-0.7057268477	 0.09182
H	 0.2560745978	-0.430327888	 0.9917385175	 0.110689
H	-1.1456670243	-0.4877041907	-2.4271839215	 0.111937
H	-2.8123960663	-0.623235174	-1.8171859327	 0.142344
H	-1.955926255	 0.913601211	-1.681963635	 0.132028
H	-1.0841589001	-2.5721386727	-1.0467061283	 0.126661
H	-0.7202004194	-2.3180066606	 0.6602211932	 0.136978
58.7269	90.8222	99.7685	178.1123	217.3066	266.0354	304.0495	368.7928	398.9608	407.6668	540.4266	582.6771	643.9435	808.9048	840.0464	858.1216	874.8761	958.6135	1013.3137	1063.9783	1075.684	1121.3353	1163.3041	1180.292	1216.9509	1253.0784	1294.8244	1337.8184	1350.7613	1398.9856	1415.0318	1419.8218	1458.2924	1473.4447	1488.3488	1491.424	1501.9021	1508.334	1515.9565	1880.2084	2944.6588	2965.4935	3012.4601	3044.9962	3062.4086	3078.4132	3088.9186	3116.6204	3119.0266	3133.1079	3482.1077
CC[NH+](C)CC([O-])=O	CCN(C)CC(=O)O	
InChI=1S/C5H11NO2/c1-3-6(2)4-5(7)8/h3-4H2,1-2H3,(H,7,8)	InChI=1S/C5H11NO2/c1-3-6(2)4-5(7)8/h3-4H2,1-2H3,(H,7,8)
