18
gdb 48917	3.05767	1.48885	1.27853	2.2857	76.23	-0.225	-0.0362	0.1888	1031.1054	0.149167	-401.895223	-401.88794	-401.886996	-401.927257	28.315	
O	-0.0104689572	-0.1067268299	 0.0274614116	-0.246899
C	 0.0087875337	 1.1001122669	 0.0090931572	 0.021412
C	 1.2587084918	 1.9133927645	 0.0034239627	 0.218297
C	 2.7156705135	 1.4501078101	 0.0183839209	-0.216214
N	 2.8864742047	 2.97454618	-0.0042515563	-0.167051
C	 1.720089642	 3.0061523376	-1.0206034119	-0.014591
C	 0.9867551016	 4.3216768746	-0.8116022703	-0.243685
C	 0.9784654929	 4.3456039972	 0.740859014	-0.243684
C	 1.709316211	 3.0372698245	 0.9981254712	-0.0146
H	-0.9396191405	 1.6881207725	-0.0051904964	 0.06813
H	 3.0961813343	 0.9808615725	 0.9287405274	 0.109007
H	 3.1058231912	 0.9530264808	-0.8729161398	 0.109007
H	 1.9873419073	 2.6999865691	-2.0337073891	 0.084029
H	 1.5450094511	 5.156250081	-1.2442372397	 0.11889
H	-0.0130532287	 4.318108127	-1.2544989856	 0.107519
H	 1.5321926361	 5.1932109774	 1.1535090796	 0.118888
H	-0.02601591	 4.3555021661	 1.1729527036	 0.107517
H	 1.9656905354	 2.7625235481	 2.0229812208	 0.084027
77.8258	144.3905	204.7112	298.6223	321.4776	459.3775	487.8248	633.7721	694.2493	729.5968	755.5233	823.1808	832.9065	879.739	916.7677	940.912	971.6303	983.4767	1001.7213	1040.022	1047.1054	1071.1682	1118.3065	1125.6778	1130.5871	1162.6317	1204.2636	1249.9592	1258.6903	1278.5271	1295.9319	1310.1286	1322.2322	1370.6932	1426.6355	1478.9256	1499.7124	1531.5128	1811.8923	2846.0797	3058.3256	3062.2645	3066.0816	3097.0717	3104.3249	3109.4825	3114.6077	3126.0091
O=CC12CN3C1CCC23	O=C[C@@]12CN3[C@@H]1CC[C@@H]23	
InChI=1S/C7H9NO/c9-4-7-3-8-5(7)1-2-6(7)8/h4-6H,1-3H2	InChI=1S/C7H9NO/c9-4-7-3-8-5(7)1-2-6(7)8/h4-6H,1-3H2/t5-,6+,7+
