18
gdb 126661	6.36721	0.67998	0.62545	5.0535	75.49	-0.2337	-0.0305	0.2032	1755.4057	0.147699	-435.226033	-435.217065	-435.216121	-435.261159	31.664	
C	 0.0361475275	 1.5245616447	 0.1285853033	-0.383356
C	-0.1041322847	 0.0167274718	-0.0902635618	-0.191617
C	 0.8034537223	-0.4992326118	-1.2060303845	-0.127087
N	 0.6248706487	-1.9358291585	-1.3885639961	-0.392971
C	 1.3075228239	-2.6030852342	-2.3721684971	 0.404365
N	 1.5773188465	-3.8873593086	-2.3126897995	-0.20137
O	 2.2015213637	-4.1852358003	-3.5074156763	-0.152003
N	 2.3291005691	-3.0844422417	-4.2893916139	-0.061777
C	 1.7926648644	-2.1022949408	-3.6224822018	-0.095356
H	 1.0630702741	 1.7950070689	 0.3966585832	 0.122202
H	-0.2301798197	 2.0836729513	-0.7748823243	 0.121644
H	-0.6188134324	 1.8655494398	 0.9350097826	 0.123876
H	 0.1384688529	-0.5137108875	 0.8405716264	 0.102915
H	-1.1416602441	-0.2393169989	-0.3333387976	 0.117079
H	 0.5431807888	 0.0035590408	-2.1452731907	 0.116648
H	 1.8517073019	-0.2400082175	-0.9836136836	 0.10482
H	 0.5529149763	-2.4656551765	-0.5305739233	 0.251105
H	 1.7644080506	-1.104470901	-4.0294638451	 0.140884
50.1926	57.775	100.1151	141.058	230.057	274.1018	328.271	342.8302	458.9936	609.1242	621.7632	728.2651	759.8741	765.1509	863.4628	898.3523	916.0134	917.8754	931.1752	1021.7998	1041.4902	1060.1318	1100.438	1153.3268	1181.6662	1236.0734	1268.7351	1317.4655	1329.6861	1387.3147	1414.7152	1433.7514	1491.503	1496.9393	1499.496	1505.4748	1509.132	1525.001	1648.1197	2967.5875	3018.0693	3035.6563	3045.5491	3068.5678	3102.854	3113.6363	3274.7751	3588.8812
CCCNC1=NON=C1	CCCNc1nonc1	
InChI=1S/C5H9N3O/c1-2-3-6-5-4-7-9-8-5/h4H,2-3H2,1H3,(H,6,8)	InChI=1S/C5H9N3O/c1-2-3-6-5-4-7-9-8-5/h4H,2-3H2,1H3,(H,6,8)
