16
gdb 51039	2.15655	1.41818	1.00311	4.9823	72.25	-0.2432	-0.0008	0.2425	1187.2306	0.122099	-437.834092	-437.825214	-437.82427	-437.868153	31.897	
O	 0.0343625718	-0.0185524448	 0.0716823309	-0.269703
C	 0.015908274	 1.1748106737	 0.0874616781	 0.162788
O	 1.13436394	 1.9118526551	-0.093635086	-0.227957
C	 1.0037392854	 3.3445922449	-0.024669386	 0.215546
C	 0.854766006	 3.8749754696	 1.4375652553	-0.214397
N	 2.3185705302	 4.0631541586	 1.4995796248	-0.312528
C	 2.4344546963	 3.9486536759	 0.0290344408	-0.204485
C	 0.087549289	 3.8527825072	-1.0290656765	 0.297077
C	-0.6684533217	 4.2852699465	-1.8574425995	-0.459068
H	-0.8915243233	 1.7857087567	 0.2407676927	 0.092753
H	 0.2569883613	 4.7942157311	 1.4702233595	 0.112473
H	 0.4551466705	 3.15655625	 2.1611845548	 0.122439
H	 2.6211979336	 4.9480435628	 1.8879941298	 0.228159
H	 3.2201164988	 3.2716291691	-0.3173846459	 0.134594
H	 2.4924390095	 4.8978933242	-0.5164018092	 0.111411
H	-1.3358429513	 4.6614736995	-2.5937477436	 0.210899
78.8015	111.2191	134.5359	163.0014	176.6622	238.487	370.8494	404.1329	511.6256	520.2409	543.4964	644.1648	659.4059	678.162	742.088	914.4303	926.6797	939.1805	1009.9484	1035.8974	1043.082	1071.7781	1122.4146	1129.5333	1160.4243	1207.6825	1250.7339	1271.7416	1359.5042	1380.1241	1436.0739	1491.0701	1514.4761	1866.2502	2235.8565	2981.5318	3019.2902	3032.0361	3073.986	3096.1948	3497.6174	3550.9142
O=COC1(CNC1)C#C	O=COC1(CNC1)C#C	
InChI=1S/C6H7NO2/c1-2-6(9-5-8)3-7-4-6/h1,5,7H,3-4H2	InChI=1S/C6H7NO2/c1-2-6(9-5-8)3-7-4-6/h1,5,7H,3-4H2
