15
gdb 61117	2.54504	1.22598	1.05611	2.9096	73.86	-0.257	-0.043	0.214	1172.8716	0.106382	-420.55169	-420.541535	-420.54059	-420.586945	35.89	
O	-0.054656335	 1.445120649	 0.1128597765	-0.440799
C	 0.004871666	 0.0360267104	-0.0263718271	 0.069153
C	 0.590422974	-0.6789111697	 1.2227878033	-0.393517
C	-0.0148217243	-0.2303249397	 2.468195457	 0.325821
C	-0.5080539493	 0.1369225809	 3.4998123449	-0.454681
C	-1.4670284489	-0.3931122609	-0.2505603245	 0.163472
O	-1.8993430365	-1.473333824	 0.0330750164	-0.238526
C	 0.7536141511	-0.3503261742	-1.2267692662	 0.309433
C	 1.3723128824	-0.6499979514	-2.2131627912	-0.451725
H	 0.8385926462	 1.796954575	 0.0340365672	 0.293653
H	 0.4302813574	-1.7537540324	 1.0865497639	 0.163662
H	 1.6734642093	-0.5114958695	 1.2416751569	 0.132597
H	-0.9491078083	 0.457085882	 4.4110912422	 0.199439
H	-2.0732694241	 0.4090779547	-0.7184944477	 0.11108
H	 1.9143627601	-0.9176542703	-3.0871520016	 0.21094
62.6921	86.3705	110.4552	154.0472	178.6596	226.3009	247.2741	340.4608	346.3933	357.623	477.4933	483.3526	546.9542	618.6872	625.3333	650.1027	655.3947	672.3412	788.1412	902.6944	928.4368	982.3358	1036.6356	1118.8485	1134.3237	1229.4984	1327.076	1359.3547	1391.2737	1454.1969	1849.3725	2226.1253	2245.0208	2936.0445	3040.402	3085.5639	3497.2861	3506.5629	3817.1807
OC(CC#C)(C=O)C#C	O[C@@](CC#C)(C=O)C#C	
InChI=1S/C7H6O2/c1-3-5-7(9,4-2)6-8/h1-2,6,9H,5H2	InChI=1S/C7H6O2/c1-3-5-7(9,4-2)6-8/h1-2,6,9H,5H2/t7-/m0/s1
