20
gdb 10518	2.7443	1.44506	1.10091	1.4777	71.72	-0.2597	0.075	0.3347	1165.0133	0.174643	-386.111341	-386.101813	-386.100869	-386.146435	33.455	
C	 0.8105041924	 0.8085856795	 0.5122478373	-0.385641
C	 0.1167698853	-0.3131885573	-0.2709772851	-0.254595
C	-1.3307563402	-0.5186090762	 0.1313943181	 0.410134
C	-2.3019183009	 0.5978639959	-0.19880036	-0.126495
O	-2.3068678077	 0.7865550388	-1.5977111739	-0.236233
C	-3.1394654855	 1.8466161266	-2.0042243698	-0.222399
C	-1.8671565992	-1.8749913651	 0.3064861864	-0.227397
O	-1.5381026037	-1.0668270847	 1.441837181	-0.287015
H	 1.8682696753	 0.870861479	 0.2404211024	 0.113453
H	 0.3623352977	 1.7861447429	 0.3083557221	 0.117875
H	 0.7461822467	 0.6233247091	 1.5887015017	 0.13163
H	 0.1440366501	-0.0994615365	-1.3448808693	 0.118843
H	 0.6556697989	-1.2532705765	-0.1125763083	 0.098554
H	-3.303397369	 0.3311276973	 0.1739290086	 0.093586
H	-2.0013850334	 1.5266287345	 0.3146018483	 0.093258
H	-3.0684598125	 1.9202827919	-3.092022929	 0.12836
H	-4.1906535774	 1.6693123328	-1.7272083934	 0.105907
H	-2.8261574309	 2.8048281942	-1.5601841021	 0.105566
H	-2.9299603311	-2.0625155829	 0.1583278273	 0.110515
H	-1.217600025	-2.7336247533	 0.1430241278	 0.112092
38.7058	84.4864	101.767	164.3015	215.0319	223.3114	259.778	327.5371	377.2711	413.6786	435.1146	543.5732	728.2771	785.8838	865.9183	907.7722	939.3526	994.5631	1001.3013	1039.5519	1092.7799	1108.449	1133.0352	1158.3091	1165.9993	1183.9154	1226.7464	1233.9545	1268.3757	1316.3342	1353.3119	1402.4644	1407.3012	1440.8373	1473.2297	1481.6559	1485.632	1497.9314	1504.2031	1509.6046	1524.0753	1534.188	2960.8607	2973.9096	2998.6637	3015.5238	3041.1032	3044.466	3081.553	3083.7952	3109.3801	3115.3722	3117.1551	3168.2471
CCC1(COC)CO1	CC[C@@]1(COC)CO1	
InChI=1S/C6H12O2/c1-3-6(4-7-2)5-8-6/h3-5H2,1-2H3	InChI=1S/C6H12O2/c1-3-6(4-7-2)5-8-6/h3-5H2,1-2H3/t6-/m1/s1
