18
gdb 123430	5.17107	0.9034	0.7949	3.696	77.55	-0.2359	0.0219	0.2578	1405.9174	0.150874	-398.118167	-398.110218	-398.109274	-398.151934	29.568	
C	 0.0632613633	 1.2924657413	 0.5733374419	-0.361268
C	-0.0803767646	-0.1152464914	 0.0312905029	 0.044412
C	-1.412406324	-0.661503807	-0.3179862605	-0.254384
N	-0.4405939142	-0.3368014117	-1.3809671162	-0.313223
C	 1.3966982497	 1.9144120662	 0.2588646118	 0.214962
C	 2.1169623286	 2.8095592039	 1.0262245732	-0.137884
N	 3.2415645805	 3.1032444644	 0.3289507723	-0.177001
N	 3.3188659867	 2.456501524	-0.8477949831	-0.226074
C	 2.2017343603	 1.7360232699	-0.8941218915	-0.081283
H	-0.7549873224	 1.9046118168	 0.1646487726	 0.101512
H	-0.0873779867	 1.2801357213	 1.6602833832	 0.108617
H	 0.6790417277	-0.8104313502	 0.3843616009	 0.097215
H	-1.6207784548	-1.7205132379	-0.1959418148	 0.118547
H	-2.2770255981	-0.0145505397	-0.1893577458	 0.108462
H	-0.6963189574	 0.5514480922	-1.8076676702	 0.22819
H	 1.9164124342	 3.2466481147	 1.9922022911	 0.129612
H	 3.9918093581	 3.7162505527	 0.5984756187	 0.273794
H	 2.0088507032	 1.0981694505	-1.7443674364	 0.125794
36.2674	86.5055	125.8794	276.9163	308.498	349.0019	450.9044	514.4898	647.0999	695.1343	720.042	786.4503	792.116	829.8653	903.1476	928.58	939.3616	955.8172	983.1743	1012.964	1047.5861	1067.8175	1125.0724	1145.584	1167.2815	1178.8403	1242.7095	1253.491	1266.0259	1287.2011	1309.996	1346.9932	1387.6579	1414.2785	1430.6865	1475.5007	1495.3914	1512.2621	1610.2951	2989.9055	3041.5262	3105.7419	3127.0526	3190.5666	3248.0721	3254.9061	3484.5506	3676.9696
C(C1CN1)C1=CNN=C1	C([C@H]1CN1)c1c[nH]nc1	
InChI=1S/C6H9N3/c1(6-4-7-6)5-2-8-9-3-5/h2-3,6-7H,1,4H2,(H,8,9)	InChI=1S/C6H9N3/c1(6-4-7-6)5-2-8-9-3-5/h2-3,6-7H,1,4H2,(H,8,9)/t6-/m0/s1
