22
gdb 98194	3.00525	0.99412	0.90147	1.9725	79.4	-0.24	0.0374	0.2773	1414.3189	0.191174	-441.518724	-441.507105	-441.506161	-441.556397	40.882	
C	 0.0179206525	 1.4511740676	-0.0053504901	-0.335087
N	-0.0644672472	 0.0043362676	-0.0277920103	-0.310096
C	-1.2491286515	-0.6691373439	 0.0422653115	 0.409393
O	-2.3227955531	-0.0936046797	 0.1289975298	-0.392438
C	-1.138358581	-2.2078055946	 0.004352655	 0.116525
C	-0.493722175	-2.6683583875	-1.3203109418	-0.416644
C	-0.3159310367	-2.7178756232	 1.206782284	-0.416648
C	-2.5711825437	-2.7625618004	 0.0942880944	-0.086339
O	-2.4968661605	-4.1843015943	 0.0611996128	-0.435039
H	 0.6006394482	 1.8055763669	 0.8525904455	 0.123356
H	 0.4749829429	 1.8403364088	-0.9223502604	 0.123358
H	-1.0005258387	 1.8323660082	 0.0741945673	 0.171019
H	 0.7882717915	-0.5238513561	-0.0981377778	 0.243759
H	 0.5558848712	-2.3664543481	-1.3946708825	 0.095687
H	-0.5390783402	-3.7576487434	-1.3875449927	 0.142067
H	-1.0247044523	-2.2511791919	-2.182175133	 0.12063
H	-0.7198771177	-2.3360245841	 2.1500784896	 0.120629
H	-0.3544684191	-3.8090766646	 1.237216866	 0.142068
H	 0.7345909452	-2.4162785137	 1.1451920031	 0.095687
H	-3.0411492655	-2.4074560487	 1.0203772332	 0.099588
H	-3.1651659241	-2.3729124581	-0.7423509067	 0.099592
H	-3.392353545	-4.5277455369	 0.1174580725	 0.288932
18.9053	78.2762	105.3163	136.8502	169.705	210.55	230.6839	244.5806	270.7761	280.2089	323.2084	357.998	375.7159	379.2104	473.6802	495.3061	659.0125	769.0429	788.3997	874.0078	936.4448	967.0725	980.2155	1033.2768	1046.1575	1083.6832	1153.6951	1166.7095	1183.8342	1185.8705	1224.3234	1276.8179	1289.9064	1291.3645	1396.2676	1414.1111	1437.3529	1453.1238	1476.2686	1488.75	1495.9528	1496.4546	1501.2371	1514.0679	1516.8427	1562.5699	1759.7864	3010.4889	3024.4093	3033.6935	3038.4989	3048.2817	3074.5294	3097.4522	3100.9719	3126.5741	3129.3054	3154.9384	3659.0488	3843.8984
CNC(=O)C(C)(C)CO	CNC(=O)C(C)(C)CO	
InChI=1S/C6H13NO2/c1-6(2,4-8)5(9)7-3/h8H,4H2,1-3H3,(H,7,9)	InChI=1S/C6H13NO2/c1-6(2,4-8)5(9)7-3/h8H,4H2,1-3H3,(H,7,9)
