17
gdb 46751	2.78448	1.84794	1.41275	4.8088	70.82	-0.2394	0.0152	0.2546	933.9774	0.139313	-417.993813	-417.986919	-417.985975	-418.025155	27.404	
O	-0.018775628	-0.0516104801	-0.0720128125	-0.37088
C	-0.0095605901	 1.1573325658	-0.0091047642	 0.381731
N	-1.1194531729	 1.9664567829	 0.0372831061	-0.297471
C	-0.8988697135	 3.4070990641	 0.0516065452	-0.199716
C	 0.6394597549	 3.5197671359	 0.1373333708	-0.042566
C	 1.3189876673	 3.5942150047	 1.510207184	-0.038729
C	 0.946729296	 2.4835396935	 2.4075128028	-0.249531
N	 1.9495446408	 2.2127248142	 1.3593673666	-0.134392
C	 1.2027309413	 2.0890415739	 0.038406535	-0.090389
H	-2.0374022201	 1.5542917877	-0.0309881404	 0.25221
H	-1.2907917098	 3.8752463959	-0.8601531769	 0.113164
H	-1.3912206644	 3.8799444017	 0.9102703104	 0.114966
H	 1.0467427173	 4.2357949965	-0.5749944344	 0.092033
H	 1.9067094753	 4.4397623232	 1.8530721128	 0.100225
H	 1.3923937601	 2.4889822615	 3.3974540405	 0.127871
H	-0.0346635071	 2.0208273033	 2.362670314	 0.132169
H	 1.9083131929	 1.8610211355	-0.7597036299	 0.109305
109.3262	163.16	229.1593	344.6469	466.0976	484.6916	567.9861	598.5389	682.3087	716.9399	741.7476	765.2442	791.0275	863.2818	918.0545	945.8972	972.6831	1002.1799	1028.8954	1064.7081	1074.12	1102.4695	1121.1531	1147.1207	1197.7634	1216.1466	1233.1091	1250.6964	1264.5818	1297.1176	1319.0881	1361.8066	1372.2299	1451.2731	1504.4911	1530.8571	1827.8112	3013.0645	3046.2606	3116.5942	3122.1112	3126.0711	3161.5796	3206.3697	3630.8428
O=C1NCC2C3CN3C12	O=C1NC[C@H]2[C@H]3CN3[C@@H]12	
InChI=1S/C6H8N2O/c9-6-5-3(1-7-6)4-2-8(4)5/h3-5H,1-2H2,(H,7,9)	InChI=1S/C6H8N2O/c9-6-5-3(1-7-6)4-2-8(4)5/h3-5H,1-2H2,(H,7,9)/t3-,4+,5+,8?/m0/s1
