19
gdb 108173	2.60996	1.47251	1.25577	1.0759	75.99	-0.2216	0.0073	0.2289	1088.5987	0.158387	-423.001786	-422.993165	-422.992221	-423.03477	33.049	
C	 0.2055629853	 1.3142844635	 0.1772454749	-0.255812
O	-0.1902284941	-0.0038445819	-0.1630762143	-0.284248
C	 0.5304693979	-0.5431630813	-1.2224891568	 0.369551
C	 0.2064157163	-0.0877450295	-2.6519883874	-0.336125
C	 0.3045237259	-1.3594303454	-3.4666989428	-0.10177
C	 0.5751231294	-2.4254850158	-2.7031093125	-0.086918
C	 0.7574054411	-2.0530336107	-1.2733860979	-0.221798
C	 1.9115807326	-1.0902209347	-0.9845820224	 0.053649
O	 2.9777820517	-0.8900709984	-1.8574217195	-0.426014
H	 1.2745839955	 1.3633211349	 0.4264121282	 0.114892
H	 0.0059605728	 2.0247892214	-0.6375237488	 0.110115
H	-0.3813197556	 1.6074212774	 1.0507201001	 0.126189
H	-0.8005545629	 0.3469126107	-2.6942052218	 0.119646
H	 0.9060983772	 0.6793748775	-3.0074876288	 0.119932
H	 0.1631784973	-1.376061694	-4.5415311688	 0.100912
H	 0.6804378554	-3.442953586	-3.062368316	 0.103339
H	 0.4287221572	-2.7095333065	-0.4757603879	 0.09879
H	 2.2454831713	-1.0793567287	 0.0486784141	 0.110947
H	 2.7249938656	-1.2607552825	-2.7134717113	 0.284723
96.6113	159.5632	177.4823	201.3218	212.1862	337.19	356.9253	380.0313	415.255	519.7408	596.2681	611.0499	734.5883	764.2926	773.6012	846.0186	921.7405	937.8227	956.8373	969.3789	1005.6785	1029.6698	1052.0088	1075.9723	1129.1536	1140.4697	1169.8808	1180.1373	1194.1603	1230.0148	1251.3674	1295.6312	1307.6406	1366.3448	1372.8106	1439.374	1464.9103	1483.3657	1489.3273	1507.2259	1655.2616	2991.7442	3021.4427	3045.3159	3054.6657	3119.6767	3160.6165	3177.8755	3187.0093	3210.1453	3747.0304
COC12CC=CC1C2O	CO[C@]12CC=C[C@H]1[C@H]2O	
InChI=1S/C7H10O2/c1-9-7-4-2-3-5(7)6(7)8/h2-3,5-6,8H,4H2,1H3	InChI=1S/C7H10O2/c1-9-7-4-2-3-5(7)6(7)8/h2-3,5-6,8H,4H2,1H3/t5-,6+,7+/m0/s1
