15
gdb 29406	5.73475	0.96898	0.8332	2.2342	72.75	-0.2229	-0.0173	0.2056	1324.0888	0.113051	-454.007335	-453.99908	-453.998136	-454.04105	29.195	
C	-0.0095470207	 1.5151064283	 0.078086485	-0.490781
C	-0.0018364152	 0.0287871822	-0.0289461987	 0.257915
C	-0.0474532596	-0.7590087509	-1.1275124179	-0.123339
O	-0.0165142816	-2.0785327683	-0.7171208624	-0.150724
C	 0.0466629554	-1.9903864222	 0.6167506819	 0.52449
N	 0.093211038	-3.1407702197	 1.3792022985	-0.407685
C	 0.0849464524	-4.457982012	 0.9644183436	 0.148614
O	 0.0339629014	-4.8441251891	-0.1741243898	-0.278639
N	 0.0591802041	-0.7884457628	 1.1033011369	-0.402496
H	 0.8940372696	 1.8743546429	 0.581714289	 0.140167
H	-0.0613210723	 1.9789647786	-0.9099885266	 0.126938
H	-0.8664303814	 1.8590554505	 0.6668147172	 0.140177
H	-0.0995268654	-0.596648833	-2.1893550417	 0.147757
H	 0.1389415867	-2.9560507453	 2.3705747619	 0.27735
H	 0.1328230787	-5.1305118894	 1.8425595732	 0.090257
40.3729	139.0689	151.1271	169.5208	266.392	268.3402	387.4092	416.964	588.8852	597.8805	643.585	718.0739	720.4065	755.6026	870.0701	975.5141	1007.0312	1018.3368	1028.9005	1067.6177	1117.6723	1126.4121	1242.6691	1306.8222	1415.9187	1423.0643	1452.2043	1474.4521	1474.7527	1490.7299	1642.3822	1655.7176	1831.6161	2949.9435	3038.7722	3094.8236	3124.2531	3302.9054	3627.3331
CC1=COC(NC=O)=N1	Cc1coc(NC=O)n1	
InChI=1S/C5H6N2O2/c1-4-2-9-5(7-4)6-3-8/h2-3H,1H3,(H,6,7,8)	InChI=1S/C5H6N2O2/c1-4-2-9-5(7-4)6-3-8/h2-3H,1H3,(H,6,7,8)
