16
gdb 63451	1.93509	1.7842	1.07273	4.1234	77.11	-0.282	-0.0237	0.2584	1133.6035	0.119895	-400.710693	-400.701093	-400.700149	-400.744686	34.929	
C	-0.0798525375	 1.5345611573	-0.020610062	-0.464548
C	-0.0768842186	 0.0247421921	 0.0416741228	 0.3421
C	-1.2491941362	-0.6656558701	-0.6175469885	-0.466652
O	 1.1958432678	-0.5947516249	-0.1665902848	-0.290302
C	 0.6584471374	-0.6575988763	 1.1647356874	 0.038891
C	 1.344070379	 0.0843122668	 2.1934841028	 0.275732
C	 1.9043345258	 0.6834612446	 3.0707188974	-0.401864
C	 0.2259304034	-1.9814875334	 1.5883512805	 0.245636
N	-0.1290181468	-3.0246149327	 1.936394722	-0.341024
H	 0.7891463299	 1.9558717281	 0.4853224205	 0.147208
H	-0.0656563472	 1.853683853	-1.0678000479	 0.136951
H	-0.9877909074	 1.9338338551	 0.441680204	 0.134549
H	-1.2728525622	-0.4018985814	-1.6798809485	 0.136887
H	-1.1792575487	-1.7507941332	-0.5316167086	 0.157166
H	-2.190212321	-0.3357992226	-0.1668971963	 0.136619
H	 2.4056811923	 1.2124720875	 3.8440569995	 0.212651
118.4523	132.9817	146.2355	158.7763	168.1417	213.1576	320.6105	351.9881	380.5569	402.1821	483.0843	539.0306	583.868	598.8037	628.772	641.5236	682.7536	729.7919	889.2045	932.5616	953.4567	994.7205	1104.4706	1152.8578	1175.7431	1261.8621	1379.3686	1411.3694	1421.506	1472.4407	1479.4061	1495.6044	1504.1864	2244.6504	2359.3788	3044.3078	3049.3608	3108.5601	3114.0458	3147.4083	3152.2409	3498.3759
CC1(C)OC1(C#C)C#N	CC1(C)O[C@]1(C#C)C#N	
InChI=1S/C7H7NO/c1-4-7(5-8)6(2,3)9-7/h1H,2-3H3	InChI=1S/C7H7NO/c1-4-7(5-8)6(2,3)9-7/h1H,2-3H3/t7-/m1/s1
