19
gdb 32781	3.08314	0.96899	0.78139	1.233	78.75	-0.2095	0.0238	0.2333	1455.962	0.158607	-423.05814	-423.048697	-423.047753	-423.093419	33.782	
C	 0.2847825253	 1.5103413373	 0.1724376261	-0.493455
C	 0.0313375117	 0.0524028753	 0.0245108575	 0.270336
C	-1.1011246994	-0.7071470197	-0.0524684442	 0.150245
C	-2.5257631602	-0.2403013495	-0.0327822805	-0.312637
C	-3.1814411214	-0.283042705	-1.4148166636	-0.058453
O	-4.5250955057	 0.1486052609	-1.2677768256	-0.41863
C	-0.6491455337	-2.0693367903	-0.1834785296	-0.267752
C	 0.7048233959	-2.0287258028	-0.1732217339	-0.020164
O	 1.1384412766	-0.7461438308	-0.0470509563	-0.180408
H	 0.8899842799	 1.7223640277	 1.0611913693	 0.1379
H	 0.8222409499	 1.9167370969	-0.6923548064	 0.136524
H	-0.6594610976	 2.0506440936	 0.2670310748	 0.136545
H	-3.1233773852	-0.8622662153	 0.6441541893	 0.114169
H	-2.5942217339	 0.784527682	 0.3464198898	 0.10849
H	-2.6204846495	 0.3663593034	-2.1053786578	 0.087375
H	-3.1291084932	-1.3071952794	-1.8172206341	 0.08831
H	-4.9449562768	 0.1267624527	-2.1324304261	 0.285814
H	-1.2658615333	-2.9516923823	-0.263725136	 0.10605
H	 1.4750300504	-2.7794781547	-0.2376499127	 0.129741
43.0775	90.5802	113.5409	126.4854	230.1748	255.5998	266.2159	347.6361	355.3731	420.2155	620.8437	648.3027	680.4859	741.5455	773.1136	796.5337	824.2477	912.268	961.2019	1005.5713	1028.5527	1062.8742	1072.9936	1078.1757	1158.4587	1180.5228	1220.8316	1237.7193	1250.4098	1275.618	1312.6509	1341.8083	1410.4119	1440.1023	1453.6983	1473.4353	1485.963	1494.3016	1525.9486	1552.493	1664.591	2969.0988	2997.1327	3029.3148	3038.0914	3077.8149	3083.5707	3130.9255	3245.7337	3282.1342	3831.9027
CC1=C(CCO)C=CO1	Cc1c(CCO)cco1	
InChI=1S/C7H10O2/c1-6-7(2-4-8)3-5-9-6/h3,5,8H,2,4H2,1H3	InChI=1S/C7H10O2/c1-6-7(2-4-8)3-5-9-6/h3,5,8H,2,4H2,1H3
