16
gdb 9049	4.60394	0.95697	0.82398	4.2863	72.05	-0.2517	0.0109	0.2626	1328.2907	0.128574	-342.746262	-342.737177	-342.736233	-342.780527	31.927	
C	 0.0854811606	 1.4981329207	 0.1153761022	-0.395211
C	 0.0300446657	-0.0422065904	 0.0046858841	-0.124052
N	-1.3150011353	-0.6336990734	 0.079681706	-0.292692
C	-2.0194724498	-0.3817396291	 1.3296313791	-0.274285
C	-3.287348569	-1.1178420697	 1.3645701975	 0.265836
N	-4.2998484809	-1.6726944154	 1.3896338569	-0.295729
C	 0.6640250581	-0.4833301293	-1.2386269677	 0.304336
C	 1.1757925724	-0.8055982282	-2.2764311479	-0.421552
H	 1.1196857987	 1.8461283916	 0.0484465078	 0.136818
H	-0.4826259324	 1.9597180592	-0.6980562536	 0.127605
H	-0.3247789399	 1.8407805062	 1.0696440858	 0.119166
H	 0.5966714497	-0.4653659612	 0.8470057606	 0.11777
H	-1.872817268	-0.3336548943	-0.7132452364	 0.235799
H	-1.3943959571	-0.7364955641	 2.1592445375	 0.156826
H	-2.246689594	 0.6772684434	 1.5405508584	 0.137429
H	 1.6324163013	-1.1092413062	-3.1860819203	 0.201937
58.5767	94.0147	101.5498	192.3209	211.4452	257.7413	305.3863	390.3093	414.2334	473.2193	537.0391	599.6447	634.3447	665.8655	731.4279	835.0028	928.0948	948.1225	992.1846	1061.9217	1093.9061	1127.7258	1163.7779	1249.9832	1329.3415	1333.7975	1394.6419	1406.2512	1483.6462	1488.6723	1493.5808	1503.7508	2243.1988	2369.1253	2960.3227	3002.7625	3041.6888	3045.271	3116.9947	3122.8949	3503.455	3530.049
CC(NCC#N)C#C	C[C@@H](NCC#N)C#C	
InChI=1S/C6H8N2/c1-3-6(2)8-5-4-7/h1,6,8H,5H2,2H3	InChI=1S/C6H8N2/c1-3-6(2)8-5-4-7/h1,6,8H,5H2,2H3/t6-/m1/s1
