17
gdb 82882	2.86116	1.77991	1.41954	2.8725	66.66	-0.2408	0.0611	0.302	931.9548	0.137077	-458.913069	-458.906116	-458.905172	-458.943975	29.016	
O	 0.1935753832	 1.4309271217	-0.0689336243	-0.454494
C	 0.0319166199	 0.0471654253	-0.0384821777	 0.184109
C	 0.1283341903	-0.6742402286	 1.3292029928	-0.020203
O	-0.8392910381	 0.066658149	 2.0976693183	-0.286516
C	-2.0051191324	-0.3452697362	 1.3480140426	 0.063405
C	-2.0466588221	-1.8663413428	 1.6203151555	-0.306551
C	-0.7789000376	-1.8311237795	 0.7538328879	 0.380943
O	-0.0850783205	-2.917618488	 0.2544733047	-0.477878
C	-1.3637424146	-0.6073672342	-0.0739028112	-0.215732
H	-0.2035503819	 1.7555589423	 0.7503901177	 0.28573
H	 0.6860231584	-0.4023509979	-0.7886240321	 0.101963
H	 1.0486607877	-0.8375620584	 1.8863460971	 0.087696
H	-2.8465871547	 0.3200641016	 1.5234999915	 0.090096
H	-1.9936380021	-2.1917311949	 2.6622602208	 0.108798
H	-2.8715745285	-2.356978231	 1.0942759092	 0.096918
H	-0.6892874716	-3.4577897502	-0.2657118736	 0.287191
H	-2.0100821053	-0.6839848382	-0.9461236491	 0.074523
178.0643	278.512	286.4971	315.2164	357.3691	477.621	496.4572	535.7409	590.1417	626.8826	688.2393	776.5714	810.6517	832.3688	896.4303	907.769	922.7794	951.5075	965.1781	1024.1304	1031.6264	1049.2228	1067.0185	1117.4669	1135.6806	1154.3423	1195.6103	1209.7769	1221.1208	1252.2536	1269.4747	1288.7623	1315.3293	1345.1474	1386.2967	1439.1682	1486.0232	3052.0583	3103.6121	3117.0718	3139.5792	3147.323	3157.4041	3760.9514	3809.3894
OC1C2OC3CC2(O)C13	O[C@H]1[C@H]2O[C@@H]3C[C@@]2(O)[C@H]13	
InChI=1S/C6H8O3/c7-4-3-2-1-6(3,8)5(4)9-2/h2-5,7-8H,1H2	InChI=1S/C6H8O3/c7-4-3-2-1-6(3,8)5(4)9-2/h2-5,7-8H,1H2/t2-,3+,4-,5-,6-/m1/s1
