16
gdb 68958	2.73564	1.7016	1.27769	2.2507	69.57	-0.2505	-0.033	0.2174	985.2914	0.12338	-437.900673	-437.89279	-437.891846	-437.932844	29.771	
C	 0.103212482	 1.4842762143	 0.0169635349	-0.481074
C	 0.0697151152	-0.0120642628	 0.0538294833	 0.36833
C	 1.2190141977	-0.8968579572	-0.2584713901	-0.366893
C	 0.6488937598	-0.951182608	 1.1583097285	 0.177562
C	 1.4618334878	-0.4732605371	 2.2961927348	 0.08367
O	 2.3372346447	 0.3565455929	 2.1984565569	-0.278431
N	-0.3694340676	-1.9390266808	 1.4050488235	-0.308712
C	-1.3175075097	-1.6701907145	 0.6004440223	 0.081988
O	-1.2112235883	-0.5809959008	-0.2035148983	-0.239413
H	 1.0587460311	 1.8333779932	 0.4147728173	 0.162058
H	-0.0048042288	 1.849894713	-1.0092765142	 0.136406
H	-0.7046028132	 1.9046587111	 0.6223022329	 0.134302
H	 1.072946566	-1.773305714	-0.8807447596	 0.131661
H	 2.1848357235	-0.407921067	-0.3237111004	 0.151062
H	 1.1900715337	-0.9340821136	 3.2687311824	 0.096442
H	-2.2400326539	-2.2265826986	 0.4913624257	 0.151041
128.2893	170.2291	196.9093	218.8374	264.4917	332.412	394.0892	452.0603	523.1355	603.9552	634.3461	663.1605	766.4388	786.6367	908.9545	939.3037	946.9653	970.0565	980.7768	1044.7418	1056.3574	1097.6457	1138.0959	1156.8953	1230.1423	1285.8924	1340.149	1370.8322	1414.9865	1421.5134	1460.3769	1485.1435	1496.0684	1662.3732	1798.4141	2921.3509	3044.1693	3112.1025	3131.9987	3138.5894	3234.0941	3234.3875
CC12CC1(C=O)N=CO2	C[C@@]12C[C@]1(C=O)N=CO2	
InChI=1S/C6H7NO2/c1-5-2-6(5,3-8)7-4-9-5/h3-4H,2H2,1H3	InChI=1S/C6H7NO2/c1-5-2-6(5,3-8)7-4-9-5/h3-4H,2H2,1H3/t5-,6-/m1/s1
