21
gdb 63137	2.37375	1.99436	1.57312	1.4392	81.29	-0.2355	0.0094	0.2448	972.0702	0.183797	-387.090089	-387.082196	-387.081251	-387.121634	32.759	
C	-0.051155048	 1.5140697047	 0.0360193596	-0.458742
C	-0.0035211523	-0.0203191569	 0.008290331	 0.318963
C	-1.4317446214	-0.5473270632	-0.1743883802	-0.457177
C	 1.0419519066	-0.635779363	-0.9942696382	-0.125821
C	 2.3489772689	-0.0271565562	-0.4029139786	-0.086804
O	 2.1152223436	-0.0248793132	 1.0110493408	-0.278834
C	 0.796450145	-0.6263168265	 1.1955103692	 0.035652
C	 0.9315892207	-2.0831244209	 0.7919889836	-0.080596
C	 1.0784621669	-2.0836876441	-0.5377740797	-0.088651
H	 0.8808321208	 1.955065251	 0.3894699458	 0.137088
H	-0.2724173401	 1.9124655008	-0.9608504068	 0.109358
H	-0.8513397632	 1.8528764143	 0.7030218466	 0.110913
H	-1.881238556	-0.110611986	-1.0733921652	 0.111026
H	-1.475735322	-1.6327548522	-0.265055478	 0.120592
H	-2.0590352098	-0.2508250822	 0.674005746	 0.110746
H	 0.8889580428	-0.4474819579	-2.0575688885	 0.063589
H	 3.2316073658	-0.6318262582	-0.6407524699	 0.096643
H	 2.5216645284	 0.9987934656	-0.7485092136	 0.097712
H	 0.4700914179	-0.398735673	 2.2098768486	 0.068368
H	 1.0077737795	-2.9195406535	 1.4743458098	 0.099158
H	 1.3008697159	-2.9267281996	-1.1802321022	 0.096815
169.5061	211.9809	218.6473	290.2841	335.7366	355.173	390.4594	419.1912	520.5912	532.2576	609.5691	710.983	752.7378	765.3582	846.8754	876.128	897.8321	933.0864	945.388	951.0955	956.1694	961.0084	964.7153	1000.4118	1026.3224	1060.1848	1121.8379	1167.9912	1187.9677	1210.0933	1211.046	1233.861	1272.3194	1290.2537	1314.1599	1343.3936	1364.3911	1400.6718	1420.4824	1483.3801	1493.0592	1503.4053	1514.9164	1535.0161	1634.6617	3023.2812	3030.2177	3036.4347	3061.1583	3083.8935	3089.6757	3110.3221	3127.1293	3141.4235	3146.5059	3197.78	3225.0282
CC1(C)C2COC1C=C2	CC1(C)[C@H]2CO[C@@H]1C=C2	
InChI=1S/C8H12O/c1-8(2)6-3-4-7(8)9-5-6/h3-4,6-7H,5H2,1-2H3	InChI=1S/C8H12O/c1-8(2)6-3-4-7(8)9-5-6/h3-4,6-7H,5H2,1-2H3/t6-,7-/m1/s1
