14
gdb 133682	3.25849	0.92159	0.8414	2.8021	56.46	-0.2808	0.0199	0.3007	1310.6542	0.094678	-568.155618	-568.14641	-568.145466	-568.190581	32.686	
O	-0.2414351195	 1.3680930896	 0.076598943	-0.40744
C	-0.0140445806	-0.0317818424	 0.0492601714	-0.073363
C	 0.687026305	-0.4968783928	-1.244348121	-0.359632
C	-0.0669736067	-0.1248039231	-2.5095464653	 0.28936
F	-0.0174301012	 1.1855851887	-2.7729508328	-0.068716
F	 0.4602097	-0.7638936245	-3.5686631402	-0.080312
F	-1.361364391	-0.4765042154	-2.4337961012	-0.085052
C	 0.7397923668	-0.4922505214	 1.2195298411	 0.288327
C	 1.3933941355	-0.8441544908	 2.1646068603	-0.417386
H	 0.6105133323	 1.8082499776	 0.175231684	 0.288457
H	-1.0158500759	-0.4744190473	 0.0687021549	 0.140531
H	 1.6921951135	-0.0699767825	-1.310588655	 0.133799
H	 0.7895556553	-1.5853177226	-1.2296669512	 0.14592
H	 1.9505226865	-1.1584139231	 3.012880842	 0.205507
39.8636	98.5164	120.5826	181.6396	226.3841	293.4913	309.9204	365.4278	402.8864	504.3259	536.4351	571.6975	582.2072	646.0325	664.9658	681.1768	852.0551	872.1843	942.3558	1023.9509	1088.867	1126.4279	1175.0975	1265.1317	1276.006	1298.6653	1337.2633	1390.0671	1425.4222	1466.2989	2236.1838	3060.7545	3071.1178	3121.0786	3501.3787	3802.9742
OC(CC(F)(F)F)C#C	O[C@@H](CC(F)(F)F)C#C	
InChI=1S/C5H5F3O/c1-2-4(9)3-5(6,7)8/h1,4,9H,3H2	InChI=1S/C5H5F3O/c1-2-4(9)3-5(6,7)8/h1,4,9H,3H2/t4-/m1/s1
