22
gdb 117642	2.58123	1.07639	0.92002	3.3284	79.13	-0.2382	0.0395	0.2777	1397.7879	0.1907	-441.52739	-441.51602	-441.515076	-441.56518	40.787	
C	-0.183700483	 1.3576627488	-0.7479479604	-0.384384
C	-0.0691460307	-0.0645409654	-0.2224054528	-0.05131
O	 0.5341791092	-0.8528671059	-1.2348153328	-0.310307
C	 0.7501041696	-2.2450843447	-0.9727331573	 0.278598
C	 1.7217168207	-2.4635770505	 0.1974312595	-0.422236
C	-0.5710549551	-2.9980956843	-0.7525595769	-0.422258
C	 1.4143117372	-2.8347899036	-2.2436234897	 0.378467
N	 1.6265728688	-1.9546143475	-3.248895111	-0.522509
O	 1.710851805	-4.0153057829	-2.2963678451	-0.392752
H	 0.8044635769	 1.760102164	-0.9895200791	 0.124159
H	-0.7977158899	 1.3858836423	-1.6529157063	 0.124177
H	-0.6459953442	 2.0042885651	 0.0038257916	 0.118645
H	 0.5357027175	-0.0804890531	 0.6953416353	 0.096162
H	-1.064841274	-0.4542981227	 0.0325836772	 0.096172
H	 1.2563765054	-2.2209124022	 1.1567980635	 0.110889
H	 2.0261868417	-3.5116777428	 0.2137024688	 0.14916
H	 2.6139305248	-1.8426355154	 0.0721753341	 0.120125
H	-1.2859529737	-2.7514379474	-1.5433720728	 0.120129
H	-0.3756915923	-4.0716179718	-0.7819975166	 0.14918
H	-1.017780964	-2.7515631431	 0.2146352179	 0.110879
H	 1.3557793652	-0.993495446	-3.1347667844	 0.271116
H	 2.0553077749	-2.282901731	-4.0973894426	 0.257898
17.9341	42.7437	94.2406	149.4029	213.5505	253.5001	265.8655	267.5766	285.9873	304.9074	319.853	362.6402	392.9069	426.6391	506.2417	596.089	641.8666	721.0781	778.0341	822.7512	826.5741	929.9222	933.2331	984.8463	1011.5909	1097.9662	1099.3572	1142.567	1182.5081	1191.7377	1206.7102	1231.8666	1301.9176	1369.3674	1380.49	1398.4061	1403.1375	1426.7557	1481.2628	1484.6542	1487.1283	1498.7756	1502.8118	1507.1033	1531.7806	1584.3957	1790.7808	2993.6184	3024.707	3042.7696	3043.8112	3046.7231	3112.8783	3115.6727	3118.4395	3118.5324	3139.8174	3144.0849	3605.5488	3749.4159
CCOC(C)(C)C(N)=O	CCOC(C)(C)C(=O)N	
InChI=1S/C6H13NO2/c1-4-9-6(2,3)5(7)8/h4H2,1-3H3,(H2,7,8)	InChI=1S/C6H13NO2/c1-4-9-6(2,3)5(7)8/h4H2,1-3H3,(H2,7,8)
