23
gdb 116357	2.30816	1.38039	0.91725	1.139	89.18	-0.2278	0.0282	0.256	1350.3226	0.205981	-388.307439	-388.297807	-388.296863	-388.34196	36.217	
C	-0.7080468982	 1.0812698858	 0.1943254168	-0.234587
O	 0.4230311319	 0.2896986952	-0.079870454	-0.251018
C	 0.9557241949	-0.3986960576	 1.04940025	 0.052569
C	 0.085482701	-1.5973271352	 1.451548353	-0.218914
C	 0.8205055366	-2.4983662662	 2.4474231054	-0.214624
C	 2.1051803241	-3.0550729351	 1.8212846326	-0.241915
C	 2.8655575189	-1.9988379081	 1.0641174205	-0.151619
C	 2.3765918655	-0.8087810383	 0.7047535769	 0.310028
C	 3.202954972	 0.2163137453	-0.0241824904	-0.473623
H	-0.5154470524	 1.7961131962	 1.0105578945	 0.100377
H	-0.9363402824	 1.6419903648	-0.7159454644	 0.12463
H	-1.5914634884	 0.4842568363	 0.4636171995	 0.106205
H	 0.9986379006	 0.3158178212	 1.8947018714	 0.06373
H	-0.8630780579	-1.2517457966	 1.8755074648	 0.089195
H	-0.1517572478	-2.1584010417	 0.5390251768	 0.104877
H	 1.0762017142	-1.9162839034	 3.3426438715	 0.098355
H	 0.1697737814	-3.314019978	 2.7799278495	 0.092314
H	 2.749301301	-3.4908694734	 2.5956653674	 0.099061
H	 1.8627112921	-3.8877449965	 1.1431731531	 0.106707
H	 3.8944167529	-2.2390340158	 0.8008058073	 0.074628
H	 4.2228756389	-0.1425984942	-0.1856072829	 0.109945
H	 2.7559817912	 0.4660549099	-0.990667133	 0.13984
H	 3.2564443199	 1.1550870954	 0.5429785438	 0.113838
67.1454	85.4864	179.9228	188.1064	212.7628	247.6565	290.9065	309.4306	365.8823	436.211	447.6773	485.6864	575.8773	645.6798	771.1339	822.9926	861.386	886.2247	930.0156	958.9299	1008.7451	1033.6554	1058.7485	1080.358	1095.6511	1113.8147	1142.8023	1164.7537	1172.5786	1183.777	1220.2463	1239.1121	1275.2278	1332.5798	1344.3605	1366.46	1377.5007	1380.6195	1399.0176	1410.942	1473.2401	1475.8795	1477.3248	1488.5124	1491.1321	1493.9863	1499.3726	1511.2071	1739.0251	2904.5808	2972.4415	2990.891	3018.5469	3021.2541	3022.3686	3032.1675	3037.8805	3069.9558	3078.9788	3084.0767	3107.0624	3118.9605	3136.0794
COC1CCCC=C1C	CO[C@H]1CCCC=C1C	
InChI=1S/C8H14O/c1-7-5-3-4-6-8(7)9-2/h5,8H,3-4,6H2,1-2H3	InChI=1S/C8H14O/c1-7-5-3-4-6-8(7)9-2/h5,8H,3-4,6H2,1-2H3/t8-/m0/s1
