21
gdb 116088	2.85074	1.16033	0.90104	3.9123	80.11	-0.2142	0.035	0.2492	1340.2582	0.18458	-420.440733	-420.431723	-420.430779	-420.474615	33.895	
C	-0.114991045	 1.5693969345	-0.2184593416	-0.390934
C	-0.0010173752	 0.0569680214	 0.0410613504	-0.139561
N	 0.7123823924	-0.3599419495	 1.2452321645	-0.071089
C	 0.1044680346	 0.0430479443	 2.5010079105	-0.149157
C	 0.6746263589	-0.8243784999	 3.6186688329	-0.154078
N	 2.1284080505	-0.7916568332	 3.575672393	-0.309681
C	 2.8866450876	-0.5622530459	 2.4645628947	 0.389329
O	 4.097535463	-0.6822458233	 2.4620333138	-0.376273
C	 2.1378219181	-0.0684817736	 1.2281578946	-0.265061
H	 0.8664815649	 2.0420855597	-0.3201271023	 0.124828
H	-0.66401107	 1.7455889904	-1.1489416915	 0.117934
H	-0.6546344267	 2.0795693446	 0.5857625043	 0.118695
H	-1.008049741	-0.3754981393	 0.0920377527	 0.099515
H	 0.4980453785	-0.4187384068	-0.8121276171	 0.104545
H	 0.2733429764	 1.1098278813	 2.7431693309	 0.08823
H	-0.9773716557	-0.1135545454	 2.4434657781	 0.10567
H	 0.337045457	-0.4512855132	 4.5922207738	 0.107438
H	 0.3027487584	-1.8519327053	 3.5019802777	 0.112854
H	 2.6482003617	-1.1580772233	 4.3602208865	 0.245862
H	 2.6054275053	-0.5489479747	 0.3640724849	 0.132548
H	 2.3653037862	 1.0125977171	 1.1528552191	 0.108385
92.2116	107.0032	122.1781	200.2512	222.6297	296.324	346.234	379.7507	457.4181	490.2182	516.1767	537.9873	655.9258	675.4748	790.8133	803.0759	841.2506	927.2766	957.0916	983.6477	1031.2147	1077.4407	1097.3152	1104.3171	1118.6528	1179.8145	1210.8425	1244.55	1273.5696	1310.2503	1330.915	1362.5118	1384.9468	1390.0765	1399.8065	1409.7394	1416.9913	1474.9736	1476.9213	1487.2013	1496.6857	1501.6036	1510.1747	1521.7684	1794.5633	2917.9566	2923.2481	3003.8691	3020.2908	3040.258	3057.0371	3059.1388	3075.3623	3086.7512	3107.3437	3114.0008	3606.0651
CCN1CCNC(=O)C1	CCN1CCNC(=O)C1	
InChI=1S/C6H12N2O/c1-2-8-4-3-7-6(9)5-8/h2-5H2,1H3,(H,7,9)	InChI=1S/C6H12N2O/c1-2-8-4-3-7-6(9)5-8/h2-5H2,1H3,(H,7,9)
