17
gdb 34680	3.72363	1.46365	1.3226	3.6838	76.81	-0.2509	0.0065	0.2574	982.5489	0.139193	-380.818358	-380.811767	-380.810822	-380.849278	27.002	
N	-0.1080678052	-1.203552777	-0.138632332	-0.348786
C	-0.0031868718	-0.059979259	 0.0071195861	 0.290859
C	 0.0178238239	 1.3779964853	 0.0903539331	-0.149932
C	 0.3840411355	 2.2447157969	 1.2582744119	-0.040085
C	 1.422394357	 1.8544251075	 2.3156393195	-0.059374
C	 2.5926169915	 2.7804175109	 1.8075692811	-0.20625
C	 2.5086168945	 1.8011406959	 0.594670077	 0.009089
C	 2.2202165391	 0.7025360613	 1.6527438422	-0.265777
N	 1.2011814192	 2.274075311	 0.0175526196	-0.126773
H	-0.7823975953	 1.7871332702	-0.5251865503	 0.145771
H	-0.2557761983	 3.1012016568	 1.4570800419	 0.109514
H	 1.097274442	 1.8265782268	 3.3541170737	 0.079933
H	 2.3669928951	 3.8303041676	 1.607800677	 0.110041
H	 3.5079469736	 2.6771078242	 2.3923734017	 0.107415
H	 3.2824571337	 1.7127452403	-0.1650604825	 0.088062
H	 3.1230314456	 0.4752736573	 2.221863175	 0.108758
H	 1.7271674599	-0.2248818958	 1.3789018349	 0.147534
120.2119	178.5621	354.3952	367.885	444.3508	556.9141	605.4233	671.1555	678.4035	714.5745	748.8877	829.9841	844.1409	861.867	892.9135	904.3921	971.3957	995.6499	1021.5138	1037.4442	1048.1566	1073.7217	1087.7281	1116.1726	1128.5451	1134.8229	1218.1981	1236.5533	1245.771	1269.2775	1276.8435	1301.6382	1360.6021	1394.3136	1490.9438	1538.5545	2341.4196	3072.8975	3098.1923	3118.2766	3131.8315	3140.4819	3141.5902	3145.8804	3186.0856
N#CC1C2C3CC(C3)N12	N#C[C@H]1[C@H]2[C@@H]3C[C@@H](C3)N12	
InChI=1S/C7H8N2/c8-3-6-7-4-1-5(2-4)9(6)7/h4-7H,1-2H2	InChI=1S/C7H8N2/c8-3-6-7-4-1-5(2-4)9(6)7/h4-7H,1-2H2/t4-,5+,6-,7+,9?/m0/s1
