12
gdb 5014	3.39591	2.43221	1.41719	1.6849	61.64	-0.2236	-0.0466	0.177	789.3169	0.08534	-414.682887	-414.67656	-414.675616	-414.713342	23.943	
O	-0.0839360159	 1.3208516009	 0.1655903909	-0.401904
C	 0.0108452329	-0.017863205	 0.033585155	 0.277022
C	 1.1584409038	-0.7205159956	-0.1091613992	-0.146597
N	 1.1870302997	-2.1027525099	-0.2408222038	-0.263141
C	 0.0616287579	-2.6947311425	-0.2210903926	 0.122666
O	-1.1508717344	-2.1072661487	-0.0848196396	-0.222405
C	-1.2701276936	-0.7232021202	 0.0530869756	 0.363213
N	-2.3957447542	-0.1634984141	 0.1809509171	-0.517677
H	 0.8016112781	 1.70275799	 0.1422097689	 0.305475
H	 2.1242046279	-0.2227772135	-0.1270619	 0.107698
H	-0.0344773232	-3.7706966823	-0.3156582317	 0.145211
H	-3.147735909	-0.852978219	 0.1665468893	 0.23044
119.6877	246.8077	323.0144	390.4415	442.3373	481.1456	518.4787	587.7352	598.6908	744.7575	760.5421	860.8589	887.9115	913.2712	919.9672	991.9048	1093.1505	1186.1013	1198.9594	1268.8707	1325.7622	1405.9123	1467.7294	1631.0763	1672.7768	1754.2646	3164.1157	3208.7927	3493.948	3800.8332
OC1=CN=COC1=N	OC1=C(OC=NC1)[NH]	
InChI=1S/C4H4N2O2/c5-4-3(7)1-6-2-8-4/h1-2,5,7H	InChI=1S/C4H5N2O2/c5-4-3(7)1-6-2-8-4/h2,5,7H,1H2
