18
gdb 65358	3.33153	0.95137	0.90343	4.4921	78.37	-0.2827	0.0082	0.2909	1365.6429	0.145923	-401.930561	-401.92142	-401.920476	-401.964972	33.276	
C	-0.0536969993	 1.554998282	-0.1625416874	-0.467754
C	-0.0642208705	 0.0635201593	 0.0921530302	 0.208409
O	 1.1776055069	-0.6378497653	-0.051440178	-0.27469
C	 0.591569125	-0.5912667997	 1.2540920941	 0.03336
C	 1.3117426186	 0.1358399199	 2.3331046019	-0.026413
C	 0.7942163478	 0.0258190613	 3.7503575053	-0.268203
C	 2.0698400546	-0.6691890943	 3.3658350269	-0.264804
C	-1.2072247362	-0.6294346403	-0.4891126426	 0.254886
N	-2.1312991582	-1.1564131863	-0.9413238174	-0.332486
H	 0.825939826	 2.0161498685	 0.2872751406	 0.139625
H	-0.0338053612	 1.7500140774	-1.2384559467	 0.150199
H	-0.9530719029	 2.0195040718	 0.2521809592	 0.145075
H	 0.1603801882	-1.5439940501	 1.5692272614	 0.108783
H	 1.7531276654	 1.081697921	 2.0422142123	 0.096593
H	 0.8493636826	 0.9094618528	 4.3753033165	 0.123843
H	-0.0865703563	-0.5842947401	 3.9211015553	 0.124147
H	 2.0538686745	-1.7498507179	 3.2725478144	 0.125249
H	 3.0101698151	-0.26666331	 3.7238951538	 0.124181
59.5176	106.2979	125.965	158.4014	213.1663	263.5318	308.1101	368.3356	418.895	466.7478	573.7023	600.2051	687.6017	770.1775	830.0622	849.1887	878.631	890.8549	924.8275	968.8871	1022.6649	1064.8465	1083.2439	1099.9133	1121.4134	1131.5834	1195.7366	1198.2981	1223.7883	1240.8523	1332.6002	1348.7847	1414.4029	1468.9031	1471.6139	1483.8289	1497.084	1511.1236	2354.9258	3053.9201	3089.2411	3120.9527	3137.0656	3140.9144	3151.3924	3181.5243	3216.978	3231.9209
CC1(OC1C1CC1)C#N	C[C@]1(O[C@H]1C1CC1)C#N	
InChI=1S/C7H9NO/c1-7(4-8)6(9-7)5-2-3-5/h5-6H,2-3H2,1H3	InChI=1S/C7H9NO/c1-7(4-8)6(9-7)5-2-3-5/h5-6H,2-3H2,1H3/t6-,7-/m0/s1
