21
gdb 58700	1.93502	1.46148	1.19165	1.5426	83.65	-0.2511	0.0411	0.2922	1201.5843	0.180141	-387.03963	-387.029688	-387.028744	-387.07418	37.102	
C	-0.2438231633	 1.4658578615	 0.0430892799	-0.405101
C	 0.0690011119	-0.0351290325	-0.0045848544	-0.029957
C	 0.8190527267	-0.3996003019	-1.2920915481	-0.405102
C	 0.8383092199	-0.5001730345	 1.2575783971	 0.092029
C	-0.037376605	-0.522666964	 2.5505272778	-0.11965
O	-0.1200344938	-1.9570096096	 2.5302136978	-0.269242
C	 0.8322150378	-2.0489752371	 1.4581375705	-0.119651
C	 2.1347367404	 0.1416236254	 1.3928491592	 0.293362
C	 3.2105910217	 0.6656698428	 1.5170261032	-0.459065
H	 0.6788576112	 2.0547458363	 0.0343874523	 0.130589
H	-0.8422583344	 1.7608756246	-0.824376873	 0.114438
H	-0.8067595772	 1.7374975381	 0.9419301054	 0.113714
H	-0.8809013519	-0.5869911468	 0.0102781011	 0.0835
H	 1.7770581102	 0.1272888372	-1.3451773545	 0.130589
H	 1.022699097	-1.4733859474	-1.3562228735	 0.113713
H	 0.2299832697	-0.121035142	-2.1713278264	 0.114438
H	 0.4712542302	-0.147564568	 3.4460900646	 0.108117
H	-1.02320233	-0.0512125176	 2.4637159691	 0.104828
H	 0.4487356637	-2.6347618474	 0.614658919	 0.104827
H	 1.7913915649	-2.4646588281	 1.7877243521	 0.108117
H	 4.1606225103	 1.1270767909	 1.6285393507	 0.195506
77.9215	101.3214	144.1812	186.8278	213.73	227.0407	248.9431	312.8176	329.9003	412.1475	445.2079	528.7625	548.8581	625.8526	629.7357	631.1838	808.0196	865.0089	926.2491	933.8605	962.3563	979.0599	987.2366	1025.4772	1049.4768	1071.252	1137.3516	1153.2883	1168.2894	1168.8655	1207.182	1271.8398	1310.8297	1354.1659	1364.2962	1374.6757	1400.6898	1421.1617	1488.0736	1491.2839	1504.6447	1510.8041	1511.244	1536.0553	2227.9103	3011.2386	3016.4108	3027.1552	3034.3008	3038.3772	3070.7568	3072.3211	3102.3175	3104.4301	3107.6864	3112.7502	3499.8511
CC(C)C1(COC1)C#C	CC(C)C1(COC1)C#C	
InChI=1S/C8H12O/c1-4-8(7(2)3)5-9-6-8/h1,7H,5-6H2,2-3H3	InChI=1S/C8H12O/c1-4-8(7(2)3)5-9-6-8/h1,7H,5-6H2,2-3H3
