20
gdb 38137	2.69221	1.87754	1.37965	1.3983	83.31	-0.2257	0.0154	0.2411	992.4827	0.17495	-365.989214	-365.982167	-365.981223	-366.020453	29.329	
C	 0.4240761067	 1.6036919016	 0.4319475457	-0.22043
C	 1.4794848735	 1.5400862535	-0.7059327383	-0.224527
C	 1.3534790986	-0.0119345118	-0.7113501527	-0.026489
C	 2.4618040173	-0.7557099665	 0.0025183447	-0.044988
N	 2.8575945652	-0.2725822822	 1.3345966444	-0.332782
C	 2.1516418375	-1.5807163938	 1.2056703297	-0.084601
C	 0.7596265833	-1.6301977199	 1.7134906622	-0.033023
C	-0.2043630352	-0.8481795573	 1.221161559	-0.08928
C	 0.0271953175	 0.1225247567	 0.1109840875	-0.037586
H	 0.8976021445	 1.6769097738	 1.4115696128	 0.125485
H	-0.3660039118	 2.3542755677	 0.3474789895	 0.085559
H	 1.1257633614	 1.9861877849	-1.6395360869	 0.092769
H	 2.4677893876	 1.9429539432	-0.4744429991	 0.099231
H	 1.2211986498	-0.4693507797	-1.6964272117	 0.063731
H	 3.2588502144	-1.1180428737	-0.6445901005	 0.078731
H	 3.8517776662	-0.4353113413	 1.4771474875	 0.227584
H	 2.7518303847	-2.4716554807	 1.372062595	 0.080136
H	 0.5471671893	-2.3282460792	 2.5184820484	 0.084698
H	-1.2098153495	-0.9107686667	 1.6315280839	 0.08575
H	-0.8336405908	 0.1189842513	-0.567208261	 0.070032
116.6074	183.5753	247.1484	346.449	433.2553	482.0196	537.8851	599.7277	682.4712	709.4428	759.6366	761.2275	813.0511	842.8318	877.2587	924.8999	927.6136	950.7688	955.2843	979.0597	991.2495	1019.1424	1062.7534	1078.4995	1107.0319	1137.0266	1163.7369	1178.719	1209.7566	1215.7435	1253.1439	1260.7289	1267.6855	1275.4014	1281.7212	1345.3815	1352.3071	1401.159	1427.7891	1453.246	1470.4408	1491.2452	1706.7221	3032.131	3051.8159	3059.8133	3066.8897	3110.5759	3113.9996	3135.4832	3138.3593	3144.4058	3171.1233	3488.6829
C1CC2C3NC3C=CC12	C1C[C@H]2[C@H]3N[C@H]3C=C[C@@H]12	
InChI=1S/C8H11N/c1-3-6-5(1)2-4-7-8(6)9-7/h2,4-9H,1,3H2	InChI=1S/C8H11N/c1-3-6-5(1)2-4-7-8(6)9-7/h2,4-9H,1,3H2/t5-,6-,7+,8-/m1/s1
