21
gdb 94722	2.72411	1.45475	1.22969	0.6535	76.99	-0.2471	0.0651	0.3122	1110.8874	0.182931	-424.229216	-424.220598	-424.219654	-424.261975	33.885	
C	-0.101842056	 1.5576334339	 0.2108061226	-0.462255
C	-0.0023964876	 0.0538002132	 0.0580456011	 0.438713
C	-1.3386634737	-0.6855879611	-0.1045295807	-0.250844
C	-1.0181240296	-2.1383546638	 0.2778187032	-0.260406
C	-0.0187643251	-1.9979482112	 1.4445540121	 0.133529
O	 0.6984548058	-3.1724330452	 1.7710933644	-0.4386
C	 0.8464103437	-0.7760735507	 1.0696988417	-0.128697
C	 1.8068337583	-0.9724912615	-0.1146933349	-0.094184
O	 0.9112184164	-0.307127045	-1.0246768988	-0.32972
H	 0.8899182481	 2.004261158	 0.3268190751	 0.119771
H	-0.5697721206	 1.9989042825	-0.6758443704	 0.125445
H	-0.7070272373	 1.8225131272	 1.084284431	 0.114321
H	-2.0787540157	-0.259954002	 0.5844128479	 0.096644
H	-1.7269342363	-0.5749458422	-1.1210679432	 0.108792
H	-1.8950264673	-2.7301806258	 0.5502251466	 0.102445
H	-0.526532376	-2.6432640462	-0.5635313067	 0.102571
H	-0.5725727319	-1.7517456681	 2.3586957507	 0.089557
H	 1.1240540441	-3.492626121	 0.9686022295	 0.277282
H	 1.2624794366	-0.2645977566	 1.9381872982	 0.073409
H	 2.7652900717	-0.4460691104	-0.0228946717	 0.10258
H	 2.0155737925	-2.006816154	-0.4234827577	 0.079646
99.4774	188.6213	212.1272	241.683	246.4121	270.2029	340.5698	363.2845	419.2449	513.8779	564.1911	594.7021	647.6616	795.2173	813.0992	881.2321	885.3373	931.6504	957.641	982.0932	994.7375	1026.3948	1033.2982	1076.0149	1096.8911	1111.1482	1159.5681	1167.0535	1190.9144	1210.2564	1237.6506	1267.4242	1274.1605	1316.6087	1330.5064	1346.1539	1350.5471	1377.9633	1406.0964	1431.9073	1469.7763	1482.5139	1489.5602	1490.6774	1524.9629	2992.6566	3028.2305	3030.1062	3034.2607	3035.2527	3041.8371	3093.2028	3102.126	3103.8192	3107.4262	3111.286	3805.8952
CC12CCC(O)C1CO2	C[C@]12CC[C@@H](O)[C@H]1CO2	
InChI=1S/C7H12O2/c1-7-3-2-6(8)5(7)4-9-7/h5-6,8H,2-4H2,1H3	InChI=1S/C7H12O2/c1-7-3-2-6(8)5(7)4-9-7/h5-6,8H,2-4H2,1H3/t5-,6-,7+/m1/s1
