18
gdb 47411	2.7494	1.53329	1.17845	4.6607	71.6	-0.246	0.0214	0.2675	1068.0643	0.149844	-439.108265	-439.100335	-439.099391	-439.141235	29.545	
O	-0.0950973499	-0.0064342943	 0.155460317	-0.387334
C	-0.0583755534	 1.205522626	 0.1405754196	 0.364806
N	-1.130523764	 2.0525390765	 0.1937831914	-0.319596
C	-0.8047153991	 3.4606271746	 0.0432956693	-0.173518
C	 0.7050930723	 3.484414228	 0.3760135111	-0.306804
C	 1.1959863499	 2.0747469776	 0.0325007615	 0.171988
C	 2.4708092487	 1.5243627728	 0.7016568278	-0.120989
O	 3.1782105079	 1.4678195736	-0.5531155768	-0.271668
C	 2.0035260654	 1.8607613845	-1.2801076848	-0.109378
H	-2.0682411663	 1.6881714997	 0.1340595922	 0.253866
H	-0.9996081823	 3.8147627352	-0.9788371434	 0.111448
H	-1.3904544578	 4.0818821721	 0.7275979799	 0.118564
H	 1.2365328667	 4.2734454495	-0.1607106577	 0.115753
H	 0.837746429	 3.6642884851	 1.4483771525	 0.117976
H	 2.9570629064	 2.1957068618	 1.4203781486	 0.096315
H	 2.339115768	 0.5298084621	 1.1433723598	 0.124395
H	 1.6270746337	 1.0528073879	-1.9191166349	 0.117004
H	 2.1687776749	 2.7625108673	-1.8839227629	 0.097172
82.5356	90.1391	166.8505	221.8642	284.6801	343.8933	417.1987	518.1306	565.2638	668.8941	702.9596	745.3672	819.3183	849.7326	916.8039	947.6021	969.9243	982.8811	998.1922	1050.6811	1071.7154	1137.4074	1141.2419	1163.6914	1169.9628	1223.3967	1238.4377	1251.2494	1294.7747	1314.5048	1327.9067	1372.8913	1380.1711	1447.4966	1488.5441	1501.5514	1525.1938	1536.8987	1825.126	3001.6356	3004.656	3017.6102	3047.0605	3057.9113	3070.4354	3072.3972	3106.4967	3640.4863
O=C1NCCC11COC1	O=C1NCCC21COC2	
InChI=1S/C6H9NO2/c8-5-6(1-2-7-5)3-9-4-6/h1-4H2,(H,7,8)	InChI=1S/C6H9NO2/c8-5-6(1-2-7-5)3-9-4-6/h1-4H2,(H,7,8)
