16
gdb 56365	2.07671	1.44863	1.25028	4.0169	74.27	-0.2821	0.006	0.2881	1102.616	0.121282	-400.696086	-400.686771	-400.685827	-400.730175	33.64	
C	-0.0721481954	 1.4361927854	-0.1420023813	-0.411639
C	 0.0275587432	-0.0996198542	 0.0688833866	-0.136672
C	 0.7157306901	-0.408599077	 1.3274113521	 0.335962
C	 1.3203089201	-0.6431952524	 2.3375116504	-0.448381
C	-1.3344263306	-0.6678445137	 0.101759917	 0.304929
N	-2.4030606775	-1.1049711153	 0.1275880768	-0.34873
C	 0.8333528924	-0.7054431695	-1.0975343484	 0.084839
C	 0.4947118083	-1.9665035327	-1.759371273	-0.18868
O	 0.2058724961	-0.6956277151	-2.3655236879	-0.234869
H	 0.9332212445	 1.864052886	-0.1482008531	 0.136148
H	-0.5584755369	 1.6390282915	-1.0983459588	 0.158025
H	-0.6457400693	 1.8968550731	 0.663932045	 0.147842
H	 1.8397081222	-0.8583422361	 3.2390571279	 0.21229
H	 1.8719290158	-0.3732537163	-1.0857654398	 0.113845
H	 1.28319897	-2.5409665561	-2.241304682	 0.126507
H	-0.3767168231	-2.5304745175	-1.4361886414	 0.148584
72.8359	129.3783	135.9862	164.6624	221.8067	241.3436	252.1304	364.9462	419.7452	478.8965	501.9632	575.1796	614.4114	651.5778	664.3792	673.7942	852.782	882.8806	940.9793	966.6093	1018.0926	1070.0217	1105.8197	1163.1065	1172.9013	1190.7817	1215.9556	1303.092	1398.3379	1419.5861	1488.6061	1491.4471	1525.9821	2244.4556	2363.5591	3057.2334	3100.856	3111.3829	3141.1656	3151.2878	3197.0151	3499.7575
CC(C#C)(C#N)C1CO1	C[C@@](C#C)(C#N)[C@H]1CO1	
InChI=1S/C7H7NO/c1-3-7(2,5-8)6-4-9-6/h1,6H,4H2,2H3	InChI=1S/C7H7NO/c1-3-7(2,5-8)6-4-9-6/h1,6H,4H2,2H3/t6-,7-/m1/s1
