17
gdb 105859	2.10031	1.6623	1.2518	3.7718	69.72	-0.2303	-0.0109	0.2195	1071.5332	0.133633	-458.928824	-458.919918	-458.918974	-458.962612	32.519	
C	 0.0126337537	 1.3718049337	 0.2609862759	-0.266356
O	-0.0011299048	 0.0171442605	-0.1882156718	-0.277184
C	-1.2438277632	-0.5537481021	-0.1388296098	 0.291308
C	-1.8185917828	-1.1169572282	 1.1379478924	 0.025911
O	-3.0732441406	-0.7023466753	 1.5942680085	-0.417969
C	-1.6391480344	-2.0665999127	-0.0036996283	-0.211159
C	-2.79190249	-1.8853400224	-1.0045728675	-0.351783
C	-2.3131489852	-0.4243377669	-1.1946765859	 0.369257
O	-2.5366804982	 0.4132341492	-2.0210105763	-0.324343
H	 1.0469867096	 1.7130445397	 0.1892615665	 0.131101
H	-0.6254868111	 1.9998825407	-0.3702118029	 0.144758
H	-0.324710008	 1.4471551597	 1.303499546	 0.117661
H	-1.0482827824	-1.1911777658	 1.9074229094	 0.105592
H	-3.4507386014	-1.4139957236	 2.1233438572	 0.291487
H	-0.9663221814	-2.9134240237	 0.032491339	 0.115782
H	-2.6725723371	-2.4516098334	-1.9317785308	 0.132907
H	-3.8009973728	-2.0202254693	-0.6115138515	 0.123029
71.9496	105.6313	162.579	172.5021	252.8613	287.3688	302.2861	345.0737	421.303	483.0686	555.0114	610.0431	676.2138	715.3622	811.5794	859.5615	902.5685	974.998	991.7232	1017.7221	1048.4811	1055.7784	1126.9978	1136.6623	1180.2149	1207.5278	1219.2252	1233.7356	1283.5263	1297.3442	1344.8364	1438.0182	1462.7822	1486.2259	1495.6523	1507.4241	1880.8446	3009.4316	3073.8487	3081.2259	3098.9255	3131.8131	3134.4194	3206.2891	3797.2758
COC12C(O)C1CC2=O	CO[C@]12[C@@H](O)[C@H]1CC2=O	
InChI=1S/C6H8O3/c1-9-6-3(5(6)8)2-4(6)7/h3,5,8H,2H2,1H3	InChI=1S/C6H8O3/c1-9-6-3(5(6)8)2-4(6)7/h3,5,8H,2H2,1H3/t3-,5+,6-/m1/s1
