13
gdb 6427	3.88565	1.57516	1.36174	4.0862	58.92	-0.2983	-0.0151	0.2832	895.9679	0.094339	-398.639678	-398.632322	-398.631378	-398.671404	26.56	
C	-0.2941004598	 1.6546868359	-0.0240289365	-0.436221
C	 0.0020110721	 0.1640821623	-0.0715581867	 0.254232
C	 0.8346119861	-0.3617398667	-1.2720187386	-0.457648
C	 1.8907686717	-0.6448457114	-0.2063872512	 0.454981
O	 2.9924622305	-1.0747144544	-0.1466612738	-0.294509
O	 1.108258504	-0.1897399034	 0.8351526446	-0.256343
C	-1.1823268681	-0.6402054213	 0.2422114519	 0.270392
N	-2.1317740884	-1.2590893895	 0.4650481977	-0.317672
H	 0.6142899009	 2.2157875462	-0.257314978	 0.141975
H	-1.0699081601	 1.9099759833	-0.7510385576	 0.15088
H	-0.6406585824	 1.941214009	 0.9715219058	 0.160882
H	 0.4494879627	-1.2507999174	-1.7716531976	 0.170898
H	 1.1150098309	 0.3919980273	-2.0089509001	 0.158155
89.4172	185.7759	196.1535	231.1789	319.3706	391.1875	475.4785	520.4025	526.6689	596.641	624.2829	797.5297	862.3094	896.9751	948.5554	977.433	1053.4781	1087.3654	1168.5299	1217.917	1234.4054	1267.0675	1412.8442	1452.4645	1479.7864	1489.2032	1959.6539	2363.4331	3052.271	3098.6651	3132.9716	3139.0943	3161.5661
CC1(CC(=O)O1)C#N	C[C@]1(CC(=O)O1)C#N	
InChI=1S/C5H5NO2/c1-5(3-6)2-4(7)8-5/h2H2,1H3	InChI=1S/C5H5NO2/c1-5(3-6)2-4(7)8-5/h2H2,1H3/t5-/m0/s1
