15
gdb 12060	4.59329	1.61299	1.49094	0.8581	61.78	-0.2563	-0.0449	0.2115	858.5176	0.118227	-399.755077	-399.748021	-399.747077	-399.786312	26.787	
O	-0.0257624423	 1.458053149	-0.0185414768	-0.478023
C	-0.0413399465	 0.0696685334	 0.0172326129	 0.316492
C	 0.1885763519	-0.6512739706	 1.395724087	-0.238475
N	-1.0989203688	-1.4126825724	 1.28552456	-0.122991
C	-2.1441319877	-0.3787914696	 1.2565298199	-0.243953
C	-1.403633176	-0.6353295152	 0.007751515	-0.081637
C	 0.8856647697	-0.4942206685	-1.0342677534	 0.110121
O	 1.5291804658	 0.2220099425	-1.7629294859	-0.278919
H	 0.5975910729	 1.7002778101	-0.7234267217	 0.292927
H	 1.0427052171	-1.3314881209	 1.4237405297	 0.118544
H	 0.2372352834	 0.0370737431	 2.2440750912	 0.126974
H	-3.1475797325	-0.7880240053	 1.317590248	 0.12943
H	-1.9906226348	 0.5508649953	 1.7988435331	 0.133809
H	-1.8632367105	-1.1044088364	-0.8566820483	 0.102362
H	 0.9454174882	-1.5993056543	-1.0918901007	 0.11334
110.054	132.2113	285.1499	310.2891	387.0624	424.3807	454.09	505.6761	558.6608	745.1505	774.2793	818.5846	858.7122	892.7025	941.4268	977.6929	1009.6766	1055.2671	1087.4963	1099.6564	1116.9183	1125.6438	1188.0644	1225.073	1271.683	1293.2197	1345.5141	1388.0895	1441.1518	1483.8024	1507.2451	1809.689	2943.3246	3057.7696	3113.7582	3118.6935	3159.7744	3207.372	3670.4372
OC1(CN2CC12)C=O	O[C@]1(CN2C[C@@H]12)C=O	
InChI=1S/C5H7NO2/c7-3-5(8)2-6-1-4(5)6/h3-4,8H,1-2H2	InChI=1S/C5H7NO2/c7-3-5(8)2-6-1-4(5)6/h3-4,8H,1-2H2/t4-,5+,6?/m0/s1
