17
gdb 110848	2.76228	1.51255	1.29153	0.9906	68.84	-0.213	0.0498	0.2628	1038.8874	0.136711	-455.127927	-455.119775	-455.118831	-455.160639	30.805	
C	 0.2776712259	 0.8421075804	 0.3269532768	-0.237991
O	-0.1960702463	-0.024552744	-0.6932564123	-0.237227
C	-1.3940289076	-0.6322651917	-0.3652682256	 0.067646
C	-1.6306969973	-2.0341062137	-0.8458143535	-0.006254
O	-0.4788439261	-2.7679291533	-1.2197147353	-0.237382
C	 0.2779161249	-2.8546785351	-0.0875066102	 0.482369
N	 1.459662198	-3.5195767109	-0.2571373066	-0.581938
N	-0.1937202778	-2.3760472807	 1.0031483329	-0.34831
C	-1.4508918189	-1.7714943376	 0.651110276	-0.095835
H	 1.2193241729	 1.2659941008	-0.0298219257	 0.123173
H	-0.4307986843	 1.6617713555	 0.5167625844	 0.104677
H	 0.4507170834	 0.2926397533	 1.2600047657	 0.135045
H	-2.2722071234	 0.0169376617	-0.3834394731	 0.089532
H	-2.5194824586	-2.3433598212	-1.3804793407	 0.11128
H	 1.835675354	-3.4913669926	-1.1918781202	 0.267332
H	 2.1332681268	-3.3531997257	 0.4736539501	 0.26942
H	-2.2455033757	-1.8056167053	 1.3878557971	 0.094464
90.5121	142.0599	181.0594	205.6452	295.1786	334.4947	358.8577	419.6457	543.1018	616.5029	656.4141	685.4576	713.4348	786.8946	796.2575	820.5581	932.4049	953.1058	1002.6445	1040.0869	1081.2428	1085.7612	1092.7728	1125.1959	1179.8386	1192.2688	1211.7805	1254.0076	1283.9043	1336.9057	1409.0646	1427.7566	1482.5824	1488.6215	1505.547	1616.7135	1732.9796	2993.8293	3064.3043	3078.2881	3121.1671	3170.2702	3196.1687	3596.2081	3707.8149
COC1C2OC(N)=NC12	CO[C@H]1[C@H]2OC(=N[C@@H]12)N	
InChI=1S/C5H8N2O2/c1-8-3-2-4(3)9-5(6)7-2/h2-4H,1H3,(H2,6,7)	InChI=1S/C5H8N2O2/c1-8-3-2-4(3)9-5(6)7-2/h2-4H,1H3,(H2,6,7)/t2-,3+,4-/m0/s1
