23
gdb 68108	4.27497	0.99846	0.98633	0.0776	90.92	-0.2616	0.0929	0.3544	1351.3628	0.206247	-351.104662	-351.095968	-351.095024	-351.137995	34.721	
C	 0.0278451065	 1.4658493773	-0.0206814624	-0.50783
C	-0.009997907	-0.0390855443	-0.0010764246	 0.33239
C	 0.7254197669	-1.0186703267	-0.964726514	-0.293566
C	-0.0545068027	-1.9338503641	 0.0312080629	 0.373741
C	 0.4389037788	-0.9782945348	 1.1620465986	-0.298002
C	-1.2599146215	-0.9581378336	-0.1496412353	-0.293541
C	-0.0958341354	-3.4240160693	 0.0412350165	-0.133235
C	 0.9799934192	-4.2226819872	 0.7372017826	-0.268328
C	-0.4146908654	-4.1800917335	 1.3086419199	-0.268324
H	 1.0504509996	 1.8368214908	 0.110697584	 0.115914
H	-0.3505523191	 1.8565346714	-0.9718746284	 0.116304
H	-0.5870721211	 1.8867526275	 0.7826372457	 0.115914
H	 0.3872169688	-1.0285307336	-2.0059435926	 0.080649
H	 1.8178862514	-1.0448357505	-0.9005220304	 0.082371
H	 1.5096920075	-0.994085684	 1.389396871	 0.083429
H	-0.1626925072	-0.9430914874	 2.0760299203	 0.083426
H	-1.9920243126	-0.9286818504	 0.6636468299	 0.082366
H	-1.7513043959	-0.9633315546	-1.1279662472	 0.080649
H	-0.4853781038	-3.8572848379	-0.8772109722	 0.077438
H	 1.3201323069	-5.1409132986	 0.2712823147	 0.108372
H	 1.7562149943	-3.6754063002	 1.2613156781	 0.110748
H	-0.5706470786	-3.6043534189	 2.2146939842	 0.11074
H	-1.0312201896	-5.0691056173	 1.2346868188	 0.108372
59.2183	144.9448	148.5067	209.5862	285.5639	292.1036	391.9355	438.775	538.8082	552.795	581.8644	632.1108	768.9202	777.4868	793.6939	831.4998	897.1947	915.0649	929.964	949.1458	960.6336	972.588	994.3665	1043.6769	1056.496	1075.7625	1076.2901	1081.3473	1111.7526	1133.7333	1141.0833	1147.053	1159.9472	1182.583	1200.1606	1209.6521	1210.4935	1221.8165	1306.4701	1335.9833	1409.5138	1425.8978	1468.5946	1490.2195	1490.5234	1495.5909	1496.5381	1503.9728	1561.1178	3023.6959	3030.0659	3031.0151	3042.7091	3090.8946	3091.5034	3092.4445	3099.2682	3100.0655	3127.5509	3130.7961	3136.286	3208.7741	3224.0097
CC12CC(C1)(C2)C1CC1	C[C@@]12C[C@@](C1)(C2)C1CC1	
InChI=1S/C9H14/c1-8-4-9(5-8,6-8)7-2-3-7/h7H,2-6H2,1H3	InChI=1S/C9H14/c1-8-4-9(5-8,6-8)7-2-3-7/h7H,2-6H2,1H3/t8-,9-
