21
gdb 69775	3.04415	1.3431	1.2722	1.3408	81.7	-0.2419	0.0831	0.325	1116.0036	0.182793	-387.081173	-387.072817	-387.071873	-387.113373	34.143	
C	 0.0882387477	 1.5226953627	 0.0137315577	-0.484216
C	 0.0706982164	 0.0124199481	 0.0224280012	 0.377643
C	-0.8298377215	-0.7140338306	 0.9965216551	-0.340093
C	 0.6695074596	-0.7988605137	 1.1615869458	-0.08402
C	 1.3234863328	-2.0161446767	 0.5820061473	-0.092442
C	 2.5127268642	-1.7739045057	-0.3325439978	-0.356073
C	 1.1331608814	-1.9777294257	-0.9119653591	 0.41455
O	 0.8509280511	-3.1706206183	-1.5829826298	-0.474062
C	 0.3406805606	-0.72502917	-1.29651589	-0.374442
H	 1.0362015376	 1.9083292889	-0.3805830497	 0.111547
H	-0.7172337454	 1.926973613	-0.6112716094	 0.116383
H	-0.0435374166	 1.9279414464	 1.0221925929	 0.113232
H	-1.3806643094	-0.1080215589	 1.708749536	 0.104453
H	-1.3571966409	-1.6019174108	 0.6601602254	 0.113496
H	 1.1321806438	-0.2962401511	 2.0063097714	 0.078376
H	 1.2691486812	-2.9670472308	 1.1020935902	 0.092645
H	 2.9626477442	-0.7856814361	-0.3574423747	 0.104723
H	 3.2052112542	-2.600151981	-0.4519963474	 0.108987
H	 1.2831899772	-3.1367216583	-2.4432538733	 0.279934
H	-0.5866358749	-1.0235236507	-1.7991519884	 0.102338
H	 0.8976080767	-0.0848816205	-1.9933582232	 0.087043
119.2192	195.7667	221.2056	274.3423	310.9874	363.5292	383.61	399.077	430.3121	439.4823	544.3427	606.3941	718.7976	750.0864	799.3178	861.8435	892.2229	913.6125	927.3401	936.7079	954.1981	993.8688	1019.4308	1027.0426	1048.8624	1064.1682	1092.6802	1106.0404	1111.1409	1129.5072	1186.6436	1230.1774	1250.2966	1282.8067	1296.0449	1320.5189	1338.2831	1398.8039	1402.8486	1420.9972	1472.4787	1488.3104	1488.9842	1497.7074	1505.4331	3012.3614	3018.665	3058.4671	3074.695	3094.6829	3119.0751	3119.8974	3144.5409	3163.7259	3205.6832	3214.1923	3795.4784
CC12CC1C1CC1(O)C2	C[C@]12C[C@H]1[C@@H]1C[C@]1(O)C2	
InChI=1S/C8H12O/c1-7-2-5(7)6-3-8(6,9)4-7/h5-6,9H,2-4H2,1H3	InChI=1S/C8H12O/c1-7-2-5(7)6-3-8(6,9)4-7/h5-6,9H,2-4H2,1H3/t5-,6-,7+,8-/m0/s1
