16
gdb 94147	1.94333	1.5375	1.29794	4.5469	75.41	-0.2771	0.0035	0.2806	1079.6605	0.122842	-400.712164	-400.70337	-400.702426	-400.745456	32.911	
O	 0.467736161	 0.8555024834	-0.7213855134	-0.411314
C	 0.1146371165	-0.1996534242	 0.0990917402	 0.136478
C	-0.0684274128	-0.0084644286	 1.6254817037	-0.269628
C	-1.2426412503	-1.0156246343	 1.5854021177	-0.253436
C	-1.3855842829	-0.7660509223	 0.0364826235	-0.079134
C	-2.3151981004	 0.3065811102	-0.2797135705	 0.279011
C	-3.0175780402	 1.2507044415	-0.5272833513	-0.425684
C	-1.599902336	-1.9412205531	-0.7993567178	 0.232449
N	-1.7272162664	-2.8959590885	-1.4385543319	-0.339072
H	-0.220643658	 1.5309033553	-0.6575498658	 0.288579
H	 0.8004470349	-1.0210991975	-0.121042893	 0.123467
H	 0.786039148	-0.2422483822	 2.2616533393	 0.118956
H	-0.4154313316	 1.0039933337	 1.8495721123	 0.117947
H	-0.9242965675	-2.0425651765	 1.7722233281	 0.135569
H	-2.1310015923	-0.7952965888	 2.1756537468	 0.131792
H	-3.675481822	 2.0546180119	-0.7514969676	 0.21402
112.7544	125.7952	144.4849	156.9122	237.7739	324.9175	410.8329	422.7867	467.1883	511.3685	532.5894	584.0664	624.2101	642.8244	672.0568	687.4647	797.608	898.885	904.5237	954.8154	988.7959	1086.9657	1108.9882	1165.57	1175.5306	1215.5255	1247.8286	1259.5813	1304.2249	1347.1381	1441.4983	1481.1625	1495.1697	2231.8244	2354.5171	3070.8182	3090.2745	3095.1712	3132.9241	3157.2207	3496.6094	3760.1251
OC1CCC1(C#C)C#N	O[C@H]1CC[C@]1(C#C)C#N	
InChI=1S/C7H7NO/c1-2-7(5-8)4-3-6(7)9/h1,6,9H,3-4H2	InChI=1S/C7H7NO/c1-2-7(5-8)4-3-6(7)9/h1,6,9H,3-4H2/t6-,7+/m0/s1
