19
gdb 92111	2.7457	1.63309	1.37456	1.6056	74.29	-0.2346	0.0736	0.3081	1009.8734	0.159864	-422.998281	-422.990639	-422.989695	-423.029892	31.214	
C	-0.2791652921	 1.5553858019	-0.0046858625	-0.398399
C	 0.0413742949	 0.0634582242	-0.0103057418	 0.116366
O	 0.7157202098	-0.3252179803	-1.2233983078	-0.283726
C	 2.0069465502	-0.8049111946	-0.8759967637	 0.089956
C	 2.9036201749	 0.3392650117	-0.2950927861	-0.321389
C	 2.430135801	-0.1017718897	 1.0879627662	 0.383751
O	 3.0432470641	 0.1942776818	 2.2879680058	-0.461701
C	 1.9180857863	-1.4380054887	 0.5340085039	-0.193034
C	 0.9551817144	-0.4297073374	 1.1054353981	-0.111922
H	 0.6295649918	 2.1623631798	 0.0137360546	 0.122302
H	-0.8570896318	 1.8223021359	-0.8940614887	 0.123319
H	-0.8759307041	 1.8076136264	 0.8787222539	 0.112554
H	-0.9033132744	-0.4986068866	 0.0298880875	 0.0757
H	 2.4016385445	-1.3825111101	-1.7101214919	 0.083269
H	 3.9678581354	 0.1096649038	-0.426662739	 0.087867
H	 2.7031494362	 1.3562341766	-0.6453231866	 0.100535
H	 3.9742873493	-0.0459902113	 2.216932621	 0.284316
H	 2.0333754061	-2.467703116	 0.8430604	 0.09234
H	 0.5440965034	-0.6070373671	 2.0924673669	 0.097898
153.0957	189.187	219.4086	306.7159	340.2768	385.2024	431.2034	456.3877	525.8362	589.9446	664.9242	708.1826	773.7429	833.4956	854.0616	872.8051	897.6803	902.9577	950.5165	971.2605	1004.4694	1018.5672	1056.3163	1091.1612	1109.4525	1131.4068	1150.4136	1155.4968	1187.1696	1234.6793	1244.6328	1302.4154	1310.585	1348.0184	1357.875	1387.0705	1407.5775	1447.9171	1487.8533	1494.1997	1509.0071	2990.6996	3030.9925	3039.7427	3090.1032	3108.4385	3126.6086	3132.5417	3190.5079	3211.5104	3787.7544
CC1OC2CC3(O)C2C13	C[C@H]1O[C@H]2C[C@]3(O)[C@H]2[C@H]13	
InChI=1S/C7H10O2/c1-3-5-6-4(9-3)2-7(5,6)8/h3-6,8H,2H2,1H3	InChI=1S/C7H10O2/c1-3-5-6-4(9-3)2-7(5,6)8/h3-6,8H,2H2,1H3/t3-,4+,5+,6-,7-/m1/s1
