16
gdb 96753	3.06894	0.95859	0.7668	1.7757	75.7	-0.249	-0.0521	0.1969	1422.8873	0.121721	-434.079284	-434.069291	-434.068346	-434.1152	33.721	
C	 0.2806982009	 0.8504741259	 0.6432598882	-0.34498
N	-0.0333119259	-0.4528566305	 0.1018351393	-0.280065
C	-1.2284276273	-0.790169529	-0.1749408646	 0.305576
N	-1.5305942596	-2.0547900958	-0.6261961217	-0.344874
C	-0.4490208669	-2.9425391784	-1.0019619216	-0.250627
C	 0.3824626631	-3.3817038945	 0.203232756	 0.186661
O	 1.4700127249	-3.8781663585	 0.1007634149	-0.238242
C	-2.3949811902	 0.0723231126	-0.0255515455	 0.231089
N	-3.3066046335	 0.7741496519	 0.0884409734	-0.325052
H	 0.7485844062	 0.7278375185	 1.6267658982	 0.140963
H	 1.0222296859	 1.3353702459	-0.0010013181	 0.140573
H	-0.5839589909	 1.5196132826	 0.7488250473	 0.131836
H	-2.4287930779	-2.1809734679	-1.0625396779	 0.267421
H	-0.8904822844	-3.8430492783	-1.4426720167	 0.139729
H	 0.2303792537	-2.4966620446	-1.738507612	 0.149721
H	-0.1265150982	-3.24693129	 1.1826592308	 0.09027
48.4045	69.786	136.9273	144.474	149.0301	194.163	238.9244	281.7132	333.7185	399.0748	405.2005	459.7179	627.3805	635.9259	706.0039	720.7618	811.8182	1026.1898	1063.8999	1091.7334	1126.9792	1134.8879	1166.6337	1278.9995	1287.3785	1331.9889	1406.2378	1441.7131	1450.8053	1481.8312	1502.3826	1520.955	1722.1426	1847.1283	2346.5193	2897.4481	3004.5969	3034.454	3076.3486	3083.7006	3089.8455	3651.5203
CN=C(NCC=O)C#N	CN=C(NCC=O)C#N	
InChI=1S/C5H7N3O/c1-7-5(4-6)8-2-3-9/h3H,2H2,1H3,(H,7,8)	InChI=1S/C5H7N3O/c1-7-5(4-6)8-2-3-9/h3H,2H2,1H3,(H,7,8)
