17
gdb 13800	2.80905	1.79879	1.34961	2.6733	65.08	-0.24	0.0262	0.2662	961.0081	0.141032	-401.003497	-400.994714	-400.99377	-401.037245	31.433	
C	-0.094239237	 0.8117007175	-0.3890670333	-0.253803
O	-0.5018377589	-0.2736336251	 0.4373593983	-0.236758
C	 0.4783572795	-0.6569659488	 1.3389058379	 0.148393
C	 0.3656662087	-2.0423454702	 1.888549368	-0.352804
C	 1.4985476113	-1.7047486266	 0.9360010988	-0.164872
C	 1.5486360874	-2.1805939907	-0.4963909376	 0.401312
N	 0.9341553543	-3.3690665723	-0.753245873	-0.511653
O	 2.1172851917	-1.539975197	-1.3623924835	-0.37388
H	 0.7936718656	 0.5513527351	-0.9751607588	 0.151101
H	-0.930066296	 1.0270452075	-1.0582605752	 0.124109
H	 0.1167154663	 1.7072652684	 0.2145026159	 0.101833
H	 0.8250808602	 0.1395688401	 1.9993793719	 0.086382
H	 0.5921967582	-2.2192815951	 2.9338765199	 0.118649
H	-0.4642833799	-2.6215640106	 1.4973424196	 0.124276
H	 2.4917214643	-1.5828751787	 1.3576263655	 0.11643
H	 0.5820886395	-3.9543241101	-0.017636821	 0.260838
H	 0.9958979347	-3.7408538035	-1.6869642635	 0.260446
40.8079	126.3907	157.6951	201.6589	214.4131	240.4467	293.2639	402.5409	493.253	499.3056	523.7165	640.9097	734.2853	779.61	813.6912	836.4041	976.2833	995.8397	1070.1953	1079.6967	1098.6567	1100.1318	1126.5126	1159.5857	1192.4546	1220.3805	1260.195	1320.2496	1390.6438	1404.007	1469.0442	1488.5121	1495.9406	1514.8877	1609.7335	1779.4888	2992.4428	3076.904	3088.1395	3129.0876	3133.1105	3158.6993	3221.788	3607.3081	3747.3792
COC1CC1C(N)=O	CO[C@H]1C[C@H]1C(=O)N	
InChI=1S/C5H9NO2/c1-8-4-2-3(4)5(6)7/h3-4H,2H2,1H3,(H2,6,7)	InChI=1S/C5H9NO2/c1-8-4-2-3(4)5(6)7/h3-4H,2H2,1H3,(H2,6,7)/t3-,4+/m1/s1
