15
gdb 25839	3.89156	1.26217	0.95863	0.5569	74.12	-0.2538	-0.0832	0.1707	1158.3075	0.113895	-416.882984	-416.875304	-416.87436	-416.915794	27.762	
C	-0.0487482788	 1.5021134504	 0.0093798207	-0.478595
C	 0.033624529	-0.0050385732	 0.0038364135	 0.331281
O	 1.0823729585	-0.6116524315	-0.0066251827	-0.290782
C	-1.2704247598	-0.7737190094	 0.0111233866	 0.208755
N	-2.4142449127	-0.0788769222	 0.0223923139	-0.301549
C	-3.5381581747	-0.7954514196	 0.0285600107	 0.067874
N	-3.6429456505	-2.1255266834	 0.0245950688	-0.24253
C	-2.4900024962	-2.8013620355	 0.0133087634	 0.022452
C	-1.2549945452	-2.1665291945	 0.0060721443	-0.158912
H	 0.9592704014	 1.9167564638	 0.0032421781	 0.138246
H	-0.6140291691	 1.8535222651	-0.8592643426	 0.153897
H	-0.6011557257	 1.8478482602	 0.8885016916	 0.153882
H	-4.4702351104	-0.2356984132	 0.0376198628	 0.126893
H	-2.564151138	-3.886254233	 0.0099987377	 0.129027
H	-0.314985708	-2.702705954	-0.0030468267	 0.14006
64.7688	133.545	151.4155	203.7812	355.9229	371.5243	440.4405	482.9216	593.7958	621.3432	682.1356	768.2307	807.7027	886.5219	960.5591	997.9127	1011.0914	1031.6234	1049.3238	1082.7501	1123.7764	1190.5233	1242.656	1304.5877	1322.8051	1388.9237	1422.1578	1452.277	1463.2331	1495.1833	1595.9367	1611.1674	1795.8229	3052.0553	3113.7808	3161.6122	3162.909	3168.9149	3228.452
CC(=O)C1=NC=NC=C1	CC(=O)c1ncncc1	
InChI=1S/C6H6N2O/c1-5(9)6-2-3-7-4-8-6/h2-4H,1H3	InChI=1S/C6H6N2O/c1-5(9)6-2-3-7-4-8-6/h2-4H,1H3
