21
gdb 120775	3.17389	0.84276	0.73945	2.6653	78.98	-0.252	0.0822	0.3341	1578.1254	0.181791	-424.181555	-424.171971	-424.171027	-424.216823	34.995	
O	-0.0224000347	 1.3644181794	 0.2912562761	-0.42071
C	-0.1258456821	-0.0486140675	 0.3714486458	-0.05098
C	-1.3909111034	-0.5897048324	-0.3018384253	-0.24237
C	-1.4512846071	-2.1035402634	-0.2805890085	-0.009593
C	-1.9856120247	-2.8479078827	 0.9230673522	-0.301805
C	-2.7553622919	-2.8677240321	-0.3726287829	-0.060298
C	-4.0774819002	-2.1727101477	-0.4849905396	 0.061668
C	-5.1863442005	-2.4535481738	 0.4392685483	-0.177095
O	-4.4344373772	-1.2415747475	 0.54092053	-0.228527
H	-0.7818376617	 1.7378577267	 0.7499668393	 0.280572
H	 0.76568381	-0.4374594691	-0.1338530204	 0.105183
H	-0.0812073702	-0.3973332199	 1.4155631892	 0.08891
H	-2.2714699079	-0.1766144334	 0.2030243098	 0.117862
H	-1.4144678481	-0.2211288176	-1.3352186301	 0.101545
H	-0.6146083108	-2.5825596849	-0.7853539822	 0.083172
H	-1.4882622104	-3.7544850646	 1.248877726	 0.108343
H	-2.4098907645	-2.2464271685	 1.7202944189	 0.127399
H	-2.7204080738	-3.7874975462	-0.9522042541	 0.089206
H	-4.3413941315	-1.8317865522	-1.487985205	 0.094732
H	-6.2166834918	-2.3339178555	 0.1082200435	 0.115802
H	-5.0312434976	-3.1636871071	 1.249756199	 0.116984
65.6027	93.9446	96.2792	118.6467	205.8348	226.8682	302.7922	316.7774	366.769	457.5572	526.4108	603.7945	732.1207	788.5399	822.9388	852.3119	863.2151	912.9725	956.0204	971.131	1005.0366	1046.1673	1076.4995	1081.1764	1093.0584	1103.1031	1121.4394	1139.0293	1145.4663	1162.1552	1173.6007	1219.4175	1238.1209	1289.733	1298.3196	1322.1505	1378.9576	1396.0875	1423.1678	1426.0415	1435.4268	1486.6963	1495.1993	1515.5431	1520.6148	2977.9048	3028.6712	3056.0656	3081.5982	3085.7339	3090.9017	3121.7325	3131.9057	3136.577	3176.9323	3222.1213	3814.0809
OCCC1CC1C1CO1	OCC[C@H]1C[C@H]1[C@H]1CO1	
InChI=1S/C7H12O2/c8-2-1-5-3-6(5)7-4-9-7/h5-8H,1-4H2	InChI=1S/C7H12O2/c8-2-1-5-3-6(5)7-4-9-7/h5-8H,1-4H2/t5-,6+,7+/m0/s1
