21
gdb 98659	3.06544	0.9569	0.86518	1.7384	79.16	-0.2325	-0.0136	0.2189	1466.812	0.179829	-424.238831	-424.228677	-424.227733	-424.27582	35.974	
C	-0.7188545959	 1.6111480679	-0.1645125099	-0.379487
C	-1.0154449917	 0.1376244541	-0.4274164351	-0.27829
C	-0.8473099702	-0.7406712984	 0.7970524163	 0.338819
O	-0.5110788547	-0.3186727361	 1.8807847293	-0.306169
C	-1.1019192916	-2.2334150161	 0.6050458778	 0.057073
C	-1.8684634485	-2.9706546544	 1.7164410497	-0.311053
C	-2.8606610866	-3.341470682	 0.5897018778	 0.169686
C	-4.3051351597	-2.9076137002	 0.7230425476	-0.395993
O	-2.1234922116	-2.5321948149	-0.3713013975	-0.312449
H	-0.8519671563	 2.2007500677	-1.0757416633	 0.110338
H	-1.3833571529	 2.0114269365	 0.6057192105	 0.129276
H	 0.3059028099	 1.7482018611	 0.1906178058	 0.129021
H	-2.0342035574	-0.0217039678	-0.8010668412	 0.140387
H	-0.3708483656	-0.2704633614	-1.2193110825	 0.1244
H	-0.1414719524	-2.6986510574	 0.331317203	 0.099032
H	-1.3460971047	-3.7997172262	 2.1934486732	 0.113299
H	-2.2682513041	-2.3049867719	 2.483362783	 0.124621
H	-2.8060347603	-4.3992520371	 0.2997212045	 0.078479
H	-4.3709156052	-1.8597555566	 1.0323507726	 0.120235
H	-4.8289680733	-3.019390812	-0.2315015312	 0.128579
H	-4.8188925173	-3.5234535646	 1.4693505097	 0.120197
24.2569	42.4649	72.6029	158.7886	182.8894	231.1775	277.2097	282.6527	328.0523	413.272	445.9501	497.0627	615.1418	706.962	768.0346	803.1601	877.2008	894.9185	915.8042	959.0949	1001.3688	1018.9213	1038.8756	1080.4204	1092.7869	1118.5381	1131.9622	1161.5904	1194.6348	1253.0515	1256.7043	1266.9169	1319.6408	1342.7513	1376.4874	1390.814	1409.4629	1414.3786	1447.4426	1482.4249	1491.6222	1493.0884	1497.8824	1498.817	1803.5563	2977.3031	3011.934	3022.0403	3033.1177	3050.3021	3063.2688	3087.7639	3106.6646	3112.1173	3121.5965	3124.2489	3144.697
CCC(=O)C1CC(C)O1	CCC(=O)[C@H]1C[C@@H](C)O1	
InChI=1S/C7H12O2/c1-3-6(8)7-4-5(2)9-7/h5,7H,3-4H2,1-2H3	InChI=1S/C7H12O2/c1-3-6(8)7-4-5(2)9-7/h5,7H,3-4H2,1-2H3/t5-,7-/m1/s1
