15
gdb 24695	3.8498	1.61753	1.15571	3.9627	72.86	-0.2472	-0.0302	0.217	993.1197	0.117087	-416.876769	-416.870228	-416.869284	-416.908777	24.538	
C	 0.0327219806	 1.3630107777	-0.1670983052	-0.092745
C	 1.4749412429	 1.8711816815	 0.1275205927	-0.377639
C	 2.127250362	 0.6184228504	 0.6483856507	 0.154136
C	 3.3912355372	 0.2693803433	 1.0646563484	-0.095611
N	 3.6672299275	-0.9738799955	 1.5077761002	-0.26711
C	 2.6544553269	-1.8333753068	 1.5221890787	 0.066945
N	 1.3817951126	-1.6209301805	 1.1441563423	-0.340608
C	 1.1624547532	-0.3947594136	 0.7158126503	 0.43783
O	-0.0548872385	-0.0083379829	 0.2974795951	-0.251951
H	-0.7362526909	 1.9362229029	 0.3550440253	 0.131402
H	-0.1969895772	 1.3633222816	-1.2361425613	 0.129954
H	 1.9557463813	 2.2609797263	-0.7742869687	 0.133405
H	 1.4750570335	 2.6762806098	 0.8694465931	 0.134153
H	 4.2182873053	 0.9759370597	 1.054981992	 0.116016
H	 2.8759401233	-2.8351192341	 1.8821600264	 0.121824
31.4734	195.9393	257.1337	404.7012	428.2063	560.5274	590.6791	640.6996	716.125	791.8358	817.3913	844.695	892.2455	953.7246	959.3798	1008.012	1016.8572	1079.711	1125.881	1191.3088	1214.191	1247.35	1265.8642	1269.9394	1316.8504	1342.1339	1394.3372	1442.0201	1482.3741	1495.4713	1527.8494	1620.8861	1640.5884	3047.6805	3063.7233	3082.3189	3115.2068	3152.717	3167.3543
C1CC2=CN=CN=C2O1	C1Cc2cncnc2O1	
InChI=1S/C6H6N2O/c1-2-9-6-5(1)3-7-4-8-6/h3-4H,1-2H2	InChI=1S/C6H6N2O/c1-2-9-6-5(1)3-7-4-8-6/h3-4H,1-2H2
