20
gdb 58750	2.4726	1.41117	1.31538	2.3101	79.64	-0.1996	0.0137	0.2133	1113.7568	0.170281	-403.101631	-403.092704	-403.09176	-403.135415	33.563	
C	 0.0135958948	 1.4500956763	-0.0532678492	-0.343373
N	-0.0432916456	-0.0045231845	 0.04505986	-0.186304
C	 0.8018999677	-0.5289851583	 1.1124020806	-0.343298
C	-1.3654654373	-0.5100606138	 0.0797238474	 0.293731
C	-2.487025358	-0.2825603209	-0.9982110287	-0.287709
C	-3.164184128	-1.2632568407	 0.0159291858	-0.179252
C	-1.7953029427	-2.0213915994	 0.0364781102	-0.287817
C	-2.5408636609	-0.3697496762	 1.1008792726	 0.403754
O	-2.8168397759	 0.1409803415	 2.1432950791	-0.335577
H	 1.0532491765	 1.7592121401	-0.1982467935	 0.11968
H	-0.5613265598	 1.7855428897	-0.9209215113	 0.123776
H	-0.376845709	 1.9642839069	 0.8413558102	 0.118284
H	 0.4876695603	-0.2039765463	 2.118828987	 0.117997
H	 0.7958610323	-1.6222277009	 1.0866697619	 0.123818
H	 1.8312239634	-0.1941665119	 0.9516228842	 0.11973
H	-2.9127861479	 0.7178447737	-1.0937425588	 0.111394
H	-2.2598174692	-0.7270450977	-1.970018341	 0.110266
H	-4.1593362678	-1.6924688888	-0.0400846971	 0.099227
H	-1.5454635254	-2.5230865054	-0.9012822574	 0.110252
H	-1.5757983876	-2.6433529332	 0.9060474982	 0.111424
50.5476	124.7202	191.0492	201.0947	231.3008	237.9111	334.377	359.4196	451.3029	499.4602	526.5623	644.5835	731.6238	746.0442	786.7451	823.0867	914.6131	949.7199	955.5611	995.448	1008.0081	1039.7295	1070.9372	1076.9762	1114.9676	1126.6717	1149.256	1174.2285	1188.4921	1196.6931	1212.8528	1251.3302	1259.8591	1390.0704	1441.6371	1477.6466	1481.8901	1493.0778	1497.5514	1501.7803	1520.2866	1537.3514	1902.1441	2963.178	2967.961	3064.3058	3064.7968	3069.8573	3070.5318	3110.2624	3112.5949	3137.1887	3137.986	3177.3277
CN(C)C12CC(C1)C2=O	CN(C)[C@@]12C[C@@H](C1)C2=O	
InChI=1S/C7H11NO/c1-8(2)7-3-5(4-7)6(7)9/h5H,3-4H2,1-2H3	InChI=1S/C7H11NO/c1-8(2)7-3-5(4-7)6(7)9/h5H,3-4H2,1-2H3/t5-,7-
