15
gdb 28364	3.23314	1.43309	0.99904	2.0095	73.57	-0.2235	-0.0378	0.1857	1122.3309	0.113626	-454.002301	-453.994524	-453.993579	-454.034599	29.291	
C	-0.0308315717	 1.5191660267	 0.0109039777	-0.475122
C	-0.0078744964	 0.0210466745	-0.0311058786	 0.205044
C	-0.0353870154	-0.7079374882	-1.1695686661	-0.091596
N	-0.0143038501	-2.0926817616	-1.2190353119	-0.41239
C	 0.0348141955	-2.6758423304	-0.0785995147	 0.503464
O	 0.0607666545	-3.999889143	 0.0468314414	-0.378094
O	 0.0668996913	-2.1026631012	 1.1237485952	-0.225969
C	 0.0475672223	-0.6910845298	 1.2327158819	 0.332618
N	 0.0785451137	-0.1539612555	 2.3776364102	-0.531158
H	 0.8582716641	 1.909385426	 0.5170484353	 0.144021
H	-0.0746570657	 1.9358930194	-0.9986832883	 0.117231
H	-0.892682233	 1.8806361216	 0.581377723	 0.144101
H	-0.0770376007	-0.2187386146	-2.1379722166	 0.116346
H	 0.0353750309	-4.3543683734	-0.8532342825	 0.321751
H	 0.1156464607	-0.8541539103	 3.117733234	 0.229753
115.7851	147.9566	169.064	281.2671	327.1143	358.113	418.2925	476.5562	541.2677	555.8475	572.5735	732.7718	746.3191	769.4535	790.3029	849.3255	954.3678	979.9498	990.7516	1042.582	1074.1663	1166.2644	1201.4993	1256.2777	1324.8011	1402.7288	1417.1468	1467.7575	1472.2139	1488.4641	1635.481	1681.2919	1753.5326	3037.767	3094.0178	3121.0426	3178.4381	3502.3074	3781.1766
CC1=CN=C(O)OC1=N	CC1=C(OC(=NC1)O)[NH]	
InChI=1S/C5H6N2O2/c1-3-2-7-5(8)9-4(3)6/h2,6H,1H3,(H,7,8)	InChI=1S/C5H7N2O2/c1-3-2-7-5(8)9-4(3)6/h6H,2H2,1H3,(H,7,8)
