17
gdb 21205	5.15095	1.33419	1.08332	1.8673	72.41	-0.1858	0.0358	0.2217	1100.6186	0.143409	-360.066793	-360.058273	-360.057328	-360.100604	30.111	
C	 0.0959720676	 1.3775181027	 0.1321358711	-0.32164
N	-0.0241944475	-0.018170392	-0.2491121927	-0.366545
C	-1.2502433283	-0.6483367326	-0.0870450262	 0.405462
N	-1.3071498683	-1.963013949	 0.114370722	-0.334284
N	-2.6409960054	-2.2291475947	 0.1565832067	-0.254912
C	-3.4175160598	-1.1316256568	 0.0039969629	 0.394065
C	-4.9103775051	-1.1850799671	 0.0317928904	-0.504057
C	-2.5458147438	-0.0711657378	-0.1573839102	-0.380775
H	 1.1298826673	 1.6981462853	-0.0178441703	 0.121686
H	-0.5342689851	 1.998626497	-0.5130085811	 0.129589
H	-0.1855543206	 1.582336606	 1.177690237	 0.108206
H	 0.7319103558	-0.6019087492	 0.0805890498	 0.237456
H	-2.9385340584	-3.1777057031	 0.3026816518	 0.26394
H	-5.2910307949	-1.4894820384	 1.0140010019	 0.134885
H	-5.324629451	-0.2003649188	-0.1937616028	 0.141014
H	-5.3058799338	-1.8908072019	-0.707631146	 0.133489
H	-2.8133269087	 0.9611685405	-0.3105118143	 0.092421
38.425	79.1609	148.4716	194.447	218.2329	318.1793	355.4101	426.7673	474.332	565.5965	652.4146	662.9104	727.4979	768.6932	770.7784	983.507	997.4201	1044.1068	1060.2537	1085.9912	1148.0916	1154.0439	1192.8883	1207.8917	1313.3137	1401.8128	1418.7286	1446.2111	1457.923	1482.8095	1487.7316	1497.5988	1516.3788	1528.7834	1564.4826	1627.8998	2972.7033	3028.1739	3065.2823	3077.4605	3114.5789	3129.0514	3268.1809	3590.1767	3684.3017
CNC1=NNC(C)=C1	CNc1n[nH]c(C)c1	
InChI=1S/C5H9N3/c1-4-3-5(6-2)8-7-4/h3H,1-2H3,(H2,6,7,8)	InChI=1S/C5H9N3/c1-4-3-5(6-2)8-7-4/h3H,1-2H3,(H2,6,7,8)
