17
gdb 52135	5.78537	0.77487	0.69216	4.7309	71.59	-0.2487	0.0125	0.2612	1562.5821	0.136994	-455.188846	-455.180021	-455.179077	-455.224672	30.066	
O	-0.0694770529	-0.0703495613	-0.4168721224	-0.329687
C	-0.0175744618	 1.1379612309	-0.3065616122	 0.15579
N	 1.127945578	 1.8445602786	-0.1626963161	-0.278606
C	 2.4187926891	 1.1965531267	-0.1280405158	-0.233967
C	 3.4912213048	 2.2252879218	 0.0388510424	 0.416906
N	 3.3042260104	 3.4774612616	 0.1360262774	-0.328997
C	 4.6345024785	 4.0877939685	 0.2843144345	-0.187441
C	 5.6176804887	 2.8874064934	 0.2483000784	-0.112952
O	 4.7524331345	 1.7363015416	 0.0852837157	-0.25443
H	-0.9123472854	 1.7909378673	-0.3126248763	 0.078482
H	 1.1265816399	 2.8505942554	-0.0740480714	 0.267191
H	 2.4786752088	 0.4708172732	 0.6931637085	 0.153094
H	 2.602310875	 0.6240845707	-1.0463252504	 0.1531
H	 4.8117866905	 4.8000413207	-0.5278316692	 0.123681
H	 4.6873186989	 4.6455101815	 1.2247758639	 0.12368
H	 6.3116637497	 2.9126495336	-0.5956598123	 0.127079
H	 6.1860036232	 2.7566807258	 1.1726590952	 0.127077
18.4311	75.9165	97.2067	126.5286	216.9766	231.8035	294.7469	407.8074	551.2881	593.1747	673.1907	759.8809	827.9234	842.1113	930.0808	984.1727	997.4548	1018.6988	1034.7825	1039.9634	1073.8635	1122.3713	1214.3535	1216.1116	1231.9628	1241.9797	1247.2787	1326.8516	1367.1808	1420.6325	1423.6486	1495.6179	1503.8171	1525.2902	1527.1054	1740.7081	1801.4263	2942.8538	3030.2023	3046.7078	3051.02	3063.5495	3076.2527	3112.9448	3607.6454
O=CNCC1=NCCO1	O=CNCC1=NCCO1	
InChI=1S/C5H8N2O2/c8-4-6-3-5-7-1-2-9-5/h4H,1-3H2,(H,6,8)	InChI=1S/C5H8N2O2/c8-4-6-3-5-7-1-2-9-5/h4H,1-3H2,(H,6,8)
