16
gdb 60813	3.04787	1.11632	0.85327	1.9811	62.63	-0.271	-0.0469	0.2241	1270.3902	0.122518	-512.201583	-512.192451	-512.191507	-512.235871	33.418	
N	 0.0572725709	 1.2908974257	 0.0019317998	-0.514478
C	 0.0970518349	-0.0564642459	-0.0201715575	 0.372594
O	 1.1144640714	-0.7252871413	-0.1267731539	-0.380665
C	-1.2602476943	-0.7883542668	 0.0528045135	 0.007355
O	-1.0194254721	-2.1653003151	 0.0654935132	-0.438681
C	-2.0743005778	-0.3949694962	 1.3165704819	 0.008312
O	-2.4097682851	 0.970880177	 1.313718128	-0.437047
C	-3.3438518062	-1.2255973174	 1.3733301262	 0.141184
O	-4.426478673	-0.6868265141	 1.3801339686	-0.267521
H	 0.9314746355	 1.79057295	 0.039900467	 0.266212
H	-0.7961647127	 1.7468560349	 0.2941900592	 0.28333
H	-1.8544934182	-0.4937210696	-0.8270981453	 0.105579
H	-0.0497600525	-2.2375395227	-0.0244476929	 0.30034
H	-1.4654626575	-0.6467782079	 2.1994324252	 0.113318
H	-3.3829708109	 0.9947918366	 1.2951511741	 0.301286
H	-3.2206334625	-2.3205555571	 1.3924453229	 0.138884
75.1184	77.9476	126.2657	195.7348	277.6725	332.308	357.547	375.9847	394.559	472.4049	507.0586	524.8129	572.1508	606.3804	662.8464	715.5215	786.4062	853.205	866.3009	1010.7431	1077.1976	1132.5781	1135.5886	1165.5257	1244.9217	1275.7117	1293.6453	1341.5701	1375.7187	1383.8925	1424.9667	1466.8111	1622.0417	1787.1552	1801.3442	2977.0466	2995.1755	3018.9271	3550.7467	3586.9585	3634.1983	3696.4299
NC(=O)C(O)C(O)C=O	NC(=O)[C@@H](O)[C@@H](O)C=O	
InChI=1S/C4H7NO4/c5-4(9)3(8)2(7)1-6/h1-3,7-8H,(H2,5,9)	InChI=1S/C4H7NO4/c5-4(9)3(8)2(7)1-6/h1-3,7-8H,(H2,5,9)/t2-,3-/m0/s1
