19
gdb 38255	3.16438	1.77019	1.44652	0.9482	73.69	-0.2407	0.073	0.3138	946.3825	0.16222	-422.995049	-422.98826	-422.987316	-423.026185	28.001	
C	-0.0536105492	 1.6462637406	 0.1080883444	-0.271636
C	 1.4440680985	 1.3254466536	 0.005603189	 0.061713
C	 1.7315079345	 0.6993753973	 1.4054220682	-0.286938
C	 0.5849427792	-0.3357879647	 1.3514616253	 0.1217
O	-0.4966311767	-0.3062772891	 2.2629807907	-0.286823
C	-1.6254806058	-0.8310068623	 1.5240071792	-0.070528
C	-1.3103856855	-0.7381642855	-0.0173942927	-0.414378
C	-0.0655865018	 0.1058774511	 0.0407148702	 0.458843
O	 1.0881108446	 0.1679641749	-0.8497732923	-0.358167
H	-0.4361266693	 2.1439075616	 1.0014798593	 0.107853
H	-0.451234911	 2.0820031463	-0.8094429199	 0.106346
H	 2.1816076682	 1.9867471248	-0.4476631645	 0.081726
H	 2.7140654116	 0.2295783688	 1.4730395981	 0.108487
H	 1.6286105135	 1.4309223518	 2.210450548	 0.116657
H	 0.9835695923	-1.3565571169	 1.2555727836	 0.069267
H	-1.8081977818	-1.8719593285	 1.8182847834	 0.106447
H	-2.5013265708	-0.2384773785	 1.8028307123	 0.114394
H	-1.0941773702	-1.7271219735	-0.4320828749	 0.12336
H	-2.1341841902	-0.298066532	-0.5829293475	 0.111677
96.6802	203.844	296.8688	368.0919	420.878	534.758	540.8675	644.3593	669.6907	738.5117	798.1976	817.3627	852.2884	864.116	893.2387	914.517	939.587	962.8608	973.6196	1009.5888	1041.9708	1071.0502	1098.1851	1117.6313	1165.7721	1176.5803	1191.3414	1213.5848	1231.2363	1250.0725	1255.0232	1284.1945	1298.7571	1316.2274	1356.8876	1373.3504	1406.0585	1474.8659	1491.2895	1494.7244	1520.1064	2989.6627	3023.8259	3064.1939	3073.7554	3078.3411	3082.4874	3117.4719	3129.1812	3131.9318	3146.5413
C1C2CC3OCCC13O2	C1[C@H]2C[C@H]3OCC[C@@]13O2	
InChI=1S/C7H10O2/c1-2-8-6-3-5-4-7(1,6)9-5/h5-6H,1-4H2	InChI=1S/C7H10O2/c1-2-8-6-3-5-4-7(1,6)9-5/h5-6H,1-4H2/t5-,6-,7-/m1/s1
