21
gdb 115830	3.36007	1.0721	1.00874	2.8913	78.28	-0.2433	0.0843	0.3276	1279.2922	0.183468	-424.214084	-424.205341	-424.204397	-424.247986	33.47	
O	 0.4862125044	 0.5535534839	 0.9297035725	-0.425556
C	 0.0233662553	-0.591904887	 0.2476780177	-0.057936
C	-1.408465146	-0.3944322928	-0.2503727099	 0.112761
C	-2.072865047	-1.6824925712	-0.7697267682	-0.343414
C	-2.8475452466	-2.165748356	 0.447719116	 0.357045
C	-3.7133967865	-3.3892248937	 0.4574369427	-0.339444
C	-2.4162337605	-3.3769684786	 1.2356687473	-0.301324
C	-3.2466823844	-0.8793713957	 1.1437855073	-0.132666
O	-2.196702485	 0.0482991221	 0.8744821591	-0.294274
H	-0.2280368697	 0.7932430808	 1.5340281326	 0.28899
H	 0.6956149485	-0.7600299343	-0.6016035093	 0.100729
H	 0.0598590753	-1.488410818	 0.8896498929	 0.082167
H	-1.4173175654	 0.4091914421	-0.996656872	 0.07956
H	-2.7542434227	-1.4570078864	-1.5974796928	 0.107402
H	-1.3409498076	-2.4118167743	-1.1291759507	 0.107117
H	-4.6436324125	-3.3540795708	 1.0161795505	 0.115235
H	-3.7641471906	-3.988744724	-0.4456203873	 0.115647
H	-1.5895747699	-3.9684323324	 0.8556085077	 0.114309
H	-2.4714112165	-3.3324240218	 2.3186692077	 0.11508
H	-4.195828466	-0.4896172802	 0.7424192734	 0.093414
H	-3.3550382367	-0.9868639116	 2.2285163627	 0.105158
50.1156	102.9829	137.8453	221.7295	271.7937	340.2681	368.0493	379.1698	477.5622	482.3316	547.2341	715.9859	775.1692	781.8958	814.7832	872.3967	903.9224	942.9281	948.1679	986.6294	1010.272	1029.1402	1052.1929	1057.0318	1078.6555	1082.6783	1099.0967	1130.3686	1188.0946	1196.9982	1218.4611	1232.2311	1279.3204	1298.214	1331.2439	1348.1188	1358.2111	1398.2697	1413.0115	1445.3665	1468.4835	1492.0439	1502.5387	1507.2643	1527.755	2962.79	2974.1719	3028.2002	3044.3294	3060.8457	3065.0984	3090.8533	3123.0053	3127.0746	3200.7945	3215.8649	3773.9484
OCC1CC2(CC2)CO1	OC[C@H]1CC2(CC2)CO1	
InChI=1S/C7H12O2/c8-4-6-3-7(1-2-7)5-9-6/h6,8H,1-5H2	InChI=1S/C7H12O2/c8-4-6-3-7(1-2-7)5-9-6/h6,8H,1-5H2/t6-/m1/s1
