21
gdb 126191	2.91312	1.20932	0.92937	2.5187	86.79	-0.2188	0.0304	0.2492	1339.8178	0.182502	-383.309539	-383.299476	-383.298531	-383.345604	35.484	
C	 0.0749719647	 1.6058983957	 0.1613350071	-0.361163
C	 0.0162850451	 0.0748684431	 0.0147072499	-0.306455
C	-1.3815605753	-0.4705412492	-0.0279403035	 0.11461
C	-2.1738564223	-0.7235752223	-1.139441375	 0.273179
C	-1.8975267114	-0.5761001772	-2.5997963239	-0.507259
N	-3.3685397309	-1.1802397874	-0.6668978488	-0.006366
C	-4.5229101881	-1.5953300107	-1.4319471793	-0.326923
N	-3.4050785151	-1.2428239473	 0.6819914807	-0.277795
C	-2.2077095259	-0.813472272	 1.0655383089	-0.080242
H	 1.110689321	 1.958846412	 0.2062685647	 0.107125
H	-0.4166219875	 2.1001308573	-0.6828897688	 0.113405
H	-0.435127914	 1.9296102578	 1.0739294089	 0.120762
H	 0.561773685	-0.2207795063	-0.889763157	 0.096396
H	 0.5559767246	-0.3847021119	 0.8514536357	 0.104883
H	-2.0488576909	-1.5158678039	-3.1442449894	 0.132092
H	-2.5422616593	 0.1775045751	-3.06866118	 0.133926
H	-0.8623082211	-0.2656995735	-2.7571816834	 0.138484
H	-4.2906699548	-2.4559711947	-2.0688276376	 0.134045
H	-5.2969789568	-1.8759147897	-0.7187506141	 0.161692
H	-4.8922354636	-0.781471825	-2.0649592	 0.133797
H	-1.9692064433	-0.7671672701	 2.119181465	 0.101807
30.5759	77.2567	111.3069	120.7497	200.8032	205.2637	250.8288	269.3762	293.8331	406.885	480.9472	582.2834	654.3031	691.5925	716.5072	757.3461	793.4475	875.3713	950.1203	971.2942	1038.6511	1052.3376	1058.5802	1082.6927	1144.604	1149.588	1208.4538	1216.399	1293.3862	1336.4712	1354.1028	1399.3153	1410.0751	1416.3133	1421.0219	1455.2618	1479.1026	1481.5575	1489.37	1493.5491	1494.8106	1500.3445	1507.4014	1522.1405	1612.9435	3021.8629	3024.9763	3031.2648	3032.0812	3055.6758	3068.282	3085.8096	3102.1082	3108.549	3124.2664	3164.7298	3230.9866
CCC1=C(C)N(C)N=C1	CCc1c(C)n(C)nc1	
InChI=1S/C7H12N2/c1-4-7-5-8-9(3)6(7)2/h5H,4H2,1-3H3	InChI=1S/C7H12N2/c1-4-7-5-8-9(3)6(7)2/h5H,4H2,1-3H3
