18
gdb 18864	3.71965	2.23902	1.84313	0.9018	77.91	-0.206	-0.026	0.18	797.0885	0.154606	-310.570984	-310.564445	-310.563501	-310.601128	27.049	
C	 0.2151557824	 1.5138747069	 0.2694582717	-0.411174
C	 0.0141488437	 0.0259656813	 0.0480760347	-0.000137
C	 0.7094752391	-0.7439600003	-1.1461265578	-0.086436
C	 2.1102331185	-1.4596359113	-0.9239183819	-0.040404
C	 3.0700407021	-1.1496557431	 0.2404656781	-0.258762
C	 2.0502323463	-0.6695405446	 1.2708045051	-0.106928
C	 0.8102542725	-1.0108349235	 0.8657444224	 0.033011
C	 0.8606351504	-1.9877580494	-0.3234702511	-0.108476
H	 1.2758299388	 1.7820445384	 0.2620354384	 0.115142
H	-0.2878887445	 2.086288723	-0.5176105544	 0.11401
H	-0.2082695048	 1.8313316744	 1.2288066488	 0.120121
H	-1.0573090071	-0.2019073607	-0.0308327177	 0.078781
H	 0.3392761616	-0.6953298561	-2.1686214603	 0.084327
H	 2.4994741013	-1.890420378	-1.8454854398	 0.075863
H	 3.6695847337	-2.0389796309	 0.4848102684	 0.105287
H	 3.7779026354	-0.3336011251	 0.0485192355	 0.106076
H	 2.2500990007	 0.2295903512	 1.8460624708	 0.093655
H	 0.3868954699	-2.9561250222	-0.4156304707	 0.086042
175.8041	223.0467	271.3352	347.7124	448.5154	531.3053	581.6178	652.7106	722.1812	750.164	795.3755	810.8421	852.1407	872.3645	900.9308	945.7114	949.4984	979.9146	993.1747	1046.8866	1059.4084	1066.1427	1081.0684	1105.6892	1143.8551	1169.4001	1206.2567	1223.4352	1272.6518	1274.2597	1302.4511	1371.4826	1377.5505	1409.7667	1475.8499	1489.4491	1495.4631	1593.2817	2993.687	3011.3419	3030.7715	3045.8112	3093.7504	3107.9822	3119.8854	3128.7303	3167.6946	3195.7326
CC1C2C3CC=C1C23	C[C@H]1[C@H]2[C@H]3C[CH][C]1[C@@H]23	
InChI=1S/C8H10/c1-4-5-2-3-6-7(4)8(5)6/h2,4,6-8H,3H2,1H3	InChI=1S/C8H10/c1-4-5-2-3-6-7(4)8(5)6/h2,4,6-8H,3H2,1H3/t4-,6-,7+,8-/m1/s1
