16
gdb 110435	2.98413	1.42721	1.20518	2.5057	67.82	-0.2431	-0.0142	0.229	1037.4527	0.124409	-437.821474	-437.814002	-437.813058	-437.853712	28.602	
O	 0.1173419043	 1.3056940412	 0.1871692337	-0.417253
C	 0.1097444057	-0.0794875496	-0.1036828656	-0.090281
C	-1.3071224729	-0.6222458411	-0.0820843288	 0.041155
C	-1.6094921313	-2.13004768	-0.1354609138	-0.23551
C	-2.7036260306	-1.8095176447	 0.9605553463	-0.045469
C	-1.6113721914	-1.8153232994	 1.9996125321	-0.174803
N	-2.0068502503	-0.5568945386	 1.2706475547	-0.160791
C	-0.8023662135	-2.6725424577	 1.0674881358	 0.435972
O	-0.0317202921	-3.5760439516	 1.2167517092	-0.33232
H	-0.3521536727	 1.4218712068	 1.0212657825	 0.296774
H	 0.5386452199	-0.1958456089	-1.1052643115	 0.119746
H	 0.7493318853	-0.6440787022	 0.5931333112	 0.10392
H	-1.9348632775	-0.0445399376	-0.7661061775	 0.103626
H	-1.7009616956	-2.7076652039	-1.0508969022	 0.101265
H	-3.7607216126	-2.0084292336	 1.0642568268	 0.127903
H	-1.6805617646	-1.809120759	 3.0781970571	 0.126067
93.5513	117.4993	213.1852	236.4529	378.4524	432.0208	435.4952	545.9172	626.004	684.392	764.5124	786.2529	825.0262	835.8557	867.7669	889.6145	953.4898	974.579	1032.2345	1033.4014	1066.8508	1084.1419	1121.1686	1127.0927	1160.6019	1198.5488	1214.6912	1227.1898	1262.882	1296.1275	1348.0536	1402.2948	1437.5158	1498.3059	1885.8184	2984.4252	3067.0231	3081.3033	3166.5669	3220.8232	3231.8125	3800.2408
OCC1C2C3C(N13)C2=O	OC[C@H]1[C@@H]2[C@H]3[C@H](N13)C2=O	
InChI=1S/C6H7NO2/c8-1-2-3-4-5(6(3)9)7(2)4/h2-5,8H,1H2	InChI=1S/C6H7NO2/c8-1-2-3-4-5(6(3)9)7(2)4/h2-5,8H,1H2/t2-,3+,4-,5-,7?/m0/s1
