17
gdb 14941	4.10667	1.6078	1.26748	3.8253	71.47	-0.2394	0.0148	0.2542	959.6404	0.14447	-363.90276	-363.895568	-363.894623	-363.934522	26.949	
O	-0.0679974657	-0.0295567007	-0.2163228147	-0.345407
C	-0.0016573158	 1.1796514496	-0.1318021567	 0.149813
N	 1.14758282	 1.9003609182	-0.0273865473	-0.047831
C	 1.1582246377	 3.3497819828	 0.0655301025	-0.181975
C	 1.8584924851	 3.8098277737	 1.3510783991	-0.245641
C	 3.146918818	 3.0536685288	 1.5482113393	-0.057194
C	 3.4035146465	 1.9038058534	 0.9281266025	-0.056905
C	 2.4336784671	 1.2178540622	 0.0074871408	-0.204727
H	-0.8966624052	 1.8338206178	-0.1277096042	 0.069821
H	 1.6851733129	 3.7696185977	-0.8029837919	 0.112664
H	 0.1248694134	 3.7060657111	 0.025016552	 0.115965
H	 2.0526092991	 4.8878674856	 1.2951479283	 0.10872
H	 1.1953337732	 3.6622612968	 2.214659205	 0.119608
H	 3.8816744194	 3.4820467767	 2.2243175763	 0.093397
H	 4.3532268999	 1.3960747282	 1.0715090529	 0.097385
H	 2.2418480211	 0.1888437334	 0.3273001188	 0.154533
H	 2.8609272033	 1.1460242146	-1.0065539628	 0.117773
63.2957	156.9567	249.2275	311.4214	337.1076	396.1476	441.0593	519.7456	652.2338	673.5769	771.4824	824.9761	888.9728	956.615	986.3807	998.6881	1018.4983	1030.4124	1045.1633	1064.3766	1167.9844	1200.2842	1227.8032	1258.6677	1285.7548	1358.1745	1368.775	1398.5848	1416.8273	1434.5914	1455.0218	1474.0421	1489.9754	1496.9725	1728.405	1791.9349	2928.4248	2969.9164	3003.2096	3014.9383	3054.5127	3080.7194	3087.3127	3156.7696	3179.1533
O=CN1CCC=CC1	O=CN1CCC=CC1	
InChI=1S/C6H9NO/c8-6-7-4-2-1-3-5-7/h1-2,6H,3-5H2	InChI=1S/C6H9NO/c8-6-7-4-2-1-3-5-7/h1-2,6H,3-5H2
