18
gdb 52496	7.18878	0.47736	0.45761	1.4392	101.03	-0.2298	-0.0041	0.2257	2382.7009	0.146326	-364.743117	-364.733061	-364.732116	-364.78096	34.401	
C	-0.0492254978	 1.4062603036	 0.2262026076	-0.518238
C	-0.0156740323	-0.0398097696	 0.1022091113	 0.253661
C	 0.0109595541	-1.2454385446	-0.000830161	-0.203899
C	 0.0397939201	-2.6003369334	-0.1164261307	-0.184287
C	 0.0665627997	-3.8065780737	-0.2166687833	 0.279635
C	 0.0807705921	-5.2588630224	-0.3400768092	-0.427308
C	-1.3061994103	-5.8835981237	-0.2642479275	 0.049133
C	-1.4699135373	-7.2380021205	 0.3165524438	-0.248027
N	-1.9792585909	-6.0506943537	 1.0274852871	-0.303357
H	 0.9612684695	 1.819810736	 0.3212213699	 0.155358
H	-0.5167079751	 1.868904068	-0.6504458328	 0.155927
H	-0.6196081735	 1.715610693	 1.1094240908	 0.156199
H	 0.5504714435	-5.5409846935	-1.2928968096	 0.140436
H	 0.7135657889	-5.6908828696	 0.44851544	 0.125952
H	-1.9757325525	-5.5719851764	-1.0627109499	 0.105387
H	-2.2349077787	-7.9097283626	-0.0620182325	 0.121805
H	-0.58144349	-7.7362377101	 0.6980072607	 0.109824
H	-1.3480797393	-5.7969819468	 1.7844112552	 0.231798
14.8731	40.9327	66.0337	108.2536	149.2365	252.9238	289.9092	339.5984	375.5548	384.322	463.2891	551.5867	558.0409	642.1041	784.1505	827.981	918.2361	924.1607	972.3573	979.9632	1047.8206	1048.7928	1049.4962	1124.8744	1148.2418	1175.3911	1244.5128	1264.3843	1279.7365	1310.5119	1328.4397	1412.66	1416.7643	1456.7329	1472.2894	1472.4005	1514.039	2279.5608	2388.1767	3000.3074	3023.3879	3032.1427	3085.1072	3085.3634	3105.7106	3136.2301	3190.7995	3492.4916
CC#CC#CCC1CN1	CC#CC#CC[C@H]1CN1	
InChI=1S/C8H9N/c1-2-3-4-5-6-8-7-9-8/h8-9H,6-7H2,1H3	InChI=1S/C8H9N/c1-2-3-4-5-6-8-7-9-8/h8-9H,6-7H2,1H3/t8-/m0/s1
