25
gdb 111496	2.49259	1.30586	1.06709	0.2401	91.34	-0.2582	0.0756	0.3337	1295.5529	0.230533	-352.363413	-352.354058	-352.353113	-352.397002	37.028	
C	 0.30931965	 0.9675244692	-0.3560745638	-0.385411
C	 0.0170158208	-0.4988196638	-0.0176480343	-0.182992
C	-1.474451187	-0.8094919512	 0.1784488089	 0.02882
C	-1.8160995509	-2.2964821914	 0.1661543624	-0.041037
C	-1.6031598158	-3.1244026238	 1.4115825509	-0.295541
C	-2.9630636335	-2.5403811813	 1.1153614627	-0.032808
C	-3.3375531179	-1.2103377629	 1.7547009772	-0.229842
C	-2.1656298846	-0.2242478773	 1.4611114934	-0.008099
C	-1.2639948672	 0.0052201773	 2.6855938053	-0.406703
H	 1.3808158834	 1.1343642965	-0.5057592769	 0.109672
H	-0.2042711178	 1.2654624737	-1.2773726353	 0.11117
H	-0.0232346172	 1.6461549755	 0.4359688638	 0.116916
H	 0.3907224943	-1.1280994181	-0.835546963	 0.089454
H	 0.5836014825	-0.8012701294	 0.8707356604	 0.09545
H	-2.0029025334	-0.3768245392	-0.6845124855	 0.064845
H	-1.761863222	-2.8076974324	-0.7901526459	 0.073712
H	-1.4907060437	-4.1941489846	 1.2677006729	 0.10496
H	-1.0152308736	-2.7360901923	 2.2341139224	 0.10857
H	-3.7647586444	-3.2257789685	 0.8613271288	 0.075067
H	-4.2611748541	-0.8456948867	 1.2898202467	 0.093468
H	-3.5376037819	-1.2905076589	 2.8297594946	 0.091276
H	-2.58512833	 0.7553815889	 1.2086095092	 0.072052
H	-0.78582834	-0.9078148419	 3.050015522	 0.120778
H	-0.4711046831	 0.7297943557	 2.4784766276	 0.115856
H	-1.8624792329	 0.4062648969	 3.5107356054	 0.110369
103.4825	134.2456	178.6233	195.4703	210.9188	270.5944	288.8616	344.1835	379.5917	431.3621	492.0856	612.5481	709.066	715.0339	765.4851	809.8202	833.5269	874.3414	891.4449	916.219	943.1985	971.8402	998.1529	1027.5914	1051.3721	1055.644	1063.654	1082.6403	1097.7795	1113.6566	1118.2506	1162.6776	1171.571	1210.817	1246.8359	1257.3677	1285.7043	1315.3957	1328.3845	1348.4773	1360.578	1378.4086	1391.4524	1397.1807	1413.3833	1421.1838	1480.0168	1486.9434	1495.8263	1498.265	1502.5135	1508.031	1509.7729	2981.0237	3022.7619	3023.4752	3030.8362	3036.8679	3042.8119	3057.133	3061.3944	3095.5415	3099.2568	3103.4953	3116.1604	3137.5612	3148.5749	3162.6915	3221.0415
CCC1C2CC2CC1C	CC[C@H]1[C@H]2C[C@H]2C[C@H]1C	
InChI=1S/C9H16/c1-3-8-6(2)4-7-5-9(7)8/h6-9H,3-5H2,1-2H3	InChI=1S/C9H16/c1-3-8-6(2)4-7-5-9(7)8/h6-9H,3-5H2,1-2H3/t6-,7-,8-,9+/m1/s1
