16
gdb 15603	2.63557	2.27933	1.57505	3.1121	60.94	-0.2477	-0.0318	0.2159	852.2291	0.129369	-420.879908	-420.872004	-420.871059	-420.912798	27.618	
C	-0.0407476732	 1.580298426	-0.0841726208	-0.42448
C	 0.0872322239	 0.0708791005	 0.020307567	 0.105099
O	 0.9816742033	-0.3976717834	-0.9803370952	-0.253827
C	 1.4308959585	-1.6670020919	-0.5704041932	 0.026048
O	 1.2313563538	-1.7670429526	 0.8344693597	-0.251629
C	 0.7357037078	-0.530519476	 1.2941070488	-0.002625
C	 1.8411146835	 0.3515824603	 1.8630427557	 0.146198
O	 3.0131868363	 0.1716926572	 1.6701922744	-0.234968
H	 0.9372300844	 2.0632816271	-0.0111835005	 0.142933
H	-0.478539303	 1.8463183066	-1.0495533052	 0.139575
H	-0.6920619042	 1.9701206318	 0.7039931099	 0.123941
H	-0.9014472018	-0.4005063909	-0.1019148458	 0.082375
H	 0.8574651954	-2.4743066921	-1.0519929542	 0.098131
H	 2.4944956328	-1.7511153974	-0.8198495262	 0.124946
H	-0.0091160692	-0.7100440188	 2.0798169308	 0.102769
H	 1.4741274218	 1.2009955935	 2.4855186746	 0.075515
67.8738	93.8744	134.1197	234.8865	264.551	276.7368	339.2969	496.0947	611.2918	718.8143	774.9227	816.9708	879.1871	909.455	985.52	995.0287	1070.2212	1090.1072	1133.2225	1146.9253	1157.5641	1173.0593	1219.9853	1256.9112	1324.7691	1368.3958	1389.9784	1413.5733	1417.1871	1438.6208	1483.2392	1504.7312	1548.3791	1842.5158	2857.2821	2969.3938	2981.687	3038.5284	3048.0197	3062.6928	3121.9751	3128.9124
CC1OCOC1C=O	C[C@H]1OCO[C@H]1C=O	
InChI=1S/C5H8O3/c1-4-5(2-6)8-3-7-4/h2,4-5H,3H2,1H3	InChI=1S/C5H8O3/c1-4-5(2-6)8-3-7-4/h2,4-5H,3H2,1H3/t4-,5+/m1/s1
