17
gdb 53524	2.64032	0.82577	0.64965	2.4961	78.96	-0.2549	-0.0522	0.2027	1681.2072	0.131085	-421.819906	-421.809276	-421.808332	-421.858413	34.714	
C	 0.2450059549	 1.5038238705	 0.0635093927	-0.498546
C	 0.1089771566	 0.0555565779	 0.1272904685	 0.1296
C	 0.0136552066	-1.143606279	 0.1853361885	-0.000765
C	-0.1471240284	-2.5920683908	 0.2464294189	-0.386392
C	-1.5997997253	-3.0256196088	-0.0035825684	-0.164915
C	-2.1229994027	-2.6420576495	-1.3874220099	 0.147048
O	-3.2574467231	-2.8368536526	-1.7378795956	-0.248344
C	-1.8109459401	-4.5261124958	 0.1944469984	 0.135168
O	-0.9582600808	-5.272332535	 0.5957819286	-0.230915
H	 0.9940576378	 1.8004102407	-0.678759046	 0.151252
H	-0.7019330246	 1.9804588193	-0.212549753	 0.150831
H	 0.5540733208	 1.916486964	 1.0300661716	 0.151591
H	 0.5032052152	-3.0810356004	-0.4903134122	 0.140803
H	 0.1735117352	-2.9814302995	 1.2180499837	 0.152082
H	-2.2781556187	-2.5358327834	 0.7101018941	 0.145772
H	-1.3682854544	-2.1900051099	-2.0657122882	 0.106254
H	-2.8303503789	-4.8741246478	-0.0692032618	 0.119477
20.9052	40.3239	67.4732	94.9082	123.4048	199.9761	204.2047	231.7896	300.6214	364.0296	388.0213	451.7096	585.0813	633.2766	790.5577	820.2356	866.7391	888.2592	1050.1243	1052.3255	1060.8061	1074.8265	1122.8244	1168.8656	1201.2187	1222.3039	1296.9305	1355.5379	1401.8399	1415.3419	1416.9634	1468.4073	1478.0819	1478.3442	1806.4959	1840.098	2373.0363	2908.6614	2934.496	3019.601	3028.9919	3034.352	3076.723	3090.3555	3090.7938
CC#CCC(C=O)C=O	CC#CCC(C=O)C=O	
InChI=1S/C7H8O2/c1-2-3-4-7(5-8)6-9/h5-7H,4H2,1H3	InChI=1S/C7H8O2/c1-2-3-4-7(5-8)6-9/h5-7H,4H2,1H3
