20
gdb 98322	4.1754	0.74684	0.70386	3.8859	80.26	-0.2595	-0.0282	0.2312	1649.4319	0.168154	-403.197061	-403.186355	-403.185411	-403.234082	36.991	
C	 0.0610683429	 1.5445792598	 0.218486907	-0.378078
C	-0.0553856971	 0.0393902703	-0.0074482747	-0.287638
C	-1.4878830034	-0.4692974711	-0.0158371613	 0.382773
O	-2.4408494203	 0.2770528182	-0.017959609	-0.312004
C	-1.6763902697	-1.9913858686	-0.0115925146	-0.087805
C	-1.6541722598	-2.5019422242	 1.443184179	-0.406797
C	-3.0027441056	-2.34034593	-0.7225034557	-0.340749
C	-3.2453686231	-3.778609673	-0.7809994397	 0.259065
N	-3.4172282275	-4.920963239	-0.8208249678	-0.314674
H	 1.1062597461	 1.861817524	 0.1729818213	 0.115088
H	-0.5042325293	 2.0946367798	-0.5372583742	 0.137833
H	-0.3422748494	 1.825813089	 1.1949884275	 0.130828
H	 0.3848570224	-0.2490653037	-0.9736990586	 0.130608
H	 0.5152047373	-0.5279937855	 0.7392694829	 0.124757
H	-0.8433780543	-2.4530514887	-0.5542677583	 0.101491
H	-2.459287667	-2.040400661	 2.0237967588	 0.138315
H	-1.78914047	-3.5864376209	 1.4672710957	 0.154383
H	-0.7045446127	-2.269207795	 1.9327073138	 0.126748
H	-3.8302979759	-1.8473875047	-0.2035755855	 0.171367
H	-3.0010620835	-1.9435666756	-1.7432038765	 0.154488
44.4165	54.7925	66.0526	125.3122	181.8825	205.5905	226.7171	252.961	287.0257	328.5414	393.3227	406.1941	553.1368	568.8066	653.318	793.6162	806.8213	854.8393	895.8437	965.015	988.7178	1024.2169	1041.2517	1066.5432	1110.8681	1121.5627	1147.0364	1242.4154	1275.1324	1297.0987	1333.207	1363.3951	1383.9803	1411.125	1415.4387	1448.0922	1459.8707	1492.8021	1497.9033	1499.3412	1501.4041	1803.0634	2359.8239	3012.0092	3042.6884	3045.5775	3049.1632	3053.6084	3059.5576	3102.3622	3117.8079	3123.4194	3124.374	3132.1839
CCC(=O)C(C)CC#N	CCC(=O)[C@@H](C)CC#N	
InChI=1S/C7H11NO/c1-3-7(9)6(2)4-5-8/h6H,3-4H2,1-2H3	InChI=1S/C7H11NO/c1-3-7(9)6(2)4-5-8/h6H,3-4H2,1-2H3/t6-/m0/s1
