14
gdb 48456	2.03769	1.53737	1.31908	4.1178	70.57	-0.2482	-0.0605	0.1877	1042.3373	0.097368	-436.637983	-436.629162	-436.628218	-436.672079	31.185	
O	-0.7812502068	 1.0097309739	 0.8703076419	-0.228697
C	 0.1018588258	 0.839167241	 0.079078066	 0.142249
C	 1.3381844369	 1.7346005924	-0.0518738059	-0.113789
N	 2.4224991139	 1.0976382778	-0.852755995	-0.353821
C	 2.4972494449	 2.1990516395	-1.8462648716	-0.272887
C	 1.2198851288	 2.7858981186	-1.2463681399	 0.356973
O	 0.4454007582	 3.6380780859	-1.5235019234	-0.246074
C	 1.734348376	 2.3734524479	 1.1846535787	 0.32069
C	 2.1095791775	 2.9022130408	 2.1970343464	-0.445401
H	 0.1033626209	 0.0219492999	-0.6732461915	 0.097976
H	 3.2734305927	 0.95016982	-0.3231782893	 0.240736
H	 3.3475784183	 2.88608565	-1.7395573698	 0.144281
H	 2.4297394494	 1.8790450713	-2.891494704	 0.14694
H	 2.4192130936	 3.3666302209	 3.1009688974	 0.210825
68.3259	91.4294	115.6929	156.6227	203.9128	283.7146	371.5693	443.8828	491.7799	518.1395	573.1594	627.2889	668.6132	696.3672	698.5616	760.8008	914.125	937.736	1010.6309	1030.7933	1057.2424	1103.8941	1147.3978	1178.2726	1283.5929	1372.5726	1388.3473	1473.5889	1834.0477	1937.8173	2230.3316	2913.6802	3020.2253	3077.0459	3498.8412	3559.6407
O=CC1(NCC1=O)C#C	O=C[C@]1(NCC1=O)C#C	
InChI=1S/C6H5NO2/c1-2-6(4-8)5(9)3-7-6/h1,4,7H,3H2	InChI=1S/C6H5NO2/c1-2-6(4-8)5(9)3-7-6/h1,4,7H,3H2/t6-/m1/s1
