23
gdb 99267	3.18677	0.74103	0.63455	2.8586	83.78	-0.2409	-0.008	0.2329	1853.0367	0.201102	-425.450761	-425.439156	-425.438212	-425.489786	40.293	
C	-0.4892101042	 1.3479227514	 0.6815122424	-0.381804
C	-1.287725104	 0.0540456926	 0.5559120872	-0.267447
C	-1.1214922286	-0.622346216	-0.7898273194	 0.345505
O	-0.4297694916	-0.1762078611	-1.6761883118	-0.306426
C	-1.8625440492	-1.942333111	-1.0190817659	-0.162214
O	-2.721693388	-2.2377430586	 0.0525560658	-0.258367
C	-3.2694728539	-3.5557413025	 0.0565215637	 0.162239
C	-3.8175128959	-3.787536307	 1.4597535608	-0.390167
C	-4.3437461003	-3.7308886949	-1.0199038406	-0.394896
H	-0.6417404087	 1.8018087153	 1.6646660277	 0.107827
H	 0.5799555612	 1.1636065512	 0.5473397658	 0.128319
H	-0.7898333201	 2.0690539659	-0.0830557573	 0.1293
H	-1.0152408045	-0.6756443735	 1.3296650561	 0.126877
H	-2.362254566	 0.2148607091	 0.7116158744	 0.133236
H	-2.3918279186	-1.8569701397	-1.979754129	 0.121894
H	-1.0977254396	-2.7278331059	-1.1475992114	 0.115635
H	-2.4520492355	-4.2719390407	-0.1350271123	 0.067523
H	-4.6220852006	-3.0772504656	 1.675302165	 0.124239
H	-4.2173029555	-4.8012034661	 1.5549195201	 0.115627
H	-3.0303970257	-3.6505955904	 2.2057709394	 0.12086
H	-4.7628136454	-4.7410025917	-0.97635176	 0.118204
H	-5.1554143255	-3.0127667039	-0.8646612561	 0.123941
H	-3.9416054197	-3.5839335568	-2.0262670046	 0.120095
14.2412	53.1652	87.9079	92.2862	121.139	191.2313	211.644	231.9761	260.4159	275.1915	338.2105	428.4761	441.6266	474.2413	530.24	615.1635	747.8911	767.3596	836.8343	925.9079	929.9044	938.3379	950.608	998.3257	1076.0685	1113.8529	1123.5633	1152.1048	1159.9272	1187.2203	1200.3907	1243.0684	1276.3473	1348.2349	1366.8087	1374.7262	1394.9059	1404.8487	1413.7784	1415.6864	1437.5105	1479.0791	1481.023	1487.3723	1492.9867	1496.5699	1497.9743	1511.4865	1810.4166	2954.3307	2962.3665	3011.607	3035.2449	3038.533	3043.8229	3050.0385	3058.3323	3109.9762	3114.2946	3117.9828	3120.82	3123.5964	3124.3752
CCC(=O)COC(C)C	CCC(=O)COC(C)C	
InChI=1S/C7H14O2/c1-4-7(8)5-9-6(2)3/h6H,4-5H2,1-3H3	InChI=1S/C7H14O2/c1-4-7(8)5-9-6(2)3/h6H,4-5H2,1-3H3
