17
gdb 49934	3.75974	0.85547	0.82801	1.8342	74.67	-0.2478	-0.0351	0.2126	1419.6881	0.132836	-421.778296	-421.769089	-421.768145	-421.813911	32.527	
O	-0.4358650879	 0.5258027062	 0.8706536239	-0.235272
C	 0.5165232786	 0.6832354339	 0.1518680852	 0.133997
C	 1.2720555568	 1.9898337281	 0.0094505507	 0.06335
C	 1.3789351569	 2.8838963685	 1.2554572376	-0.330717
C	 2.8954815883	 2.6128689025	 1.1384804416	 0.155988
C	 3.5669085257	 1.8933976684	 2.3094189484	-0.364431
C	 4.9493640474	 1.5249339813	 2.0339404518	 0.300133
C	 6.0905017965	 1.2383742257	 1.7910567752	-0.43343
O	 2.6956316332	 1.7451537944	-0.0089625715	-0.305429
H	 0.9375781498	-0.1406416998	-0.4664620059	 0.096352
H	 0.9342843385	 2.4933414357	-0.9094872173	 0.103896
H	 1.0717154977	 3.9210555778	 1.1256986387	 0.119244
H	 0.8907849799	 2.4647834604	 2.1374136838	 0.132321
H	 3.4897110138	 3.4878353668	 0.8510930448	 0.09501
H	 3.5228316482	 2.5561159188	 3.1847015516	 0.134688
H	 2.9796493083	 1.0010188499	 2.5600012735	 0.135769
H	 7.0971237683	 0.9753319713	 1.579338418	 0.198531
29.3186	64.2652	94.177	130.298	232.0962	311.5815	344.2071	357.7509	391.5005	512.4332	585.8368	622.529	644.3622	740.9802	814.7928	862.678	901.8138	935.1988	962.1892	1020.3226	1032.3841	1056.3656	1106.4687	1108.046	1149.4434	1232.4168	1252.2697	1256.6116	1292.9168	1339.8706	1350.695	1400.249	1404.1517	1455.7794	1495.839	1832.6094	2242.8939	2894.2329	2989.0045	3016.9605	3037.7466	3060.6702	3087.8141	3147.3728	3506.9893
O=CC1CC(CC#C)O1	O=C[C@H]1C[C@@H](CC#C)O1	
InChI=1S/C7H8O2/c1-2-3-6-4-7(5-8)9-6/h1,5-7H,3-4H2	InChI=1S/C7H8O2/c1-2-3-6-4-7(5-8)9-6/h1,5-7H,3-4H2/t6-,7-/m1/s1
