19
gdb 69975	2.48003	1.85775	1.38705	1.8321	74.56	-0.2365	0.0699	0.3064	998.9047	0.157743	-422.971827	-422.963555	-422.962611	-423.00398	32.894	
C	-0.0928333112	 1.5210269994	 0.0457794506	-0.511292
C	 0.1552282365	 0.0498792726	 0.0097107766	 0.390786
O	-0.7338222401	-0.8279478087	 0.7107139061	-0.284678
C	 0.6755712248	-0.9304715537	 0.9840210192	-0.058883
C	 1.3075629894	-1.8056831209	-0.1231366448	-0.143196
C	 0.3876620713	-2.8956311683	-0.7501491744	-0.2223
C	-0.1192146121	-1.8719023978	-1.8161725521	-0.291959
C	 0.764140252	-0.7657530828	-1.171349675	 0.349101
O	 1.5674344987	 0.0570512334	-1.9610951747	-0.485356
H	 0.7759135249	 2.058234285	-0.3431572162	 0.14206
H	-0.9578354629	 1.7840486197	-0.5734823444	 0.129638
H	-0.2928340891	 1.8484419934	 1.0696259818	 0.128463
H	 0.9755430716	-0.8153830145	 2.0206661593	 0.098697
H	 2.3754033338	-1.9998807743	-0.0194299258	 0.070911
H	 0.9382134307	-3.7387714734	-1.1731819082	 0.093538
H	-0.3856347322	-3.2735339842	-0.0810415222	 0.115668
H	 0.211784354	-2.1073339872	-2.8334408264	 0.086284
H	-1.1938184875	-1.6800114214	-1.8322197769	 0.111316
H	 2.0563425174	-0.4940100962	-2.5810077928	 0.281204
144.8813	192.4588	206.0782	230.1487	260.9999	307.1195	372.2792	407.4945	468.9078	540.8755	600.5803	652.0987	720.9539	770.8044	794.5274	832.9814	860.5406	893.0466	941.5808	969.0791	996.3999	1029.9423	1055.8013	1066.7286	1097.7384	1104.4579	1108.6422	1204.9315	1217.2443	1222.8996	1248.2822	1259.6955	1285.031	1292.1441	1373.7893	1402.1692	1456.125	1464.5656	1478.4181	1481.21	1494.9768	3038.2985	3045.6279	3073.4672	3104.4112	3111.2933	3114.2111	3130.3113	3138.1723	3166.1654	3810.7862
CC12OC1C1CCC21O	C[C@]12O[C@H]1[C@H]1CC[C@@]21O	
InChI=1S/C7H10O2/c1-6-5(9-6)4-2-3-7(4,6)8/h4-5,8H,2-3H2,1H3	InChI=1S/C7H10O2/c1-6-5(9-6)4-2-3-7(4,6)8/h4-5,8H,2-3H2,1H3/t4-,5+,6+,7+/m1/s1
