18
gdb 93724	2.9249	1.18581	1.13637	3.1934	72.62	-0.2838	0.0139	0.2977	1178.5631	0.146313	-439.109225	-439.100168	-439.099224	-439.143386	33.078	
C	 0.031205561	 1.5517067345	-0.0675721755	-0.408492
C	 0.1310222838	 0.0462478935	-0.0578217775	 0.217004
O	 0.888736439	-0.4176624257	-1.1520274554	-0.240821
C	 1.2896764781	-1.720453235	-0.7870252686	-0.158111
C	 1.5125573224	-1.606573399	 0.7611895478	 0.212649
C	 2.9847058574	-1.4833945797	 1.158979797	-0.426709
O	 0.8392739798	-0.39550581	 1.0981102128	-0.284901
C	 0.8790893962	-2.7431702798	 1.4625146872	 0.260236
N	 0.3935080985	-3.6439367928	 1.999196782	-0.33563
H	 1.0326427234	 1.9879127612	-0.0631321005	 0.135146
H	-0.5035311084	 1.8815838063	-0.9615510604	 0.135676
H	-0.5145315295	 1.8922833518	 0.8153386875	 0.138755
H	-0.8669350706	-0.4281866791	-0.0692457496	 0.078869
H	 0.5116636995	-2.461031399	-1.0154629338	 0.122319
H	 2.2049580457	-1.9752025188	-1.3238613021	 0.132352
H	 3.4397234864	-0.6794626393	 0.5749537887	 0.137423
H	 3.0684756795	-1.2406886121	 2.2205497761	 0.148701
H	 3.5189964778	-2.418269927	 0.9684697745	 0.135532
40.7613	145.0758	180.762	189.2752	209.6398	250.4494	310.7358	355.8233	386.8966	473.5995	535.8641	584.4712	611.5784	697.6406	802.2122	866.0423	880.0371	922.8391	937.2662	989.0877	1081.5147	1107.1076	1133.0575	1153.0318	1163.9225	1201.1421	1208.4012	1268.968	1348.8718	1387.0822	1398.1185	1408.317	1441.1543	1480.5159	1484.4671	1485.9249	1491.4088	1515.3112	2355.0302	2943.4207	3017.9212	3049.596	3058.0232	3118.829	3130.7851	3138.9188	3139.1577	3143.7229	40.7608	145.0758	180.762	189.2751	209.6399	250.4489	310.7358	355.8232	386.8966	473.5996	535.8641	584.4711	611.5784	697.6406	802.2122	866.0422	880.0369	922.8391	937.2661	989.0876	1081.5145	1107.1075	1133.0573	1153.0317	1163.9224	1201.1421	1208.4013	1268.9681	1348.8717	1387.0822	1398.1184	1408.3171	1441.1541	1480.5161	1484.467	1485.925	1491.409	1515.3114	2355.0302	2943.4206	3017.9211	3049.596	3058.0232	3118.8289	3130.7851	3138.9188	3139.1577	3143.7229
CC1OCC(C)(O1)C#N	C[C@H]1OC[C@@](C)(O1)C#N	
InChI=1S/C6H9NO2/c1-5-8-4-6(2,3-7)9-5/h5H,4H2,1-2H3	InChI=1S/C6H9NO2/c1-5-8-4-6(2,3-7)9-5/h5H,4H2,1-2H3/t5-,6-/m0/s1
