21
gdb 30776	3.16518	1.1961	0.88385	1.5545	88.94	-0.1623	0.0524	0.2148	1359.9527	0.182473	-383.299051	-383.288921	-383.287976	-383.334333	36.524	
C	-0.0263980634	 1.4503678456	 0.0050058384	-0.316346
N	 0.0398796656	 0.000194115	-0.0322287013	-0.389736
C	-1.1840807359	-0.6988735428	 0.0140007037	 0.21073
C	-1.3070201253	-2.0788554864	 0.0236791161	 0.209515
C	-0.2444036586	-3.1253083902	 0.0030405893	-0.517382
N	-2.6613035715	-2.3712013605	 0.0453835682	-0.028964
C	-3.229262358	-3.699369892	 0.0523910131	-0.335495
C	-3.3787701324	-1.2060364244	 0.0276200291	-0.111438
C	-2.4980363741	-0.1474792601	 0.0129544024	-0.25777
H	 0.9889697785	 1.8557054119	-0.0186757543	 0.112369
H	-0.5531872257	 1.8176207741	-0.8821133831	 0.128843
H	-0.5414571172	 1.8578265996	 0.8917499485	 0.10135
H	 0.6993915027	-0.3520331366	 0.6485943307	 0.224914
H	-0.0802272556	-3.6084894401	 0.97714272	 0.117085
H	-0.4604345699	-3.9242854168	-0.7169267994	 0.120918
H	 0.7020847866	-2.6682805179	-0.3006209029	 0.133577
H	-2.8858867979	-4.2761390456	 0.9185236961	 0.132999
H	-4.3166234359	-3.6183725057	 0.1023990876	 0.136844
H	-2.9677250603	-4.2561727364	-0.8551408391	 0.133604
H	-4.457154735	-1.2264493062	 0.031446125	 0.107018
H	-2.7664004568	 0.8967240056	 0.006403152	 0.087364
57.597	85.125	136.3445	147.2774	192.4481	220.6826	229.0182	269.3168	324.4365	339.7473	521.8592	540.9222	605.3535	637.8674	671.5791	703.7469	744.4042	763.6707	774.8296	943.6827	1049.3596	1059.0458	1060.7831	1108.9659	1117.6476	1149.6312	1154.956	1185.9897	1214.8091	1272.197	1382.3125	1410.4541	1414.9907	1452.0929	1462.1037	1464.6826	1477.8575	1482.3489	1486.5421	1495.2029	1498.0018	1521.293	1527.4326	1538.8279	1627.8101	2955.6669	2995.2616	3023.0269	3046.6525	3060.7974	3073.4474	3101.7179	3107.3839	3132.4952	3248.2209	3268.2593	3558.364
CNC1=C(C)N(C)C=C1	CNc1c(C)n(C)cc1	
InChI=1S/C7H12N2/c1-6-7(8-2)4-5-9(6)3/h4-5,8H,1-3H3	InChI=1S/C7H12N2/c1-6-7(8-2)4-5-9(6)3/h4-5,8H,1-3H3
