17
gdb 70705	2.31163	1.92791	1.24821	4.6713	68.12	-0.2648	-0.0112	0.2536	1016.3032	0.135978	-458.987513	-458.979515	-458.97857	-459.02007	30.13	
C	 0.053136563	 1.5440592161	 0.0101678485	-0.468737
C	 0.1574322852	 0.0426661	-0.0056853273	 0.220606
O	-0.7629295806	-0.6698380673	 0.8476798755	-0.27057
C	 0.6296088725	-0.7487695536	 1.1487876143	-0.018303
C	 1.2717525755	-2.1025179362	 0.9079384497	-0.250531
C	 1.8004247695	-2.1822481723	-0.5185988226	-0.084705
O	 0.8237118615	-1.7937598226	-1.5005667852	-0.230925
C	 0.2119838631	-0.5920258713	-1.3858274683	 0.413509
O	-0.3186324204	-0.0920496632	-2.3391361342	-0.323014
H	 0.9621628686	 2.0005441134	-0.3946495039	 0.128166
H	-0.7867634787	 1.8639816829	-0.6104346372	 0.157881
H	-0.0963474062	 1.8984661521	 1.0326477967	 0.127046
H	 0.9187121728	-0.205570316	 2.0481066865	 0.100082
H	 2.1004694246	-2.2683194755	 1.6038468261	 0.114449
H	 0.5250444611	-2.8825527121	 1.0865711713	 0.136758
H	 2.6848983809	-1.5427519855	-0.6352201192	 0.116911
H	 2.0830039278	-3.200863319	-0.7915297509	 0.131376
79.8772	168.5588	202.5285	230.5862	288.882	304.1179	422.4188	442.4648	494.456	539.9728	628.9263	695.6618	766.3051	785.8834	883.9317	890.9398	950.9149	970.2822	1041.1157	1069.6243	1093.7844	1111.6984	1137.0562	1150.4926	1241.1546	1273.011	1305.6765	1343.6948	1368.9474	1409.8293	1425.2994	1454.7897	1469.463	1477.0629	1496.0633	1512.5853	1845.0806	3026.4165	3048.3054	3052.2566	3097.1946	3114.0748	3115.5717	3119.5767	3140.9258
CC12OC1CCOC2=O	C[C@]12O[C@H]1CCOC2=O	
InChI=1S/C6H8O3/c1-6-4(9-6)2-3-8-5(6)7/h4H,2-3H2,1H3	InChI=1S/C6H8O3/c1-6-4(9-6)2-3-8-5(6)7/h4H,2-3H2,1H3/t4-,6-/m0/s1
