18
gdb 116732	2.27635	0.72343	0.5697	1.6152	80.13	-0.2483	0.0181	0.2664	1908.1514	0.144597	-439.033772	-439.022866	-439.021922	-439.072428	35.864	
C	-0.5558194053	 0.8869544971	-1.0403816753	-0.251129
O	-0.789975814	 0.0943268244	 0.1182165217	-0.195695
C	-1.3156118803	-1.1235962121	-0.112907478	 0.144737
N	-1.5585719987	-1.8931412636	 0.8538822593	-0.242301
C	-2.1294718872	-3.2093109837	 0.5962062434	-0.263798
C	-2.3868900435	-3.5927115928	-0.7961832969	 0.040323
C	-2.572573305	-3.8868753965	-1.9510510327	 0.032122
C	-2.8664724393	-4.2435079693	-3.3390345541	-0.194282
O	-3.7753394719	-3.3528236487	-3.9724296085	-0.40202
H	-0.135016461	 1.8290123951	-0.6870999636	 0.145444
H	 0.159447034	 0.406231646	-1.7185698775	 0.128784
H	-1.4866826414	 1.0905059643	-1.5832029431	 0.12974
H	-1.4979037727	-1.3577217879	-1.1693361344	 0.09514
H	-1.4618011787	-3.9546737274	 1.0494410738	 0.143747
H	-3.0649087823	-3.280573925	 1.167683285	 0.140593
H	-1.951912188	-4.2102894366	-3.9414336959	 0.139939
H	-3.2302720679	-5.2828755029	-3.3756491744	 0.120893
H	-4.5562314069	-3.2934607602	-3.4120225189	 0.287765
23.1375	47.2686	65.0929	104.144	143.0269	165.5883	190.182	281.5973	282.0152	305.9497	361.0642	418.4989	471.8043	550.5192	653.317	786.38	954.9378	985.2245	1004.0547	1021.5912	1043.7526	1067.711	1136.8234	1177.1205	1179.8922	1214.7005	1266.1017	1282.7235	1346.9149	1359.794	1410.9578	1419.056	1466.3305	1487.4545	1491.8526	1494.8727	1501.0276	1775.4122	2348.0806	2977.6653	3013.0342	3014.6352	3030.5147	3045.7376	3062.7341	3079.7187	3144.9407	3815.5768
COC=NCC#CCO	COC=NCC#CCO	
InChI=1S/C6H9NO2/c1-9-6-7-4-2-3-5-8/h6,8H,4-5H2,1H3	InChI=1S/C6H9NO2/c1-9-6-7-4-2-3-5-8/h6,8H,4-5H2,1H3
