19
gdb 18533	5.38845	1.04524	0.98631	2.3356	71.53	-0.2258	0.0813	0.3071	1216.152	0.166024	-365.006302	-364.998174	-364.99723	-365.039266	30.228	
O	-0.092976188	 1.4620664136	-0.0306301554	-0.420291
C	-0.0165093561	 0.0507506342	 0.1115070494	-0.071877
C	-1.4094109619	-0.5217932629	-0.1162259351	-0.18828
C	-1.452949821	-2.0408765405	-0.01102437	 0.019697
C	-1.2528041915	-2.72981714	 1.3967096945	-0.240708
C	-2.6199990987	-3.3961364913	 1.2193622899	-0.041022
N	-3.5984842164	-2.2873928071	 1.0966744778	-0.328549
C	-2.8265053888	-2.7268700253	-0.0924312709	-0.072344
H	 0.7788143929	 1.828641984	 0.142734235	 0.282965
H	 0.68982544	-0.3830225631	-0.6168680424	 0.076623
H	 0.3433883416	-0.2281240759	 1.1154184617	 0.085649
H	-2.1019713171	-0.0861492995	 0.6104497763	 0.12548
H	-1.7511915639	-0.2094349071	-1.1114558483	 0.097216
H	-0.7693631769	-2.4953792686	-0.7368074765	 0.069052
H	-0.4169007256	-3.4324480254	 1.4069681723	 0.098871
H	-1.1806324248	-2.0600580042	 2.257929842	 0.105364
H	-2.9342975897	-4.3749439366	 1.5603335906	 0.089983
H	-4.5231223631	-2.7105872687	 1.0192030275	 0.22611
H	-3.3389905711	-3.0703392057	-0.9835169584	 0.086062
84.7573	98.3542	126.0723	221.7139	264.2034	338.1532	356.5507	453.7804	563.1167	683.335	784.6887	803.8036	826.6207	859.0246	893.9966	944.3342	961.4551	983.514	1012.7891	1037.6231	1071.9816	1084.926	1096.5924	1118.9983	1141.0468	1178.8701	1206.7531	1233.1149	1243.2697	1260.996	1296.1626	1311.2258	1317.9803	1328.7152	1385.9957	1390.1409	1463.3801	1475.4603	1496.3408	1527.8458	2952.4077	2980.0292	3031.2823	3041.9343	3061.1057	3094.8345	3119.4145	3175.8877	3191.8877	3470.1318	3829.5838
OCCC1CC2NC12	OCC[C@H]1C[C@H]2N[C@@H]12	
InChI=1S/C6H11NO/c8-2-1-4-3-5-6(4)7-5/h4-8H,1-3H2	InChI=1S/C6H11NO/c8-2-1-4-3-5-6(4)7-5/h4-8H,1-3H2/t4-,5+,6-/m0/s1
