17
gdb 12844	2.9352	2.53222	1.85074	1.4936	67.23	-0.2425	0.0217	0.2642	787.3121	0.143518	-363.874895	-363.867983	-363.867038	-363.905922	26.791	
C	-0.0845741025	 1.5260748963	 0.0793372725	-0.457851
C	 0.0379821866	 0.0149256505	 0.0166167761	 0.313312
C	-1.2437458623	-0.8294932481	 0.2904875677	-0.259981
C	-0.4673351533	-1.6596452193	 1.3610761164	-0.241464
C	 0.7774673538	-0.7680051463	 1.1530774538	 0.048162
O	 1.8783990256	-1.4263337544	 0.4888447474	-0.231504
C	 1.6948735725	-1.1592562229	-0.8309882077	 0.103682
N	 0.7432116197	-0.4120422127	-1.2093960912	-0.297856
H	 0.9010371429	 1.9991887318	 0.0235531536	 0.12153
H	-0.6819844325	 1.8917535281	-0.7616226758	 0.131498
H	-0.5685055663	 1.8423945599	 1.0093384085	 0.109316
H	-2.0724980721	-0.2445972844	 0.6980250297	 0.101444
H	-1.5992931946	-1.3863280727	-0.5782556059	 0.112038
H	-0.8862130433	-1.6235767655	 2.3692527057	 0.107443
H	-0.2867694689	-2.7038746656	 1.0978045863	 0.115259
H	 1.1728926965	-0.2373386039	 2.0206579817	 0.086626
H	 2.4224917182	-1.6295729407	-1.4837318687	 0.138346
81.3886	220.6116	260.7674	297.2831	333.255	418.5192	582.1019	613.1103	661.5336	734.9706	816.2644	837.9905	873.1493	920.3717	929.623	948.5318	967.4279	983.9704	1023.0381	1093.1497	1129.8657	1175.3493	1188.8232	1202.19	1226.671	1244.9344	1274.5675	1312.7702	1321.6141	1359.5251	1406.2563	1467.5802	1484.108	1486.2047	1491.6575	1687.5443	3032.2691	3063.4676	3071.446	3098.1044	3103.9866	3109.9914	3116.3032	3133.4642	3211.1692
CC12CCC1OC=N2	C[C@]12CC[C@H]1OC=N2	
InChI=1S/C6H9NO/c1-6-3-2-5(6)8-4-7-6/h4-5H,2-3H2,1H3	InChI=1S/C6H9NO/c1-6-3-2-5(6)8-4-7-6/h4-5H,2-3H2,1H3/t5-,6+/m1/s1
