19
gdb 86442	1.9306	1.71301	0.95512	3.7665	72.75	-0.2626	0.0099	0.2725	1238.8784	0.158299	-460.219605	-460.210679	-460.209735	-460.253361	33.178	
C	 0.0213327633	 1.5454568122	 0.0812871489	-0.409929
C	 0.0247014735	 0.0274684511	 0.0400104554	 0.112052
C	 0.619545401	-0.5485185404	-1.2459720241	-0.341551
C	 0.9912249549	-2.0219310842	-1.1481465115	 0.39742
O	 1.18297104	-2.7139729127	-2.1092785793	-0.321871
O	 1.1810631848	-2.5306973586	 0.0938957186	-0.240896
C	 0.7254800787	-1.8219270672	 1.2710604855	 0.218948
C	 1.5914774625	-2.2710747062	 2.4257832782	-0.404874
O	 0.8126967573	-0.4437801974	 1.1342786866	-0.244839
H	 1.0427594484	 1.9299360222	 0.0022103336	 0.13167
H	-0.5663307503	 1.9471459377	-0.7494304755	 0.124922
H	-0.4109060208	 1.9027592609	 1.0194731371	 0.129888
H	-1.0051857578	-0.346990103	 0.1662330462	 0.079312
H	-0.0482438465	-0.4290678494	-2.1024102528	 0.137114
H	 1.5484500369	-0.0153352657	-1.4844469179	 0.143137
H	-0.3266905389	-2.1200621459	 1.4149036602	 0.080693
H	 2.624604767	-1.9610462859	 2.2516735052	 0.13956
H	 1.2328737676	-1.8186743246	 3.3532780455	 0.130546
H	 1.5552073384	-3.3584695429	 2.5165901102	 0.138697
92.452	97.3569	171.4224	213.186	231.0988	253.5393	307.4927	429.0869	447.6338	475.3298	507.9118	528.8368	599.5485	704.812	810.0977	856.5642	907.289	924.1341	972.9604	978.6511	1065.574	1103.5234	1122.4303	1132.1116	1157.755	1199.8422	1237.1635	1271.9348	1302.5499	1368.9173	1384.307	1392.8792	1408.3284	1411.643	1439.4233	1453.9663	1482.0467	1483.1082	1488.1934	1499.9532	1849.5778	2959.414	2966.5179	3042.9115	3045.6264	3059.8013	3112.2237	3120.4801	3125.7162	3141.0908	3146.6871
CC1CC(=O)OC(C)O1	C[C@H]1CC(=O)O[C@@H](C)O1	
InChI=1S/C6H10O3/c1-4-3-6(7)9-5(2)8-4/h4-5H,3H2,1-2H3	InChI=1S/C6H10O3/c1-4-3-6(7)9-5(2)8-4/h4-5H,3H2,1-2H3/t4-,5-/m0/s1
