18
gdb 12051	3.37867	1.84007	1.52752	2.4068	71.84	-0.2493	-0.0211	0.2281	896.0922	0.152874	-347.786636	-347.778889	-347.777945	-347.818528	29.529	
C	-0.0389655686	 1.6986953785	 0.3383909247	-0.468951
C	 0.014105869	 0.1828869909	 0.1433103825	 0.222309
C	 0.9626295431	-0.4222048907	-0.9421982143	-0.295778
C	 1.6476112168	-1.2702606185	 0.1365725459	-0.021552
C	 2.240018908	-0.3826819164	 1.192490491	-0.295522
C	 0.7603931143	-0.6557086559	 1.2170664663	-0.081001
C	-1.4006399979	-0.3559559854	 0.0303989049	 0.119435
O	-1.8105908856	-1.1126647164	-0.8111936766	-0.249585
H	 0.9532883407	 2.1017812637	 0.5563290061	 0.125204
H	-0.4142421702	 2.198788373	-0.5613489116	 0.126434
H	-0.6978957385	 1.9680076491	 1.1722779023	 0.119283
H	 0.3934579445	-1.0048977969	-1.6676357945	 0.133325
H	 1.6065709196	 0.2916138782	-1.4654242654	 0.092144
H	 1.9460698198	-2.3045285757	 0.0208403153	 0.090784
H	 2.8030335045	-0.8871321181	 1.9716817197	 0.115487
H	 2.6288194581	 0.5991284454	 0.9334617772	 0.107475
H	 0.2836817445	-1.1305542247	 2.0675842563	 0.087299
H	-2.0737132621	 0.0068862698	 0.8436513104	 0.073209
81.2543	175.8203	209.0629	233.8273	316.7927	321.7524	386.4731	434.2008	585.6878	659.7249	761.6741	794.037	826.9596	859.2134	920.3864	934.4586	958.2046	987.0449	1001.6245	1017.8285	1046.6677	1069.4849	1083.5043	1146.0914	1160.4596	1175.7735	1236.6672	1251.6421	1261.0191	1295.4745	1356.1787	1406.2841	1426.9183	1476.1982	1486.6152	1497.1129	1501.1841	1828.265	2847.9487	3028.5098	3051.2619	3091.2138	3109.9806	3115.9483	3130.3582	3166.8772	3188.8235	3201.2621
CC1(CC2CC12)C=O	C[C@]1(C[C@H]2C[C@@H]12)C=O	
InChI=1S/C7H10O/c1-7(4-8)3-5-2-6(5)7/h4-6H,2-3H2,1H3	InChI=1S/C7H10O/c1-7(4-8)3-5-2-6(5)7/h4-6H,2-3H2,1H3/t5-,6-,7+/m1/s1
