23
gdb 109590	1.94269	1.56229	1.11328	1.2596	81.58	-0.2382	0.0622	0.3004	1238.518	0.204208	-425.409095	-425.398736	-425.397792	-425.444016	38.58	
C	-0.2120086251	 1.4964331082	 0.1994730806	-0.249022
O	-0.0910907273	 0.1030997328	-0.0291499015	-0.259385
C	-1.3350640956	-0.577915052	-0.0365691529	 0.061418
C	-1.2031685204	-1.9965765888	-0.6534830287	-0.004974
C	-0.1468101673	-2.2370238238	-1.7228930113	-0.407718
C	-1.0437029421	-2.5974466852	 0.7858227994	-0.058471
C	 0.3812766256	-2.9145105849	 1.2334664975	-0.412979
C	-1.6132744725	-1.2489932192	 1.3468202338	 0.133548
O	-1.0129068437	-0.6616383557	 2.4704294264	-0.434802
H	 0.7982607646	 1.9134276536	 0.1814591064	 0.12582
H	-0.8087385549	 1.976486478	-0.5901687929	 0.111367
H	-0.6761536673	 1.7141589482	 1.1699913375	 0.124062
H	-2.1140286913	 0.0744326975	-0.4532960961	 0.055392
H	-2.1856321866	-2.2799264516	-1.0474260394	 0.073019
H	 0.8398235053	-1.8997031046	-1.3991347396	 0.130067
H	-0.0829867861	-3.3010476524	-1.9744083231	 0.110836
H	-0.3948324196	-1.6935253169	-2.6409907159	 0.111412
H	-1.6815348816	-3.4652142756	 0.9814530574	 0.062603
H	 1.07034896	-2.0895932903	 1.0279667573	 0.121456
H	 0.4068942261	-3.1145527434	 2.309071411	 0.122138
H	 0.7654054889	-3.7994343263	 0.7162894113	 0.112875
H	-2.6834076473	-1.3189189742	 1.5604078636	 0.083362
H	-0.1153304219	-0.4299350933	 2.2021291491	 0.287977
71.3128	107.5241	179.1593	191.8756	198.6655	219.7984	236.6394	253.6464	267.9333	329.4628	442.973	462.0937	488.9722	521.4761	610.5259	747.0785	764.9911	800.9827	885.6438	895.3839	969.8623	1002.055	1027.5725	1046.9871	1098.1265	1117.6233	1152.9595	1175.1036	1177.5836	1182.3583	1187.3187	1222.8248	1253.3242	1278.4463	1287.7922	1298.2849	1360.6288	1368.8404	1385.7497	1407.2306	1412.7359	1440.3862	1479.6422	1486.6082	1488.944	1497.4703	1499.6028	1516.0658	1516.5431	2989.728	3007.1179	3033.7723	3036.5675	3039.0818	3050.4039	3052.6557	3076.8132	3093.9532	3104.2212	3109.2795	3114.2164	3129.4594	3784.6645
COC1C(C)C(C)C1O	CO[C@H]1[C@@H](C)[C@@H](C)[C@H]1O	
InChI=1S/C7H14O2/c1-4-5(2)7(9-3)6(4)8/h4-8H,1-3H3	InChI=1S/C7H14O2/c1-4-5(2)7(9-3)6(4)8/h4-8H,1-3H3/t4-,5+,6-,7+/m1/s1
