21
gdb 83284	2.63819	1.42428	1.25008	2.0057	77.82	-0.231	0.0746	0.3056	1125.0632	0.183634	-424.218219	-424.209778	-424.208834	-424.250886	33.51	
C	 0.0466201339	 1.5328668846	 0.0909727307	-0.400862
C	 0.0463352122	 0.0176807119	-0.0313758327	 0.144268
C	 0.5812759588	-0.4874619453	-1.3720789441	-0.207022
C	 0.5534203289	-2.0255997325	-1.4430869695	-0.234113
C	 0.9020082227	-2.700248104	-0.1252634342	-0.104381
C	 2.20595105	-2.4742044583	 0.6123172283	 0.0992
O	 3.160872008	-1.5927740169	 0.1077334748	-0.430109
C	 0.9262859108	-1.8743191708	 1.1458343012	 0.010322
O	 0.873610468	-0.4781179782	 1.0359855843	-0.280423
H	 1.0561501731	 1.9303742028	-0.0554078404	 0.12003
H	-0.6106476181	 1.976507392	-0.6626247793	 0.117035
H	-0.3013481948	 1.8381006617	 1.0813836026	 0.124302
H	-0.9766968003	-0.3636432511	 0.1200037575	 0.070317
H	-0.0162876852	-0.0673320449	-2.1887532526	 0.094593
H	 1.6048579	-0.1184500232	-1.4948580853	 0.109779
H	-0.4599420628	-2.3434463141	-1.7176859938	 0.099677
H	 1.2176214045	-2.3776380293	-2.23997322	 0.110666
H	 0.4920274844	-3.7002485862	-0.0104560744	 0.087473
H	 2.6421119326	-3.3222620843	 1.1343778693	 0.091641
H	 2.9035081328	-0.7180099479	 0.4341006864	 0.287738
H	 0.4696488905	-2.249123736	 2.058918011	 0.089871
101.2249	163.6172	202.0387	223.8112	267.99	304.4573	427.1218	446.4621	479.8528	486.2354	530.9931	630.5078	717.1002	740.8343	783.7766	825.4802	870.0469	910.7002	922.9485	962.6867	1005.7035	1027.192	1058.3276	1094.2447	1113.1876	1119.9438	1153.1438	1162.9676	1173.0012	1235.6017	1241.8924	1262.7571	1326.6087	1341.9264	1349.3506	1362.1112	1379.914	1397.5223	1401.9397	1412.255	1439.6491	1478.9879	1486.1676	1496.6001	1499.3305	2971.669	3024.652	3039.4962	3044.5075	3062.9461	3090.1387	3113.9374	3121.7944	3122.7081	3130.8263	3145.0339	3720.2534
CC1CCC2C(O)C2O1	C[C@H]1CC[C@H]2[C@@H](O)[C@H]2O1	
InChI=1S/C7H12O2/c1-4-2-3-5-6(8)7(5)9-4/h4-8H,2-3H2,1H3	InChI=1S/C7H12O2/c1-4-2-3-5-6(8)7(5)9-4/h4-8H,2-3H2,1H3/t4-,5-,6+,7-/m0/s1
