20
gdb 92833	2.24101	1.67174	1.54191	3.7936	78.15	-0.2438	0.0182	0.262	1026.0817	0.171702	-403.131593	-403.123283	-403.122339	-403.163919	32.53	
C	-0.1179269743	 1.5469590705	-0.1031889449	-0.409344
C	-0.0318706182	 0.0216745431	-0.0134647926	-0.081686
C	 0.9827166816	-0.5617945055	-1.0825777521	-0.170918
N	 2.333291148	-0.5675421141	-0.4361308185	-0.315203
C	 2.0377167955	-0.5749337817	 0.7896345161	 0.409731
O	 2.6588240747	-0.1825439167	 1.9449291503	-0.280118
C	 1.3280056342	 0.2623722262	 2.4387866895	-0.167504
C	 0.630916453	-0.5272139312	 1.2789969115	 0.18975
C	 0.027226702	-1.8471471163	 1.7629359939	-0.461998
H	 0.8720650055	 2.0094674152	-0.0284816052	 0.133274
H	-0.5481061864	 1.8481675933	-1.0635502052	 0.120622
H	-0.7495987555	 1.9610344222	 0.6894996129	 0.113102
H	-1.0316544315	-0.4031229434	-0.1503356328	 0.070334
H	 0.6987801805	-1.568843235	-1.4134296232	 0.105247
H	 1.0288329098	 0.0709783965	-1.9740554564	 0.11188
H	 1.1487578593	-0.1041933757	 3.4509593626	 0.121751
H	 1.2706916225	 1.3516503406	 2.3944187199	 0.129193
H	-0.9319556434	-1.6691153879	 2.2615253327	 0.122037
H	-0.1524928328	-2.527533918	 0.9253942272	 0.130291
H	 0.6901861355	-2.3536865821	 2.4711241444	 0.12956
120.7604	213.2883	227.3423	236.1239	249.9245	262.5931	329.081	379.9997	447.9345	526.8794	668.0242	680.1554	718.0225	784.1325	816.6906	868.2991	904.0857	931.8744	937.9945	955.6773	985.1399	1044.9331	1051.9362	1119.8861	1125.1687	1144.1617	1195.4074	1214.9015	1219.7182	1250.5718	1278.5506	1313.3273	1345.5972	1379.4039	1409.9832	1416.7003	1490.6089	1491.6784	1497.2372	1498.666	1504.4221	1508.1037	1771.4322	3024.1134	3031.541	3032.0887	3052.9383	3071.9168	3082.1388	3099.7263	3101.3717	3103.3152	3111.1173	3141.9029
CC1CN=C2OCC12C	C[C@H]1C[N][C]2OC[C@@]12C	
InChI=1S/C7H11NO/c1-5-3-8-6-7(5,2)4-9-6/h5H,3-4H2,1-2H3	InChI=1S/C7H11NO/c1-5-3-8-6-7(5,2)4-9-6/h5H,3-4H2,1-2H3/t5-,7-/m0/s1
