20
gdb 86330	2.11525	1.5201	1.04641	2.4963	76.55	-0.2229	-0.013	0.2099	1216.9817	0.168228	-440.274351	-440.26443	-440.263486	-440.309596	35.775	
C	-0.0364819467	 1.4513575225	-0.0887665107	-0.332427
N	-0.0682184576	 0.0215244022	 0.1117704056	-0.060444
C	-1.3024336285	-0.6429338101	 0.5652050265	-0.202824
C	-0.4176903496	-1.6763499668	 1.3063278123	 0.117403
O	-0.1425582574	-2.8593648268	 0.5956706043	-0.432869
C	 0.6954770459	-0.5795107283	 1.208119149	-0.118425
C	 2.1219374025	-1.0077304154	 0.898253288	 0.374058
C	 2.7763515856	-1.8980417551	 1.9349893245	-0.48607
O	 2.6746874635	-0.6683404344	-0.1218659311	-0.299492
H	 0.978162115	 1.7542328684	-0.3606482978	 0.14277
H	-0.7049839227	 1.725002882	-0.9116384665	 0.122319
H	-0.3475293314	 2.0197170188	 0.8089711492	 0.087289
H	-1.9032540495	-0.0385982473	 1.2665220885	 0.086338
H	-1.9522967698	-1.0236692842	-0.2308864594	 0.105139
H	-0.7286921663	-1.9780279178	 2.3062727014	 0.096226
H	 0.0942125075	-2.6058347966	-0.3054566204	 0.297397
H	 0.706253618	 0.03220015	 2.1321395428	 0.070437
H	 2.2801877428	-2.8753792544	 1.9099238831	 0.162516
H	 3.8363406266	-2.0195192435	 1.7086620834	 0.140823
H	 2.6500547921	-1.494344333	 2.9452448871	 0.129835
45.8879	101.4561	129.7755	154.8486	168.8064	227.5468	260.6296	315.1628	379.8902	407.1208	445.5844	468.811	536.7575	620.6475	737.5799	780.3255	859.9748	910.1439	943.3499	974.0683	1020.0533	1027.2633	1035.0694	1110.4181	1142.6967	1166.1855	1181.7282	1202.0533	1224.474	1252.3498	1271.6801	1303.2748	1324.8148	1367.6117	1383.233	1439.627	1448.6735	1468.6841	1475.825	1489.3621	1496.7641	1512.9935	1812.7899	2905.6408	2923.0046	2956.8096	3036.4568	3056.111	3066.7229	3100.9628	3116.9583	3121.2841	3151.6587	3782.1697
CN1CC(O)C1C(C)=O	CN1C[C@@H](O)[C@H]1C(=O)C	
InChI=1S/C6H11NO2/c1-4(8)6-5(9)3-7(6)2/h5-6,9H,3H2,1-2H3	InChI=1S/C6H11NO2/c1-4(8)6-5(9)3-7(6)2/h5-6,9H,3H2,1-2H3/t5-,6-/m1/s1
