21
gdb 76219	2.56272	1.49897	1.16646	1.3403	84.28	-0.2229	0.0168	0.2396	1157.0042	0.181794	-387.097526	-387.088333	-387.087389	-387.130735	35.7	
C	 0.0202578626	 1.5035903122	 0.0236307786	-0.485306
C	-0.0349058404	 0.0122010648	-0.04666381	 0.268511
C	-0.0415683386	-0.7745318009	-1.1273992427	-0.188036
C	-0.0071577535	-2.2247424336	-0.7690660509	-0.111001
C	 1.2535090918	-2.6523668567	-0.0355144349	-0.337543
C	 0.0088215121	-2.2762867602	 0.7421843989	 0.336378
C	-0.7057279285	-3.3313236219	 1.5509398856	-0.491798
C	-0.0709808084	-0.823585744	 1.23127379	-0.031646
O	 0.9174119168	-0.4598755363	 2.1907335037	-0.431846
H	 0.8631182993	 1.8291279723	 0.6437160211	 0.132161
H	 0.1179697668	 1.9551612317	-0.9671783277	 0.117971
H	-0.883014767	 1.9096295353	 0.4980848128	 0.124464
H	-0.0213980134	-0.4238629011	-2.1544228019	 0.09032
H	-0.5462781995	-2.9555430811	-1.3624413991	 0.085226
H	 1.5149664014	-3.7062661431	-0.03778129	 0.109316
H	 2.1053860832	-1.9793872026	-0.0801811982	 0.0981
H	-0.6110679887	-4.3217171584	 1.0945692151	 0.111237
H	-0.2917299724	-3.3878650686	 2.5643532995	 0.126729
H	-1.7746524083	-3.1054498693	 1.6407447996	 0.116886
H	-1.0196106618	-0.6618071175	 1.763144807	 0.083812
H	 1.7729164664	-0.713638151	 1.8257844133	 0.276065
107.8859	164.368	199.6339	211.9674	235.1104	249.5851	296.0974	317.0533	378.8367	458.3869	485.135	538.5909	610.1936	673.1473	740.2846	838.6616	844.7076	867.1287	900.29	938.6234	970.2773	997.8505	1028.3611	1052.331	1062.0021	1067.9714	1080.8422	1096.4269	1118.4097	1193.2528	1230.988	1260.1584	1277.7801	1316.6663	1336.9307	1391.6568	1409.0826	1418.9615	1426.5705	1473.4209	1480.2084	1488.9643	1490.3881	1501.7348	1711.9992	3003.963	3019.0303	3023.0103	3070.9782	3083.6099	3097.9118	3110.7489	3113.729	3164.314	3180.8963	3198.4459	3792.5853
CC1=CC2CC2(C)C1O	CC1=C[C@H]2C[C@@]2(C)[C@H]1O	
InChI=1S/C8H12O/c1-5-3-6-4-8(6,2)7(5)9/h3,6-7,9H,4H2,1-2H3	InChI=1S/C8H12O/c1-5-3-6-4-8(6,2)7(5)9/h3,6-7,9H,4H2,1-2H3/t6-,7-,8+/m0/s1
