18
gdb 23142	1.9606	1.34078	0.90564	1.9361	77.26	-0.2386	-0.0352	0.2034	1296.7147	0.145527	-439.038269	-439.028871	-439.027926	-439.07335	33.846	
O	 0.0670300924	 1.3236234692	 1.0797191513	-0.396281
N	 0.0793418315	-0.0084345007	 0.6408910959	-0.192341
C	-1.019068486	-0.3552226138	 0.0754084124	 0.341409
C	-1.0574551239	-1.803677496	-0.3685385789	-0.361367
C	-1.6626829616	-2.676515228	 0.7230139265	 0.160226
O	-2.6957712078	-3.2851101387	 0.6210874639	-0.231814
C	-2.1957318888	 0.5237724793	-0.1067919443	-0.074999
C	-2.9076063214	 0.6058542515	-1.4511471675	-0.265387
C	-3.5974970974	-0.034019068	-0.2886465585	-0.288015
H	 0.9435334458	 1.414261072	 1.4673828307	 0.307768
H	-1.6296968708	-1.9424853609	-1.2887378138	 0.126467
H	-0.0265851451	-2.1359323132	-0.5266953289	 0.141007
H	-1.06323886	-2.6989563515	 1.6594630387	 0.097817
H	-2.1178270654	 1.4575581678	 0.432665219	 0.118659
H	-3.2210871079	 1.5915135203	-1.7752542902	 0.12409
H	-2.5551835716	-0.0333636807	-2.2529723395	 0.122207
H	-3.7280251166	-1.1095968864	-0.2964723396	 0.148084
H	-4.3988729654	 0.5071675278	 0.2015771227	 0.122469
56.8163	76.4286	92.2121	175.0525	225.2523	268.0881	285.3667	342.5074	412.8215	441.6941	480.2106	612.9455	670.3393	711.3724	797.2523	836.7338	855.8971	906.8006	951.6511	971.1249	1018.7442	1059.2187	1062.3019	1084.2675	1101.065	1144.5276	1191.0876	1204.0678	1224.4517	1274.5777	1306.1186	1366.1437	1411.7152	1418.0306	1459.365	1477.5409	1510.1631	1703.7876	1828.8758	2898.7856	3058.2414	3122.2501	3140.7779	3146.3913	3210.6603	3221.7576	3238.226	3825.0921
ON=C(CC=O)C1CC1	ON=C(CC=O)C1CC1	
InChI=1S/C6H9NO2/c8-4-3-6(7-9)5-1-2-5/h4-5,9H,1-3H2	InChI=1S/C6H9NO2/c8-4-3-6(7-9)5-1-2-5/h4-5,9H,1-3H2
