21
gdb 5873	3.463	1.22109	1.14616	3.5399	75.73	-0.25	0.0312	0.2812	1164.8583	0.186902	-366.30368	-366.293825	-366.292881	-366.338266	36.01	
C	-0.0527222926	 1.5527752889	 0.2241241443	-0.409892
C	-0.0006068743	 0.0382509662	-0.0428580874	 0.257197
C	 0.8655341425	-0.6519420017	 1.0237554312	-0.395781
C	-1.4268530463	-0.5385816118	-0.006362841	-0.40248
C	 0.5705033577	-0.2359377481	-1.4561130732	-0.170188
N	 1.9238756831	 0.2494143351	-1.6798370746	-0.277095
C	 3.0070225855	-0.5701294667	-1.7527009232	 0.155328
O	 2.9886522694	-1.7740678151	-1.6063261013	-0.325718
H	 0.9485829488	 1.9969662088	 0.2122808515	 0.103482
H	-0.6647828808	 2.0708296429	-0.5237634315	 0.105371
H	-0.4874913269	 1.7597354639	 1.2075816622	 0.116847
H	 0.444666429	-0.4942267924	 2.0225465771	 0.104738
H	 0.9293171781	-1.7296174092	 0.8456345543	 0.126427
H	 1.8855708813	-0.2568039576	 1.0242855722	 0.115834
H	-2.0688824065	-0.0693274409	-0.7607320944	 0.107506
H	-1.4226192529	-1.6178500412	-0.1937781734	 0.116818
H	-1.8884713764	-0.3720301519	 0.9723791024	 0.112748
H	 0.6015892777	-1.3130477516	-1.6384265901	 0.140759
H	-0.0914961997	 0.214457241	-2.2064770078	 0.098845
H	 2.0698265612	 1.232558804	-1.8417943646	 0.247262
H	 3.9350475919	-0.0026889924	-1.9673690829	 0.071991
49.0222	74.4907	185.7267	211.8975	243.1495	262.0174	278.3625	289.31	336.3839	358.4689	401.7207	416.8433	520.6056	544.2235	732.7611	762.7515	895.0909	931.1375	942.9808	954.3773	962.2015	997.5905	1029.8532	1057.5646	1082.3123	1208.9966	1232.4465	1239.0932	1274.9157	1329.5613	1386.9046	1399.2945	1401.4845	1430.8082	1434.5482	1470.9484	1479.9381	1485.0602	1488.4268	1506.1427	1509.5417	1518.8833	1534.9107	1805.4113	2929.6402	3021.6703	3022.8997	3027.6298	3036.7864	3088.4369	3091.7833	3096.0444	3098.4128	3104.3734	3109.4903	3113.5143	3641.6114
CC(C)(C)CNC=O	CC(C)(C)CNC=O	
InChI=1S/C6H13NO/c1-6(2,3)4-7-5-8/h5H,4H2,1-3H3,(H,7,8)	InChI=1S/C6H13NO/c1-6(2,3)4-7-5-8/h5H,4H2,1-3H3,(H,7,8)
