16
gdb 36068	4.47369	1.1875	1.11702	1.5438	76.07	-0.2178	0.0471	0.2649	1101.6503	0.122988	-363.449846	-363.442431	-363.441487	-363.482097	28.98	
C	-0.6786524909	-0.4861996833	-1.1401248896	-0.449081
C	-0.1598584939	 0.1353751664	-0.2523822945	 0.300303
C	 0.4788225412	 0.9096800539	 0.8087719322	-0.49564
C	 1.6327127437	 1.733273659	 0.3176953593	 0.373518
C	 1.735540311	 2.9555209371	-0.6353743252	-0.16674
C	 3.2233392309	 2.6368435109	-0.8391975514	-0.105647
C	 2.7753531362	 3.5109541596	 0.3021836409	-0.009658
N	 2.6515139335	 2.3224700933	 1.2562492619	-0.23034
C	 3.0729024716	 1.4258788056	 0.1126652102	-0.104298
H	-1.1393725714	-1.0432107583	-1.9177928299	 0.197663
H	-0.2605580305	 1.5674689361	 1.2856381133	 0.140302
H	 0.8495122401	 0.243558218	 1.5984107489	 0.146606
H	 1.0411052134	 3.4389895232	-1.3069263036	 0.103025
H	 3.8540104947	 2.8425386098	-1.6916082485	 0.099902
H	 3.0315460292	 4.5191069409	 0.602145813	 0.101408
H	 3.6479985512	 0.521158238	 0.2711665629	 0.098677
64.7075	100.2015	260.1462	286.8075	344.5047	433.5422	622.0771	628.5449	648.6492	689.165	739.2377	762.9826	791.2931	819.1935	845.1572	874.1664	886.5961	940.714	958.9774	961.5792	997.8102	999.3231	1006.3572	1033.9109	1064.2554	1111.566	1186.1314	1195.6148	1252.5843	1297.6606	1321.0147	1342.8052	1424.5843	1456.2136	2241.6389	3014.8302	3052.3738	3180.8243	3190.8958	3219.3461	3230.947	3506.688
C#CCC12C3C4C3N1C24	C#CC[C@@]12[C@@H]3[C@H]4[C@@H]3N1[C@@H]24	
InChI=1S/C8H7N/c1-2-3-8-5-4-6(5)9(8)7(4)8/h1,4-7H,3H2	InChI=1S/C8H7N/c1-2-3-8-5-4-6(5)9(8)7(4)8/h1,4-7H,3H2/t4-,5+,6-,7+,8-,9?/m0/s1
