15
gdb 24570	2.2946	2.02557	1.24435	2.3809	78.54	-0.2041	-0.032	0.1721	979.3431	0.113489	-416.788654	-416.78118	-416.780236	-416.820843	27.901	
O	-0.0693553303	 1.3148553024	 0.0186149813	-0.201595
C	 0.9640506096	 2.1989112525	 0.047145799	 0.063945
C	 2.1967595306	 2.1236748079	-0.4645181402	-0.150117
C	 2.9968650207	 1.0190738645	-0.9971422793	-0.048705
N	 3.4178735812	-0.0282502592	-0.3941895008	-0.189345
C	 3.0586978865	-0.3879169279	 0.8891103518	-0.031326
C	 1.8400097345	-0.7187508784	 1.3593020219	-0.069912
N	 0.6687540437	-0.8799161103	 0.6417010296	-0.223085
C	-0.0660933606	-0.0526107977	 0.0513010325	 0.129893
H	 0.5929775678	 3.1480793115	 0.4205450202	 0.126547
H	 2.7077663344	 3.0852289819	-0.49926045	 0.117361
H	 3.4091727681	 1.1868609629	-1.996630095	 0.114603
H	 3.9085316249	-0.5945298264	 1.5354173634	 0.111249
H	 1.7955748012	-1.1740380364	 2.3458695294	 0.114277
H	-0.9619755123	-0.3937844774	-0.4632069237	 0.136208
83.3038	149.889	191.1766	237.0695	323.7352	377.5415	506.7246	530.599	622.8074	684.9712	739.8867	785.3534	816.3929	838.7191	908.4152	915.9488	924.2863	949.3587	955.5828	969.3263	1017.1474	1098.3319	1168.2941	1294.3679	1325.5805	1406.5875	1432.5722	1441.4924	1462.9682	1638.8269	1670.7267	1704.4543	1772.9686	3075.0752	3133.8645	3144.7544	3162.3591	3165.4567	3189.1297
O1C=CC=NC=CN=C1	o1cccnccnc1	
InChI=1S/C6H6N2O/c1-2-7-3-4-8-6-9-5-1/h1-6H/b4-3-,5-1-,7-2-,8-6-	InChI=1S/C6H6N2O/c1-2-7-3-4-8-6-9-5-1/h1-6H/b4-3-,5-1-,7-2-,8-6-
