18
gdb 69860	2.71043	1.64107	1.18672	1.3307	83.81	-0.2044	0.0271	0.2315	1067.0748	0.146072	-364.698861	-364.690561	-364.689617	-364.731185	33.082	
C	-0.0485859323	 1.545987498	 0.115747151	-0.506023
C	 0.0074666944	 0.0497204984	 0.040537632	 0.312966
C	-0.8907925438	-0.8918988637	 0.7931450531	-0.343899
C	 0.6025412547	-0.963305905	 1.0112611964	-0.112672
C	 1.3287586205	-1.6595717506	-0.1677484096	-0.120881
N	 0.3371061842	-2.1274943509	-1.1513553337	-0.377046
C	 0.7491054606	-0.6864940811	-1.1388580179	 0.147102
C	 1.3313352091	-0.0596898156	-2.2678736427	 0.168871
C	 1.8142668598	 0.4918906603	-3.2240341696	-0.409225
H	 0.9257063845	 1.9950271065	-0.106121486	 0.125065
H	-0.7707487551	 1.9537776784	-0.6015384121	 0.126119
H	-0.3514554049	 1.8699962269	 1.1163855934	 0.117415
H	-1.4338116625	-0.4217485963	 1.6080838517	 0.106589
H	-1.4140907458	-1.6968458784	 0.2937341348	 0.142663
H	 1.0724757982	-0.7807846209	 1.9688014201	 0.090752
H	 2.3322090607	-2.0640039225	-0.1397552122	 0.107899
H	 0.847897561	-2.5647018084	-1.9184061389	 0.237657
H	 2.2444449567	 0.9753490646	-4.0656547701	 0.186648
124.6764	131.172	201.0211	241.3314	292.0594	388.1669	430.4679	472.9957	504.0199	549.127	559.1061	583.9915	642.2366	670.8536	769.5737	829.2438	839.0326	868.4354	881.6361	918.2227	963.5847	978.0322	990.8233	1035.0778	1049.5764	1096.2662	1115.5124	1155.6223	1198.4048	1241.5186	1264.7528	1326.8008	1359.5626	1396.1616	1421.3099	1471.4654	1481.5029	1499.4052	2224.639	3024.2905	3083.5414	3102.1701	3133.0482	3194.1039	3204.7842	3229.631	3476.4264	3502.6634
CC12CC1C1NC21C#C	C[C@]12C[C@H]1[C@H]1N[C@@]21C#C	
InChI=1S/C8H9N/c1-3-8-6(9-8)5-4-7(5,8)2/h1,5-6,9H,4H2,2H3	InChI=1S/C8H9N/c1-3-8-6(9-8)5-4-7(5,8)2/h1,5-6,9H,4H2,2H3/t5-,6+,7-,8+/m0/s1
