19
gdb 66253	3.06906	1.23747	1.16097	0.9876	70.09	-0.2512	0.069	0.3203	1136.0789	0.159379	-460.135495	-460.127061	-460.126116	-460.168855	31.921	
O	 0.421874842	 1.2983528966	 1.0013554016	-0.488459
C	 0.0530109603	 0.014331066	 0.5058363052	 0.37593
C	 0.4273811931	-0.1472680709	-0.9872486057	-0.307609
C	 1.8327031895	-0.8008500854	-0.9345565601	-0.09331
O	 2.1798661238	-0.9035342814	 0.4514471428	-0.265761
C	 0.9488376833	-1.06147023	 1.1432664064	-0.146194
C	-1.411294839	-0.148993766	 0.8480047967	 0.046607
C	-2.5006321425	 0.1643217958	-0.0805590173	-0.182375
O	-2.1217129669	-1.1921793326	 0.1819683491	-0.239834
H	 1.3866518627	 1.3113829789	 1.0314182333	 0.286454
H	-0.2895312539	-0.7980415102	-1.4925173959	 0.126068
H	 0.4300573444	 0.8285645364	-1.475757615	 0.11398
H	 1.8184780059	-1.8012053834	-1.3896617725	 0.1031
H	 2.6115688546	-0.212657339	-1.4260310178	 0.112267
H	 1.1240015627	-0.8919542125	 2.2082438391	 0.113584
H	 0.5249955781	-2.0669583893	 0.9925607955	 0.105239
H	-1.6175270119	-0.0699165843	 1.9161915549	 0.100543
H	-3.4715976203	 0.4592508853	 0.3128028569	 0.121335
H	-2.271510026	 0.526869526	-1.0802910172	 0.118435
73.3514	95.6403	188.1194	207.0893	239.8788	357.871	380.7575	426.5433	467.9465	510.605	601.0115	701.5558	802.443	824.382	874.2429	901.8542	928.6398	949.1823	959.5425	988.7852	1020.9639	1053.7653	1097.4256	1099.7406	1157.1401	1164.5775	1174.3715	1194.0811	1232.8395	1254.3164	1277.8199	1281.0767	1300.5328	1330.2757	1375.4543	1405.0757	1460.68	1483.0421	1501.3284	1524.6179	1529.8385	2985.0372	3004.8329	3076.4615	3091.9857	3094.2688	3104.0838	3108.3123	3132.8172	3183.4255	3779.8028
OC1(CCOC1)C1CO1	O[C@]1(CCOC1)[C@H]1CO1	
InChI=1S/C6H10O3/c7-6(5-3-9-5)1-2-8-4-6/h5,7H,1-4H2	InChI=1S/C6H10O3/c7-6(5-3-9-5)1-2-8-4-6/h5,7H,1-4H2/t5-,6+/m1/s1
