19
gdb 63716	3.47348	1.15295	1.02746	1.7091	84.02	-0.2299	0.0408	0.2707	1221.4818	0.156665	-385.832237	-385.823191	-385.822247	-385.865275	35.732	
C	-0.1345193402	 1.5704532227	 0.0541021979	-0.452634
C	 0.0551589759	 0.059822627	 0.0146187342	 0.414769
O	-1.1905718225	-0.5980960274	-0.1664726295	-0.478669
C	 1.1614395298	-0.5252560152	-0.938304594	-0.351815
C	 1.7892215483	-1.2619479879	 0.2617363832	 0.231684
C	 2.1835590901	-0.2452684621	 1.3097069418	-0.336447
C	 0.740347354	-0.6248436362	 1.202713302	-0.121063
C	 2.3052098662	-2.5870872484	 0.2362707349	 0.135047
C	 2.739499904	-3.709197582	 0.191590246	-0.399664
H	 0.8028189626	 2.0944285552	 0.2597603471	 0.117794
H	-0.5083532578	 1.9353492529	-0.9110284869	 0.107601
H	-0.8624000009	 1.8394490489	 0.8255075867	 0.12729
H	-1.5917807507	-0.2543703696	-0.9723118364	 0.274774
H	 0.7125235637	-1.206972028	-1.6617708848	 0.116245
H	 1.8198256123	 0.183236611	-1.4518770441	 0.089941
H	 2.7037857818	-0.6544229851	 2.1687323127	 0.129176
H	 2.5359798119	 0.735936855	 1.0004946281	 0.108658
H	 0.1959753028	-1.096783366	 2.0110949922	 0.105954
H	 3.1202688788	-4.6993657347	 0.1571610289	 0.181358
96.1776	139.748	225.0788	241.1068	259.821	291.4294	361.3375	400.9637	423.5894	477.9184	505.637	525.2257	560.0196	577.1851	644.6507	669.4352	791.8577	832.114	857.2048	899.2568	951.4618	966.9308	990.0803	1008.7498	1034.8242	1087.8157	1109.7516	1115.9671	1164.8505	1210.4092	1226.5437	1254.1969	1279.8141	1371.0541	1390.2357	1410.7998	1468.2564	1487.3583	1493.2706	1497.6688	2231.6536	3024.7508	3046.2026	3091.9029	3110.799	3118.7303	3129.6979	3196.9151	3211.8197	3504.7819	3800.743
CC1(O)CC2(CC12)C#C	C[C@@]1(O)C[C@]2(C[C@@H]12)C#C	
InChI=1S/C8H10O/c1-3-8-4-6(8)7(2,9)5-8/h1,6,9H,4-5H2,2H3	InChI=1S/C8H10O/c1-3-8-4-6(8)7(2,9)5-8/h1,6,9H,4-5H2,2H3/t6-,7+,8+/m0/s1
