17
gdb 33469	2.86669	1.28884	1.01565	2.7142	72.6	-0.2536	0.0081	0.2617	1164.6637	0.136772	-417.962671	-417.95434	-417.953395	-417.996448	30.069	
N	-0.3039683492	-1.1169638156	 0.694567504	-0.331904
C	-0.1923709433	 0.0012767639	 0.4195466051	 0.239698
C	-0.0630637036	 1.3936071937	 0.0429328604	 0.148648
C	 0.7504777643	 2.2518534757	 0.9611587932	-0.266299
N	 1.2829969006	 1.8629211224	-0.3451893539	-0.327696
C	-1.236774458	 1.9343474761	-0.7489036981	-0.111296
C	-1.125757613	 3.3491223529	-1.3611589451	-0.098645
O	-1.409194382	 2.8440865226	-2.6802399511	-0.26886
C	-1.3765175984	 1.4794562132	-2.2213980925	-0.074787
H	 0.4856466577	 3.3013508152	 1.0544158052	 0.138806
H	 1.1565506218	 1.7952360421	 1.8584268425	 0.14338
H	 1.9654323603	 1.115212183	-0.2518822874	 0.256664
H	-2.1520882493	 1.7882430191	-0.170826561	 0.102895
H	-1.8749315315	 4.0759777643	-1.0279586684	 0.104813
H	-0.1253260564	 3.7927144898	-1.3032906202	 0.122307
H	-0.5058550738	 0.9357914159	-2.6099580855	 0.109375
H	-2.2899257262	 0.9327209456	-2.4787619871	 0.112901
62.8872	83.2526	134.4882	208.7981	234.1253	272.0589	403.167	437.6622	558.3175	590.9586	645.2204	804.1842	841.9459	885.9001	896.314	920.183	967.6046	987.4516	1034.2896	1045.9706	1051.3749	1106.3381	1123.4462	1142.4329	1168.0336	1183.979	1251.142	1262.82	1280.2312	1319.6825	1343.3008	1371.1291	1405.0585	1505.3579	1505.5269	1531.7996	2347.5929	3016.281	3029.2052	3066.8666	3073.3269	3091.2266	3117.7334	3209.9897	3517.4393
N#CC1(CN1)C1COC1	N#C[C@]1(CN1)C1COC1	
InChI=1S/C6H8N2O/c7-3-6(4-8-6)5-1-9-2-5/h5,8H,1-2,4H2	InChI=1S/C6H8N2O/c7-3-6(4-8-6)5-1-9-2-5/h5,8H,1-2,4H2/t6-/m0/s1
