17
gdb 84261	2.96714	1.56173	1.10291	3.3097	75.51	-0.24	-0.0116	0.2284	1093.8702	0.137145	-418.033062	-418.025084	-418.02414	-418.066036	29.382	
C	-0.1934963287	 1.5088102998	-0.1388823113	-0.379069
C	 0.0198779524	 0.0025760297	-0.0047729555	-0.102867
N	 0.8107934424	-0.5597259459	-1.1355467947	-0.359973
C	 1.7524624254	-1.1660000924	-0.5360710624	 0.40707
C	 3.0632013234	-1.9376586832	-0.6423987733	-0.370686
C	 3.109073806	-1.8285714836	 0.9312857975	-0.17645
N	 1.7939435366	-1.1520760269	 0.8457929014	-0.114849
C	 0.7656936747	-0.3551008447	 1.3305718084	 0.370649
O	 0.5091390236	-0.022602349	 2.4585868703	-0.364474
H	 0.7655597932	 2.0295423713	-0.2157981619	 0.122258
H	-0.7759039325	 1.7296703892	-1.0362161773	 0.13033
H	-0.7233514339	 1.8852623389	 0.7401523555	 0.138596
H	-0.9538793371	-0.5031131407	 0.0237968617	 0.123668
H	 2.9689470122	-2.954633575	-1.0265243337	 0.147268
H	 3.8634148256	-1.4204915402	-1.1736317978	 0.147483
H	 3.0805334048	-2.7739313493	 1.4763158394	 0.13961
H	 3.9011435318	-1.1907063279	 1.3297479237	 0.141436
70.1604	106.4439	187.3107	220.9052	242.2255	315.4614	403.3701	559.9394	579.223	645.8647	666.0746	744.0145	786.4686	802.6759	870.0241	895.9524	935.6542	1045.2051	1054.6667	1082.3628	1098.8711	1133.3919	1142.0106	1189.3181	1215.2311	1243.5175	1246.5268	1300.1257	1308.678	1374.863	1400.9653	1464.5931	1486.8713	1496.4099	1511.9449	1745.0151	1844.9801	3034.5554	3047.8129	3073.2644	3092.319	3122.0477	3127.18	3134.9318	3150.1819
CC1N=C2CCN2C1=O	C[C@H]1N=C2CCN2C1=O	
InChI=1S/C6H8N2O/c1-4-6(9)8-3-2-5(8)7-4/h4H,2-3H2,1H3	InChI=1S/C6H8N2O/c1-4-6(9)8-3-2-5(8)7-4/h4H,2-3H2,1H3/t4-/m1/s1
