20
gdb 32097	3.21378	1.12038	0.88961	2.1545	90.01	-0.2448	-0.0154	0.2294	1375.6967	0.171988	-366.092037	-366.082983	-366.082039	-366.127195	33.02	
C	 0.1670405764	 1.5357637475	 0.1762307868	-0.367439
C	-0.0665039875	 0.0336788028	-0.0513274774	-0.263425
C	 0.6861342849	-0.4852271507	-1.2543067668	 0.3358
N	 0.2593758314	-0.0547993982	-2.4508857093	-0.32365
C	 0.9129496837	-0.484979751	-3.5307722264	-0.002581
C	 2.0032595305	-1.3469479813	-3.4887468455	-0.20436
C	 2.4596078158	-1.7999482823	-2.2503121914	 0.322287
C	 3.6517850058	-2.7143918063	-2.1360520464	-0.49341
C	 1.7730986875	-1.3515487083	-1.1217304996	-0.254521
H	 1.2210079491	 1.7432951931	 0.3890551114	 0.112254
H	-0.1150314547	 2.0987691539	-0.717306363	 0.138022
H	-0.4276374845	 1.9004621258	 1.0193144024	 0.109403
H	 0.2247956196	-0.5324207601	 0.8399358936	 0.093818
H	-1.1361176799	-0.1410471448	-0.2131124581	 0.115977
H	 0.5412098729	-0.1252821037	-4.4882116029	 0.10305
H	 2.4853360232	-1.6620822729	-4.4086892992	 0.090299
H	 4.5854566557	-2.1388784732	-2.135983339	 0.140959
H	 3.6244911181	-3.2933776195	-1.2089637025	 0.129221
H	 3.7018783256	-3.4114355093	-2.9775984847	 0.131372
H	 2.0808181665	-1.6791292914	-0.1330068319	 0.086926
37.0156	39.7138	137.2393	210.411	217.8062	289.106	300.8989	412.8023	462.4395	521.3138	543.3559	621.8135	757.9373	782.1232	797.1627	849.1785	901.9782	914.2881	988.6695	989.9836	1007.9694	1022.3692	1061.9906	1072.5596	1087.5918	1140.8511	1187.8758	1266.9124	1286.3147	1302.1964	1334.496	1355.8772	1401.5239	1410.3992	1436.0571	1479.7947	1486.9218	1489.7919	1496.6073	1509.2586	1515.5582	1604.4369	1641.1993	3032.3118	3037.0065	3038.0546	3077.2222	3091.7172	3105.8549	3119.4228	3124.5937	3144.1341	3168.2907	3181.6037
CCC1=NC=CC(C)=C1	CCc1nccc(C)c1	
InChI=1S/C8H11N/c1-3-8-6-7(2)4-5-9-8/h4-6H,3H2,1-2H3	InChI=1S/C8H11N/c1-3-8-6-7(2)4-5-9-8/h4-6H,3H2,1-2H3
