13
gdb 11197	4.81551	1.48028	1.14017	3.5942	63.96	-0.2389	-0.077	0.1619	958.2576	0.09561	-398.660498	-398.653589	-398.652645	-398.691875	25.231	
O	 0.0119863202	-0.0383760216	-0.0003814611	-0.28065
C	 0.0025704263	 1.1729932912	 0.0093132132	 0.084305
C	 1.2218458469	 1.9808136903	 0.0017912523	 0.292243
C	 1.3347329102	 3.322742097	 0.0113074972	-0.197455
C	 2.7947508743	 3.6725451183	-0.0023531762	-0.389127
C	 3.5018206661	 2.2985458891	-0.021830646	 0.414454
O	 4.6850230045	 2.0664861054	-0.0364611206	-0.357223
N	 2.4768595636	 1.3673590744	-0.0174227729	-0.38297
H	-0.9386974834	 1.7587890296	 0.0248076789	 0.091924
H	 0.5118638607	 4.0221216922	 0.026383489	 0.127928
H	 3.0960884191	 4.2580855658	-0.8788165328	 0.159477
H	 3.1160258195	 4.2436395548	 0.8765579263	 0.159525
H	 2.6044756019	 0.3679175435	-0.0264714173	 0.27757
115.5568	150.9178	168.908	300.1029	456.7631	479.6681	506.4755	558.9211	617.6278	657.3137	740.2574	751.0545	851.7911	946.9065	980.7048	1000.481	1022.2423	1140.7763	1186.0939	1202.9163	1273.7144	1314.8413	1406.389	1422.8163	1453.1495	1668.8114	1780.9142	1849.5863	2931.7054	3047.5427	3079.2129	3247.0583	3656.9102
O=CC1=CCC(=O)N1	O=CC1=CCC(=O)N1	
InChI=1S/C5H5NO2/c7-3-4-1-2-5(8)6-4/h1,3H,2H2,(H,6,8)	InChI=1S/C5H5NO2/c7-3-4-1-2-5(8)6-4/h1,3H,2H2,(H,6,8)
