20
gdb 13425	3.48825	1.27212	1.10554	0.8191	80.63	-0.2536	0.059	0.3125	1160.7445	0.174985	-311.826973	-311.817517	-311.816572	-311.861125	34.703	
C	-0.3245798346	 1.0554710497	-1.5991170249	-0.409022
C	-0.0229853871	-0.1974002005	-0.8031270527	-0.007739
C	 1.3838603785	-0.623846719	-0.4251507031	-0.045084
C	 2.6221474088	 0.15883114	-0.8121672923	-0.404647
C	 0.4127725947	-0.1701708069	 0.6468232241	-0.017939
C	 0.6003947708	 1.1274217674	 1.4250221291	-0.377586
C	-0.6477938124	 1.6148900908	 2.0068163644	 0.309684
C	-1.683560719	 1.9950901854	 2.4840715479	-0.451911
H	 0.3651352779	 1.8753454843	-1.3848082364	 0.11325
H	-0.2636158096	 0.8546009371	-2.6744265288	 0.115425
H	-1.3356082156	 1.4166715376	-1.3831398066	 0.127658
H	-0.6922564347	-1.0177752708	-1.0514662222	 0.080884
H	 1.5512445328	-1.6984449653	-0.4447069773	 0.081464
H	 2.4640103002	 1.2398832787	-0.8133472254	 0.114808
H	 3.4476325747	-0.049529516	-0.1220996275	 0.117142
H	 2.9566645797	-0.1194652738	-1.8177169823	 0.117056
H	 0.0009004354	-0.9592703637	 1.2700422238	 0.089381
H	 1.3318603249	 0.9656355675	 2.2283119944	 0.129156
H	 1.0274370149	 1.909713732	 0.7894869935	 0.125811
H	-2.5947921304	 2.3396140855	 2.9058003423	 0.192209
52.2884	107.787	157.6923	167.9056	215.2735	217.6327	277.3063	343.0887	403.458	477.8117	502.6751	554.7929	613.9963	631.6587	746.3652	773.3114	843.8588	906.2968	938.6127	975.1018	984.6615	1031.6753	1050.4902	1110.0054	1137.2855	1150.8874	1162.4872	1189.752	1244.7397	1272.5449	1316.1559	1379.5758	1392.6898	1418.2302	1424.4668	1452.5797	1469.7478	1491.3278	1496.8887	1502.9712	1515.901	2237.0489	3019.1013	3031.9308	3036.551	3071.4074	3085.4099	3092.527	3106.3514	3116.8108	3125.5374	3131.0929	3146.4944	3507.3794
CC1C(C)C1CC#C	C[C@H]1[C@@H](C)[C@H]1CC#C	
InChI=1S/C8H12/c1-4-5-8-6(2)7(8)3/h1,6-8H,5H2,2-3H3	InChI=1S/C8H12/c1-4-5-8-6(2)7(8)3/h1,6-8H,5H2,2-3H3/t6-,7+,8-
