22
gdb 109862	2.23867	1.42087	1.02713	2.4944	82.03	-0.2208	0.0682	0.289	1255.358	0.1932	-404.306085	-404.296183	-404.295239	-404.340576	37.156	
C	-0.3297893603	 1.5670147875	 0.1678227926	-0.421632
C	-0.0807162499	 0.0637050223	 0.1404545002	 0.011873
C	 0.4137297906	-0.5468189029	-1.1765775779	-0.120458
N	 1.762904515	 0.0261966307	-1.4293815358	-0.375766
C	 1.6098679423	-1.1462959193	-0.5252605519	 0.333425
C	 2.3335006723	-2.4339384507	-0.7723160875	-0.511032
C	 1.2017647488	-0.560997328	 0.8411705995	-0.07271
C	 2.2139995492	 0.3301143591	 1.5498795917	-0.091887
O	 1.7237606521	 0.8459645353	 2.783238684	-0.426288
H	 0.5417695249	 2.1180010401	-0.1938054708	 0.140023
H	-1.1775782701	 1.8265660963	-0.476276025	 0.113808
H	-0.5803469017	 1.9177674556	 1.1761888542	 0.10222
H	-0.9704788938	-0.4679944234	 0.4909070701	 0.073903
H	-0.1848682315	-0.9178547978	-2.0013598663	 0.084941
H	 2.0726124681	-0.3354536325	-2.3315281123	 0.22161
H	 2.2764813365	-2.7210240482	-1.8284619894	 0.115841
H	 3.3941606025	-2.3563185994	-0.50513837	 0.129237
H	 1.9010268448	-3.247501604	-0.1797985916	 0.125843
H	 0.8937203209	-1.3547054981	 1.5290147206	 0.074201
H	 3.0965799881	-0.2664578587	 1.8105142983	 0.100643
H	 2.5511104114	 1.1303467133	 0.8798703756	 0.109787
H	 1.0777877297	 1.5270154926	 2.5753282418	 0.282419
71.6916	124.616	162.696	207.6351	215.0485	219.504	246.2976	260.4888	324.9714	340.4228	479.921	535.4738	541.9781	647.2305	701.8225	751.4561	842.6382	870.1087	926.0387	962.8973	966.8473	1006.2128	1015.2791	1047.7694	1069.4233	1076.4067	1100.0003	1121.3763	1135.7544	1157.5615	1204.6813	1214.817	1251.162	1302.0207	1328.8441	1340.8603	1380.865	1390.368	1398.1226	1409.1316	1413.3607	1455.4542	1482.2676	1494.6421	1498.2293	1499.1525	1512.5552	3020.3425	3023.6081	3024.6818	3048.9353	3061.3953	3073.1633	3078.9872	3081.9414	3092.7456	3122.7532	3171.8022	3464.9556	3833.4117
CC1C2NC2(C)C1CO	C[C@H]1[C@H]2N[C@@]2(C)[C@H]1CO	
InChI=1S/C7H13NO/c1-4-5(3-9)7(2)6(4)8-7/h4-6,8-9H,3H2,1-2H3	InChI=1S/C7H13NO/c1-4-5(3-9)7(2)6(4)8-7/h4-6,8-9H,3H2,1-2H3/t4-,5+,6-,7+/m1/s1
