21
gdb 111417	2.11505	1.56148	1.05008	0.9764	78.81	-0.2388	0.0721	0.3109	1208.286	0.182035	-424.17704	-424.167736	-424.166792	-424.211039	34.829	
C	-0.1084269055	 1.3496830881	 0.0195022827	-0.254901
O	 0.2717920653	-0.0097271839	 0.1435243118	-0.247937
C	 0.6982323464	-0.5896854552	-1.0616638933	 0.120875
C	 1.369766297	-1.9447651637	-0.8899273478	-0.080182
C	 0.3978588408	-2.9525182452	-0.3455731491	-0.282401
C	 0.3260677104	-2.5971967306	-1.8053380685	-0.078814
C	-0.3785816569	-1.2537005509	-2.0197525175	-0.023813
C	-1.853829893	-1.1592380016	-1.6775737682	-0.097376
O	-2.3309471376	 0.1100069928	-2.1226726889	-0.418129
H	 0.7355328727	 1.9680543094	-0.3246419434	 0.099658
H	-0.9454611914	 1.4729200457	-0.6781035	 0.131157
H	-0.4070524682	 1.6901136792	 1.0144583063	 0.116937
H	 1.3271803918	 0.1163419738	-1.6210181281	 0.065515
H	 2.440091698	-2.1048579799	-0.853389066	 0.084194
H	 0.8279521061	-3.9263292739	-0.134317211	 0.109303
H	-0.3725217148	-2.647692558	 0.3547456676	 0.120629
H	 0.4902894322	-3.3372794183	-2.5790411288	 0.084605
H	-0.2440085361	-0.8892018682	-3.0424958643	 0.079021
H	-2.393523007	-1.9769258395	-2.1821082647	 0.087515
H	-2.0043007985	-1.2738991394	-0.5960922988	 0.098163
H	-3.2380021515	 0.2109473595	-1.8194225201	 0.285978
97.848	114.3259	153.2469	173.0452	205.8348	240.8971	291.7926	297.0321	379.5985	433.6103	552.0817	566.5191	693.3517	790.9243	800.3789	827.0291	919.894	966.0884	990.2321	995.9621	1029.7126	1039.7592	1061.572	1066.9478	1081.6839	1091.6318	1114.696	1152.8827	1174.086	1192.2828	1216.9027	1238.9717	1251.3685	1265.9576	1278.8254	1319.5634	1350.2126	1370.1361	1392.686	1456.2205	1481.8818	1490.9675	1494.7192	1510.8468	1521.5952	2972.3038	2980.6457	3004.3662	3029.7892	3060.659	3068.1796	3113.7083	3129.1739	3179.6217	3189.3486	3211.541	3828.8639
COC1C2CC2C1CO	CO[C@H]1[C@H]2C[C@H]2[C@H]1CO	
InChI=1S/C7H12O2/c1-9-7-5-2-4(5)6(7)3-8/h4-8H,2-3H2,1H3	InChI=1S/C7H12O2/c1-9-7-5-2-4(5)6(7)3-8/h4-8H,2-3H2,1H3/t4-,5+,6-,7+/m1/s1
