24
gdb 70602	2.04617	1.77423	1.41035	1.451	87.5	-0.2234	0.0739	0.2974	1110.9155	0.217628	-368.412341	-368.403083	-368.402138	-368.445157	37.515	
C	-0.4274655587	 1.3943790678	 0.1376485833	-0.48565
C	-0.1064831105	-0.0791305052	 0.0318557303	 0.344155
C	-0.3539388204	-0.9626865926	 1.2057742499	-0.307226
N	 1.022896292	-0.5790962805	 0.8498512122	-0.140102
C	 1.7083184426	-1.6136477393	 0.0533813267	-0.160586
C	 0.7680507204	-2.0252873041	-1.0993230349	-0.277219
C	-0.1053950937	-0.7656599635	-1.35257457	 0.251696
C	-1.5201428445	-1.1248464881	-1.828209005	-0.43621
C	 0.5753011761	 0.1365394234	-2.4012751771	-0.435008
H	 0.2850370872	 2.0062142035	-0.4230225447	 0.121252
H	-1.4321041819	 1.6074985225	-0.2456606278	 0.113891
H	-0.3904021897	 1.7146707926	 1.1818363108	 0.123267
H	-0.7180185425	-0.5244523016	 2.1313011905	 0.107229
H	-0.6702309697	-1.9909542046	 1.050410736	 0.1032
H	 2.6317817524	-1.1687266033	-0.3334413789	 0.104942
H	 1.9950475109	-2.4550662936	 0.6926532165	 0.101402
H	 1.317723609	-2.3282794211	-1.9948626854	 0.095501
H	 0.1421546293	-2.8760559894	-0.8136673859	 0.097638
H	-2.0310393224	-1.7700002622	-1.1067271023	 0.111155
H	-2.1328064412	-0.2272925422	-1.9680183124	 0.112172
H	-1.4887779981	-1.6512688342	-2.7887255018	 0.110454
H	 0.6570249056	-0.392513897	-3.3565876216	 0.109823
H	 0.0044003038	 1.0524784004	-2.5806212204	 0.115474
H	 1.584542374	 0.4273716022	-2.0914730081	 0.118751
128.9656	195.3933	223.3872	235.0983	247.1541	281.9347	322.6711	339.4332	377.5875	410.7815	456.2469	473.1821	573.6182	623.9663	658.3689	779.7617	797.9116	815.9844	903.9702	934.2543	943.8706	955.5705	958.3563	985.7726	1009.2463	1045.7259	1048.9211	1109.2081	1112.5853	1140.7956	1171.2303	1195.7407	1229.1921	1247.588	1257.2502	1303.9697	1333.2713	1342.5984	1369.7381	1399.3109	1415.703	1424.0787	1482.943	1483.1257	1488.6705	1491.8447	1499.9207	1503.102	1506.4402	1515.5537	1520.2881	3025.6326	3031.6864	3035.0108	3038.8845	3051.3033	3076.4828	3088.6425	3094.2032	3098.4227	3100.2154	3101.4734	3104.608	3106.376	3119.93	3183.3177
CC12CN1CCC2(C)C	C[C@]12CN1CCC2(C)C	
InChI=1S/C8H15N/c1-7(2)4-5-9-6-8(7,9)3/h4-6H2,1-3H3	InChI=1S/C8H15N/c1-7(2)4-5-9-6-8(7,9)3/h4-6H2,1-3H3/t8-,9?/m1/s1
