19
gdb 92789	2.93452	1.07211	0.90003	1.6681	82.88	-0.2446	0.0142	0.2588	1334.4054	0.158198	-385.869181	-385.860119	-385.859175	-385.903515	34.28	
O	 0.1364337256	 1.4547819531	 0.1383795651	-0.435264
C	-0.0251203462	 0.0490055173	 0.0106259458	 0.131585
C	 0.6605004346	-0.7106188343	 1.1774645452	-0.271945
C	-0.4756483887	-0.92982585	 2.1474674072	-0.189855
C	-1.6667295526	-0.7415325663	 1.5738087801	 0.341462
C	-3.0157424462	-0.9153356627	 2.2268936661	-0.46329
C	-3.8262903781	 0.3018332205	 2.1858588852	 0.308898
C	-4.4741117149	 1.3131342844	 2.1397513178	-0.461291
C	-1.51445885	-0.362699603	 0.1148714076	-0.326698
H	-0.2712507316	 1.7157265294	 0.9726385306	 0.281315
H	 0.4105798596	-0.196816289	-0.9605711338	 0.082848
H	 1.0848064294	-1.6680804303	 0.8434497502	 0.106293
H	 1.4892026406	-0.1201433168	 1.5825362852	 0.110355
H	-0.3266547113	-1.232533016	 3.1788526863	 0.089428
H	-3.5684023613	-1.7225467275	 1.7234844307	 0.137251
H	-2.8844104821	-1.2363905637	 3.2670118146	 0.135208
H	-5.0552305365	 2.2010931219	 2.1047779823	 0.198731
H	-2.1677573651	 0.4584614621	-0.1969616631	 0.121544
H	-1.7453394852	-1.220922469	-0.5326240431	 0.103424
53.5544	67.5164	132.4012	243.3744	293.9666	340.7727	350.0319	381.1072	408.958	439.8994	505.3796	620.1932	639.9164	678.4862	770.7029	809.9676	850.7196	868.8285	887.163	945.1495	950.3939	954.462	992.2561	1043.7504	1071.1061	1145.9572	1170.3078	1176.6219	1208.932	1261.2981	1283.9738	1303.5378	1318.7549	1328.0427	1367.1784	1432.9127	1458.866	1469.963	1479.5907	1710.2804	2237.4934	2998.7549	3007.599	3009.8686	3054.6797	3070.2531	3078.4097	3089.4459	3184.7863	3505.4988	3787.6292
OC1CC=C(CC#C)C1	O[C@H]1CC=C(CC#C)C1	
InChI=1S/C8H10O/c1-2-3-7-4-5-8(9)6-7/h1,4,8-9H,3,5-6H2	InChI=1S/C8H10O/c1-2-3-7-4-5-8(9)6-7/h1,4,8-9H,3,5-6H2/t8-/m0/s1
