17
gdb 67439	2.30534	2.08397	1.88732	4.1142	71.43	-0.2269	-0.021	0.2059	863.2367	0.13792	-417.93143	-417.924531	-417.923586	-417.962174	28.502	
N	-0.1997365933	 1.4997553264	-0.0711978311	-0.6281
C	-0.1113754725	 0.0783828903	-0.0826036902	 0.278443
C	-1.2591619427	-0.8665067649	 0.3095689621	-0.098838
C	-0.6219430044	-1.9000047238	-0.718546353	-0.251045
C	 0.552173569	-0.9140261881	-1.0797233856	 0.001589
O	 1.7577190891	-1.0438916574	-0.2007909046	-0.278812
C	 0.902279844	-0.6364668495	 0.8095714077	 0.281593
N	 0.5468299153	-1.2485198442	 1.8568782505	-0.259977
C	-0.9513700185	-1.1132367537	 1.8184477579	-0.174035
H	 0.7146906484	 1.9327441764	-0.1584527733	 0.241955
H	-0.7761988492	 1.8394741739	-0.8341553572	 0.235748
H	-2.2886842426	-0.5784311136	 0.0874971175	 0.071183
H	-0.3227087771	-2.8735829382	-0.3279254283	 0.132643
H	-1.27016848	-2.0431466128	-1.5862779819	 0.112705
H	 0.8549482735	-0.7549043941	-2.1135245014	 0.096632
H	-1.3350642448	-0.3057157606	 2.4544985318	 0.119377
H	-1.3631929241	-2.058056316	 2.1857450891	 0.118941
218.9069	223.6561	271.6763	310.1309	365.9029	404.1715	530.2826	619.931	652.5943	687.9951	731.729	752.0375	785.4319	815.1538	845.31	884.3734	917.1817	950.6762	970.0684	1000.3758	1051.2245	1061.0274	1093.8383	1122.0715	1144.2861	1167.0736	1218.9799	1243.7917	1270.796	1286.015	1301.2272	1328.2106	1383.9292	1460.3254	1481.3844	1655.2179	1697.4892	3030.8325	3074.5349	3087.0277	3095.1864	3132.9888	3140.4205	3496.7775	3577.4756
NC12C3CC1OC2=NC3	N[C@@]12[C@H]3C[C@@H]1O[C]2[N]C3	
InChI=1S/C6H8N2O/c7-6-3-1-4(6)9-5(6)8-2-3/h3-4H,1-2,7H2	InChI=1S/C6H8N2O/c7-6-3-1-4(6)9-5(6)8-2-3/h3-4H,1-2,7H2/t3-,4-,6-/m0/s1
