16
gdb 18553	3.79584	2.06324	1.66826	3.6557	65.04	-0.2399	0.0207	0.2607	803.4409	0.133811	-379.921096	-379.914714	-379.913769	-379.951637	25.095	
N	-0.1511214472	 1.2436607029	-0.4678599119	-0.544369
C	-0.0695531764	 0.0671685172	-0.0472059295	 0.445105
O	 1.0043214111	-0.6269918941	 0.4788995141	-0.273949
C	 0.2091040837	-1.8487943071	 0.6464940744	 0.107318
C	-0.1456675903	-2.1374407014	 2.097632848	-0.234024
C	-1.3084991363	-1.1510659439	 2.3841772961	-0.187574
N	-2.0401920808	-0.9846364061	 1.1156740058	-0.274455
C	-1.0410587088	-1.1069360359	 0.0676619523	-0.145642
H	 0.7416941608	 1.7330908123	-0.3802098727	 0.227035
H	 0.6609485427	-2.6725789433	 0.0929624054	 0.09017
H	-0.493564715	-3.1743662082	 2.1764846769	 0.102835
H	 0.709161644	-2.0131368057	 2.7671773609	 0.119934
H	-1.9821133503	-1.4898329036	 3.1737931167	 0.108745
H	-0.907520453	-0.1778871123	 2.6886569824	 0.130595
H	-2.7228346213	-1.7276971099	 1.0097392147	 0.223834
H	-1.4703266328	-1.4360634809	-0.8782519039	 0.104442
110.1032	198.6538	284.8833	370.621	444.4384	599.5304	623.1802	689.5329	760.4215	812.5842	839.6536	841.8312	872.9684	892.3586	915.9275	949.3777	993.082	1008.3735	1033.2367	1088.2499	1127.5605	1167.9616	1188.2592	1209.6074	1230.4852	1293.0069	1308.1793	1344.3325	1352.0392	1378.194	1462.4387	1470.6862	1505.9984	1825.2334	3041.1633	3049.1639	3107.0188	3109.8768	3116.0286	3126.8425	3469.8834	3523.4308
N=C1OC2CCNC12	[NH][C]1O[C@H]2CCN[C@@H]12	
InChI=1S/C5H8N2O/c6-5-4-3(8-5)1-2-7-4/h3-4,6-7H,1-2H2	InChI=1S/C5H8N2O/c6-5-4-3(8-5)1-2-7-4/h3-4,6-7H,1-2H2/t3-,4+/m0/s1
