18
gdb 45578	2.53668	1.73736	1.41948	2.8026	71.59	-0.2557	0.0126	0.2683	981.3895	0.150226	-439.086926	-439.079425	-439.078481	-439.119324	28.836	
N	-0.0372992739	 0.8193352014	 0.8728688785	-0.546137
C	-0.0570675109	-0.2361962861	 0.1978175429	 0.387039
O	 0.9679886476	-0.9461175758	-0.4003659614	-0.272313
C	 0.0584540746	-2.0226151869	-0.8241203277	 0.085417
C	 0.2663975668	-3.3205014107	-0.0648032639	-0.215772
C	 0.0865536791	-3.0977431783	 1.4448080823	-0.246479
C	-1.2684602211	-2.4266717686	 1.7871804607	-0.074271
O	-1.9514476654	-1.8717246803	 0.6566164547	-0.252318
C	-1.140953378	-1.2146670879	-0.2654690561	-0.00128
H	 0.9133359185	 1.1816405342	 0.973074778	 0.228643
H	 0.1128372813	-2.1446661779	-1.9081559303	 0.090925
H	-0.4718489552	-4.0394275214	-0.4411404285	 0.117009
H	 1.2576803677	-3.7334775138	-0.2774432843	 0.114357
H	 0.1659959894	-4.0510042791	 1.9747780779	 0.106645
H	 0.9101095526	-2.4729878426	 1.8016134693	 0.126296
H	-1.9737134696	-3.1564806639	 2.1925904606	 0.113473
H	-1.1228202968	-1.642394084	 2.5407673343	 0.120062
H	-1.8034051968	-0.7870324782	-1.0208469571	 0.118705
64.6454	118.0413	213.9267	276.6544	329.6309	434.9806	501.8944	520.9977	613.8579	678.6463	774.9031	803.5531	843.4561	864.4903	875.4163	884.9437	930.333	964.9049	994.9136	1022.4982	1052.9087	1081.3712	1112.5953	1172.0155	1203.3828	1220.5165	1238.2566	1252.2025	1296.2742	1331.4015	1353.6682	1364.5679	1383.2688	1388.8615	1424.4644	1471.0587	1496.9671	1515.1003	1818.045	3024.6971	3037.2251	3060.2794	3081.1238	3086.4456	3087.4435	3101.2953	3107.8714	3465.6598
N=C1OC2CCCOC12	[NH][C]1O[C@H]2CCCO[C@@H]12	
InChI=1S/C6H9NO2/c7-6-5-4(9-6)2-1-3-8-5/h4-5,7H,1-3H2	InChI=1S/C6H9NO2/c7-6-5-4(9-6)2-1-3-8-5/h4-5,7H,1-3H2/t4-,5+/m0/s1
