19
gdb 33781	3.43328	1.39939	1.19835	1.7957	81.4	-0.2394	0.0428	0.2822	1081.6171	0.160235	-385.841633	-385.833947	-385.833003	-385.873355	31.415	
C	-0.0258961801	-1.1897114702	-0.0741094161	-0.354218
C	-0.0370751921	 0.0114436506	-0.0382890319	 0.192386
C	-0.0048229796	 1.4585928536	 0.0479441339	 0.260017
C	-0.1867765744	 2.150900296	 1.439992429	-0.281635
C	 0.6955709408	 3.2914248488	 0.8525981882	-0.045706
C	 1.36108111	 2.208396149	-0.0423330458	-0.249643
C	-0.1654640142	 4.1951985291	-0.0443962516	-0.223823
C	-1.2827438809	 3.3466929765	-0.6864763211	-0.076226
O	-0.8930990221	 1.9962838391	-0.935412627	-0.314269
H	-0.0248336596	-2.2508803595	-0.1146040115	 0.185662
H	-1.2027202717	 2.366969866	 1.7775704888	 0.10599
H	 0.3381809232	 1.5833230562	 2.2101777383	 0.113445
H	 1.3309769866	 3.8607605059	 1.5331738627	 0.067739
H	 2.1551810571	 1.665648506	 0.474979761	 0.106113
H	 1.6814444364	 2.4875139291	-1.0489798513	 0.10151
H	-0.6252327577	 5.0057626853	 0.532405588	 0.0988
H	 0.4692056624	 4.6597978312	-0.8076340521	 0.105039
H	-2.1661076372	 3.3532241716	-0.0327458249	 0.099006
H	-1.595175877	 3.7515754158	-1.6529153367	 0.109811
137.8157	148.4041	229.9557	302.3994	413.8232	425.3114	428.033	525.5963	538.8323	564.2109	621.9973	630.3478	664.4867	805.181	828.9689	853.4634	871.4968	896.3147	927.1233	951.5254	998.892	1021.2105	1053.6027	1077.1282	1115.0754	1119.0042	1176.7205	1186.8374	1225.689	1237.6767	1258.9225	1282.0497	1301.8959	1333.446	1363.6123	1408.6479	1470.2043	1490.9167	1498.7893	1526.2972	2241.8799	2998.6248	3031.7183	3062.907	3070.7812	3074.1071	3088.3331	3091.8743	3128.0194	3132.5556	3502.4287
C#CC12CC(C1)CCO2	C#C[C@@]12C[C@@H](C1)CCO2	
InChI=1S/C8H10O/c1-2-8-5-7(6-8)3-4-9-8/h1,7H,3-6H2	InChI=1S/C8H10O/c1-2-8-5-7(6-8)3-4-9-8/h1,7H,3-6H2/t7-,8+
