25
gdb 102502	1.8616	1.21256	0.81997	0.6461	94.82	-0.2567	0.0548	0.3115	1529.4295	0.226359	-352.334538	-352.323089	-352.322145	-352.370931	42.536	
C	-0.0354938355	-0.8036421743	 0.9268912727	-0.38084
C	-0.1878258638	-0.0637036011	-0.4084311557	-0.208791
C	 0.8659979951	-0.3919547863	-1.4895545793	 0.042168
C	 2.2942829451	 0.026571169	-1.0844510231	-0.18166
C	 2.4730658981	 1.5246927328	-0.8175597304	-0.394091
C	 0.8383670991	-1.8913950368	-1.9230618215	-0.160786
C	-0.5706112213	-2.4013976675	-2.2978490433	-0.40566
C	 1.7463054193	-2.1303488827	-3.0467480858	 0.323642
C	 2.4564930612	-2.3329498145	-3.9963284815	-0.462729
H	-0.1102606305	-1.8895100754	 0.807342653	 0.117071
H	 0.9252216786	-0.5907198317	 1.4054873557	 0.120474
H	-0.8220027909	-0.4987487318	 1.6242223783	 0.112842
H	-1.1875566932	-0.2538865751	-0.8127852106	 0.097608
H	-0.15495285	 1.015307261	-0.2211297457	 0.097557
H	 0.595013331	 0.1912718005	-2.3814775671	 0.074405
H	 2.6072454956	-0.5432711842	-0.1996209167	 0.091818
H	 2.9745662772	-0.2727493696	-1.8878921288	 0.113726
H	 2.1417705742	 2.1214778603	-1.6751363596	 0.113806
H	 1.9112123083	 1.8633740859	 0.0585475469	 0.115864
H	 3.5267234449	 1.7613003669	-0.6386884816	 0.111716
H	 1.199028352	-2.4914379277	-1.0755640391	 0.103161
H	-0.5136122384	-3.4256634663	-2.674651933	 0.12481
H	-1.2408844837	-2.394377337	-1.4350441671	 0.119405
H	-1.0105123978	-1.7790001138	-3.0836058833	 0.12403
H	 3.0953707051	-2.5155499608	-4.8244483436	 0.190454
63.9202	76.8342	113.365	153.0196	192.9074	208.9476	234.0014	244.3144	268.9418	291.1622	347.9855	375.8045	416.0826	503.2456	557.9413	561.7826	621.3985	632.065	747.1171	776.144	833.6015	851.5828	914.8959	928.117	1009.1735	1018.4465	1025.0333	1046.7841	1075.419	1112.4169	1133.5127	1172.9586	1189.9353	1266.8655	1284.4678	1304.1727	1333.575	1348.6415	1366.4221	1384.3391	1393.9754	1406.8649	1412.6068	1418.9523	1484.1391	1490.7263	1494.9493	1500.6943	1503.9495	1506.3282	1511.7314	1519.3343	2228.4018	2995.7114	3011.0054	3027.3236	3031.4629	3041.0347	3042.2888	3045.9509	3068.516	3074.6294	3097.0782	3102.5945	3105.5599	3110.9296	3116.314	3124.7105	3504.8341
CCC(CC)C(C)C#C	CCC(CC)[C@@H](C)C#C	
InChI=1S/C9H16/c1-5-8(4)9(6-2)7-3/h1,8-9H,6-7H2,2-4H3	InChI=1S/C9H16/c1-5-8(4)9(6-2)7-3/h1,8-9H,6-7H2,2-4H3/t8-/m0/s1
