15
gdb 133017	4.77211	1.03024	0.85179	1.2879	76.06	-0.2098	-0.054	0.1558	1266.2	0.111554	-461.929144	-461.921174	-461.920229	-461.962092	29.26	
C	-0.0361014866	 1.4411709423	 0.0076222614	-0.319569
N	 0.0256551792	-0.0088844286	 0.0025454879	-0.318542
C	-1.057813627	-0.6669225961	 0.0090394706	 0.413065
O	-2.2922989939	-0.0018002251	 0.020969771	-0.247727
C	-3.4656744499	-0.6800979872	 0.0278361698	-0.053437
C	-3.5065840965	-2.0206702519	 0.0237453821	 0.178455
F	-4.6741376024	-2.6715493799	 0.0306800695	-0.075401
C	-2.2889990769	-2.7784675015	 0.0117896552	-0.182698
C	-1.1141777326	-2.1163107808	 0.0047781271	-0.164923
H	 0.9798546329	 1.8423831998	-0.0005472857	 0.119242
H	-0.5714113065	 1.8344762403	-0.8678943943	 0.119414
H	-0.5548669703	 1.828819478	 0.8955457281	 0.119441
H	-4.3343986602	-0.0357021632	 0.0367217002	 0.146407
H	-2.3436087687	-3.8610788643	 0.0086879382	 0.13013
H	-0.1583405505	-2.6231678118	-0.0043587811	 0.136142
74.2744	109.7339	197.4401	212.2674	352.9745	369.2337	375.5371	418.2421	537.2383	561.425	614.4805	719.612	768.4061	775.9162	832.4502	860.8711	953.4103	995.7181	1048.6907	1106.0311	1111.5781	1169.5111	1188.4427	1241.3834	1278.137	1343.1962	1434.9086	1462.7686	1485.8055	1496.6544	1611.0283	1707.0198	1742.4045	2994.7168	3041.702	3107.8921	3203.3477	3229.8607	3232.052
CN=C1OC=C(F)C=C1	C[N]C1=CCC(=CO1)F	
InChI=1S/C6H6FNO/c1-8-6-3-2-5(7)4-9-6/h2-4H,1H3	InChI=1S/C6H7FNO/c1-8-6-3-2-5(7)4-9-6/h3-4H,2H2,1H3
