14
gdb 125777	3.26696	1.45077	1.01086	1.9998	68.82	-0.2586	-0.0556	0.203	1096.2625	0.100881	-470.006335	-469.998543	-469.997599	-470.038842	28.941	
C	-0.036381159	 1.4868421764	 0.0305484354	-0.455642
C	-0.0096779979	-0.0094826942	 0.0088431655	 0.362078
N	-0.0422936156	-0.5621495895	-1.1487573177	-0.160054
O	-0.0161539378	-1.9897662729	-1.1539734043	-0.2818
C	 0.0394652019	-2.6444137424	 0.0207341036	 0.517908
O	 0.0562705048	-3.9604849018	-0.1670547168	-0.376752
N	 0.0736647894	-2.1521044416	 1.1956906326	-0.38719
C	 0.0513722105	-0.7628876884	 1.2857987203	 0.281906
N	 0.0795399782	-0.1021566217	 2.3776447439	-0.513967
H	 0.8524449119	 1.8618470123	 0.545361236	 0.160197
H	-0.08099465	 1.8825517471	-0.9847474525	 0.140963
H	-0.8982042088	 1.8296562956	 0.609703199	 0.160189
H	 0.0242632023	-4.1364080451	-1.117638538	 0.32223
H	 0.1205724102	-0.7566895038	 3.1624234831	 0.229933
73.1443	166.8391	184.2389	299.744	330.8201	370.1459	397.1005	471.4213	486.8145	535.4763	576.1677	722.8151	731.9062	778.1563	785.9899	898.0454	932.3069	970.2149	1047.8708	1060.2595	1135.8127	1237.1911	1267.9121	1375.8786	1407.7471	1430.241	1461.1467	1463.3031	1665.2935	1701.2132	1736.6484	3057.3378	3121.7343	3156.7661	3459.3856	3784.6744
CC1=NOC(O)=NC1=N	CC1=NOC(=N[C]1[NH])O	
InChI=1S/C4H5N3O2/c1-2-3(5)6-4(8)9-7-2/h1H3,(H2,5,6,8)	InChI=1S/C4H5N3O2/c1-2-3(5)6-4(8)9-7-2/h1H3,(H2,5,6,8)
