13
gdb 128258	7.09408	0.91129	0.81215	7.1024	68.68	-0.2574	-0.0539	0.2036	1318.8134	0.089922	-448.936067	-448.927879	-448.926934	-448.9696	28.01	
C	-0.0484175382	 1.446382686	 0.0950903321	-0.338896
N	-0.0543251239	-0.0022268567	-0.0320956148	-0.405253
C	-1.170546259	-0.7426137201	-0.0015494931	 0.549331
N	-1.2629173048	-2.0521102745	 0.0241786109	-0.404968
C	-2.6201514809	-2.2136347663	 0.0105752971	 0.276281
N	-3.345173529	-1.1189630896	-0.0167237479	-0.17576
O	-2.3580193351	-0.1128025273	-0.0211112453	-0.201816
C	-3.2485957855	-3.4974746348	 0.0256123972	 0.274371
N	-3.7464425873	-4.5397626704	 0.0383187353	-0.316231
H	 0.9288270069	 1.8177694059	-0.2164698522	 0.147899
H	-0.8084860581	 1.8786142093	-0.5590517954	 0.167081
H	-0.2437221834	 1.7762722466	 1.1224907739	 0.147245
H	 0.8010167283	-0.516975618	 0.0980576223	 0.280717
72.2021	86.4226	140.1974	163.4745	231.136	309.4926	419.5356	459.9217	498.9933	567.6173	628.4622	724.8546	742.9501	781.6355	925.7296	1004.0537	1033.7735	1098.8131	1154.462	1188.2918	1360.567	1397.0292	1439.7822	1475.8138	1489.1056	1514.8941	1533.9442	1700.4706	2375.5926	3032.576	3110.6323	3149.4803	3659.2043
CNC1=NC(=NO1)C#N	CNc1nc(no1)C#N	
InChI=1S/C4H4N4O/c1-6-4-7-3(2-5)8-9-4/h1H3,(H,6,7,8)	InChI=1S/C4H4N4O/c1-6-4-7-3(2-5)8-9-4/h1H3,(H,6,7,8)
