21
gdb 118415	2.248	0.77357	0.59659	2.2418	84.96	-0.2471	0.0416	0.2887	1890.7402	0.178827	-424.1857	-424.174012	-424.173068	-424.224391	39.312	
C	 0.0374402761	 1.3401122246	 0.2889392651	-0.235198
O	-0.0263750186	 0.0111083484	-0.1818872705	-0.232213
C	-1.3136474223	-0.5841261392	-0.0616274211	-0.089792
C	-1.2628714091	-1.9156945117	-0.822148804	-0.209929
C	-0.9810671828	-1.7366815752	-2.3158511567	-0.071411
O	-0.9943401527	-2.971799133	-3.0166962591	-0.421368
C	-1.714321599	-0.7712117611	 1.3389754668	 0.084139
C	-2.0389852844	-0.9367038303	 2.4871655038	 0.079171
C	-2.4344257861	-1.139534749	 3.873502666	-0.500613
H	 1.0598963328	 1.6879772064	 0.1243052135	 0.125826
H	-0.6553494231	 1.9972115265	-0.2601953425	 0.102157
H	-0.1978383157	 1.4042081133	 1.3598353564	 0.11731
H	-2.0560951328	 0.0740929335	-0.5491962363	 0.086639
H	-0.4839305564	-2.5378546422	-0.364515386	 0.103931
H	-2.2160838638	-2.4371358515	-0.6924002941	 0.114755
H	-1.7714579054	-1.1301516128	-2.7734550419	 0.105604
H	-0.0341915733	-1.1993103841	-2.4556097781	 0.108417
H	-0.2432652401	-3.4892593796	-2.709534722	 0.280742
H	-3.0562094012	-2.0353193804	 3.9792704955	 0.151471
H	-1.5590444173	-1.2672609642	 4.5196019601	 0.151571
H	-3.0092766049	-0.2888393984	 4.2556043251	 0.148793
34.9686	72.069	78.2769	85.2408	100.3378	144.6005	205.1854	225.3302	270.6603	298.5777	314.8303	350.6129	360.8069	447.3887	549.6044	591.2339	769.8141	809.1403	899.445	1022.0826	1050.2906	1054.6865	1058.9585	1073.862	1091.7872	1138.6065	1156.7405	1171.9228	1184.6569	1234.5038	1277.3871	1312.2101	1358.2532	1363.2588	1400.5474	1414.3999	1419.747	1474.2451	1477.1342	1477.6036	1479.0523	1483.5217	1511.1236	1516.0853	2364.5732	2931.7849	2979.8119	3020.1878	3028.4214	3038.83	3042.5849	3063.9211	3089.425	3090.7661	3099.4888	3118.1695	3817.3566
COC(CCO)C#CC	CO[C@@H](CCO)C#CC	
InChI=1S/C7H12O2/c1-3-4-7(9-2)5-6-8/h7-8H,5-6H2,1-2H3	InChI=1S/C7H12O2/c1-3-4-7(9-2)5-6-8/h7-8H,5-6H2,1-2H3/t7-/m1/s1
