20
gdb 126227	2.96794	1.22882	0.94379	3.0928	83.22	-0.2009	0.037	0.2379	1303.3486	0.171794	-399.355109	-399.345253	-399.344309	-399.390436	35.201	
C	 0.0880072281	 1.5565739585	-0.0483873993	-0.360067
C	 0.0001893124	 0.0238830511	 0.06663056	-0.318176
C	-1.4040543891	-0.5044397851	 0.0281515393	 0.138661
C	-2.1959893252	-0.7370704306	-1.0886299106	 0.266041
N	-1.9218251359	-0.6622475504	-2.4635600997	-0.611275
N	-3.3973629615	-1.1914265774	-0.6434461049	 0.016671
C	-4.5398379989	-1.5696608053	-1.4410547423	-0.33212
N	-3.4540243629	-1.2475865932	 0.7107534425	-0.289837
C	-2.2507490152	-0.8467187621	 1.1056078496	-0.078049
H	 1.1277047364	 1.8989433961	-0.0134614566	 0.10794
H	-0.3518656353	 1.9063648065	-0.9884883211	 0.104637
H	-0.4588307585	 2.0382349998	 0.7678725201	 0.123207
H	 0.6009210559	-0.4312754738	-0.7331258042	 0.091286
H	 0.4752733136	-0.2942855596	 1.0016904491	 0.108164
H	-0.94922317	-0.4346735485	-2.6270339254	 0.251411
H	-2.4950667824	 0.0196674201	-2.9494404993	 0.249423
H	-4.1950332774	-2.0463444177	-2.3621478607	 0.147417
H	-5.1376916704	-2.2719191704	-0.8598674669	 0.156958
H	-5.1646380714	-0.7053178218	-1.6989407326	 0.127537
H	-2.0196482523	-0.8142012662	 2.1617560829	 0.100171
42.5476	95.1329	107.8297	179.8609	190.9558	206.9269	275.8956	283.4543	290.9005	409.9107	499.5507	588.6806	647.3703	707.11	723.8477	758.1489	799.6437	803.0798	876.0437	959.7311	1005.3082	1049.0981	1063.7479	1086.4074	1151.1797	1217.5606	1219.6476	1242.5953	1296.7664	1329.3342	1352.008	1404.0765	1412.5294	1432.8134	1456.299	1485.3373	1490.6585	1496.3986	1506.0864	1507.6454	1555.291	1610.2758	1660.738	3006.9323	3023.7914	3030.954	3055.5058	3098.8356	3101.5246	3109.5867	3157.1704	3227.1273	3511.1493	3607.8965
CCC1=C(N)N(C)N=C1	CCc1c(N)n(C)nc1	
InChI=1S/C6H11N3/c1-3-5-4-8-9(2)6(5)7/h4H,3,7H2,1-2H3	InChI=1S/C6H11N3/c1-3-5-4-8-9(2)6(5)7/h4H,3,7H2,1-2H3
