17
gdb 42572	2.95045	2.07975	1.60996	3.4271	74.31	-0.2262	-0.0052	0.221	859.1789	0.139011	-384.671617	-384.665619	-384.664674	-384.701761	25.68	
O	-0.0166102134	 0.0283705859	 0.1344358676	-0.3478
C	-0.0072030355	 1.2301924246	 0.0280997187	 0.441133
C	-1.1938021139	 2.1332146268	-0.0543575389	-0.17184
C	-1.0624995806	 3.5333957863	 0.5783824928	-0.085593
C	-0.85391819	 3.3369753674	-0.9022548342	-0.093365
C	 0.6802385604	 3.4748636974	-0.6611035176	-0.049661
C	 0.414944967	 3.927420959	 0.8074760853	-0.03259
C	 1.3588562924	 2.8299739275	 1.3419520356	-0.246791
C	 1.2214849178	 2.129702268	-0.0560585824	-0.172974
H	-2.1875109352	 1.7045260438	-0.079947328	 0.104725
H	-1.9201872869	 3.9344693897	 1.1044606821	 0.09799
H	-1.4367915958	 3.6622227004	-1.7538130504	 0.098095
H	 1.3034212866	 4.0357002325	-1.3524951194	 0.076629
H	 0.5451478885	 4.9623521476	 1.1259113945	 0.074467
H	 2.3716435469	 3.2131325124	 1.49481145	 0.107511
H	 1.057636172	 2.2551526453	 2.2223692746	 0.111665
H	 2.0919688897	 1.6286413154	-0.4762967902	 0.0884
146.1455	301.3665	418.7559	441.9269	546.6058	632.0955	682.1668	737.4108	754.8305	775.7427	796.8062	847.1279	869.8648	888.1327	914.0311	921.0021	942.8747	957.3547	993.5221	1012.8266	1045.0256	1066.4273	1071.5564	1101.913	1111.1496	1183.9148	1190.6894	1198.7103	1225.6322	1239.3583	1275.603	1292.0777	1301.3386	1318.453	1365.5263	1489.2802	1833.0827	3051.5102	3100.7506	3106.6905	3128.7434	3150.5795	3184.01	3197.31	3208.9971
O=C1C2C3C2C2C3CC12	O=C1[C@H]2[C@@H]3[C@H]2[C@H]2[C@@H]3C[C@@H]12	
InChI=1S/C8H8O/c9-8-3-1-2-4(3)6-5(2)7(6)8/h2-7H,1H2	InChI=1S/C8H8O/c9-8-3-1-2-4(3)6-5(2)7(6)8/h2-7H,1H2/t2-,3+,4-,5-,6+,7-/m0/s1
