23
gdb 97764	5.4271	0.55244	0.54751	0.1469	97.81	-0.2351	0.0572	0.2923	2181.3111	0.204741	-351.133406	-351.122914	-351.12197	-351.171114	37.894	
C	 0.1422005309	 1.6265216351	-0.2095952527	-0.361982
C	-0.0889113056	 0.1168571764	-0.0138052063	-0.314719
C	 0.5852294551	-0.4183590398	 1.1649615938	 0.113658
C	 1.1567980794	-0.8336371305	 2.1423971336	 0.024215
C	 1.8159461697	-1.3621834219	 3.3194718481	-0.159431
C	 1.0186175319	-1.4745790745	 4.6593280197	-0.233791
C	 1.7434007163	-2.8204112667	 4.9374685064	 0.054485
C	 0.9665738991	-3.9568810626	 5.5820335292	-0.411196
C	 2.0808201179	-2.8995747012	 3.4229132559	-0.233696
H	 1.2077215301	 1.8443639086	-0.3227956579	 0.126313
H	-0.3797885094	 1.9814287202	-1.1035157089	 0.111095
H	-0.2263200747	 2.1902886954	 0.6517951516	 0.126259
H	-1.1665530777	-0.080341606	 0.0587608534	 0.124392
H	 0.2534646347	-0.4226847341	-0.9067020278	 0.125363
H	 2.7518918561	-0.8209857626	 3.4996955811	 0.093596
H	 1.1308195176	-0.6620046943	 5.3810200016	 0.097565
H	-0.0461239938	-1.6292668767	 4.4607967033	 0.104865
H	 2.6615443744	-2.6289797583	 5.5055453113	 0.070417
H	 0.0429254861	-4.1629787012	 5.0292339903	 0.112401
H	 1.5551462458	-4.8811405331	 5.6039883064	 0.113634
H	 0.6897537156	-3.7155065041	 6.6146170979	 0.113638
H	 1.317838547	-3.4582999781	 2.8726862135	 0.105173
H	 3.0683194233	-3.26058911	 3.1259254364	 0.097746
11.1296	55.9006	90.3869	130.0789	195.4719	222.2511	234.7387	296.5772	336.9188	404.0592	452.8155	476.7157	525.2267	561.8321	718.991	785.3879	811.9237	840.7901	896.267	919.9664	952.786	953.4669	990.1065	1023.8859	1079.67	1104.1536	1112.1074	1132.1	1143.3015	1193.1661	1231.1206	1236.3187	1245.7608	1264.7134	1285.9691	1295.2711	1347.3152	1358.9112	1386.4627	1407.7947	1412.4329	1475.8865	1476.1416	1494.111	1494.746	1496.3842	1502.0975	1505.9551	2358.3169	3014.9614	3021.7191	3031.6464	3034.7124	3040.8251	3042.6829	3053.3341	3058.8578	3088.6564	3090.4468	3111.062	3115.4809	3116.2542	3122.4491
CCC#CC1CC(C)C1	CCC#C[C@H]1C[C@@H](C)C1	
InChI=1S/C9H14/c1-3-4-5-9-6-8(2)7-9/h8-9H,3,6-7H2,1-2H3	InChI=1S/C9H14/c1-3-4-5-9-6-8(2)7-9/h8-9H,3,6-7H2,1-2H3/t8-,9+
