17
gdb 64870	3.47067	0.955	0.85158	3.7562	74.07	-0.2554	-0.0434	0.212	1348.4617	0.134565	-418.00639	-417.997364	-417.99642	-418.040691	32.615	
C	-0.2219669083	 1.6179847196	-0.0946084964	-0.44983
C	-0.033788734	 0.0988451718	-0.0184927002	 0.172398
C	 0.9375082393	-0.4759445132	-1.100044436	-0.297494
C	 2.0066426007	-0.5317081779	 0.0330960488	-0.049871
N	 0.9177463352	-0.3718176138	 1.0183404523	-0.342217
C	 2.7547008713	-1.8441832728	 0.1526602241	 0.160255
O	 3.9150238845	-1.9886125191	-0.1288486014	-0.241339
C	-1.3436437585	-0.5658622857	 0.0656234697	 0.269922
N	-2.3770059732	-1.0808688347	 0.113887065	-0.333611
H	 0.7498578978	 2.1097867736	-0.1975097675	 0.129687
H	-0.8441165377	 1.8914973127	-0.9518074458	 0.146264
H	-0.710820051	 1.9905508724	 0.8107548315	 0.142003
H	 0.6384008485	-1.4616940684	-1.4590813483	 0.141094
H	 1.1539047078	 0.1764806522	-1.9449065861	 0.134584
H	 2.7319125038	 0.2881493116	-0.0238210684	 0.094758
H	 1.0831008046	 0.2697756969	 1.7864267574	 0.231393
H	 2.1159667092	-2.682204095	 0.5123731012	 0.092004
60.242	76.0365	182.0934	191.0714	241.5372	269.6699	306.7415	360.3395	392.2426	441.4555	559.4725	585.5549	609.8505	711.3281	819.2096	900.11	909.5406	940.1748	967.8044	987.5321	1045.0401	1074.2482	1135.7118	1169.1646	1186.9227	1222.1298	1262.0359	1283.4331	1323.0491	1390.2003	1405.6215	1411.6398	1480.0861	1488.1091	1493.2031	1835.9309	2355.6427	2889.4554	3039.0537	3043.725	3092.6828	3116.8311	3119.9131	3158.6681	3532.5093
CC1(CC(N1)C=O)C#N	C[C@]1(C[C@@H](N1)C=O)C#N	
InChI=1S/C6H8N2O/c1-6(4-7)2-5(3-9)8-6/h3,5,8H,2H2,1H3	InChI=1S/C6H8N2O/c1-6(4-7)2-5(3-9)8-6/h3,5,8H,2H2,1H3/t5-,6+/m1/s1
