21
gdb 97121	2.85262	1.15731	0.86624	1.9457	83.2	-0.2202	0.0267	0.2469	1392.9312	0.181111	-420.382112	-420.372027	-420.371083	-420.41749	35.81	
C	-0.0015813254	 1.3591654581	 0.2022809931	-0.341424
N	-0.0635393855	-0.0927285794	 0.3091933478	-0.333581
C	-1.1185496506	-0.6837510876	-0.0083470245	 0.479262
O	-2.3288913474	-0.1838366938	-0.457693304	-0.264607
C	-2.8681420075	-1.5289067217	-0.6250870541	-0.105662
C	-1.5658067742	-2.1383139919	-0.0573226065	-0.119302
N	-0.8286767918	-3.0121767063	-0.9464855086	-0.069841
C	 0.5384023168	-3.2312990715	-0.4808862682	-0.330095
C	-1.5281381732	-4.2741845835	-1.1412586405	-0.31799
H	 0.8575702433	 1.6339349154	-0.418863733	 0.128089
H	-0.9038455182	 1.8155717499	-0.2203936224	 0.128167
H	 0.1737233197	 1.7843257905	 1.1968070714	 0.128041
H	-3.7779991039	-1.6629722238	-0.0359101224	 0.118149
H	-3.0461377028	-1.7465907851	-1.680670559	 0.124129
H	-1.6985391052	-2.5652775376	 0.9551124066	 0.079086
H	 0.5766274317	-3.803098236	 0.4660560026	 0.089002
H	 1.0900192953	-3.795645592	-1.2390684087	 0.114243
H	 1.0304395647	-2.2707383351	-0.3208287014	 0.159559
H	-2.5309525058	-4.097472338	-1.5431172049	 0.116736
H	-0.9796652395	-4.8860614101	-1.8635217563	 0.124367
H	-1.6318396504	-4.8594559707	-0.207014027	 0.093673
72.4893	80.8423	120.041	130.3644	201.1808	244.627	253.3701	257.033	318.2613	334.8599	389.4339	457.5439	570.4665	668.8221	735.1478	805.2641	935.6013	952.7305	979.5959	1050.5324	1068.7805	1070.4113	1108.7168	1120.8719	1125.1254	1132.7605	1171.7343	1183.7485	1193.6547	1219.2165	1281.8795	1315.5958	1329.0209	1382.9448	1439.5659	1443.1807	1476.1322	1483.1641	1494.1134	1495.358	1497.1651	1501.7905	1505.7644	1514.7192	1844.1889	2915.0046	2921.5018	2932.6408	3019.5341	3061.6181	3066.1531	3072.351	3084.2578	3091.2492	3106.6622	3128.6185	3141.3332
CN=C1OCC1N(C)C	CN=C1OC[C@H]1N(C)C	
InChI=1S/C6H12N2O/c1-7-6-5(4-9-6)8(2)3/h5H,4H2,1-3H3	InChI=1S/C6H12N2O/c1-7-6-5(4-9-6)8(2)3/h5H,4H2,1-3H3/t5-/m1/s1
