18
gdb 58007	3.81989	0.75951	0.65694	1.1702	70.73	-0.259	-0.0455	0.2135	1650.4194	0.144877	-476.266209	-476.256028	-476.255084	-476.303485	35.158	
C	 0.0563524971	 1.3967473514	-0.4401603693	-0.408922
C	-0.0522013536	-0.0385905756	 0.0933220097	 0.063798
O	 0.5007426844	-0.1181471149	 1.378848915	-0.435461
C	-1.489295411	-0.5538328373	 0.1133407076	 0.342496
O	-1.9590517074	-0.9871867981	 1.1468027393	-0.334927
C	-2.2944488017	-0.5357350291	-1.1701562567	-0.233206
N	-3.550707605	-1.2122265527	-0.9749889175	-0.284281
C	-4.4023958244	-1.4500185187	-2.0029198578	 0.156389
O	-4.198319914	-1.1139544006	-3.1510414995	-0.325827
H	 1.0967476348	 1.719405946	-0.3586999663	 0.144833
H	-0.2434635867	 1.465522423	-1.4898894142	 0.126342
H	-0.5591683894	 2.0771324691	 0.1557204068	 0.132042
H	 0.4961977911	-0.7055708276	-0.5974165674	 0.099806
H	-0.1697882697	-0.5477627584	 1.9319559824	 0.294982
H	-2.4432447148	 0.5090287351	-1.4791679764	 0.156474
H	-1.7165437813	-0.9994347156	-1.9803125275	 0.155604
H	-3.7555335586	-1.516828443	-0.0343823	 0.265828
H	-5.3116277398	-1.9903652831	-1.6754584681	 0.084029
15.9659	56.6468	89.011	120.3294	223.0145	241.3994	270.3664	295.4903	333.052	379.3914	413.7837	456.3875	559.4876	566.733	673.6286	763.7656	871.2435	935.9887	939.1278	1019.3625	1036.2288	1055.7547	1106.7861	1118.6299	1194.2315	1227.2236	1241.1252	1282.853	1352.2385	1366.8303	1404.2783	1422.7528	1428.8291	1477.5779	1490.0223	1500.066	1516.7848	1779.9656	1804.2137	2937.2972	2949.8607	3013.7645	3044.206	3046.1609	3122.5082	3132.1232	3612.8902	3704.2596
CC(O)C(=O)CNC=O	C[C@@H](O)C(=O)CNC=O	
InChI=1S/C5H9NO3/c1-4(8)5(9)2-6-3-7/h3-4,8H,2H2,1H3,(H,6,7)	InChI=1S/C5H9NO3/c1-4(8)5(9)2-6-3-7/h3-4,8H,2H2,1H3,(H,6,7)/t4-/m1/s1
