18
gdb 93756	2.06138	1.65594	0.98476	5.3192	79.62	-0.2218	-0.0387	0.1831	1191.325	0.146602	-439.112963	-439.103662	-439.102717	-439.14743	33.731	
C	 0.1739210217	 1.5684140255	-0.1798563044	-0.394886
C	-0.0140986182	 0.0746594706	 0.0634814183	 0.046485
O	 0.4834147917	-0.6719515295	-1.0688659682	-0.279332
C	 1.4414541496	-1.6208870361	-0.6674473085	-0.139506
C	 1.5896969548	-1.4542532547	 0.8237376382	 0.226661
N	 2.5034377937	-2.1978496284	 1.5010731307	-0.581631
C	 0.7429534426	-0.4807092417	 1.2496397369	 0.119976
C	 0.5253410772	-0.0589802236	 2.6095451241	 0.049229
O	-0.2638818922	 0.7994440118	 2.9634060627	-0.299116
H	 1.2365230313	 1.811940421	-0.2767655773	 0.106726
H	-0.3386202273	 1.8671076437	-1.0989011207	 0.116814
H	-0.2431872538	 2.1281911047	 0.6608931817	 0.144974
H	-1.0904966994	-0.1325176641	 0.1602506371	 0.091004
H	 1.1121334589	-2.6456016125	-0.9150417099	 0.106288
H	 2.3999787108	-1.456057354	-1.1859748926	 0.117227
H	 2.8428084309	-3.0451004081	 1.0762064636	 0.26681
H	 2.486730865	-2.2030189219	 2.5078330943	 0.27009
H	 1.1412208627	-0.5918463328	 3.3749430942	 0.032188
42.5734	119.0947	165.632	178.2698	240.7033	253.984	301.0129	349.631	384.9561	422.8437	467.8047	544.7088	600.2145	628.9511	703.1342	772.854	876.1183	955.8788	1012.3671	1033.3988	1038.8929	1077.5782	1117.5492	1122.5826	1198.4322	1202.9371	1264.7867	1313.9627	1375.4181	1381.5235	1396.0612	1423.1093	1466.0657	1490.2745	1495.4688	1515.7117	1641.4101	1700.0594	1753.2881	2813.8136	2948.5075	2979.0613	2987.3766	3041.2641	3114.8656	3134.3668	3596.6914	3705.6212
CC1OCC(N)=C1C=O	C[C@H]1OCC(=C1C=O)N	
InChI=1S/C6H9NO2/c1-4-5(2-8)6(7)3-9-4/h2,4H,3,7H2,1H3	InChI=1S/C6H9NO2/c1-4-5(2-8)6(7)3-9-4/h2,4H,3,7H2,1H3/t4-/m1/s1
