12
gdb 5448	3.7435	1.93508	1.27567	5.1043	63.22	-0.2148	0.0073	0.2221	860.2287	0.085915	-377.577465	-377.570723	-377.569779	-377.60834	25.185	
O	 0.0957960735	 1.3073355555	 0.1277538966	-0.418718
C	 0.0571758431	-0.0271495999	-0.0105320166	 0.33263
C	 0.0280654551	-0.8464300483	-1.1311064205	 0.055334
C	-0.0078815063	-2.2007439156	-0.6443070468	-0.254166
C	 0.0008251277	-2.1465576775	 0.7176037826	-0.073107
N	 0.0408600371	-0.8082991342	 1.0944033985	-0.299641
C	 0.0351195138	-0.3540316287	-2.4514590369	 0.167364
N	 0.0425895211	 0.1084514183	-3.516242039	-0.374207
H	 0.1023268909	 1.706833028	-0.7514044936	 0.326829
H	-0.0363147866	-3.088275556	-1.2548849817	 0.122
H	-0.0173738668	-2.9247400019	 1.4613067465	 0.136443
H	 0.0559671173	-0.4513875296	 2.0346271808	 0.279241
127.9512	164.5389	286.7274	358.0143	395.5417	491.177	529.7092	530.2102	622.8243	623.3791	667.8601	732.0175	736.2106	832.3537	912.263	1076.2182	1084.3098	1171.5761	1216.3253	1285.3089	1370.1662	1394.0712	1547.866	1572.7037	1625.185	2325.5516	3268.1899	3290.3239	3678.6066	3795.1926
OC1=C(C=CN1)C#N	Oc1c(cc[nH]1)C#N	
InChI=1S/C5H4N2O/c6-3-4-1-2-7-5(4)8/h1-2,7-8H	InChI=1S/C5H4N2O/c6-3-4-1-2-7-5(4)8/h1-2,7-8H
