23
gdb 121875	3.58297	0.64952	0.57998	2.817	83.88	-0.2633	-0.025	0.2383	1984.4719	0.202442	-425.460148	-425.448846	-425.447901	-425.497696	39.878	
C	-0.050428103	 1.5628589705	 0.074606644	-0.379263
C	-0.0993116748	 0.0386202842	-0.0621991414	-0.169095
C	 0.7252815665	-0.4816946322	-1.2438949755	-0.155421
C	 0.6784887858	-2.0061919042	-1.3861401736	-0.21004
C	 1.5632423771	-2.511102745	-2.5428494755	 0.032135
O	 2.8936025721	-2.1011250244	-2.3714428894	-0.436667
C	 1.511243598	-4.0356110596	-2.6753201626	 0.366742
C	 0.1790805364	-4.7029155655	-2.9275643306	-0.480499
O	 2.542345965	-4.6679728031	-2.5723580041	-0.320648
H	 0.9775089043	 1.9129167586	 0.2194242448	 0.117275
H	-0.4416318025	 2.0536087438	-0.8236300109	 0.113023
H	-0.6436528217	 1.907571011	 0.9273549943	 0.110332
H	 0.2654724977	-0.4241158585	 0.8644763205	 0.095887
H	-1.1428271474	-0.2867361451	-0.1720124141	 0.089555
H	 0.3627623795	-0.0209855871	-2.1739207069	 0.088398
H	 1.7705054112	-0.1729107234	-1.1348298336	 0.123078
H	 1.0254717669	-2.475986106	-0.4563092052	 0.103136
H	-0.3569730937	-2.332007993	-1.5476037808	 0.091283
H	 1.1634419442	-2.0959991295	-3.4864339959	 0.083657
H	 3.4083814433	-2.9252388839	-2.3516649522	 0.291168
H	-0.4246656853	-4.1359819681	-3.6423821914	 0.139897
H	 0.3405243313	-5.7189985194	-3.2899154636	 0.149323
H	-0.3886765211	-4.7514172699	-1.9912049066	 0.156745
53.7966	67.7779	87.1211	107.4891	117.8457	149.1011	207.1565	247.4837	293.7119	321.1123	401.2196	411.6529	461.6035	485.1596	589.054	639.0918	740.7108	790.9904	820.0294	906.8883	914.2079	965.1489	978.5175	1017.1299	1038.5797	1071.8805	1109.4053	1138.5516	1160.1674	1211.7606	1244.6468	1256.0911	1290.2854	1315.8918	1332.7156	1353.9799	1374.1201	1386.4421	1397.689	1413.2072	1440.8805	1464.0407	1471.7562	1477.6871	1486.8302	1499.299	1499.6914	1512.861	1792.2157	2938.6657	3007.1149	3010.7413	3019.1224	3029.6865	3040.2644	3042.3135	3056.9135	3083.2452	3097.3925	3101.8663	3106.3446	3152.0402	3661.4574
CCCCC(O)C(C)=O	CCCC[C@@H](O)C(=O)C	
InChI=1S/C7H14O2/c1-3-4-5-7(9)6(2)8/h7,9H,3-5H2,1-2H3	InChI=1S/C7H14O2/c1-3-4-5-7(9)6(2)8/h7,9H,3-5H2,1-2H3/t7-/m1/s1
