20
gdb 93018	2.28784	1.82336	1.21566	1.6149	79.58	-0.2281	0.0097	0.2378	1075.6586	0.172198	-403.141068	-403.132684	-403.131739	-403.173537	33.417	
C	 0.0966808373	 1.5160641495	-0.0322838832	-0.475963
C	 0.0540546398	 0.0046489947	-0.0224966829	 0.288932
N	-0.8670387005	-0.6894576069	 0.8975532653	-0.38326
C	 0.6112563739	-0.7511098233	 1.1321121386	-0.12788
C	 1.28412509	-2.0523547194	 0.8993170757	-0.016189
C	 1.1251069073	-2.7120926314	-0.2475607742	-0.095588
C	 0.2330360036	-2.1905462521	-1.3428917793	-0.287948
C	 0.1391278199	-0.6516380428	-1.3953053064	 0.090765
O	-0.9509347889	-0.2418011747	-2.2161703566	-0.441012
H	 1.0363773242	 1.8789902734	-0.4633735675	 0.124565
H	-0.7204502253	 1.9170230435	-0.6394918355	 0.134227
H	 0.0136727251	 1.9205609524	 0.9818283727	 0.106272
H	-1.2766087288	-0.0169723509	 1.543138023	 0.225729
H	 0.9856925583	-0.1583588507	 1.9631592568	 0.080274
H	 1.9113185674	-2.447362683	 1.6928237656	 0.08761
H	 1.6120907243	-3.670774852	-0.4022112051	 0.091
H	 0.5564964198	-2.5539431411	-2.3233497692	 0.106601
H	-0.7815265427	-2.5829083192	-1.1903110201	 0.11987
H	 1.0313942281	-0.2583347929	-1.8974597669	 0.089101
H	-1.7526243129	-0.525560523	-1.7599016508	 0.282894
93.8601	184.4398	224.123	254.5298	279.0336	353.8726	383.3449	418.7404	433.1479	487.9022	549.555	588.4021	688.5716	718.6925	807.5241	815.2717	868.8088	925.9464	954.5533	970.2912	984.4853	991.0489	1044.1713	1060.2314	1083.7681	1098.8076	1128.3969	1172.4875	1184.8955	1212.5211	1273.4469	1310.0374	1326.227	1354.1033	1377.2569	1408.5435	1411.0565	1426.7541	1460.239	1468.0176	1481.3447	1504.5165	1714.5061	3018.3754	3029.5822	3040.5016	3076.9953	3095.2613	3109.3806	3134.0946	3158.6504	3181.9885	3481.0276	3782.9069
CC12NC1C=CCC2O	C[C@]12N[C@H]1C=CC[C@H]2O	
InChI=1S/C7H11NO/c1-7-5(8-7)3-2-4-6(7)9/h2-3,5-6,8-9H,4H2,1H3	InChI=1S/C7H11NO/c1-7-5(8-7)3-2-4-6(7)9/h2-3,5-6,8-9H,4H2,1H3/t5-,6+,7-/m0/s1
