19
gdb 109623	2.60731	1.10823	0.99349	4.6212	78.12	-0.223	0.011	0.234	1296.8009	0.157316	-419.188126	-419.177891	-419.176947	-419.22316	36.709	
C	 0.2902935356	 1.1100911827	 0.5069639141	-0.315296
N	-0.3881144221	 0.2748779848	-0.4758389072	-0.289296
C	 0.4734413494	-0.3692691687	-1.4109579963	-0.023296
C	 1.2941761095	-1.6255368204	-1.1322200861	-0.091517
C	 1.3099932889	-2.3154100151	 0.2127640142	-0.424508
C	 0.0243126123	-1.6930988025	-1.9919057255	 0.182041
O	-1.1416442972	-2.2137470712	-1.4201027227	-0.45011
C	 0.1563527836	-1.9313598435	-3.4121394308	 0.25834
N	 0.2776009036	-2.1473285339	-4.5423412579	-0.345585
H	 1.027441154	 0.5780264493	 1.1305778042	 0.101306
H	 0.8168223113	 1.9224646362	-0.006654969	 0.126312
H	-0.4549997048	 1.5644137086	 1.1655865479	 0.125132
H	-1.0225351523	-0.3880051638	-0.0500738067	 0.239958
H	 0.921302062	 0.3205818993	-2.1226942074	 0.118025
H	 2.2176942225	-1.7029275569	-1.6995179612	 0.107218
H	 0.3944042764	-2.1263471114	 0.7771106845	 0.125614
H	 1.4195103206	-3.4004301323	 0.1044298869	 0.12199
H	 2.1542774494	-1.95945502	 0.8107495511	 0.132541
H	-1.0674422427	-3.174701121	-1.3928445721	 0.301132
88.5549	121.695	132.6549	143.528	180.2291	196.5683	221.4159	286.3915	314.2726	324.5914	438.7391	448.5392	567.9721	609.3618	623.861	701.7549	710.0971	791.4232	876.6813	984.1473	1012.5525	1028.6694	1078.556	1097.1782	1125.8453	1156.1402	1162.3169	1206.289	1251.0169	1275.0842	1336.9156	1369.3741	1410.618	1417.2891	1461.432	1483.0777	1490.7664	1500.95	1506.892	1524.7305	2345.0167	2968.6584	3037.1717	3059.2639	3095.6026	3109.2394	3124.5103	3132.8528	3151.1281	3576.563	3795.6817
CNC1C(C)C1(O)C#N	CN[C@H]1[C@@H](C)[C@]1(O)C#N	
InChI=1S/C6H10N2O/c1-4-5(8-2)6(4,9)3-7/h4-5,8-9H,1-2H3	InChI=1S/C6H10N2O/c1-4-5(8-2)6(4,9)3-7/h4-5,8-9H,1-2H3/t4-,5+,6-/m1/s1
