20
gdb 69363	2.48915	1.5062	1.14243	2.6835	79.54	-0.24	-0.0233	0.2167	1146.5738	0.168532	-403.122811	-403.113551	-403.112606	-403.156615	34.914	
C	 0.344097809	 1.4617375529	-0.0347270602	-0.491801
C	 0.009524252	 0.0011575234	-0.0935421979	 0.369196
C	-1.005689256	-0.6504737377	 0.7562725597	-0.288628
N	 0.4165988922	-0.98034322	 1.0041068095	-0.213034
C	 0.8503677805	-1.9398391092	-0.0903284899	 0.251137
C	 0.2561483464	-3.3427922934	-0.0382928435	-0.465591
C	 0.4443601309	-0.9536880955	-1.2108770435	-0.377845
C	 2.3605621316	-2.0503877274	 0.0870934202	 0.138873
O	 3.1864478779	-1.7243018654	-0.7241266899	-0.25216
H	 1.3972496258	 1.635229558	-0.2789541702	 0.131742
H	-0.2652209049	 2.0265111763	-0.7502269664	 0.123105
H	 0.1540793927	 1.8637226965	 0.9646794379	 0.128282
H	-1.4341772278	-0.0690586981	 1.5675204876	 0.122038
H	-1.6757316171	-1.4013258668	 0.3452078725	 0.109523
H	-0.8352478611	-3.3217721555	-0.0884075608	 0.126672
H	 0.6170496961	-3.9406203763	-0.8821053956	 0.134481
H	 0.5418909158	-3.8497927622	 0.8898954606	 0.1311
H	-0.3412322036	-1.2757222514	-1.8998588368	 0.099146
H	 1.3109916408	-0.6154333216	-1.7809659362	 0.135295
H	 2.6470906289	-2.4679862667	 1.0778588329	 0.08847
63.4434	136.9489	188.0159	189.5501	220.0836	271.6078	324.8603	337.7189	381.5322	407.5383	460.7342	561.183	631.954	692.6397	767.5291	822.4209	825.4111	918.0684	935.4625	949.0526	962.5497	998.2969	1034.8949	1053.1788	1112.8188	1113.4753	1136.9426	1152.0569	1191.8539	1257.464	1286.5233	1309.3566	1375.8447	1401.059	1413.127	1423.0592	1481.1645	1482.0452	1489.3937	1494.0659	1494.9095	1515.2487	1834.7487	2890.7882	3029.5494	3034.5761	3060.9771	3092.8764	3101.75	3109.2993	3113.3198	3118.9914	3129.5305	3195.3634
CC12CN1C(C)(C2)C=O	C[C@]12CN1[C@@](C)(C2)C=O	
InChI=1S/C7H11NO/c1-6-3-7(2,5-9)8(6)4-6/h5H,3-4H2,1-2H3	InChI=1S/C7H11NO/c1-6-3-7(2,5-9)8(6)4-6/h5H,3-4H2,1-2H3/t6-,7-,8?/m0/s1
