16
gdb 28500	3.19946	1.40652	0.98335	2.9242	76.67	-0.2137	-0.0108	0.2029	1155.9022	0.125225	-434.140269	-434.131762	-434.130818	-434.173448	31.891	
C	-0.0619006166	 1.4798698791	 0.0085158822	-0.458843
C	-0.0006024799	-0.0236208472	-0.0106807868	 0.33932
N	-0.0311824677	-0.6304457115	-1.1945837345	-0.299344
C	 0.023839697	-1.9738892471	-1.1714079987	-0.116732
C	 0.113161668	-2.7002608273	-0.0074949	 0.267639
O	 0.167246783	-4.0643303122	 0.0866545086	-0.458654
C	 0.1426427741	-1.962456069	 1.1980298942	 0.328778
N	 0.2708635844	-2.6065900505	 2.3953882	-0.568553
N	 0.0785199081	-0.6349159554	 1.1828313696	-0.353628
H	 0.8393420982	 1.8933471036	 0.4731676837	 0.132692
H	-0.1534629473	 1.8650439358	-1.0072505224	 0.132139
H	-0.9128536967	 1.8208663408	 0.6068809241	 0.130963
H	-0.0070891891	-2.4839579223	-2.1352486687	 0.093443
H	 0.1160735453	-4.4469391434	-0.7959729809	 0.301562
H	 0.0530591934	-3.5885998524	 2.424053054	 0.268779
H	 0.0623536358	-2.0597208311	 3.2151057556	 0.260438
56.3748	129.3705	217.9714	289.7311	303.0498	309.92	380.2469	398.3345	439.0697	474.7415	513.503	537.8688	589.2723	676.1798	755.0497	791.6602	802.3019	932.3333	968.9245	1009.5349	1064.2209	1119.8134	1170.4097	1267.9299	1301.8139	1315.4303	1391.2393	1402.4447	1444.568	1477.5962	1479.8742	1522.7056	1608.7769	1624.2134	1652.8796	3043.7365	3098.8425	3115.0353	3152.9958	3598.7129	3725.4362	3813.1439
CC1=NC=C(O)C(N)=N1	Cc1ncc(O)c(N)n1	
InChI=1S/C5H7N3O/c1-3-7-2-4(9)5(6)8-3/h2,9H,1H3,(H2,6,7,8)	InChI=1S/C5H7N3O/c1-3-7-2-4(9)5(6)8-3/h2,9H,1H3,(H2,6,7,8)
