18
gdb 17240	4.47092	1.59574	1.54967	1.8678	70.61	-0.2241	0.0793	0.3034	910.3924	0.153914	-347.738541	-347.731422	-347.730478	-347.769906	27.805	
C	 0.0604260319	 1.4844699669	-0.2168713709	-0.373124
C	-0.0585673171	-0.0009195069	 0.151078749	-0.306473
C	-1.4753675543	-0.4976960703	 0.1285948697	 0.311316
C	-2.6489143019	-0.0935192827	 1.03026715	-0.284973
C	-3.3899208214	-1.2921470431	 0.3884562774	 0.070179
O	-3.5790064814	-0.8769199557	-0.9958561024	-0.297552
C	-2.1687896191	-1.0387438433	-1.1401804464	 0.057806
C	-1.9957796903	-1.9356368239	 0.0381281213	-0.210296
H	 1.1033914847	 1.8141581329	-0.1900668598	 0.111574
H	-0.3302141018	 1.6730106512	-1.2219275036	 0.120655
H	-0.5058378593	 2.1100575631	 0.4808187502	 0.121302
H	 0.5434360465	-0.6017242294	-0.5437607584	 0.097009
H	 0.37463035	-0.168859841	 1.1463593463	 0.099151
H	-2.416659835	-0.2755989254	 2.0836123461	 0.09919
H	-3.1158282279	 0.8886022645	 0.9017063554	 0.09856
H	-4.2677016597	-1.7624726206	 0.8262241503	 0.085736
H	-1.734235807	-1.0377720167	-2.1316812439	 0.104061
H	-1.5381586168	-2.9037713394	 0.1897666498	 0.09588
86.7434	153.0311	202.2147	311.6322	366.9222	460.1174	519.5071	621.9135	743.8204	772.2165	793.0886	800.9548	822.1763	894.1595	918.3536	938.6711	963.0443	990.6159	994.0174	1034.1081	1040.0339	1072.6837	1095.274	1146.1459	1157.5628	1170.7541	1203.9565	1236.1198	1269.2102	1304.4424	1328.138	1354.2767	1408.1495	1414.9314	1483.0789	1488.5892	1497.477	1507.626	3009.6726	3036.0172	3039.0855	3041.7432	3102.9495	3105.4411	3108.7236	3144.9646	3195.9935	3209.9459
CCC12CC3OC1C23	CC[C@@]12C[C@H]3O[C@@H]1[C@@H]23	
InChI=1S/C7H10O/c1-2-7-3-4-5(7)6(7)8-4/h4-6H,2-3H2,1H3	InChI=1S/C7H10O/c1-2-7-3-4-5(7)6(7)8-4/h4-6H,2-3H2,1H3/t4-,5+,6-,7+/m1/s1
