20
gdb 93066	2.13482	1.62302	0.99183	3.7563	81.52	-0.2301	0.006	0.2362	1216.7768	0.172542	-403.193231	-403.18458	-403.183636	-403.226737	33.195	
C	-0.0863421158	 1.539688528	 0.002551069	-0.39632
C	 0.0289105573	 0.0113477956	-0.0231426333	 0.063898
C	 0.6315099433	-0.4766613572	-1.349465672	-0.246315
C	 0.5810426743	-1.975757073	-1.4983895443	-0.071035
C	 1.3176161506	-2.7774816209	-0.7342831764	-0.059363
C	 2.2753082473	-2.249797019	 0.3035958802	-0.358988
C	 1.6604786956	-1.4317166986	 1.4430401083	 0.380562
O	 1.9949196097	-1.6385130249	 2.5966536853	-0.367852
N	 0.7861364735	-0.4119279118	 1.1606691603	-0.305898
H	 0.8980528819	 2.0045264288	-0.1124169949	 0.127063
H	-0.735816382	 1.8887420643	-0.8058341956	 0.119657
H	-0.5165218445	 1.8868309273	 0.9481319764	 0.116521
H	-0.9868343231	-0.4099020648	 0.0433900845	 0.0871
H	 0.0730087593	 0.0043962072	-2.1575522657	 0.104764
H	 1.6658535457	-0.1113775219	-1.4232893927	 0.111452
H	-0.0998568969	-2.3927242519	-2.2347849087	 0.093058
H	 1.247459101	-3.8558809099	-0.8414842347	 0.100663
H	 2.8159341664	-3.0572332682	 0.797188884	 0.131332
H	 3.0306507086	-1.6099484725	-0.176250393	 0.131604
H	 0.4787059578	 0.0204781435	 2.0226664434	 0.2381
68.0004	88.8927	198.3709	249.2207	285.9102	302.3731	356.0879	434.3753	472.8845	514.5815	539.8226	594.6599	677.4196	690.8304	728.9329	848.2116	884.5776	911.5475	958.7096	964.3495	989.0261	1020.1697	1048.2244	1062.7404	1109.7951	1193.6187	1204.5708	1219.078	1248.8196	1316.2337	1324.4977	1344.8926	1372.6077	1404.0504	1409.2613	1414.9795	1462.2659	1476.9902	1482.6849	1497.9915	1505.491	1724.4561	1770.2153	2968.0577	3005.0461	3010.6995	3033.4202	3084.219	3101.9472	3115.5585	3130.6057	3159.5413	3182.891	3572.708
CC1CC=CCC(=O)N1	C[C@H]1CC=CCC(=O)N1	
InChI=1S/C7H11NO/c1-6-4-2-3-5-7(9)8-6/h2-3,6H,4-5H2,1H3,(H,8,9)	InChI=1S/C7H11NO/c1-6-4-2-3-5-7(9)8-6/h2-3,6H,4-5H2,1H3,(H,8,9)/t6-/m0/s1
