21
gdb 36971	6.35138	0.58276	0.57035	3.8034	81.24	-0.2456	0.0697	0.3153	1980.4708	0.18273	-420.330793	-420.321284	-420.32034	-420.366976	33.825	
C	-0.1891858346	 1.497096153	-0.1540163664	-0.076223
O	-0.1524034755	 0.0938389126	 0.0042515992	-0.244545
C	-1.4309694395	-0.4804277177	 0.1803728156	-0.076229
C	-1.2776281517	-1.9614783608	 0.3897173772	 0.018727
C	-2.3414266798	-2.8776822741	-0.0919199785	-0.247139
N	-1.0271402578	-2.8510462772	-0.7519314625	-0.30259
C	 1.2088001333	 2.0004194172	-0.3845435803	 0.018726
C	 1.5858540727	 3.349483119	 0.1063005105	-0.24714
N	 2.1414901581	 2.1444348795	 0.740971086	-0.302591
H	-0.8361641161	 1.7698129471	-1.0065700959	 0.0899
H	-0.6191460292	 1.9767578293	 0.7442732441	 0.076649
H	-1.9393945852	-0.025014551	 1.0486523764	 0.089901
H	-2.0665130379	-0.2884952634	-0.7034303506	 0.076648
H	-0.716086342	-2.2314765535	 1.2812553305	 0.100713
H	-2.5625986866	-3.7888136911	 0.4561330077	 0.121804
H	-3.1965612103	-2.441317266	-0.6032354129	 0.109148
H	-1.0783913829	-2.3200309456	-1.6185128687	 0.231289
H	 1.6771259754	 1.6212519164	-1.290066536	 0.100713
H	 2.3016524659	 3.9488317932	-0.4485456328	 0.121804
H	 0.8334365215	 3.9263078994	 0.6394549923	 0.109149
H	 1.6572889722	 1.9509623537	 1.614862395	 0.231288
42.1565	46.0342	92.7801	123.6939	148.5304	234.3996	302.033	380.6384	396.8189	475.8819	541.6156	794.6414	820.0429	835.6928	837.1229	932.3016	935.6682	941.4585	947.0275	1008.7493	1022.3092	1024.2296	1055.7536	1088.8235	1119.506	1136.4089	1149.8004	1153.3016	1156.6626	1209.1368	1223.9052	1249.3586	1249.9617	1276.0725	1279.2427	1312.1631	1312.3386	1356.9499	1387.7583	1434.4811	1467.6283	1498.8665	1514.2789	1515.7722	1519.7066	2929.2053	2941.1929	2963.0427	2966.5255	3106.1427	3106.2539	3137.8498	3137.9084	3191.297	3191.3361	3493.349	3493.3565
C(OCC1CN1)C1CN1	C(OC[C@H]1CN1)[C@H]1CN1	
InChI=1S/C6H12N2O/c1-5(7-1)3-9-4-6-2-8-6/h5-8H,1-4H2	InChI=1S/C6H12N2O/c1-5(7-1)3-9-4-6-2-8-6/h5-8H,1-4H2/t5-,6-/m1/s1
