17
gdb 67356	2.86701	1.94024	1.35118	2.4847	72.48	-0.2482	-0.0226	0.2256	936.8231	0.137197	-421.811564	-421.804659	-421.803715	-421.842573	28.355	
O	 0.0505508184	 1.4011507371	-0.0155908664	-0.499919
C	-0.0032821825	 0.0279791364	 0.0047980134	 0.371697
C	 0.0412454472	-0.8094325078	 1.3435494032	-0.116145
C	-1.4431773297	-0.4432156681	 1.5907534306	-0.251778
C	-1.3627604285	-0.7728144551	 0.0795722164	-0.116069
C	-0.4178478453	-1.9744676231	 0.4074644472	-0.022013
C	 0.5965774434	-2.1586506704	-0.7247968981	-0.373193
C	 0.8735087879	-0.6811656491	-0.9889337056	 0.345052
O	 1.6010202383	-0.1319068088	-1.7812173032	-0.35068
H	 0.686108862	 1.6265938015	-0.7130236358	 0.294785
H	 0.8658649701	-0.8279623546	 2.0586549512	 0.081181
H	-2.0189664079	-1.137355485	 2.2102519549	 0.091175
H	-1.6519699456	 0.5948780614	 1.8527325519	 0.120036
H	-2.1602186803	-0.749071025	-0.6655550666	 0.081187
H	-0.8593325974	-2.854601112	 0.8723009078	 0.081895
H	 1.5071429537	-2.6894432786	-0.4279564183	 0.131379
H	 0.1909373761	-2.6546073186	-1.6127623326	 0.131412
120.8486	274.7791	303.5654	344.4308	360.7214	426.4634	536.5688	584.1565	612.0145	665.875	704.7716	724.0427	847.2222	883.7119	892.6654	915.9547	951.7611	980.6977	989.4681	1032.9665	1066.4712	1071.323	1074.5776	1120.0747	1133.4636	1168.091	1189.6385	1198.4599	1240.3338	1260.4686	1264.2686	1325.7241	1363.9336	1412.3512	1456.1629	1517.1969	1842.5547	3051.6679	3055.4947	3094.7227	3096.0187	3099.7482	3132.6231	3133.1599	3701.2289
OC12C3CC1C3CC2=O	O[C@@]12[C@H]3C[C@@H]1[C@H]3CC2=O	
InChI=1S/C7H8O2/c8-6-1-3-4-2-5(3)7(4,6)9/h3-5,9H,1-2H2	InChI=1S/C7H8O2/c8-6-1-3-4-2-5(3)7(4,6)9/h3-5,9H,1-2H2/t3-,4-,5+,7-
