17
gdb 13844	4.4006	1.58816	1.19282	3.1524	73.74	-0.2054	0.0027	0.208	996.8173	0.142866	-363.911004	-363.903061	-363.902116	-363.943829	28.559	
C	-0.0211790508	 1.5047164555	 0.0341393709	-0.50152
C	-0.019221246	-0.0156115394	 0.032454092	 0.391408
O	-0.0294366676	-0.6748241063	 1.0589332801	-0.369711
N	-0.0053047424	-0.6292479567	-1.192031473	-0.087979
C	-0.0022536283	-2.1014924102	-1.3054795828	-0.15649
C	 0.0151000325	-2.3721418611	-2.8360518165	-0.284391
C	 0.0192837588	-0.9836751568	-3.4372245105	-0.157532
C	 0.0075858237	-0.0632979778	-2.4725147689	 0.012436
H	 0.8678667484	 1.9077082924	-0.4617771208	 0.137979
H	-0.9009474055	 1.9053548891	-0.479913332	 0.137997
H	-0.0322873157	 1.8360111742	 1.0718954592	 0.148748
H	 0.8717429318	-2.5047092712	-0.7880019364	 0.13142
H	-0.8866657301	-2.5068062284	-0.8076800323	 0.13139
H	 0.8969974883	-2.9510129806	-3.1342645492	 0.117156
H	-0.8579066915	-2.9541897657	-3.153576998	 0.117153
H	 0.03034194	-0.7757371301	-4.4970786561	 0.104178
H	 0.0070240743	 1.0117800531	-2.5739413857	 0.127758
64.7537	114.517	151.0678	163.0588	218.7478	380.9001	465.003	540.344	595.3613	617.69	725.7285	772.4062	830.2087	861.4409	923.4884	929.3468	952.0047	1005.2961	1050.9445	1065.6714	1094.5653	1143.0875	1203.497	1247.7047	1249.8652	1310.8928	1322.9466	1375.8888	1402.8895	1446.0993	1477.5088	1487.5761	1495.1146	1522.0142	1685.4034	1757.5544	3029.0944	3043.0422	3051.2118	3068.2994	3105.0764	3105.7072	3161.8942	3235.7833	3260.3315
CC(=O)N1CCC=C1	CC(=O)N1CCC=C1	
InChI=1S/C6H9NO/c1-6(8)7-4-2-3-5-7/h2,4H,3,5H2,1H3	InChI=1S/C6H9NO/c1-6(8)7-4-2-3-5-7/h2,4H,3,5H2,1H3
