16
gdb 8568	4.17386	2.0238	1.71732	3.706	64.01	-0.215	0.0243	0.2393	780.8963	0.133633	-379.920472	-379.914141	-379.913197	-379.950918	25.244	
O	 0.0197575916	-0.0553257076	 0.0588896732	-0.377806
C	-0.0028980773	 1.1581013637	 0.0207421879	 0.388137
C	-1.3127678317	 1.9800134531	-0.0055410597	-0.29167
N	-1.1409901879	 3.4447734299	-0.0519405885	-0.125761
C	-0.0944046316	 3.7546725564	-1.0980247592	-0.17274
C	 0.9856112004	 3.3995110719	-0.049932242	-0.008122
C	-0.0949584051	 3.8203312672	 0.9729659307	-0.172714
N	 1.1154050739	 1.9471801029	-0.0037848391	-0.298474
H	-1.8935169756	 1.6545783785	-0.8746526416	 0.136587
H	-1.8938710237	 1.7102826762	 0.8822081063	 0.136581
H	-0.1391504728	 3.1485182307	-2.0064735965	 0.11362
H	-0.1292968949	 4.8178080406	-1.3503684789	 0.114006
H	 1.971514547	 3.8694724912	-0.0645552664	 0.079598
H	-0.1299594124	 4.8973154251	 1.1574404363	 0.114005
H	-0.1401930921	 3.2729343823	 1.9179594308	 0.113622
H	 2.0149227623	 1.492674778	 0.0103235167	 0.25113
82.7951	340.9801	354.8798	410.155	440.0113	493.3927	498.0512	598.6908	625.7579	798.9232	814.899	824.0759	894.3254	919.7014	943.7515	987.3329	1025.7201	1051.5248	1103.9129	1113.0331	1115.9629	1220.9066	1247.0681	1255.0709	1270.2463	1279.664	1306.4524	1329.5826	1372.9564	1443.9868	1463.3458	1485.879	1516.9558	1807.5442	3052.8889	3053.4679	3060.0768	3085.2629	3097.393	3118.3339	3119.6066	3633.4257
O=C1CN2CC(C2)N1	O=C1CN2C[C@@H](C2)N1	
InChI=1S/C5H8N2O/c8-5-3-7-1-4(2-7)6-5/h4H,1-3H2,(H,6,8)	InChI=1S/C5H8N2O/c8-5-3-7-1-4(2-7)6-5/h4H,1-3H2,(H,6,8)
