18
gdb 116686	2.97745	0.96915	0.77893	0.1942	80.45	-0.2331	-0.0202	0.2129	1481.1677	0.144791	-439.074059	-439.064341	-439.063397	-439.109605	33.918	
C	 0.1239785332	 1.3304355996	 0.1263759061	-0.249083
O	-0.0344200725	 0.0009534404	-0.3562742695	-0.192919
C	-1.1868483684	-0.6036479179	-0.0023085775	 0.085319
N	-1.3898914238	-1.7863137463	-0.3993234872	-0.327737
C	-2.5672191015	-2.509778378	-0.0827429613	 0.298913
C	-3.0087670556	-3.5076956834	-1.1706489452	-0.297158
C	-2.3584479816	-4.0304060476	 0.0533463059	-0.297162
C	-3.6872891447	-1.9863513961	 0.7359055666	 0.120755
O	-3.7646905699	-0.8916442711	 1.244476596	-0.289198
H	 1.0912874284	 1.6766140673	-0.2397046586	 0.143114
H	-0.662502	 1.9927716635	-0.2548034859	 0.129622
H	 0.1219680146	 1.3629875265	 1.2224973719	 0.129623
H	-1.8628502402	-0.0071239564	 0.611383067	 0.132776
H	-4.0726931611	-3.6653321065	-1.3090634245	 0.125882
H	-2.4241647774	-3.4436210886	-2.0792567203	 0.145346
H	-1.3201314946	-4.3309817098	-0.0012873868	 0.145348
H	-2.9606926053	-4.5591308547	 0.7838914411	 0.125882
H	-4.5139440396	-2.725465211	 0.8595247423	 0.070676
48.0362	84.1904	134.4029	137.7805	154.5105	211.8842	269.9538	306.8538	345.77	432.7654	484.1942	512.5027	595.8482	781.3892	784.2025	872.1776	913.4393	958.8342	1011.5421	1018.4325	1034.0862	1059.1832	1068.2229	1088.0843	1165.0539	1177.3564	1202.9988	1248.3364	1282.889	1337.9756	1402.361	1453.4243	1454.2192	1483.9068	1490.3293	1494.7312	1501.4762	1747.0184	1806.2917	2849.6525	3015.9246	3079.8893	3129.1557	3143.9715	3145.1313	3146.6829	3237.6553	3250.9679
COC=NC1(CC1)C=O	COC=NC1(CC1)C=O	
InChI=1S/C6H9NO2/c1-9-5-7-6(4-8)2-3-6/h4-5H,2-3H2,1H3	InChI=1S/C6H9NO2/c1-9-5-7-6(4-8)2-3-6/h4-5H,2-3H2,1H3
