19
gdb 126163	3.75625	1.01257	0.94295	3.0845	77.03	-0.2834	-0.0183	0.265	1326.3535	0.160166	-415.387026	-415.378063	-415.377119	-415.422292	31.861	
C	-0.1368362092	 1.511519405	 0.0306754475	-0.391513
C	 0.0078575832	-0.0108034327	-0.0409180366	-0.179649
C	 0.8180783934	-0.4943584695	-1.257256806	 0.054441
C	 2.2890081305	-0.075851763	-1.2395075671	-0.398142
N	 0.714875373	-1.9589747876	-1.3565388157	 0.138615
N	-0.1105387172	-2.56857028	-2.1998320319	-0.244971
C	 0.0958448256	-3.843426339	-1.8890362665	 0.069351
N	 1.0012317683	-4.0011495996	-0.900274833	-0.206514
N	 1.383430307	-2.7892063031	-0.5694529432	-0.13453
H	 0.8252182969	 2.0105517732	 0.1792933516	 0.125794
H	-0.5860123103	 1.9124768585	-0.8847905819	 0.121246
H	-0.783703402	 1.7922792035	 0.866582803	 0.125742
H	 0.483152206	-0.3938003904	 0.8692970251	 0.124049
H	-0.9855338208	-0.4699211061	-0.0956762525	 0.11769
H	 0.339038236	-0.137407521	-2.1729863008	 0.119599
H	 2.8151079426	-0.4725272916	-2.1116200565	 0.133525
H	 2.3651532715	 1.0135491482	-1.2623565988	 0.128854
H	 2.786957005	-0.4446442399	-0.3397539881	 0.150827
H	-0.4059709595	-4.6605607849	-2.3811228884	 0.145585
19.1413	93.643	112.282	207.5908	213.8921	269.9233	288.386	352.84	405.9059	494.2241	706.711	720.9559	741.4099	791.4472	854.8058	898.8864	966.735	991.8753	1028.9101	1032.9045	1048.1807	1086.038	1149.6108	1162.5691	1187.4154	1210.7902	1258.0653	1294.0983	1319.6157	1351.1541	1367.4204	1377.3614	1401.8242	1415.5988	1419.8822	1485.0037	1487.8487	1492.5527	1499.9771	1507.5381	1510.5463	3037.3331	3040.8439	3056.8471	3072.9891	3088.8226	3107.9849	3115.2801	3131.1517	3140.8485	3287.0532
CCC(C)N1N=CN=N1	CC[C@@H](C)n1ncnn1	
InChI=1S/C5H10N4/c1-3-5(2)9-7-4-6-8-9/h4-5H,3H2,1-2H3	InChI=1S/C5H10N4/c1-3-5(2)9-7-4-6-8-9/h4-5H,3H2,1-2H3/t5-/m1/s1
