16
gdb 32880	5.56458	0.81553	0.74923	1.6402	69.3	-0.2191	-0.0044	0.2147	1495.0182	0.123698	-475.037452	-475.028758	-475.027814	-475.071972	30.623	
C	-0.0339332687	 1.3396636075	-0.1017561882	-0.223228
O	 0.0132087309	-0.069003756	-0.0814486715	-0.233051
C	-1.2465102135	-0.6440686963	 0.1965051259	-0.170676
C	-1.1261197938	-2.1275259033	 0.159414484	 0.397881
N	-1.2471971184	-2.9607744136	 1.1520119369	-0.383861
C	-1.0525930806	-4.2011323902	 0.5832604145	 0.32067
O	-1.1055272479	-5.3299912106	 1.3129310112	-0.429329
C	-0.8178639632	-4.0654981651	-0.7468420483	-0.148016
O	-0.8715918007	-2.7184358954	-1.0216228485	-0.162816
H	 0.9741265744	 1.6926530482	-0.3295196479	 0.133863
H	-0.7264011968	 1.7135138268	-0.8725510944	 0.107124
H	-0.3458765263	 1.7527135614	 0.8703639968	 0.108088
H	-1.6099076986	-0.362218843	 1.1950060013	 0.120468
H	-1.9920155998	-0.3101198306	-0.5448359104	 0.107518
H	-1.2776061447	-5.0626765018	 2.2238777382	 0.307503
H	-0.6134452923	-4.7323464479	-1.5632745697	 0.147862
40.0392	82.3103	109.3391	227.628	273.4326	303.0303	342.7708	356.4902	392.7681	475.3682	654.3877	677.9982	715.0271	743.721	813.0592	958.0212	986.2764	1021.2045	1050.8394	1131.8658	1148.9452	1180.7784	1182.368	1221.2566	1247.7457	1272.667	1359.2159	1399.0755	1424.0663	1477.6727	1485.0572	1495.7192	1516.617	1605.9612	1696.6898	2963.0501	2974.0537	3016.8965	3027.6738	3122.4859	3316.0288	3807.6514
COCC1=NC(O)=CO1	COCc1nc(O)co1	
InChI=1S/C5H7NO3/c1-8-3-5-6-4(7)2-9-5/h2,7H,3H2,1H3	InChI=1S/C5H7NO3/c1-8-3-5-6-4(7)2-9-5/h2,7H,3H2,1H3
