14
gdb 25869	4.14029	1.1222	0.88366	13.5434	66.88	-0.19	-0.0151	0.1749	1209.3307	0.101766	-470.046281	-470.038209	-470.037265	-470.079171	29.606	
O	 0.2655883348	 0.043351715	 0.0327526023	-0.442255
C	 0.095173023	 1.2582824628	 0.0167874304	 0.340852
O	 0.8649951588	 2.2524826007	 0.0064635248	-0.515234
C	-1.3766982385	 1.7502703272	 0.009709669	 0.170492
C	-2.6432905239	 1.2732005994	 0.0256229903	-0.199363
N	-3.4954881641	 2.3921905103	 0.0217365495	-0.303326
C	-2.7517956246	 3.5166380949	 0.0056731139	 0.498447
N	-3.2403024118	 4.792654009	-0.0790666624	-0.598742
H	-4.1097752939	 4.9685757022	 0.4035439693	 0.278522
H	-2.5560579765	 5.5166463975	 0.0851925472	 0.288121
N	-1.4825359763	 3.1350017237	-0.0000255424	-0.273691
H	-3.0272812203	 0.2695766513	 0.0483568267	 0.176213
H	-4.501745972	 2.3712942008	-0.0214382733	 0.284037
H	-0.5492037946	 3.578738025	-0.0043323854	 0.295927
102.5366	129.9061	140.1867	198.5775	307.0924	342.1149	386.5514	519.9747	540.3847	565.9084	608.9786	692.3559	730.568	743.2236	767.5946	805.0456	865.3534	920.5762	1002.8408	1038.3351	1109.0321	1148.0043	1210.1575	1286.3789	1311.5901	1394.3357	1554.2736	1607.4033	1641.549	1686.9874	1805.8041	3299.094	3310.6323	3574.1763	3649.27	3673.5255
[O-]C(=O)C1=CNC(=[NH2+])N1	[O]C(=O)C1=CN[C@H](N)N1	
InChI=1S/C4H5N3O2/c5-4-6-1-2(7-4)3(8)9/h1H,(H,8,9)(H3,5,6,7)	InChI=1S/C4H6N3O2/c5-4-6-1-2(7-4)3(8)9/h1,4,6-7H,5H2/t4-/m0/s1
