20
gdb 119324	4.84643	0.95249	0.92123	2.061	81.69	-0.2085	0.0692	0.2777	1362.2051	0.170401	-365.892367	-365.884161	-365.883217	-365.925659	31.518	
C	-0.0428295986	 1.5882673025	 0.0908205286	-0.381295
C	-0.009293967	 0.0585145947	 0.1229387888	-0.158458
C	-1.3881327722	-0.5742254941	-0.1253134043	-0.350949
C	-1.3754470953	-2.0678312383	-0.091623634	 0.379363
C	-2.5282414293	-3.0650614817	 0.1172180449	-0.194431
C	-1.7567615612	-4.1082210232	-0.7265582002	-0.047538
C	-0.6381012723	-3.1529257278	-0.9331581605	-0.121801
N	-0.598163366	-4.1029652551	 0.2359334164	-0.178614
C	-1.3454752864	-3.050998039	 1.0551088053	-0.066334
H	 0.9506234853	 2.0125911206	 0.2653239188	 0.11349
H	-0.3973420203	 1.9577724323	-0.877982933	 0.114211
H	-0.7144315617	 1.9855072285	 0.8602783755	 0.113761
H	 0.6971591429	-0.3107018827	-0.631343561	 0.100431
H	 0.3728584275	-0.2866526148	 1.09128805	 0.102758
H	-2.0980644187	-0.2131409207	 0.6319648364	 0.099785
H	-1.7787058765	-0.2283300235	-1.0931656414	 0.100499
H	-3.576754942	-2.8653786784	 0.2881825445	 0.093357
H	-2.0550817736	-4.9983722309	-1.2678102106	 0.094652
H	 0.1538498919	-3.1163324313	-1.6727533543	 0.091392
H	-1.2617824866	-2.9294514272	 2.1283750803	 0.095724
81.7974	90.402	110.3181	243.9937	284.8525	304.0588	351.6987	637.9644	676.0217	738.1725	761.6863	774.8771	784.3622	832.9372	850.2099	865.7354	882.9266	902.5674	918.4044	931.5956	978.4435	990.9058	1007.2394	1011.1937	1047.3734	1078.2624	1119.6	1132.3475	1163.8139	1194.1856	1231.7008	1256.5052	1293.0281	1309.8483	1316.1724	1335.0934	1385.7383	1412.3767	1438.8718	1475.2179	1492.4892	1499.4074	1509.5061	2999.3307	3024.9102	3029.1176	3031.5617	3061.1848	3095.9383	3103.3447	3167.6709	3180.9516	3183.3219	3215.9489
CCCC12C3C4C1N4C23	CCC[C@@]12[C@H]3[C@H]4[C@@H]1N4[C@@H]23	
InChI=1S/C8H11N/c1-2-3-8-4-5-7(8)9(5)6(4)8/h4-7H,2-3H2,1H3	InChI=1S/C8H11N/c1-2-3-8-4-5-7(8)9(5)6(4)8/h4-7H,2-3H2,1H3/t4-,5-,6+,7-,8-,9?/m0/s1
