19
gdb 67107	2.57111	2.09068	1.76633	1.1377	78.48	-0.2127	0.0656	0.2784	890.8293	0.161228	-381.945245	-381.938269	-381.937325	-381.976075	29.106	
C	-0.0856454402	 1.4999663344	-0.0939704644	-0.538506
C	-0.0534716726	 0.0047703317	-0.056362841	 0.393752
C	 0.8455775461	-0.9701558512	-0.852604482	-0.136996
N	 1.9391171477	-0.8959772557	 0.2219915811	-0.432742
C	 0.6353687267	-0.9274039767	 0.9770586675	 0.301023
C	-0.131835407	-0.8574456741	 2.2734657138	-0.379772
C	-1.552790447	-0.8504121662	 1.5428004839	-0.161809
N	-1.2775954975	-0.8848681934	 0.0548615594	-0.203507
C	-0.1161709271	-1.844378196	-0.0163694478	-0.042859
H	 0.937677323	 1.8876926427	-0.0925782951	 0.14404
H	-0.5943574271	 1.8562196741	-0.9953104576	 0.131965
H	-0.6104366774	 1.9127881477	 0.7745151452	 0.12078
H	 1.0928483625	-0.9955976125	-1.9140924609	 0.08503
H	 2.4126169463	-1.8012256578	 0.295923593	 0.208749
H	-0.0030262499	-1.7231851827	 2.9277771743	 0.105986
H	 0.0460870843	 0.053252278	 2.8513951186	 0.111487
H	-2.1501416545	-1.7246304167	 1.813863885	 0.108817
H	-2.130715725	 0.0449879566	 1.7837244989	 0.110892
H	-0.2302327913	-2.9298516722	 0.0131957182	 0.073671
199.5878	205.7393	233.4845	285.4106	412.0781	444.9153	513.8595	653.0712	670.6883	744.3095	768.6533	800.9262	824.9897	835.9189	850.423	852.6759	884.2274	935.1553	937.508	974.4625	1036.8283	1046.4449	1089.5404	1105.3284	1122.2756	1144.3417	1168.9547	1201.9089	1214.2933	1229.0773	1240.5356	1257.4266	1285.9399	1293.5637	1325.6935	1380.3808	1416.0652	1480.657	1489.3882	1492.6874	1512.4873	3034.0755	3059.6882	3069.2688	3094.638	3099.2457	3102.9393	3114.7561	3116.714	3122.1337	3395.4126
CC12C3NC11CCN2C31	C[C@@]12[C@H]3N[C@]41CCN2[C@@H]34	
InChI=1S/C7H10N2/c1-6-4-5-7(6,8-4)2-3-9(5)6/h4-5,8H,2-3H2,1H3	InChI=1S/C7H10N2/c1-6-4-5-7(6,8-4)2-3-9(5)6/h4-5,8H,2-3H2,1H3/t4-,5-,6+,7+/m0/s1
