20
gdb 83837	2.04144	1.75654	1.25861	3.0032	78.69	-0.2104	-0.015	0.1954	1091.0576	0.173138	-403.153519	-403.145243	-403.144299	-403.186318	32.232	
C	-0.217528598	 1.4886587414	 0.2307267839	-0.421776
C	 0.0182675993	 0.0093610825	 0.0217664135	-0.009103
C	 0.5414396935	-0.6069075632	-1.2457087073	-0.083227
C	 1.0544097812	 0.2479353026	-2.413106683	-0.19823
N	 2.5018366784	 0.4744886475	-2.4339849687	-0.279768
C	 2.9895093669	 1.0136908376	-1.1649293046	-0.284146
C	 2.6650202768	 0.1479588109	 0.060480069	 0.379141
O	 3.4406775228	 0.0563261803	 0.9884589936	-0.327912
C	 1.4015504962	-0.6478491056	 0.0147312673	-0.151982
H	 0.5057309549	 2.1202005245	-0.2884433661	 0.123098
H	-1.2139236815	 1.7695203953	-0.1286766776	 0.123427
H	-0.1650310554	 1.7385707177	 1.2952421317	 0.132388
H	-0.7148055911	-0.6037791614	 0.540504859	 0.09838
H	 0.0902988238	-1.5519168382	-1.5342342862	 0.091961
H	 0.7768495896	-0.2330433724	-3.3553685165	 0.110292
H	 0.567648816	 1.23076487	-2.4144718059	 0.114189
H	 2.9704500838	-0.4092139439	-2.6129827378	 0.219634
H	 4.0757880653	 1.1351556118	-1.1968101166	 0.128561
H	 2.5650926227	 2.0175803703	-1.0250059039	 0.129374
H	 1.4779620949	-1.5741145177	 0.5744748959	 0.1057
83.3423	143.2474	181.1662	204.8129	313.8026	359.0601	414.8921	455.4515	471.2838	513.1303	600.8236	706.0464	733.7206	752.541	783.0768	847.9562	909.1324	935.865	940.7115	968.2991	1017.5127	1048.8706	1084.8438	1109.1759	1119.8625	1147.6313	1162.9563	1209.0566	1226.9157	1264.8106	1317.7021	1337.2899	1356.4445	1369.1422	1379.4939	1420.245	1430.5622	1457.7729	1486.0704	1490.3213	1501.3974	1506.1795	1789.9742	3020.5886	3035.0979	3039.7821	3084.6245	3095.8482	3097.8221	3122.0589	3137.2128	3145.0317	3167.7233	3500.3407
CC1C2CNCC(=O)C12	C[C@H]1[C@H]2CNCC(=O)[C@@H]12	
InChI=1S/C7H11NO/c1-4-5-2-8-3-6(9)7(4)5/h4-5,7-8H,2-3H2,1H3	InChI=1S/C7H11NO/c1-4-5-2-8-3-6(9)7(4)5/h4-5,7-8H,2-3H2,1H3/t4-,5+,7-/m0/s1
