21
gdb 113805	3.99147	0.79415	0.72583	2.272	80.25	-0.2597	0.0774	0.3371	1617.022	0.181121	-424.186518	-424.176695	-424.175751	-424.222432	35.82	
C	-0.1244643224	 1.5658422583	 0.0915574317	-0.407061
C	 0.0073039087	 0.0584599958	 0.0627514152	 0.005293
C	 1.2735111296	-0.6103692154	-0.401932154	-0.304826
C	 0.8576732288	-0.7190883456	 1.0512950543	-0.037693
C	 1.6632669506	-0.0306177989	 2.099241794	 0.062436
O	 1.1141671263	 0.0510412259	 3.4247448037	-0.27932
C	 2.3287046655	-0.6961361022	 3.2335839538	 0.018666
C	 2.2367421322	-2.1651759357	 3.5621163767	-0.084158
O	 2.125016297	-2.3585188159	 4.9631182575	-0.419812
H	 0.827878584	 2.059779403	 0.3042940766	 0.11684
H	-0.4724526397	 1.9381078749	-0.8780650031	 0.118512
H	-0.8429074045	 1.8887632398	 0.8524805449	 0.1275
H	-0.9125209447	-0.4515680795	-0.2119935821	 0.089265
H	 1.2167109021	-1.4977047224	-1.0223596042	 0.114756
H	 2.1195698171	 0.0326049189	-0.6272961475	 0.111983
H	 0.4424107873	-1.6718408864	 1.3599229017	 0.08843
H	 2.124251227	 0.9027474308	 1.7715774495	 0.086896
H	 3.2087753137	-0.2083676773	 3.65821442	 0.094518
H	 1.3976213004	-2.630806191	 3.0280446752	 0.092593
H	 3.1558777024	-2.6749236808	 3.2530167751	 0.112158
H	 1.3586486186	-1.8483563164	 5.249469531	 0.293024
30.5691	65.3707	119.1548	152.0742	208.6715	212.1999	286.7605	362.6302	399.9884	405.7419	447.1619	521.7116	599.3188	770.4286	789.6846	810.7162	855.1558	893.7514	913.7854	934.9119	998.5475	1033.2827	1051.3954	1068.0073	1072.7813	1105.0328	1119.5849	1143.8391	1159.5023	1194.7157	1198.9123	1229.4561	1247.3897	1298.2376	1329.693	1361.0699	1399.8835	1408.2187	1424.4056	1442.0242	1485.5254	1492.0489	1493.7009	1500.1813	1515.3115	3013.4716	3034.2865	3071.1762	3085.9915	3094.3111	3097.6776	3108.3601	3126.3781	3138.25	3169.6909	3212.0293	3798.6821
CC1CC1C1OC1CO	C[C@H]1C[C@H]1[C@H]1O[C@H]1CO	
InChI=1S/C7H12O2/c1-4-2-5(4)7-6(3-8)9-7/h4-8H,2-3H2,1H3	InChI=1S/C7H12O2/c1-4-2-5(4)7-6(3-8)9-7/h4-8H,2-3H2,1H3/t4-,5+,6-,7+/m0/s1
