16
gdb 76025	2.64999	1.22115	1.07762	5.4423	77.93	-0.2412	0.0038	0.245	1163.5065	0.123226	-396.879101	-396.869629	-396.868685	-396.913038	34.992	
N	-0.1470515908	 1.4709318054	-0.0519499892	-0.51258
C	-0.0674945115	 0.0431407308	-0.0274228888	-0.052046
C	-0.4728738792	-0.6733157525	 1.242407086	-0.302032
C	-0.9077579924	 0.0588093506	 2.3890983055	 0.320708
C	-1.2777158354	 0.6704520436	 3.3571740039	-0.417978
C	-1.4017115922	-0.711392501	-0.0155024314	 0.127276
N	-2.5981315964	 0.0591760185	-0.0900410751	-0.562747
C	-1.4357888642	-1.9855505498	-0.6960247595	 0.288935
N	-1.4342397327	-3.0172135028	-1.2197871406	-0.348019
H	 0.3223083148	 1.8867360949	 0.7445193433	 0.252573
H	 0.2437747726	 1.8520868896	-0.9042165508	 0.249927
H	 0.7312691502	-0.4384551333	-0.5874993762	 0.11527
H	 0.0672475762	-1.591988645	 1.4495434668	 0.138723
H	-1.6007836195	 1.2010591151	 4.218532648	 0.205381
H	-3.2160317366	-0.1365746321	 0.6906228404	 0.244391
H	-2.3398637328	 1.0432545679	-0.0564845822	 0.252219
100.2411	120.3275	148.9618	163.6072	184.5601	280.3883	318.2693	350.616	373.6462	482.8418	487.2058	574.5384	601.3789	616.8045	623.2287	658.5764	710.3591	740.4364	843.6146	858.2601	877.5969	1001.4328	1025.5525	1082.8857	1123.1787	1216.7179	1256.0439	1303.7406	1321.7718	1361.7247	1434.5438	1646.8592	1649.151	2233.8624	2347.8915	3124.5736	3160.1416	3477.1262	3502.0655	3524.1412	3567.271	3613.6133
NC1C(C#C)C1(N)C#N	N[C@H]1[C@@H](C#C)[C@]1(N)C#N	
InChI=1S/C6H7N3/c1-2-4-5(8)6(4,9)3-7/h1,4-5H,8-9H2	InChI=1S/C6H7N3/c1-2-4-5(8)6(4,9)3-7/h1,4-5H,8-9H2/t4-,5+,6-/m1/s1
