17
gdb 8081	3.68431	2.24094	1.77225	2.0299	68.23	-0.2111	0.0102	0.2213	780.2698	0.143779	-363.82751	-363.820952	-363.820008	-363.857571	27.183	
O	-0.0051731829	 1.4380069551	-0.0413742705	-0.493584
C	 0.0190189595	 0.0394389121	 0.0237039718	 0.371361
C	 0.2223809121	-0.7235605674	 1.3650990639	-0.227505
N	-0.7139200205	-1.781154011	 0.8346104779	-0.121354
C	-1.3399546129	-0.6906797843	-0.0019972257	-0.198719
C	 0.0422600939	-2.6974966339	-0.0450978014	-0.218279
C	 0.9231644738	-1.9651127086	-1.040105635	-0.074762
C	 0.9093689243	-0.6334983091	-1.0097758357	-0.139909
H	 0.902481558	 1.7602070767	-0.0688876811	 0.275563
H	 1.2271531755	-1.0687124009	 1.6228217763	 0.096718
H	-0.2414204353	-0.2165499085	 2.2166406457	 0.106313
H	-2.1080823356	-0.1773484451	 0.5838022353	 0.110132
H	-1.7404006934	-1.0021849233	-0.9695261262	 0.103888
H	 0.6425132064	-3.3640531661	 0.5883654417	 0.114245
H	-0.6757313261	-3.3424606077	-0.5689703541	 0.115261
H	 1.5229744939	-2.5337667728	-1.7455536712	 0.093094
H	 1.4813481193	-0.0096807051	-1.6911311919	 0.087535
240.2862	251.6848	340.7316	342.7807	414.0912	459.381	494.1386	499.9579	629.8241	699.8462	723.6657	796.6057	884.7395	911.0968	922.2923	942.6051	962.0392	986.545	1010.2186	1034.0457	1058.1772	1112.45	1144.4107	1184.1113	1218.6212	1239.5709	1270.8085	1273.2638	1287.6789	1348.7226	1369.8409	1386.2152	1470.6901	1484.7189	1513.895	1695.5469	3013.4294	3041.755	3043.3421	3052.7992	3109.1787	3115.8621	3152.8279	3177.7643	3799.4322
OC12CN(C1)CC=C2	O[C@@]12CN(C1)CC=C2	
InChI=1S/C6H9NO/c8-6-2-1-3-7(4-6)5-6/h1-2,8H,3-5H2	InChI=1S/C6H9NO/c8-6-2-1-3-7(4-6)5-6/h1-2,8H,3-5H2
