19
gdb 63885	2.67848	1.59106	1.34124	2.8691	74.82	-0.2371	-0.0037	0.2334	1022.8542	0.159139	-423.034967	-423.026827	-423.025883	-423.067099	32.545	
C	-0.0859380885	 1.5323057918	 0.0077765086	-0.462044
C	 0.0344465595	 0.0102427977	 0.0244050378	 0.411642
O	-1.2555291166	-0.5921661521	-0.0219810347	-0.481755
C	 0.9966373758	-0.5663534483	-1.0886861519	-0.282361
C	 2.014195301	-1.3282648205	-0.2107506188	-0.144687
C	 1.0756112083	-2.0070034692	 0.8426779519	-0.254193
C	 0.7495512453	-0.5383161523	 1.2787518028	-0.158859
C	 2.2267002597	-0.2918509218	 0.9083387323	 0.432859
O	 3.1490618051	 0.3007846118	 1.3832449303	-0.331302
H	 0.8914755362	 2.0123272809	 0.115548665	 0.135471
H	-0.5227973713	 1.8745997234	-0.9384615858	 0.107392
H	-0.731394493	 1.8708701969	 0.823587935	 0.12823
H	-1.7064388173	-0.2659453677	-0.808579075	 0.275137
H	 0.4448429661	-1.2413297278	-1.748767548	 0.105349
H	 1.4630537143	 0.2159374414	-1.6943167004	 0.107422
H	 2.8379894811	-1.8473827645	-0.6964037552	 0.083656
H	 0.2316893417	-2.5746003351	 0.4508866023	 0.127183
H	 1.6176246153	-2.5700875286	 1.6037184495	 0.115318
H	 0.3288104175	-0.278169716	 2.2474117945	 0.085543
124.7013	164.9038	253.3513	262.5074	275.1591	356.4971	379.1209	435.452	459.9641	517.9881	574.4524	636.8022	748.4981	782.1708	809.3666	832.0046	911.6892	932.0781	951.7727	969.744	996.3364	1018.5663	1029.7102	1042.2064	1089.0711	1115.8952	1131.8255	1171.0442	1206.5627	1215.8342	1244.8781	1249.2018	1267.3904	1313.2775	1374.8288	1409.9229	1482.859	1489.6719	1494.3892	1503.1639	1898.512	3025.5766	3052.8556	3086.3227	3093.9672	3104.1028	3117.6045	3142.4233	3151.0376	3156.3734	3800.3789
CC1(O)CC2CC1C2=O	C[C@@]1(O)C[C@@H]2C[C@H]1C2=O	
InChI=1S/C7H10O2/c1-7(9)3-4-2-5(7)6(4)8/h4-5,9H,2-3H2,1H3	InChI=1S/C7H10O2/c1-7(9)3-4-2-5(7)6(4)8/h4-5,9H,2-3H2,1H3/t4-,5-,7+/m0/s1
