14
gdb 29090	3.07861	1.49358	1.01201	5.2188	68.83	-0.2397	-0.0607	0.179	1102.8284	0.100191	-473.860078	-473.852192	-473.851248	-473.89302	28.772	
C	 0.0376902831	 1.5188204031	 0.2072755005	-0.46968
C	-0.0798527422	 0.0433810506	 0.0425760787	 0.297151
C	-1.1404782531	-0.6187800185	-0.405301326	-0.09348
O	-1.1763768883	-1.986197288	-0.5309547518	-0.217435
C	-0.077464389	-2.7236015109	-0.1831419657	 0.258294
N	-0.0498040359	-3.9806765833	-0.2748020475	-0.459626
C	 1.1504510737	-1.9919659302	 0.3313825099	 0.369445
O	 2.1537239677	-2.5455786439	 0.6570887747	-0.273179
O	 1.0695945847	-0.6308001095	 0.4134507783	-0.236307
H	 0.8604210304	 1.9114054722	-0.4000525098	 0.150454
H	-0.8876288734	 2.0132386869	-0.0949870259	 0.138743
H	 0.248700693	 1.7758804711	 1.2509356464	 0.15045
H	-2.0641268779	-0.1510421194	-0.7094437903	 0.146267
H	-0.9407368027	-4.3312303902	-0.6334613616	 0.238903
59.3662	115.6415	188.3492	285.1278	295.707	361.6818	441.0565	455.4561	522.795	562.5252	574.71	660.4999	791.7857	791.8388	803.7036	918.6262	975.3794	1012.0091	1047.9317	1069.4156	1120.8815	1230.154	1245.2544	1310.1621	1373.866	1422.2437	1465.8859	1489.9273	1738.1652	1771.2973	1877.0503	3037.8604	3093.849	3136.3781	3258.9736	3473.4036
CC1=COC(=N)C(=O)O1	CC1=CO[C]([NH])C(=O)O1	
InChI=1S/C5H5NO3/c1-3-2-8-4(6)5(7)9-3/h2,6H,1H3	InChI=1S/C5H5NO3/c1-3-2-8-4(6)5(7)9-3/h2,6H,1H3
