16
gdb 32487	6.57658	0.85445	0.75987	3.4272	79.68	-0.2116	-0.0445	0.1671	1430.3994	0.124795	-437.927782	-437.919485	-437.918541	-437.960939	30.275	
C	-0.0299259065	 1.4075723335	 0.0383594018	-0.246752
O	-0.011908127	-0.0064806973	 0.0257091033	-0.262275
C	 0.5970692219	-0.5775292054	-1.0409871942	 0.379348
C	 1.2107026771	 0.036325287	-2.1318120038	-0.193268
N	 1.6780828712	-0.9546309797	-2.9433198928	-0.301123
C	 1.3842190433	-2.1815337288	-2.4080838861	 0.259164
C	 1.7833773186	-3.3881825893	-3.0959991211	 0.076835
O	 2.3841798839	-3.3914658107	-4.1560137296	-0.321098
C	 0.7049343285	-1.972863937	-1.2124722288	-0.374395
H	 0.9883184975	 1.8205293253	 0.0487677605	 0.120057
H	-0.5666366598	 1.8086005497	-0.8326058599	 0.120057
H	-0.5490031519	 1.7067010645	 0.9500938396	 0.137657
H	 1.3417424355	 1.0763970653	-2.3769851034	 0.131563
H	 2.1715035937	-0.8543790068	-3.8153256776	 0.278482
H	 1.5003730078	-4.3310604848	-2.5839738353	 0.077937
H	 0.3313083862	-2.7316575555	-0.5430660225	 0.117812
74.8282	134.0604	153.594	226.1891	264.7062	295.2982	355.0192	389.1677	554.2073	572.0761	643.8803	665.1686	670.3621	737.5747	783.1208	817.913	978.4094	1004.2008	1025.3771	1074.2444	1132.9427	1181.5688	1191.9377	1214.1316	1282.0656	1359.1878	1392.6755	1431.4157	1471.0079	1482.4854	1487.4426	1508.0464	1541.9001	1621.7511	1756.3031	2918.2931	2994.5516	3049.4836	3136.7651	3261.2853	3279.403	3664.8138
COC1=CNC(C=O)=C1	COc1c[nH]c(C=O)c1	
InChI=1S/C6H7NO2/c1-9-6-2-5(4-8)7-3-6/h2-4,7H,1H3	InChI=1S/C6H7NO2/c1-9-6-2-5(4-8)7-3-6/h2-4,7H,1H3
