19
gdb 97860	4.52822	0.68178	0.63928	1.9402	81.05	-0.2483	0.0319	0.2801	1798.799	0.159	-422.99662	-422.987134	-422.986189	-423.033483	32.823	
C	 0.125897887	 1.4725198951	 0.1747898897	-0.365491
C	-0.2250440711	 0.0096382124	-0.1539573272	-0.314144
C	 0.5221995618	-0.5143841234	-1.2922296188	 0.046522
C	 1.1451544262	-0.9314164952	-2.235458842	 0.100737
C	 1.8999474508	-1.4302784548	-3.3794882075	-0.084658
C	 3.3621106712	-0.8857296564	-3.436809089	-0.12133
O	 4.1314800048	-2.0235042535	-3.7813426468	-0.229197
C	 3.457649977	-3.0913541072	-3.1659375351	 0.021384
O	 2.0783515476	-2.8560402341	-3.3477263994	-0.245625
H	 1.1873630228	 1.5730400356	 0.4168509638	 0.128089
H	-0.0894485471	 2.1244277551	-0.6761058017	 0.128931
H	-0.4582042508	 1.8201274546	 1.0318560888	 0.11717
H	-0.031955508	-0.6201874021	 0.7237963176	 0.133151
H	-1.300770259	-0.0739309342	-0.3544088227	 0.132175
H	 1.3636372596	-1.1992566653	-4.3073385022	 0.111652
H	 3.5042225443	-0.1201766171	-4.2013940491	 0.124348
H	 3.6550414673	-0.4859045962	-2.4565447524	 0.10719
H	 3.7329322073	-4.0253176192	-3.6629989924	 0.122136
H	 3.7043720785	-3.1402280341	-2.0894925236	 0.086957
18.6877	46.8079	78.1527	137.5092	186.5591	229.5722	289.7867	332.6968	430.932	492.0667	552.0936	667.1458	738.7844	772.4487	786.7051	892.0069	962.3072	976.3696	987.2992	1041.5451	1080.6925	1091.5979	1105.0294	1107.3214	1170.9583	1182.7319	1216.1812	1266.1827	1285.2188	1306.5176	1347.4298	1350.954	1373.1989	1408.7688	1427.1059	1476.1455	1494.8476	1505.6201	1511.4825	1541.7409	2363.2051	2936.6108	3014.7133	3022.3808	3034.076	3045.3369	3050.2526	3095.6593	3118.2023	3119.2708	3124.0792
CCC#CC1COCO1	CCC#C[C@H]1COCO1	
InChI=1S/C7H10O2/c1-2-3-4-7-5-8-6-9-7/h7H,2,5-6H2,1H3	InChI=1S/C7H10O2/c1-2-3-4-7-5-8-6-9-7/h7H,2,5-6H2,1H3/t7-/m0/s1
