18
gdb 61470	3.37911	0.88616	0.74591	7.0753	68.93	-0.2501	0.0259	0.276	1474.8544	0.147377	-476.230494	-476.221468	-476.220524	-476.265147	32.753	
N	 0.1136161095	 0.9473861939	-0.1397754255	-0.529078
H	 0.2715880291	-0.0553684425	-0.1557802598	 0.248638
H	 1.3719388215	 2.1742826817	 0.2399192692	 0.314347
H	-0.3826612261	 1.1861514867	-0.9952728624	 0.24397
C	-0.6791260683	 1.3396113416	 1.0440096849	-0.0403
C	-0.6994047317	 2.8724503	 1.1604547787	-0.33126
C	 0.6669738462	 3.5424674736	 1.3648380523	 0.393561
O	 1.6971878301	 2.9756469433	 0.7196668948	-0.372448
O	 0.8027577043	 4.5275790621	 2.039986783	-0.327304
C	-2.0868440048	 0.7756482908	 1.0153099421	 0.08648
C	-2.4363015295	-0.4874242466	 1.6785799062	-0.18815
O	-2.7971076481	 0.7725048606	 2.2496339832	-0.225314
H	-0.1692077662	 0.92757382	 1.9225940658	 0.11192
H	-1.1444440529	 3.2979290257	 0.2491236158	 0.121611
H	-1.3355202364	 3.1729942029	 1.9942945217	 0.157027
H	-2.6853893137	 1.0869558332	 0.1542113374	 0.093038
H	-3.2652529633	-1.0861871378	 1.3049514525	 0.124544
H	-1.6692908598	-1.0404480792	 2.2200203101	 0.118719
63.953	86.6855	105.7571	152.3594	259.9011	313.468	337.135	361.2034	404.6843	493.8754	506.4744	612.6979	689.6017	825.5847	871.2867	876.135	905.4049	917.935	945.2492	961.514	1000.7415	1084.0019	1103.8958	1139.1697	1148.1837	1161.6818	1176.893	1255.1831	1271.8766	1287.9371	1306.5271	1352.9582	1393.5132	1447.711	1462.7302	1482.4701	1528.0235	1648.3513	1862.1774	3015.5285	3050.0159	3072.276	3083.9015	3130.2137	3171.934	3306.3563	3484.7234	3571.0249
[NH3+]C(CC([O-])=O)C1CO1	N[C@@H](CC(=O)O)[C@H]1CO1	
InChI=1S/C5H9NO3/c6-3(1-5(7)8)4-2-9-4/h3-4H,1-2,6H2,(H,7,8)	InChI=1S/C5H9NO3/c6-3(1-5(7)8)4-2-9-4/h3-4H,1-2,6H2,(H,7,8)/t3-,4+/m0/s1
