19
gdb 35233	3.56221	1.1133	0.95914	1.8708	82.02	-0.2548	0.0215	0.2764	1266.7563	0.158751	-385.855121	-385.846638	-385.845694	-385.888654	32.649	
C	-0.2131547421	-1.190167828	 0.2037307254	-0.423238
C	-0.0943546444	 0.0052471448	 0.1492166895	 0.345568
C	 0.0302021414	 1.4344301323	 0.052104911	-0.270155
O	 0.713346606	 2.1216439113	 1.1161869671	-0.281371
C	 1.3352962559	 2.0991356287	-0.1699820974	 0.45423
C	 2.6642817081	 1.350147694	-0.2913698668	-0.295017
C	 3.4736974983	 2.1571244194	-1.3255137334	-0.206998
C	 2.9660626465	 3.600926902	-1.1450287277	-0.210838
C	 1.4512893097	 3.4193391723	-0.937210033	-0.285742
H	-0.3179792603	-2.2454662724	 0.262154664	 0.200998
H	-0.8649829037	 1.9487782226	-0.299855725	 0.107879
H	 3.1528280393	 1.3740817272	 0.6888252582	 0.120121
H	 2.5279080013	 0.3000144693	-0.5602704779	 0.116039
H	 4.5534133621	 2.0596613355	-1.1862137309	 0.100315
H	 3.2437657785	 1.8092863659	-2.3399254559	 0.10125
H	 3.4160016939	 4.0432101179	-0.2481837761	 0.10642
H	 3.2072288086	 4.2527993585	-1.9887247446	 0.097792
H	 0.9487202135	 3.3281324503	-1.907811123	 0.107363
H	 0.9710860875	 4.2330796081	-0.3884791337	 0.115386
46.7517	120.2074	140.2298	247.0103	297.4647	370.926	377.2322	444.3609	548.0534	559.7903	598.8677	621.7988	669.7882	715.7433	797.1126	838.5138	868.3539	905.7489	913.0161	949.8265	967.9477	1009.5387	1034.0502	1051.6628	1070.2103	1168.7843	1187.3416	1201.2187	1240.3384	1259.3468	1296.4145	1313.0606	1337.6905	1342.2818	1360.9167	1444.7993	1477.0044	1481.5335	1493.7168	1509.6606	2236.8713	3033.7017	3034.896	3041.6524	3052.231	3093.7167	3096.9687	3099.5589	3105.6045	3108.447	3501.6459
C#CC1OC11CCCC1	C#C[C@H]1OC21CCCC2	
InChI=1S/C8H10O/c1-2-7-8(9-7)5-3-4-6-8/h1,7H,3-6H2	InChI=1S/C8H10O/c1-2-7-8(9-7)5-3-4-6-8/h1,7H,3-6H2/t7-/m1/s1
