17
gdb 15608	3.21394	1.94982	1.24169	1.2984	73.07	-0.2147	0.	0.2146	973.035	0.142372	-360.065321	-360.056806	-360.055861	-360.099523	29.08	
C	-0.0393226094	 1.3863683842	-0.0293970192	-0.320874
N	-0.0035874604	-0.0674344041	-0.0188436598	-0.332455
C	 0.5820079066	-0.6192949936	 0.9626612685	 0.379732
C	 1.2958082708	-0.0833011875	 2.2024053851	-0.276413
N	 1.7576262844	-1.2587226166	 2.9527260282	-0.268925
C	 1.3764551825	-2.2670800285	 2.264098738	 0.060786
N	 0.6883359198	-2.0019443861	 1.0937736055	-0.091123
C	 0.1511979713	-2.9482116358	 0.1440454251	-0.33175
H	 0.9676546486	 1.8291621152	-0.0653037073	 0.112737
H	-0.5832233958	 1.7291242099	-0.9131430824	 0.122707
H	-0.5454312723	 1.800891359	 0.8557747239	 0.112121
H	 2.1420962262	 0.5603639378	 1.9301739145	 0.138824
H	 0.6249247134	 0.5305795033	 2.8169613094	 0.138865
H	 1.5601447595	-3.3004008851	 2.5424576004	 0.131465
H	 0.3803425179	-3.9618100028	 0.479708452	 0.130193
H	-0.9336416862	-2.8322601749	 0.0552453303	 0.146731
H	 0.586601333	-2.7871912044	-0.847113792	 0.14738
39.1839	60.6955	136.0289	170.2557	188.1138	291.7264	298.1209	460.0913	539.6526	588.4594	623.0779	709.9451	876.0571	932.4795	980.8732	995.7587	1038.7134	1073.6995	1108.6565	1122.8828	1158.1103	1169.3927	1185.0523	1274.012	1307.0546	1346.3409	1415.3647	1441.7357	1447.3	1467.3996	1469.1507	1486.2753	1505.4952	1521.4095	1673.8524	1756.8865	2975.4353	3021.0967	3026.992	3038.1804	3053.2343	3096.1557	3100.5489	3133.7187	3189.6158
CN=C1CN=CN1C	CN=C1CN=CN1C	
InChI=1S/C5H9N3/c1-6-5-3-7-4-8(5)2/h4H,3H2,1-2H3	InChI=1S/C5H9N3/c1-6-5-3-7-4-8(5)2/h4H,3H2,1-2H3
