22
gdb 120266	3.03508	1.07167	0.9411	1.8275	82.47	-0.2283	0.0766	0.3049	1370.0469	0.193201	-404.298284	-404.28868	-404.287736	-404.333198	35.472	
C	-0.8324721254	 1.6306756087	 0.5486604442	-0.384915
C	-0.5952646289	 0.1670565005	 0.218631275	-0.042686
O	-1.8193237912	-0.531817442	 0.3787216748	-0.256458
C	-1.7313978991	-1.9137692941	 0.1411514298	 0.108781
C	-2.9636376775	-2.690458132	 0.5659917834	-0.064395
C	-4.1336046889	-2.3028915151	-0.2432467725	-0.240202
N	-3.1826643554	-3.2652749613	-0.8275433637	-0.142377
C	-1.9865290521	-2.4703763809	-1.3052039785	 0.02333
C	-2.2128163442	-1.519327659	-2.4670046505	-0.407817
H	 0.095956502	 2.2004270956	 0.4462503325	 0.115172
H	-1.579196429	 2.0604548248	-0.1250833086	 0.126275
H	-1.1960104092	 1.7374447865	 1.5745763145	 0.128129
H	-0.2194637286	 0.0610445053	-0.8109678088	 0.090838
H	 0.1690641372	-0.2626866657	 0.8873472019	 0.089031
H	-0.8045995616	-2.3154211638	 0.5725431472	 0.069321
H	-3.0410696904	-3.3048090422	 1.4565815834	 0.092432
H	-5.0825170962	-2.7647680139	 0.0111270459	 0.119535
H	-4.2111146182	-1.2942512873	-0.634960397	 0.124383
H	-1.2173598144	-3.2012383285	-1.571144996	 0.080538
H	-2.8197812523	-0.655228031	-2.1870807931	 0.127476
H	-1.2569770292	-1.1424288118	-2.8456399136	 0.116591
H	-2.7138418772	-2.0460620431	-3.2860202805	 0.127015
57.4139	93.3849	106.9797	176.151	207.2535	234.3667	252.9271	319.3974	373.5498	425.2958	552.4992	586.3715	718.21	769.6367	777.1104	809.2317	825.1611	903.8526	910.7319	983.0756	990.4381	1038.4727	1061.4048	1084.4951	1100.3815	1104.6817	1119.5171	1150.2882	1164.5248	1183.0788	1188.1169	1217.5689	1267.6283	1295.2106	1298.439	1364.9335	1372.3975	1379.4224	1401.774	1405.363	1443.3007	1482.9223	1483.3922	1493.6392	1499.3941	1510.8037	1528.3448	2964.7162	2996.3801	3009.3729	3038.3748	3044.9329	3061.4021	3101.4414	3119.1058	3121.9986	3122.3367	3129.6418	3169.0538	3213.9896
CCOC1C2CN2C1C	CCO[C@H]1[C@H]2CN2[C@H]1C	
InChI=1S/C7H13NO/c1-3-9-7-5(2)8-4-6(7)8/h5-7H,3-4H2,1-2H3	InChI=1S/C7H13NO/c1-3-9-7-5(2)8-4-6(7)8/h5-7H,3-4H2,1-2H3/t5-,6+,7+,8?/m0/s1
