12
gdb 131382	3.6299	1.75923	1.18561	5.0025	60.82	-0.226	-0.0105	0.2155	914.944	0.080654	-464.979081	-464.972628	-464.971684	-465.009806	24.679	
O	-0.0368266642	 1.3269014089	 0.0075473434	-0.407496
C	 0.03322862	-0.0029382086	 0.0039704203	 0.476455
N	 1.1073349951	-0.7305752601	 0.0085881516	-0.316985
N	 0.6615373975	-2.0484331508	-0.062189984	-0.372018
C	-0.7024578799	-2.0824725868	-0.0040228781	 0.524049
N	-1.7057765472	-2.922282644	 0.0235105278	-0.354961
N	-2.8389972183	-2.1146444561	 0.0301747529	-0.207872
C	-2.4931594604	-0.853704377	 0.0071505444	-0.016176
N	-1.1114308786	-0.7669230398	-0.0147796124	-0.105602
H	 0.8669095446	 1.6701506527	 0.0167977883	 0.328277
H	 1.289063715	-2.7772039604	 0.2290558313	 0.291194
H	-3.1524142036	-0.003142948	-0.0018195755	 0.161134
181.1031	254.9981	285.6274	303.4829	389.5531	444.319	572.3326	648.2837	661.4898	676.256	713.2427	750.9105	766.534	859.9561	987.9216	1018.3196	1066.6267	1155.7075	1222.0326	1236.4902	1326.8108	1369.2347	1399.5403	1469.2382	1550.336	1620.9611	1690.8998	3297.0971	3691.4748	3792.3596
OC1=NNC2=NN=CN12	Oc1n[nH]c2nncn12	
InChI=1S/C3H3N5O/c9-3-7-6-2-5-4-1-8(2)3/h1H,(H,5,6)(H,7,9)	InChI=1S/C3H3N5O/c9-3-7-6-2-5-4-1-8(2)3/h1H,(H,5,6)(H,7,9)
