21
gdb 109965	2.30121	1.32823	0.9538	1.9634	84.73	-0.2531	0.037	0.2901	1292.1442	0.181282	-387.046494	-387.036813	-387.035869	-387.080708	36.906	
C	-1.2126309497	 0.8955071955	-0.0600328412	-0.417675
C	-0.0702751458	-0.1111305823	-0.0537161073	 0.025316
C	 1.250736349	 0.2473214923	-0.7842401995	-0.246027
C	 2.0386111333	-0.4860609678	 0.3467538882	-0.173451
C	 3.2885600358	 0.0862204582	 0.8086198676	 0.300141
C	 4.3126491611	 0.5883367501	 1.1971702128	-0.450051
C	 0.7529376419	-0.3759471112	 1.2506210462	-0.044992
C	 0.7904324023	 0.7642144562	 2.2671824033	-0.078003
O	 1.620084582	 0.4600830527	 3.3739169302	-0.428962
H	-0.8915041601	 1.8811843895	 0.2916070098	 0.119687
H	-1.6065831406	 1.0207375384	-1.0747129374	 0.115939
H	-2.0417384279	 0.5665487089	 0.5760646303	 0.119224
H	-0.4390460219	-1.0720366853	-0.4302870827	 0.076291
H	 1.3944526579	-0.1196992821	-1.8028003775	 0.104584
H	 1.447812274	 1.3226548856	-0.7668070988	 0.11137
H	 2.1997177127	-1.5329585775	 0.0700082528	 0.106119
H	 5.227573223	 1.0216755674	 1.5186770129	 0.200532
H	 0.5071030793	-1.2950380246	 1.7893372889	 0.079357
H	 1.0984879906	 1.7061171611	 1.7868871257	 0.088342
H	-0.2143515944	 0.9245438903	 2.6730652759	 0.106449
H	 2.5259840776	 0.4293523645	 3.0426762698	 0.285812
69.3555	140.1768	163.8095	183.2447	210.5834	238.0177	285.1563	338.4123	404.5058	445.28	455.5277	517.0231	564.8355	617.7742	631.9061	645.0765	755.5957	844.4946	897.5237	908.7373	936.6827	981.7359	1004.0797	1046.4941	1079.0168	1086.1044	1134.9376	1151.0374	1166.8277	1199.4634	1243.0721	1248.3719	1266.5029	1298.2183	1337.063	1341.1688	1386.9845	1408.9532	1416.0234	1434.0253	1488.2986	1496.1674	1499.0125	1506.4447	2217.8883	2979.3294	3029.4819	3034.2144	3049.697	3061.9604	3062.8245	3076.4964	3092.248	3102.882	3118.8311	3500.1832	3773.9125
CC1CC(C#C)C1CO	C[C@H]1C[C@@H](C#C)[C@H]1CO	
InChI=1S/C8H12O/c1-3-7-4-6(2)8(7)5-9/h1,6-9H,4-5H2,2H3	InChI=1S/C8H12O/c1-3-7-4-6(2)8(7)5-9/h1,6-9H,4-5H2,2H3/t6-,7+,8-/m0/s1
