15
gdb 86870	3.30807	1.17155	0.93931	2.46	62.84	-0.2661	-0.0555	0.2106	1202.5394	0.110292	-494.942293	-494.933727	-494.932782	-494.976734	29.681	
C	-0.1438898247	 1.5666711283	-0.0694967426	-0.402638
C	 0.2365562552	 0.0942248652	-0.1220772328	-0.027431
O	 1.3305957509	-0.1269995705	-1.0104927531	-0.27331
C	 2.2762350637	-0.9620145503	-0.377086591	 0.11988
O	 1.9523673526	-1.0164730168	 1.0041298609	-0.223143
C	 0.7342448331	-0.4347228463	 1.2186488725	 0.415702
O	 0.2121352562	-0.375614374	 2.288056221	-0.319127
C	 2.1855098952	-2.3749056477	-0.9659824111	 0.152408
O	 3.0860349125	-2.9038898361	-1.5545317552	-0.215967
H	 0.7139891407	 2.1757163103	 0.2272128935	 0.137109
H	-0.4912848117	 1.9016621842	-1.0493668127	 0.139256
H	-0.9455209363	 1.7053296578	 0.6605768449	 0.150496
H	-0.6299361731	-0.5082821231	-0.4303366548	 0.125551
H	 3.2862514818	-0.5617424563	-0.5076224116	 0.129468
H	 1.1933526039	-2.8571037046	-0.8170074679	 0.091745
51.5276	70.3572	104.0184	210.6492	235.5497	292.7559	364.3843	382.8552	452.4772	503.9438	626.756	715.981	778.8372	830.2706	885.303	981.6586	1011.1555	1061.0814	1083.4244	1093.3942	1112.9945	1131.2052	1214.6071	1311.7925	1329.3624	1346.3609	1370.6543	1404.2711	1412.4056	1483.2136	1495.9286	1853.0594	1907.0358	2888.531	3008.0124	3053.3402	3080.5138	3134.3901	3138.6243
CC1OC(OC1=O)C=O	C[C@H]1O[C@@H](OC1=O)C=O	
InChI=1S/C5H6O4/c1-3-5(7)9-4(2-6)8-3/h2-4H,1H3	InChI=1S/C5H6O4/c1-3-5(7)9-4(2-6)8-3/h2-4H,1H3/t3-,4+/m1/s1
