18
gdb 6440	3.88192	1.45763	1.28332	1.646	74.3	-0.2501	0.0338	0.2839	1026.6932	0.150968	-347.763768	-347.755039	-347.754095	-347.796806	32.654	
C	 0.367415478	 1.6321214953	 0.0326377849	-0.40097
C	-0.0106290844	 0.1690061057	-0.0585948072	 0.17177
C	 0.5069285916	-0.6657998223	-1.247198205	-0.342225
C	 1.1012097664	-1.6053693734	-0.1567603356	 0.231899
C	 2.609078106	-1.8298985793	-0.180577059	-0.435491
O	 0.7275434496	-0.6538209838	 0.8819129032	-0.322877
C	 0.3783321432	-2.8686352714	-0.0071894841	 0.344411
C	-0.2112064175	-3.91014295	 0.1073184558	-0.494343
H	 1.4378989184	 1.7704954054	-0.1478613431	 0.11769
H	-0.1914208311	 2.2180987976	-0.7054959292	 0.116772
H	 0.1335472051	 2.0251521454	 1.0271313152	 0.129677
H	-1.0905531644	 0.0459473416	 0.1026242106	 0.080077
H	-0.2400131699	-1.1059719106	-1.9067958563	 0.117589
H	 1.2767126954	-0.1652526935	-1.8394637405	 0.107155
H	 3.1247711129	-0.8723706969	-0.2912317867	 0.117271
H	 2.9342065454	-2.2981514834	 0.7524901815	 0.136895
H	 2.8853676799	-2.4857946521	-1.0118306421	 0.126379
H	-0.7346475848	-4.8278344642	 0.2163651077	 0.198321
55.755	157.5954	173.749	217.1696	230.4098	322.0484	338.2908	364.8238	425.8035	525.1774	567.5859	618.9687	625.7496	659.8172	761.1981	862.3145	886.4003	921.7197	927.3656	937.229	1007.0199	1068.6168	1113.3313	1137.9178	1191.0694	1207.021	1256.2738	1261.9982	1316.3731	1389.6122	1400.0652	1411.2396	1477.3458	1482.3471	1486.4841	1490.2452	1496.7585	2230.0964	3004.6893	3032.6187	3042.2424	3074.7858	3105.0467	3112.1059	3120.6564	3126.298	3145.1187	3500.6396
CC1CC(C)(O1)C#C	C[C@H]1C[C@@](C)(O1)C#C	
InChI=1S/C7H10O/c1-4-7(3)5-6(2)8-7/h1,6H,5H2,2-3H3	InChI=1S/C7H10O/c1-4-7(3)5-6(2)8-7/h1,6H,5H2,2-3H3/t6-,7-/m0/s1
