18
gdb 40216	2.94631	1.51162	1.15691	2.9299	72.87	-0.2459	0.0121	0.258	1070.8149	0.148874	-439.064124	-439.056244	-439.0553	-439.096999	29.79	
C	 0.1225722628	 1.4815150196	-0.0049834842	-0.234914
O	 1.2317207359	 0.58251412	-0.00757184	-0.270462
C	-0.0912426468	 0.0260768351	 0.0233868383	 0.402465
C	-0.4692332057	-0.671408227	 1.3090250196	-0.293027
C	 0.251316356	-2.0161042545	 1.478142633	-0.154497
N	-0.1152735696	-3.0928866775	 0.5722321873	-0.239317
C	-0.1470045132	-2.989336955	-0.6820851644	 0.117298
O	 0.0583380261	-1.9277186889	-1.5174770266	-0.228159
C	-0.5264694781	-0.6498075763	-1.2549914854	-0.132747
H	-0.017983543	 2.0548954141	 0.9103108968	 0.116695
H	-0.0286363923	 2.0417662662	-0.9272143792	 0.114582
H	-0.2083993919	-0.0293994934	 2.1567886498	 0.107295
H	-1.5548291183	-0.8283806017	 1.336266584	 0.107322
H	 1.3322798093	-1.8398592248	 1.3894295426	 0.132859
H	 0.0746154872	-2.3773205072	 2.4959877584	 0.106972
H	-0.3053072381	-3.8869000225	-1.2820780895	 0.117906
H	-1.6208987036	-0.7535311203	-1.2506992559	 0.108742
H	-0.2362114066	-0.0394565558	-2.1123430847	 0.120987
51.7245	142.4581	176.6457	281.36	317.5642	352.9871	412.1912	444.7511	524.1999	573.6408	708.8653	774.2964	834.3123	854.7804	894.6853	948.7547	967.6751	973.6319	979.5793	1013.3524	1042.9081	1095.5257	1129.3973	1152.5605	1172.363	1201.3516	1275.1108	1281.4974	1329.7892	1359.1855	1378.7176	1398.416	1428.0417	1445.9018	1470.1212	1479.4531	1495.9009	1531.5407	1756.0185	3008.5828	3018.7363	3031.9553	3070.5662	3079.6919	3083.159	3113.1224	3125.745	3165.3964
C1OC11CCN=COC1	C1O[C@]21CCN=COC2	
InChI=1S/C6H9NO2/c1-2-7-5-8-3-6(1)4-9-6/h5H,1-4H2	InChI=1S/C6H9NO2/c1-2-7-5-8-3-6(1)4-9-6/h5H,1-4H2/t6-/m1/s1
