17
gdb 132731	2.29667	1.76008	1.0037	1.6744	79.99	-0.2018	0.0086	0.2104	1130.7937	0.13666	-426.049368	-426.041268	-426.040324	-426.081544	31.822	
C	 0.0012910797	 1.5286616765	 0.0309368591	-0.514634
C	 0.0045353574	 0.0221598451	 0.0181097056	 0.267906
C	 0.0562852929	-0.6591843985	-1.2113724608	 0.087537
N	 0.1555451507	 0.0107778549	-2.4324176662	-0.595297
C	 0.066489351	-2.0569240283	-1.187907007	 0.258405
F	 0.1050455192	-2.6909417528	-2.3792252309	-0.101407
C	 0.0322518241	-2.7912962222	-0.0190329667	-0.252362
C	-0.0193509616	-2.1100620747	 1.1954747071	-0.122096
C	-0.0341129754	-0.7186066006	 1.2008431167	-0.201103
H	 0.8626187414	 1.9357119969	-0.5124102522	 0.137382
H	-0.8995618341	 1.94234871	-0.4441590449	 0.120834
H	 0.0324449191	 1.9122964862	 1.053239634	 0.127793
H	-0.3321205268	 0.8938222586	-2.4722490358	 0.247737
H	-0.0629742462	-0.5745797055	-3.2258706237	 0.252853
H	 0.0419525319	-3.8734085203	-0.0760150645	 0.105349
H	-0.0460460992	-2.6631798304	 2.1270649057	 0.094903
H	-0.072973984	-0.185566405	 2.1458625544	 0.0862
144.4733	173.9945	241.1616	294.0324	297.8894	311.5147	340.0734	481.3268	500.9827	530.3673	557.0388	564.8215	651.7454	693.7792	741.1461	779.9031	847.1248	890.7558	925.9464	929.8218	1018.3362	1059.023	1095.8886	1164.4445	1193.262	1254.8651	1282.4414	1317.4618	1365.7392	1413.2011	1483.2718	1486.2376	1513.429	1524.569	1624.2863	1639.37	1668.7015	3006.4338	3059.0603	3118.5717	3170.618	3193.444	3208.6192	3563.503	3664.1477
CC1=C(N)C(F)=CC=C1	Cc1c(N)c(F)ccc1	
InChI=1S/C7H8FN/c1-5-3-2-4-6(8)7(5)9/h2-4H,9H2,1H3	InChI=1S/C7H8FN/c1-5-3-2-4-6(8)7(5)9/h2-4H,9H2,1H3
