17
gdb 67943	2.46145	1.72261	1.26428	3.4256	73.52	-0.2305	-0.0228	0.2077	1013.7362	0.135342	-421.842452	-421.834682	-421.833738	-421.874772	30.484	
O	-0.098654279	 1.3054109235	-0.3375737696	-0.483632
C	 0.0262667022	-0.0410816954	 0.0576940362	 0.399763
C	 0.4756407029	-1.0108660506	-1.0884640357	-0.413723
C	-0.9407529401	-1.6136787718	-1.0870706057	 0.413921
O	-1.5015670071	-2.4125563003	-1.7763186344	-0.295625
C	-1.365902021	-0.7609843979	 0.1299959856	-0.216037
C	-1.3086731757	-1.5113126091	 1.4321655836	-0.082724
C	-0.1915072928	-1.2552964593	 2.1168162657	-0.058635
C	 0.706116304	-0.2553871754	 1.4299784933	-0.341406
H	 0.7850350754	 1.6640024632	-0.4736833263	 0.280256
H	 0.7285761342	-0.5069438922	-2.0258240735	 0.131226
H	 1.266672638	-1.7236670215	-0.8369299393	 0.126873
H	-2.2636137834	-0.1529926263	-0.0158149362	 0.109241
H	-2.0935039843	-2.1926290108	 1.739106821	 0.110156
H	 0.0560257831	-1.6921700292	 3.0782720033	 0.10134
H	 1.7390047551	-0.6138629181	 1.3305885155	 0.103942
H	 0.7484106787	 0.6922319311	 1.9830876164	 0.115063
64.1451	160.2397	273.3622	295.9782	336.5138	375.5047	417.4501	445.7691	530.8264	591.2245	607.1115	733.1038	758.1038	779.0403	832.1775	896.5296	923.3323	960.4898	970.3241	1000.5522	1017.714	1064.0692	1069.4992	1105.1089	1127.9916	1167.6974	1189.0578	1215.221	1230.2548	1263.6151	1298.5475	1350.918	1383.5606	1418.8192	1479.9431	1670.6142	1893.2101	3014.9378	3047.1004	3055.2572	3075.9921	3115.1399	3186.0776	3212.5081	3803.5176
OC12CC(=O)C1C=CC2	O[C@]12CC(=O)[C@H]1C=CC2	
InChI=1S/C7H8O2/c8-6-4-7(9)3-1-2-5(6)7/h1-2,5,9H,3-4H2	InChI=1S/C7H8O2/c8-6-4-7(9)3-1-2-5(6)7/h1-2,5,9H,3-4H2/t5-,7-/m1/s1
