17
gdb 12664	3.36747	1.86047	1.37487	3.4788	65.24	-0.2572	0.0268	0.284	910.6747	0.142848	-401.017452	-401.009505	-401.008561	-401.049642	29.487	
C	 0.470206963	 1.5926704606	 0.0825561206	-0.391166
C	 0.0425741623	 0.118102884	-0.0049508784	-0.107769
C	 0.7155733322	-0.6579685751	-1.1517711779	 0.092207
O	 0.9745307863	 0.1713252567	-2.2644360234	-0.425802
C	 1.9845479619	-1.199224597	-0.4649022477	-0.122148
O	 1.6107055403	-1.4112227946	 0.9011926234	-0.238497
C	 0.5074117936	-0.657251147	 1.2134575368	 0.414333
N	-0.0240928842	-0.6147141456	 2.356381701	-0.54247
H	 1.5547192608	 1.6976688121	 0.184668612	 0.119778
H	 0.1647058329	 2.1299042035	-0.8174106351	 0.133316
H	 0.0012878303	 2.0511627332	 0.9560903306	 0.137309
H	-1.0461591045	 0.0688473158	-0.0674714672	 0.106659
H	 0.0732028389	-1.5036716646	-1.4366631379	 0.084242
H	 1.2379608871	-0.3832169308	-3.0048736237	 0.290813
H	 2.3419671262	-2.1500505007	-0.8695204257	 0.110953
H	 2.7902135915	-0.4572557662	-0.5289282703	 0.117926
H	 0.4917578513	-1.2006141645	 3.0155785228	 0.220316
83.135	176.5036	225.0903	237.8068	253.0615	263.8858	336.7484	462.0034	526.5372	623.1429	668.1973	682.244	795.1018	847.6501	894.6268	965.9899	1002.8102	1012.7652	1063.1186	1089.9426	1112.3235	1122.2043	1157.9802	1218.5292	1250.5905	1275.1178	1292.0674	1348.2817	1366.6616	1376.5417	1402.7752	1445.2906	1495.4274	1497.5651	1523.3981	1780.582	2995.3596	3031.355	3050.4296	3091.9069	3095.5877	3123.0073	3141.2839	3469.1979	3829.3027
CC1C(O)COC1=N	C[C@H]1[C@@H](O)CO[C]1[NH]	
InChI=1S/C5H9NO2/c1-3-4(7)2-8-5(3)6/h3-4,6-7H,2H2,1H3	InChI=1S/C5H9NO2/c1-3-4(7)2-8-5(3)6/h3-4,6-7H,2H2,1H3/t3-,4-/m0/s1
