12
gdb 129170	3.17231	1.36223	0.95451	1.6843	73.55	-0.2145	-0.0844	0.1301	1103.6685	0.078575	-464.999267	-464.991677	-464.990733	-465.03164	27.697	
N	-0.244947507	 1.236554096	 0.0025172202	-0.566231
C	 0.0192308365	-0.0036793439	-0.0474668787	 0.441252
N	 1.234104556	-0.6941163642	-0.0111460643	-0.398898
C	 1.1026702685	-2.0827003987	 0.0667559801	 0.377608
C	-0.3575532779	-2.2507546245	 0.0386150687	 0.262005
N	-0.9707214948	-0.9893996862	-0.1469548114	-0.39776
N	-0.9604873159	-3.3886960444	-0.0687529937	 0.100568
N	-1.4715034226	-4.4095735708	-0.0909415385	-0.223138
O	 1.9897980836	-2.8991655694	 0.1210531715	-0.368311
H	 0.5963445895	 1.8019206099	 0.0814067413	 0.221019
H	 2.13400309	-0.2426788798	-0.0066137932	 0.275206
H	-1.8561899061	-0.7675834641	 0.2844883279	 0.27668
100.084	143.8644	155.1873	301.139	357.6616	426.8501	457.9978	469.257	494.9711	555.5777	645.8468	682.284	713.435	733.8257	761.6167	816.1988	990.815	1091.0253	1141.9832	1292.0775	1318.6447	1347.5673	1404.0268	1484.8035	1774.2782	1840.0902	2176.7173	3529.8964	3616.3922	3666.3466
N=C1NC2=C(N1)N=NO2	[NH][C]1NC(=O)[C](N1)[N][N]	
InChI=1S/C3H3N5O/c4-3-5-1-2(6-3)9-8-7-1/h(H3,4,5,6)	InChI=1S/C3H3N5O/c4-3-6-1(8-5)2(9)7-3/h(H3,4,6,7,8,9)
