17
gdb 52924	4.56002	0.90897	0.88053	1.8852	84.73	-0.2187	0.0336	0.2522	1388.1211	0.135373	-384.599522	-384.591365	-384.59042	-384.634251	30.011	
C	 0.0442724204	 1.503104527	 0.0115971682	-0.517474
C	 0.0235409537	 0.048815696	 0.0045336302	 0.395323
C	 0.0064962267	-1.157842043	-0.0058085327	-0.520179
C	-0.0335510776	-2.5665715655	-0.0112719218	 0.321499
C	 0.835815331	-3.6607533114	 0.647387192	-0.170774
C	-0.3947980749	-4.3344568323	 1.2521846529	-0.237519
C	-1.17331885	-3.6736529466	 0.0892087226	 0.00541
O	-0.6575626078	-4.3413687158	-1.0949672832	-0.288433
C	 0.5660996128	-3.6556024897	-0.8592905068	 0.030367
H	 0.6621895661	 1.8932592088	 0.8283716496	 0.147838
H	 0.4421701245	 1.9034155846	-0.9278536849	 0.149279
H	-0.9657501191	 1.9085142863	 0.1400028371	 0.150985
H	 1.8255699755	-3.5371731267	 1.0669269443	 0.103521
H	-0.4331577638	-5.4272198729	 1.2978222782	 0.103902
H	-0.6558983501	-3.8947595942	 2.2175840964	 0.111285
H	-2.2513512748	-3.5328912336	 0.0781960773	 0.097025
H	 1.3173507674	-3.6250820011	-1.6368599293	 0.117944
14.4682	93.7546	100.8039	257.7889	298.3493	399.593	455.2016	497.5611	515.7553	567.3843	752.1562	768.0761	824.191	846.0162	885.7896	925.3226	954.5595	974.7431	1007.255	1012.5928	1030.6514	1052.4881	1054.847	1066.1999	1097.1582	1139.2019	1159.1936	1221.718	1251.2897	1277.7169	1322.4725	1409.9869	1452.5413	1474.8073	1478.679	1487.6215	2355.9292	3022.5883	3051.7285	3081.5508	3084.3581	3118.0435	3155.8297	3205.8214	3218.2234
CC#CC12C3CC1OC23	CC#C[C@@]12[C@H]3C[C@@H]1O[C@@H]23	
InChI=1S/C8H8O/c1-2-3-8-5-4-6(8)9-7(5)8/h5-7H,4H2,1H3	InChI=1S/C8H8O/c1-2-3-8-5-4-6(8)9-7(5)8/h5-7H,4H2,1H3/t5-,6-,7+,8+/m0/s1
