18
gdb 54781	3.50454	1.34407	1.19878	3.7164	77.28	-0.2274	-0.0068	0.2206	1083.4779	0.147667	-401.92687	-401.918923	-401.917979	-401.959728	30.38	
C	-0.0476700772	 1.4740673961	-0.119686164	-0.486981
C	 0.0145573373	-0.0442756071	-0.0392775172	 0.362254
O	 1.00641197	-0.6810031281	-0.3492528895	-0.37085
N	-1.1064174607	-0.6466067024	 0.4763474703	-0.065879
C	-2.5586857237	-0.3493148877	 0.1647053329	-0.089762
C	-2.4406720842	-1.4352953475	-0.9583317386	-0.206602
C	-1.5111881664	-2.0588374792	 0.1413673528	-0.062862
C	-2.5337114859	-2.3071667777	 1.2614857109	-0.070508
C	-3.2310849023	-1.168404419	 1.2792429072	-0.067662
H	 0.9706788207	 1.8634440252	-0.1041691346	 0.147632
H	-0.5143086425	 1.7777494463	-1.0639535519	 0.136514
H	-0.6257007232	 1.908874533	 0.6995247858	 0.131125
H	-2.8557083751	 0.6819408695	-0.0142546166	 0.085938
H	-3.3452507561	-1.9815395491	-1.2342511721	 0.104015
H	-1.8858587524	-1.0914693146	-1.8359271405	 0.114784
H	-0.7156325988	-2.7666105347	-0.0701798087	 0.108989
H	-2.6195184047	-3.1963634639	 1.8677081281	 0.11593
H	-4.0538184048	-0.8514183691	 1.9024748956	 0.113925
91.2236	100.8307	119.9364	181.631	350.1537	456.8091	497.6843	549.8921	580.515	625.9694	649.7592	758.3272	765.2627	833.0536	836.3114	887.7343	914.7959	916.6316	940.8641	995.0026	1022.9746	1036.8821	1049.7458	1074.3449	1082.7896	1145.4649	1150.3507	1221.7004	1237.2851	1244.5876	1264.0536	1317.2636	1369.5862	1400.1924	1472.4926	1483.4498	1493.2037	1618.1407	1759.2686	3042.0596	3056.7075	3110.9431	3129.9046	3148.7093	3155.4493	3182.0392	3235.0989	3261.1958
CC(=O)N1C2CC1C=C2	CC(=O)N1[C@H]2C[C@@H]1C=C2	
InChI=1S/C7H9NO/c1-5(9)8-6-2-3-7(8)4-6/h2-3,6-7H,4H2,1H3	InChI=1S/C7H9NO/c1-5(9)8-6-2-3-7(8)4-6/h2-3,6-7H,4H2,1H3/t6-,7+
