21
gdb 115077	2.94532	1.14082	0.87454	1.863	87.73	-0.2085	-0.0179	0.1906	1349.1645	0.183909	-387.099199	-387.0902	-387.089255	-387.133515	33.978	
O	 0.0119231261	 1.4611592334	-0.0519712087	-0.422702
C	 0.0425970636	 0.0412793022	-0.0289650251	-0.083505
C	-1.3965618637	-0.4800001068	 0.0200840465	 0.009577
C	-2.1658414455	-0.0360566278	-1.2395969168	-0.258892
C	-3.6637414852	-0.1131944315	-1.1410226091	-0.081428
C	-4.3885117908	-1.06716621	-0.5399854414	-0.065751
C	-3.932819601	-2.2844529812	 0.1263014986	-0.068963
C	-2.6927010493	-2.6943002869	 0.4322625091	-0.074053
C	-1.3746677096	-1.9989805239	 0.2373589644	-0.264407
H	 0.91142166	 1.7812151613	-0.1636141581	 0.28689
H	 0.5478237658	-0.3594502816	-0.9244532395	 0.081477
H	 0.5965378712	-0.3234255718	 0.8506151184	 0.083097
H	-1.8756205928	-0.0119195164	 0.8889472775	 0.093578
H	-1.8797574787	 0.9969695099	-1.4569087797	 0.121823
H	-1.8198989097	-0.6306566321	-2.0999706807	 0.103138
H	-4.2075343242	 0.702715565	-1.6119285064	 0.085997
H	-5.4704031003	-0.9565675539	-0.5728602695	 0.079648
H	-4.7382455499	-2.9656860633	 0.3944994819	 0.079626
H	-2.6060550955	-3.6729609588	 0.901364093	 0.08519
H	-0.8394253181	-2.481353997	-0.5965051322	 0.107881
H	-0.7563273224	-2.2119934892	 1.1213548879	 0.101781
42.1926	102.1293	131.2746	221.9549	248.5543	322.4906	346.0494	370.7513	415.0983	465.9103	525.8936	617.4084	697.3114	782.2159	828.2545	854.4323	884.8952	908.844	917.028	966.6926	1000.7927	1015.2595	1051.5993	1065.8053	1084.389	1091.4521	1137.0345	1179.8979	1220.9697	1256.6897	1272.0305	1281.9944	1299.1432	1320.3034	1348.7035	1383.2285	1411.1255	1422.2649	1455.1503	1462.2259	1466.0328	1480.5716	1518.3214	1686.6835	1715.8168	2953.3785	2977.6992	2985.9184	2987.4293	3012.0725	3043.4868	3083.9197	3123.8822	3135.3141	3149.3324	3162.1038	3835.3967
OCC1CC=CC=CC1	OC[C@H]1CC=CC=CC1	
InChI=1S/C8H12O/c9-7-8-5-3-1-2-4-6-8/h1-4,8-9H,5-7H2	InChI=1S/C8H12O/c9-7-8-5-3-1-2-4-6-8/h1-4,8-9H,5-7H2
