19
gdb 5950	4.07866	1.14136	1.11504	2.6831	70.13	-0.2555	0.0294	0.2848	1151.6295	0.162185	-402.196698	-402.186743	-402.185799	-402.231337	35.225	
C	-0.018684967	 1.5883421825	 0.0681340291	-0.418855
C	 0.0442671812	 0.0581271184	 0.0788917452	 0.345035
C	 0.7554560741	-0.48699469	 1.3209249322	-0.418747
C	-1.3713692444	-0.5319296581	-0.0239133683	-0.102794
O	-2.108637187	-0.1199057186	 1.1147802095	-0.421467
O	 0.6534457301	-0.4483839712	-1.1362890207	-0.233152
C	 1.9304076558	-0.1399634668	-1.4153637081	 0.120444
N	 2.4636490398	-0.5806523062	-2.4740192597	-0.44725
H	 0.9675783561	 2.0413211535	 0.2020044545	 0.111697
H	-0.4374939488	 1.941922669	-0.8785986585	 0.127182
H	-0.663822979	 1.9279837196	 0.8814702168	 0.144741
H	 0.1553247056	-0.2651390094	 2.2061890939	 0.144714
H	 0.8721653116	-1.5719027347	 1.2429848646	 0.127181
H	 1.7443454203	-0.0405471785	 1.4573921501	 0.111673
H	-1.8284326449	-0.176562686	-0.9582935334	 0.101134
H	-1.2876546396	-1.6263172571	-0.0835698002	 0.101159
H	-2.9936771225	-0.4884450989	 1.0505752904	 0.295722
H	 2.420662795	 0.4949204689	-0.6691154014	 0.087369
H	 3.4266545238	-0.2557478565	-2.5326581359	 0.224214
74.8992	94.6218	123.9156	160.3974	210.7248	227.0756	238.3993	288.9596	340.6161	353.2225	398.9973	451.8879	475.4519	641.459	773.0469	818.6736	900.8628	918.1627	964.4693	990.4546	1041.1777	1046.2642	1081.5456	1121.4858	1171.548	1199.4364	1239.8594	1275.8176	1300.3944	1317.9651	1394.1154	1402.9048	1427.358	1454.2137	1480.8054	1486.3279	1495.9969	1508.4813	1525.0695	1735.8164	2993.5079	3033.3099	3044.7765	3045.1899	3057.0736	3115.1901	3118.6607	3133.8655	3137.9561	3512.9914	3845.7584
CC(C)(CO)OC=N	CC(C)(CO)O[CH][NH]	
InChI=1S/C5H11NO2/c1-5(2,3-7)8-4-6/h4,6-7H,3H2,1-2H3	InChI=1S/C5H11NO2/c1-5(2,3-7)8-4-6/h4,6-7H,3H2,1-2H3
