17
gdb 7812	3.22414	1.74906	1.22008	2.9537	64.67	-0.2184	-0.0181	0.2004	966.0194	0.143446	-401.013582	-401.00596	-401.005016	-401.045533	28.867	
O	-0.1069939703	 1.4479934794	 0.0453990409	-0.424474
C	 0.0414088039	 0.0367186285	 0.0065869394	 0.099475
C	 0.7810596047	-0.5089533552	 1.2398735804	-0.194865
N	 0.8281153815	-1.9686729029	 1.2914234342	-0.285869
C	-0.5076517042	-2.5750651736	 1.2617227235	-0.258378
C	-1.3743302725	-2.0715796856	 0.1052618428	 0.368092
O	-2.0036086446	-2.8137928401	-0.6115175728	-0.30354
C	-1.3699731171	-0.5578954439	-0.0716606014	-0.292466
H	 0.7688107613	 1.8455457171	-0.0004091878	 0.285038
H	 0.6014152296	-0.2671410606	-0.895153125	 0.069989
H	 1.8074813264	-0.1235456667	 1.2659523688	 0.094928
H	 0.2742990515	-0.1405021405	 2.1418929825	 0.114166
H	 1.3734272638	-2.3221155371	 0.510487193	 0.224301
H	-0.4255173431	-3.6622061628	 1.1952197018	 0.126276
H	-1.0152928915	-2.3334496856	 2.2072573754	 0.12254
H	-1.9530581104	-0.1206644252	 0.751929602	 0.128617
H	-1.865724109	-0.297789805	-1.0091151777	 0.126171
90.2389	135.7429	269.2329	278.3151	320.0784	392.6053	402.2748	451.9648	497.2403	524.0634	651.4537	757.8534	832.3162	852.2249	910.6084	919.2579	980.7594	1070.8225	1090.9477	1095.4604	1129.7211	1144.0774	1218.1599	1237.1404	1276.7108	1296.944	1320.0674	1331.0969	1346.5135	1390.5795	1428.94	1456.7942	1466.9289	1484.1952	1490.9077	1818.4797	2947.7073	3006.0498	3017.3428	3021.8503	3065.5924	3111.6752	3115.5209	3506.9413	3811.9459
OC1CNCC(=O)C1	O[C@H]1CNCC(=O)C1	
InChI=1S/C5H9NO2/c7-4-1-5(8)3-6-2-4/h4,6-7H,1-3H2	InChI=1S/C5H9NO2/c7-4-1-5(8)3-6-2-4/h4,6-7H,1-3H2/t4-/m1/s1
