16
gdb 132856	3.02133	1.34828	0.93767	3.5614	79.62	-0.1905	-0.0289	0.1615	1191.0195	0.125325	-442.082082	-442.074151	-442.073207	-442.114486	30.334	
C	-0.0175106818	 1.543542591	 0.0151525949	-0.492103
C	-0.0012223063	 0.0398646011	-0.0082491191	 0.236921
C	-0.0316784863	-0.673693323	-1.1628500122	-0.050991
N	-0.0164591932	-2.0417956268	-1.1626514407	-0.360306
C	 0.0302600682	-2.8533744604	-0.0305659227	 0.290743
N	 0.0400551522	-4.1299701767	-0.1656799059	-0.576569
C	 0.0622151879	-2.065133396	 1.1925535866	 0.196368
F	 0.1078055413	-2.7800997754	 2.320772158	-0.07659
C	 0.0479598615	-0.7157445615	 1.2155897357	-0.277803
H	 0.8746285157	 1.9499051037	 0.5067281535	 0.131127
H	-0.0532802184	 1.9532525752	-0.9980534967	 0.123537
H	-0.8867044536	 1.9301119264	 0.5608669425	 0.13116
H	-0.069365798	-0.2091431018	-2.1404490001	 0.126367
H	-0.0396318317	-2.5514299985	-2.0340333501	 0.263993
H	 0.0755143944	-4.570068985	 0.7511929318	 0.220241
H	 0.0741808181	-0.2046474723	 2.1728431944	 0.113905
111.4574	147.622	209.793	280.2734	317.8444	324.0479	412.131	460.0441	503.2835	569.2833	580.1335	653.2396	705.4047	748.9211	797.0763	817.5462	858.8528	923.0973	974.2513	1008.0299	1068.0555	1085.6513	1175.5052	1228.6613	1289.4379	1302.9999	1390.8753	1421.3718	1446.6152	1473.5446	1479.0461	1501.8972	1615.2035	1678.7068	1722.4333	3021.3476	3069.1725	3109.445	3183.6062	3208.6264	3519.3797	3617.2786
CC1=CNC(=N)C(F)=C1	CC1=CC(=C(NC1)[NH])F	
InChI=1S/C6H7FN2/c1-4-2-5(7)6(8)9-3-4/h2-3H,1H3,(H2,8,9)	InChI=1S/C6H8FN2/c1-4-2-5(7)6(8)9-3-4/h2,8-9H,3H2,1H3
