23
gdb 60271	3.77596	0.86426	0.74601	1.2194	82.02	-0.2523	0.0851	0.3374	1588.4573	0.205241	-425.434602	-425.4246	-425.423656	-425.470883	36.161	
C	-0.1685580879	 1.5576903173	 0.2217364431	-0.380369
C	-0.0692305466	 0.0421272981	-0.0048623899	 0.03637
C	-1.4688413225	-0.5819098448	-0.0999644506	-0.390173
C	 0.7628932908	-0.3248797602	-1.2482120597	-0.193852
C	 2.2607293281	-0.0394300709	-1.1594105633	 0.107982
C	 3.0712156129	-0.6133794221	-2.3405291572	-0.12882
O	 4.0827571827	 0.3558051455	-2.5611313846	-0.233531
C	 3.4511609031	 1.5794918177	-2.2914703526	 0.024485
O	 2.5645728615	 1.3634562236	-1.2118360795	-0.265044
H	 0.8151869951	 2.0192409296	 0.3194849327	 0.138268
H	-0.676742741	 2.0406995101	-0.6218085963	 0.105707
H	-0.7488408431	 1.7741828973	 1.1251416085	 0.101755
H	 0.4350986645	-0.3998644055	 0.8674445861	 0.070327
H	-2.0140306816	-0.1885574179	-0.9665733486	 0.11156
H	-1.4193812474	-1.6712105854	-0.2045552444	 0.105848
H	-2.0622512653	-0.3564510314	 0.7920960648	 0.110482
H	 0.6530490456	-1.4031555709	-1.4344069828	 0.091754
H	 0.3597940046	 0.1858189488	-2.1335453989	 0.095778
H	 2.6531569622	-0.4260540627	-0.2081192642	 0.079873
H	 3.548294614	-1.5703950079	-2.1207246718	 0.11965
H	 2.4324297366	-0.7264343708	-3.2315838674	 0.09317
H	 4.2093434423	 2.316412712	-2.0081137684	 0.11696
H	 2.8903899914	 1.9351468305	-3.175730005	 0.08182
35.1163	44.0914	103.7918	161.3109	222.6451	248.2769	266.4181	288.7587	303.6299	411.7985	432.5056	479.604	678.3608	742.6103	811.7049	846.4475	894.7198	931.4053	959.786	967.3235	975.0278	988.8129	1040.3944	1062.0079	1104.3403	1118.0276	1140.6428	1170.7162	1187.3172	1197.1893	1210.5598	1258.3273	1274.7629	1292.5853	1340.8171	1365.468	1374.1344	1378.6003	1401.2811	1403.3193	1424.5746	1436.5138	1463.657	1486.5769	1493.9101	1504.8025	1509.663	1510.4439	1547.2623	2929.0591	2975.8464	2990.187	2999.6253	3003.9486	3022.161	3029.8874	3047.3388	3075.025	3084.9361	3090.6241	3098.1081	3111.2695	3140.1221
CC(C)CC1COCO1	CC(C)C[C@H]1COCO1	
InChI=1S/C7H14O2/c1-6(2)3-7-4-8-5-9-7/h6-7H,3-5H2,1-2H3	InChI=1S/C7H14O2/c1-6(2)3-7-4-8-5-9-7/h6-7H,3-5H2,1-2H3/t7-/m0/s1
