23
gdb 108860	2.70465	1.12928	0.91408	1.5886	89.3	-0.2246	0.0233	0.248	1413.5417	0.204365	-388.315839	-388.305692	-388.304748	-388.351117	37.591	
C	 0.0569517644	 1.5337071427	 0.3049881653	-0.375912
C	-0.0131687976	 0.0629047733	-0.1446830602	-0.295713
C	-1.4003278985	-0.506670256	-0.11898763	 0.324277
C	-2.1291416544	-0.9393329579	-1.1445538661	-0.237017
C	-3.4784400693	-1.4173226123	-0.6843830886	 0.099264
C	-3.8146528732	-2.8619222705	-1.0552707685	-0.386795
O	-3.4308419968	-1.2807096705	 0.7397313247	-0.292186
C	-2.2129987542	-0.6568768623	 1.1528392929	 0.044096
C	-1.551040328	-1.4980174982	 2.2454943346	-0.394241
H	 1.0848494589	 1.9047776671	 0.2508601362	 0.115132
H	-0.567702971	 2.1670620248	-0.3324952976	 0.122652
H	-0.2870276597	 1.6570492203	 1.3366272752	 0.122783
H	 0.3914326802	-0.0277924502	-1.1585783675	 0.104246
H	 0.6413521947	-0.5353644433	 0.5036524665	 0.108769
H	-1.8243226985	-0.9542723951	-2.1846421391	 0.093292
H	-4.2773077894	-0.7634021291	-1.0773549825	 0.073978
H	-3.0278914142	-3.5384448173	-0.7087945722	 0.115427
H	-4.7594156474	-3.1590017163	-0.5909270026	 0.123397
H	-3.9171910074	-2.9677746694	-2.1406369581	 0.107874
H	-2.4503656687	 0.3345869943	 1.5771896575	 0.074462
H	-1.2489276529	-2.472990137	 1.8512344986	 0.116527
H	-0.6677750144	-0.9922682737	 2.6498906372	 0.110176
H	-2.2558317724	-1.6596824334	 3.0657674543	 0.125511
63.8478	71.1357	123.4397	194.5512	213.5983	229.095	235.3426	265.2882	320.1474	409.273	420.1711	499.1012	550.425	640.6534	713.5328	780.6727	804.9604	848.8984	858.812	899.7649	948.6756	963.6461	1041.9246	1059.0901	1060.9358	1084.6304	1108.2961	1116.0225	1122.0096	1140.4106	1217.3384	1266.1529	1299.9602	1343.4578	1352.6438	1362.2323	1372.5287	1378.8767	1398.5069	1399.2035	1408.49	1478.9746	1485.1749	1489.0381	1493.3684	1496.0388	1498.8369	1507.9221	1726.6509	2934.9162	2940.3354	3016.0451	3035.1248	3036.2141	3038.7398	3063.9634	3107.8793	3109.095	3110.0002	3111.8733	3118.8295	3119.9607	3199.0753
CCC1=CC(C)OC1C	CCC1=C[C@@H](C)O[C@H]1C	
InChI=1S/C8H14O/c1-4-8-5-6(2)9-7(8)3/h5-7H,4H2,1-3H3	InChI=1S/C8H14O/c1-4-8-5-6(2)9-7(8)3/h5-7H,4H2,1-3H3/t6-,7+/m1/s1
