14
gdb 19278	3.41453	1.88948	1.39084	3.0758	57.27	-0.254	-0.0422	0.2117	861.5811	0.106052	-419.635464	-419.628232	-419.627288	-419.667277	26.286	
O	 0.100343872	 1.3626053645	 0.1507615953	-0.420744
C	 0.0820043196	-0.0158785306	-0.1712102186	-0.083234
C	-1.3376959228	-0.5692338194	-0.0680679921	-0.162779
C	-1.6012375026	-2.0857525819	-0.0787193772	 0.007741
O	-0.9262720729	-2.6268296656	 1.0537867804	-0.230723
C	-2.2498442989	-2.0777884873	 1.2568017038	-0.106301
C	-1.9862220874	-0.5738653991	 1.3494439791	 0.413209
O	-2.2079328527	 0.2862887568	 2.1507479275	-0.309295
H	-0.3021300241	 1.4659115407	 1.0214735865	 0.297812
H	 0.4556541497	-0.099103371	-1.1973929652	 0.113205
H	 0.7488746545	-0.601587209	 0.4769128999	 0.1093
H	-2.0072680256	-0.0245265148	-0.745335279	 0.116378
H	-1.8018473027	-2.7443934963	-0.9143520174	 0.124923
H	-2.9978364262	-2.7202747868	 1.7047587171	 0.130508
105.6407	109.2609	188.5311	232.1455	378.2514	406.1188	466.9162	541.7973	657.1277	741.7705	773.569	847.5978	854.0024	916.0098	967.0154	1007.9367	1034.3381	1061.4089	1074.0708	1122.1195	1164.0624	1209.6799	1224.8174	1256.4956	1314.9322	1344.1267	1385.2587	1432.2688	1516.4476	1889.4104	3008.5029	3049.0688	3072.2564	3197.6211	3211.1619	3789.8433
OCC1C2OC2C1=O	OC[C@H]1[C@H]2O[C@H]2C1=O	
InChI=1S/C5H6O3/c6-1-2-3(7)5-4(2)8-5/h2,4-6H,1H2	InChI=1S/C5H6O3/c6-1-2-3(7)5-4(2)8-5/h2,4-6H,1H2/t2-,4-,5+/m1/s1
