22
gdb 119683	4.37703	0.91188	0.89239	1.8636	85.7	-0.2187	0.0816	0.3002	1438.1384	0.194937	-367.14144	-367.132853	-367.131909	-367.175151	33.176	
C	 0.1014000612	 1.5808804212	-0.0019852923	-0.381707
C	 0.1963947681	 0.055293788	-0.0776794868	-0.156145
C	 0.5406128523	-0.5916863698	 1.2734586763	-0.326049
C	 0.6203463911	-2.0899829191	 1.2131471979	 0.360072
C	-0.4977875093	-3.1130244004	 1.0640441135	-0.226281
N	 0.4520676681	-4.1943766946	 1.541611973	-0.171884
C	 1.4405385226	-4.2460800311	 0.3905812297	-0.176645
C	 1.8947275586	-2.8449308435	 0.7574321709	-0.127722
C	 1.3179525296	-3.0544802115	 2.1290672868	-0.102316
H	 1.0492923298	 2.0204916507	 0.3285497993	 0.113402
H	-0.1448096715	 2.0151742579	-0.9758904293	 0.112111
H	-0.6719276325	 1.8954217678	 0.707769973	 0.114499
H	-0.7543312146	-0.3551633388	-0.4413936564	 0.099171
H	 0.9539864796	-0.2348242926	-0.8162048807	 0.099137
H	 1.4961749466	-0.1889393044	 1.6362870156	 0.095296
H	-0.2127710404	-0.2972075065	 2.0177873219	 0.097091
H	-1.2891287663	-2.9735008709	 1.8069552597	 0.102708
H	-0.94629396	-3.3027572704	 0.0812933368	 0.092689
H	 2.1983179365	-5.0060361496	 0.6001032339	 0.107277
H	 0.9883624712	-4.4376898185	-0.5898113328	 0.094735
H	 2.7938368329	-2.3058816068	 0.4835385886	 0.085578
H	 1.7072218163	-3.0062612071	 3.1364807514	 0.094984
72.8225	85.786	110.1346	235.3101	292.7285	307.6927	331.6724	453.778	476.4717	669.3514	718.3929	748.213	779.1264	834.3093	842.3929	858.8885	871.948	909.3693	915.788	940.4897	972.0152	1010.7851	1016.9417	1047.3554	1064.1491	1086.9336	1103.1256	1133.2808	1139.16	1160.9108	1191.4395	1221.8837	1237.2876	1267.5507	1287.7367	1312.3521	1316.6479	1342.1431	1385.7795	1411.7796	1428.6191	1479.7067	1492.2688	1498.0174	1502.2042	1509.5275	1521.5951	3002.417	3020.9361	3023.4548	3028.4964	3032.4675	3033.2702	3059.3531	3084.9872	3093.9229	3095.0594	3101.6604	3182.5253	3213.242
CCCC12CN3CC1C23	CCC[C@@]12CN3C[C@@H]1[C@@H]23	
InChI=1S/C8H13N/c1-2-3-8-5-9-4-6(8)7(8)9/h6-7H,2-5H2,1H3	InChI=1S/C8H13N/c1-2-3-8-5-9-4-6(8)7(8)9/h6-7H,2-5H2,1H3/t6-,7+,8-/m1/s1
