20
gdb 11136	6.12381	0.99354	0.9465	0.3662	72.84	-0.2411	0.0812	0.3223	1297.6876	0.175282	-386.107357	-386.098286	-386.097342	-386.141404	32.373	
C	-0.8575867485	 1.4916237396	 0.0770280288	-0.240357
O	-0.2924735017	 0.2757238232	 0.51192347	-0.239326
C	-0.9719028984	-0.8524708428	 0.0321015064	 0.169488
C	-0.7503912713	-1.2881381728	-1.4484702827	-0.279023
C	-0.5928845227	-2.7420452853	-0.9489923225	 0.130992
C	-0.3603356565	-2.1912916879	 0.4907823691	-0.291681
O	-1.8212217757	-3.419763908	-1.1106220529	-0.248018
C	-1.7924844097	-4.7471005677	-0.6395064485	-0.236041
H	-0.2722905802	 2.3009998447	 0.5201885315	 0.125186
H	-0.8271368552	 1.5928104135	-1.01849377	 0.107471
H	-1.9056483516	 1.5915465085	 0.4012423919	 0.104078
H	-2.044314575	-0.7860084239	 0.2675606078	 0.07191
H	-1.5507638791	-1.1241701914	-2.1722246742	 0.107062
H	 0.1923808478	-0.8872602853	-1.8304686311	 0.106033
H	 0.2243822242	-3.3360276516	-1.3816123685	 0.062542
H	 0.7035328211	-2.0623730015	 0.7078265754	 0.111548
H	-0.8395918787	-2.7176020599	 1.3188544569	 0.103009
H	-2.7774015325	-5.1807530389	-0.8294577215	 0.126143
H	-1.032264901	-5.3464514244	-1.1653552535	 0.1034
H	-1.5850943155	-4.8041792381	 0.4396385176	 0.105584
59.5629	106.0953	124.8245	175.0786	197.4032	251.4611	277.4761	331.9179	430.984	467.3181	476.7313	678.2587	802.076	829.8062	903.5795	929.3827	966.8037	1008.0212	1052.7133	1077.8477	1112.0326	1152.9375	1170.9314	1182.3474	1184.4173	1192.2666	1206.86	1239.3157	1260.8784	1268.25	1271.9797	1305.8882	1378.7714	1390.5733	1450.4931	1474.2252	1481.173	1484.9723	1487.3796	1489.7601	1509.6053	1510.2737	2971.8272	2972.6432	2992.9769	2996.8825	3019.5202	3020.3319	3063.2927	3069.2073	3112.3407	3112.7467	3124.5872	3130.9329
COC1CC(C1)OC	CO[C@H]1C[C@@H](C1)OC	
InChI=1S/C6H12O2/c1-7-5-3-6(4-5)8-2/h5-6H,3-4H2,1-2H3	InChI=1S/C6H12O2/c1-7-5-3-6(4-5)8-2/h5-6H,3-4H2,1-2H3/t5-,6-
