21
gdb 79635	2.49888	1.65698	1.24815	2.0992	82.67	-0.2119	0.0733	0.2853	1102.9227	0.183666	-383.218983	-383.210738	-383.209793	-383.251291	32.873	
C	 0.1383566979	 1.5776759384	 0.0283547189	-0.390111
C	 0.0303230685	 0.050128286	-0.0010305945	-0.014306
C	 0.6990206572	-0.6026665179	-1.2214693681	-0.054102
N	 2.1450653643	-0.3425828435	-1.3611747559	-0.312794
C	 1.6883153777	-1.6194164493	-0.7714774979	-0.071839
C	 1.6718607115	-1.6477889443	 0.7438783882	-0.027247
C	 0.6673225835	-0.6453813884	 1.2116641566	-0.042993
N	 2.0975058332	-0.4104330678	 1.4035717876	-0.070241
C	 2.5801982763	-0.5654062358	 2.7678197572	-0.315359
H	 1.1905694682	 1.868420033	 0.050120065	 0.153069
H	-0.3284988173	 2.0239082632	-0.8560294209	 0.102957
H	-0.3576767943	 1.991315964	 0.9127465788	 0.102725
H	-1.0281303236	-0.2423838017	-0.0210336967	 0.068476
H	 0.1092144597	-0.7334722626	-2.1246148843	 0.079276
H	 2.4146944455	-0.5077949407	-2.3286859742	 0.225769
H	 1.8578215327	-2.5451536274	-1.3111545208	 0.079912
H	 1.8228359271	-2.5919584408	 1.2596196301	 0.076363
H	 0.060273889	-0.8210410967	 2.0980201479	 0.074747
H	 2.0531228635	-1.3479665599	 3.3425164943	 0.090756
H	 3.6456131107	-0.8161570277	 2.7479793125	 0.122973
H	 2.4627735487	 0.3838967099	 3.3005771661	 0.12197
148.1851	165.2476	215.0534	220.0472	235.6217	292.7943	368.022	418.9843	522.4869	551.9548	676.6104	701.8354	795.674	813.4221	838.2872	856.2849	877.6154	901.0865	910.8806	957.1461	990.0272	1031.8557	1058.1209	1066.3878	1116.4275	1118.5026	1133.0699	1145.2205	1157.2784	1179.7743	1185.0969	1228.349	1248.2844	1317.4487	1325.3351	1334.242	1380.2148	1396.2952	1412.5612	1424.3839	1459.191	1492.7321	1493.6547	1495.9672	1503.3362	2942.0499	3017.8095	3036.0714	3062.3197	3095.1118	3101.3411	3121.168	3137.5295	3141.6772	3148.2652	3169.1121	3486.7214
CC1C2NC2C2C1N2C	C[C@H]1[C@H]2N[C@H]2[C@@H]2[C@H]1N2C	
InChI=1S/C7H12N2/c1-3-4-5(8-4)7-6(3)9(7)2/h3-8H,1-2H3	InChI=1S/C7H12N2/c1-3-4-5(8-4)7-6(3)9(7)2/h3-8H,1-2H3/t3-,4+,5+,6-,7+,9?/m0/s1
