14
gdb 11162	3.86961	1.57237	1.41265	4.2676	62.79	-0.2755	0.0012	0.2767	893.2892	0.109047	-378.754559	-378.747606	-378.746662	-378.786247	25.224	
N	-0.2466781069	 1.0297347151	 0.6336783419	-0.530829
C	-0.1230717172	-0.1291104179	 0.158688277	 0.429871
C	-1.1708975876	-0.865320927	-0.6512644919	-0.31284
C	-0.6926577286	-2.3346350258	-0.6071783748	-0.185974
C	 0.8348826854	-2.1450700389	-0.4236316519	-0.091184
O	 0.9882989788	-0.9214500022	 0.2941729656	-0.229931
C	-1.2866782326	-3.0799455784	 0.5031996949	 0.280101
N	-1.7541224107	-3.6760915311	 1.3757446506	-0.311063
H	 0.602355083	 1.3168083397	 1.1229416656	 0.231134
H	-2.1698368774	-0.7062373306	-0.2483535657	 0.165299
H	-1.1567926108	-0.4992368709	-1.6826970357	 0.144796
H	-0.9118984264	-2.8715961554	-1.5333179702	 0.139513
H	 1.3066007055	-2.9440455749	 0.1498836059	 0.147922
H	 1.3238809256	-2.0642563815	-1.4019809713	 0.123186
72.5918	134.4134	202.6067	264.5483	436.9336	452.6842	525.6807	566.7413	683.6073	771.6527	792.3953	854.3718	893.7906	907.2317	972.0151	998.1732	1045.3782	1095.2821	1112.6519	1190.476	1204.5875	1244.7599	1275.8606	1312.4799	1357.6806	1403.9833	1468.4639	1518.6969	1790.436	2361.0936	3034.9112	3067.898	3089.4172	3127.3806	3153.5381	3481.5619
N=C1CC(CO1)C#N	[NH][C]1C[C@@H](CO1)C#N	
InChI=1S/C5H6N2O/c6-2-4-1-5(7)8-3-4/h4,7H,1,3H2	InChI=1S/C5H6N2O/c6-2-4-1-5(7)8-3-4/h4,7H,1,3H2/t4-/m1/s1
