20
gdb 26222	3.2552	1.04782	0.96405	1.7865	82.59	-0.2236	0.0137	0.2373	1353.3312	0.170289	-403.206509	-403.196983	-403.196039	-403.241314	34.463	
C	 0.0816850569	 1.5560708549	 0.0060082166	-0.385356
C	 0.0705891912	 0.015169315	 0.0023712153	-0.095759
C	 0.7903837887	-0.5436868448	-1.2402542386	-0.385349
C	 0.6443579583	-0.5396346534	 1.2634010361	 0.354229
C	 0.1772035264	-1.3017886529	 2.2805739921	-0.227881
N	 1.1869445213	-1.5150318344	 3.2144266608	-0.299555
C	 2.2099324031	-0.8838087307	 2.7341509885	 0.377691
C	 3.5763285101	-0.7607056029	 3.3048379448	-0.489311
O	 1.9626674645	-0.2627539539	 1.5479956904	-0.219114
H	 1.1071326303	 1.934624051	 0.0583516934	 0.127556
H	-0.3776765016	 1.9451165738	-0.9080975298	 0.11273
H	-0.4693128349	 1.9528000407	 0.863558539	 0.120174
H	-0.9730838601	-0.3214010253	-0.0240631371	 0.091955
H	 1.8450933213	-0.2518282265	-1.2393291915	 0.127544
H	 0.7419407686	-1.6360904311	-1.2665541534	 0.120177
H	 0.3317678091	-0.1567090806	-2.1556145063	 0.112732
H	-0.81146399	-1.7132923605	 2.4104772973	 0.115997
H	 4.3288846787	-1.1701041642	 2.622653039	 0.142673
H	 3.8355449582	 0.2871531714	 3.4895956482	 0.142681
H	 3.6149393399	-1.3080313955	 4.2468817452	 0.156187
50.4515	107.274	122.2004	156.893	223.5411	242.4262	257.6733	313.5212	362.5569	418.0373	487.6026	616.8927	692.3253	714.8354	715.4056	851.3266	881.3007	928.9966	962.6155	966.1409	979.8124	1032.5983	1066.2534	1070.5179	1120.0062	1156.2952	1178.8661	1234.3524	1250.4209	1326.9223	1330.3625	1378.6986	1393.7208	1412.3758	1419.6773	1476.2603	1482.1641	1486.3237	1491.4654	1500.7546	1511.8104	1616.503	1646.7918	3035.177	3035.9794	3039.4055	3042.0103	3094.9576	3107.671	3112.2039	3113.6505	3117.109	3156.7685	3258.4734
CC(C)C1=CN=C(C)O1	CC(C)c1cnc(C)o1	
InChI=1S/C7H11NO/c1-5(2)7-4-8-6(3)9-7/h4-5H,1-3H3	InChI=1S/C7H11NO/c1-5(2)7-4-8-6(3)9-7/h4-5H,1-3H3
