18
gdb 105319	2.392	1.54567	1.17335	4.0378	76.18	-0.2328	0.0259	0.2587	1101.9312	0.148336	-398.080454	-398.071936	-398.070991	-398.113455	32.187	
C	 0.0128305819	 1.4003925437	 0.186244138	-0.338831
N	-0.1093400588	-0.0237402471	-0.1063860914	-0.332741
C	 0.6781233066	-0.4980376318	-1.2163795305	 0.180354
C	 2.2878876657	-0.492108697	-1.1612645006	-0.288463
C	 2.2428616177	-2.0159832992	-1.2385675508	-0.027293
N	 1.445589316	-2.4602321336	-0.0679975451	-0.348975
C	 0.7598456504	-2.0384033825	-1.3089241059	-0.100964
C	 0.2099286752	 0.0904142575	-2.4751442157	 0.2784
N	-0.1375456522	 0.5513870524	-3.4764333989	-0.34804
H	 1.045797995	 1.7350379213	 0.3807270744	 0.102411
H	-0.3770183347	 1.9841496989	-0.6535451463	 0.146462
H	-0.5934649246	 1.6337863634	 1.0651858135	 0.126866
H	 0.1512258235	-0.5865239873	 0.6972817767	 0.241293
H	 2.7343437124	-0.016435078	-2.035103441	 0.131012
H	 2.7127305007	-0.0793165415	-0.2437596334	 0.116494
H	 2.9599373726	-2.6778576029	-1.7055745301	 0.107019
H	 1.4412843662	-3.4791574352	-0.0562718906	 0.240015
H	 0.0699502562	-2.6886895511	-1.8304849722	 0.114979
118.7133	135.8975	170.6254	184.7396	196.7409	291.3558	388.2165	419.3001	493.8858	542.8926	568.2197	634.6542	755.5568	800.3257	822.255	846.2173	903.4338	931.5766	954.9059	977.8698	1017.3584	1054.9706	1074.4855	1110.0538	1124.7866	1150.7882	1162.2652	1183.2503	1227.7438	1278.5476	1299.69	1321.7391	1377.1019	1460.6184	1467.8495	1483.7452	1495.8979	1519.5014	2356.3092	2964.8656	3073.8543	3077.078	3118.0157	3144.7515	3200.704	3213.3541	3486.952	3528.327
CNC1(CC2NC12)C#N	CN[C@]1(C[C@H]2N[C@@H]12)C#N	
InChI=1S/C6H9N3/c1-8-6(3-7)2-4-5(6)9-4/h4-5,8-9H,2H2,1H3	InChI=1S/C6H9N3/c1-8-6(3-7)2-4-5(6)9-4/h4-5,8-9H,2H2,1H3/t4-,5-,6-/m1/s1
