20
gdb 111426	1.93497	1.5255	0.98624	1.6133	74.8	-0.2256	0.0756	0.3012	1236.6585	0.170811	-440.218352	-440.209004	-440.20806	-440.252698	34.561	
O	 0.1601867551	 0.5066473354	-1.5200711635	-0.433663
C	-0.0495354345	 0.3280659493	-0.1203503571	-0.108199
C	-1.3982568624	-0.3464830801	 0.0350225557	 0.020821
C	-1.5007881092	-1.8262696959	-0.3585560568	-0.047774
N	-0.63212286	-2.5765033893	 0.5819000787	-0.339284
C	-2.0102700746	-2.1972545293	 0.9880181069	-0.082733
C	-1.9386001882	-0.7414695399	 1.4702221656	-0.013675
C	-1.1054067028	-0.4643365531	 2.7075728262	-0.098942
O	-1.0591017092	 0.9474394088	 2.8969466699	-0.423907
H	 1.0468269791	 0.856921238	-1.6436638663	 0.282994
H	 0.7334207065	-0.305860879	 0.3174968223	 0.098655
H	-0.0548101855	 1.2876886735	 0.4153178091	 0.097866
H	-2.1484463823	 0.2478484402	-0.4934966032	 0.082912
H	-1.7435775411	-2.2369211627	-1.3301990304	 0.093115
H	-0.6636517711	-3.555551644	 0.2998595338	 0.227225
H	-2.7272256791	-2.9549324536	 1.2809594109	 0.088767
H	-2.9377797033	-0.3209613425	 1.6141066596	 0.081716
H	-1.5737006757	-0.9624125364	 3.5732473047	 0.079937
H	-0.101545468	-0.8893954334	 2.584610584	 0.10862
H	-0.4595677038	 1.1315646738	 3.6258108298	 0.285549
88.965	97.1349	131.2554	181.4541	225.0731	239.0537	264.2665	292.0879	360.0249	484.2733	534.773	597.3715	685.6708	792.4749	832.8863	854.494	880.2475	916.1652	983.1788	1012.5979	1024.0349	1048.574	1066.3231	1067.9862	1097.3719	1107.8362	1128.0088	1142.6096	1181.0516	1214.8609	1234.2285	1257.713	1263.4197	1273.1758	1302.0716	1327.5924	1352.7403	1374.6099	1388.1779	1450.928	1458.6839	1525.7819	1529.9661	2960.4178	3000.5549	3035.0079	3042.0636	3067.6342	3083.1268	3180.3606	3200.2278	3475.7354	3829.7767	3831.2191
OCC1C2NC2C1CO	OC[C@H]1[C@H]2N[C@H]2[C@H]1CO	
InChI=1S/C6H11NO2/c8-1-3-4(2-9)6-5(3)7-6/h3-9H,1-2H2	InChI=1S/C6H11NO2/c8-1-3-4(2-9)6-5(3)7-6/h3-9H,1-2H2/t3-,4+,5-,6+
