23
gdb 38368	2.02923	2.00416	1.2766	1.1041	84.38	-0.2386	0.077	0.3156	1093.4807	0.209631	-388.279772	-388.271977	-388.271033	-388.311539	32.298	
C	-0.0483670854	 1.4960547641	 0.2729349073	-0.231
C	 1.4809898155	 1.6851593925	 0.0436223569	 0.032136
C	 1.6536499391	 0.1325872395	 0.0861075388	-0.261156
C	 0.1007159849	-0.0401677107	 0.0606292171	 0.032136
C	-0.5489747483	-0.5916082488	-1.2151534422	-0.222723
C	 0.0853399751	-0.1856330322	-2.5515616228	-0.067548
O	 0.2699949823	 1.2119361252	-2.7120629349	-0.249183
C	 1.5944055332	 1.7006652898	-2.5701531526	-0.067548
C	 1.8640436231	 2.4246300428	-1.2448875218	-0.222723
H	-0.3667584579	 1.7607478073	 1.2851310906	 0.084317
H	-0.6940227479	 2.005510952	-0.4446393365	 0.105578
H	 1.9783508875	 2.1920637588	 0.8758437918	 0.06455
H	 2.2170282485	-0.3261694432	-0.7307214858	 0.088534
H	 2.0973253596	-0.2131204927	 1.0231066937	 0.092505
H	-0.2765971635	-0.6265966231	 0.9036289146	 0.06455
H	-0.5490540367	-1.6905538137	-1.1923242959	 0.089343
H	-1.6035209242	-0.2860580867	-1.2136432439	 0.101713
H	 1.0447755712	-0.7048781265	-2.6872109453	 0.090716
H	-0.5714327508	-0.5212641983	-3.3649294112	 0.097016
H	 2.310289314	 0.876984027	-2.7027888162	 0.090716
H	 1.7698267559	 2.4052447991	-3.3937797644	 0.097015
H	 1.3344536646	 3.3863683414	-1.2498524552	 0.101713
H	 2.9363269402	 2.6661228364	-1.2352726323	 0.089343
162.7937	183.7755	225.7895	307.7246	327.0984	336.0417	359.4809	473.9268	540.9838	568.4086	692.3646	765.902	787.7923	814.8913	824.9248	845.1321	913.8222	927.1051	944.5986	960.672	1005.9832	1027.0282	1081.1234	1090.7884	1124.9388	1131.8679	1135.0905	1154.0541	1190.8676	1212.0907	1250.2028	1255.6394	1279.1744	1290.0581	1293.8541	1306.4565	1323.1797	1354.7125	1360.1961	1391.9857	1401.1691	1412.302	1433.4033	1470.4563	1473.5901	1477.3689	1491.1295	1500.1093	1520.3282	2990.6313	2996.8423	3006.6174	3007.5061	3032.1441	3034.2783	3044.2013	3049.7852	3051.6963	3052.1218	3057.1594	3067.5979	3105.6141	3118.7767
C1C2CC1CCOCC2	C1[C@H]2C[C@@H]1CCOCC2	
InChI=1S/C8H14O/c1-3-9-4-2-8-5-7(1)6-8/h7-8H,1-6H2	InChI=1S/C8H14O/c1-3-9-4-2-8-5-7(1)6-8/h7-8H,1-6H2/t7-,8+
