19
gdb 11756	5.22181	1.36113	1.25422	1.6905	72.55	-0.2042	0.091	0.2952	1041.1077	0.164193	-364.996434	-364.988085	-364.987141	-365.029044	31.006	
C	-0.2735729946	 1.3037097	 0.05236648	-0.256449
O	 0.1844453455	-0.0365630658	 0.128416592	-0.280624
C	 0.7336849258	-0.4908098981	-1.0465708194	 0.428117
C	-0.0871992096	-0.9437113892	-2.2307355191	-0.358206
C	 0.8457388361	-1.9148992456	-1.5197074011	-0.103439
N	 2.2542077216	-1.7286171069	-1.8664854996	-0.068171
C	 2.6894982442	-2.0594968951	-3.2101404078	-0.322895
C	 2.1972047425	-0.2902127201	-1.468832161	-0.247889
H	 0.5491342133	 2.0038392392	-0.1511874012	 0.111693
H	-1.035492148	 1.4223465154	-0.7303309639	 0.112529
H	-0.7116676132	 1.5461794009	 1.0229165059	 0.128293
H	-1.1373367602	-1.1007145124	-2.003480133	 0.116255
H	 0.1162429829	-0.5911872611	-3.2386069126	 0.104899
H	 0.4948820665	-2.8393783242	-1.0741634174	 0.101323
H	 2.1190298683	-1.5571885045	-4.0120388739	 0.091715
H	 3.7444699787	-1.7908967105	-3.3272321658	 0.119677
H	 2.6010363006	-3.140412336	-3.3618417336	 0.12132
H	 2.3727452692	 0.4272547369	-2.2815956101	 0.09047
H	 2.8727580202	-0.071452243	-0.6352070182	 0.111382
82.4553	133.0479	173.9786	216.0263	237.7274	297.9866	371.6981	415.2287	422.7756	501.4384	638.0277	694.4396	823.1277	876.451	912.3805	962.2509	975.7483	992.6788	1038.3786	1062.5211	1074.4029	1091.7343	1133.5556	1165.6458	1180.3535	1201.1751	1213.8248	1223.7754	1240.1692	1292.3519	1306.2528	1390.3931	1449.2529	1466.2565	1486.3543	1487.2956	1494.6392	1500.9125	1505.9074	1511.7054	2943.7475	2991.9977	3007.8405	3046.326	3058.2256	3069.3096	3099.8006	3112.629	3123.4275	3169.8275	3205.1496
COC12CC1N(C)C2	CO[C@]12C[C@H]1N(C)C2	
InChI=1S/C6H11NO/c1-7-4-6(8-2)3-5(6)7/h5H,3-4H2,1-2H3	InChI=1S/C6H11NO/c1-7-4-6(8-2)3-5(6)7/h5H,3-4H2,1-2H3/t5-,6+/m1/s1
