14
gdb 131661	3.05534	1.26719	0.90426	1.7173	67.3	-0.2594	-0.0793	0.1801	1188.6674	0.101801	-470.003802	-469.996115	-469.99517	-470.036435	28.134	
O	 0.461745414	 0.6518768662	-0.8750270948	-0.40088
C	-0.1393114227	 0.257693838	 0.3370025047	-0.131183
C	-1.471888197	-0.4349924933	 0.1637937733	 0.323668
C	-1.9757693831	-0.7872914887	-1.0452397751	-0.332662
C	-3.2594155135	-1.4461434816	-1.109014046	 0.483922
O	-3.877406482	-1.8325697393	-2.0785899275	-0.375547
N	-3.7845490861	-1.6184459086	 0.1928786357	-0.267961
N	-3.2504529417	-1.2609713041	 1.3637312123	-0.037879
N	-2.1186375802	-0.676723831	 1.3671830482	-0.261546
H	-0.0123152797	 1.4187816741	-1.2129057071	 0.29384
H	 0.5533113081	-0.4415329624	 0.8203947158	 0.151152
H	-0.2725743292	 1.0930059131	 1.0395944246	 0.128507
H	-1.4346292326	-0.5974672297	-1.9630307523	 0.141587
H	-4.6855437245	-2.0747962429	 0.2714665183	 0.284982
88.6912	161.2423	181.2574	194.1527	320.0478	401.8227	424.2857	474.2655	554.9758	589.9418	614.7851	766.7394	770.641	775.6911	916.5602	947.7051	991.3485	1018.3078	1082.7612	1115.5443	1192.2442	1206.3522	1221.1099	1310.9333	1381.3343	1395.7059	1419.6356	1475.0025	1532.1537	1639.8446	1815.8325	3009.1885	3065.4181	3227.5164	3584.9662	3817.333
OCC1=CC(=O)NN=N1	OCC1=N[N]NC(=O)[CH]1	
InChI=1S/C4H5N3O2/c8-2-3-1-4(9)6-7-5-3/h1,8H,2H2,(H,5,6,9)	InChI=1S/C4H5N3O2/c8-2-3-1-4(9)6-7-5-3/h1,8H,2H2,(H,5,6,9)
