21
gdb 75355	2.79009	1.57259	1.13183	0.1582	88.9	-0.2239	0.0233	0.2472	1141.3439	0.184808	-349.990334	-349.982313	-349.981368	-350.023265	31.593	
C	-0.5200053632	 1.557616531	 0.0944067015	-0.495575
C	-0.146475746	 0.1125526084	-0.0132035064	 0.331876
C	-0.0818520328	-0.6270398576	-1.1203454929	-0.1639
C	 0.3549647738	-2.0475268799	-0.8693697708	-0.271864
C	 0.4239100035	-2.164663267	 0.6819966914	-0.008511
C	 1.7831194245	-2.6550559716	 1.2523164259	-0.277423
C	 2.4160037837	-1.4045852749	 1.8141294184	-0.058741
C	 1.5871725365	-0.3632105307	 1.8098383998	-0.073506
C	 0.2368870415	-0.7012311049	 1.2119667472	-0.145378
H	 0.2974930824	 2.15107703	 0.5237923189	 0.124357
H	-0.7683452793	 1.9843314569	-0.8812966485	 0.121439
H	-1.3843382723	 1.6962632863	 0.757097056	 0.121379
H	-0.2951776908	-0.2557484269	-2.1183560464	 0.079461
H	-0.3382858051	-2.7780552201	-1.3050831407	 0.098517
H	 1.3306566641	-2.2474564933	-1.3345500825	 0.101322
H	-0.389245145	-2.8055771978	 1.0292744854	 0.070753
H	 1.646654034	-3.4088022435	 2.0398813269	 0.10139
H	 2.4077011905	-3.1324347104	 0.4866576347	 0.100068
H	 3.4318867824	-1.3904477616	 2.195613002	 0.087563
H	 1.8251868857	 0.6254594009	 2.1879597243	 0.087605
H	-0.546199058	-0.6209165334	 1.981612826	 0.069169
42.4776	169.6584	186.8891	234.2592	273.0502	397.4072	410.2089	525.5004	550.0408	664.548	715.6249	722.0456	795.8228	818.723	850.1514	884.7274	916.8623	946.7194	951.4477	976.225	1001.876	1025.0956	1036.986	1052.8357	1068.936	1075.87	1129.6242	1161.1671	1179.3612	1222.1957	1234.2109	1277.2296	1289.7155	1309.5745	1315.9148	1330.9458	1349.7937	1375.8459	1413.8038	1479.9284	1482.1686	1489.7071	1495.5983	1686.4124	1730.77	2977.5272	3005.3694	3010.2268	3014.3884	3032.9864	3040.1827	3058.5952	3080.2069	3107.3546	3173.2228	3173.7451	3199.4436
CC1=CCC2CC=CC12	CC1=CC[C@H]2CC=C[C@@H]12	
InChI=1S/C9H12/c1-7-5-6-8-3-2-4-9(7)8/h2,4-5,8-9H,3,6H2,1H3	InChI=1S/C9H12/c1-7-5-6-8-3-2-4-9(7)8/h2,4-5,8-9H,3,6H2,1H3/t8-,9+/m1/s1
