19
gdb 90835	3.06853	1.8854	1.4396	1.521	78.18	-0.214	0.0578	0.2718	947.7279	0.161414	-381.935891	-381.929054	-381.92811	-381.96674	28.591	
C	-0.2161886747	 1.5056216962	-0.0248677288	-0.402473
C	 0.0530084671	 0.0063401736	 0.0817598967	-0.146276
C	 1.0981448996	-0.557230737	-0.9943316712	-0.17253
N	 2.2460755999	-1.1704838656	-0.2247248736	-0.175913
C	 1.5213316267	-1.8296297359	 0.9271723375	-0.044672
C	 2.3474484683	-1.220796117	 2.0872617028	-0.082773
N	 1.1607265992	-0.4971031451	 2.7362030357	-0.433098
C	 0.8967780094	-0.4505144997	 1.2511874057	 0.354113
C	 2.390720278	-0.2068523774	 0.9282360409	-0.00719
H	 0.713773112	 2.0799338405	 0.0440108506	 0.118282
H	-0.6909146276	 1.751286495	-0.9805615169	 0.116155
H	-0.8798492494	 1.8481822336	 0.7753642915	 0.123762
H	-0.8901340954	-0.5471436443	 0.0175083887	 0.075303
H	 0.6513900733	-1.3186919539	-1.6391188196	 0.107554
H	 1.4813447381	 0.2485908044	-1.6274927323	 0.109246
H	 1.0255773381	-2.7998439523	 0.8515715071	 0.075986
H	 3.1549296467	-1.6408777425	 2.6860940402	 0.089383
H	 0.5426879157	-1.1824078368	 3.1812552171	 0.208244
H	 2.9195458849	 0.7435815141	 0.8648294978	 0.086896
164.2402	218.928	225.7871	356.9741	445.9996	471.4286	496.292	656.3048	686.9685	787.9769	794.2001	823.5215	826.1709	850.9404	884.3991	901.5624	916.2626	944.6439	970.5665	996.2868	1033.164	1047.0848	1082.1007	1109.8036	1113.5396	1137.2075	1150.2411	1164.7288	1198.5895	1220.2848	1236.6288	1242.7016	1279.4708	1289.5665	1321.3714	1346.3447	1383.6321	1413.9434	1488.6796	1495.4867	1500.5454	3032.2259	3042.2966	3057.1822	3092.3309	3100.3966	3102.9758	3110.4524	3117.7936	3130.7058	3391.5257
CC1CN2C3C4NC13C24	C[C@H]1CN2[C@H]3[C@@H]4N[C@]13[C@H]24	
InChI=1S/C7H10N2/c1-3-2-9-5-4-6(9)7(3,5)8-4/h3-6,8H,2H2,1H3	InChI=1S/C7H10N2/c1-3-2-9-5-4-6(9)7(3,5)8-4/h3-6,8H,2H2,1H3/t3-,4-,5-,6+,7+/m0/s1
