20
gdb 64813	2.69606	1.27812	1.06763	3.8633	79.26	-0.2452	0.0336	0.2788	1207.0163	0.17028	-403.165483	-403.156564	-403.15562	-403.199185	34.35	
C	 0.02173421	 1.6059334449	-0.2661785316	-0.440544
C	-0.0593013378	 0.0977990861	-0.02853615	 0.316079
C	 0.8303750502	-0.7607055402	-0.9925764536	-0.437802
C	 1.7007146821	-1.0604144474	 0.2472002307	 0.43432
O	 2.7332540904	-1.6333323765	 0.4673157484	-0.35986
N	 0.8278733136	-0.371077138	 1.0602789928	-0.35586
C	-1.501250175	-0.3600479843	 0.1010486239	-0.012125
C	-1.8673097275	-1.6746061528	 0.7346620083	-0.280725
C	-2.2015352917	-0.3802807609	 1.4360244764	-0.275439
H	 1.0606308661	 1.9304445852	-0.3774120722	 0.120836
H	-0.524592167	 1.8827291598	-1.1737462927	 0.123572
H	-0.4247333588	 2.1549690755	 0.5697256157	 0.12161
H	 0.3371205311	-1.6349180602	-1.4202521575	 0.130646
H	 1.3505253413	-0.2042453365	-1.774457647	 0.12695
H	 0.9614701587	-0.0207639771	 1.9987723204	 0.244651
H	-2.1109633743	-0.0545319358	-0.7456674462	 0.086693
H	-2.6746626443	-2.2483486673	 0.2937932599	 0.112659
H	-1.0656748607	-2.2709426245	 1.1556528771	 0.125555
H	-1.6204013323	-0.133687972	 2.3188567329	 0.10389
H	-3.2364441642	-0.060738438	 1.4834659643	 0.114895
69.0121	83.6188	198.2849	224.6094	247.3222	312.1034	364.224	391.7504	420.8145	504.5577	544.7148	568.8795	597.5938	769.0819	794.4349	827.6378	847.5442	893.2965	926.1263	944.9201	966.5268	985.7301	1053.103	1062.8164	1076.9202	1085.6398	1130.4903	1138.8309	1179.2199	1193.3898	1199.8066	1219.6542	1234.1739	1286.6187	1368.1937	1402.5297	1411.093	1455.1064	1461.7599	1490.825	1495.6876	1503.411	1893.7971	3032.7988	3085.1408	3102.3313	3111.029	3131.3565	3135.8142	3140.8501	3145.6399	3211.5988	3228.591	3593.4842
CC1(CC(=O)N1)C1CC1	C[C@]1(CC(=O)N1)C1CC1	
InChI=1S/C7H11NO/c1-7(5-2-3-5)4-6(9)8-7/h5H,2-4H2,1H3,(H,8,9)	InChI=1S/C7H11NO/c1-7(5-2-3-5)4-6(9)8-7/h5H,2-4H2,1H3,(H,8,9)/t7-/m0/s1
