14
gdb 83078	2.87143	1.55365	1.31348	2.9923	62.65	-0.2472	-0.0348	0.2125	960.4718	0.099974	-473.812951	-473.805302	-473.804358	-473.845141	28.114	
O	 0.1623176505	 1.1451222978	-0.0340587816	-0.412789
C	-0.1407576506	-0.1960195142	 0.0400958306	 0.072281
C	-0.7070060702	-0.7902307701	 1.2714106967	-0.045843
O	-1.2562381096	 0.1542491971	 2.1760467828	-0.22984
C	-2.3261867309	 0.715249163	 1.5256121863	 0.081256
N	-2.6202566001	 0.2940131299	 0.3660459724	-0.283879
C	-1.6243636636	-0.6788928224	 0.0260206267	 0.176996
C	-1.968413731	-1.8127917008	-0.8523515484	 0.071454
O	-1.2147964223	-2.7342309524	-1.0694036468	-0.278258
H	 0.2351508856	 1.4904398888	 0.8638385586	 0.30393
H	 0.4923183898	-0.8495234134	-0.5537594193	 0.147311
H	-0.3681137584	-1.7100776392	 1.7314357668	 0.140273
H	-2.841904657	 1.4831782937	 2.087272428	 0.158452
H	-2.9762762421	-1.7459890978	-1.3113420328	 0.098654
117.484	186.5882	200.4917	214.1962	224.4753	289.3063	450.7007	513.5097	613.0887	643.9916	696.7563	750.5476	757.8351	880.7945	911.2848	932.4377	979.7752	1013.204	1057.494	1065.646	1110.6859	1148.3732	1233.7967	1265.0526	1304.627	1340.4556	1353.2733	1412.5757	1429.6059	1672.7612	1797.8388	2925.9718	3161.6776	3197.9722	3243.0959	3786.1944
OC1C2OC=NC12C=O	O[C@H]1[C@H]2OC=N[C@@]12C=O	
InChI=1S/C5H5NO3/c7-1-5-3(8)4(5)9-2-6-5/h1-4,8H	InChI=1S/C5H5NO3/c7-1-5-3(8)4(5)9-2-6-5/h1-4,8H/t3-,4+,5-/m0/s1
