21
gdb 40912	3.48658	1.37102	1.33067	1.6371	81.04	-0.2404	0.0892	0.3296	1070.1683	0.184888	-387.05954	-387.052209	-387.051264	-387.091194	30.279	
C	-0.0298669731	 1.5764648386	-0.1011727844	-0.211733
C	 1.5132004076	 1.524414727	 0.0672951679	-0.283838
C	 1.3811015291	 0.0713038617	 0.5939844922	 0.41133
C	-0.0606700528	 0.0273614813	 0.0157897583	-0.29471
C	 2.4552213867	-1.0004910678	 0.2400030263	-0.326468
C	 2.8493342112	-1.3806493503	 1.6812274373	 0.082846
C	 1.4909758275	-1.5774996561	 2.388906223	-0.239516
C	 1.4950056266	-0.0555735726	 2.1297409767	 0.020106
O	 2.944992048	-0.0661239889	 2.3231054023	-0.304487
H	-0.5231115248	 2.063213234	 0.7446441366	 0.101529
H	-0.4186008314	 2.0151563836	-1.0227111252	 0.096791
H	 2.0326197429	 1.5610867979	-0.8953834845	 0.095538
H	 1.9849083229	 2.2461615461	 0.7396180024	 0.104732
H	-0.837646026	-0.4180892159	 0.6453052723	 0.092666
H	-0.0931790498	-0.4603118925	-0.9633505648	 0.098968
H	 2.0535915334	-1.8427607134	-0.3321725	 0.095359
H	 3.2993581838	-0.574896872	-0.3088288681	 0.105796
H	 3.7146455861	-2.0218570412	 1.8488173788	 0.077253
H	 0.7269349423	-2.2019247119	 1.9181934757	 0.094828
H	 1.6077225753	-1.8116935633	 3.447355509	 0.109086
H	 0.9655346348	 0.6659102855	 2.753949838	 0.073925
110.2972	146.4538	222.4075	320.8859	402.7945	439.4621	484.1975	565.9511	681.5848	754.7742	784.2044	810.2997	837.9987	864.4535	881.8603	885.1176	913.6677	936.9605	938.917	951.4034	971.2627	1018.2077	1034.6166	1059.9501	1077.5004	1100.5232	1158.8342	1178.7611	1190.0265	1205.6588	1221.8958	1228.5387	1245.6362	1254.8105	1257.1174	1274.2715	1296.6066	1307.5738	1313.8351	1342.7081	1475.3015	1476.6969	1484.2845	1492.8133	1505.8585	3041.1746	3048.8343	3051.5853	3060.8795	3066.2195	3087.0355	3097.5421	3103.0489	3109.3709	3117.3939	3122.5218	3143.7668
C1CC2(C1)CC1CC2O1	C1CC2(C1)C[C@@H]1C[C@H]2O1	
InChI=1S/C8H12O/c1-2-8(3-1)5-6-4-7(8)9-6/h6-7H,1-5H2	InChI=1S/C8H12O/c1-2-8(3-1)5-6-4-7(8)9-6/h6-7H,1-5H2/t6-,7+/m0/s1
