17
gdb 78638	3.36001	1.58535	1.34178	2.5337	73.19	-0.2506	-0.0495	0.2011	980.7133	0.136309	-417.914135	-417.906836	-417.905892	-417.945465	29.269	
C	 0.2056284006	 1.4287185896	-0.1530114948	-0.483265
C	 0.0275534183	-0.0552075141	 0.0420331178	 0.293028
C	-0.0958622354	-0.9609768007	-1.1960512973	-0.227419
N	-0.4235333156	-2.2644575919	-0.5724659802	-0.234954
C	-0.8095403934	-1.9565873117	 0.6076908752	 0.086681
C	 0.1838219583	-2.2017393778	 1.7327568714	 0.136291
O	 1.1420221414	-3.1557101704	 1.5305955614	-0.408596
C	 0.3745609978	-0.6407698423	 1.4271242397	-0.174073
N	-1.0402453591	-0.5318245733	 0.9386413504	-0.156419
H	 1.1871146611	 1.6420339446	-0.5892127858	 0.130835
H	-0.5591536351	 1.8144548132	-0.835265135	 0.134672
H	 0.1229135532	 1.9732896308	 0.7903509866	 0.135186
H	-0.8708537862	-0.5612671751	-1.8664491895	 0.119341
H	 0.8223532034	-1.0812921183	-1.7800089802	 0.119809
H	-0.1896341261	-2.2709627058	 2.7573408652	 0.126937
H	 1.1987084595	-3.2649534804	 0.566641436	 0.293585
H	 0.7161154273	 0.0307134037	 2.2141571393	 0.10836
168.555	194.2084	208.9688	298.0007	334.2995	404.2851	522.6092	552.217	593.0181	623.8977	659.4484	710.4997	778.5695	788.2456	841.6006	885.1635	926.9695	988.0984	994.5955	1006.0204	1026.3025	1067.004	1102.5831	1129.3027	1186.6301	1204.278	1224.0941	1252.4249	1286.0945	1327.1784	1364.6416	1416.8465	1450.016	1484.9251	1490.012	1494.1268	1610.8632	3002.6076	3039.4609	3073.25	3096.6068	3103.0633	3118.2818	3125.9083	3677.1222
CC12CN=C3C(O)C1N23	C[C@@]12C[N][C]3[C@@H](O)[C@@H]1N23	
InChI=1S/C6H8N2O/c1-6-2-7-5-3(9)4(6)8(5)6/h3-4,9H,2H2,1H3	InChI=1S/C6H8N2O/c1-6-2-7-5-3(9)4(6)8(5)6/h3-4,9H,2H2,1H3/t3-,4-,6+,8?/m0/s1
