20
gdb 111947	3.00196	1.21702	0.92368	4.2493	82.45	-0.2341	-0.0261	0.2079	1300.5004	0.171064	-403.204059	-403.194748	-403.193804	-403.238363	33.957	
C	 0.7073082657	-0.3390218214	-1.4159939029	-0.38727
C	 0.0331416917	 0.0185637726	-0.088672603	-0.188547
C	-1.4470829179	-0.4116844511	-0.0165460984	-0.031318
C	-1.6467098471	-1.9082496466	 0.019224522	-0.078089
C	-2.3195118649	-2.2640473276	 1.1130068743	-0.195958
C	-2.6607047039	-1.0465813661	 1.904430429	 0.393231
O	-3.2939113428	-0.9655182099	 2.9391178887	-0.402356
N	-2.1056944765	 0.010010368	 1.2067963098	-0.08376
C	-2.3244989038	 1.3850124454	 1.5832768523	-0.351759
H	 1.7342799281	 0.0362737967	-1.440923256	 0.123231
H	 0.7502061942	-1.4210720527	-1.5746887143	 0.121982
H	 0.1731155104	 0.1016884316	-2.2651327832	 0.11972
H	 0.568118486	-0.4381758827	 0.751637228	 0.112083
H	 0.0817464231	 1.1036342735	 0.0586557182	 0.106161
H	-1.9680125696	 0.0132047908	-0.8924174332	 0.091912
H	-1.2655495207	-2.5586557783	-0.7566704383	 0.119817
H	-2.6150228701	-3.2536134321	 1.4309938143	 0.123808
H	-2.928165414	 1.3741761261	 2.4931060582	 0.16609
H	-1.384575621	 1.9105351308	 1.7895983569	 0.1232
H	-2.8641070469	 1.9361759431	 0.8019258976	 0.11782
78.3107	110.9468	121.0655	169.2513	203.3732	248.6491	287.1614	295.3436	374.5945	489.6311	516.2493	661.2397	706.2388	721.2942	766.2666	821.5001	850.3011	898.8435	962.003	974.8094	1016.9771	1052.8945	1099.5143	1112.3512	1127.9907	1146.0392	1158.5974	1248.2366	1283.9797	1294.3399	1330.4989	1359.3314	1366.642	1411.334	1419.8873	1447.9368	1487.549	1495.7829	1500.3051	1506.834	1519.6449	1656.2013	1800.6138	2952.7545	3010.037	3034.6542	3036.9346	3059.5976	3073.0153	3104.2867	3111.6153	3135.6593	3219.2734	3249.9134
CCC1C=CC(=O)N1C	CC[C@H]1C=CC(=O)N1C	
InChI=1S/C7H11NO/c1-3-6-4-5-7(9)8(6)2/h4-6H,3H2,1-2H3	InChI=1S/C7H11NO/c1-3-6-4-5-7(9)8(6)2/h4-6H,3H2,1-2H3/t6-/m0/s1
