18
gdb 35717	2.40908	1.51162	1.08927	6.1135	75.95	-0.2434	0.0239	0.2673	1132.0371	0.149774	-398.085878	-398.077554	-398.07661	-398.119551	30.558	
N	 0.0379968321	-1.2697540499	 0.2205281389	-0.32747
C	 0.0334303705	-0.114519402	 0.1771159481	 0.30126
C	-0.0151725826	 1.3369351441	 0.1312272028	-0.199776
C	 0.0133767686	 2.0407995376	 1.5228655425	-0.16948
N	 1.4344186019	 2.3851612554	 1.3050582002	-0.31089
C	 1.3430994885	 2.0881621308	-0.1414204141	-0.000574
C	 2.5186967025	 1.3436139972	-0.7246139052	 0.008361
C	 3.8883867686	 1.6820744739	-0.2624942626	-0.24582
N	 3.2769911667	 0.39153652	 0.0889744702	-0.299774
H	-0.835208048	 1.6407686412	-0.5211796547	 0.129367
H	-0.6696515277	 2.8988632284	 1.5487958563	 0.108455
H	-0.1710488353	 1.4079555553	 2.3945522424	 0.133004
H	 1.6962908035	 3.3345188367	 1.5434247289	 0.229836
H	 1.1308794251	 2.9706749024	-0.7631647565	 0.080915
H	 2.3758727902	 1.035039589	-1.7589385506	 0.098182
H	 4.7247614443	 1.6295244492	-0.9533703534	 0.119369
H	 3.9866592486	 2.4306540395	 0.5199092753	 0.105589
H	 2.9339122625	 0.4497654215	 1.0473391317	 0.239446
59.1234	98.0461	128.0415	214.6787	228.6695	273.053	394.7679	495.1297	561.3088	632.3352	697.3147	748.9349	810.3887	849.2525	869.9971	937.5111	959.3809	982.1193	1000.8626	1009.354	1062.9265	1087.323	1106.896	1132.6844	1137.9042	1147.1433	1183.2676	1199.9662	1259.0478	1281.1308	1303.3719	1328.2574	1351.6372	1373.7646	1392.0007	1414.8465	1504.5163	1519.443	2357.4198	2986.0578	3023.2077	3093.1053	3104.0824	3107.0974	3123.8261	3193.0317	3476.9754	3542.0634
N#CC1CNC1C1CN1	N#C[C@H]1CN[C@H]1[C@H]1CN1	
InChI=1S/C6H9N3/c7-1-4-2-9-6(4)5-3-8-5/h4-6,8-9H,2-3H2	InChI=1S/C6H9N3/c7-1-4-2-9-6(4)5-3-8-5/h4-6,8-9H,2-3H2/t4-,5+,6+/m0/s1
