14
gdb 128001	2.62918	1.64356	1.01773	3.4118	70.12	-0.2526	-0.0571	0.1955	1093.329	0.100435	-469.997186	-469.988982	-469.988038	-470.031252	28.736	
C	-0.0259629749	 1.4344312853	-0.1355597068	-0.324165
N	 0.003291488	-0.0186671065	-0.1756487969	-0.250552
C	-1.0345188656	-0.6598964776	 0.1315350296	 0.303683
O	-2.1960345546	-0.003252993	 0.5049597423	-0.303339
N	-3.3857672849	-0.6674819833	 0.8579301993	-0.10504
C	-3.3427042981	-1.9436951212	 0.817171411	 0.136423
N	-2.257832066	-2.7090452039	 0.4657554248	-0.365427
C	-1.034000332	-2.1650277118	 0.0991603421	 0.380538
O	-0.0932967696	-2.8498864516	-0.2062371204	-0.31313
H	 0.9524102181	 1.8176189658	-0.4303576064	 0.129302
H	-0.7873166796	 1.8394680775	-0.814012172	 0.136681
H	-0.2658544513	 1.8034236931	 0.8695800189	 0.136691
H	-4.2532393088	-2.4664209557	 1.0870101103	 0.162505
H	-2.3185980008	-3.7176787173	 0.4628091343	 0.275829
32.7349	99.446	141.7911	196.2333	205.9126	353.6418	502.5002	516.6672	526.3348	570.1216	578.9518	638.7831	716.1216	789.2842	906.7558	935.2594	956.4546	1036.9004	1092.4011	1099.9309	1120.7577	1172.6431	1308.4586	1366.6452	1432.37	1470.1305	1482.9816	1496.1309	1716.6315	1755.2475	1839.7876	3014.682	3068.784	3123.7637	3210.2167	3610.4144
CN=C1ON=CNC1=O	CN=c1onc[nH]c1=O	
InChI=1S/C4H5N3O2/c1-5-4-3(8)6-2-7-9-4/h2H,1H3,(H,6,7,8)	InChI=1S/C4H5N3O2/c1-5-4-3(8)6-2-7-9-4/h2H,1H3,(H,6,7,8)
