14
gdb 25405	3.14345	1.48297	1.00761	6.9515	76.34	-0.2347	-0.0757	0.159	1084.5833	0.102717	-436.766157	-436.758913	-436.757969	-436.798218	27.008	
O	-0.2114563383	 0.021546825	 0.0015941158	-0.250146
C	-0.0267252043	 1.2128403315	 0.0091755372	 0.093094
C	 1.2736654554	 1.9118340381	 0.0006196859	 0.018648
C	 1.2674124744	 3.2869663145	 0.0118455411	-0.122639
C	 2.4472225887	 4.0625903535	 0.0055807654	-0.180649
C	 3.6392660354	 3.3951316022	-0.0125226846	 0.05515
N	 3.6692688068	 2.0445250986	-0.023884105	-0.356779
C	 2.5401746269	 1.1757638724	-0.0190855295	 0.376056
O	 2.725666696	-0.0211329643	-0.0309894472	-0.347475
H	-0.8861084582	 1.9267117522	 0.0231525206	 0.059526
H	 0.3030446795	 3.7913670989	 0.0262501305	 0.12157
H	 2.4212351121	 5.1428789833	 0.0146926924	 0.118248
H	 4.6003439618	 3.896901908	-0.0186021202	 0.146876
H	 4.5518602639	 1.5500696261	-0.0373747225	 0.26852
81.804	160.7775	206.6839	273.8102	418.9832	424.0016	462.4452	531.5088	571.4425	668.6424	722.0632	723.6054	776.624	803.969	919.4434	953.5488	968.6591	1037.865	1063.4394	1084.8666	1154.53	1221.8227	1251.1075	1355.3693	1434.0618	1458.48	1498.4562	1579.1325	1657.0746	1774.8445	1834.4772	2829.9585	3151.0519	3200.0297	3237.3872	3595.3697
O=CC1=CC=CNC1=O	O=Cc1ccc[nH]c1=O	
InChI=1S/C6H5NO2/c8-4-5-2-1-3-7-6(5)9/h1-4H,(H,7,9)	InChI=1S/C6H5NO2/c8-4-5-2-1-3-7-6(5)9/h1-4H,(H,7,9)
