18
gdb 98446	3.37107	1.11435	0.95955	3.8122	69.49	-0.2485	0.0233	0.2719	1261.6541	0.146055	-476.225876	-476.216124	-476.21518	-476.261802	34.063	
C	 0.0634526593	 1.4855073679	 0.2012181388	-0.336673
N	 0.1638266952	 0.0479333004	 0.0562157436	-0.321666
C	 0.4166687356	-0.5494247565	-1.1311821059	 0.379741
O	 0.5846094421	 0.0387105244	-2.1879363204	-0.394317
C	 0.4869597437	-2.0759133608	-1.0906082178	 0.242556
O	 0.262242155	-2.5256062813	 0.2293035859	-0.500479
C	-0.3213772944	-2.7930238614	-2.2046039117	-0.115619
O	 0.8618186633	-3.4343993966	-2.7184015411	-0.270832
C	 1.7098344415	-2.6893335492	-1.823397967	-0.115614
H	 0.8200146507	 1.8683341608	 0.895121417	 0.127965
H	 0.2252992746	 1.9273544487	-0.7827629857	 0.170347
H	-0.9262752654	 1.7794214352	 0.5679572619	 0.127968
H	 0.0450834576	-0.5552951253	 0.8542954474	 0.266435
H	 0.3083769491	-3.4867319511	 0.2445608634	 0.29359
H	-1.0646351748	-3.5106035919	-1.8336748586	 0.095444
H	-0.7764884675	-2.1175659346	-2.9354283	 0.127863
H	 2.3297054089	-1.9590561068	-2.3524858411	 0.127846
H	 2.3353052356	-3.3370330219	-1.1955309287	 0.095446
29.961	71.5679	89.8285	135.3532	218.8137	251.0246	260.8862	322.4918	368.9751	418.4673	423.709	541.3359	582.4518	746.9405	787.5679	852.0106	896.9539	937.2728	982.2031	1038.2029	1042.9688	1062.5938	1120.8409	1154.218	1159.508	1160.8466	1180.5741	1231.4881	1238.9009	1299.7843	1363.125	1405.0617	1440.3009	1490.4788	1496.821	1499.8817	1517.187	1576.3274	1776.2532	3011.6415	3021.6741	3028.9295	3080.9434	3087.4874	3088.4603	3152.2334	3642.5935	3823.7381
CNC(=O)C1(O)COC1	CNC(=O)C1(O)COC1	
InChI=1S/C5H9NO3/c1-6-4(7)5(8)2-9-3-5/h8H,2-3H2,1H3,(H,6,7)	InChI=1S/C5H9NO3/c1-6-4(7)5(8)2-9-3-5/h8H,2-3H2,1H3,(H,6,7)
