17
gdb 123759	4.86527	1.00766	0.94838	2.9823	74.61	-0.2349	0.0196	0.2544	1250.4983	0.138822	-418.003542	-417.995934	-417.99499	-418.037059	27.904	
C	-0.0728495118	 1.3173509581	-0.1478187217	-0.062867
C	 1.4458904049	 1.5167441023	-0.0062090055	-0.29006
C	 1.4110426462	 0.1456767681	 0.7241959554	 0.0199
O	 0.0213577652	-0.0391297783	 0.336279628	-0.289604
C	 2.2969775136	-0.9544635736	 0.2642731661	 0.229726
C	 3.2897869002	-1.6012848767	 0.9746468175	-0.146763
N	 3.8355741901	-2.5114277348	 0.1340298149	-0.179392
N	 3.2604095431	-2.5194908798	-1.085020805	-0.223001
C	 2.3291931504	-1.5759117434	-1.0093841106	-0.078298
H	-0.6799367216	 1.9463849254	 0.5172237913	 0.097472
H	-0.492860753	 1.3629165197	-1.1585965624	 0.106055
H	 1.9893524676	 1.4816607939	-0.9518892511	 0.115304
H	 1.7872291313	 2.3720555703	 0.5789357684	 0.107848
H	 1.492997848	 0.2576378878	 1.8150834235	 0.066317
H	 3.6367748432	-1.4807723433	 1.989134404	 0.13554
H	 4.5819430896	-3.1580043606	 0.3245320417	 0.275251
H	 1.6933743028	-1.3782094051	-1.8594433748	 0.116571
34.049	91.6601	141.2046	203.0552	385.5082	410.2539	517.1717	649.2187	667.5986	704.2765	774.6732	796.0434	857.4662	891.3434	916.8277	952.0131	953.7571	995.9615	1021.8795	1039.7824	1068.5839	1096.0473	1167.9097	1169.753	1212.8646	1240.938	1253.7003	1270.0045	1289.968	1352.0491	1379.3469	1398.81	1440.0619	1488.8795	1494.248	1532.462	1612.1272	2990.3711	3009.7232	3060.2357	3080.0344	3137.6988	3251.7816	3257.0042	3677.369
C1CC(O1)C1=CNN=C1	C1C[C@@H](O1)c1c[nH]nc1	
InChI=1S/C6H8N2O/c1-2-9-6(1)5-3-7-8-4-5/h3-4,6H,1-2H2,(H,7,8)	InChI=1S/C6H8N2O/c1-2-9-6(1)5-3-7-8-4-5/h3-4,6H,1-2H2,(H,7,8)/t6-/m1/s1
