20
gdb 16894	3.96168	1.71451	1.33732	0.3252	80.28	-0.2275	0.0233	0.2508	980.7213	0.179169	-311.875446	-311.868065	-311.867121	-311.906761	29.626	
C	 0.094964523	 1.5814565817	 0.0028672536	-0.399992
C	-0.0132200909	 0.0514999314	 0.0116118966	-0.012177
C	 0.5964495292	-0.5588630521	-1.2688488979	-0.219999
C	 0.704389694	-2.0823985114	-1.2183139193	-0.037771
C	 2.0426308544	-2.7351331014	-0.9597950626	-0.288878
C	 0.9827743012	-2.7136425882	 0.1248812173	-0.052386
C	 1.0947268733	-1.7979024426	 1.2871959594	-0.095809
C	 0.6332710513	-0.5471171279	 1.2438165351	-0.042391
H	 1.1439608139	 1.8992817332	-0.0060190967	 0.115056
H	-0.391292736	 2.0066005036	-0.8814594924	 0.109137
H	-0.3781656073	 2.0182120945	 0.8887959912	 0.110477
H	-1.0841314066	-0.2055732781	 0.0338286762	 0.082732
H	 0.0023715141	-0.2557812097	-2.1384237311	 0.09228
H	 1.591668843	-0.1191329709	-1.4103062395	 0.09618
H	 0.0277425015	-2.6220446877	-1.8732517652	 0.080209
H	 2.2616180313	-3.6832321825	-1.4398543255	 0.105564
H	 2.9005399738	-2.0819714261	-0.8352447424	 0.110084
H	 0.5112487138	-3.6710374039	 0.3335459183	 0.086264
H	 1.5536251525	-2.1843561806	 2.1946827218	 0.082634
H	 0.7126530205	 0.0918394188	 2.121008643	 0.078784
97.5909	193.3466	242.511	294.7826	364.0059	398.691	440.7386	517.2116	561.9489	716.0104	735.8413	790.6523	817.6031	852.0076	877.1789	910.7264	944.0869	989.9574	991.9723	1008.529	1056.2398	1060.4472	1094.7968	1103.1921	1129.7705	1141.4975	1157.9438	1207.9286	1224.4877	1258.4915	1308.3402	1328.9582	1353.194	1377.0963	1400.2538	1409.2766	1427.7513	1478.0233	1490.949	1497.981	1500.5716	1706.3296	2973.9479	3021.3399	3026.4995	3062.3315	3093.6531	3098.1378	3123.5472	3127.1782	3135.9964	3152.2466	3159.4717	3212.9798
CC1CC2CC2C=C1	C[C@H]1C[C@H]2C[C@H]2C=C1	
InChI=1S/C8H12/c1-6-2-3-7-5-8(7)4-6/h2-3,6-8H,4-5H2,1H3	InChI=1S/C8H12/c1-6-2-3-7-5-8(7)4-6/h2-3,6-8H,4-5H2,1H3/t6-,7-,8+/m1/s1
