21
gdb 60910	2.89787	0.97673	0.90378	2.8252	86.39	-0.2283	-0.0234	0.2049	1414.2458	0.181836	-387.120587	-387.111056	-387.110111	-387.155935	34.498	
C	 0.0048245067	 1.5605229816	 0.153403373	-0.41499
C	-0.02000338	 0.0216044483	 0.0333844817	-0.169856
C	 0.7837973596	-0.5765255487	 1.1816185741	 0.165153
O	 1.8196988441	-1.1749061873	 1.0544192954	-0.248239
C	-1.4194810826	-0.5424836231	 0.0407055806	 0.335146
C	-1.9139340848	-1.4075819614	-0.848734774	-0.179531
C	-3.3607178563	-1.7480237181	-0.5922999613	-0.245124
C	-3.5984843873	-1.1931412624	 0.8351945714	-0.20706
C	-2.4767468893	-0.1490108328	 1.0609734777	-0.307918
H	 1.029259581	 1.936769028	 0.0795520656	 0.130435
H	-0.5873478219	 2.0125863861	-0.6472885877	 0.12986
H	-0.4109196438	 1.8952064263	 1.1094975874	 0.125506
H	 0.4895870164	-0.2823051196	-0.8860678917	 0.095659
H	 0.3399561714	-0.4085631527	 2.1909539402	 0.071223
H	-1.3602522159	-1.8000530465	-1.6955624186	 0.091775
H	-4.0102549683	-1.2632613847	-1.3355824409	 0.105959
H	-3.5658366014	-2.8220460109	-0.6641856963	 0.105621
H	-4.5988660913	-0.7745955796	 0.9697622483	 0.098222
H	-3.487307244	-2.004608598	 1.5612325149	 0.108226
H	-2.1095171285	-0.1512860215	 2.0937104818	 0.102819
H	-2.8282931039	 0.8746128669	 0.8683255884	 0.107115
49.8883	57.9463	119.549	173.3455	194.0644	222.0825	283.172	304.4128	417.0801	448.6829	518.8117	633.4788	688.3092	814.4475	842.171	873.1877	891.0709	907.9029	918.9518	942.0801	957.4885	1028.022	1045.5236	1063.4484	1090.1842	1139.8323	1152.2342	1178.0427	1230.8965	1241.4439	1263.6855	1291.6293	1321.1236	1325.5142	1333.7476	1370.9388	1398.8572	1427.0073	1484.2374	1487.9242	1495.9624	1498.3239	1507.446	1706.2408	1832.8956	2854.5995	3003.2739	3006.2627	3038.1283	3043.6988	3052.0276	3063.6505	3066.9464	3103.5665	3110.1629	3117.1278	3184.2285
CC(C=O)C1=CCCC1	C[C@@H](C=O)C1=CCCC1	
InChI=1S/C8H12O/c1-7(6-9)8-4-2-3-5-8/h4,6-7H,2-3,5H2,1H3	InChI=1S/C8H12O/c1-7(6-9)8-4-2-3-5-8/h4,6-7H,2-3,5H2,1H3/t7-/m0/s1
