14
gdb 20904	3.54134	1.90693	1.36439	5.3375	58.52	-0.2537	-0.0073	0.2464	882.169	0.107742	-415.882762	-415.875488	-415.874544	-415.915395	25.571	
C	-0.0498608061	 1.5677749905	-0.0084833688	-0.381193
C	 0.0106731866	 0.0402311959	-0.0266567273	-0.162947
N	 0.6581625248	-0.4854253181	-1.2216356888	-0.132625
C	 0.1185370239	-0.8132610072	-2.4308149922	 0.067744
N	 0.9915813462	-1.2154529227	-3.2911303603	-0.130962
O	 2.2285314053	-1.1436127887	-2.6003704405	-0.23745
C	 2.0300666724	-0.6897368682	-1.3249989463	 0.519742
O	 2.8786398576	-0.5179017859	-0.4942519008	-0.403469
H	 0.9580972937	 1.9885696506	-0.048823789	 0.154361
H	-0.6229845704	 1.9533091602	-0.8571154243	 0.126426
H	-0.5294193433	 1.9107947186	 0.9128272316	 0.131844
H	 0.5922580601	-0.32834955	 0.8222804854	 0.155654
H	-0.989791813	-0.3981373572	 0.0347416962	 0.12608
H	-0.9370327277	-0.753527948	-2.6527249149	 0.166796
34.0085	114.699	209.7742	243.7441	299.8864	398.1146	523.4791	613.7706	658.693	767.6183	770.2949	796.6428	885.0237	892.0164	945.7611	966.5108	1094.0893	1114.056	1126.878	1228.8303	1263.4986	1366.1117	1392.7459	1414.6434	1439.1532	1480.3032	1492.4653	1503.7108	1645.208	1881.6741	3045.9549	3062.9303	3107.283	3123.2544	3135.0178	3255.2863
CCN1C=NOC1=O	CCn1cnoc1=O	
InChI=1S/C4H6N2O2/c1-2-6-3-5-8-4(6)7/h3H,2H2,1H3	InChI=1S/C4H6N2O2/c1-2-6-3-5-8-4(6)7/h3H,2H2,1H3
