12
gdb 24746	3.82158	1.2563	0.94549	6.4311	72.76	-0.2664	-0.1032	0.1632	1119.1555	0.079591	-431.727044	-431.719839	-431.718895	-431.759345	25.592	
O	-0.0610113651	-0.0234032389	 0.0035587013	-0.322675
C	-0.0690438839	 1.1928054167	 0.006818055	 0.214406
C	 1.1872606776	 1.9597048814	 0.0004837795	 0.271999
N	 2.2077837019	 2.5018144789	-0.0048770516	-0.316232
C	-1.2907267116	 1.9775119018	 0.0170319877	 0.292334
N	-1.4117643189	 3.2972023393	 0.0213447971	-0.28747
C	-2.7483170568	 3.5362947236	 0.0308658102	-0.086981
C	-3.4544363056	 2.3437985419	 0.0323638607	-0.078494
N	-2.5130609809	 1.3638948111	 0.0235874051	-0.271627
H	-3.1467031264	 4.5392902721	 0.0361699798	 0.134196
H	-4.5103903653	 2.1285067292	 0.0387905549	 0.156807
H	-2.6472517449	 0.3643031528	 0.0218641702	 0.293736
88.5328	120.7271	177.5704	239.5416	324.3878	460.2277	492.8007	616.4909	676.2301	681.7332	683.3992	791.8877	802.559	884.923	922.1867	965.3999	1056.3685	1110.4898	1143.1089	1200.3607	1317.9204	1434.9493	1436.8548	1478.5397	1561.3811	1733.9986	2349.2736	3255.2213	3281.8194	3647.7273
O=C(C#N)C1=NC=CN1	O=C(C#N)c1ncc[nH]1	
InChI=1S/C5H3N3O/c6-3-4(9)5-7-1-2-8-5/h1-2H,(H,7,8)	InChI=1S/C5H3N3O/c6-3-4(9)5-7-1-2-8-5/h1-2H,(H,7,8)
