19
gdb 69856	2.24309	2.10301	1.53663	1.9877	74.	-0.2324	0.065	0.2974	940.6717	0.159959	-422.981347	-422.973693	-422.972749	-423.012695	32.038	
O	-0.0420714211	 1.315455229	 0.1562434568	-0.482984
C	 0.0233096031	-0.0674229649	 0.0256069742	 0.421249
C	-0.3738582614	-0.7620544543	-1.2516549658	-0.386006
C	-1.2013319461	-0.9348939834	 0.0176304465	-0.094456
C	-0.7942132227	-1.9742924685	 1.0871542909	-0.044712
C	 0.688091575	-2.3085341118	 0.7525940514	-0.303454
C	 0.8710592215	-0.8037194349	 1.0814827804	 0.339459
O	 2.100634278	-0.1755607957	 1.2762579504	-0.502963
C	-0.2193899613	-1.0233222099	 2.1942894245	-0.286642
H	 0.8696042141	 1.6312524384	 0.1688123597	 0.289505
H	-0.8277622064	-0.0957918197	-1.9786093102	 0.115835
H	 0.1937521935	-1.5725722304	-1.6939133497	 0.109074
H	-2.1959797812	-0.5060323406	 0.0539720031	 0.096663
H	-1.5016820839	-2.7662879067	 1.3266166354	 0.068141
H	 1.1340024898	-2.9427303583	 1.5235297825	 0.088597
H	 0.9572803025	-2.6877989581	-0.2330203715	 0.09964
H	 2.5275908325	-0.5564958169	 2.0494560063	 0.284125
H	-0.8159370456	-0.1558254489	 2.4846096862	 0.108521
H	 0.1558031499	-1.5567003445	 3.073821069	 0.080407
174.2644	208.6695	254.309	330.321	343.0077	383.6005	435.1267	469.1861	520.1546	552.2382	603.6752	627.9051	728.2928	795.3968	841.2537	862.4382	905.0245	925.8897	942.4324	962.2203	987.7512	1016.8866	1022.507	1046.8181	1061.8659	1080.9528	1095.881	1125.454	1159.5458	1193.4669	1202.9448	1226.5178	1263.6443	1275.1075	1294.7603	1327.0631	1390.5418	1415.1587	1482.6027	1498.4398	1535.44	3047.3312	3069.5914	3122.1079	3127.5173	3127.7527	3137.7966	3181.8405	3215.4352	3786.5496	3828.9932
OC12CC1C1CC2(O)C1	O[C@]12C[C@H]1[C@H]1C[C@]2(O)C1	
InChI=1S/C7H10O2/c8-6-1-4(2-6)5-3-7(5,6)9/h4-5,8-9H,1-3H2	InChI=1S/C7H10O2/c8-6-1-4(2-6)5-3-7(5,6)9/h4-5,8-9H,1-3H2/t4-,5-,6-,7+/m0/s1
