17
gdb 27905	1.82319	1.81828	0.91199	1.6573	81.85	-0.1876	0.0338	0.2214	1226.7761	0.137876	-418.077591	-418.069211	-418.068266	-418.109773	33.798	
N	-0.0302866292	 1.3897719228	-0.1698331995	-0.593273
C	-0.0024950183	-0.0047091732	-0.0675249746	 0.362021
C	-1.1982556263	-0.7338235346	-0.1000135642	-0.382286
C	-1.1505046149	-2.1260610294	-0.0626541417	 0.434059
O	-2.2854677777	-2.884439932	-0.0952964229	-0.447601
C	 0.0604526064	-2.8076689463	 0.009142264	-0.3157
C	 1.2533534979	-2.0782641787	 0.0459414458	 0.360155
N	 2.4747502099	-2.7424213551	 0.1825603982	-0.593173
C	 1.2183323817	-0.6795197392	 0.0064456477	-0.292268
H	 0.7781949675	 1.8504980785	 0.2226831168	 0.243295
H	-0.8844573456	 1.8147426877	 0.161253646	 0.242301
H	-2.1521404154	-0.2170276328	-0.1646442508	 0.059845
H	-3.0468622989	-2.2987323519	-0.1535769313	 0.292961
H	 0.0600083239	-3.8909242059	 0.0423343546	 0.081431
H	 2.4702300953	-3.6962496122	-0.148549697	 0.244796
H	 3.2704829544	-2.2346696695	-0.1759923442	 0.242574
H	 2.1458582093	-0.1149582182	 0.034793273	 0.060863
201.1329	225.8428	230.8363	297.2099	303.0043	317.9597	324.1485	358.0493	519.0237	521.2284	529.5709	575.2917	596.7924	609.9075	645.445	671.4178	699.3655	761.8396	794.2282	821.0378	1001.0827	1011.3766	1023.2646	1125.8248	1128.2811	1186.6081	1214.5932	1232.2046	1330.3227	1383.7134	1412.2155	1523.9296	1545.5517	1641.4918	1651.7704	1660.1254	1668.7311	3153.2372	3161.0605	3194.2841	3560.0945	3562.6894	3657.131	3660.7446	3826.9753
NC1=CC(O)=CC(N)=C1	Nc1cc(O)cc(N)c1	
InChI=1S/C6H8N2O/c7-4-1-5(8)3-6(9)2-4/h1-3,9H,7-8H2	InChI=1S/C6H8N2O/c7-4-1-5(8)3-6(9)2-4/h1-3,9H,7-8H2
