19
gdb 57945	2.64555	0.76503	0.63309	1.1194	75.16	-0.1909	0.045	0.236	1742.1297	0.155279	-456.391606	-456.379921	-456.378977	-456.432082	38.754	
C	-0.7108760879	 1.1219102784	 0.9946902007	-0.324442
N	-0.1117650338	 0.1117561025	 0.14575345	-0.08694
C	 1.2915328264	-0.1419085898	 0.4629320216	-0.343786
C	-0.4994561603	 0.0971461439	-1.1985363116	 0.391906
N	-0.0450559632	-1.0545012475	-1.8787561751	-0.567439
H	-0.4085310736	-1.1062546871	-2.8208355642	 0.250465
H	-0.2569296512	-1.9058715778	-1.3697316851	 0.241777
C	-1.2341735584	 1.0466394557	-1.8018124864	-0.459137
C	 2.5523901335	-1.3984466601	-3.403822778	 0.591106
O	 3.2744222565	-1.3420844611	-2.4942054755	-0.293742
O	 1.8611461211	-1.465569728	-4.3374607165	-0.306796
H	-0.3094809898	 2.1342054845	 0.8147001628	 0.106401
H	-1.7910234481	 1.1468673236	 0.8346907587	 0.133034
H	-0.5148054607	 0.8669345831	 2.0410389583	 0.115792
H	 1.7135065093	-0.8604812476	-0.2372864009	 0.15104
H	 1.8965442452	 0.7789738502	 0.4107980661	 0.106952
H	 1.3726592691	-0.5420344327	 1.4793207096	 0.115175
H	-1.6264353202	 0.8869378503	-2.7983359088	 0.08332
H	-1.446635994	 1.9954114595	-1.3325799456	 0.095313
20.8312	23.8183	44.9675	75.1418	99.9387	113.2647	179.4055	252.2357	282.8357	323.864	378.6704	406.6478	486.3639	518.5123	620.0654	668.3469	689.6613	700.6448	757.254	767.2318	828.314	969.8607	1023.864	1080.4327	1126.8559	1144.5263	1180.5186	1250.7762	1282.3197	1376.6642	1399.932	1437.8357	1449.0877	1477.6768	1484.3417	1499.6449	1506.3386	1530.99	1627.764	1705.4974	2431.5024	2957.9053	2967.0235	3063.2007	3066.0726	3122.6475	3166.8592	3177.9329	3268.0699	3516.0264	3629.4813
CN(C)C(=[NH2+])CC([O-])=O	CN(C)C(=[NH2])[CH2].C(=O)=O	
InChI=1S/C5H10N2O2/c1-7(2)4(6)3-5(8)9/h6H,3H2,1-2H3,(H,8,9)	InChI=1S/C4H10N2.CO2/c1-4(5)6(2)3;2-1-3/h1,5H2,2-3H3;
