18
gdb 55140	3.48438	1.31673	1.1446	4.3465	70.87	-0.2434	0.0312	0.2746	1094.9083	0.149009	-439.095881	-439.087845	-439.086901	-439.129191	30.598	
N	-0.0153062911	 1.2501166886	-0.2842412036	-0.526091
C	 0.0686005897	-0.0574338947	 0.098789998	 0.403537
O	 1.0943265274	-0.5397881774	 0.5380950028	-0.365987
C	-1.231576939	-0.8552980135	 0.0136337592	-0.110062
C	-2.1210763401	-0.6791802985	-1.2650885763	-0.263878
C	-2.0810333416	-2.1536268646	-1.7264026047	 0.0858
C	-2.3552280948	-2.9603977787	-0.4386896626	-0.242926
C	-0.9598451836	-2.3689587635	-0.1456937886	 0.091315
O	-0.6648890394	-2.4708974876	-1.5759490109	-0.295799
H	 0.8231913625	 1.8067401917	-0.2543263382	 0.260845
H	-0.8368901506	 1.6355782922	-0.7137667465	 0.258352
H	-1.7959691416	-0.643988551	 0.9293267463	 0.102863
H	-3.1306771468	-0.3180100936	-1.0515596015	 0.100587
H	-1.6634847325	-0.0322636541	-2.017323733	 0.10886
H	-2.4971524173	-2.4070693293	-2.7013862746	 0.080956
H	-3.2021024024	-2.6894772734	 0.1980529082	 0.091767
H	-2.3114067705	-4.0350841336	-0.6155535478	 0.115431
H	-0.2124102483	-2.818111809	 0.5024659838	 0.104432
40.2969	126.1298	149.2587	208.075	339.2846	404.193	428.9864	517.1261	554.6251	626.8839	663.6583	750.345	817.2597	836.4863	850.6657	878.655	886.5605	940.7481	968.6481	988.3362	1000.687	1039.1376	1083.3279	1089.3265	1102.5031	1150.6125	1196.4421	1227.5575	1229.7927	1255.8741	1283.6151	1286.215	1322.1	1338.6735	1375.3497	1479.9097	1493.3403	1614.4286	1791.5398	3044.244	3060.2142	3064.529	3112.5476	3123.5929	3145.432	3171.2925	3605.4257	3743.3065
NC(=O)C1CC2CC1O2	NC(=O)[C@H]1C[C@@H]2C[C@H]1O2	
InChI=1S/C6H9NO2/c7-6(8)4-1-3-2-5(4)9-3/h3-5H,1-2H2,(H2,7,8)	InChI=1S/C6H9NO2/c7-6(8)4-1-3-2-5(4)9-3/h3-5H,1-2H2,(H2,7,8)/t3-,4+,5-/m1/s1
