17
gdb 39165	3.1636	1.8103	1.31648	2.6704	73.35	-0.2466	0.0148	0.2614	958.431	0.139853	-417.99981	-417.993106	-417.992162	-418.030832	26.783	
C	 0.0084074042	 1.4199518746	-0.2229494111	-0.161788
C	 1.439846526	 1.9687932723	 0.1355868291	-0.367205
C	 2.2477210097	 0.6912932661	 0.0975795105	 0.268376
N	 3.4242544949	 0.4267037158	-0.7438079652	-0.371217
C	 3.4641212398	 0.0589384867	 0.6732243247	-0.138357
C	 3.0567192416	-1.3761632659	 1.0031209754	-0.122436
O	 1.7471749159	-1.5882186651	 0.4116355062	-0.263513
C	 1.2173032117	-0.373204181	 0.1455872807	 0.404352
N	 0.0037894893	-0.0469034245	-0.0001341385	-0.32588
H	-0.7684155391	 1.8753376361	 0.3976782124	 0.114329
H	-0.2533110474	 1.6302194965	-1.2670115495	 0.114551
H	 1.808047238	 2.7135184073	-0.5718666376	 0.12454
H	 1.4369860628	 2.4164738146	 1.1338531556	 0.116904
H	 3.2872428213	-0.3918054576	-1.3369829002	 0.238259
H	 4.1996914936	 0.5599122504	 1.2932019588	 0.11318
H	 3.732226404	-2.1304748214	 0.5877466466	 0.12799
H	 2.9810010338	-1.5256378449	 2.0865693122	 0.127914
125.7339	223.3151	259.2033	311.1573	420.5621	449.3043	614.3341	640.7184	720.5837	728.9367	759.5621	822.041	853.0626	863.1044	913.8184	940.9888	974.2739	1018.8216	1040.2978	1073.7972	1086.5655	1099.5311	1175.4024	1185.8165	1196.8209	1232.8823	1241.971	1281.6859	1287.7938	1322.7353	1344.5214	1402.43	1450.9265	1481.3869	1505.4447	1511.0638	1764.9985	3035.5298	3037.7194	3061.3412	3085.5199	3088.7912	3124.9135	3175.7377	3453.2496
C1CC23NC2COC3=N1	C1C[C@@]23N[C@@H]2CO[C]3[N]1	
InChI=1S/C6H8N2O/c1-2-7-5-6(1)4(8-6)3-9-5/h4,8H,1-3H2	InChI=1S/C6H8N2O/c1-2-7-5-6(1)4(8-6)3-9-5/h4,8H,1-3H2/t4-,6-/m1/s1
