19
gdb 53181	3.03516	1.11161	1.02532	0.2427	89.1	-0.2158	0.0201	0.2358	1283.5669	0.159488	-348.730788	-348.722086	-348.721142	-348.765581	32.185	
C	 0.0533274119	 1.5228643976	-0.0618715111	-0.498931
C	 0.0020652854	 0.0680862857	-0.0400390251	 0.061061
C	-0.0464550756	-1.1363734379	-0.030764981	 0.108158
C	-0.065104459	-2.5689963703	-0.0166639747	-0.223146
C	-0.4585586265	-3.3696103614	 1.2178706933	-0.06362
C	-1.2180009445	-2.6515423818	 2.3330234542	-0.279102
C	-2.5255545205	-2.2584499203	 1.6771315551	-0.060547
C	-2.6027663159	-2.6866930783	 0.4153498994	-0.074123
C	-1.3609961106	-3.3975030241	 0.0018744683	-0.091537
H	 0.9054739065	 1.9046901138	 0.5121020114	 0.14391
H	 0.1469260865	 1.9048383319	-1.0848826262	 0.145134
H	-0.8554636981	 1.9576992555	 0.3692796079	 0.146117
H	 0.7322631607	-3.0310869155	-0.5942226975	 0.104734
H	 0.1716181951	-4.2138620272	 1.4711002164	 0.087446
H	-1.3764820134	-3.31158552	 3.1957549091	 0.104267
H	-0.6727675696	-1.7736019401	 2.7033167857	 0.119007
H	-3.2753507288	-1.6637777548	 2.1863315189	 0.091675
H	-3.4330471364	-2.5166068426	-0.2597822164	 0.09233
H	-1.409393987	-4.2449136003	-0.6733461378	 0.087167
24.2928	81.6524	98.5071	222.3882	232.539	324.9954	373.1723	430.5434	524.3942	584.5815	694.8098	726.4587	757.9815	772.0101	801.9087	854.9368	927.581	934.1699	953.3807	976.8058	1006.7978	1023.6721	1052.4452	1053.3066	1058.0893	1102.5147	1109.1028	1135.731	1192.2625	1228.8877	1298.9603	1308.1644	1356.8817	1376.7348	1402.7724	1415.8933	1470.0446	1478.0191	1480.0891	1668.6147	2364.7574	3017.809	3022.6367	3046.4243	3080.1128	3083.4766	3127.7393	3164.6228	3179.9125	3189.267	3214.2232
CC#CC1C2CC=CC12	CC#C[C@H]1[C@H]2CC=C[C@@H]12	
InChI=1S/C9H10/c1-2-4-7-8-5-3-6-9(7)8/h3,5,7-9H,6H2,1H3	InChI=1S/C9H10/c1-2-4-7-8-5-3-6-9(7)8/h3,5,7-9H,6H2,1H3/t7-,8+,9-/m1/s1
