21
gdb 42122	2.23111	1.60525	1.03229	1.4082	84.82	-0.2444	0.0253	0.2697	1198.1598	0.184597	-387.054256	-387.045677	-387.044733	-387.087065	33.361	
C	 0.1169129352	 1.279812827	-0.4101200876	-0.17721
C	 0.955371581	 2.5744361909	-0.3661998694	-0.197094
C	 1.169514967	 3.2513727249	 0.9936054209	-0.060681
O	-0.0481586461	 3.7633009607	 1.5387404424	-0.24512
C	-0.3805568887	 3.2840712473	 2.8378642168	-0.201622
C	-0.4771654986	 1.8230962998	 2.8130282589	 0.001333
C	-0.3647671019	 0.7000333281	 2.3893293126	 0.109117
C	-0.1166628241	-0.4492577481	 1.5304955334	-0.343373
C	 0.7194047588	 0.0444460405	 0.3136418864	-0.183485
H	-0.8761677894	 1.4980265243	-0.0059110774	 0.118603
H	-0.0334752807	 1.0321939131	-1.4667400969	 0.090979
H	 1.9522928072	 2.3775049548	-0.785810357	 0.090112
H	 0.484528117	 3.3090623674	-1.0309943839	 0.10417
H	 1.6445244239	 2.5589555445	 1.6973681961	 0.103193
H	 1.8537803821	 4.1003956603	 0.8565374721	 0.093888
H	 0.3600828302	 3.6128777205	 3.584500309	 0.113421
H	-1.3327777647	 3.7591237498	 3.0945042503	 0.132766
H	 0.4173798639	-1.251979763	 2.0519682171	 0.122112
H	-1.0650479288	-0.8786235617	 1.1827025515	 0.127582
H	 0.8241426825	-0.7926557735	-0.3852799257	 0.096561
H	 1.7300791641	 0.2741487525	 0.6700762104	 0.104749
142.0272	149.7578	182.6398	192.0406	258.6134	346.7701	367.7288	371.3985	392.8415	482.6632	541.0089	597.6109	708.4583	758.0671	794.3361	842.0406	867.2379	926.6291	992.7431	1002.1392	1019.661	1041.989	1093.0078	1098.1652	1124.599	1147.6107	1194.1289	1209.9241	1252.4835	1268.6238	1288.5521	1332.6376	1336.9751	1354.1245	1376.3431	1385.735	1397.5113	1421.953	1469.1561	1480.628	1487.6805	1489.715	1492.4906	1500.3726	2344.0097	2975.7202	3000.4244	3015.6838	3023.6767	3031.5047	3039.5882	3051.701	3059.1021	3068.8224	3072.5239	3077.508	3087.6319
C1CCOCC#CCC1	C1CCOCC#CCC1	
InChI=1S/C8H12O/c1-2-4-6-8-9-7-5-3-1/h1-3,5,7-8H2	InChI=1S/C8H12O/c1-2-4-6-8-9-7-5-3-1/h1-3,5,7-8H2
