23
gdb 118073	2.23991	0.92699	0.77137	3.453	78.97	-0.2447	0.0727	0.3174	1610.3203	0.203023	-462.557414	-462.546141	-462.545197	-462.594693	40.309	
C	-0.1835662465	 1.5572483103	 0.0800408992	-0.387255
C	-0.0677310739	 0.0466215384	 0.1962935665	-0.038939
O	-1.34867706	-0.5162163007	-0.0258259655	-0.278875
C	-1.4172595966	-1.9417385711	-0.0419551998	 0.107344
C	-1.3717642146	-2.5328624226	 1.3680238293	-0.409215
C	-2.7370899235	-2.2634976225	-0.7589114334	 0.104326
O	-3.8133839677	-1.5379101189	-0.1632813207	-0.451659
C	-2.6982213368	-1.9591090684	-2.260612121	-0.071417
O	-3.9745665608	-2.1429855535	-2.8354043129	-0.428408
H	 0.7915557766	 2.0260836995	 0.2414378572	 0.119768
H	-0.5458502285	 1.8405233602	-0.9122303876	 0.128936
H	-0.8821491475	 1.9477655267	 0.8256681176	 0.127215
H	 0.6443491103	-0.3461829825	-0.5473053917	 0.092414
H	 0.3133389961	-0.2300388198	 1.1904554215	 0.095921
H	-0.5814147811	-2.338640515	-0.641142609	 0.07055
H	-1.3829855539	-3.6263050523	 1.3192123751	 0.119891
H	-0.4664818404	-2.2338677763	 1.9030525753	 0.11594
H	-2.2446846278	-2.2029081095	 1.9372545359	 0.136076
H	-2.9796394006	-3.3232327103	-0.6214531597	 0.088093
H	-3.4711242352	-0.6441863914	-0.0226068534	 0.292468
H	-2.3283513578	-0.9312878506	-2.4072219165	 0.084867
H	-2.0059258835	-2.6409724316	-2.7684698756	 0.097335
H	-4.5909090261	-1.7636084378	-2.1946460609	 0.284627
41.7696	68.0756	92.4857	114.986	175.1627	187.104	226.0654	250.1456	299.9081	320.0988	338.446	402.7448	447.9301	502.2491	528.4749	568.168	671.8775	818.2671	826.3815	869.629	943.3144	960.7563	1004.3478	1032.9885	1086.4845	1094.1828	1115.6477	1144.9908	1150.8233	1164.8946	1187.7727	1207.9271	1291.3271	1296.1379	1302.4315	1353.1263	1363.2693	1395.0493	1402.3654	1402.6647	1429.1329	1441.5304	1447.0434	1483.9543	1491.633	1494.761	1500.3228	1512.0079	1530.474	2969.6368	2975.6152	2977.4921	3008.6175	3044.4694	3045.3204	3050.3142	3065.2467	3113.1194	3120.2155	3122.1558	3129.7144	3753.6237	3760.0984
CCOC(C)C(O)CO	CCO[C@@H](C)[C@@H](O)CO	
InChI=1S/C6H14O3/c1-3-9-5(2)6(8)4-7/h5-8H,3-4H2,1-2H3	InChI=1S/C6H14O3/c1-3-9-5(2)6(8)4-7/h5-8H,3-4H2,1-2H3/t5-,6-/m0/s1
