13
gdb 42295	2.77123	1.34823	0.99843	3.3326	65.92	-0.281	-0.0793	0.2016	1120.2798	0.087258	-456.557283	-456.549079	-456.548135	-456.591296	28.606	
O	 0.1358323959	-0.1247707534	-0.3257099444	-0.277755
C	 0.0142644134	 1.0613557712	-0.1138695556	 0.228967
C	 1.1371279038	 1.9253430781	 0.1759395897	 0.270458
C	 2.0532307215	 2.6675396295	 0.4165155548	-0.393933
C	-1.3390861576	 1.7538133898	-0.1092858548	-0.304494
C	-2.5755543947	 0.8716171386	-0.3011796784	-0.104009
O	-3.0249582227	 1.1865881232	 1.0633960017	-0.228865
C	-1.9463321323	 1.9851641076	 1.3009164948	 0.453172
O	-1.6713586032	 2.5948065408	 2.2793423046	-0.30256
H	 2.8712795669	 3.3108475907	 0.635554234	 0.226005
H	-1.2997255151	 2.6785538009	-0.68904181	 0.143398
H	-3.3065687932	 1.2152350802	-1.0335347839	 0.131803
H	-2.3643253827	-0.1919049372	-0.4058214025	 0.157813
39.4826	104.7151	124.6059	177.3478	248.0603	298.803	440.1731	493.5294	578.3915	622.6733	659.8217	716.3023	723.6402	755.1913	826.4549	922.3962	961.5239	1011.837	1068.2206	1095.1879	1140.1411	1158.7257	1165.6147	1325.2959	1345.9185	1513.0404	1766.3335	1942.7184	2217.1319	3094.5227	3103.52	3167.912	3492.6223
O=C(C#C)C1COC1=O	O=C(C#C)[C@H]1COC1=O	
InChI=1S/C6H4O3/c1-2-5(7)4-3-9-6(4)8/h1,4H,3H2	InChI=1S/C6H4O3/c1-2-5(7)4-3-9-6(4)8/h1,4H,3H2/t4-/m1/s1
