19
gdb 83812	2.19511	1.77462	1.3988	2.1349	76.74	-0.2214	0.0084	0.2299	1031.1337	0.159274	-423.007778	-422.999476	-422.998532	-423.040145	32.582	
C	 0.0265775262	 1.5544318567	-0.0829921763	-0.466284
C	-0.0140605683	 0.0387416703	-0.039608316	 0.195413
C	-1.2852764649	-0.5903245053	-0.4785127513	-0.105986
C	-1.8896821554	-1.5166437735	 0.2624227115	-0.096603
C	-1.2583989731	-2.0045752947	 1.5412295619	-0.127716
O	 0.1671083808	-1.9082991478	 1.517461582	-0.274707
C	 0.6734360004	-0.6606290275	 1.1170568727	-0.031827
C	 1.3142035292	-0.702141024	-0.2500552536	 0.074904
O	 1.381226154	-1.9226316641	-0.9005648308	-0.425576
H	 0.9989274681	 1.9346800187	 0.2469386759	 0.117085
H	-0.142648362	 1.9194647308	-1.1025689813	 0.123005
H	-0.7410470243	 1.9930498154	 0.564457254	 0.120759
H	-1.7165961204	-0.249969523	-1.4165855323	 0.094012
H	-2.8397427819	-1.9538788307	-0.0287519343	 0.098016
H	-1.6575235631	-1.454644663	 2.4093168046	 0.110547
H	-1.4740798485	-3.0650918728	 1.7048737317	 0.11942
H	 1.1057900489	-0.0798225702	 1.9300502282	 0.089327
H	 2.1863945605	-0.0817230312	-0.439288146	 0.096231
H	 0.9979139239	-2.5669543941	-0.2876431808	 0.289981
133.2352	156.2591	200.1868	245.1612	282.0395	295.1142	385.7039	415.8991	487.8653	519.5481	560.0437	634.3812	672.2248	748.8171	816.1774	827.5526	894.9874	922.5191	953.0963	990.5119	1016.8653	1041.759	1048.7816	1083.9309	1117.1344	1153.681	1169.3061	1205.6513	1221.2375	1267.3463	1313.3833	1328.9219	1356.4135	1406.346	1411.6052	1418.3492	1449.4291	1488.9739	1493.1366	1500.2589	1712.1343	2972.2384	3022.5079	3074.3273	3087.	3095.4157	3111.8015	3142.7833	3153.6655	3183.0112	3724.5653
CC12C=CCOC1C2O	C[C@]12C=CCO[C@H]1[C@H]2O	
InChI=1S/C7H10O2/c1-7-3-2-4-9-6(7)5(7)8/h2-3,5-6,8H,4H2,1H3	InChI=1S/C7H10O2/c1-7-3-2-4-9-6(7)5(7)8/h2-3,5-6,8H,4H2,1H3/t5-,6+,7-/m1/s1
