18
gdb 100204	2.73555	1.23996	1.05033	0.9652	68.02	-0.2487	-0.0461	0.2025	1180.548	0.146324	-476.19155	-476.182295	-476.181351	-476.225748	33.979	
O	 0.0865895966	 1.4127977562	 0.1779483349	-0.435504
C	 0.148092229	 0.0072520633	-0.019125198	-0.117546
C	-1.2638343415	-0.5904749539	 0.0504628973	 0.224803
O	-1.9236615952	-0.1235827409	 1.2253189364	-0.469473
C	-2.1305378887	-0.071871501	-1.1072816305	 0.132848
O	-1.7850177334	 0.7848604926	-1.8864671417	-0.270653
C	-1.2573227253	-2.1069243614	 0.0599226555	-0.034696
C	-1.0386242581	-2.8472186464	 1.3262770367	-0.243533
N	-2.3649982809	-2.8463680819	 0.6827835314	-0.331463
H	-0.3076776888	 1.7715443694	-0.6289538912	 0.302651
H	 0.626776164	-0.2523146025	-0.9717062771	 0.111539
H	 0.7505821596	-0.4019972958	 0.7963620646	 0.123474
H	-1.5800213804	 0.7737188677	 1.3597305808	 0.299492
H	-3.1511735536	-0.506731039	-1.1412342125	 0.111142
H	-0.9024660351	-2.5470729914	-0.8707346116	 0.099571
H	-0.5169595494	-3.7993191045	 1.3080116001	 0.121294
H	-0.9140660421	-2.2615033221	 2.231391076	 0.126985
H	-2.9539851666	-2.1815792881	 1.1812201687	 0.24907
79.3954	90.6144	150.7008	173.328	223.4849	268.4878	324.3728	338.9726	385.0313	440.6594	509.984	523.77	644.1231	671.6966	809.7157	841.8114	866.2002	919.4655	959.4609	981.1454	997.4719	1060.7504	1076.9827	1100.7131	1133.5459	1152.4197	1170.527	1233.2513	1239.4057	1281.7418	1305.5443	1351.1879	1382.2762	1407.4474	1424.7519	1444.9713	1489.9256	1498.0946	1806.9301	2924.0742	3030.4432	3102.2294	3118.2347	3122.3818	3211.4663	3493.4616	3705.9087	3760.0858
OCC(O)(C=O)C1CN1	OC[C@@](O)(C=O)[C@H]1CN1	
InChI=1S/C5H9NO3/c7-2-5(9,3-8)4-1-6-4/h2,4,6,8-9H,1,3H2	InChI=1S/C5H9NO3/c7-2-5(9,3-8)4-1-6-4/h2,4,6,8-9H,1,3H2/t4-,5+/m1/s1
