17
gdb 101987	2.5692	0.85381	0.659	2.8735	76.77	-0.2315	-0.081	0.1505	1627.4464	0.132051	-455.153691	-455.143149	-455.142205	-455.19154	34.645	
C	 0.0599299314	 1.3694736847	 0.0627196819	-0.311336
N	-0.0152087257	-0.0706361982	 0.1296777454	-0.303726
C	-1.1921337856	-0.7384393847	 0.2116747976	 0.27477
C	-0.9922689457	-2.2380737337	 0.2118469171	 0.115847
O	 0.1005373368	-2.7437512586	 0.1195766822	-0.259264
N	-2.3139230665	-0.115084961	 0.2595812296	-0.315014
C	-3.5842007809	-0.7820875742	 0.4049840662	-0.252034
C	-4.5508168113	 0.128842637	 1.1579109869	 0.163094
O	-5.5208432201	-0.2636017321	 1.7492950207	-0.239876
H	 1.1086237863	 1.6714640435	 0.0728793743	 0.127114
H	-0.4163890812	 1.7568579887	-0.8464297743	 0.135448
H	-0.4535578509	 1.8218522803	 0.9178504772	 0.142224
H	 0.8090029177	-0.6412429302	 0.0340563177	 0.264872
H	-1.9058614947	-2.8534957298	 0.2816692962	 0.111176
H	-4.0477454469	-0.9439361748	-0.5839326424	 0.135382
H	-3.5872418435	-1.75364734	 0.9160341795	 0.122358
H	-4.2796578091	 1.205825193	 1.0970113641	 0.088966
24.787	65.1847	73.7141	109.0373	124.4085	178.0327	212.2905	221.2675	311.4892	359.9559	438.8792	494.6235	565.3187	582.1762	676.2664	726.9685	845.7715	1016.7004	1045.4817	1063.1303	1085.5376	1135.7463	1159.3943	1207.9099	1236.076	1284.9099	1344.2599	1393.7702	1420.1558	1445.9908	1456.8732	1472.5684	1511.7156	1556.2872	1710.138	1799.9414	1842.2104	2899.4446	2958.3281	2986.1344	3024.122	3036.3233	3076.3158	3135.9817	3648.0383
CNC(C=O)=NCC=O	CNC(=NCC=O)C=O	
InChI=1S/C5H8N2O2/c1-6-5(4-9)7-2-3-8/h3-4H,2H2,1H3,(H,6,7)	InChI=1S/C5H8N2O2/c1-6-5(4-9)7-2-3-8/h3-4H,2H2,1H3,(H,6,7)
