20
gdb 13181	3.28914	1.39034	1.04899	2.7436	75.84	-0.2434	-0.0185	0.2249	1153.249	0.175852	-349.008917	-349.000036	-348.999092	-349.043158	31.912	
C	 0.0239988461	 1.5280323249	-0.082962211	-0.41521
C	 0.0596789912	-0.0045842855	 0.0386948818	-0.085455
C	 0.735782414	-0.4031891674	 1.3349522398	 0.169683
O	 1.6839024609	-1.1386757382	 1.4329814801	-0.254875
C	-1.3508185192	-0.6066358743	 0.007192256	 0.054465
C	-2.1823199118	-0.4922436094	-1.304343757	-0.23516
C	-2.6976050177	-1.9357868038	-1.0546805792	-0.215714
C	-1.514091154	-2.1520339903	-0.0743286548	-0.236102
H	 1.0326852923	 1.9493751444	-0.1288560146	 0.127138
H	-0.5099799914	 1.8274967812	-0.9893954404	 0.129923
H	-0.4922792317	 1.9796543556	 0.7720891166	 0.120115
H	 0.6510345546	-0.4347130677	-0.7779112678	 0.087639
H	 0.2628460856	 0.0447356989	 2.2436712943	 0.064528
H	-1.9333404474	-0.2122100616	 0.8497263651	 0.070964
H	-2.9193073864	 0.3112672464	-1.374173388	 0.098611
H	-1.5299843648	-0.4438195233	-2.1826272732	 0.102353
H	-3.6603382481	-1.937763173	-0.5358817694	 0.10398
H	-2.7688475666	-2.6017175221	-1.9173362556	 0.100368
H	-0.6541751898	-2.614908117	-0.5685673984	 0.111241
H	-1.7090272959	-2.6935655976	 0.8542877557	 0.101507
48.955	77.2148	125.2397	174.1896	209.5567	285.9729	291.2611	385.9546	427.1103	512.6138	647.5173	768.4975	783.8975	889.1432	893.6335	935.4831	942.0279	953.2662	967.0052	1011.5037	1020.4282	1083.2014	1118.1807	1156.2016	1185.0127	1205.6168	1233.4478	1258.2922	1262.791	1271.9673	1289.9048	1298.8756	1323.6102	1378.8585	1404.4392	1428.5941	1479.2472	1487.212	1496.201	1499.3708	1510.9342	1832.6764	2828.4801	3020.3567	3032.7251	3047.087	3048.9846	3056.246	3061.4459	3099.4192	3101.0741	3105.339	3113.1581	3120.8737
CC(C=O)C1CCC1	C[C@@H](C=O)C1CCC1	
InChI=1S/C7H12O/c1-6(5-8)7-3-2-4-7/h5-7H,2-4H2,1H3	InChI=1S/C7H12O/c1-6(5-8)7-3-2-4-7/h5-7H,2-4H2,1H3/t6-/m0/s1
