17
gdb 97603	4.40493	0.58915	0.54457	1.4616	80.66	-0.2592	0.0182	0.2774	1968.5961	0.131956	-421.745478	-421.734733	-421.733789	-421.783354	36.942	
O	 0.3059590545	 0.9110929408	 0.8157017882	-0.399029
C	-0.0535943802	 0.1370304252	-0.3193128173	-0.197734
C	-1.3707338304	-0.4902274117	-0.2087817082	 0.082753
C	-2.4695739838	-0.9775861067	-0.1171020725	 0.02997
C	-3.7874175643	-1.59536391	 0.0550229815	-0.05925
O	-3.6970202906	-2.936393722	 0.5064198542	-0.404
C	-4.6680582371	-0.7224158615	 0.9935402115	-0.364165
C	-6.0233055476	-1.2350418772	 1.1310031656	 0.311532
C	-7.1450546544	-1.653987364	 1.2278926923	-0.44069
H	-0.3937867638	 1.5566706011	 0.9597436828	 0.287892
H	-0.0145217213	 0.7341186136	-1.2443077966	 0.122935
H	 0.719289799	-0.63405457	-0.4105018816	 0.146307
H	-4.2920443138	-1.6593662877	-0.9156067542	 0.130918
H	-3.1079433632	-2.9501667523	 1.2693002144	 0.286324
H	-4.1781184013	-0.6680142008	 1.9741624363	 0.130769
H	-4.6876051242	 0.3008735796	 0.5996397203	 0.138178
H	-8.1346045076	-2.0275931564	 1.3200599434	 0.197291
18.7796	56.1469	65.4543	128.2594	145.3577	226.8386	267.7028	307.7017	333.482	350.7989	355.5608	414.6591	534.5577	547.5563	602.3696	620.6829	647.5177	803.133	862.3945	970.3434	982.1906	1007.5552	1049.3851	1073.5064	1143.6181	1196.8843	1214.7804	1270.7261	1311.0432	1351.7517	1361.659	1414.9197	1424.3981	1462.3995	1487.8365	2243.1451	2352.8474	2979.758	3024.2463	3050.231	3066.1939	3067.262	3507.1708	3802.4508	3816.5583
OCC#CC(O)CC#C	OCC#C[C@@H](O)CC#C	
InChI=1S/C7H8O2/c1-2-4-7(9)5-3-6-8/h1,7-9H,4,6H2	InChI=1S/C7H8O2/c1-2-4-7(9)5-3-6-8/h1,7-9H,4,6H2/t7-/m0/s1
