19
gdb 65681	3.76072	0.98897	0.94831	2.0087	75.88	-0.2439	-0.0239	0.22	1301.467	0.157352	-422.999497	-422.990475	-422.989531	-423.033909	33.331	
O	-0.3269987777	 1.4111277251	-0.1753096181	-0.471998
C	-0.1240701656	 0.026575212	-0.0216728315	 0.387724
C	 1.0617772377	-0.4950534548	-0.8282169635	-0.333831
C	 2.3833012446	 0.0196300083	-0.3011379359	 0.158995
O	 3.3400887652	-0.6675857099	-0.0518426324	-0.239622
C	-0.4089329899	-0.6731618566	 1.2787163981	-0.131973
C	-1.5680718701	 0.0029069962	 2.0219625026	-0.239146
C	-2.4779878764	-0.18750922	 0.7670699835	-0.231098
C	-1.3169277934	-0.8740789619	 0.0385015163	-0.107706
H	 0.1401945423	 1.8702155285	 0.5300932357	 0.287061
H	 1.094498188	-1.5876609924	-0.8374208378	 0.12226
H	 0.9477828883	-0.1393881121	-1.8615825591	 0.131032
H	 2.4198719534	 1.1236932723	-0.1507462151	 0.067766
H	 0.3127673477	-1.3512223024	 1.721396101	 0.095898
H	-1.9110901841	-0.5840976061	 2.8759921801	 0.108764
H	-1.3966984111	 1.0313861108	 2.3547176043	 0.089498
H	-3.3119940977	-0.864690042	 0.9598451469	 0.104779
H	-2.8526924793	 0.7225735439	 0.293876597	 0.113161
H	-1.404471632	-1.7337060689	-0.6163383821	 0.088435
50.0317	72.951	153.4419	218.2219	225.8522	243.5466	312.7483	366.2746	436.9431	505.4148	576.0259	660.7277	749.4515	781.0071	818.9668	861.1669	868.4439	941.2524	966.8154	982.1546	1003.2949	1022.2555	1051.6723	1069.8125	1096.9871	1106.4035	1165.3039	1207.9422	1227.6737	1251.7214	1260.9623	1275.3444	1287.5399	1306.0427	1328.5522	1419.9843	1435.1489	1447.1633	1473.1018	1498.6466	1834.4447	2860.5381	3023.0459	3051.9372	3072.8273	3106.9655	3107.3145	3129.1641	3165.8097	3177.1084	3813.6006
OC1(CC=O)C2CCC12	O[C@@]1(CC=O)[C@H]2CC[C@@H]12	
InChI=1S/C7H10O2/c8-4-3-7(9)5-1-2-6(5)7/h4-6,9H,1-3H2	InChI=1S/C7H10O2/c8-4-3-7(9)5-1-2-6(5)7/h4-6,9H,1-3H2/t5-,6+,7-
