17
gdb 19300	3.51492	1.82966	1.48018	3.932	62.99	-0.238	0.0649	0.3029	875.9994	0.143738	-400.942461	-400.935206	-400.934262	-400.973835	28.295	
O	 0.0540873961	 1.3804309669	 0.1753169265	-0.430579
C	 0.029411486	 0.0280958152	-0.250554698	-0.090374
C	-1.3697332861	-0.5637617268	-0.1066998815	-0.041012
C	-1.5543690378	-2.0855943698	-0.0783052511	-0.074473
N	-0.8397459746	-2.5748939813	 1.1319143525	-0.356633
C	-2.2194721513	-2.0396843271	 1.2527406497	-0.079837
C	-2.0087822249	-0.5232218741	 1.345813022	 0.116114
O	-1.183309578	-0.0806745621	 2.4003649762	-0.439302
H	-0.193964561	 1.3596960201	 1.1092477453	 0.290381
H	 0.3408774423	 0.022774968	-1.3010852253	 0.101584
H	 0.750818373	-0.5868610661	 0.3059977851	 0.093888
H	-2.0554414182	-0.0933706476	-0.8171054135	 0.081462
H	-1.7397245022	-2.7549551254	-0.9091006852	 0.099766
H	-0.8994206574	-3.5912417493	 1.1433203417	 0.237408
H	-3.0160474283	-2.6440530011	 1.6685954106	 0.097941
H	-2.9299881952	 0.0595472881	 1.3861586214	 0.096146
H	-0.5079804424	-0.7688605875	 2.4941882334	 0.297521
128.0396	147.3322	205.7459	272.4564	339.9286	471.0944	514.8936	582.3964	621.7148	645.1419	682.1568	784.0968	828.9898	848.9355	906.0872	943.2586	985.6347	990.167	1034.5254	1072.0122	1084.082	1104.2681	1115.2487	1129.754	1171.188	1200.1045	1244.7388	1271.2587	1312.7643	1326.7984	1335.3612	1377.1656	1400.2587	1442.3463	1447.038	1513.0569	3002.6525	3059.1994	3076.2592	3109.0123	3186.4406	3200.0204	3494.862	3728.1279	3757.1438
OCC1C2NC2C1O	OC[C@H]1[C@H]2N[C@H]2[C@H]1O	
InChI=1S/C5H9NO2/c7-1-2-3-4(6-3)5(2)8/h2-8H,1H2	InChI=1S/C5H9NO2/c7-1-2-3-4(6-3)5(2)8/h2-8H,1H2/t2-,3+,4+,5-/m0/s1
