16
gdb 49003	2.51264	1.5449	1.1317	2.9579	70.03	-0.246	-0.0462	0.1998	1066.0275	0.123254	-437.868973	-437.861024	-437.86008	-437.90193	29.511	
O	-0.7416848539	 1.3537336636	 0.7827333364	-0.256538
C	 0.1227245122	 1.0106937498	 0.0149468213	 0.106838
C	 1.4416322034	 1.7162339219	-0.14374028	 0.232149
C	 1.8682527469	 2.6715331089	 1.0077962658	-0.417727
C	 2.0628648054	 3.7940826846	-0.0233076704	 0.421247
O	 2.418186405	 4.9333885349	 0.0437491656	-0.292606
C	 1.6268103986	 2.9025480084	-1.1915154132	-0.219514
C	 2.8181698938	 2.0707342387	-1.7539966598	-0.176466
N	 2.4761406101	 0.9457720114	-0.8513966517	-0.366338
H	 0.0005762905	 0.1425247652	-0.6684753242	 0.089953
H	 1.0208372655	 2.8837274105	 1.6693809522	 0.166972
H	 2.7346596624	 2.3878633903	 1.6114762195	 0.127652
H	 0.8639517168	 3.2558505756	-1.8834943934	 0.11356
H	 2.72205995	 1.8052202084	-2.8111963769	 0.125439
H	 3.8007492382	 2.5324226025	-1.6018298973	 0.119656
H	 3.2313315152	 0.5922161855	-0.2740607239	 0.225723
73.5706	98.181	200.6975	238.4313	260.7263	347.3945	439.747	503.2685	530.7597	572.8247	692.7317	725.7996	757.5192	856.3342	864.3224	936.0136	951.4151	1002.0621	1008.3767	1061.2004	1081.004	1110.7825	1119.5505	1168.3155	1173.5805	1213.1255	1242.7526	1268.8698	1326.6055	1385.4811	1398.1424	1418.7494	1520.4928	1816.4557	1895.2463	2906.337	3029.9782	3052.167	3075.2497	3113.0423	3135.0774	3529.8448
O=CC12CC(=O)C1CN2	O=C[C@]12CC(=O)[C@H]1CN2	
InChI=1S/C6H7NO2/c8-3-6-1-5(9)4(6)2-7-6/h3-4,7H,1-2H2	InChI=1S/C6H7NO2/c8-3-6-1-5(9)4(6)2-7-6/h3-4,7H,1-2H2/t4-,6-/m1/s1
