16
gdb 130089	5.09495	1.28984	1.03744	1.9745	80.33	-0.1905	-0.0212	0.1692	1103.6557	0.127975	-396.958762	-396.951675	-396.950731	-396.990062	28.039	
N	-0.0959111928	 1.3267203047	 0.1503341881	-0.588718
C	 0.0431249583	-0.0590257864	 0.0491562425	 0.398685
N	-1.0403090478	-0.8456908506	 0.0298801129	-0.374622
N	-0.515920069	-2.0893601951	 0.0089686033	 0.033717
C	-1.1125904043	-3.4056322	-0.0097634786	-0.228764
C	 0.1290799467	-4.2759540474	-0.0351562481	-0.098807
C	 1.2384604284	-3.5142471005	-0.0286324442	-0.210976
C	 0.8402393431	-2.1145660261	 0.0004217649	 0.451818
C	 1.2593324248	-0.7955233337	 0.0283149947	-0.484293
H	 0.5698147461	 1.834950385	-0.4162880462	 0.243337
H	-1.0399092578	 1.6175983623	-0.0707664349	 0.248223
H	-1.7316194578	-3.5828558335	 0.8788567676	 0.141756
H	-1.7475941126	-3.552711836	-0.8926444632	 0.140067
H	 0.0807842583	-5.3553529761	-0.0541530702	 0.114331
H	 2.2608135943	-3.864558359	-0.0418234088	 0.116875
H	 2.2653268222	-0.4107128877	 0.0480281802	 0.097373
114.7908	230.8037	249.9276	307.078	332.5416	437.0623	519.2864	571.9465	646.0862	677.483	731.5337	750.2863	753.6595	776.1557	812.5929	899.13	941.4592	942.6904	982.8304	1007.7294	1091.4318	1114.5397	1161.5984	1172.0498	1196.7669	1283.2509	1337.1325	1358.4646	1440.5536	1459.4788	1487.6698	1516.3394	1586.9534	1628.6708	1647.0022	3025.8027	3055.7404	3229.324	3250.3051	3269.4124	3540.7646	3636.2185
NC1=NN2CC=CC2=C1	Nc1nn2CC=Cc2c1	
InChI=1S/C6H7N3/c7-6-4-5-2-1-3-9(5)8-6/h1-2,4H,3H2,(H2,7,8)	InChI=1S/C6H7N3/c7-6-4-5-2-1-3-9(5)8-6/h1-2,4H,3H2,(H2,7,8)
