23
gdb 77935	2.65743	1.40873	1.05475	1.6109	86.39	-0.2464	0.0816	0.328	1238.5253	0.204242	-388.227711	-388.217601	-388.216657	-388.262644	38.374	
C	-0.6791941498	 1.4105367395	 0.625379029	-0.491437
C	-0.221986821	-0.0363065626	 0.384099948	 0.05097
C	 1.1099123777	-0.3691260357	-0.3657704356	-0.159317
C	 1.8755466084	-0.0432416425	 0.9727161532	 0.189376
O	 2.0764995011	 1.2627339085	 1.4533260621	-0.464015
C	 0.6390898507	-0.8854679858	 1.3936248239	-0.175474
C	 0.9829539847	-1.8450088355	 0.1827531359	 0.366416
C	-0.1210999401	-2.7583992222	-0.3757076676	-0.466802
C	 2.2404661554	-2.7296351864	 0.2573660639	-0.472932
H	 0.091685957	 2.1554748634	 0.4199228887	 0.139131
H	-1.519844892	 1.6429577043	-0.0362459589	 0.117383
H	-1.04500203	 1.5575584766	 1.6500473944	 0.116773
H	-1.0863789255	-0.5830503332	 0.0172750786	 0.065472
H	 1.3863003898	-0.0701136196	-1.3798314814	 0.062175
H	 2.8484007076	-0.515361892	 1.0719928946	 0.071913
H	 1.2590348513	 1.6044660797	 1.8192459446	 0.286898
H	 0.3605286788	-1.1875428737	 2.4077228313	 0.059232
H	-1.1151731235	-2.318330699	-0.4411459195	 0.11879
H	 0.151938825	-3.09600318	-1.381907551	 0.116587
H	-0.2056929476	-3.6554985676	 0.2481281224	 0.114712
H	 2.0725562008	-3.5568950071	 0.9565519892	 0.115945
H	 2.4303940569	-3.177852663	-0.7244453935	 0.11543
H	 3.1577854942	-2.2288119162	 0.5616543876	 0.122774
50.555	82.2629	161.3825	180.7202	194.9544	254.7271	276.5432	294.6677	373.2753	428.7888	438.7722	464.747	497.6631	570.2693	700.0469	711.9471	813.6106	816.4461	877.2605	881.1518	952.1868	955.3379	999.414	1009.5792	1050.6312	1065.0197	1072.3378	1097.6383	1102.1218	1119.1097	1160.3566	1185.3492	1210.3763	1217.4585	1229.25	1273.6816	1296.254	1299.1701	1395.8058	1408.9846	1423.3493	1439.2626	1478.6019	1484.752	1500.8752	1507.5111	1515.2521	1526.5364	1535.977	3022.5436	3031.5335	3038.7721	3065.5083	3080.2127	3081.1199	3082.7576	3088.2286	3114.5539	3127.4776	3138.0208	3153.363	3169.2556	3876.7261
CC1C2C(O)C1C2(C)C	C[C@H]1[C@H]2[C@@H](O)[C@@H]1C2(C)C	
InChI=1S/C8H14O/c1-4-5-7(9)6(4)8(5,2)3/h4-7,9H,1-3H3	InChI=1S/C8H14O/c1-4-5-7(9)6(4)8(5,2)3/h4-7,9H,1-3H3/t4-,5-,6+,7+
