21
gdb 82856	2.47335	1.96126	1.6843	1.3398	79.45	-0.2447	0.0821	0.3269	943.838	0.186611	-387.10224	-387.095379	-387.094435	-387.133016	29.398	
C	-0.2724606852	 1.553949171	 0.0190911657	-0.424834
C	 0.0453472969	 0.0612089322	-0.0186115638	 0.047194
C	 0.7866045412	-0.4831572191	-1.2715154435	-0.086421
C	 2.0994235928	 0.2737541638	-1.594308881	-0.241985
C	 2.7762947355	-0.5176992504	-0.4505306371	-0.058594
C	 2.4023513942	 0.0553234764	 0.93767859	-0.222706
C	 0.9664987926	-0.4929491522	 1.0993162577	 0.041395
O	 1.1232339203	-1.861446222	 0.6932526246	-0.256643
C	 1.6529449117	-1.609305409	-0.5919318874	 0.113419
H	 0.6236680402	 2.1791796385	-0.020589775	 0.11854
H	-0.9087122053	 1.8389173438	-0.8254108887	 0.117675
H	-0.8110760531	 1.8119077711	 0.9376354454	 0.114172
H	-0.8962517167	-0.4935884898	 0.0677736475	 0.079298
H	 0.1157663145	-0.7295610796	-2.0959078491	 0.061822
H	 2.490170215	-0.0173582606	-2.574051055	 0.096296
H	 2.1035653482	 1.3651042542	-1.5314059649	 0.092193
H	 3.8262847228	-0.7944177335	-0.5496707555	 0.062931
H	 3.038913832	-0.3641087189	 1.7215401083	 0.104
H	 2.4717764043	 1.1453558609	 0.9863180746	 0.096993
H	 0.5537582434	-0.454730923	 2.1083715802	 0.069951
H	 1.8586550846	-2.5348005238	-1.125649923	 0.075304
196.0409	202.993	254.9907	377.7999	401.0476	519.4312	532.514	592.1931	618.7465	743.608	758.0019	804.6216	853.4486	865.9985	885.5122	914.6002	929.3392	946.994	962.4893	995.0612	1020.132	1029.5972	1059.8297	1074.9968	1094.1793	1108.7934	1143.0405	1148.0825	1179.6517	1216.3454	1219.3331	1252.7754	1266.0785	1281.4657	1290.4784	1311.5258	1340.9659	1349.1535	1361.0575	1376.8845	1415.576	1479.0693	1489.8479	1502.3991	1509.5268	3032.4715	3035.3366	3051.3646	3059.2471	3092.0409	3093.5556	3097.1527	3100.3357	3105.9306	3110.7021	3113.7603	3144.6283
CC1C2CC3CC1OC23	C[C@H]1[C@H]2C[C@H]3C[C@@H]1O[C@@H]23	
InChI=1S/C8H12O/c1-4-6-2-5-3-7(4)9-8(5)6/h4-8H,2-3H2,1H3	InChI=1S/C8H12O/c1-4-6-2-5-3-7(4)9-8(5)6/h4-8H,2-3H2,1H3/t4-,5-,6+,7-,8+/m0/s1
