16
gdb 126361	2.92548	1.33666	0.92786	4.1422	74.34	-0.2547	-0.0767	0.1781	1217.3566	0.125515	-434.109108	-434.101039	-434.100095	-434.142418	29.406	
C	-0.0695589193	 1.5476272131	 0.1115929078	-0.376248
C	 0.0181065519	 0.0305455728	-0.0304643876	-0.282696
C	 0.7267769467	-0.4523901217	-1.2723980148	 0.325991
N	 1.2047499392	 0.4104087376	-2.1194822638	-0.365919
C	 1.8565705512	-0.0515113358	-3.2616094777	 0.454118
O	 2.3403431004	 0.6507148717	-4.1176483357	-0.369447
N	 1.9291687529	-1.4542344064	-3.3780289908	-0.256383
N	 1.4501555985	-2.356947386	-2.5287856777	-0.143843
C	 0.8518177565	-1.8740537436	-1.4808420713	-0.045571
H	 0.9255453457	 1.9977723578	 0.136586217	 0.139101
H	-0.6026285012	 1.9908656211	-0.7327197736	 0.139101
H	-0.5953584695	 1.8094910296	 1.0338280271	 0.111755
H	 0.5290374868	-0.4130543748	 0.8360786311	 0.128935
H	-0.9847921844	-0.4198916304	-0.0250898719	 0.128935
H	 2.3963466499	-1.8217180153	-4.1963442376	 0.28338
H	 0.4531355149	-2.5928214697	-0.7742732404	 0.128791
60.3516	123.1442	167.9033	182.5011	241.4644	391.2896	422.5166	496.4443	561.491	605.7323	607.7873	723.1477	729.8584	793.5125	810.0176	891.2434	928.1153	1001.5439	1030.0509	1090.3313	1097.09	1122.9706	1197.7992	1237.4265	1282.9735	1372.9741	1417.6279	1424.5915	1427.2121	1456.9179	1491.0382	1497.8566	1572.8308	1653.6207	1823.9659	3011.7862	3035.1863	3054.9268	3127.24	3133.6493	3199.9712	3596.6329
CCC1=NC(=O)NN=C1	CCc1nc(=O)[nH]nc1	
InChI=1S/C5H7N3O/c1-2-4-3-6-8-5(9)7-4/h3H,2H2,1H3,(H,7,8,9)	InChI=1S/C5H7N3O/c1-2-4-3-6-8-5(9)7-4/h3H,2H2,1H3,(H,7,8,9)
