17
gdb 67171	2.9588	1.56587	1.50172	2.9125	73.45	-0.2264	0.0138	0.2402	967.1633	0.138177	-417.976408	-417.969256	-417.968311	-418.007809	28.423	
C	 0.035674703	 1.5499344487	-0.103549257	-0.519569
C	-0.0130624167	 0.0580991235	 0.0041363842	 0.28207
C	 0.4441586569	-1.0845891964	-0.8955080613	-0.10951
N	 1.1827239991	-1.7172016547	 0.1910986548	-0.305788
C	 0.4589688902	-0.8457934092	 1.1822307096	-0.153579
C	-0.7882460087	-1.5772980621	 1.6117759756	 0.419201
N	-1.0439158842	-2.0504404602	 2.7532603934	-0.552077
O	-1.5773258164	-1.7188536278	 0.4892297599	-0.247798
C	-1.0289934492	-0.8979396598	-0.5306723857	 0.025499
H	 1.054192958	 1.92703735	 0.036043992	 0.134155
H	-0.3101878191	 1.8790299046	-1.0886637724	 0.126987
H	-0.6060106716	 2.0225738894	 0.6485999785	 0.133313
H	 0.8095652673	-1.0897964631	-1.9172070844	 0.099719
H	 0.9974557962	-2.7138665638	 0.3096324495	 0.227606
H	 1.0710402773	-0.4545312726	 1.991755439	 0.101475
H	-1.9374890361	-2.5463643366	 2.7471948007	 0.224433
H	-1.755236196	-0.6142513899	-1.2817194764	 0.113866
130.1256	189.8596	230.9568	272.0652	347.6404	426.8184	538.4487	575.6487	627.3824	718.9794	746.5229	797.0379	821.9406	872.8211	888.6261	897.2283	935.3594	955.1812	996.5933	1023.1722	1038.0419	1066.8805	1094.5589	1112.8486	1134.9827	1195.4247	1208.7549	1243.5717	1263.2646	1284.3543	1345.2287	1371.9165	1417.9189	1467.8659	1486.2927	1498.4735	1777.4431	3029.5353	3093.2874	3102.453	3146.3111	3167.3588	3203.7583	3442.5296	3467.0867
CC12C3NC1C(=N)OC23	C[C@@]12[C@H]3N[C@@H]1[C]([NH])O[C@@H]23	
InChI=1S/C6H8N2O/c1-6-2-4(6)9-5(7)3(6)8-2/h2-4,7-8H,1H3	InChI=1S/C6H8N2O/c1-6-2-4(6)9-5(7)3(6)8-2/h2-4,7-8H,1H3/t2-,3+,4+,6+/m0/s1
