17
gdb 34200	4.08588	1.42333	1.25356	1.0037	78.72	-0.2065	0.0239	0.2304	1010.5533	0.137209	-380.754989	-380.747932	-380.746988	-380.786179	28.851	
C	 0.1055453962	-1.2353786002	 0.0747090874	-0.357415
C	 0.0534874771	-0.0355963777	 0.008490065	 0.174978
C	-0.0477467841	 1.401896809	-0.0521407481	 0.160881
C	-1.2138276428	 2.1086563604	 0.6999423101	-0.216867
N	-1.3854030552	 3.1242548284	-0.3910357364	-0.151954
C	-0.2987990098	 4.1631275373	-0.3025689048	-0.185577
C	 0.738966264	 3.203568403	-0.925525514	-0.007181
N	 1.2348220561	 2.1519213628	-0.0122692216	-0.353307
C	-0.4670130383	 2.2911376826	-1.2765726868	-0.059941
H	 0.1636164988	-2.2945119417	 0.1262559686	 0.188557
H	-2.1057910142	 1.4776965216	 0.7626353842	 0.118316
H	-0.9899523177	 2.5154767613	 1.6922446076	 0.099625
H	-0.5472644858	 5.0039510615	-0.9595601554	 0.11079
H	-0.1011117319	 4.5469264048	 0.7046344314	 0.097043
H	 1.4869169862	 3.5945337085	-1.6191508932	 0.079411
H	 1.5386383384	 2.4553434104	 0.910700607	 0.212764
H	-0.7987051868	 1.9454948781	-2.2524973508	 0.089875
136.9774	144.6384	310.0828	345.3404	452.559	464.1289	525.7779	553.874	624.0493	638.5472	652.9058	751.7183	805.91	816.9305	869.3424	888.185	917.2606	949.9754	968.4516	998.7434	1002.2585	1038.804	1084.2372	1116.5255	1160.2951	1184.7477	1193.5909	1201.1142	1232.2148	1244.2895	1298.5955	1308.2641	1329.8336	1364.4797	1484.8693	1497.4844	2233.1275	3026.4886	3034.8722	3074.0614	3081.2081	3091.6074	3149.9244	3478.3165	3501.0013
C#CC12CN3CC(N1)C23	C#C[C@@]12CN3C[C@@H](N1)[C@@H]23	
InChI=1S/C7H8N2/c1-2-7-4-9-3-5(8-7)6(7)9/h1,5-6,8H,3-4H2	InChI=1S/C7H8N2/c1-2-7-4-9-3-5(8-7)6(7)9/h1,5-6,8H,3-4H2/t5-,6+,7+/m1/s1
