21
gdb 112769	2.36609	1.24481	0.92647	3.2206	83.41	-0.2333	0.0183	0.2516	1346.3348	0.181881	-383.265783	-383.255897	-383.254953	-383.300807	35.66	
C	-0.0780808543	 1.6259470113	 0.0834043076	-0.386987
C	 0.0495330216	 0.1083899937	-0.0906389389	-0.209336
C	 0.6904193988	-0.5571496554	 1.1163927403	 0.024118
C	-0.0895597044	-0.6421494739	 2.454310146	-0.186427
N	 0.4424747436	-2.0042035188	 2.6427585913	-0.061371
C	-0.3576355727	-3.0107828017	 3.3093132747	-0.332885
C	 0.7758020814	-2.1215584434	 1.2085350258	-0.165902
C	-0.2282167693	-2.8205547724	 0.3904587785	 0.282022
N	-1.0312024439	-3.3877252874	-0.2193556557	-0.342478
H	 0.9015339968	 2.09397961	 0.2302644824	 0.117022
H	-0.5386436596	 2.0840416694	-0.7965126308	 0.121033
H	-0.698642842	 1.8764809166	 0.9506543725	 0.122053
H	-0.9387071521	-0.3294322484	-0.271514736	 0.121356
H	 0.6489183502	-0.1113515346	-0.9832496005	 0.106156
H	 1.692273477	-0.1540073189	 1.2885964002	 0.095432
H	 0.1697291357	 0.0598068024	 3.2530321638	 0.108311
H	-1.1804338938	-0.6142057861	 2.2931053302	 0.096663
H	-1.3433674614	-3.1738359533	 2.8421618631	 0.118549
H	 0.179335371	-3.9648520596	 3.3179143054	 0.128867
H	-0.5136296729	-2.7040293767	 4.3483784558	 0.126396
H	 1.7524713905	-2.5776916428	 1.0114669343	 0.117409
81.6887	87.8347	115.8865	147.149	192.54	220.0477	249.3401	316.8741	330.7971	382.6657	419.956	507.5546	608.7978	697.8207	758.031	787.7117	852.0288	947.6204	954.9429	986.8886	995.2928	1010.6972	1074.5661	1119.1722	1139.7722	1158.6904	1177.9501	1210.6409	1233.6665	1256.1518	1272.0902	1295.0255	1322.0967	1341.0066	1352.7361	1400.4115	1412.8551	1451.4372	1484.9111	1487.1627	1500.1034	1502.0404	1506.2341	1522.422	2338.4178	2963.4491	2968.782	3028.1211	3033.3145	3041.0088	3059.6669	3065.5987	3066.9552	3081.1983	3100.97	3106.0604	3109.8425
CCC1CN(C)C1C#N	CC[C@H]1CN(C)[C@H]1C#N	
InChI=1S/C7H12N2/c1-3-6-5-9(2)7(6)4-8/h6-7H,3,5H2,1-2H3	InChI=1S/C7H12N2/c1-3-6-5-9(2)7(6)4-8/h6-7H,3,5H2,1-2H3/t6-,7-/m0/s1
