22
gdb 119523	4.16238	0.92876	0.84588	1.5011	86.97	-0.224	0.0094	0.2334	1462.6339	0.195245	-367.207594	-367.198706	-367.197762	-367.241467	34.243	
C	 0.1961537474	 1.5878466034	-0.0893970792	-0.382652
C	 0.2106654205	 0.0575230523	-0.0648075941	-0.160872
C	 0.4626751614	-0.5162468701	 1.3369452433	-0.258732
C	 0.5306399934	-2.0257402691	 1.3560641846	 0.340643
C	-0.7369258734	-2.8462635763	 1.0739430869	-0.331364
C	-0.5307739439	-4.1232076276	 1.8615846736	-0.092556
C	 0.5964722011	-4.0856090602	 2.5782891453	-0.075787
C	 1.3505419586	-2.8230043556	 2.3253231912	-0.127204
N	 1.8128663983	-2.6078654919	 0.9296364511	-0.368319
H	 1.1522328558	 1.9967991653	 0.2559046579	 0.115747
H	 0.0163380619	 1.9699823231	-1.099217097	 0.109666
H	-0.5880998054	 1.9890810826	 0.562710977	 0.110819
H	-0.7437853467	-0.3226376263	-0.4519737154	 0.091722
H	 0.9898567864	-0.3186828382	-0.7385586799	 0.11003
H	 1.4096241248	-0.1206639772	 1.7218654397	 0.101396
H	-0.3267091669	-0.1798837587	 2.0233939023	 0.088397
H	-1.6335672116	-2.3089447687	 1.4128418576	 0.111342
H	-0.8824849068	-3.0345877164	 0.0020675471	 0.112487
H	-1.2192068923	-4.95918513	 1.8096918202	 0.097566
H	 0.9584565603	-4.8684476729	 3.2346641786	 0.099351
H	 1.979479396	-2.3788643648	 3.0906478622	 0.088279
H	 1.665637571	-3.4635298127	 0.3966022169	 0.22004
72.0419	89.6272	120.4553	242.2912	254.9805	303.5993	333.3492	384.4435	414.2652	520.3165	677.4535	724.826	745.1204	748.5134	787.3789	852.7205	873.1959	899.3383	917.4962	942.3351	955.266	976.9963	989.2683	1044.0687	1063.8404	1082.3375	1114.9849	1122.0848	1136.7393	1172.6356	1188.3817	1249.0189	1274.0532	1293.2977	1309.9067	1317.0734	1340.2488	1375.5317	1388.6369	1411.6978	1426.7892	1470.573	1474.7103	1492.3207	1499.901	1508.9506	1660.8406	3009.64	3014.5452	3020.1811	3027.8099	3041.7215	3051.6085	3070.7476	3095.6657	3100.2512	3157.4529	3186.7064	3211.9399	3470.2923
CCCC12CC=CC1N2	CCC[C@]12CC=C[C@H]1N2	
InChI=1S/C8H13N/c1-2-5-8-6-3-4-7(8)9-8/h3-4,7,9H,2,5-6H2,1H3	InChI=1S/C8H13N/c1-2-5-8-6-3-4-7(8)9-8/h3-4,7,9H,2,5-6H2,1H3/t7-,8+/m1/s1
