19
gdb 22382	4.03157	1.07402	0.95454	1.1071	78.86	-0.2427	0.0027	0.2454	1263.8108	0.159501	-419.165418	-419.156922	-419.155978	-419.198324	33.031	
C	-0.1264073978	 1.4989107547	 0.0546216927	-0.467391
C	-0.0364345551	-0.0053825561	 0.0621961065	 0.335994
C	-1.2194120079	-0.8168283705	-0.4584768992	-0.359538
C	-1.0089597485	-2.1988049223	 0.1264806679	 0.364879
C	-0.0734785807	-2.1326600955	 1.3173234739	-0.323009
C	 0.64328321	-0.807398206	 1.1254196415	-0.065419
N	 1.2986082065	-0.5819091044	-0.1739802566	-0.371309
N	-1.5443283684	-3.2265594947	-0.398053229	-0.214328
O	-1.2252801387	-4.3943925859	 0.317158051	-0.392488
H	 0.7794142654	 1.937020996	 0.4803289287	 0.130455
H	-0.2334420963	 1.8795881664	-0.9676738533	 0.120654
H	-0.9901591288	 1.8449926632	 0.6332846925	 0.113438
H	-2.1580258898	-0.3852728514	-0.083719392	 0.119672
H	-1.2915779593	-0.8359314885	-1.5506269872	 0.123552
H	-0.6436303247	-2.1427334178	 2.2561528847	 0.126319
H	 0.5942216387	-2.9994080238	 1.347013643	 0.134728
H	 1.137420223	-0.3453158799	 1.9750705689	 0.088764
H	 1.2479024548	-1.4176326238	-0.7551691287	 0.227857
H	-1.6542915022	-5.0774553897	-0.2090088255	 0.307171
71.8815	187.21	203.4762	240.1425	296.7898	310.8016	375.4742	390.9885	407.8937	497.5879	517.7331	616.2452	694.4496	715.7128	818.7555	839.6146	888.3354	907.8548	950.8071	965.4117	986.8639	1032.8248	1072.9977	1083.6435	1124.6248	1150.2348	1178.3784	1218.7824	1233.3529	1266.8934	1286.5453	1322.8999	1331.8479	1404.0411	1411.8238	1441.6896	1467.8756	1478.6996	1487.9183	1498.1103	1755.7266	3015.2281	3025.981	3030.4893	3077.1695	3080.7762	3089.0934	3123.4454	3152.1993	3465.5924	3819.8117
CC12CC(CC1N2)=NO	C[C@]12CC(=NO)C[C@H]1N2	
InChI=1S/C6H10N2O/c1-6-3-4(8-9)2-5(6)7-6/h5,7,9H,2-3H2,1H3	InChI=1S/C6H10N2O/c1-6-3-4(8-9)2-5(6)7-6/h5,7,9H,2-3H2,1H3/t5-,6+/m1/s1
