19
gdb 95479	2.62558	1.73069	1.29092	1.7172	76.98	-0.2407	0.0138	0.2545	1024.655	0.161128	-423.010284	-423.002608	-423.001663	-423.042119	30.506	
O	 0.0319836361	 1.5201016986	 0.1669426818	-0.446685
C	 0.057940882	 0.1117207271	 0.0459844261	 0.093053
C	 0.7554993685	-0.5045222368	 1.2732055777	-0.235281
C	 0.0653208673	-0.1729550807	 2.6200430054	-0.232374
C	-1.4375608107	-0.0447028104	 2.5297634581	-0.18316
C	-2.0406257264	-0.2402736098	 1.3691031043	 0.228488
C	-3.2422500503	 0.2450591693	 0.5977090688	-0.161304
O	-2.3993329791	 0.3271330322	-0.5989710377	-0.322855
C	-1.3568089466	-0.4624911866	 0.052681271	 0.059323
H	-0.7676275724	 1.8097164041	-0.2927533487	 0.287244
H	 0.596785178	-0.183671114	-0.8680801401	 0.063664
H	 0.7884052865	-1.5909773074	 1.1238525456	 0.102693
H	 1.7941042127	-0.1622463495	 1.3046584776	 0.111373
H	 0.3605217692	-0.9137920239	 3.3739461536	 0.105786
H	 0.4414244325	 0.7895646198	 2.990394456	 0.126839
H	-1.9698880672	 0.3297626605	 3.4007907306	 0.090358
H	-4.0530267189	-0.4802204473	 0.4471889312	 0.110896
H	-3.6664934677	 1.2155841425	 0.8765507865	 0.121145
H	-1.3641212236	-1.4917303076	-0.3322824677	 0.080795
138.8032	169.658	219.2441	267.2926	324.1101	356.0705	432.212	435.4845	542.0732	594.8406	716.5033	765.0053	799.7847	843.6037	862.0908	890.4344	940.0163	949.9666	976.4228	992.5869	1032.3129	1062.0943	1083.6727	1107.5582	1134.092	1143.3711	1185.8056	1222.4206	1279.7649	1281.4959	1305.6223	1333.7009	1343.5763	1370.7841	1381.2819	1404.2221	1423.9749	1467.5189	1481.8219	1511.8061	1794.2914	2970.2684	3003.9511	3012.2028	3020.7004	3034.4551	3049.4833	3070.8254	3087.7272	3156.8546	3753.0473
OC1CCC=C2COC12	O[C@H]1CC[CH][C]2CO[C@@H]12	
InChI=1S/C7H10O2/c8-6-3-1-2-5-4-9-7(5)6/h2,6-8H,1,3-4H2	InChI=1S/C7H10O2/c8-6-3-1-2-5-4-9-7(5)6/h2,6-8H,1,3-4H2/t6-,7+/m0/s1
