15
gdb 24075	7.26218	0.78119	0.71002	4.4201	73.04	-0.2092	0.0171	0.2263	1479.8189	0.114892	-413.028455	-413.020317	-413.019373	-413.062252	29.149	
N	-0.3213785408	-1.0505755921	 0.0074720649	-0.295986
C	 0.1928159042	-0.0530836197	-0.2651016485	 0.252917
C	 0.8705784023	 1.2007849903	-0.5990375789	-0.262307
N	 0.6121076324	 2.2035497409	 0.4300184056	-0.417645
C	 1.1415610807	 3.460518474	 0.1531078326	 0.483055
N	 1.7341910936	 3.8116982188	-0.96286493	-0.32684
C	 2.0134545913	 5.1595756811	-0.8123987792	-0.092489
C	 1.5960393971	 5.6085526632	 0.4041495218	-0.106477
N	 1.0312011101	 4.5014215149	 1.0272433137	-0.334644
H	 1.9412968883	 1.0013974839	-0.7534400191	 0.158261
H	 0.4930310534	 1.58245724	-1.5519857114	 0.185972
H	 0.8232978277	 1.8654925616	 1.3606699388	 0.249446
H	 2.509983857	 5.7148872089	-1.5927966461	 0.110996
H	 1.6467106617	 6.5673836256	 0.8911292294	 0.130753
H	 0.541742911	 4.4961948886	 1.9058214265	 0.264986
42.3223	91.2426	116.0517	230.1139	288.208	386.5405	417.2806	460.1934	514.6791	628.8948	634.535	694.3665	740.3049	799.6356	847.0689	926.0575	954.3306	991.4442	1021.3023	1089.9141	1113.6691	1141.4311	1194.6758	1229.5628	1274.5255	1354.9169	1380.4905	1444.8095	1486.1752	1529.9204	1551.3021	1615.3702	2370.5186	3005.0356	3094.3605	3254.7245	3287.9512	3558.5947	3669.0472
N#CCNC1=NC=CN1	N#CCNc1ncc[nH]1	
InChI=1S/C5H6N4/c6-1-2-7-5-8-3-4-9-5/h3-4H,2H2,(H2,7,8,9)	InChI=1S/C5H6N4/c6-1-2-7-5-8-3-4-9-5/h3-4H,2H2,(H2,7,8,9)
