21
gdb 80618	2.35606	1.82958	1.36134	1.8198	81.47	-0.2507	0.0878	0.3385	1040.6833	0.184073	-387.062933	-387.055215	-387.05427	-387.094711	31.643	
C	-0.079271189	 1.5757250877	-0.081357788	-0.421599
C	 0.0746842448	 0.0578737879	-0.0047565519	-0.052631
C	 0.9663009682	-0.5834854335	-1.0995674255	-0.028168
C	 2.4082947971	-0.337267321	-0.5582758348	-0.236905
C	 1.9390173739	-1.3203509943	 0.555036865	-0.096051
C	 1.1312264294	-2.0374263886	-0.5684692588	-0.239934
C	 0.8430030473	-0.5002225945	 1.2189849914	 0.494776
C	 0.9289759714	 0.0943350687	 2.552848395	-0.285848
O	 0.1162375523	-1.0640890505	 2.3085715005	-0.302055
H	 0.8869553453	 2.0892820751	-0.0541869962	 0.116023
H	-0.5853912027	 1.8656605471	-1.0085631231	 0.114245
H	-0.680771931	 1.9548276413	 0.7511659207	 0.119319
H	-0.9215458837	-0.3996465368	-0.0186859901	 0.085902
H	 0.6960832848	-0.3755756646	-2.1354970382	 0.05971
H	 3.176051198	-0.774604357	-1.2004812888	 0.09951
H	 2.6984983244	 0.6761015859	-0.2678097245	 0.092678
H	 2.6304322672	-1.845214302	 1.2138549365	 0.063285
H	 0.2325498504	-2.589498328	-0.279645073	 0.102891
H	 1.766917724	-2.6515333903	-1.2102725073	 0.095964
H	 1.8137966603	-0.0774533777	 3.1662516423	 0.108333
H	 0.3810889777	 1.0059232051	 2.7875282789	 0.110554
119.768	204.2574	245.5302	254.8772	303.3301	361.1573	459.6376	484.6744	543.1486	565.8846	708.4924	803.6749	830.9938	844.395	856.5885	874.6919	894.6389	929.2348	963.4343	986.4674	1026.6188	1030.5322	1049.5358	1062.9821	1084.1643	1111.944	1113.7099	1128.1801	1144.3094	1165.0472	1210.809	1223.9226	1238.2858	1251.7331	1266.1439	1296.349	1317.0102	1373.5683	1408.0096	1436.4607	1485.9721	1495.2709	1501.9811	1520.8662	1538.3317	3032.0162	3037.1187	3056.5009	3059.1668	3074.9225	3095.5652	3104.6229	3106.8713	3116.4639	3118.2077	3122.1878	3158.3803
CC1C2CC(C2)C11CO1	C[C@H]1[C@H]2C[C@H](C2)[C@]21CO2	
InChI=1S/C8H12O/c1-5-6-2-7(3-6)8(5)4-9-8/h5-7H,2-4H2,1H3	InChI=1S/C8H12O/c1-5-6-2-7(3-6)8(5)4-9-8/h5-7H,2-4H2,1H3/t5-,6-,7+,8+/m0/s1
