17
gdb 34918	2.88202	1.62048	1.30203	5.2428	74.79	-0.2536	0.0434	0.297	992.0833	0.138928	-380.850296	-380.843271	-380.842327	-380.881777	28.125	
N	 0.0620653859	-1.170975518	-0.0638272599	-0.33606
C	 0.0300955118	-0.0165149014	-0.0195781776	 0.293923
C	-0.0192058182	 1.4460919285	 0.0190871348	-0.175724
C	-0.7169354254	 2.023952283	 1.2680156052	-0.056773
C	-0.1309538355	 1.7977014646	 2.6357924701	-0.286731
C	 0.1966037311	 3.0660288243	 1.8873960462	-0.041252
C	 1.4786540549	 3.0788138088	 1.0798110561	-0.048136
N	 2.2311240003	 1.8081463149	 1.1117266059	-0.320348
C	 1.3697103001	 2.105125786	-0.0385778401	-0.052812
H	-0.5780974174	 1.7770850315	-0.8646189612	 0.125272
H	-1.7856635143	 2.184335049	 1.1880341833	 0.100247
H	-0.818790379	 1.873531638	 3.4705826673	 0.112774
H	 0.6624629161	 1.0701885577	 2.7503031464	 0.157155
H	-0.1886807541	 4.0169714115	 2.2347231987	 0.090668
H	 2.0229048157	 4.0102822231	 0.9706112462	 0.094784
H	 3.2043360607	 1.9610648916	 0.861986499	 0.239695
H	 1.8197204971	 2.2626250367	-1.0132129406	 0.103317
108.6858	137.0622	296.5796	310.7138	400.2953	503.6568	527.3951	571.1127	681.0675	722.8642	739.9216	798.809	836.6823	856.8324	876.7363	889.0711	953.3427	973.9749	1018.3405	1028.9132	1048.7485	1065.0294	1090.8477	1102.4263	1109.8074	1143.4929	1170.768	1204.0966	1238.4236	1280.798	1313.9049	1324.3512	1372.0543	1388.021	1419.332	1478.0703	2357.8112	3041.7719	3145.3775	3162.6651	3172.7619	3175.735	3189.0976	3241.945	3513.0444
N#CC1C2CC2C2NC12	N#C[C@H]1[C@H]2C[C@H]2[C@H]2N[C@@H]12	
InChI=1S/C7H8N2/c8-2-5-3-1-4(3)6-7(5)9-6/h3-7,9H,1H2	InChI=1S/C7H8N2/c8-2-5-3-1-4(3)6-7(5)9-6/h3-7,9H,1H2/t3-,4+,5-,6+,7-/m0/s1
