21
gdb 110725	2.32502	1.42146	1.13173	1.1936	83.29	-0.2207	0.0185	0.2392	1198.8009	0.182379	-387.088544	-387.079685	-387.078741	-387.121887	34.693	
C	-0.0369482399	 1.4973805809	-0.2195183979	-0.372094
C	 0.0004610766	 0.0358204475	 0.2423024008	-0.211238
C	-1.3511864746	-0.635374307	 0.141334326	-0.021801
C	-1.9115324232	-1.2857350913	-1.1376195624	-0.189473
C	-0.94101377	-1.7441651006	-2.1671580884	-0.067734
C	-0.1197208284	-2.6899328618	-1.6979728608	-0.082012
C	-0.4313615394	-3.0461737462	-0.2617941783	-0.339878
C	-1.5881930745	-2.1099120234	 0.1116799786	 0.36595
O	-2.5651890805	-2.5863418996	 0.9869699562	-0.472689
H	 0.9444083534	 1.9713232713	-0.118649115	 0.108101
H	-0.3385883051	 1.5669906275	-1.2699623702	 0.117314
H	-0.7525493001	 2.0819733604	 0.3692372799	 0.112636
H	 0.7390682318	-0.5125114594	-0.3509381357	 0.10309
H	 0.3412389768	-0.0131474225	 1.2849253927	 0.097891
H	-2.1361816234	-0.1265616865	 0.6980494905	 0.091835
H	-2.9317169353	-1.0387743571	-1.4118148654	 0.084078
H	-0.9117292052	-1.3370667085	-3.1720637392	 0.092468
H	 0.6870398595	-3.1553350016	-2.2526304026	 0.092809
H	-0.7428833474	-4.0962089201	-0.1585549231	 0.097094
H	 0.4329539036	-2.9209640323	 0.4024755992	 0.11643
H	-2.9933164748	-3.3430877295	 0.5705588251	 0.277224
66.9961	154.2277	185.3929	223.5057	256.8158	299.3255	332.7988	383.5796	410.6912	501.4207	568.8542	597.5628	693.4209	748.152	759.1327	796.1435	847.3446	903.5663	932.9552	947.908	957.9164	969.2679	987.2945	1033.3495	1046.5482	1085.422	1117.4818	1122.505	1149.5495	1151.7057	1223.9508	1238.4211	1288.734	1301.3865	1321.7149	1340.5538	1373.4485	1388.9708	1408.7297	1461.2371	1481.3146	1485.6905	1497.8058	1505.6251	1659.7167	3001.5825	3023.2301	3030.8434	3044.6033	3071.8327	3100.2925	3103.7412	3129.6702	3165.4967	3181.96	3207.0222	3786.8761
CCC1C2C=CCC12O	CC[C@H]1[C@H]2C=CC[C@@]12O	
InChI=1S/C8H12O/c1-2-6-7-4-3-5-8(6,7)9/h3-4,6-7,9H,2,5H2,1H3	InChI=1S/C8H12O/c1-2-6-7-4-3-5-8(6,7)9/h3-4,6-7,9H,2,5H2,1H3/t6-,7+,8+/m0/s1
