16
gdb 66821	2.81515	2.21181	1.84512	3.8567	71.24	-0.2075	-0.0544	0.1531	815.5159	0.123813	-400.620122	-400.613603	-400.612659	-400.650468	27.303	
C	-0.0062686642	 1.5996226358	-0.1273248523	-0.524013
C	 0.0729740646	 0.1002628469	-0.1194406377	 0.281966
C	 0.7386779586	-0.8035991207	-1.1442294937	-0.177423
C	 1.1507777015	-1.9626720429	-0.2468616379	-0.010781
N	 1.0939377186	-1.7256577674	 1.1753284597	-0.200393
C	 0.3293575943	-0.7003039621	 1.2009992117	 0.169481
O	-1.0283110924	-0.8611016557	 1.5314016714	-0.2861
C	-1.1263794378	-0.8468619021	 0.0196521549	 0.050301
C	-0.2934171559	-1.8886542282	-0.8322249562	-0.137033
H	 0.992158811	 2.0421516752	-0.0460924854	 0.13443
H	-0.4644797866	 1.9705203928	-1.0500015289	 0.124229
H	-0.6034330581	 1.9535307345	 0.7186721051	 0.140562
H	 1.2202871423	-0.5346671239	-2.0733405003	 0.104023
H	 1.8160156465	-2.734176018	-0.6164977272	 0.10982
H	-2.1425099094	-0.61142366	-0.29285037	 0.117095
H	-0.7002270832	-2.6645589343	-1.4647438732	 0.103834
218.4674	231.7031	247.2775	385.6275	494.7479	539.0712	598.4042	650.3309	674.7661	716.823	727.4595	760.7589	805.7622	828.2557	849.2744	868.724	930.9675	949.8545	960.3604	998.7212	1020.2113	1038.434	1098.2905	1112.1928	1153.6839	1185.3637	1187.9095	1229.6302	1256.1296	1314.3279	1353.9597	1412.9183	1488.8367	1495.8778	1547.9126	3033.3305	3098.1872	3110.6819	3139.7541	3190.1343	3215.8468	3226.8462
CC12C3C4N=C1OC2C34	C[C@@]12[C@H]3[C@H]4[N][C]1O[C@@H]2[C@@H]34	
InChI=1S/C7H7NO/c1-7-3-2-4(3)8-6(7)9-5(2)7/h2-5H,1H3	InChI=1S/C7H7NO/c1-7-3-2-4(3)8-6(7)9-5(2)7/h2-5H,1H3/t2-,3+,4-,5+,7-/m0/s1
