15
gdb 53140	2.98449	1.10263	0.93625	3.7396	74.67	-0.25	-0.0081	0.2419	1277.2222	0.110869	-420.594103	-420.585586	-420.584642	-420.631179	29.797	
C	-0.048650224	 1.4759025191	 0.02503803	-0.500318
C	-0.0287919524	 0.0218364428	 0.0550757249	 0.125396
C	-0.0202033187	-1.1816639005	 0.0867598322	 0.072617
C	-0.0030015696	-2.6151401186	 0.1148995375	-0.251189
C	-0.5316657926	-3.4401593196	 1.2472349588	 0.079302
O	-1.6318269999	-2.7588687195	 1.8942384323	-0.252923
C	-2.3903848691	-2.8644415296	 0.7281824804	 0.472082
O	-3.5277197778	-2.5685707469	 0.5777457808	-0.316159
C	-1.2701678894	-3.4981246559	-0.0608775655	-0.294148
H	 0.8305977645	 1.8721539926	-0.4943616712	 0.151397
H	-0.9387698892	 1.8482562432	-0.4934769891	 0.156989
H	-0.0541478726	 1.8921245618	 1.0381695403	 0.15601
H	 0.8486993762	-3.0812931185	-0.3793552116	 0.131097
H	-0.0061350594	-4.1926201264	 1.8180678614	 0.135921
H	-1.352684866	-4.2536379139	-0.8279263213	 0.133925
2.4827	66.6874	106.4872	181.8941	260.0297	321.57	402.172	465.0141	495.514	580.2388	707.9095	714.6194	805.2906	816.2893	863.428	904.9146	924.523	982.5729	1032.0284	1051.0323	1052.2075	1059.881	1075.4385	1112.9836	1208.0321	1260.355	1306.7656	1411.6485	1418.7572	1474.6749	1477.0138	1952.8373	2374.8416	3030.2932	3093.2945	3093.563	3120.7924	3221.456	3236.1295
CC#CC1C2OC(=O)C12	CC#C[C@H]1[C@H]2OC(=O)[C@@H]12	
InChI=1S/C7H6O2/c1-2-3-4-5-6(4)9-7(5)8/h4-6H,1H3	InChI=1S/C7H6O2/c1-2-3-4-5-6(4)9-7(5)8/h4-6H,1H3/t4-,5+,6-/m1/s1
