21
gdb 113792	3.45374	0.98371	0.92855	1.4174	79.79	-0.2406	0.0839	0.3244	1389.4785	0.180658	-424.194604	-424.185059	-424.184114	-424.22919	36.123	
C	 0.2554483953	 1.5173869392	 0.1269074712	-0.375744
C	-0.4092137317	 0.2071994499	-0.3142204851	-0.235539
C	 0.4332091051	-0.5357990635	-1.3232979351	 0.079836
O	 1.6448818356	-1.182388747	-0.8702110825	-0.283068
C	 0.5973383779	-1.9960567408	-1.4203868075	-0.03574
C	 0.0202036516	-3.0079645552	-0.4713985872	 0.415364
O	 0.0847884386	-2.6409397779	 0.8769187706	-0.465807
C	-1.1812837117	-3.8083354224	-0.8683167127	-0.3094
C	 0.1775635151	-4.4769656896	-0.8008743652	-0.321274
H	 1.2207922449	 1.3194816359	 0.6028616387	 0.128202
H	 0.4346090882	 2.1824588646	-0.7253210457	 0.113118
H	-0.3731004939	 2.0538113418	 0.8435862902	 0.114963
H	-0.6087730103	-0.4343149074	 0.5457618974	 0.130512
H	-1.3772413241	 0.4215948383	-0.786207885	 0.10016
H	 0.5947995711	 0.0165957717	-2.2533225208	 0.087465
H	 0.8202498122	-2.4033682996	-2.4086689782	 0.089575
H	 0.9515640998	-2.2267904	 0.989495076	 0.288838
H	-1.8889580065	-4.0294552637	-0.0775439351	 0.129465
H	-1.6272539644	-3.6292591403	-1.8409254506	 0.114812
H	 0.6637244426	-4.7603225665	-1.7287773842	 0.111893
H	 0.3653369045	-5.1356377574	 0.0387877707	 0.122368
57.0786	78.5805	164.9993	188.7847	232.4203	254.6987	299.4587	327.2031	414.8852	437.6459	480.5529	524.4864	604.0212	726.2643	760.8336	775.4512	837.4601	857.7924	897.2415	933.5514	942.0908	952.7202	993.6617	1024.3797	1053.4241	1068.366	1078.7658	1115.6478	1147.9222	1185.2588	1191.2876	1231.1615	1280.4393	1299.1474	1331.6484	1350.2473	1373.5164	1410.9387	1441.9761	1451.5986	1483.1194	1488.2481	1499.6785	1509.2184	1513.1932	3029.2055	3034.7073	3065.5739	3089.7374	3096.0535	3113.6385	3126.6635	3131.3554	3135.7764	3218.8274	3232.909	3754.2381
CCC1OC1C1(O)CC1	CC[C@H]1O[C@H]1C1(O)CC1	
InChI=1S/C7H12O2/c1-2-5-6(9-5)7(8)3-4-7/h5-6,8H,2-4H2,1H3	InChI=1S/C7H12O2/c1-2-5-6(9-5)7(8)3-4-7/h5-6,8H,2-4H2,1H3/t5-,6-/m1/s1
