17
gdb 49610	2.26548	1.79435	1.13875	3.0558	72.06	-0.2459	-0.0356	0.2103	1059.1121	0.135423	-421.85333	-421.845445	-421.844501	-421.886289	29.635	
O	-0.7845423165	 1.0335985409	-0.6783674883	-0.238168
C	-0.0083269244	 1.169928231	 0.2298677053	 0.155566
C	 1.298284306	 1.9430149104	 0.1307641858	-0.232252
C	 1.5203447738	 2.7635696122	-1.1179878251	-0.030554
C	 0.6060430935	 3.9422014947	-1.329656652	-0.279733
C	 1.9629373454	 4.1655738164	-0.7159417948	-0.053469
C	 2.0291025489	 4.2510290058	 0.795423983	-0.332367
C	 1.4502213603	 2.929981367	 1.3171782464	 0.368854
O	 1.1617492077	 2.6782236377	 2.4568829965	-0.305417
H	-0.1928543299	 0.7349468096	 1.2344023018	 0.105994
H	 2.0954454096	 1.1953475446	 0.271641594	 0.131149
H	 1.943106341	 2.2771728637	-1.9877981877	 0.098733
H	 0.453174247	 4.2712505972	-2.3508897262	 0.122556
H	-0.2754080217	 4.0381946436	-0.7020693185	 0.120846
H	 2.7166229692	 4.6844524698	-1.2957243022	 0.094309
H	 3.0646927721	 4.3206163478	 1.1527448814	 0.136014
H	 1.485036278	 5.0926336575	 1.2361112707	 0.137938
65.3506	107.8412	159.3229	225.2596	324.1832	360.4458	456.9284	536.6013	588.0735	611.3484	700.6239	741.8316	818.4851	820.635	863.4662	897.9987	936.2142	965.7514	1001.4507	1046.0998	1071.2336	1086.817	1102.8869	1110.7482	1138.1875	1178.2383	1207.0338	1213.5417	1284.8346	1301.8559	1354.3787	1390.8733	1413.8597	1449.9264	1492.4551	1821.9778	1846.2318	2920.1777	2994.8131	3035.7896	3083.3803	3128.1768	3180.1052	3190.6521	3217.5354
O=CC1C2CC2CC1=O	O=C[C@H]1[C@H]2C[C@H]2CC1=O	
InChI=1S/C7H8O2/c8-3-6-5-1-4(5)2-7(6)9/h3-6H,1-2H2	InChI=1S/C7H8O2/c8-3-6-5-1-4(5)2-7(6)9/h3-6H,1-2H2/t4-,5-,6-/m0/s1
