21
gdb 62652	2.5369	1.57305	1.42355	2.0312	81.6	-0.226	0.0732	0.2992	1061.8229	0.180116	-387.009666	-387.000837	-386.999892	-387.042272	34.891	
C	-0.1276813956	 1.5672894611	-0.0092150559	-0.454201
C	-0.0731910039	 0.0404212282	-0.0068417439	 0.24022
C	-1.4318184103	-0.5618236866	-0.3614351955	-0.454201
C	 1.1645603029	-0.6054685755	-0.6854775924	-0.127384
C	 2.0846776234	-0.3185441238	 0.5393990801	 0.028496
O	 2.5701301941	-1.6888708433	 0.6593715806	-0.339976
C	 1.1648196641	-1.8202927856	 0.2909835355	 0.028505
C	 0.6862661084	-0.6216802335	 1.1835244806	 0.292966
C	 0.354505113	-0.6606577391	 2.6475310224	-0.536745
H	 0.8379671475	 2.0154095795	 0.245139201	 0.112837
H	-0.4200622108	 1.9469389373	-0.9950535828	 0.115178
H	-0.8661495072	 1.935718013	 0.7124720363	 0.114596
H	-1.7569334329	-0.2355993662	-1.3561090165	 0.115178
H	-1.4109532395	-1.656149602	-0.3622596617	 0.112836
H	-2.201279382	-0.2440080016	 0.3518875776	 0.114597
H	 1.4626415977	-0.6144860165	-1.7347177666	 0.073893
H	 2.7860839083	 0.494781466	 0.7223138386	 0.092059
H	 0.7541569875	-2.8225390118	 0.173570378	 0.092059
H	 1.1236632542	-1.2208963349	 3.1896310415	 0.136743
H	 0.3039249008	 0.3476786147	 3.0729338281	 0.12117
H	-0.6107565097	-1.1472166391	 2.825856385	 0.121173
177.167	186.7545	192.2016	207.3918	234.0103	235.8614	323.0838	336.4429	348.6931	536.8691	578.6189	607.2748	676.4148	761.2672	807.7657	814.537	816.2022	882.4591	904.5005	912.9439	950.9239	963.8607	987.3418	1020.26	1078.6303	1118.0442	1138.6972	1143.9743	1147.905	1176.3833	1178.3362	1214.0739	1235.9036	1287.4511	1325.069	1372.0834	1404.7447	1405.3226	1422.2521	1479.0371	1487.5374	1489.6482	1492.521	1502.5056	1508.8148	3022.2055	3025.7056	3028.0479	3081.42	3085.7342	3091.3031	3097.8785	3099.7945	3100.8173	3107.4738	3119.858	3129.8895
CC1(C)C2C3OC2C13C	CC1(C)[C@H]2[C@@H]3O[C@H]2[C@]13C	
InChI=1S/C8H12O/c1-7(2)4-5-8(7,3)6(4)9-5/h4-6H,1-3H3	InChI=1S/C8H12O/c1-7(2)4-5-8(7,3)6(4)9-5/h4-6H,1-3H3/t4-,5-,6+,8+
