21
gdb 83969	2.24464	1.72294	1.27817	2.7113	81.36	-0.2313	-0.0167	0.2146	1089.4668	0.183845	-387.123523	-387.115168	-387.114223	-387.156488	32.462	
C	-0.8428775929	 1.3195097268	 0.1194344181	-0.41449
C	-0.0721399096	 0.0087831836	 0.0269697329	-0.096117
C	 0.6017516608	-0.4847061831	-1.3054859672	-0.051626
C	 0.9770913728	 0.5787855955	-2.3568846916	-0.208729
C	 2.3066228879	 1.1984834152	-1.8762042616	-0.221341
C	 3.0557137411	 0.0267764076	-1.2113059896	-0.209597
C	 1.9389978834	-0.7796275711	-0.5297838835	-0.138092
C	 1.3097456195	-0.0793228808	 0.6902526259	 0.387845
O	 1.7607441736	 0.3427239315	 1.7178146633	-0.313132
H	-0.2591811364	 2.1617025365	-0.2641402749	 0.124729
H	-1.7787774138	 1.2715001921	-0.4464425384	 0.11851
H	-1.0875293373	 1.5380475601	 1.1631072315	 0.134725
H	-0.6879500324	-0.8068237023	 0.4304656878	 0.102646
H	 0.0944614591	-1.3403019121	-1.7526127698	 0.068521
H	 1.1349722491	 0.0796134269	-3.3198472196	 0.098933
H	 0.1920582913	 1.3249443946	-2.5125537985	 0.099439
H	 2.8734669997	 1.6602479834	-2.6891192766	 0.098148
H	 2.1172077817	 1.9832214659	-1.1337015159	 0.112867
H	 3.5496871071	-0.5918814413	-1.969269454	 0.099182
H	 3.818270878	 0.3532111753	-0.4985784655	 0.117088
H	 2.1944460874	-1.8261722341	-0.3455531029	 0.090491
72.6274	162.7011	171.4214	198.9231	232.639	275.0166	438.2357	503.9618	555.9101	561.6953	597.3617	732.1501	749.0472	841.5558	846.6874	857.2605	893.0759	908.0762	937.2066	982.6797	996.5715	1007.3523	1060.8679	1072.6756	1115.448	1120.4384	1146.151	1172.41	1184.8232	1219.7354	1256.0056	1263.5682	1271.7866	1318.3076	1319.8193	1340.5314	1354.8029	1358.9066	1405.7417	1481.0088	1487.4719	1492.7947	1500.0923	1510.0926	1876.9504	3016.6019	3035.2864	3037.7112	3038.9038	3041.6395	3080.3661	3084.3218	3091.4159	3098.6711	3101.636	3106.7216	3112.954
CC1C2CCCC2C1=O	C[C@H]1[C@H]2CCC[C@H]2C1=O	
InChI=1S/C8H12O/c1-5-6-3-2-4-7(6)8(5)9/h5-7H,2-4H2,1H3	InChI=1S/C8H12O/c1-5-6-3-2-4-7(6)8(5)9/h5-7H,2-4H2,1H3/t5-,6+,7+/m0/s1
