22
gdb 118403	2.27174	0.87655	0.66865	1.9265	82.64	-0.2377	0.0301	0.2678	1734.2345	0.191152	-441.472724	-441.461261	-441.460317	-441.510929	39.35	
C	 0.5573633775	 1.4400489422	 1.3360330334	-0.366048
C	 0.5848173122	 0.1283628352	 0.5451133937	-0.144917
N	 0.8106568212	-1.0041834089	 1.4216160843	-0.296724
C	 0.0266015029	-1.9579101322	 1.6870318747	 0.38009
C	 0.4876806047	-3.1201332412	 2.5343497292	-0.246414
C	 1.9639411974	-3.0793074605	 2.896717741	-0.074664
O	 2.2315012747	-4.2418522246	 3.6722766669	-0.426691
O	-1.2718131465	-2.1999200462	 1.3168994878	-0.251427
C	-2.1794102151	-1.1540900494	 0.9975898079	-0.247602
H	 1.4511666617	 1.5239956859	 1.9605872815	 0.128989
H	 0.5213539982	 2.2989603124	 0.6585717146	 0.111174
H	-0.3154208241	 1.4884613876	 1.9959935933	 0.113237
H	-0.3069825777	 0.0525929811	-0.0871792752	 0.088342
H	 1.4409104918	 0.1598772957	-0.1414022674	 0.108083
H	-0.1170708355	-3.1557316932	 3.4487262068	 0.123588
H	 0.2635478989	-4.0503429509	 1.9991232653	 0.128816
H	 2.5704615711	-3.0538432671	 1.9803226347	 0.094233
H	 2.1845398353	-2.1584864166	 3.4531977264	 0.097492
H	 3.1603023149	-4.2239281874	 3.919000051	 0.2841
H	-3.1739448136	-1.51939619	 1.2679804647	 0.131302
H	-1.9665944625	-0.2465270783	 1.5701219735	 0.133353
H	-2.1717469176	-0.9213116936	-0.0723339282	 0.131687
34.0759	62.7727	82.628	85.5118	144.4899	168.736	223.17	251.3313	262.4548	285.1567	320.9738	353.204	400.7451	449.1956	613.1269	698.6369	777.2663	805.0943	817.0146	930.259	1000.9204	1049.79	1075.1505	1085.8362	1090.9868	1121.8711	1163.9232	1170.108	1196.471	1208.2931	1222.8109	1252.1028	1299.6766	1301.852	1354.3294	1371.8704	1405.4128	1459.2762	1472.6738	1477.2302	1487.5792	1489.7899	1502.1119	1504.2741	1520.9619	1530.0953	1771.2039	2999.6604	3018.4014	3026.4136	3030.652	3034.9548	3040.7038	3053.0038	3076.3172	3099.6026	3103.2783	3115.6584	3119.6354	3835.2027
CCN=C(CCO)OC	CCN=C(CCO)OC	
InChI=1S/C6H13NO2/c1-3-7-6(9-2)4-5-8/h8H,3-5H2,1-2H3	InChI=1S/C6H13NO2/c1-3-7-6(9-2)4-5-8/h8H,3-5H2,1-2H3
