19
gdb 51328	4.01663	1.07354	0.99496	2.9485	78.99	-0.2427	-0.0184	0.2243	1226.2666	0.15946	-385.844635	-385.83683	-385.835886	-385.878254	29.85	
O	-0.0392837783	-0.1181759707	-0.1376422304	-0.241906
C	-0.0160490522	 1.0858130583	-0.1210250129	 0.165441
C	 1.2282681163	 1.9333736972	 0.0006512543	-0.31454
C	 1.3660183275	 2.9040427482	-1.1806307505	 0.016608
C	 2.5912092831	 3.8060042993	-1.314643512	-0.08975
C	 3.6602886139	 3.0407386612	-2.1152272251	-0.059816
C	 3.0904490739	 1.6687794106	-2.467197982	-0.234043
C	 1.7247324402	 2.3941450499	-2.613866651	-0.077344
C	 2.5270239765	 3.7447294629	-2.8213618042	-0.082948
H	-0.9605583782	 1.6748467855	-0.2124246073	 0.06692
H	 1.1360338311	 2.5275730266	 0.921926331	 0.11548
H	 2.0960397741	 1.279356797	 0.1080346514	 0.123019
H	 0.4635130665	 3.5237081892	-1.2489578335	 0.07595
H	 2.8615688989	 4.6536814945	-0.6971544692	 0.083831
H	 4.698497392	 3.3440802248	-2.0697874812	 0.08592
H	 3.4569044012	 1.3361759152	-3.4422464931	 0.102711
H	 3.1712508914	 0.8432793199	-1.7522402015	 0.098163
H	 0.9505665784	 1.995153069	-3.2660482674	 0.074498
H	 2.5020325636	 4.5184722114	-3.5741096052	 0.091806
37.8415	62.5021	163.5961	260.5268	327.2933	456.3557	473.5227	582.7147	689.6765	735.5933	774.8647	787.9534	800.9135	824.3187	878.0209	929.7476	931.5463	978.2699	993.2387	1010.445	1028.0623	1032.2536	1039.0344	1074.9463	1092.8967	1112.1851	1140.6405	1161.9465	1167.9516	1193.5533	1226.124	1244.6414	1266.987	1292.0847	1327.2791	1367.4383	1399.2715	1429.0154	1462.5715	1510.9389	1833.2202	2840.1788	3011.3221	3032.1899	3044.0871	3097.1313	3117.7203	3136.1145	3187.7853	3197.5384	3228.7005
O=CCC1C2C3CC1C23	O=CC[C@H]1[C@H]2[C@H]3C[C@@H]1[C@@H]23	
InChI=1S/C8H10O/c9-2-1-4-5-3-6-7(4)8(5)6/h2,4-8H,1,3H2	InChI=1S/C8H10O/c9-2-1-4-5-3-6-7(4)8(5)6/h2,4-8H,1,3H2/t4-,5+,6-,7+,8-/m1/s1
