20
gdb 110554	3.30237	1.38366	1.32301	2.9809	76.73	-0.2479	0.0891	0.3369	1053.0613	0.174863	-403.142175	-403.135063	-403.134119	-403.173641	29.382	
O	 0.7464032313	-0.6109399707	-1.1047626661	-0.425772
C	 0.1164500666	-0.0247357879	 0.0193199846	-0.084603
C	-1.3474230491	-0.4450624412	 0.08334354	 0.054649
C	-2.2856414159	 0.1801726388	 1.1383459888	-0.082779
C	-2.4080746877	 1.6329828668	 0.6262569411	-0.241286
C	-2.7158970666	 1.2690521059	-0.8213690077	-0.031518
C	-3.4874262752	-0.0066788316	-0.8017991308	-0.030905
C	-3.6297040488	-0.4214880622	 0.6610798766	-0.239649
N	-2.0478632525	-0.0183208573	-1.1622256293	-0.146822
H	 0.1329260387	-0.4818495073	-1.8398542064	 0.290767
H	 0.6496468607	-0.3796847786	 0.9084262838	 0.102313
H	 0.2075689988	 1.0720480149	-0.0053036811	 0.08339
H	-1.3760555348	-1.5402290392	 0.1270826553	 0.08184
H	-2.0290885964	 0.041408166	 2.1872837612	 0.071208
H	-3.2356041271	 2.1714138732	 1.0994339495	 0.102101
H	-1.4992198982	 2.2269759883	 0.7459390403	 0.107307
H	-2.7965725555	 2.0029697805	-1.6133776148	 0.091939
H	-4.1961001262	-0.2928130038	-1.56934753	 0.092506
H	-3.6857262904	-1.5057374155	 0.7972341948	 0.104331
H	-4.4998621115	 0.0376339609	 1.1412377101	 0.100984
106.7383	183.1538	226.7893	375.776	446.1093	462.1247	471.1582	547.8892	666.4685	695.7431	786.8338	823.229	852.7111	875.295	912.6256	922.7058	936.7301	940.7887	945.9722	1000.5854	1022.1304	1042.7922	1062.5661	1076.883	1094.3787	1122.2995	1145.5378	1160.581	1198.7868	1216.3068	1226.461	1255.4219	1276.6558	1283.9681	1297.8862	1330.8762	1345.1277	1381.7363	1402.1609	1445.632	1487.8341	1504.1365	1510.744	2985.5431	3040.4618	3050.3897	3057.3312	3065.0338	3096.4559	3106.817	3135.2007	3185.4736	3196.7359	3766.39
OCC1C2CC3C(C2)N13	OC[C@H]1[C@H]2C[C@@H]3[C@H](C2)N13	
InChI=1S/C7H11NO/c9-3-7-4-1-5-6(2-4)8(5)7/h4-7,9H,1-3H2	InChI=1S/C7H11NO/c9-3-7-4-1-5-6(2-4)8(5)7/h4-7,9H,1-3H2/t4-,5+,6-,7-,8?/m0/s1
