22
gdb 84805	2.92878	1.29702	1.00963	0.9859	87.5	-0.2308	0.0276	0.2584	1249.7129	0.195071	-367.1929	-367.184154	-367.183209	-367.22641	33.842	
C	-0.1531602742	 1.524278556	 0.0364017803	-0.375564
C	 0.0079762908	-0.0047422957	 0.0986087861	-0.055041
C	 0.719042116	-0.5402552724	-1.12654497	-0.06292
C	 1.9756935278	-0.8990489336	-0.8683155005	-0.06983
C	 2.3261604748	-0.7073832631	 0.5870264247	-0.268862
C	 0.9376866968	-0.5152578723	 1.245088961	 0.045306
N	 0.9871681129	 0.3722887254	 2.3977416878	-0.059721
C	-0.0339495576	 0.1674528013	 3.4208138624	-0.224842
C	 1.3774402998	-0.2369113468	 3.664660072	-0.223877
H	 0.8182073201	 2.0212293678	-0.0357382008	 0.121176
H	-0.7440717893	 1.8066744093	-0.8416379175	 0.101823
H	-0.6589149079	 1.9066828786	 0.9267576595	 0.118222
H	-0.9920458797	-0.4447593552	 0.2043560364	 0.066593
H	 0.2492920351	-0.5574718383	-2.1045984347	 0.08729
H	 2.6887892024	-1.261578415	-1.6007436308	 0.089065
H	 2.8757798798	-1.5518793615	 1.0177465402	 0.096587
H	 2.9500510986	 0.1842143576	 0.7377970644	 0.114669
H	 0.569849912	-1.5160837316	 1.5377318166	 0.053605
H	-0.4382285045	 1.0673842252	 3.875389015	 0.114454
H	-0.7589424903	-0.6306054705	 3.266229339	 0.108892
H	 1.5925455461	-1.304595861	 3.6733524149	 0.108188
H	 2.0228299006	 0.3621505758	 4.3006213241	 0.114787
77.7712	95.1675	177.2934	216.1911	233.8061	281.05	324.6612	433.854	476.5571	488.2277	667.0777	733.3851	758.862	776.3781	815.3997	876.0083	900.6775	907.8349	964.0841	976.5674	984.9419	997.2514	1034.0043	1063.0063	1083.9385	1091.2606	1113.3969	1119.0437	1130.4679	1143.4367	1165.4193	1178.1677	1207.8598	1284.219	1310.5227	1317.8429	1323.7558	1360.5382	1371.1847	1385.5474	1409.8128	1486.9852	1490.7474	1491.7678	1493.6174	1519.6695	1686.0572	2915.927	3015.1042	3017.8445	3038.0005	3058.3915	3091.5491	3096.3762	3105.485	3122.0877	3174.5602	3175.1989	3188.9464	3201.4104
CC1C=CCC1N1CC1	C[C@H]1C=CC[C@H]1N1CC1	
InChI=1S/C8H13N/c1-7-3-2-4-8(7)9-5-6-9/h2-3,7-8H,4-6H2,1H3	InChI=1S/C8H13N/c1-7-3-2-4-8(7)9-5-6-9/h2-3,7-8H,4-6H2,1H3/t7-,8+/m0/s1
