18
gdb 60193	2.59934	0.97872	0.80741	3.4804	72.59	-0.2777	-0.0023	0.2755	1435.9141	0.145352	-439.073934	-439.064281	-439.063337	-439.109475	34.491	
C	-0.2364947978	 1.5148445056	 0.0502265084	-0.408355
C	-0.3525367688	 0.001197923	-0.1102854843	 0.135621
O	 0.9150537685	-0.6417855033	 0.0203875851	-0.430974
C	-1.3789497548	-0.6070280553	 0.8604204643	-0.268043
C	-1.5166238564	-2.0967640108	 0.6715533587	 0.08678
O	-2.6044115847	-2.7510406447	 1.3248559794	-0.238495
C	-2.6190015272	-2.7149585151	-0.1026110356	-0.105806
C	-3.6441764844	-1.9013983006	-0.7209903785	 0.303416
N	-4.4523279078	-1.2564832867	-1.2381303783	-0.330845
H	 0.5153445406	 1.9095648859	-0.6380330769	 0.130198
H	-1.191074361	 2.0089583058	-0.1546997176	 0.130978
H	 0.0613805707	 1.7764700295	 1.0737218368	 0.110196
H	-0.6655393668	-0.2250975153	-1.1369703361	 0.103396
H	 1.3116765016	-0.343325093	 0.846827397	 0.279829
H	-1.0549393055	-0.4168518201	 1.8931936394	 0.106069
H	-2.352855239	-0.1232856304	 0.7357668494	 0.13171
H	-0.5818341292	-2.6548699784	 0.6890445691	 0.123492
H	-2.4539566479	-3.6720204363	-0.5938606804	 0.140835
35.9254	68.5959	148.6366	157.7917	235.1523	239.4453	298.0501	317.8867	368.3984	398.9898	474.2369	493.6703	579.3403	608.2074	805.5897	826.0771	858.1282	915.4046	938.7488	969.2312	1034.7624	1056.4525	1080.9606	1129.2319	1143.2158	1171.8491	1221.6737	1275.1248	1298.9618	1323.9187	1372.6427	1388.8861	1405.0071	1421.0784	1453.1425	1476.6715	1493.0657	1495.0176	2358.3182	3017.6048	3025.0191	3043.335	3087.957	3099.4497	3124.1387	3130.8822	3140.9577	3795.1228
CC(O)CC1OC1C#N	C[C@@H](O)C[C@H]1O[C@H]1C#N	
InChI=1S/C6H9NO2/c1-4(8)2-5-6(3-7)9-5/h4-6,8H,2H2,1H3	InChI=1S/C6H9NO2/c1-4(8)2-5-6(3-7)9-5/h4-6,8H,2H2,1H3/t4-,5-,6+/m1/s1
