13
gdb 49205	3.45185	1.31724	0.95341	8.5479	72.83	-0.2426	-0.0977	0.1449	1123.9228	0.089215	-452.783292	-452.775515	-452.774571	-452.815926	27.946	
N	-0.0251508308	 1.3238518484	 0.0117852187	-0.469466
C	 0.0170978358	 0.0614495574	 0.0038089387	 0.322838
N	 1.1225601892	-0.8068837608	-0.0080659376	-0.358095
C	 0.7068181881	-2.1098834168	-0.0134070589	-0.058403
C	-0.6506243643	-2.2440103906	-0.0061289388	 0.047327
C	-1.3383249994	-3.5304700337	-0.009557242	 0.07871
O	-2.5348539534	-3.6957606286	-0.0047134406	-0.265274
C	-1.2192243236	-0.8769986212	 0.0051458511	 0.253254
O	-2.3593819085	-0.4972011924	 0.0144139994	-0.268672
H	 0.9048678916	 1.7501839862	 0.0089582517	 0.226815
H	 2.0847759564	-0.5121437821	-0.0119862634	 0.272119
H	 1.4419422483	-2.9059277849	-0.0224740452	 0.162534
H	-0.6372103096	-4.400262331	-0.0200640931	 0.056314
83.1015	154.3605	159.0411	276.4873	281.8885	320.5569	417.1433	444.4594	535.7734	556.303	652.788	702.179	801.9247	823.7194	897.3678	940.1565	949.401	1033.6431	1042.3533	1149.8433	1232.3694	1307.3481	1349.736	1436.3358	1448.7636	1627.981	1758.2467	1788.6801	1845.8159	2828.1359	3213.5702	3443.9098	3657.4026
N=C1NC=C(C=O)C1=O	[NH][C]1NC=C(C=O)C1=O	
InChI=1S/C5H4N2O2/c6-5-4(9)3(2-8)1-7-5/h1-2H,(H2,6,7,9)	InChI=1S/C5H4N2O2/c6-5-4(9)3(2-8)1-7-5/h1-2H,(H2,6,7,9)
