17
gdb 91888	2.47063	1.75254	1.12104	3.577	68.82	-0.2636	0.	0.2636	1072.6166	0.136046	-458.991106	-458.983298	-458.982354	-459.023552	29.804	
C	-0.0005564361	 1.4962515419	 0.011885928	-0.405363
C	 0.0182252707	-0.0121411498	-0.0566847077	 0.206362
O	 0.8739882013	-0.412645619	-1.0881454681	-0.244263
C	 0.9274949694	-1.808063222	-1.2251332422	 0.086698
C	 2.1707262098	-2.4598205749	-0.7183605921	-0.300051
C	 0.8635654127	-2.5884606028	 0.0627775618	-0.210659
C	 0.7073022415	-1.8333900027	 1.3454071468	 0.426244
O	 0.7884671395	-2.3314680573	 2.4333428434	-0.332688
O	 0.4817077897	-0.4959143653	 1.2198978464	-0.238193
H	 1.0144182197	 1.867219819	 0.1724368416	 0.142622
H	-0.3863136549	 1.9033576963	-0.9254512274	 0.132357
H	-0.6356107789	 1.8233086838	 0.8374817548	 0.139182
H	-0.9880198873	-0.4278875042	-0.2176870063	 0.085419
H	 0.4293704809	-2.1875438418	-2.1134768829	 0.108064
H	 2.533762901	-3.3556407642	-1.2080272369	 0.130184
H	 2.9345809404	-1.8015875954	-0.321790891	 0.145599
H	 0.4008582806	-3.5672870318	 0.0773984418	 0.128487
92.58	145.179	209.7	216.7217	285.0699	418.0985	452.1799	468.5421	489.8971	585.8765	716.4995	751.1573	769.7174	818.1125	833.6882	907.7785	944.4855	998.2077	1009.637	1039.9865	1059.6261	1103.094	1116.9494	1131.2699	1165.3585	1175.5972	1219.3964	1262.7555	1360.7909	1374.1912	1388.2534	1406.1588	1429.964	1474.5053	1481.8698	1489.0039	1853.9412	2992.0877	3061.3801	3140.3212	3142.9313	3148.1447	3148.2893	3195.4159	3242.6734
CC1OC2CC2C(=O)O1	C[C@H]1O[C@H]2C[C@H]2C(=O)O1	
InChI=1S/C6H8O3/c1-3-8-5-2-4(5)6(7)9-3/h3-5H,2H2,1H3	InChI=1S/C6H8O3/c1-3-8-5-2-4(5)6(7)9-3/h3-5H,2H2,1H3/t3-,4+,5-/m0/s1
