19
gdb 91551	2.95226	1.3642	1.132	2.958	75.15	-0.2409	0.0699	0.3108	1127.948	0.160904	-419.126634	-419.118485	-419.11754	-419.160257	31.436	
O	 0.6614411365	 1.0580279891	-0.1225786881	-0.4381
C	 0.3656209047	-0.2767207419	 0.1836515214	 0.100514
C	 0.112970493	-0.6732806315	 1.6906786051	-0.263965
C	-1.3138597908	-1.0455551509	 1.2960150009	-0.110812
N	-1.8997415849	 0.1869856264	 0.697670067	-0.391324
C	-1.0766832531	-0.7291265279	-0.1414490982	 0.319046
C	-1.5321229992	-1.3254090354	-1.4230871164	-0.17161
C	-2.6972544294	-0.7796569853	-2.1719194251	-0.239479
N	-1.3345536066	-0.5526974625	-2.6693075376	-0.309634
H	-0.0881592291	 1.5655333617	 0.2196867845	 0.28765
H	 1.1286778211	-0.8965888907	-0.2917281691	 0.098028
H	 0.7205499856	-1.5244847772	 2.0063690352	 0.106325
H	 0.2070120522	 0.1395083335	 2.4151226016	 0.107004
H	-1.9626652723	-1.7947771497	 1.7330262603	 0.100202
H	-2.8765876931	-0.0159234155	 0.4901828349	 0.229894
H	-1.2985807292	-2.3813944508	-1.5467257022	 0.098127
H	-3.303069745	-1.4451708107	-2.780684458	 0.122444
H	-3.2404341472	 0.0581071172	-1.742624384	 0.112633
H	-1.0273204533	 0.3866876522	-2.4245210421	 0.243057
28.1343	124.6937	186.0992	209.9211	338.5276	355.0827	442.7022	484.8179	543.0555	576.7564	682.254	702.73	823.5787	832.8683	858.6131	885.028	922.6448	941.6499	951.6481	982.7729	1022.2338	1033.1754	1040.3911	1101.3978	1123.9352	1129.3103	1145.3944	1165.2569	1186.099	1213.3914	1225.6851	1258.8724	1279.8215	1288.8826	1311.7809	1340.1308	1381.9002	1442.183	1459.4171	1483.0151	1507.0503	3064.5104	3096.0076	3107.7886	3118.2497	3125.042	3191.8931	3192.4087	3483.3851	3494.1263	3742.3685
OC1CC2NC12C1CN1	O[C@H]1C[C@H]2N[C@@]12[C@H]1CN1	
InChI=1S/C6H10N2O/c9-5-1-3-6(5,8-3)4-2-7-4/h3-5,7-9H,1-2H2	InChI=1S/C6H10N2O/c9-5-1-3-6(5,8-3)4-2-7-4/h3-5,7-9H,1-2H2/t3-,4-,5+,6+/m1/s1
