22
gdb 86384	2.52405	1.4396	1.10313	2.2168	81.41	-0.2331	0.0724	0.3055	1202.3974	0.194926	-404.349059	-404.339924	-404.33898	-404.382362	35.839	
C	 0.0792737853	 1.5685928175	-0.0320003554	-0.399492
C	 0.0123312833	 0.0415418924	 0.0235895466	 0.029532
C	 0.622395573	-0.6622145706	-1.212760012	-0.266629
C	 1.1653572196	-2.0313402254	-0.7270562026	 0.107378
O	 2.313080752	-2.4777451091	-1.4270203208	-0.444705
C	 1.4235072437	-1.8379558615	 0.766438324	 0.302803
C	 1.6367603276	-3.0437977827	 1.6396086518	-0.50049
N	 2.249718892	-0.6149743393	 0.9545657956	-0.390802
C	 0.780547708	-0.5755487196	 1.185062974	-0.094097
H	 1.1219510265	 1.8994530572	-0.0739162611	 0.128462
H	-0.437551266	 1.9565181365	-0.9159979444	 0.111863
H	-0.3857673373	 2.0218742516	 0.8504705258	 0.105801
H	-1.0370711513	-0.2656861532	 0.1335682304	 0.070222
H	-0.0925156717	-0.7683280813	-2.0324494497	 0.096675
H	 1.4655310803	-0.0765311679	-1.5915450925	 0.106578
H	 0.416491978	-2.8201699939	-0.8651579994	 0.081226
H	 3.0082001146	-1.8416003845	-1.2148862695	 0.283924
H	 2.501221238	-3.6195863903	 1.2916789679	 0.134843
H	 1.8091871172	-2.758478781	 2.6828210569	 0.108895
H	 0.7654024096	-3.707591185	 1.6120346946	 0.123674
H	 2.7210632348	-0.6733578912	 1.8546193169	 0.225527
H	 0.4282721427	-0.4298741086	 2.2029472228	 0.078811
99.1791	138.0177	208.5988	228.6485	235.8184	247.952	305.7907	383.0219	426.4352	456.5974	489.265	559.6666	592.9691	616.4755	695.8245	825.1563	859.7501	878.4258	928.3988	931.9803	965.0509	1012.7519	1018.9476	1049.3454	1055.7728	1094.4617	1112.793	1123.5934	1134.6021	1148.0135	1228.6317	1258.3272	1284.7717	1313.5292	1332.168	1342.5619	1355.039	1374.2528	1403.4511	1412.2238	1433.9023	1459.9171	1483.5653	1484.2867	1495.9879	1502.6133	1503.5226	3007.6682	3026.5799	3029.1916	3043.6291	3058.2045	3092.4572	3093.6278	3099.0112	3104.4744	3108.8495	3143.9299	3490.8066	3772.2661
CC1CC(O)C2(C)NC12	C[C@H]1C[C@@H](O)[C@@]2(C)N[C@@H]12	
InChI=1S/C7H13NO/c1-4-3-5(9)7(2)6(4)8-7/h4-6,8-9H,3H2,1-2H3	InChI=1S/C7H13NO/c1-4-3-5(9)7(2)6(4)8-7/h4-6,8-9H,3H2,1-2H3/t4-,5+,6-,7+/m0/s1
