16
gdb 32190	2.03922	1.78707	0.99949	2.4872	73.55	-0.2387	-0.0446	0.1941	1141.5702	0.126534	-434.115195	-434.107061	-434.106117	-434.148233	29.599	
N	 0.0601036264	 1.2871725101	-0.6296326349	-0.513843
C	-0.0318124082	 0.0107283691	 0.0950069167	-0.279425
C	-1.4308804266	-0.5238415858	 0.1011411222	 0.364993
N	-2.0855880801	-0.8650109542	 1.1781522292	-0.304151
C	-3.3156365132	-1.3407570175	 0.7456382467	-0.099834
C	-3.4067626775	-1.2843514875	-0.6082356896	-0.103552
N	-2.1948715939	-0.7558469944	-1.0415183549	-0.096267
C	-1.8500093897	-0.5180448822	-2.3812579924	 0.165737
O	-2.5764418358	-0.7991187389	-3.2973470936	-0.285201
H	-0.4674854556	 1.9998153032	-0.1334359697	 0.239788
H	 1.0258903803	 1.6001124879	-0.6458958879	 0.238308
H	 0.6387725298	-0.699601361	-0.4063092589	 0.123542
H	 0.2730492761	 0.0511272225	 1.1492273339	 0.131283
H	-4.0556872112	-1.6891019369	 1.4494660403	 0.12073
H	-4.1734906581	-1.5432317104	-1.3170789445	 0.159478
H	-0.8684240227	-0.034245834	-2.4761130626	 0.138412
92.7511	135.7391	157.0649	207.5734	263.4526	293.0071	332.741	415.7365	554.2497	631.9626	649.7969	734.1241	788.5081	837.6741	870.1711	880.5473	928.4136	993.2502	1037.5847	1052.7411	1089.1931	1138.3096	1176.9962	1182.6335	1283.9248	1311.555	1364.6074	1407.0914	1433.2142	1445.5835	1503.7324	1535.4276	1593.9628	1657.1561	1818.1287	3011.6752	3046.208	3061.633	3256.4903	3303.1442	3491.2479	3572.9807
NCC1=NC=CN1C=O	NCc1nccn1C=O	
InChI=1S/C5H7N3O/c6-3-5-7-1-2-8(5)4-9/h1-2,4H,3,6H2	InChI=1S/C5H7N3O/c6-3-5-7-1-2-8(5)4-9/h1-2,4H,3,6H2
