18
gdb 118399	3.06408	0.79209	0.66142	4.1746	73.32	-0.2674	-0.043	0.2244	1630.9018	0.144678	-439.100022	-439.089536	-439.088591	-439.13728	35.16	
O	-0.0834487416	 1.4132637756	-0.0255800427	-0.420358
C	 0.0496799109	 0.003605018	 0.0542726046	-0.089446
C	-1.3558906874	-0.5792389943	-0.0581835044	-0.199378
C	-1.3896721465	-2.1223847559	 0.0008779456	-0.078498
C	-2.8407701692	-2.6154540224	 0.1939747206	-0.373892
C	-2.9406265031	-4.0696563881	 0.3081110442	 0.259642
N	-3.0004063864	-5.2202792162	 0.3943916322	-0.294205
C	-0.7919075944	-2.6786373902	-1.2845944861	 0.172177
O	 0.3693420585	-2.9531183048	-1.4287490977	-0.23987
H	 0.7969193701	 1.7998643283	-0.016020547	 0.291768
H	 0.6914083198	-0.3899804472	-0.746276295	 0.114974
H	 0.4988358822	-0.3054070598	 1.012037525	 0.09416
H	-1.9660123015	-0.1737924534	 0.7571567893	 0.118396
H	-1.8114927667	-0.2253574777	-0.9921858956	 0.117655
H	-0.766761594	-2.4722232858	 0.8305368443	 0.120357
H	-3.2665098271	-2.1623609992	 1.0951859103	 0.162438
H	-3.464862908	-2.2874373104	-0.6466392881	 0.158369
H	-1.5165608755	-2.7730371264	-2.1280401594	 0.085712
45.4584	54.5691	78.0241	105.3324	113.7953	200.8658	255.5403	273.2796	316.8319	349.2425	390.5601	411.8574	529.9309	605.4864	788.6235	843.5242	923.7277	958.69	983.0204	1018.8469	1046.394	1086.9528	1096.1703	1142.6651	1209.3591	1221.2967	1240.8335	1289.8136	1310.2622	1342.5934	1345.6339	1362.3296	1427.3443	1462.7611	1469.3528	1493.4647	1529.5276	1837.3441	2363.8751	2854.0604	2972.9636	3023.9855	3027.7021	3040.0317	3065.1274	3075.0325	3088.0437	3834.1247
OCCC(CC#N)C=O	OCC[C@@H](CC#N)C=O	
InChI=1S/C6H9NO2/c7-3-1-6(5-9)2-4-8/h5-6,8H,1-2,4H2	InChI=1S/C6H9NO2/c7-3-1-6(5-9)2-4-8/h5-6,8H,1-2,4H2/t6-/m1/s1
