16
gdb 50191	5.09791	1.03593	0.94114	1.8015	71.22	-0.2627	-0.0398	0.2229	1204.0721	0.124192	-437.87386	-437.866183	-437.865239	-437.906756	28.356	
N	 0.2755088554	 1.0157884982	 0.6539341811	-0.540284
C	 0.0114545723	-0.0746959739	 0.099640467	 0.433607
O	 0.7911561805	-0.8752517904	-0.7319296459	-0.2664
C	-0.2945179015	-1.8282006332	-0.8970088012	 0.084485
C	-0.2278174012	-2.9790472075	 0.1566911996	-0.108571
C	-1.1284823875	-2.1444806339	 1.1080225539	-0.264963
C	-1.1880325293	-0.9934433427	 0.0577385882	-0.158418
C	-0.8172645905	-4.2742965233	-0.3457877272	 0.128759
O	-1.8993980002	-4.7056482548	-0.0404855311	-0.229589
H	 1.2250907141	 1.3267600267	 0.4424738346	 0.232204
H	-0.4874530904	-2.0470577718	-1.9471762402	 0.104368
H	 0.8033857012	-3.1612665481	 0.4747493803	 0.112967
H	-2.0943188863	-2.6316853066	 1.2496513502	 0.144353
H	-0.707574073	-1.8776844326	 2.0776023211	 0.126892
H	-2.152611559	-0.5599837883	-0.195161415	 0.112901
H	-0.1692469946	-4.8153860277	-1.0721811756	 0.08769
66.0259	101.52	150.0045	256.3921	310.1199	347.336	433.488	610.5288	662.6615	715.2073	763.8821	822.1624	863.5178	875.6717	891.2707	896.2424	952.1958	994.5587	1007.4008	1019.7479	1049.816	1076.2925	1153.3883	1159.6682	1190.1048	1207.4963	1240.2082	1254.2241	1285.6739	1324.4895	1342.4733	1420.2778	1482.0779	1824.8666	1829.4721	2877.1848	3070.5936	3089.2895	3117.4678	3146.6551	3152.5884	3479.5486
N=C1OC2C(CC12)C=O	[NH][C]1O[C@H]2[C@@H](C[C@@H]12)C=O	
InChI=1S/C6H7NO2/c7-6-4-1-3(2-8)5(4)9-6/h2-5,7H,1H2	InChI=1S/C6H7NO2/c7-6-4-1-3(2-8)5(4)9-6/h2-5,7H,1H2/t3-,4+,5-/m0/s1
