21
gdb 55862	3.63283	0.83327	0.82321	4.2417	80.44	-0.2312	0.038	0.2692	1512.5464	0.181717	-420.431873	-420.421765	-420.42082	-420.467236	37.572	
C	-0.0290968255	 1.5847216713	 0.0896430564	-0.43915
C	 0.1068376984	 0.0759654216	 0.0995674733	 0.321436
C	-0.7080995413	-0.6256092613	-0.969939609	-0.460529
N	 1.4723985637	-0.4299687599	 0.3602153123	-0.375433
C	 0.40012105	-0.6838120342	 1.3517048519	-0.056537
C	 0.5623577002	-0.0760783911	 2.7329883223	-0.314073
C	 1.7189376547	-0.6910093753	 3.5331514271	 0.369119
N	 2.9334623208	-0.5560859407	 2.9257057544	-0.504923
O	 1.5650006979	-1.210947449	 4.6211450203	-0.362588
H	 0.6549238455	 2.0591748778	 0.7948462256	 0.130133
H	 0.2030487534	 1.9758793938	-0.9071186451	 0.120097
H	-1.0526393432	 1.886627119	 0.3373509593	 0.120136
H	-0.3958498373	-0.3040594846	-1.9704289576	 0.123513
H	-0.5969648599	-1.7131351918	-0.910410262	 0.114521
H	-1.7731831698	-0.3915424717	-0.8660663217	 0.128852
H	 1.651553791	-1.2699702475	-0.1844758457	 0.229877
H	 0.009086207	-1.7003283632	 1.3753016407	 0.091901
H	 0.7367635905	 1.00115927	 2.6577135249	 0.118148
H	-0.346297525	-0.2311029379	 3.3186136728	 0.125633
H	 2.9719171555	-0.2903695805	 1.9507834333	 0.268505
H	 3.7207443833	-1.0201334548	 3.3490921563	 0.25136
56.1073	63.2222	138.1321	173.4559	213.1413	232.1967	269.1316	363.4608	387.7634	412.2737	432.2525	453.7781	504.1118	562.0212	624.2775	697.8397	735.6321	816.4318	862.3535	895.2571	954.626	959.3632	990.4518	992.5305	1035.6579	1086.2904	1131.3888	1133.6222	1157.805	1177.4194	1258.2283	1302.8134	1315.1884	1351.7443	1358.2136	1413.5556	1423.6491	1450.5797	1464.9524	1477.7058	1489.8592	1500.5011	1511.8975	1620.3522	1804.8321	3024.4983	3036.2744	3067.2828	3089.1418	3095.1032	3099.8344	3108.2684	3126.2014	3136.6642	3493.9018	3536.0534	3695.0534
CC1(C)NC1CC(N)=O	CC1(C)N[C@H]1CC(=O)N	
InChI=1S/C6H12N2O/c1-6(2)4(8-6)3-5(7)9/h4,8H,3H2,1-2H3,(H2,7,9)	InChI=1S/C6H12N2O/c1-6(2)4(8-6)3-5(7)9/h4,8H,3H2,1-2H3,(H2,7,9)/t4-/m0/s1
