17
gdb 55962	4.41752	0.97975	0.82817	7.8735	70.14	-0.2427	-0.0028	0.24	1320.4754	0.13824	-455.198721	-455.190728	-455.189783	-455.232019	29.439	
O	 0.0866187275	 0.1007682067	-0.8438613474	-0.369627
C	 0.056458363	 1.1873877501	-0.0620348403	 0.398748
O	 1.024686063	 1.5610043618	 0.5467402436	-0.332792
C	-1.2758876058	 1.9509693903	-0.0258594404	-0.347067
C	-2.5279116251	 1.0693548612	-0.0294099878	 0.037505
C	-3.8748416539	 1.8457377368	-0.0609823104	-0.202228
N	-4.652611128	 1.0228163933	-1.0010582495	-0.301321
H	-5.445061692	 1.4185956038	-1.4833248176	 0.254768
C	-3.7510149161	 0.256422112	-1.696706947	 0.063844
N	-2.5603657239	 0.2035762752	-1.2343839657	-0.266425
H	-1.2517086646	 2.5927440753	 0.8576111375	 0.132171
H	-1.3023627633	 2.6054794604	-0.9072420315	 0.126209
H	-2.5021889868	 0.4097252546	 0.8486194249	 0.108341
H	-4.3583658073	 1.8997036076	 0.9165660941	 0.128288
H	-3.7420501279	 2.8679879396	-0.4422008713	 0.112185
H	-4.0779962899	-0.2962915827	-2.572526703	 0.145055
H	-0.8104546589	-0.0642374659	-1.2237614981	 0.312347
74.6544	100.3605	131.4456	201.0986	326.3018	352.4553	424.4378	495.3069	560.1908	618.3046	672.9991	740.8621	838.3692	862.3976	883.8776	890.5895	935.3147	969.0604	999.3898	1042.119	1071.8549	1105.967	1147.1829	1193.1443	1224.4742	1276.6294	1285.9742	1308.7384	1331.9744	1351.5137	1381.4357	1458.034	1463.7184	1478.8555	1520.9735	1693.3485	1856.9915	3003.6188	3011.2209	3034.4954	3100.7128	3113.7731	3190.2151	3332.3086	3623.4479
[O-]C(=O)CC1C[NH+]=CN1	OC(=O)C[C@H]1CN[CH][N]1	
InChI=1S/C5H8N2O2/c8-5(9)1-4-2-6-3-7-4/h3-4H,1-2H2,(H,6,7)(H,8,9)	InChI=1S/C5H8N2O2/c8-5(9)1-4-2-6-3-7-4/h3-4H,1-2H2,(H,6,7)(H,8,9)/t4-/m0/s1
