21
gdb 87851	3.35269	1.31211	1.22981	1.1449	82.49	-0.249	0.0831	0.3321	1114.3362	0.184512	-387.060788	-387.053093	-387.052149	-387.092614	31.866	
O	-0.1589150407	 1.4029151357	-0.113962748	-0.422006
C	-0.0797090417	 0.0083681285	-0.0215056684	 0.012475
C	-0.5274467946	-0.6861611621	 1.2485319432	-0.414159
C	-1.3730659967	-0.7369433488	-0.0008890854	 0.414026
C	-2.7429960309	-0.0358138172	-0.133502217	-0.292578
C	-3.4510792773	-1.1005593386	-0.9990572541	-0.018106
C	-3.03279205	-2.4263425	-0.2950863533	-0.223669
C	-1.6208057477	-2.0094889026	-0.8061679311	-0.092328
C	-2.3579170788	-1.4413813443	-2.0559146822	-0.224999
H	 0.5343833319	 1.7778950575	 0.4388868309	 0.28662
H	 0.7532725022	-0.4363572936	-0.5689571708	 0.078332
H	 0.0045359178	-1.5783265411	 1.56612309	 0.10455
H	-0.8729682627	-0.0483375143	 2.0568359847	 0.108097
H	-3.2370190825	 0.1125153947	 0.8318609151	 0.092896
H	-2.6626160787	 0.9351383493	-0.6290226781	 0.115527
H	-4.4845431759	-0.9014778903	-1.2842519141	 0.057187
H	-3.1842514526	-2.5092271557	 0.7853275944	 0.088439
H	-3.4182157389	-3.3139103057	-0.8026159176	 0.091418
H	-0.7961737359	-2.7194276852	-0.8867615887	 0.051643
H	-2.6733704062	-2.2245253563	-2.749546463	 0.091228
H	-1.8879265303	-0.6163487501	-2.5990036263	 0.095407
117.5822	168.0982	232.5215	285.3571	358.9922	407.5286	456.3511	486.7664	525.7325	569.8506	735.4555	817.6866	830.0903	839.6967	848.9815	861.3103	904.8259	921.0395	948.835	964.4659	994.6629	1021.5679	1031.5106	1043.69	1073.5013	1079.3485	1087.1545	1099.5276	1121.734	1164.019	1186.5844	1222.9357	1226.5184	1237.1467	1258.0915	1271.5141	1277.924	1301.7623	1317.1404	1365.6011	1428.1152	1486.6067	1493.7016	1497.5482	1525.5025	3049.3626	3050.6504	3054.6642	3080.2788	3100.5586	3100.7558	3108.558	3112.2392	3113.8146	3117.5762	3202.4194	3806.018
OC1CC11CC2CC1C2	O[C@H]1C[C@]21C[C@@H]1C[C@H]2C1	
InChI=1S/C8H12O/c9-7-4-8(7)3-5-1-6(8)2-5/h5-7,9H,1-4H2	InChI=1S/C8H12O/c9-7-4-8(7)3-5-1-6(8)2-5/h5-7,9H,1-4H2/t5-,6+,7-,8+/m0/s1
