19
gdb 80889	2.50566	1.75018	1.47557	2.4149	73.57	-0.2469	0.0679	0.3148	981.9347	0.159359	-422.974722	-422.966954	-422.96601	-423.006372	31.63	
C	-0.1410101796	 1.5493216931	 0.0267341709	-0.443648
C	-0.0093001975	 0.0319895245	 0.0268582704	 0.018291
C	 1.0927217901	-0.6001221286	-0.8854401025	-0.100994
C	 2.1194998177	-0.2691284163	 0.2508051721	-0.306495
C	 0.8599935691	-0.5991809283	 1.1456202842	 0.375508
O	 0.689709876	-0.1476432124	 2.4498244746	-0.490409
C	 0.7477182236	-2.1202962269	 0.8350834046	-0.041288
O	-0.330928644	-2.5185195711	-0.0242886231	-0.251038
C	 0.9165502885	-2.1148465785	-0.6148024307	 0.042319
H	 0.8128857484	 2.0784701335	 0.092034646	 0.115284
H	-0.6432368993	 1.8813748651	-0.888188719	 0.114131
H	-0.7517962133	 1.8688428929	 0.876691719	 0.131608
H	-0.994463107	-0.421801219	-0.0785432959	 0.097749
H	 1.2417830656	-0.2736640132	-1.9133220033	 0.068094
H	 2.9938612203	-0.9218072534	 0.3414653306	 0.085923
H	 2.4264006126	 0.7756891165	 0.2960900117	 0.107193
H	 1.2859681514	-0.631495209	 3.0312536723	 0.280291
H	 1.1249880645	-2.8735163638	 1.5215320279	 0.094782
H	 1.4392723429	-2.8713460351	-1.1906321399	 0.102699
170.4952	203.6695	213.7784	254.1723	305.4123	378.3209	416.8897	453.6523	524.063	611.3591	625.5151	676.5208	774.7349	812.7729	846.2107	874.414	895.341	924.1789	942.3047	949.7674	994.2245	1049.0975	1055.6657	1082.8632	1084.9883	1106.6593	1137.9793	1164.4027	1214.3316	1235.4988	1241.7895	1261.7416	1279.0926	1302.4158	1347.2411	1383.8538	1411.0783	1423.3833	1491.7835	1498.73	1513.8101	3039.3574	3053.2457	3099.8527	3104.8285	3122.5289	3128.8035	3140.1736	3148.6866	3173.0293	3805.8687
CC1C2CC1(O)C1OC21	C[C@H]1[C@H]2C[C@]1(O)[C@H]1O[C@@H]21	
InChI=1S/C7H10O2/c1-3-4-2-7(3,8)6-5(4)9-6/h3-6,8H,2H2,1H3	InChI=1S/C7H10O2/c1-3-4-2-7(3,8)6-5(4)9-6/h3-6,8H,2H2,1H3/t3-,4+,5-,6-,7+/m0/s1
