13
gdb 132282	2.07805	1.78573	0.96615	5.0399	64.96	-0.2633	-0.0708	0.1925	1109.1474	0.08725	-497.91631	-497.908475	-497.90753	-497.94952	27.899	
C	-0.0182668368	 1.5065088501	-0.000140885	-0.475027
C	 0.0015053572	 0.0051181881	 0.0080919286	 0.350919
N	-0.0251402679	-0.6020660868	-1.1550688273	-0.381969
C	-0.0104279348	-1.9561326669	-1.2412052426	 0.460993
O	-0.0297748612	-2.660669933	-2.1951957302	-0.304209
O	 0.0379778792	-2.6977975607	 0.0607342001	-0.239364
C	 0.0630901252	-2.0309208818	 1.1733462878	 0.44816
F	 0.103497472	-2.8072809759	 2.2273157316	-0.026852
C	 0.0477052523	-0.6785152058	 1.2560871066	-0.421655
H	 0.8690961414	 1.900567984	 0.5075247904	 0.149139
H	-0.0477267582	 1.8760310121	-1.0244860809	 0.159784
H	-0.8912010754	 1.8768578576	 0.5488450653	 0.149443
H	 0.069438077	-0.172476331	 2.2088271356	 0.130638
60.8436	110.324	173.8596	218.3714	292.138	334.111	473.7452	511.4659	566.9617	607.1693	621.6237	718.856	735.87	786.19	803.6152	948.0181	992.9316	1035.0241	1053.9873	1125.4922	1205.7411	1382.5739	1409.3921	1451.7949	1468.6104	1478.2753	1555.8644	1698.9932	1922.4226	3040.7581	3096.7072	3164.406	3252.0015
CC1=NC(=O)OC(F)=C1	Cc1nc(=O)oc(F)c1	
InChI=1S/C5H4FNO2/c1-3-2-4(6)9-5(8)7-3/h2H,1H3	InChI=1S/C5H4FNO2/c1-3-2-4(6)9-5(8)7-3/h2H,1H3
