23
gdb 57878	2.63909	1.15377	1.00094	2.5366	86.54	-0.2364	-0.0102	0.2262	1348.7513	0.203576	-388.311841	-388.30138	-388.300435	-388.34737	39.044	
C	 0.5523173805	 1.4554940816	 0.1668755194	-0.389033
C	-0.0144351231	 0.0312291778	-0.0227482883	-0.073648
C	 0.3365986842	-0.524431352	-1.4065162893	-0.385668
C	 0.5558005014	-0.8583790994	 1.0870222535	 0.319842
O	 1.5863071462	-1.4780859931	 0.9066949842	-0.344464
C	-0.1441002516	-0.9128542938	 2.4213599666	 0.248412
C	-1.4876530651	-0.2326031866	 2.6072007291	-0.493032
C	 0.1132404774	-2.1956330528	 3.2053428367	-0.277347
C	 0.8106158486	-0.9444395644	 3.6159779144	-0.274218
H	 1.6413701681	 1.4450582703	 0.0568593022	 0.133274
H	 0.1383854964	 2.1317752869	-0.5872931026	 0.11881
H	 0.3181166549	 1.8664797923	 1.1536157251	 0.120296
H	-1.1031304314	 0.0823340518	 0.0820181941	 0.081129
H	 1.4185348649	-0.6349342604	-1.5080626567	 0.137646
H	-0.1130296387	-1.5091515147	-1.5654128624	 0.114492
H	-0.0258637498	 0.1471546788	-2.1910832808	 0.104179
H	-2.2572614767	-0.6627480116	 1.9569244031	 0.124596
H	-1.8305020061	-0.3564423349	 3.6389204363	 0.115967
H	-1.4421045659	 0.8430988923	 2.4083788273	 0.12395
H	-0.7048260323	-2.5634194816	 3.8150904464	 0.111073
H	 0.7036731423	-2.9502073706	 2.700008703	 0.137242
H	 1.8665892248	-0.8650100914	 3.3868231871	 0.134189
H	 0.483339141	-0.4292940645	 4.5127161315	 0.112312
39.6323	71.5032	187.6095	203.2632	222.6227	242.9787	250.9029	289.2247	305.5875	334.541	358.0738	370.4251	450.0713	562.0016	700.3256	758.2452	796.2085	824.8685	834.7824	890.2363	933.6762	957.3531	962.4516	973.1845	1024.4987	1076.6936	1078.6378	1091.0775	1104.9154	1116.3963	1130.5176	1199.5885	1206.6906	1305.3104	1313.1719	1326.1981	1380.8425	1396.0925	1415.8033	1422.0409	1451.9993	1483.479	1484.954	1488.2478	1496.6844	1500.5645	1503.4556	1512.6749	1768.0827	3030.4802	3035.3999	3042.442	3054.6111	3092.6864	3101.4342	3106.7072	3108.6883	3111.7488	3132.3291	3136.2907	3139.597	3227.4256	3241.1259
CC(C)C(=O)C1(C)CC1	CC(C)C(=O)C1(C)CC1	
InChI=1S/C8H14O/c1-6(2)7(9)8(3)4-5-8/h6H,4-5H2,1-3H3	InChI=1S/C8H14O/c1-6(2)7(9)8(3)4-5-8/h6H,4-5H2,1-3H3
