21
gdb 86049	3.08579	1.05179	0.97721	3.5554	80.66	-0.2171	0.0282	0.2453	1325.9988	0.181354	-420.41019	-420.400402	-420.399458	-420.44489	36.03	
C	 0.0940699426	 1.4795539473	 0.1927802924	-0.318202
N	-0.0039999757	 0.0390169215	 0.1654232621	-0.064757
C	-1.2713783281	-0.5930757101	 0.5633454239	-0.224913
C	-0.4548362059	-1.7466054914	 1.2052981851	 0.325119
C	-0.2604478506	-2.9544531133	 0.2907633188	-0.435185
C	 0.7359967987	-0.7474493766	 1.1723882418	-0.186232
N	-0.9180815831	-2.1359100482	 2.5297537475	-0.334293
C	-0.117861284	-2.7397411868	 3.4438761814	 0.147729
O	 1.063210547	-2.9736585312	 3.2837317332	-0.331448
H	 1.1180486964	 1.7845491403	-0.0473122753	 0.124645
H	-0.5705165108	 1.9134188107	-0.5622710856	 0.119865
H	-0.1711875353	 1.9160204227	 1.1752650358	 0.08848
H	-1.8253361997	-0.0198175735	 1.3280145993	 0.075337
H	-1.9497830158	-0.842322113	-0.2608968898	 0.102145
H	 0.075294564	-2.6245034676	-0.6961348209	 0.131053
H	 0.4908623374	-3.6249583541	 0.7150801018	 0.148133
H	-1.198647576	-3.5074734199	 0.1732553661	 0.105074
H	 1.7070655218	-1.1294164488	 0.8464871948	 0.114055
H	 0.8528234569	-0.2300985759	 2.1364774995	 0.091761
H	-1.8963832333	-2.0277668049	 2.74793539	 0.24492
H	-0.6638541166	-2.9883653271	 4.3765023281	 0.076713
55.1688	99.7515	157.6195	201.8218	226.6588	262.9785	293.7832	306.6349	308.1789	375.5252	426.3	440.2944	518.8984	576.0449	741.6115	825.7216	887.3522	923.0376	955.8689	982.317	999.7253	1008.8868	1030.0355	1115.2335	1127.4951	1160.927	1173.3725	1195.1599	1209.7393	1234.1131	1274.8182	1288.1463	1304.8748	1353.1517	1402.2052	1427.6949	1451.6004	1482.2761	1485.3387	1497.3901	1499.3391	1503.0435	1515.5322	1525.7016	1795.1352	2919.7604	2927.5608	2942.9192	2994.1227	3037.3411	3048.105	3055.4952	3087.9737	3098.119	3110.5516	3132.1113	3624.5745
CN1CC(C)(C1)NC=O	CN1CC(C)(C1)NC=O	
InChI=1S/C6H12N2O/c1-6(7-5-9)3-8(2)4-6/h5H,3-4H2,1-2H3,(H,7,9)	InChI=1S/C6H12N2O/c1-6(7-5-9)3-8(2)4-6/h5H,3-4H2,1-2H3,(H,7,9)
